
     RDKit          3D

104110  0  0  0  0  0  0  0  0999 V2000
   27.6069   14.8970   25.7762 C   0  0  0  0  0  0  0  0  0  0  0  0
   27.5426   15.4907   27.1754 C   0  0  0  0  0  0  0  0  0  0  0  0
   28.9618   15.9760   27.3983 C   0  0  0  0  0  0  0  0  0  0  0  0
   29.3624   16.5906   26.0530 C   0  0  2  0  0  0  0  0  0  0  0  0
   28.4903   15.8700   24.9878 C   0  0  2  0  0  0  0  0  0  0  0  0
   30.7727   16.3835   25.8683 O   0  0  0  0  0  0  0  0  0  0  0  0
   31.3091   17.0657   24.8294 C   0  0  0  0  0  0  0  0  0  0  0  0
   32.6667   16.9698   24.8700 N   0  0  0  0  0  0  0  0  0  0  0  0
   30.6784   17.6536   23.9671 O   0  0  0  0  0  0  0  0  0  0  0  0
   33.4804   17.7567   23.9548 C   0  0  2  0  0  0  0  0  0  0  0  0
   33.8007   17.0730   22.5843 C   0  0  0  0  0  0  0  0  0  0  0  0
   34.7057   18.4425   24.6617 C   0  0  0  0  0  0  0  0  0  0  0  0
   35.3789   19.4860   23.7421 C   0  0  0  0  0  0  0  0  0  0  0  0
   34.2234   19.2089   25.9223 C   0  0  0  0  0  0  0  0  0  0  0  0
   35.7697   17.4283   25.0965 C   0  0  0  0  0  0  0  0  0  0  0  0
   34.2332   17.7887   21.6701 O   0  0  0  0  0  0  0  0  0  0  0  0
   33.6545   15.7196   22.3330 N   0  0  0  0  0  0  0  0  0  0  0  0
   32.8514   14.0539   20.8159 C   0  0  1  0  0  0  0  0  0  0  0  0
   33.7170   15.3117   20.9267 C   0  0  0  0  0  0  0  0  0  0  0  0
   33.0608   14.6409   23.1365 C   0  0  1  0  0  0  0  0  0  0  0  0
   33.0602   13.4268   22.1824 C   0  0  0  0  0  0  0  0  0  0  0  0
   31.4781   14.4385   20.6556 O   0  0  0  0  0  0  0  0  0  0  0  0
   30.6374   13.4489   20.2151 C   0  0  0  0  0  0  0  0  0  0  0  0
   31.1036   12.1742   20.2327 N   0  0  0  0  0  0  0  0  0  0  0  0
   30.2559   11.2016   19.8493 C   0  0  0  0  0  0  0  0  0  0  0  0
   28.9311   11.4994   19.4599 C   0  0  0  0  0  0  0  0  0  0  0  0
   28.4725   12.7627   19.4540 N   0  0  0  0  0  0  0  0  0  0  0  0
   29.3358   13.7579   19.8359 C   0  0  0  0  0  0  0  0  0  0  0  0
   28.0841   10.4646   19.0788 C   0  0  0  0  0  0  0  0  0  0  0  0
   28.5169    9.1376   19.0744 C   0  0  0  0  0  0  0  0  0  0  0  0
   29.8172    8.8411   19.4548 C   0  0  0  0  0  0  0  0  0  0  0  0
   30.6789    9.8764   19.8328 C   0  0  0  0  0  0  0  0  0  0  0  0
   28.7959   15.1797   19.8905 C   0  0  0  0  0  0  0  0  0  0  0  0
   27.8999   15.3621   21.0972 C   0  0  0  0  0  0  0  0  0  0  0  0
   27.9673   16.3528   22.0079 C   0  0  0  0  0  0  0  0  0  0  0  0
   27.0176   16.4767   23.1626 C   0  0  0  0  0  0  0  0  0  0  0  0
   27.6848   16.8720   24.3561 O   0  0  0  0  0  0  0  0  0  0  0  0
   28.0444   15.4527   18.7809 F   0  0  0  0  0  0  0  0  0  0  0  0
   29.7629   16.1433   19.8709 F   0  0  0  0  0  0  0  0  0  0  0  0
   33.7961   14.1617   24.4004 C   0  0  0  0  0  0  0  0  0  0  0  0
   33.1735   13.1058   25.0528 N   0  0  0  0  0  0  0  0  0  0  0  0
   34.8459   14.6293   24.8282 O   0  0  0  0  0  0  0  0  0  0  0  0
   33.8106   12.4021   26.1516 C   0  0  2  0  0  0  0  0  0  0  0  0
   35.0701   11.5891   25.8440 C   0  0  0  0  0  0  0  0  0  0  0  0
   33.7763   10.8756   26.1238 C   0  0  1  0  0  0  0  0  0  0  0  0
   33.7716   13.1207   27.4812 C   0  0  0  0  0  0  0  0  0  0  0  0
   34.7445   14.1101   27.6199 N   0  0  0  0  0  0  0  0  0  0  0  0
   32.9674   12.7940   28.3305 O   0  0  0  0  0  0  0  0  0  0  0  0
   34.7408   15.2788   28.8085 S   0  0  0  0  0  0  0  0  0  0  0  0
   35.3369   14.6215   30.3941 C   0  0  0  0  0  0  0  0  0  0  0  0
   33.3749   15.7086   29.0044 O   0  0  0  0  0  0  0  0  0  0  0  0
   35.7493   16.2362   28.3916 O   0  0  0  0  0  0  0  0  0  0  0  0
   35.2651   15.6345   31.4781 C   0  0  0  0  0  0  0  0  0  0  0  0
   36.5236   13.6947   30.2779 C   0  0  0  0  0  0  0  0  0  0  0  0
   35.1661   13.1554   30.6693 C   0  0  0  0  0  0  0  0  0  0  0  0
   33.6127   10.0396   27.3461 C   0  0  0  0  0  0  0  0  0  0  0  0
   32.3065    9.6768   27.4403 F   0  0  0  0  0  0  0  0  0  0  0  0
   34.3290    8.8988   27.1669 F   0  0  0  0  0  0  0  0  0  0  0  0
   28.0884   13.9145   25.8318 H   0  0  0  0  0  0  0  0  0  0  0  0
   26.6021   14.7647   25.3692 H   0  0  0  0  0  0  0  0  0  0  0  0
   26.8431   16.3337   27.1998 H   0  0  0  0  0  0  0  0  0  0  0  0
   27.2338   14.7635   27.9320 H   0  0  0  0  0  0  0  0  0  0  0  0
   29.6258   15.1406   27.6559 H   0  0  0  0  0  0  0  0  0  0  0  0
   29.0275   16.7100   28.2082 H   0  0  0  0  0  0  0  0  0  0  0  0
   29.1633   17.6724   26.0745 H   0  0  0  0  0  0  0  0  0  0  0  0
   29.0905   15.3375   24.2424 H   0  0  0  0  0  0  0  0  0  0  0  0
   33.0632   16.6322   25.7384 H   0  0  0  0  0  0  0  0  0  0  0  0
   32.8337   18.5923   23.6538 H   0  0  0  0  0  0  0  0  0  0  0  0
   35.8927   19.0252   22.8979 H   0  0  0  0  0  0  0  0  0  0  0  0
   36.1366   20.0482   24.2875 H   0  0  0  0  0  0  0  0  0  0  0  0
   34.6514   20.2048   23.3563 H   0  0  0  0  0  0  0  0  0  0  0  0
   33.7933   18.5306   26.6693 H   0  0  0  0  0  0  0  0  0  0  0  0
   33.4637   19.9556   25.6637 H   0  0  0  0  0  0  0  0  0  0  0  0
   35.0560   19.7293   26.4102 H   0  0  0  0  0  0  0  0  0  0  0  0
   36.0821   16.8008   24.2586 H   0  0  0  0  0  0  0  0  0  0  0  0
   36.6696   17.9175   25.4857 H   0  0  0  0  0  0  0  0  0  0  0  0
   35.3857   16.7834   25.8888 H   0  0  0  0  0  0  0  0  0  0  0  0
   33.1893   13.4425   19.9716 H   0  0  0  0  0  0  0  0  0  0  0  0
   34.7676   15.0870   20.7048 H   0  0  0  0  0  0  0  0  0  0  0  0
   33.3509   16.1029   20.2584 H   0  0  0  0  0  0  0  0  0  0  0  0
   32.0305   14.9166   23.3783 H   0  0  0  0  0  0  0  0  0  0  0  0
   34.0334   12.9172   22.1977 H   0  0  0  0  0  0  0  0  0  0  0  0
   32.2910   12.6976   22.4644 H   0  0  0  0  0  0  0  0  0  0  0  0
   27.0676   10.6947   18.7789 H   0  0  0  0  0  0  0  0  0  0  0  0
   27.8372    8.3401   18.7774 H   0  0  0  0  0  0  0  0  0  0  0  0
   30.1755    7.8138   19.4552 H   0  0  0  0  0  0  0  0  0  0  0  0
   31.6983    9.6379   20.1264 H   0  0  0  0  0  0  0  0  0  0  0  0
   27.1119   14.6200   21.1828 H   0  0  0  0  0  0  0  0  0  0  0  0
   28.7183   17.1349   21.9120 H   0  0  0  0  0  0  0  0  0  0  0  0
   26.4456   15.5573   23.3230 H   0  0  0  0  0  0  0  0  0  0  0  0
   26.3031   17.2705   22.9197 H   0  0  0  0  0  0  0  0  0  0  0  0
   32.2861   12.7535   24.7062 H   0  0  0  0  0  0  0  0  0  0  0  0
   35.8580   11.5517   26.5926 H   0  0  0  0  0  0  0  0  0  0  0  0
   35.4419   11.5842   24.8223 H   0  0  0  0  0  0  0  0  0  0  0  0
   33.3016   10.3900   25.2773 H   0  0  0  0  0  0  0  0  0  0  0  0
   35.1663   14.4526   26.7448 H   0  0  0  0  0  0  0  0  0  0  0  0
   35.6243   15.2217   32.4253 H   0  0  0  0  0  0  0  0  0  0  0  0
   35.8754   16.5117   31.2313 H   0  0  0  0  0  0  0  0  0  0  0  0
   34.2315   15.9661   31.6395 H   0  0  0  0  0  0  0  0  0  0  0  0
   37.2928   13.7341   31.0386 H   0  0  0  0  0  0  0  0  0  0  0  0
   36.9011   13.4508   29.2893 H   0  0  0  0  0  0  0  0  0  0  0  0
   35.0302   12.8440   31.7016 H   0  0  0  0  0  0  0  0  0  0  0  0
   34.6671   12.5082   29.9665 H   0  0  0  0  0  0  0  0  0  0  0  0
   33.9425   10.5060   28.2740 H   0  0  0  0  0  0  0  0  0  0  0  0
  1  2  1  0
  2  3  1  0
  4  3  1  0
  4  5  1  0
  5  1  1  0
  4  6  1  0
  6  7  1  0
  7  8  1  0
  7  9  2  0
  8 10  1  0
 10 11  1  0
 10 12  1  0
 12 13  1  0
 12 14  1  0
 12 15  1  0
 11 16  2  0
 11 17  1  0
 19 17  1  0
 17 20  1  0
 18 19  1  0
 20 21  1  0
 18 21  1  0
 18 22  1  0
 22 23  1  0
 23 24  2  0
 28 23  1  0
 24 25  1  0
 26 27  1  0
 27 28  2  0
 26 29  1  0
 25 26  2  0
 32 25  1  0
 29 30  2  0
 30 31  1  0
 31 32  2  0
 28 33  1  0
 33 34  1  0
 34 35  2  0
 35 36  1  0
 36 37  1  0
  5 37  1  0
 33 38  1  0
 33 39  1  0
 20 40  1  0
 40 41  1  0
 40 42  2  0
 43 41  1  1
 43 44  1  0
 45 43  1  0
 44 45  1  0
 43 46  1  0
 46 47  1  0
 46 48  2  0
 47 49  1  0
 49 50  1  0
 49 51  2  0
 49 52  2  0
 50 53  1  0
 50 54  1  0
 55 50  1  0
 54 55  1  0
 45 56  1  0
 56 57  1  0
 56 58  1  0
  1 59  1  0
  1 60  1  0
  2 61  1  0
  2 62  1  0
  3 63  1  0
  3 64  1  0
  4 65  1  6
  5 66  1  1
  8 67  1  0
 10 68  1  6
 13 69  1  0
 13 70  1  0
 13 71  1  0
 14 72  1  0
 14 73  1  0
 14 74  1  0
 15 75  1  0
 15 76  1  0
 15 77  1  0
 18 78  1  1
 19 79  1  0
 19 80  1  0
 20 81  1  6
 21 82  1  0
 21 83  1  0
 29 84  1  0
 30 85  1  0
 31 86  1  0
 32 87  1  0
 34 88  1  0
 35 89  1  0
 36 90  1  0
 36 91  1  0
 41 92  1  0
 44 93  1  0
 44 94  1  0
 45 95  1  1
 47 96  1  0
 53 97  1  0
 53 98  1  0
 53 99  1  0
 54100  1  0
 54101  1  0
 55102  1  0
 55103  1  0
 56104  1  0
M  END
> <Uni-Dock RESULT> 
ENERGY=   -3.849  LOWER_BOUND=    0.000  UPPER_BOUND=    0.000
INTER + INTRA:          -3.849
INTER:                  -3.849
INTRA:                   0.000
UNBOUND:                 0.000

$$$$

     RDKit          3D

104110  0  0  0  0  0  0  0  0999 V2000
   32.7961   15.5346   22.2491 C   0  0  0  0  0  0  0  0  0  0  0  0
   34.2545   15.8572   22.5378 C   0  0  0  0  0  0  0  0  0  0  0  0
   34.4670   15.2468   23.9095 C   0  0  0  0  0  0  0  0  0  0  0  0
   33.7168   13.9122   23.8451 C   0  0  2  0  0  0  0  0  0  0  0  0
   32.6092   14.1065   22.7727 C   0  0  2  0  0  0  0  0  0  0  0  0
   33.1971   13.6270   25.1544 O   0  0  0  0  0  0  0  0  0  0  0  0
   32.7021   12.3757   25.3017 C   0  0  0  0  0  0  0  0  0  0  0  0
   32.4341   12.1405   26.6158 N   0  0  0  0  0  0  0  0  0  0  0  0
   32.4959   11.5847   24.3970 O   0  0  0  0  0  0  0  0  0  0  0  0
   32.0490   10.8067   27.0535 C   0  0  2  0  0  0  0  0  0  0  0  0
   30.5132   10.5085   27.0254 C   0  0  0  0  0  0  0  0  0  0  0  0
   32.7936   10.3539   28.3619 C   0  0  0  0  0  0  0  0  0  0  0  0
   32.5843    8.8486   28.6407 C   0  0  0  0  0  0  0  0  0  0  0  0
   34.3223   10.5652   28.1962 C   0  0  0  0  0  0  0  0  0  0  0  0
   32.3332   11.1392   29.5953 C   0  0  0  0  0  0  0  0  0  0  0  0
   30.1540    9.3255   27.1067 O   0  0  0  0  0  0  0  0  0  0  0  0
   29.5301   11.4792   26.9387 N   0  0  0  0  0  0  0  0  0  0  0  0
   27.4902   12.1554   25.8889 C   0  0  1  0  0  0  0  0  0  0  0  0
   28.1781   11.0055   26.6291 C   0  0  0  0  0  0  0  0  0  0  0  0
   29.6136   12.9284   26.7054 C   0  0  1  0  0  0  0  0  0  0  0  0
   28.1407   13.3618   26.5411 C   0  0  0  0  0  0  0  0  0  0  0  0
   27.8411   12.0987   24.4984 O   0  0  0  0  0  0  0  0  0  0  0  0
   27.0529   12.8462   23.6616 C   0  0  0  0  0  0  0  0  0  0  0  0
   26.2175   13.7533   24.2289 N   0  0  0  0  0  0  0  0  0  0  0  0
   25.4852   14.5207   23.4003 C   0  0  0  0  0  0  0  0  0  0  0  0
   25.5970   14.3936   21.9979 C   0  0  0  0  0  0  0  0  0  0  0  0
   26.4333   13.5002   21.4423 N   0  0  0  0  0  0  0  0  0  0  0  0
   27.1752   12.7102   22.2833 C   0  0  0  0  0  0  0  0  0  0  0  0
   24.8290   15.2115   21.1764 C   0  0  0  0  0  0  0  0  0  0  0  0
   23.9510   16.1561   21.7104 C   0  0  0  0  0  0  0  0  0  0  0  0
   23.8374   16.2832   23.0868 C   0  0  0  0  0  0  0  0  0  0  0  0
   24.6006   15.4595   23.9212 C   0  0  0  0  0  0  0  0  0  0  0  0
   28.1684   11.7446   21.6530 C   0  0  0  0  0  0  0  0  0  0  0  0
   29.3779   12.4913   21.1316 C   0  0  0  0  0  0  0  0  0  0  0  0
   30.6708   12.1947   21.3675 C   0  0  0  0  0  0  0  0  0  0  0  0
   31.8142   12.9721   20.7854 C   0  0  0  0  0  0  0  0  0  0  0  0
   32.8628   13.1579   21.7297 O   0  0  0  0  0  0  0  0  0  0  0  0
   27.6019   11.0958   20.5908 F   0  0  0  0  0  0  0  0  0  0  0  0
   28.5600   10.7309   22.4794 F   0  0  0  0  0  0  0  0  0  0  0  0
   30.1793   13.8308   27.8160 C   0  0  0  0  0  0  0  0  0  0  0  0
   30.1640   15.1851   27.5092 N   0  0  0  0  0  0  0  0  0  0  0  0
   30.6066   13.4393   28.8966 O   0  0  0  0  0  0  0  0  0  0  0  0
   30.4836   16.1979   28.4993 C   0  0  2  0  0  0  0  0  0  0  0  0
   29.5310   16.3625   29.6855 C   0  0  0  0  0  0  0  0  0  0  0  0
   29.5506   17.4028   28.5999 C   0  0  1  0  0  0  0  0  0  0  0  0
   31.9584   16.3765   28.7803 C   0  0  0  0  0  0  0  0  0  0  0  0
   32.4877   15.4289   29.6557 N   0  0  0  0  0  0  0  0  0  0  0  0
   32.5671   17.3060   28.2900 O   0  0  0  0  0  0  0  0  0  0  0  0
   34.1168   15.1630   29.8879 S   0  0  0  0  0  0  0  0  0  0  0  0
   34.8510   16.4199   30.9754 C   0  0  0  0  0  0  0  0  0  0  0  0
   34.7712   15.2667   28.6035 O   0  0  0  0  0  0  0  0  0  0  0  0
   34.1877   13.9230   30.6395 O   0  0  0  0  0  0  0  0  0  0  0  0
   36.3172   16.2362   31.1268 C   0  0  0  0  0  0  0  0  0  0  0  0
   33.9920   16.7991   32.1582 C   0  0  0  0  0  0  0  0  0  0  0  0
   34.2148   17.7789   31.0280 C   0  0  0  0  0  0  0  0  0  0  0  0
   30.0297   18.7864   28.8750 C   0  0  0  0  0  0  0  0  0  0  0  0
   30.1179   19.4482   27.6913 F   0  0  0  0  0  0  0  0  0  0  0  0
   29.0769   19.4162   29.6112 F   0  0  0  0  0  0  0  0  0  0  0  0
   32.1632   16.2271   22.8150 H   0  0  0  0  0  0  0  0  0  0  0  0
   32.5786   15.6605   21.1863 H   0  0  0  0  0  0  0  0  0  0  0  0
   34.9048   15.3736   21.8003 H   0  0  0  0  0  0  0  0  0  0  0  0
   34.4620   16.9313   22.5298 H   0  0  0  0  0  0  0  0  0  0  0  0
   34.0473   15.8899   24.6940 H   0  0  0  0  0  0  0  0  0  0  0  0
   35.5274   15.0984   24.1384 H   0  0  0  0  0  0  0  0  0  0  0  0
   34.4192   13.1144   23.5614 H   0  0  0  0  0  0  0  0  0  0  0  0
   31.6014   13.9670   23.1781 H   0  0  0  0  0  0  0  0  0  0  0  0
   32.8372   12.7939   27.2761 H   0  0  0  0  0  0  0  0  0  0  0  0
   32.4319   10.1350   26.2729 H   0  0  0  0  0  0  0  0  0  0  0  0
   31.5580    8.6186   28.9286 H   0  0  0  0  0  0  0  0  0  0  0  0
   33.2120    8.5191   29.4684 H   0  0  0  0  0  0  0  0  0  0  0  0
   32.8453    8.2424   27.7694 H   0  0  0  0  0  0  0  0  0  0  0  0
   34.5733   11.6249   28.0653 H   0  0  0  0  0  0  0  0  0  0  0  0
   34.7050   10.0155   27.3284 H   0  0  0  0  0  0  0  0  0  0  0  0
   34.8668   10.2186   29.0824 H   0  0  0  0  0  0  0  0  0  0  0  0
   31.2476   11.0945   29.7086 H   0  0  0  0  0  0  0  0  0  0  0  0
   32.7701   10.7459   30.5200 H   0  0  0  0  0  0  0  0  0  0  0  0
   32.6313   12.1862   29.5184 H   0  0  0  0  0  0  0  0  0  0  0  0
   26.4046   12.0881   26.0231 H   0  0  0  0  0  0  0  0  0  0  0  0
   27.6830   10.8021   27.5867 H   0  0  0  0  0  0  0  0  0  0  0  0
   28.1982   10.0958   26.0138 H   0  0  0  0  0  0  0  0  0  0  0  0
   30.1513   13.0974   25.7682 H   0  0  0  0  0  0  0  0  0  0  0  0
   27.6729   13.5355   27.5200 H   0  0  0  0  0  0  0  0  0  0  0  0
   28.0593   14.2867   25.9574 H   0  0  0  0  0  0  0  0  0  0  0  0
   24.9148   15.1121   20.0999 H   0  0  0  0  0  0  0  0  0  0  0  0
   23.3614   16.7913   21.0507 H   0  0  0  0  0  0  0  0  0  0  0  0
   23.1565   17.0108   23.5233 H   0  0  0  0  0  0  0  0  0  0  0  0
   24.5044   15.5613   24.9995 H   0  0  0  0  0  0  0  0  0  0  0  0
   29.1390   13.3219   20.4743 H   0  0  0  0  0  0  0  0  0  0  0  0
   30.9323   11.3357   21.9830 H   0  0  0  0  0  0  0  0  0  0  0  0
   31.4886   13.9319   20.3718 H   0  0  0  0  0  0  0  0  0  0  0  0
   32.2293   12.3826   19.9609 H   0  0  0  0  0  0  0  0  0  0  0  0
   29.8403   15.4902   26.5961 H   0  0  0  0  0  0  0  0  0  0  0  0
   29.9513   16.6147   30.6562 H   0  0  0  0  0  0  0  0  0  0  0  0
   28.6657   15.7068   29.7446 H   0  0  0  0  0  0  0  0  0  0  0  0
   28.6839   17.4343   27.9476 H   0  0  0  0  0  0  0  0  0  0  0  0
   31.9366   14.5666   29.7727 H   0  0  0  0  0  0  0  0  0  0  0  0
   36.7431   17.0023   31.7813 H   0  0  0  0  0  0  0  0  0  0  0  0
   36.5434   15.2525   31.5557 H   0  0  0  0  0  0  0  0  0  0  0  0
   36.8264   16.3169   30.1581 H   0  0  0  0  0  0  0  0  0  0  0  0
   34.4712   17.0016   33.1074 H   0  0  0  0  0  0  0  0  0  0  0  0
   33.0079   16.3501   32.2544 H   0  0  0  0  0  0  0  0  0  0  0  0
   34.8561   18.6335   31.2260 H   0  0  0  0  0  0  0  0  0  0  0  0
   33.3671   18.0246   30.4092 H   0  0  0  0  0  0  0  0  0  0  0  0
   30.9742   18.8511   29.4145 H   0  0  0  0  0  0  0  0  0  0  0  0
  1  2  1  0
  2  3  1  0
  4  3  1  0
  4  5  1  0
  5  1  1  0
  4  6  1  0
  6  7  1  0
  7  8  1  0
  7  9  2  0
  8 10  1  0
 10 11  1  0
 10 12  1  0
 12 13  1  0
 12 14  1  0
 12 15  1  0
 11 16  2  0
 11 17  1  0
 19 17  1  0
 17 20  1  0
 18 19  1  0
 20 21  1  0
 18 21  1  0
 18 22  1  0
 22 23  1  0
 23 24  2  0
 28 23  1  0
 24 25  1  0
 26 27  1  0
 27 28  2  0
 26 29  1  0
 25 26  2  0
 32 25  1  0
 29 30  2  0
 30 31  1  0
 31 32  2  0
 28 33  1  0
 33 34  1  0
 34 35  2  0
 35 36  1  0
 36 37  1  0
  5 37  1  0
 33 38  1  0
 33 39  1  0
 20 40  1  0
 40 41  1  0
 40 42  2  0
 43 41  1  1
 43 44  1  0
 45 43  1  0
 44 45  1  0
 43 46  1  0
 46 47  1  0
 46 48  2  0
 47 49  1  0
 49 50  1  0
 49 51  2  0
 49 52  2  0
 50 53  1  0
 50 54  1  0
 55 50  1  0
 54 55  1  0
 45 56  1  0
 56 57  1  0
 56 58  1  0
  1 59  1  0
  1 60  1  0
  2 61  1  0
  2 62  1  0
  3 63  1  0
  3 64  1  0
  4 65  1  6
  5 66  1  1
  8 67  1  0
 10 68  1  6
 13 69  1  0
 13 70  1  0
 13 71  1  0
 14 72  1  0
 14 73  1  0
 14 74  1  0
 15 75  1  0
 15 76  1  0
 15 77  1  0
 18 78  1  1
 19 79  1  0
 19 80  1  0
 20 81  1  6
 21 82  1  0
 21 83  1  0
 29 84  1  0
 30 85  1  0
 31 86  1  0
 32 87  1  0
 34 88  1  0
 35 89  1  0
 36 90  1  0
 36 91  1  0
 41 92  1  0
 44 93  1  0
 44 94  1  0
 45 95  1  1
 47 96  1  0
 53 97  1  0
 53 98  1  0
 53 99  1  0
 54100  1  0
 54101  1  0
 55102  1  0
 55103  1  0
 56104  1  0
M  END
> <Uni-Dock RESULT> 
ENERGY=   -3.678  LOWER_BOUND=    3.276  UPPER_BOUND=    6.692
INTER + INTRA:          -3.678
INTER:                  -3.678
INTRA:                   0.000
UNBOUND:                 0.000

$$$$

     RDKit          3D

104110  0  0  0  0  0  0  0  0999 V2000
   33.6361   14.9172   24.0819 C   0  0  0  0  0  0  0  0  0  0  0  0
   34.0071   15.8020   22.9013 C   0  0  0  0  0  0  0  0  0  0  0  0
   32.6692   16.0406   22.2287 C   0  0  0  0  0  0  0  0  0  0  0  0
   31.6984   16.2586   23.3941 C   0  0  2  0  0  0  0  0  0  0  0  0
   32.3206   15.5059   24.6028 C   0  0  2  0  0  0  0  0  0  0  0  0
   30.4120   15.7478   23.0069 O   0  0  0  0  0  0  0  0  0  0  0  0
   29.4028   16.0709   23.8493 C   0  0  0  0  0  0  0  0  0  0  0  0
   28.2104   15.7256   23.2899 N   0  0  0  0  0  0  0  0  0  0  0  0
   29.5350   16.5675   24.9551 O   0  0  0  0  0  0  0  0  0  0  0  0
   26.9639   16.1222   23.9286 C   0  0  2  0  0  0  0  0  0  0  0  0
   26.3937   15.1081   24.9749 C   0  0  0  0  0  0  0  0  0  0  0  0
   25.9112   16.6955   22.9115 C   0  0  0  0  0  0  0  0  0  0  0  0
   24.7243   17.3637   23.6411 C   0  0  0  0  0  0  0  0  0  0  0  0
   26.5703   17.7961   22.0378 C   0  0  0  0  0  0  0  0  0  0  0  0
   25.3541   15.6142   21.9787 C   0  0  0  0  0  0  0  0  0  0  0  0
   25.5116   15.5104   25.7464 O   0  0  0  0  0  0  0  0  0  0  0  0
   26.7928   13.7868   25.0804 N   0  0  0  0  0  0  0  0  0  0  0  0
   27.4463   12.0183   26.5523 C   0  0  1  0  0  0  0  0  0  0  0  0
   26.3729   13.0786   26.2929 C   0  0  0  0  0  0  0  0  0  0  0  0
   27.8781   13.0442   24.4229 C   0  0  1  0  0  0  0  0  0  0  0  0
   27.8749   11.6752   25.1371 C   0  0  0  0  0  0  0  0  0  0  0  0
   28.5383   12.6166   27.2658 O   0  0  0  0  0  0  0  0  0  0  0  0
   29.4098   11.7364   27.8539 C   0  0  0  0  0  0  0  0  0  0  0  0
   29.3229   10.4306   27.4934 N   0  0  0  0  0  0  0  0  0  0  0  0
   30.2154    9.5804   28.0341 C   0  0  0  0  0  0  0  0  0  0  0  0
   31.2096   10.0366   28.9279 C   0  0  0  0  0  0  0  0  0  0  0  0
   31.2964   11.3326   29.2733 N   0  0  0  0  0  0  0  0  0  0  0  0
   30.3834   12.2010   28.7312 C   0  0  0  0  0  0  0  0  0  0  0  0
   32.1182    9.1273   29.4580 C   0  0  0  0  0  0  0  0  0  0  0  0
   32.0679    7.7731   29.1233 C   0  0  0  0  0  0  0  0  0  0  0  0
   31.0926    7.3209   28.2470 C   0  0  0  0  0  0  0  0  0  0  0  0
   30.1695    8.2272   27.7145 C   0  0  0  0  0  0  0  0  0  0  0  0
   30.5230   13.6775   29.0726 C   0  0  0  0  0  0  0  0  0  0  0  0
   31.6903   14.2876   28.3260 C   0  0  0  0  0  0  0  0  0  0  0  0
   31.6764   15.4205   27.5969 C   0  0  0  0  0  0  0  0  0  0  0  0
   32.8902   15.9737   26.9104 C   0  0  0  0  0  0  0  0  0  0  0  0
   32.5809   16.4827   25.6177 O   0  0  0  0  0  0  0  0  0  0  0  0
   30.7638   13.8424   30.4087 F   0  0  0  0  0  0  0  0  0  0  0  0
   29.3904   14.4083   28.8557 F   0  0  0  0  0  0  0  0  0  0  0  0
   27.7568   12.7187   22.9238 C   0  0  0  0  0  0  0  0  0  0  0  0
   28.8121   11.9707   22.4187 N   0  0  0  0  0  0  0  0  0  0  0  0
   26.8268   13.0564   22.1996 O   0  0  0  0  0  0  0  0  0  0  0  0
   28.7829   11.4134   21.0782 C   0  0  2  0  0  0  0  0  0  0  0  0
   27.7491   10.3254   20.7797 C   0  0  0  0  0  0  0  0  0  0  0  0
   29.1999    9.9535   20.9138 C   0  0  1  0  0  0  0  0  0  0  0  0
   29.0755   12.3977   19.9686 C   0  0  0  0  0  0  0  0  0  0  0  0
   27.9836   13.1865   19.6077 N   0  0  0  0  0  0  0  0  0  0  0  0
   30.1722   12.4253   19.4478 O   0  0  0  0  0  0  0  0  0  0  0  0
   28.0806   14.5640   18.6739 S   0  0  0  0  0  0  0  0  0  0  0  0
   28.2389   14.1649   16.9084 C   0  0  0  0  0  0  0  0  0  0  0  0
   29.2730   15.2817   19.0639 O   0  0  0  0  0  0  0  0  0  0  0  0
   26.7796   15.1945   18.8051 O   0  0  0  0  0  0  0  0  0  0  0  0
   28.4032   15.3838   16.0755 C   0  0  0  0  0  0  0  0  0  0  0  0
   27.3643   13.0237   16.4466 C   0  0  0  0  0  0  0  0  0  0  0  0
   28.8650   12.8552   16.5252 C   0  0  0  0  0  0  0  0  0  0  0  0
   29.9720    9.4512   19.7429 C   0  0  0  0  0  0  0  0  0  0  0  0
   31.2816    9.3769   20.0983 F   0  0  0  0  0  0  0  0  0  0  0  0
   29.5582    8.1825   19.4869 F   0  0  0  0  0  0  0  0  0  0  0  0
   33.4724   13.8962   23.7197 H   0  0  0  0  0  0  0  0  0  0  0  0
   34.4456   14.8961   24.8147 H   0  0  0  0  0  0  0  0  0  0  0  0
   34.4311   16.7489   23.2534 H   0  0  0  0  0  0  0  0  0  0  0  0
   34.7275   15.3305   22.2264 H   0  0  0  0  0  0  0  0  0  0  0  0
   32.3693   15.1692   21.6323 H   0  0  0  0  0  0  0  0  0  0  0  0
   32.6896   16.9063   21.5586 H   0  0  0  0  0  0  0  0  0  0  0  0
   31.6061   17.3367   23.5928 H   0  0  0  0  0  0  0  0  0  0  0  0
   31.6658   14.7183   24.9907 H   0  0  0  0  0  0  0  0  0  0  0  0
   28.2278   15.5150   22.2996 H   0  0  0  0  0  0  0  0  0  0  0  0
   27.2336   16.9811   24.5585 H   0  0  0  0  0  0  0  0  0  0  0  0
   24.0964   16.6399   24.1615 H   0  0  0  0  0  0  0  0  0  0  0  0
   24.0736   17.8738   22.9311 H   0  0  0  0  0  0  0  0  0  0  0  0
   25.0692   18.1080   24.3635 H   0  0  0  0  0  0  0  0  0  0  0  0
   27.3848   17.3928   21.4238 H   0  0  0  0  0  0  0  0  0  0  0  0
   26.9795   18.6011   22.6593 H   0  0  0  0  0  0  0  0  0  0  0  0
   25.8435   18.2393   21.3469 H   0  0  0  0  0  0  0  0  0  0  0  0
   24.9540   14.7712   22.5467 H   0  0  0  0  0  0  0  0  0  0  0  0
   24.5414   15.9930   21.3489 H   0  0  0  0  0  0  0  0  0  0  0  0
   26.1332   15.2437   21.3102 H   0  0  0  0  0  0  0  0  0  0  0  0
   27.0168   11.1843   27.1188 H   0  0  0  0  0  0  0  0  0  0  0  0
   25.4047   12.6123   26.0724 H   0  0  0  0  0  0  0  0  0  0  0  0
   26.2772   13.7609   27.1484 H   0  0  0  0  0  0  0  0  0  0  0  0
   28.8213   13.5597   24.6243 H   0  0  0  0  0  0  0  0  0  0  0  0
   27.1296   11.0030   24.6901 H   0  0  0  0  0  0  0  0  0  0  0  0
   28.8550   11.1875   25.0701 H   0  0  0  0  0  0  0  0  0  0  0  0
   32.8802    9.4785   30.1451 H   0  0  0  0  0  0  0  0  0  0  0  0
   32.7915    7.0767   29.5448 H   0  0  0  0  0  0  0  0  0  0  0  0
   31.0339    6.2690   27.9758 H   0  0  0  0  0  0  0  0  0  0  0  0
   29.4049    7.8661   27.0309 H   0  0  0  0  0  0  0  0  0  0  0  0
   32.6253   13.7484   28.4447 H   0  0  0  0  0  0  0  0  0  0  0  0
   30.7611   16.0028   27.5069 H   0  0  0  0  0  0  0  0  0  0  0  0
   33.7002   15.2395   26.8558 H   0  0  0  0  0  0  0  0  0  0  0  0
   33.2514   16.8183   27.5069 H   0  0  0  0  0  0  0  0  0  0  0  0
   29.5922   11.7296   23.0229 H   0  0  0  0  0  0  0  0  0  0  0  0
   27.2939   10.3003   19.7924 H   0  0  0  0  0  0  0  0  0  0  0  0
   27.0726   10.0266   21.5769 H   0  0  0  0  0  0  0  0  0  0  0  0
   29.4738    9.3965   21.8040 H   0  0  0  0  0  0  0  0  0  0  0  0
   27.2209   13.2423   20.2977 H   0  0  0  0  0  0  0  0  0  0  0  0
   28.5002   15.1255   15.0169 H   0  0  0  0  0  0  0  0  0  0  0  0
   27.5406   16.0515   16.1894 H   0  0  0  0  0  0  0  0  0  0  0  0
   29.3082   15.9359   16.3593 H   0  0  0  0  0  0  0  0  0  0  0  0
   26.9104   13.0783   15.4654 H   0  0  0  0  0  0  0  0  0  0  0  0
   26.7557   12.5024   17.1794 H   0  0  0  0  0  0  0  0  0  0  0  0
   29.4129   12.8081   15.5879 H   0  0  0  0  0  0  0  0  0  0  0  0
   29.2507   12.1794   17.2712 H   0  0  0  0  0  0  0  0  0  0  0  0
   29.8616   10.0356   18.8298 H   0  0  0  0  0  0  0  0  0  0  0  0
  1  2  1  0
  2  3  1  0
  4  3  1  0
  4  5  1  0
  5  1  1  0
  4  6  1  0
  6  7  1  0
  7  8  1  0
  7  9  2  0
  8 10  1  0
 10 11  1  0
 10 12  1  0
 12 13  1  0
 12 14  1  0
 12 15  1  0
 11 16  2  0
 11 17  1  0
 19 17  1  0
 17 20  1  0
 18 19  1  0
 20 21  1  0
 18 21  1  0
 18 22  1  0
 22 23  1  0
 23 24  2  0
 28 23  1  0
 24 25  1  0
 26 27  1  0
 27 28  2  0
 26 29  1  0
 25 26  2  0
 32 25  1  0
 29 30  2  0
 30 31  1  0
 31 32  2  0
 28 33  1  0
 33 34  1  0
 34 35  2  0
 35 36  1  0
 36 37  1  0
  5 37  1  0
 33 38  1  0
 33 39  1  0
 20 40  1  0
 40 41  1  0
 40 42  2  0
 43 41  1  1
 43 44  1  0
 45 43  1  0
 44 45  1  0
 43 46  1  0
 46 47  1  0
 46 48  2  0
 47 49  1  0
 49 50  1  0
 49 51  2  0
 49 52  2  0
 50 53  1  0
 50 54  1  0
 55 50  1  0
 54 55  1  0
 45 56  1  0
 56 57  1  0
 56 58  1  0
  1 59  1  0
  1 60  1  0
  2 61  1  0
  2 62  1  0
  3 63  1  0
  3 64  1  0
  4 65  1  6
  5 66  1  1
  8 67  1  0
 10 68  1  6
 13 69  1  0
 13 70  1  0
 13 71  1  0
 14 72  1  0
 14 73  1  0
 14 74  1  0
 15 75  1  0
 15 76  1  0
 15 77  1  0
 18 78  1  1
 19 79  1  0
 19 80  1  0
 20 81  1  6
 21 82  1  0
 21 83  1  0
 29 84  1  0
 30 85  1  0
 31 86  1  0
 32 87  1  0
 34 88  1  0
 35 89  1  0
 36 90  1  0
 36 91  1  0
 41 92  1  0
 44 93  1  0
 44 94  1  0
 45 95  1  1
 47 96  1  0
 53 97  1  0
 53 98  1  0
 53 99  1  0
 54100  1  0
 54101  1  0
 55102  1  0
 55103  1  0
 56104  1  0
M  END
> <Uni-Dock RESULT> 
ENERGY=   -3.613  LOWER_BOUND=    3.742  UPPER_BOUND=    9.100
INTER + INTRA:          -3.613
INTER:                  -3.613
INTRA:                   0.000
UNBOUND:                 0.000

$$$$

     RDKit          3D

104110  0  0  0  0  0  0  0  0999 V2000
   32.6546    8.7595   27.5648 C   0  0  0  0  0  0  0  0  0  0  0  0
   33.9184    8.6569   26.7242 C   0  0  0  0  0  0  0  0  0  0  0  0
   34.0342   10.0445   26.1238 C   0  0  0  0  0  0  0  0  0  0  0  0
   33.6547   10.9826   27.2744 C   0  0  2  0  0  0  0  0  0  0  0  0
   32.7345   10.1482   28.2079 C   0  0  2  0  0  0  0  0  0  0  0  0
   33.0032   12.1355   26.7158 O   0  0  0  0  0  0  0  0  0  0  0  0
   32.8105   13.1505   27.5906 C   0  0  0  0  0  0  0  0  0  0  0  0
   32.3863   14.2579   26.9217 N   0  0  0  0  0  0  0  0  0  0  0  0
   32.9621   13.0825   28.7986 O   0  0  0  0  0  0  0  0  0  0  0  0
   32.2687   15.5301   27.6194 C   0  0  2  0  0  0  0  0  0  0  0  0
   30.8804   15.8033   28.2875 C   0  0  0  0  0  0  0  0  0  0  0  0
   32.8649   16.7331   26.8018 C   0  0  0  0  0  0  0  0  0  0  0  0
   32.9842   18.0050   27.6711 C   0  0  0  0  0  0  0  0  0  0  0  0
   34.3010   16.3850   26.3268 C   0  0  0  0  0  0  0  0  0  0  0  0
   32.0221   17.0727   25.5673 C   0  0  0  0  0  0  0  0  0  0  0  0
   30.8119   16.7161   29.1225 O   0  0  0  0  0  0  0  0  0  0  0  0
   29.7202   15.1087   27.9910 N   0  0  0  0  0  0  0  0  0  0  0  0
   27.7887   13.9995   28.8626 C   0  0  1  0  0  0  0  0  0  0  0  0
   28.5985   15.2976   28.9152 C   0  0  0  0  0  0  0  0  0  0  0  0
   29.4867   13.9153   27.1646 C   0  0  1  0  0  0  0  0  0  0  0  0
   28.0033   13.5720   27.4221 C   0  0  0  0  0  0  0  0  0  0  0  0
   28.3764   13.0400   29.7536 O   0  0  0  0  0  0  0  0  0  0  0  0
   27.5857   11.9637   30.0639 C   0  0  0  0  0  0  0  0  0  0  0  0
   26.4696   11.7674   29.3166 N   0  0  0  0  0  0  0  0  0  0  0  0
   25.7260   10.6798   29.5918 C   0  0  0  0  0  0  0  0  0  0  0  0
   26.1046    9.7744   30.6078 C   0  0  0  0  0  0  0  0  0  0  0  0
   27.2162    9.9692   31.3378 N   0  0  0  0  0  0  0  0  0  0  0  0
   27.9724   11.0810   31.0663 C   0  0  0  0  0  0  0  0  0  0  0  0
   25.3134    8.6581   30.8551 C   0  0  0  0  0  0  0  0  0  0  0  0
   24.1532    8.4140   30.1183 C   0  0  0  0  0  0  0  0  0  0  0  0
   23.7773    9.3011   29.1207 C   0  0  0  0  0  0  0  0  0  0  0  0
   24.5632   10.4309   28.8698 C   0  0  0  0  0  0  0  0  0  0  0  0
   29.2641   11.2658   31.8495 C   0  0  0  0  0  0  0  0  0  0  0  0
   30.3261   10.3055   31.3573 C   0  0  0  0  0  0  0  0  0  0  0  0
   31.5920   10.6123   31.0126 C   0  0  0  0  0  0  0  0  0  0  0  0
   32.5938    9.5909   30.5612 C   0  0  0  0  0  0  0  0  0  0  0  0
   33.3871   10.0695   29.4807 O   0  0  0  0  0  0  0  0  0  0  0  0
   29.0642   11.0056   33.1771 F   0  0  0  0  0  0  0  0  0  0  0  0
   29.7430   12.5443   31.8393 F   0  0  0  0  0  0  0  0  0  0  0  0
   29.6157   14.0305   25.6357 C   0  0  0  0  0  0  0  0  0  0  0  0
   29.3236   12.8577   24.9519 N   0  0  0  0  0  0  0  0  0  0  0  0
   29.9333   15.0465   25.0271 O   0  0  0  0  0  0  0  0  0  0  0  0
   29.2116   12.8230   23.5046 C   0  0  2  0  0  0  0  0  0  0  0  0
   28.0583   13.5943   22.8591 C   0  0  0  0  0  0  0  0  0  0  0  0
   28.0100   12.0922   22.9092 C   0  0  1  0  0  0  0  0  0  0  0  0
   30.5273   12.8159   22.7600 C   0  0  0  0  0  0  0  0  0  0  0  0
   31.1132   14.0749   22.6318 N   0  0  0  0  0  0  0  0  0  0  0  0
   30.9660   11.7806   22.3013 O   0  0  0  0  0  0  0  0  0  0  0  0
   32.6931   14.3394   22.1707 S   0  0  0  0  0  0  0  0  0  0  0  0
   32.9004   14.1787   20.3727 C   0  0  0  0  0  0  0  0  0  0  0  0
   33.5131   13.3250   22.7931 O   0  0  0  0  0  0  0  0  0  0  0  0
   32.9339   15.7422   22.4564 O   0  0  0  0  0  0  0  0  0  0  0  0
   34.3186   14.3367   19.9603 C   0  0  0  0  0  0  0  0  0  0  0  0
   31.7848   14.7909   19.5596 C   0  0  0  0  0  0  0  0  0  0  0  0
   31.9528   13.2893   19.6209 C   0  0  0  0  0  0  0  0  0  0  0  0
   28.0826   11.2826   21.6606 C   0  0  0  0  0  0  0  0  0  0  0  0
   28.2088    9.9753   22.0093 F   0  0  0  0  0  0  0  0  0  0  0  0
   26.8931   11.4078   21.0157 F   0  0  0  0  0  0  0  0  0  0  0  0
   31.7844    8.7030   26.9016 H   0  0  0  0  0  0  0  0  0  0  0  0
   32.5989    7.9325   28.2760 H   0  0  0  0  0  0  0  0  0  0  0  0
   34.7837    8.4438   27.3616 H   0  0  0  0  0  0  0  0  0  0  0  0
   33.8559    7.8810   25.9555 H   0  0  0  0  0  0  0  0  0  0  0  0
   33.3420   10.1657   25.2804 H   0  0  0  0  0  0  0  0  0  0  0  0
   35.0432   10.2541   25.7537 H   0  0  0  0  0  0  0  0  0  0  0  0
   34.5684   11.3089   27.7931 H   0  0  0  0  0  0  0  0  0  0  0  0
   31.7369   10.5868   28.3174 H   0  0  0  0  0  0  0  0  0  0  0  0
   32.4982   14.2403   25.9155 H   0  0  0  0  0  0  0  0  0  0  0  0
   32.9321   15.4337   28.4899 H   0  0  0  0  0  0  0  0  0  0  0  0
   32.0113   18.4256   27.9270 H   0  0  0  0  0  0  0  0  0  0  0  0
   33.5215   18.7880   27.1364 H   0  0  0  0  0  0  0  0  0  0  0  0
   33.5310   17.8049   28.5962 H   0  0  0  0  0  0  0  0  0  0  0  0
   34.3047   15.5302   25.6395 H   0  0  0  0  0  0  0  0  0  0  0  0
   34.9494   16.1410   27.1763 H   0  0  0  0  0  0  0  0  0  0  0  0
   34.7529   17.2259   25.7877 H   0  0  0  0  0  0  0  0  0  0  0  0
   30.9772   17.2424   25.8375 H   0  0  0  0  0  0  0  0  0  0  0  0
   32.3760   17.9795   25.0642 H   0  0  0  0  0  0  0  0  0  0  0  0
   32.0645   16.2624   24.8374 H   0  0  0  0  0  0  0  0  0  0  0  0
   26.7459   14.1999   29.1336 H   0  0  0  0  0  0  0  0  0  0  0  0
   28.0109   16.1434   28.5371 H   0  0  0  0  0  0  0  0  0  0  0  0
   28.9452   15.5055   29.9365 H   0  0  0  0  0  0  0  0  0  0  0  0
   30.1197   13.1060   27.5392 H   0  0  0  0  0  0  0  0  0  0  0  0
   27.3463   14.1648   26.7708 H   0  0  0  0  0  0  0  0  0  0  0  0
   27.8004   12.5108   27.2333 H   0  0  0  0  0  0  0  0  0  0  0  0
   25.6045    7.9644   31.6362 H   0  0  0  0  0  0  0  0  0  0  0  0
   23.5490    7.5313   30.3232 H   0  0  0  0  0  0  0  0  0  0  0  0
   22.8750    9.1312   28.5371 H   0  0  0  0  0  0  0  0  0  0  0  0
   24.2612   11.1247   28.0889 H   0  0  0  0  0  0  0  0  0  0  0  0
   30.0085    9.2676   31.3280 H   0  0  0  0  0  0  0  0  0  0  0  0
   31.9452   11.6395   31.0829 H   0  0  0  0  0  0  0  0  0  0  0  0
   32.1200    8.6383   30.3038 H   0  0  0  0  0  0  0  0  0  0  0  0
   33.2754    9.4038   31.3979 H   0  0  0  0  0  0  0  0  0  0  0  0
   29.0972   12.0153   25.4722 H   0  0  0  0  0  0  0  0  0  0  0  0
   28.2312   14.0783   21.9007 H   0  0  0  0  0  0  0  0  0  0  0  0
   27.3822   14.1459   23.5078 H   0  0  0  0  0  0  0  0  0  0  0  0
   27.2871   11.6563   23.5912 H   0  0  0  0  0  0  0  0  0  0  0  0
   30.7773   14.7964   23.2857 H   0  0  0  0  0  0  0  0  0  0  0  0
   34.4259   14.2341   18.8765 H   0  0  0  0  0  0  0  0  0  0  0  0
   34.7007   15.3225   20.2522 H   0  0  0  0  0  0  0  0  0  0  0  0
   34.9515   13.5691   20.4235 H   0  0  0  0  0  0  0  0  0  0  0  0
   32.0297   15.2916   18.6316 H   0  0  0  0  0  0  0  0  0  0  0  0
   30.9385   15.2289   20.0803 H   0  0  0  0  0  0  0  0  0  0  0  0
   32.3225   12.7904   18.7290 H   0  0  0  0  0  0  0  0  0  0  0  0
   31.1901   12.7245   20.1320 H   0  0  0  0  0  0  0  0  0  0  0  0
   28.8757   11.5669   20.9695 H   0  0  0  0  0  0  0  0  0  0  0  0
  1  2  1  0
  2  3  1  0
  4  3  1  0
  4  5  1  0
  5  1  1  0
  4  6  1  0
  6  7  1  0
  7  8  1  0
  7  9  2  0
  8 10  1  0
 10 11  1  0
 10 12  1  0
 12 13  1  0
 12 14  1  0
 12 15  1  0
 11 16  2  0
 11 17  1  0
 19 17  1  0
 17 20  1  0
 18 19  1  0
 20 21  1  0
 18 21  1  0
 18 22  1  0
 22 23  1  0
 23 24  2  0
 28 23  1  0
 24 25  1  0
 26 27  1  0
 27 28  2  0
 26 29  1  0
 25 26  2  0
 32 25  1  0
 29 30  2  0
 30 31  1  0
 31 32  2  0
 28 33  1  0
 33 34  1  0
 34 35  2  0
 35 36  1  0
 36 37  1  0
  5 37  1  0
 33 38  1  0
 33 39  1  0
 20 40  1  0
 40 41  1  0
 40 42  2  0
 43 41  1  1
 43 44  1  0
 45 43  1  0
 44 45  1  0
 43 46  1  0
 46 47  1  0
 46 48  2  0
 47 49  1  0
 49 50  1  0
 49 51  2  0
 49 52  2  0
 50 53  1  0
 50 54  1  0
 55 50  1  0
 54 55  1  0
 45 56  1  0
 56 57  1  0
 56 58  1  0
  1 59  1  0
  1 60  1  0
  2 61  1  0
  2 62  1  0
  3 63  1  0
  3 64  1  0
  4 65  1  6
  5 66  1  1
  8 67  1  0
 10 68  1  6
 13 69  1  0
 13 70  1  0
 13 71  1  0
 14 72  1  0
 14 73  1  0
 14 74  1  0
 15 75  1  0
 15 76  1  0
 15 77  1  0
 18 78  1  1
 19 79  1  0
 19 80  1  0
 20 81  1  6
 21 82  1  0
 21 83  1  0
 29 84  1  0
 30 85  1  0
 31 86  1  0
 32 87  1  0
 34 88  1  0
 35 89  1  0
 36 90  1  0
 36 91  1  0
 41 92  1  0
 44 93  1  0
 44 94  1  0
 45 95  1  1
 47 96  1  0
 53 97  1  0
 53 98  1  0
 53 99  1  0
 54100  1  0
 54101  1  0
 55102  1  0
 55103  1  0
 56104  1  0
M  END
> <Uni-Dock RESULT> 
ENERGY=   -3.603  LOWER_BOUND=    4.226  UPPER_BOUND=    8.840
INTER + INTRA:          -3.603
INTER:                  -3.603
INTRA:                   0.000
UNBOUND:                 0.000

$$$$

     RDKit          3D

104110  0  0  0  0  0  0  0  0999 V2000
   33.0691   10.2294   26.9221 C   0  0  0  0  0  0  0  0  0  0  0  0
   34.3410   10.1409   26.0922 C   0  0  0  0  0  0  0  0  0  0  0  0
   34.2316   11.3491   25.1825 C   0  0  0  0  0  0  0  0  0  0  0  0
   33.6901   12.4555   26.0939 C   0  0  2  0  0  0  0  0  0  0  0  0
   32.9112   11.7240   27.2220 C   0  0  2  0  0  0  0  0  0  0  0  0
   32.8624   13.3232   25.3016 O   0  0  0  0  0  0  0  0  0  0  0  0
   32.4953   14.4692   25.9216 C   0  0  0  0  0  0  0  0  0  0  0  0
   31.9004   15.3046   25.0260 N   0  0  0  0  0  0  0  0  0  0  0  0
   32.6436   14.7116   27.1074 O   0  0  0  0  0  0  0  0  0  0  0  0
   31.5665   16.6680   25.4118 C   0  0  2  0  0  0  0  0  0  0  0  0
   30.1453   16.8594   26.0378 C   0  0  0  0  0  0  0  0  0  0  0  0
   31.9637   17.7269   24.3200 C   0  0  0  0  0  0  0  0  0  0  0  0
   31.8617   19.1689   24.8658 C   0  0  0  0  0  0  0  0  0  0  0  0
   33.4424   17.5168   23.8977 C   0  0  0  0  0  0  0  0  0  0  0  0
   31.0890   17.6256   23.0652 C   0  0  0  0  0  0  0  0  0  0  0  0
   29.9180   17.9184   26.6393 O   0  0  0  0  0  0  0  0  0  0  0  0
   29.1194   15.9347   25.9447 N   0  0  0  0  0  0  0  0  0  0  0  0
   27.3893   14.7600   27.1058 C   0  0  1  0  0  0  0  0  0  0  0  0
   27.9724   16.1487   26.8316 C   0  0  0  0  0  0  0  0  0  0  0  0
   29.0952   14.5593   25.4256 C   0  0  1  0  0  0  0  0  0  0  0  0
   27.6867   14.0481   25.7986 C   0  0  0  0  0  0  0  0  0  0  0  0
   28.1186   14.1451   28.1781 O   0  0  0  0  0  0  0  0  0  0  0  0
   27.5140   13.0570   28.7530 C   0  0  0  0  0  0  0  0  0  0  0  0
   26.4536   12.5116   28.1044 N   0  0  0  0  0  0  0  0  0  0  0  0
   25.8976   11.4121   28.6463 C   0  0  0  0  0  0  0  0  0  0  0  0
   26.4105   10.8442   29.8336 C   0  0  0  0  0  0  0  0  0  0  0  0
   27.4669   11.3834   30.4658 N   0  0  0  0  0  0  0  0  0  0  0  0
   28.0312   12.5090   29.9215 C   0  0  0  0  0  0  0  0  0  0  0  0
   25.8126    9.7029   30.3564 C   0  0  0  0  0  0  0  0  0  0  0  0
   24.7165    9.1069   29.7304 C   0  0  0  0  0  0  0  0  0  0  0  0
   24.2092    9.6620   28.5652 C   0  0  0  0  0  0  0  0  0  0  0  0
   24.7995   10.8146   28.0359 C   0  0  0  0  0  0  0  0  0  0  0  0
   29.2663   13.0805   30.6026 C   0  0  0  0  0  0  0  0  0  0  0  0
   30.4777   12.2184   30.3167 C   0  0  0  0  0  0  0  0  0  0  0  0
   31.6787   12.6386   29.8737 C   0  0  0  0  0  0  0  0  0  0  0  0
   32.8405   11.7178   29.6434 C   0  0  0  0  0  0  0  0  0  0  0  0
   33.5546   12.0531   28.4588 O   0  0  0  0  0  0  0  0  0  0  0  0
   29.0986   13.1092   31.9595 F   0  0  0  0  0  0  0  0  0  0  0  0
   29.5269   14.3816   30.2816 F   0  0  0  0  0  0  0  0  0  0  0  0
   29.2192   14.3328   23.9087 C   0  0  0  0  0  0  0  0  0  0  0  0
   29.1324   13.0010   23.5251 N   0  0  0  0  0  0  0  0  0  0  0  0
   29.3704   15.2160   23.0716 O   0  0  0  0  0  0  0  0  0  0  0  0
   29.0426   12.6106   22.1295 C   0  0  2  0  0  0  0  0  0  0  0  0
   27.7842   13.0103   21.3559 C   0  0  0  0  0  0  0  0  0  0  0  0
   27.9848   11.5746   21.7552 C   0  0  1  0  0  0  0  0  0  0  0  0
   30.3490   12.6446   21.3692 C   0  0  0  0  0  0  0  0  0  0  0  0
   30.7195   13.9169   20.9349 N   0  0  0  0  0  0  0  0  0  0  0  0
   30.9577   11.6166   21.1514 O   0  0  0  0  0  0  0  0  0  0  0  0
   32.2384   14.3206   20.3794 S   0  0  0  0  0  0  0  0  0  0  0  0
   32.4880   13.7795   18.6629 C   0  0  0  0  0  0  0  0  0  0  0  0
   33.2087   13.6282   21.1968 O   0  0  0  0  0  0  0  0  0  0  0  0
   32.2406   15.7712   20.3240 O   0  0  0  0  0  0  0  0  0  0  0  0
   33.8647   14.0662   18.1843 C   0  0  0  0  0  0  0  0  0  0  0  0
   31.2949   13.9936   17.7623 C   0  0  0  0  0  0  0  0  0  0  0  0
   31.7086   12.5962   18.1662 C   0  0  0  0  0  0  0  0  0  0  0  0
   28.2034   10.5182   20.7277 C   0  0  0  0  0  0  0  0  0  0  0  0
   28.5408    9.3675   21.3670 F   0  0  0  0  0  0  0  0  0  0  0  0
   27.0163   10.2928   20.1060 F   0  0  0  0  0  0  0  0  0  0  0  0
   32.2271    9.8779   26.3156 H   0  0  0  0  0  0  0  0  0  0  0  0
   33.1438    9.5942   27.8074 H   0  0  0  0  0  0  0  0  0  0  0  0
   35.2230   10.2272   26.7364 H   0  0  0  0  0  0  0  0  0  0  0  0
   34.4158    9.2070   25.5272 H   0  0  0  0  0  0  0  0  0  0  0  0
   33.5376   11.1547   24.3544 H   0  0  0  0  0  0  0  0  0  0  0  0
   35.1957   11.6282   24.7448 H   0  0  0  0  0  0  0  0  0  0  0  0
   34.5317   13.0389   26.4959 H   0  0  0  0  0  0  0  0  0  0  0  0
   31.8537   12.0069   27.2553 H   0  0  0  0  0  0  0  0  0  0  0  0
   32.0240   15.0704   24.0486 H   0  0  0  0  0  0  0  0  0  0  0  0
   32.2277   16.8878   26.2613 H   0  0  0  0  0  0  0  0  0  0  0  0
   30.8300   19.4729   25.0449 H   0  0  0  0  0  0  0  0  0  0  0  0
   32.2674   19.8819   24.1484 H   0  0  0  0  0  0  0  0  0  0  0  0
   32.4245   19.2831   25.7959 H   0  0  0  0  0  0  0  0  0  0  0  0
   33.5947   16.5373   23.4282 H   0  0  0  0  0  0  0  0  0  0  0  0
   34.1135   17.5878   24.7616 H   0  0  0  0  0  0  0  0  0  0  0  0
   33.7543   18.2703   23.1650 H   0  0  0  0  0  0  0  0  0  0  0  0
   30.0278   17.6808   23.3187 H   0  0  0  0  0  0  0  0  0  0  0  0
   31.2930   18.4348   22.3550 H   0  0  0  0  0  0  0  0  0  0  0  0
   31.2726   16.6851   22.5429 H   0  0  0  0  0  0  0  0  0  0  0  0
   26.3250   14.8451   27.3527 H   0  0  0  0  0  0  0  0  0  0  0  0
   27.2568   16.7747   26.2843 H   0  0  0  0  0  0  0  0  0  0  0  0
   28.2693   16.6437   27.7662 H   0  0  0  0  0  0  0  0  0  0  0  0
   29.8497   13.9748   25.9597 H   0  0  0  0  0  0  0  0  0  0  0  0
   26.9473   14.3564   25.0466 H   0  0  0  0  0  0  0  0  0  0  0  0
   27.6643   12.9538   25.8676 H   0  0  0  0  0  0  0  0  0  0  0  0
   26.2065    9.2685   31.2687 H   0  0  0  0  0  0  0  0  0  0  0  0
   24.2647    8.2102   30.1524 H   0  0  0  0  0  0  0  0  0  0  0  0
   23.3535    9.2151   28.0635 H   0  0  0  0  0  0  0  0  0  0  0  0
   24.3949   11.2473   27.1240 H   0  0  0  0  0  0  0  0  0  0  0  0
   30.3367   11.1649   30.5388 H   0  0  0  0  0  0  0  0  0  0  0  0
   31.8562   13.6973   29.6930 H   0  0  0  0  0  0  0  0  0  0  0  0
   32.5337   10.6671   29.6285 H   0  0  0  0  0  0  0  0  0  0  0  0
   33.5350   11.8458   30.4806 H   0  0  0  0  0  0  0  0  0  0  0  0
   29.0433   12.2785   24.2334 H   0  0  0  0  0  0  0  0  0  0  0  0
   27.8845   13.2780   20.3066 H   0  0  0  0  0  0  0  0  0  0  0  0
   27.0194   13.5803   21.8778 H   0  0  0  0  0  0  0  0  0  0  0  0
   27.3372   11.1983   22.5405 H   0  0  0  0  0  0  0  0  0  0  0  0
   30.2620   14.7065   21.4125 H   0  0  0  0  0  0  0  0  0  0  0  0
   33.9986   13.7316   17.1514 H   0  0  0  0  0  0  0  0  0  0  0  0
   34.0752   15.1417   18.2278 H   0  0  0  0  0  0  0  0  0  0  0  0
   34.6111   13.5424   18.7948 H   0  0  0  0  0  0  0  0  0  0  0  0
   31.4631   14.2962   16.7367 H   0  0  0  0  0  0  0  0  0  0  0  0
   30.3824   14.3969   18.1911 H   0  0  0  0  0  0  0  0  0  0  0  0
   32.1650   11.9698   17.4045 H   0  0  0  0  0  0  0  0  0  0  0  0
   31.0448   12.0500   18.8165 H   0  0  0  0  0  0  0  0  0  0  0  0
   28.9455   10.7584   19.9668 H   0  0  0  0  0  0  0  0  0  0  0  0
  1  2  1  0
  2  3  1  0
  4  3  1  0
  4  5  1  0
  5  1  1  0
  4  6  1  0
  6  7  1  0
  7  8  1  0
  7  9  2  0
  8 10  1  0
 10 11  1  0
 10 12  1  0
 12 13  1  0
 12 14  1  0
 12 15  1  0
 11 16  2  0
 11 17  1  0
 19 17  1  0
 17 20  1  0
 18 19  1  0
 20 21  1  0
 18 21  1  0
 18 22  1  0
 22 23  1  0
 23 24  2  0
 28 23  1  0
 24 25  1  0
 26 27  1  0
 27 28  2  0
 26 29  1  0
 25 26  2  0
 32 25  1  0
 29 30  2  0
 30 31  1  0
 31 32  2  0
 28 33  1  0
 33 34  1  0
 34 35  2  0
 35 36  1  0
 36 37  1  0
  5 37  1  0
 33 38  1  0
 33 39  1  0
 20 40  1  0
 40 41  1  0
 40 42  2  0
 43 41  1  1
 43 44  1  0
 45 43  1  0
 44 45  1  0
 43 46  1  0
 46 47  1  0
 46 48  2  0
 47 49  1  0
 49 50  1  0
 49 51  2  0
 49 52  2  0
 50 53  1  0
 50 54  1  0
 55 50  1  0
 54 55  1  0
 45 56  1  0
 56 57  1  0
 56 58  1  0
  1 59  1  0
  1 60  1  0
  2 61  1  0
  2 62  1  0
  3 63  1  0
  3 64  1  0
  4 65  1  6
  5 66  1  1
  8 67  1  0
 10 68  1  6
 13 69  1  0
 13 70  1  0
 13 71  1  0
 14 72  1  0
 14 73  1  0
 14 74  1  0
 15 75  1  0
 15 76  1  0
 15 77  1  0
 18 78  1  1
 19 79  1  0
 19 80  1  0
 20 81  1  6
 21 82  1  0
 21 83  1  0
 29 84  1  0
 30 85  1  0
 31 86  1  0
 32 87  1  0
 34 88  1  0
 35 89  1  0
 36 90  1  0
 36 91  1  0
 41 92  1  0
 44 93  1  0
 44 94  1  0
 45 95  1  1
 47 96  1  0
 53 97  1  0
 53 98  1  0
 53 99  1  0
 54100  1  0
 54101  1  0
 55102  1  0
 55103  1  0
 56104  1  0
M  END
> <Uni-Dock RESULT> 
ENERGY=   -3.588  LOWER_BOUND=    3.787  UPPER_BOUND=    8.452
INTER + INTRA:          -3.588
INTER:                  -3.588
INTRA:                   0.000
UNBOUND:                 0.000

$$$$

     RDKit          3D

104110  0  0  0  0  0  0  0  0999 V2000
   33.0692   10.2293   26.9218 C   0  0  0  0  0  0  0  0  0  0  0  0
   34.3411   10.1407   26.0918 C   0  0  0  0  0  0  0  0  0  0  0  0
   34.2317   11.3489   25.1821 C   0  0  0  0  0  0  0  0  0  0  0  0
   33.6902   12.4554   26.0935 C   0  0  2  0  0  0  0  0  0  0  0  0
   32.9114   11.7239   27.2217 C   0  0  2  0  0  0  0  0  0  0  0  0
   32.8625   13.3231   25.3013 O   0  0  0  0  0  0  0  0  0  0  0  0
   32.4954   14.4691   25.9213 C   0  0  0  0  0  0  0  0  0  0  0  0
   31.9005   15.3045   25.0257 N   0  0  0  0  0  0  0  0  0  0  0  0
   32.6437   14.7115   27.1070 O   0  0  0  0  0  0  0  0  0  0  0  0
   31.5667   16.6679   25.4115 C   0  0  2  0  0  0  0  0  0  0  0  0
   30.1455   16.8593   26.0376 C   0  0  0  0  0  0  0  0  0  0  0  0
   31.9638   17.7268   24.3196 C   0  0  0  0  0  0  0  0  0  0  0  0
   31.8619   19.1688   24.8655 C   0  0  0  0  0  0  0  0  0  0  0  0
   33.4425   17.5166   23.8973 C   0  0  0  0  0  0  0  0  0  0  0  0
   31.0891   17.6255   23.0649 C   0  0  0  0  0  0  0  0  0  0  0  0
   29.9182   17.9183   26.6390 O   0  0  0  0  0  0  0  0  0  0  0  0
   29.1195   15.9346   25.9445 N   0  0  0  0  0  0  0  0  0  0  0  0
   27.3895   14.7600   27.1056 C   0  0  1  0  0  0  0  0  0  0  0  0
   27.9726   16.1487   26.8314 C   0  0  0  0  0  0  0  0  0  0  0  0
   29.0953   14.5592   25.4254 C   0  0  1  0  0  0  0  0  0  0  0  0
   27.6868   14.0481   25.7984 C   0  0  0  0  0  0  0  0  0  0  0  0
   28.1188   14.1450   28.1779 O   0  0  0  0  0  0  0  0  0  0  0  0
   27.5142   13.0570   28.7528 C   0  0  0  0  0  0  0  0  0  0  0  0
   26.4538   12.5116   28.1042 N   0  0  0  0  0  0  0  0  0  0  0  0
   25.8978   11.4121   28.6462 C   0  0  0  0  0  0  0  0  0  0  0  0
   26.4107   10.8441   29.8335 C   0  0  0  0  0  0  0  0  0  0  0  0
   27.4671   11.3833   30.4657 N   0  0  0  0  0  0  0  0  0  0  0  0
   28.0314   12.5089   29.9213 C   0  0  0  0  0  0  0  0  0  0  0  0
   25.8128    9.7028   30.3563 C   0  0  0  0  0  0  0  0  0  0  0  0
   24.7167    9.1069   29.7304 C   0  0  0  0  0  0  0  0  0  0  0  0
   24.2093    9.6620   28.5651 C   0  0  0  0  0  0  0  0  0  0  0  0
   24.7997   10.8146   28.0358 C   0  0  0  0  0  0  0  0  0  0  0  0
   29.2666   13.0804   30.6024 C   0  0  0  0  0  0  0  0  0  0  0  0
   30.4779   12.2184   30.3165 C   0  0  0  0  0  0  0  0  0  0  0  0
   31.6790   12.6385   29.8734 C   0  0  0  0  0  0  0  0  0  0  0  0
   32.8407   11.7177   29.6431 C   0  0  0  0  0  0  0  0  0  0  0  0
   33.5548   12.0530   28.4585 O   0  0  0  0  0  0  0  0  0  0  0  0
   29.0989   13.1091   31.9593 F   0  0  0  0  0  0  0  0  0  0  0  0
   29.5272   14.3816   30.2813 F   0  0  0  0  0  0  0  0  0  0  0  0
   29.2193   14.3327   23.9085 C   0  0  0  0  0  0  0  0  0  0  0  0
   29.1325   13.0009   23.5249 N   0  0  0  0  0  0  0  0  0  0  0  0
   29.3704   15.2159   23.0714 O   0  0  0  0  0  0  0  0  0  0  0  0
   29.0426   12.6105   22.1293 C   0  0  2  0  0  0  0  0  0  0  0  0
   27.7842   13.0102   21.3557 C   0  0  0  0  0  0  0  0  0  0  0  0
   27.9848   11.5745   21.7551 C   0  0  1  0  0  0  0  0  0  0  0  0
   30.3490   12.6445   21.3690 C   0  0  0  0  0  0  0  0  0  0  0  0
   30.7195   13.9167   20.9346 N   0  0  0  0  0  0  0  0  0  0  0  0
   30.9577   11.6165   21.1512 O   0  0  0  0  0  0  0  0  0  0  0  0
   32.2384   14.3204   20.3791 S   0  0  0  0  0  0  0  0  0  0  0  0
   32.4880   13.7793   18.6626 C   0  0  0  0  0  0  0  0  0  0  0  0
   33.2087   13.6280   21.1964 O   0  0  0  0  0  0  0  0  0  0  0  0
   32.2406   15.7711   20.3237 O   0  0  0  0  0  0  0  0  0  0  0  0
   33.8646   14.0660   18.1839 C   0  0  0  0  0  0  0  0  0  0  0  0
   31.2948   13.9934   17.7620 C   0  0  0  0  0  0  0  0  0  0  0  0
   31.7085   12.5961   18.1659 C   0  0  0  0  0  0  0  0  0  0  0  0
   28.2034   10.5181   20.7275 C   0  0  0  0  0  0  0  0  0  0  0  0
   28.5408    9.3674   21.3668 F   0  0  0  0  0  0  0  0  0  0  0  0
   27.0163   10.2927   20.1059 F   0  0  0  0  0  0  0  0  0  0  0  0
   32.2272    9.8778   26.3154 H   0  0  0  0  0  0  0  0  0  0  0  0
   33.1440    9.5941   27.8071 H   0  0  0  0  0  0  0  0  0  0  0  0
   35.2231   10.2271   26.7360 H   0  0  0  0  0  0  0  0  0  0  0  0
   34.4159    9.2069   25.5268 H   0  0  0  0  0  0  0  0  0  0  0  0
   33.5377   11.1545   24.3540 H   0  0  0  0  0  0  0  0  0  0  0  0
   35.1958   11.6280   24.7444 H   0  0  0  0  0  0  0  0  0  0  0  0
   34.5319   13.0388   26.4955 H   0  0  0  0  0  0  0  0  0  0  0  0
   31.8538   12.0068   27.2550 H   0  0  0  0  0  0  0  0  0  0  0  0
   32.0241   15.0703   24.0483 H   0  0  0  0  0  0  0  0  0  0  0  0
   32.2279   16.8877   26.2610 H   0  0  0  0  0  0  0  0  0  0  0  0
   30.8302   19.4728   25.0446 H   0  0  0  0  0  0  0  0  0  0  0  0
   32.2675   19.8818   24.1481 H   0  0  0  0  0  0  0  0  0  0  0  0
   32.4246   19.2830   25.7956 H   0  0  0  0  0  0  0  0  0  0  0  0
   33.5948   16.5371   23.4278 H   0  0  0  0  0  0  0  0  0  0  0  0
   34.1136   17.5877   24.7612 H   0  0  0  0  0  0  0  0  0  0  0  0
   33.7544   18.2702   23.1646 H   0  0  0  0  0  0  0  0  0  0  0  0
   30.0279   17.6807   23.3184 H   0  0  0  0  0  0  0  0  0  0  0  0
   31.2931   18.4347   22.3547 H   0  0  0  0  0  0  0  0  0  0  0  0
   31.2726   16.6850   22.5426 H   0  0  0  0  0  0  0  0  0  0  0  0
   26.3252   14.8451   27.3526 H   0  0  0  0  0  0  0  0  0  0  0  0
   27.2569   16.7747   26.2841 H   0  0  0  0  0  0  0  0  0  0  0  0
   28.2696   16.6437   27.7660 H   0  0  0  0  0  0  0  0  0  0  0  0
   29.8498   13.9748   25.9594 H   0  0  0  0  0  0  0  0  0  0  0  0
   26.9474   14.3563   25.0465 H   0  0  0  0  0  0  0  0  0  0  0  0
   27.6644   12.9537   25.8675 H   0  0  0  0  0  0  0  0  0  0  0  0
   26.2067    9.2685   31.2686 H   0  0  0  0  0  0  0  0  0  0  0  0
   24.2649    8.2101   30.1523 H   0  0  0  0  0  0  0  0  0  0  0  0
   23.3536    9.2151   28.0635 H   0  0  0  0  0  0  0  0  0  0  0  0
   24.3951   11.2473   27.1240 H   0  0  0  0  0  0  0  0  0  0  0  0
   30.3370   11.1649   30.5385 H   0  0  0  0  0  0  0  0  0  0  0  0
   31.8564   13.6972   29.6927 H   0  0  0  0  0  0  0  0  0  0  0  0
   32.5339   10.6670   29.6282 H   0  0  0  0  0  0  0  0  0  0  0  0
   33.5352   11.8457   30.4803 H   0  0  0  0  0  0  0  0  0  0  0  0
   29.0434   12.2784   24.2332 H   0  0  0  0  0  0  0  0  0  0  0  0
   27.8844   13.2779   20.3064 H   0  0  0  0  0  0  0  0  0  0  0  0
   27.0195   13.5802   21.8776 H   0  0  0  0  0  0  0  0  0  0  0  0
   27.3372   11.1982   22.5404 H   0  0  0  0  0  0  0  0  0  0  0  0
   30.2620   14.7064   21.4123 H   0  0  0  0  0  0  0  0  0  0  0  0
   33.9985   13.7314   17.1511 H   0  0  0  0  0  0  0  0  0  0  0  0
   34.0751   15.1415   18.2274 H   0  0  0  0  0  0  0  0  0  0  0  0
   34.6110   13.5422   18.7944 H   0  0  0  0  0  0  0  0  0  0  0  0
   31.4629   14.2961   16.7364 H   0  0  0  0  0  0  0  0  0  0  0  0
   30.3823   14.3968   18.1909 H   0  0  0  0  0  0  0  0  0  0  0  0
   32.1649   11.9696   17.4042 H   0  0  0  0  0  0  0  0  0  0  0  0
   31.0447   12.0499   18.8163 H   0  0  0  0  0  0  0  0  0  0  0  0
   28.9454   10.7583   19.9666 H   0  0  0  0  0  0  0  0  0  0  0  0
  1  2  1  0
  2  3  1  0
  4  3  1  0
  4  5  1  0
  5  1  1  0
  4  6  1  0
  6  7  1  0
  7  8  1  0
  7  9  2  0
  8 10  1  0
 10 11  1  0
 10 12  1  0
 12 13  1  0
 12 14  1  0
 12 15  1  0
 11 16  2  0
 11 17  1  0
 19 17  1  0
 17 20  1  0
 18 19  1  0
 20 21  1  0
 18 21  1  0
 18 22  1  0
 22 23  1  0
 23 24  2  0
 28 23  1  0
 24 25  1  0
 26 27  1  0
 27 28  2  0
 26 29  1  0
 25 26  2  0
 32 25  1  0
 29 30  2  0
 30 31  1  0
 31 32  2  0
 28 33  1  0
 33 34  1  0
 34 35  2  0
 35 36  1  0
 36 37  1  0
  5 37  1  0
 33 38  1  0
 33 39  1  0
 20 40  1  0
 40 41  1  0
 40 42  2  0
 43 41  1  1
 43 44  1  0
 45 43  1  0
 44 45  1  0
 43 46  1  0
 46 47  1  0
 46 48  2  0
 47 49  1  0
 49 50  1  0
 49 51  2  0
 49 52  2  0
 50 53  1  0
 50 54  1  0
 55 50  1  0
 54 55  1  0
 45 56  1  0
 56 57  1  0
 56 58  1  0
  1 59  1  0
  1 60  1  0
  2 61  1  0
  2 62  1  0
  3 63  1  0
  3 64  1  0
  4 65  1  6
  5 66  1  1
  8 67  1  0
 10 68  1  6
 13 69  1  0
 13 70  1  0
 13 71  1  0
 14 72  1  0
 14 73  1  0
 14 74  1  0
 15 75  1  0
 15 76  1  0
 15 77  1  0
 18 78  1  1
 19 79  1  0
 19 80  1  0
 20 81  1  6
 21 82  1  0
 21 83  1  0
 29 84  1  0
 30 85  1  0
 31 86  1  0
 32 87  1  0
 34 88  1  0
 35 89  1  0
 36 90  1  0
 36 91  1  0
 41 92  1  0
 44 93  1  0
 44 94  1  0
 45 95  1  1
 47 96  1  0
 53 97  1  0
 53 98  1  0
 53 99  1  0
 54100  1  0
 54101  1  0
 55102  1  0
 55103  1  0
 56104  1  0
M  END
> <Uni-Dock RESULT> 
ENERGY=   -3.587  LOWER_BOUND=    3.787  UPPER_BOUND=    8.452
INTER + INTRA:          -3.587
INTER:                  -3.587
INTRA:                   0.000
UNBOUND:                 0.000

$$$$

     RDKit          3D

104110  0  0  0  0  0  0  0  0999 V2000
   31.4951   17.8640   28.5213 C   0  0  0  0  0  0  0  0  0  0  0  0
   30.8506   17.6907   29.8884 C   0  0  0  0  0  0  0  0  0  0  0  0
   30.5607   16.2031   29.9353 C   0  0  0  0  0  0  0  0  0  0  0  0
   31.8035   15.5601   29.3109 C   0  0  2  0  0  0  0  0  0  0  0  0
   32.4044   16.6400   28.3689 C   0  0  2  0  0  0  0  0  0  0  0  0
   31.3923   14.3684   28.6206 O   0  0  0  0  0  0  0  0  0  0  0  0
   32.4112   13.5782   28.2085 C   0  0  0  0  0  0  0  0  0  0  0  0
   31.9182   12.3902   27.7616 N   0  0  0  0  0  0  0  0  0  0  0  0
   33.5907   13.8873   28.2061 O   0  0  0  0  0  0  0  0  0  0  0  0
   32.8278   11.3063   27.4198 C   0  0  2  0  0  0  0  0  0  0  0  0
   33.3200   11.2864   25.9346 C   0  0  0  0  0  0  0  0  0  0  0  0
   32.3632    9.9162   27.9882 C   0  0  0  0  0  0  0  0  0  0  0  0
   33.4746    8.8507   27.8574 C   0  0  0  0  0  0  0  0  0  0  0  0
   32.0505   10.0462   29.5030 C   0  0  0  0  0  0  0  0  0  0  0  0
   31.1076    9.3894   27.2842 C   0  0  0  0  0  0  0  0  0  0  0  0
   34.2989   10.5779   25.6610 O   0  0  0  0  0  0  0  0  0  0  0  0
   32.7210   11.9893   24.9034 N   0  0  0  0  0  0  0  0  0  0  0  0
   33.0554   13.4009   23.0017 C   0  0  1  0  0  0  0  0  0  0  0  0
   33.4847   12.0852   23.6561 C   0  0  0  0  0  0  0  0  0  0  0  0
   31.6495   12.9961   24.9077 C   0  0  1  0  0  0  0  0  0  0  0  0
   31.6078   13.4978   23.4480 C   0  0  0  0  0  0  0  0  0  0  0  0
   33.8172   14.4790   23.5649 O   0  0  0  0  0  0  0  0  0  0  0  0
   33.7862   15.6535   22.8582 C   0  0  0  0  0  0  0  0  0  0  0  0
   32.8556   15.7724   21.8771 N   0  0  0  0  0  0  0  0  0  0  0  0
   32.7953   16.9469   21.2226 C   0  0  0  0  0  0  0  0  0  0  0  0
   33.6576   18.0145   21.5576 C   0  0  0  0  0  0  0  0  0  0  0  0
   34.5704   17.8938   22.5367 N   0  0  0  0  0  0  0  0  0  0  0  0
   34.6409   16.6955   23.2005 C   0  0  0  0  0  0  0  0  0  0  0  0
   33.5574   19.2148   20.8629 C   0  0  0  0  0  0  0  0  0  0  0  0
   32.6209   19.3858   19.8420 C   0  0  0  0  0  0  0  0  0  0  0  0
   31.7732   18.3397   19.5093 C   0  0  0  0  0  0  0  0  0  0  0  0
   31.8718   17.1259   20.1977 C   0  0  0  0  0  0  0  0  0  0  0  0
   35.6305   16.5820   24.3512 C   0  0  0  0  0  0  0  0  0  0  0  0
   35.1237   17.3334   25.5639 C   0  0  0  0  0  0  0  0  0  0  0  0
   35.0409   16.8654   26.8247 C   0  0  0  0  0  0  0  0  0  0  0  0
   34.5527   17.6895   27.9793 C   0  0  0  0  0  0  0  0  0  0  0  0
   33.7199   16.9351   28.8529 O   0  0  0  0  0  0  0  0  0  0  0  0
   36.8350   17.1305   24.0068 F   0  0  0  0  0  0  0  0  0  0  0  0
   35.9453   15.2974   24.6897 F   0  0  0  0  0  0  0  0  0  0  0  0
   30.2106   12.5519   25.2241 C   0  0  0  0  0  0  0  0  0  0  0  0
   29.2725   13.5731   25.1498 N   0  0  0  0  0  0  0  0  0  0  0  0
   29.8697   11.4093   25.5101 O   0  0  0  0  0  0  0  0  0  0  0  0
   27.8469   13.3106   25.2335 C   0  0  2  0  0  0  0  0  0  0  0  0
   27.2005   12.5107   24.1004 C   0  0  0  0  0  0  0  0  0  0  0  0
   26.9449   13.9888   24.2045 C   0  0  1  0  0  0  0  0  0  0  0  0
   27.3223   13.0605   26.6292 C   0  0  0  0  0  0  0  0  0  0  0  0
   27.5351   11.7619   27.0908 N   0  0  0  0  0  0  0  0  0  0  0  0
   26.7394   13.9395   27.2311 O   0  0  0  0  0  0  0  0  0  0  0  0
   27.3783   11.2867   28.6808 S   0  0  0  0  0  0  0  0  0  0  0  0
   25.6362   11.0488   29.1388 C   0  0  0  0  0  0  0  0  0  0  0  0
   27.9043   12.3440   29.5141 O   0  0  0  0  0  0  0  0  0  0  0  0
   27.9685    9.9614   28.7327 O   0  0  0  0  0  0  0  0  0  0  0  0
   25.4814   10.6999   30.5743 C   0  0  0  0  0  0  0  0  0  0  0  0
   24.8017   10.3658   28.0816 C   0  0  0  0  0  0  0  0  0  0  0  0
   24.5895   11.8294   28.3974 C   0  0  0  0  0  0  0  0  0  0  0  0
   25.5865   14.5094   24.5258 C   0  0  0  0  0  0  0  0  0  0  0  0
   25.6849   15.8473   24.7421 F   0  0  0  0  0  0  0  0  0  0  0  0
   24.8075   14.3421   23.4250 F   0  0  0  0  0  0  0  0  0  0  0  0
   30.7105   17.8456   27.7568 H   0  0  0  0  0  0  0  0  0  0  0  0
   32.0121   18.8241   28.4600 H   0  0  0  0  0  0  0  0  0  0  0  0
   31.5562   17.9668   30.6799 H   0  0  0  0  0  0  0  0  0  0  0  0
   29.9433   18.2898   30.0098 H   0  0  0  0  0  0  0  0  0  0  0  0
   29.6635   15.9600   29.3513 H   0  0  0  0  0  0  0  0  0  0  0  0
   30.3954   15.8440   30.9565 H   0  0  0  0  0  0  0  0  0  0  0  0
   32.5079   15.2818   30.1088 H   0  0  0  0  0  0  0  0  0  0  0  0
   32.4471   16.3116   27.3250 H   0  0  0  0  0  0  0  0  0  0  0  0
   30.9569   12.1870   28.0063 H   0  0  0  0  0  0  0  0  0  0  0  0
   33.7518   11.5331   27.9693 H   0  0  0  0  0  0  0  0  0  0  0  0
   33.6591    8.5687   26.8204 H   0  0  0  0  0  0  0  0  0  0  0  0
   33.1922    7.9340   28.3747 H   0  0  0  0  0  0  0  0  0  0  0  0
   34.4134    9.1989   28.2956 H   0  0  0  0  0  0  0  0  0  0  0  0
   31.2163   10.7341   29.6872 H   0  0  0  0  0  0  0  0  0  0  0  0
   32.9227   10.4135   30.0560 H   0  0  0  0  0  0  0  0  0  0  0  0
   31.7624    9.0786   29.9307 H   0  0  0  0  0  0  0  0  0  0  0  0
   31.2458    9.3605   26.2008 H   0  0  0  0  0  0  0  0  0  0  0  0
   30.8528    8.3727   27.6036 H   0  0  0  0  0  0  0  0  0  0  0  0
   30.2469   10.0221   27.5075 H   0  0  0  0  0  0  0  0  0  0  0  0
   33.2005   13.3421   21.9171 H   0  0  0  0  0  0  0  0  0  0  0  0
   33.1971   11.2261   23.0376 H   0  0  0  0  0  0  0  0  0  0  0  0
   34.5673   12.0714   23.8416 H   0  0  0  0  0  0  0  0  0  0  0  0
   31.9477   13.8155   25.5678 H   0  0  0  0  0  0  0  0  0  0  0  0
   30.9952   12.8329   22.8236 H   0  0  0  0  0  0  0  0  0  0  0  0
   31.1847   14.5077   23.3847 H   0  0  0  0  0  0  0  0  0  0  0  0
   34.2208   20.0333   21.1201 H   0  0  0  0  0  0  0  0  0  0  0  0
   32.5540   20.3352   19.3125 H   0  0  0  0  0  0  0  0  0  0  0  0
   31.0386   18.4511   18.7146 H   0  0  0  0  0  0  0  0  0  0  0  0
   31.2070   16.3083   19.9298 H   0  0  0  0  0  0  0  0  0  0  0  0
   34.8424   18.3630   25.3642 H   0  0  0  0  0  0  0  0  0  0  0  0
   35.3653   15.8522   27.0553 H   0  0  0  0  0  0  0  0  0  0  0  0
   34.0438   18.5998   27.6466 H   0  0  0  0  0  0  0  0  0  0  0  0
   35.4287   17.9962   28.5607 H   0  0  0  0  0  0  0  0  0  0  0  0
   29.5760   14.5210   24.9469 H   0  0  0  0  0  0  0  0  0  0  0  0
   26.3938   11.8239   24.3459 H   0  0  0  0  0  0  0  0  0  0  0  0
   27.8361   12.1612   23.2904 H   0  0  0  0  0  0  0  0  0  0  0  0
   27.4106   14.6123   23.4482 H   0  0  0  0  0  0  0  0  0  0  0  0
   28.2605   11.2220   26.5975 H   0  0  0  0  0  0  0  0  0  0  0  0
   24.4274   10.5635   30.8334 H   0  0  0  0  0  0  0  0  0  0  0  0
   26.0164    9.7716   30.8085 H   0  0  0  0  0  0  0  0  0  0  0  0
   25.8736   11.4974   31.2181 H   0  0  0  0  0  0  0  0  0  0  0  0
   24.0386    9.6637   28.3924 H   0  0  0  0  0  0  0  0  0  0  0  0
   25.2653   10.1131   27.1327 H   0  0  0  0  0  0  0  0  0  0  0  0
   23.6827   12.0995   28.9318 H   0  0  0  0  0  0  0  0  0  0  0  0
   24.8583   12.5456   27.6380 H   0  0  0  0  0  0  0  0  0  0  0  0
   25.0925   14.0263   25.3685 H   0  0  0  0  0  0  0  0  0  0  0  0
  1  2  1  0
  2  3  1  0
  4  3  1  0
  4  5  1  0
  5  1  1  0
  4  6  1  0
  6  7  1  0
  7  8  1  0
  7  9  2  0
  8 10  1  0
 10 11  1  0
 10 12  1  0
 12 13  1  0
 12 14  1  0
 12 15  1  0
 11 16  2  0
 11 17  1  0
 19 17  1  0
 17 20  1  0
 18 19  1  0
 20 21  1  0
 18 21  1  0
 18 22  1  0
 22 23  1  0
 23 24  2  0
 28 23  1  0
 24 25  1  0
 26 27  1  0
 27 28  2  0
 26 29  1  0
 25 26  2  0
 32 25  1  0
 29 30  2  0
 30 31  1  0
 31 32  2  0
 28 33  1  0
 33 34  1  0
 34 35  2  0
 35 36  1  0
 36 37  1  0
  5 37  1  0
 33 38  1  0
 33 39  1  0
 20 40  1  0
 40 41  1  0
 40 42  2  0
 43 41  1  1
 43 44  1  0
 45 43  1  0
 44 45  1  0
 43 46  1  0
 46 47  1  0
 46 48  2  0
 47 49  1  0
 49 50  1  0
 49 51  2  0
 49 52  2  0
 50 53  1  0
 50 54  1  0
 55 50  1  0
 54 55  1  0
 45 56  1  0
 56 57  1  0
 56 58  1  0
  1 59  1  0
  1 60  1  0
  2 61  1  0
  2 62  1  0
  3 63  1  0
  3 64  1  0
  4 65  1  6
  5 66  1  1
  8 67  1  0
 10 68  1  6
 13 69  1  0
 13 70  1  0
 13 71  1  0
 14 72  1  0
 14 73  1  0
 14 74  1  0
 15 75  1  0
 15 76  1  0
 15 77  1  0
 18 78  1  1
 19 79  1  0
 19 80  1  0
 20 81  1  6
 21 82  1  0
 21 83  1  0
 29 84  1  0
 30 85  1  0
 31 86  1  0
 32 87  1  0
 34 88  1  0
 35 89  1  0
 36 90  1  0
 36 91  1  0
 41 92  1  0
 44 93  1  0
 44 94  1  0
 45 95  1  1
 47 96  1  0
 53 97  1  0
 53 98  1  0
 53 99  1  0
 54100  1  0
 54101  1  0
 55102  1  0
 55103  1  0
 56104  1  0
M  END
> <Uni-Dock RESULT> 
ENERGY=   -3.565  LOWER_BOUND=    3.772  UPPER_BOUND=    7.710
INTER + INTRA:          -3.565
INTER:                  -3.565
INTRA:                   0.000
UNBOUND:                 0.000

$$$$

     RDKit          3D

104110  0  0  0  0  0  0  0  0999 V2000
   33.0179   16.0416   23.1392 C   0  0  0  0  0  0  0  0  0  0  0  0
   32.9781   16.9387   21.9112 C   0  0  0  0  0  0  0  0  0  0  0  0
   31.5345   16.8260   21.4613 C   0  0  0  0  0  0  0  0  0  0  0  0
   30.7325   16.8572   22.7666 C   0  0  2  0  0  0  0  0  0  0  0  0
   31.6967   16.3242   23.8625 C   0  0  2  0  0  0  0  0  0  0  0  0
   29.5623   16.0411   22.5928 O   0  0  0  0  0  0  0  0  0  0  0  0
   28.6481   16.1516   23.5852 C   0  0  0  0  0  0  0  0  0  0  0  0
   27.5016   15.5112   23.2256 N   0  0  0  0  0  0  0  0  0  0  0  0
   28.8270   16.7114   24.6536 O   0  0  0  0  0  0  0  0  0  0  0  0
   26.3109   15.6285   24.0548 C   0  0  2  0  0  0  0  0  0  0  0  0
   26.1699   14.5532   25.1827 C   0  0  0  0  0  0  0  0  0  0  0  0
   25.0068   15.8936   23.2178 C   0  0  0  0  0  0  0  0  0  0  0  0
   23.8221   16.2924   24.1261 C   0  0  0  0  0  0  0  0  0  0  0  0
   25.2389   17.0811   22.2457 C   0  0  0  0  0  0  0  0  0  0  0  0
   24.5878   14.6731   22.3904 C   0  0  0  0  0  0  0  0  0  0  0  0
   25.3477   14.7677   26.0843 O   0  0  0  0  0  0  0  0  0  0  0  0
   26.8859   13.3693   25.2276 N   0  0  0  0  0  0  0  0  0  0  0  0
   28.1646   11.8686   26.5818 C   0  0  1  0  0  0  0  0  0  0  0  0
   26.8413   12.6334   26.4943 C   0  0  0  0  0  0  0  0  0  0  0  0
   28.0021   12.8772   24.4070 C   0  0  1  0  0  0  0  0  0  0  0  0
   28.4383   11.5774   25.1174 C   0  0  0  0  0  0  0  0  0  0  0  0
   29.1782   12.7375   27.1086 O   0  0  0  0  0  0  0  0  0  0  0  0
   30.3157   12.1135   27.5523 C   0  0  0  0  0  0  0  0  0  0  0  0
   30.4899   10.8103   27.2151 N   0  0  0  0  0  0  0  0  0  0  0  0
   31.6330   10.2185   27.6086 C   0  0  0  0  0  0  0  0  0  0  0  0
   32.6148   10.9338   28.3296 C   0  0  0  0  0  0  0  0  0  0  0  0
   32.4406   12.2269   28.6519 N   0  0  0  0  0  0  0  0  0  0  0  0
   31.2732   12.8314   28.2602 C   0  0  0  0  0  0  0  0  0  0  0  0
   33.7859   10.2880   28.7101 C   0  0  0  0  0  0  0  0  0  0  0  0
   34.0108    8.9474   28.3927 C   0  0  0  0  0  0  0  0  0  0  0  0
   33.0488    8.2412   27.6860 C   0  0  0  0  0  0  0  0  0  0  0  0
   31.8642    8.8806   27.3054 C   0  0  0  0  0  0  0  0  0  0  0  0
   31.1057   14.3121   28.5695 C   0  0  0  0  0  0  0  0  0  0  0  0
   31.9622   15.1488   27.6429 C   0  0  0  0  0  0  0  0  0  0  0  0
   31.5640   16.2148   26.9214 C   0  0  0  0  0  0  0  0  0  0  0  0
   32.4880   17.0098   26.0470 C   0  0  0  0  0  0  0  0  0  0  0  0
   31.8691   17.3766   24.8189 O   0  0  0  0  0  0  0  0  0  0  0  0
   31.5039   14.5852   29.8489 F   0  0  0  0  0  0  0  0  0  0  0  0
   29.8113   14.7449   28.5345 F   0  0  0  0  0  0  0  0  0  0  0  0
   27.7317   12.4696   22.9481 C   0  0  0  0  0  0  0  0  0  0  0  0
   28.8442   11.9716   22.2828 N   0  0  0  0  0  0  0  0  0  0  0  0
   26.6471   12.5472   22.3813 O   0  0  0  0  0  0  0  0  0  0  0  0
   28.7421   11.3674   20.9664 C   0  0  2  0  0  0  0  0  0  0  0  0
   27.9662   10.0544   20.8417 C   0  0  0  0  0  0  0  0  0  0  0  0
   29.4666   10.0418   20.7424 C   0  0  1  0  0  0  0  0  0  0  0  0
   28.6144   12.3455   19.8206 C   0  0  0  0  0  0  0  0  0  0  0  0
   27.3228   12.8381   19.6368 N   0  0  0  0  0  0  0  0  0  0  0  0
   29.5780   12.6096   19.1304 O   0  0  0  0  0  0  0  0  0  0  0  0
   26.9405   14.1590   18.6946 S   0  0  0  0  0  0  0  0  0  0  0  0
   26.9142   13.7349   16.9280 C   0  0  0  0  0  0  0  0  0  0  0  0
   27.9713   15.1539   18.8855 O   0  0  0  0  0  0  0  0  0  0  0  0
   25.5627   14.4692   19.0308 O   0  0  0  0  0  0  0  0  0  0  0  0
   26.6501   14.9221   16.0752 C   0  0  0  0  0  0  0  0  0  0  0  0
   26.2783   12.4010   16.6168 C   0  0  0  0  0  0  0  0  0  0  0  0
   27.7692   12.5953   16.4541 C   0  0  0  0  0  0  0  0  0  0  0  0
   30.1456    9.6875   19.4645 C   0  0  0  0  0  0  0  0  0  0  0  0
   31.4735    9.9397   19.6054 F   0  0  0  0  0  0  0  0  0  0  0  0
   30.0138    8.3473   19.2829 F   0  0  0  0  0  0  0  0  0  0  0  0
   33.0499   14.9966   22.8117 H   0  0  0  0  0  0  0  0  0  0  0  0
   33.9124   16.2432   23.7326 H   0  0  0  0  0  0  0  0  0  0  0  0
   33.2119   17.9729   22.1872 H   0  0  0  0  0  0  0  0  0  0  0  0
   33.6771   16.6228   21.1311 H   0  0  0  0  0  0  0  0  0  0  0  0
   31.3638   15.8841   20.9239 H   0  0  0  0  0  0  0  0  0  0  0  0
   31.2425   17.6431   20.7935 H   0  0  0  0  0  0  0  0  0  0  0  0
   30.4162   17.8903   22.9737 H   0  0  0  0  0  0  0  0  0  0  0  0
   31.3183   15.4212   24.3533 H   0  0  0  0  0  0  0  0  0  0  0  0
   27.4153   15.2692   22.2462 H   0  0  0  0  0  0  0  0  0  0  0  0
   26.4609   16.5525   24.6301 H   0  0  0  0  0  0  0  0  0  0  0  0
   23.4747   15.4633   24.7432 H   0  0  0  0  0  0  0  0  0  0  0  0
   22.9661   16.6041   23.5280 H   0  0  0  0  0  0  0  0  0  0  0  0
   24.0860   17.1268   24.7810 H   0  0  0  0  0  0  0  0  0  0  0  0
   26.0211   16.8562   21.5103 H   0  0  0  0  0  0  0  0  0  0  0  0
   25.5343   17.9853   22.7905 H   0  0  0  0  0  0  0  0  0  0  0  0
   24.3289   17.3106   21.6789 H   0  0  0  0  0  0  0  0  0  0  0  0
   24.4947   13.7840   23.0184 H   0  0  0  0  0  0  0  0  0  0  0  0
   23.6204   14.8224   21.8979 H   0  0  0  0  0  0  0  0  0  0  0  0
   25.3198   14.4694   21.6069 H   0  0  0  0  0  0  0  0  0  0  0  0
   28.0409   10.9813   27.2130 H   0  0  0  0  0  0  0  0  0  0  0  0
   25.9911   11.9427   26.4338 H   0  0  0  0  0  0  0  0  0  0  0  0
   26.7185   13.3091   27.3516 H   0  0  0  0  0  0  0  0  0  0  0  0
   28.8136   13.6089   24.4525 H   0  0  0  0  0  0  0  0  0  0  0  0
   27.8161   10.7300   24.7983 H   0  0  0  0  0  0  0  0  0  0  0  0
   29.4842   11.3328   24.8957 H   0  0  0  0  0  0  0  0  0  0  0  0
   34.5384   10.8378   29.2647 H   0  0  0  0  0  0  0  0  0  0  0  0
   34.9367    8.4601   28.6951 H   0  0  0  0  0  0  0  0  0  0  0  0
   33.2029    7.1948   27.4315 H   0  0  0  0  0  0  0  0  0  0  0  0
   31.1122    8.3206   26.7547 H   0  0  0  0  0  0  0  0  0  0  0  0
   33.0060   14.8514   27.6119 H   0  0  0  0  0  0  0  0  0  0  0  0
   30.5331   16.5600   26.9775 H   0  0  0  0  0  0  0  0  0  0  0  0
   33.4320   16.4862   25.8657 H   0  0  0  0  0  0  0  0  0  0  0  0
   32.7240   17.9401   26.5746 H   0  0  0  0  0  0  0  0  0  0  0  0
   29.7433   11.9473   22.7547 H   0  0  0  0  0  0  0  0  0  0  0  0
   27.3830    9.8810   19.9403 H   0  0  0  0  0  0  0  0  0  0  0  0
   27.5132    9.6380   21.7381 H   0  0  0  0  0  0  0  0  0  0  0  0
   30.0007    9.6032   21.5791 H   0  0  0  0  0  0  0  0  0  0  0  0
   26.6854   12.7411   20.4401 H   0  0  0  0  0  0  0  0  0  0  0  0
   26.6409   14.6498   15.0157 H   0  0  0  0  0  0  0  0  0  0  0  0
   25.6809   15.3712   16.3237 H   0  0  0  0  0  0  0  0  0  0  0  0
   27.4289   15.6837   16.2080 H   0  0  0  0  0  0  0  0  0  0  0  0
   25.6781   12.3056   15.7210 H   0  0  0  0  0  0  0  0  0  0  0  0
   25.9337   11.7819   17.4397 H   0  0  0  0  0  0  0  0  0  0  0  0
   28.1603   12.6397   15.4411 H   0  0  0  0  0  0  0  0  0  0  0  0
   28.4165   12.0617   17.1309 H   0  0  0  0  0  0  0  0  0  0  0  0
   29.7580   10.1904   18.5789 H   0  0  0  0  0  0  0  0  0  0  0  0
  1  2  1  0
  2  3  1  0
  4  3  1  0
  4  5  1  0
  5  1  1  0
  4  6  1  0
  6  7  1  0
  7  8  1  0
  7  9  2  0
  8 10  1  0
 10 11  1  0
 10 12  1  0
 12 13  1  0
 12 14  1  0
 12 15  1  0
 11 16  2  0
 11 17  1  0
 19 17  1  0
 17 20  1  0
 18 19  1  0
 20 21  1  0
 18 21  1  0
 18 22  1  0
 22 23  1  0
 23 24  2  0
 28 23  1  0
 24 25  1  0
 26 27  1  0
 27 28  2  0
 26 29  1  0
 25 26  2  0
 32 25  1  0
 29 30  2  0
 30 31  1  0
 31 32  2  0
 28 33  1  0
 33 34  1  0
 34 35  2  0
 35 36  1  0
 36 37  1  0
  5 37  1  0
 33 38  1  0
 33 39  1  0
 20 40  1  0
 40 41  1  0
 40 42  2  0
 43 41  1  1
 43 44  1  0
 45 43  1  0
 44 45  1  0
 43 46  1  0
 46 47  1  0
 46 48  2  0
 47 49  1  0
 49 50  1  0
 49 51  2  0
 49 52  2  0
 50 53  1  0
 50 54  1  0
 55 50  1  0
 54 55  1  0
 45 56  1  0
 56 57  1  0
 56 58  1  0
  1 59  1  0
  1 60  1  0
  2 61  1  0
  2 62  1  0
  3 63  1  0
  3 64  1  0
  4 65  1  6
  5 66  1  1
  8 67  1  0
 10 68  1  6
 13 69  1  0
 13 70  1  0
 13 71  1  0
 14 72  1  0
 14 73  1  0
 14 74  1  0
 15 75  1  0
 15 76  1  0
 15 77  1  0
 18 78  1  1
 19 79  1  0
 19 80  1  0
 20 81  1  6
 21 82  1  0
 21 83  1  0
 29 84  1  0
 30 85  1  0
 31 86  1  0
 32 87  1  0
 34 88  1  0
 35 89  1  0
 36 90  1  0
 36 91  1  0
 41 92  1  0
 44 93  1  0
 44 94  1  0
 45 95  1  1
 47 96  1  0
 53 97  1  0
 53 98  1  0
 53 99  1  0
 54100  1  0
 54101  1  0
 55102  1  0
 55103  1  0
 56104  1  0
M  END
> <Uni-Dock RESULT> 
ENERGY=   -3.548  LOWER_BOUND=    3.726  UPPER_BOUND=    9.264
INTER + INTRA:          -3.548
INTER:                  -3.548
INTRA:                   0.000
UNBOUND:                 0.000

$$$$

     RDKit          3D

104110  0  0  0  0  0  0  0  0999 V2000
   30.8090   11.2945   33.4649 C   0  0  0  0  0  0  0  0  0  0  0  0
   30.2471   11.6779   34.8256 C   0  0  0  0  0  0  0  0  0  0  0  0
   28.8244   12.0869   34.4969 C   0  0  0  0  0  0  0  0  0  0  0  0
   28.3662   11.0503   33.4657 C   0  0  2  0  0  0  0  0  0  0  0  0
   29.6635   10.5458   32.7750 C   0  0  2  0  0  0  0  0  0  0  0  0
   27.4528   11.6924   32.5607 O   0  0  0  0  0  0  0  0  0  0  0  0
   26.7963   10.8472   31.7318 C   0  0  0  0  0  0  0  0  0  0  0  0
   25.8148   11.5222   31.0721 N   0  0  0  0  0  0  0  0  0  0  0  0
   27.0576    9.6670   31.5718 O   0  0  0  0  0  0  0  0  0  0  0  0
   24.8604   10.7970   30.2462 C   0  0  2  0  0  0  0  0  0  0  0  0
   25.2785   10.6026   28.7509 C   0  0  0  0  0  0  0  0  0  0  0  0
   23.3772   11.2680   30.4693 C   0  0  0  0  0  0  0  0  0  0  0  0
   22.3705   10.3035   29.8032 C   0  0  0  0  0  0  0  0  0  0  0  0
   23.0498   11.2714   31.9865 C   0  0  0  0  0  0  0  0  0  0  0  0
   23.1254   12.6777   29.9225 C   0  0  0  0  0  0  0  0  0  0  0  0
   24.6589    9.7626   28.0835 O   0  0  0  0  0  0  0  0  0  0  0  0
   26.2783   11.3221   28.1192 N   0  0  0  0  0  0  0  0  0  0  0  0
   28.1907   11.2320   26.6855 C   0  0  1  0  0  0  0  0  0  0  0  0
   26.7267   10.8061   26.8227 C   0  0  0  0  0  0  0  0  0  0  0  0
   27.2664   12.2772   28.6417 C   0  0  1  0  0  0  0  0  0  0  0  0
   28.1889   12.5523   27.4343 C   0  0  0  0  0  0  0  0  0  0  0  0
   29.0244   10.2819   27.3652 O   0  0  0  0  0  0  0  0  0  0  0  0
   30.3586   10.3413   27.0543 C   0  0  0  0  0  0  0  0  0  0  0  0
   30.7964   11.4281   26.3689 N   0  0  0  0  0  0  0  0  0  0  0  0
   32.1155   11.5062   26.1130 C   0  0  0  0  0  0  0  0  0  0  0  0
   33.0057   10.5026   26.5555 C   0  0  0  0  0  0  0  0  0  0  0  0
   32.5672    9.4338   27.2423 N   0  0  0  0  0  0  0  0  0  0  0  0
   31.2224    9.3461   27.4978 C   0  0  0  0  0  0  0  0  0  0  0  0
   34.3627   10.6250   26.2780 C   0  0  0  0  0  0  0  0  0  0  0  0
   34.8624   11.7205   25.5718 C   0  0  0  0  0  0  0  0  0  0  0  0
   33.9916   12.7074   25.1346 C   0  0  0  0  0  0  0  0  0  0  0  0
   32.6237   12.5890   25.4027 C   0  0  0  0  0  0  0  0  0  0  0  0
   30.7365    8.1687   28.3308 C   0  0  0  0  0  0  0  0  0  0  0  0
   31.0981    8.3634   29.7880 C   0  0  0  0  0  0  0  0  0  0  0  0
   30.2718    8.2449   30.8457 C   0  0  0  0  0  0  0  0  0  0  0  0
   30.7199    8.4261   32.2659 C   0  0  0  0  0  0  0  0  0  0  0  0
   29.7599    9.1407   33.0363 O   0  0  0  0  0  0  0  0  0  0  0  0
   31.3289    7.0080   27.9161 F   0  0  0  0  0  0  0  0  0  0  0  0
   29.4012    7.9124   28.2063 F   0  0  0  0  0  0  0  0  0  0  0  0
   26.7886   13.6629   29.1098 C   0  0  0  0  0  0  0  0  0  0  0  0
   27.8105   14.5014   29.5351 N   0  0  0  0  0  0  0  0  0  0  0  0
   25.6233   14.0447   29.1154 O   0  0  0  0  0  0  0  0  0  0  0  0
   27.5759   15.9023   29.8362 C   0  0  2  0  0  0  0  0  0  0  0  0
   27.1769   16.8237   28.6815 C   0  0  0  0  0  0  0  0  0  0  0  0
   28.5602   16.9197   29.2631 C   0  0  1  0  0  0  0  0  0  0  0  0
   26.9288   16.1701   31.1761 C   0  0  0  0  0  0  0  0  0  0  0  0
   25.5458   15.9913   31.1838 N   0  0  0  0  0  0  0  0  0  0  0  0
   27.5998   16.5448   32.1164 O   0  0  0  0  0  0  0  0  0  0  0  0
   24.6148   15.8826   32.5622 S   0  0  0  0  0  0  0  0  0  0  0  0
   24.2990   17.5189   33.2863 C   0  0  0  0  0  0  0  0  0  0  0  0
   25.3534   15.1131   33.5375 O   0  0  0  0  0  0  0  0  0  0  0  0
   23.3200   15.4159   32.1005 O   0  0  0  0  0  0  0  0  0  0  0  0
   23.5351   17.4265   34.5569 C   0  0  0  0  0  0  0  0  0  0  0  0
   23.9936   18.5990   32.2760 C   0  0  0  0  0  0  0  0  0  0  0  0
   25.2975   18.6132   33.0418 C   0  0  0  0  0  0  0  0  0  0  0  0
   28.9972   18.1385   30.0000 C   0  0  0  0  0  0  0  0  0  0  0  0
   30.2029   17.8797   30.5710 F   0  0  0  0  0  0  0  0  0  0  0  0
   29.1947   19.1260   29.0876 F   0  0  0  0  0  0  0  0  0  0  0  0
   31.0461   12.2094   32.9109 H   0  0  0  0  0  0  0  0  0  0  0  0
   31.7271   10.7140   33.5788 H   0  0  0  0  0  0  0  0  0  0  0  0
   30.2494   10.8116   35.4966 H   0  0  0  0  0  0  0  0  0  0  0  0
   30.8067   12.4870   35.3041 H   0  0  0  0  0  0  0  0  0  0  0  0
   28.7961   13.0977   34.0695 H   0  0  0  0  0  0  0  0  0  0  0  0
   28.1771   12.0851   35.3800 H   0  0  0  0  0  0  0  0  0  0  0  0
   27.8387   10.2341   33.9813 H   0  0  0  0  0  0  0  0  0  0  0  0
   29.6667   10.7341   31.6961 H   0  0  0  0  0  0  0  0  0  0  0  0
   25.5745   12.4332   31.4432 H   0  0  0  0  0  0  0  0  0  0  0  0
   24.8830    9.7682   30.6309 H   0  0  0  0  0  0  0  0  0  0  0  0
   22.4116   10.3474   28.7144 H   0  0  0  0  0  0  0  0  0  0  0  0
   21.3484   10.5632   30.0782 H   0  0  0  0  0  0  0  0  0  0  0  0
   22.5421    9.2704   30.1164 H   0  0  0  0  0  0  0  0  0  0  0  0
   23.6729   11.9890   32.5341 H   0  0  0  0  0  0  0  0  0  0  0  0
   23.2066   10.2797   32.4264 H   0  0  0  0  0  0  0  0  0  0  0  0
   22.0067   11.5585   32.1643 H   0  0  0  0  0  0  0  0  0  0  0  0
   23.4230   12.7530   28.8740 H   0  0  0  0  0  0  0  0  0  0  0  0
   22.0674   12.9575   29.9779 H   0  0  0  0  0  0  0  0  0  0  0  0
   23.6847   13.4187   30.4961 H   0  0  0  0  0  0  0  0  0  0  0  0
   28.4600   11.3035   25.6256 H   0  0  0  0  0  0  0  0  0  0  0  0
   26.1046   11.2836   26.0555 H   0  0  0  0  0  0  0  0  0  0  0  0
   26.6261    9.7139   26.7643 H   0  0  0  0  0  0  0  0  0  0  0  0
   27.8377   11.7850   29.4338 H   0  0  0  0  0  0  0  0  0  0  0  0
   27.7629   13.3309   26.7866 H   0  0  0  0  0  0  0  0  0  0  0  0
   29.1819   12.8865   27.7584 H   0  0  0  0  0  0  0  0  0  0  0  0
   35.0450    9.8533   26.6172 H   0  0  0  0  0  0  0  0  0  0  0  0
   35.9294   11.8014   25.3684 H   0  0  0  0  0  0  0  0  0  0  0  0
   34.3602   13.5676   24.5797 H   0  0  0  0  0  0  0  0  0  0  0  0
   31.9455   13.3641   25.0540 H   0  0  0  0  0  0  0  0  0  0  0  0
   32.1473    8.5833   29.9607 H   0  0  0  0  0  0  0  0  0  0  0  0
   29.2276    7.9755   30.6975 H   0  0  0  0  0  0  0  0  0  0  0  0
   31.7024    8.9048   32.3275 H   0  0  0  0  0  0  0  0  0  0  0  0
   30.8102    7.4308   32.7138 H   0  0  0  0  0  0  0  0  0  0  0  0
   28.7661   14.1579   29.5582 H   0  0  0  0  0  0  0  0  0  0  0  0
   26.4714   17.6272   28.8800 H   0  0  0  0  0  0  0  0  0  0  0  0
   27.0719   16.3895   27.6902 H   0  0  0  0  0  0  0  0  0  0  0  0
   29.3704   16.5531   28.6411 H   0  0  0  0  0  0  0  0  0  0  0  0
   25.1607   15.4258   30.4138 H   0  0  0  0  0  0  0  0  0  0  0  0
   23.3567   18.4192   34.9804 H   0  0  0  0  0  0  0  0  0  0  0  0
   22.5646   16.9428   34.3926 H   0  0  0  0  0  0  0  0  0  0  0  0
   24.0878   16.8476   35.3076 H   0  0  0  0  0  0  0  0  0  0  0  0
   23.2524   19.3487   32.5217 H   0  0  0  0  0  0  0  0  0  0  0  0
   24.0279   18.3507   31.2194 H   0  0  0  0  0  0  0  0  0  0  0  0
   25.4184   19.3725   33.8097 H   0  0  0  0  0  0  0  0  0  0  0  0
   26.2026   18.4313   32.4852 H   0  0  0  0  0  0  0  0  0  0  0  0
   28.2954   18.5034   30.7494 H   0  0  0  0  0  0  0  0  0  0  0  0
  1  2  1  0
  2  3  1  0
  4  3  1  0
  4  5  1  0
  5  1  1  0
  4  6  1  0
  6  7  1  0
  7  8  1  0
  7  9  2  0
  8 10  1  0
 10 11  1  0
 10 12  1  0
 12 13  1  0
 12 14  1  0
 12 15  1  0
 11 16  2  0
 11 17  1  0
 19 17  1  0
 17 20  1  0
 18 19  1  0
 20 21  1  0
 18 21  1  0
 18 22  1  0
 22 23  1  0
 23 24  2  0
 28 23  1  0
 24 25  1  0
 26 27  1  0
 27 28  2  0
 26 29  1  0
 25 26  2  0
 32 25  1  0
 29 30  2  0
 30 31  1  0
 31 32  2  0
 28 33  1  0
 33 34  1  0
 34 35  2  0
 35 36  1  0
 36 37  1  0
  5 37  1  0
 33 38  1  0
 33 39  1  0
 20 40  1  0
 40 41  1  0
 40 42  2  0
 43 41  1  1
 43 44  1  0
 45 43  1  0
 44 45  1  0
 43 46  1  0
 46 47  1  0
 46 48  2  0
 47 49  1  0
 49 50  1  0
 49 51  2  0
 49 52  2  0
 50 53  1  0
 50 54  1  0
 55 50  1  0
 54 55  1  0
 45 56  1  0
 56 57  1  0
 56 58  1  0
  1 59  1  0
  1 60  1  0
  2 61  1  0
  2 62  1  0
  3 63  1  0
  3 64  1  0
  4 65  1  6
  5 66  1  1
  8 67  1  0
 10 68  1  6
 13 69  1  0
 13 70  1  0
 13 71  1  0
 14 72  1  0
 14 73  1  0
 14 74  1  0
 15 75  1  0
 15 76  1  0
 15 77  1  0
 18 78  1  1
 19 79  1  0
 19 80  1  0
 20 81  1  6
 21 82  1  0
 21 83  1  0
 29 84  1  0
 30 85  1  0
 31 86  1  0
 32 87  1  0
 34 88  1  0
 35 89  1  0
 36 90  1  0
 36 91  1  0
 41 92  1  0
 44 93  1  0
 44 94  1  0
 45 95  1  1
 47 96  1  0
 53 97  1  0
 53 98  1  0
 53 99  1  0
 54100  1  0
 54101  1  0
 55102  1  0
 55103  1  0
 56104  1  0
M  END
> <Uni-Dock RESULT> 
ENERGY=   -3.500  LOWER_BOUND=    6.058  UPPER_BOUND=   10.508
INTER + INTRA:          -3.500
INTER:                  -3.500
INTRA:                   0.000
UNBOUND:                 0.000

$$$$
