
     RDKit          3D

104110  0  0  0  0  0  0  0  0999 V2000
   32.7369   16.9356   31.0252 C   0  0  0  0  0  0  0  0  0  0  0  0
   31.9188   17.4421   32.2174 C   0  0  0  0  0  0  0  0  0  0  0  0
   30.9653   16.3118   32.5900 C   0  0  0  0  0  0  0  0  0  0  0  0
   31.6110   15.0674   31.9927 C   0  0  2  0  0  0  0  0  0  0  0  0
   32.1217   15.5867   30.6431 C   0  0  2  0  0  0  0  0  0  0  0  0
   30.6379   14.0269   31.8365 O   0  0  0  0  0  0  0  0  0  0  0  0
   31.1225   12.7650   31.9325 C   0  0  0  0  0  0  0  0  0  0  0  0
   30.0927   11.8810   31.8003 N   0  0  0  0  0  0  0  0  0  0  0  0
   32.2866   12.4590   32.1374 O   0  0  0  0  0  0  0  0  0  0  0  0
   30.2853   10.4452   31.9718 C   0  0  2  0  0  0  0  0  0  0  0  0
   30.4075    9.5975   30.6578 C   0  0  0  0  0  0  0  0  0  0  0  0
   29.3138    9.8629   33.0626 C   0  0  0  0  0  0  0  0  0  0  0  0
   29.4031   10.7189   34.3501 C   0  0  0  0  0  0  0  0  0  0  0  0
   29.7007    8.4208   33.4694 C   0  0  0  0  0  0  0  0  0  0  0  0
   27.8591    9.8556   32.5787 C   0  0  0  0  0  0  0  0  0  0  0  0
   30.8385    8.4390   30.7388 O   0  0  0  0  0  0  0  0  0  0  0  0
   30.0191   10.0517   29.4116 N   0  0  0  0  0  0  0  0  0  0  0  0
   30.4840   10.3441   27.0850 C   0  0  1  0  0  0  0  0  0  0  0  0
   30.5006    9.3366   28.2358 C   0  0  0  0  0  0  0  0  0  0  0  0
   29.3811   11.3116   29.0306 C   0  0  1  0  0  0  0  0  0  0  0  0
   29.4018   11.3409   27.4887 C   0  0  0  0  0  0  0  0  0  0  0  0
   31.7578   10.9897   26.9970 O   0  0  0  0  0  0  0  0  0  0  0  0
   32.0431   11.5173   25.7556 C   0  0  0  0  0  0  0  0  0  0  0  0
   31.0407   11.6057   24.8499 N   0  0  0  0  0  0  0  0  0  0  0  0
   31.3335   12.1645   23.6623 C   0  0  0  0  0  0  0  0  0  0  0  0
   32.6271   12.6560   23.3779 C   0  0  0  0  0  0  0  0  0  0  0  0
   33.6108   12.5883   24.2902 N   0  0  0  0  0  0  0  0  0  0  0  0
   33.3167   12.0085   25.4961 C   0  0  0  0  0  0  0  0  0  0  0  0
   32.8751   13.2188   22.1333 C   0  0  0  0  0  0  0  0  0  0  0  0
   31.8717   13.3103   21.1661 C   0  0  0  0  0  0  0  0  0  0  0  0
   30.5998   12.8322   21.4477 C   0  0  0  0  0  0  0  0  0  0  0  0
   30.3419   12.2640   22.6955 C   0  0  0  0  0  0  0  0  0  0  0  0
   34.4104   11.9465   26.5487 C   0  0  0  0  0  0  0  0  0  0  0  0
   34.4525   13.1480   27.4705 C   0  0  0  0  0  0  0  0  0  0  0  0
   33.4304   13.9045   27.9082 C   0  0  0  0  0  0  0  0  0  0  0  0
   33.5835   15.0713   28.8278 C   0  0  0  0  0  0  0  0  0  0  0  0
   33.0582   14.6750   30.0848 O   0  0  0  0  0  0  0  0  0  0  0  0
   35.6476   11.8591   25.9553 F   0  0  0  0  0  0  0  0  0  0  0  0
   34.3475   10.8100   27.3092 F   0  0  0  0  0  0  0  0  0  0  0  0
   27.9102   11.3277   29.4891 C   0  0  0  0  0  0  0  0  0  0  0  0
   27.2049   10.1872   29.1442 N   0  0  0  0  0  0  0  0  0  0  0  0
   27.3959   12.3059   30.0179 O   0  0  0  0  0  0  0  0  0  0  0  0
   25.7542   10.0881   29.1751 C   0  0  2  0  0  0  0  0  0  0  0  0
   25.0929    9.8739   27.8116 C   0  0  0  0  0  0  0  0  0  0  0  0
   24.9131   11.1851   28.5197 C   0  0  1  0  0  0  0  0  0  0  0  0
   25.1681    9.2945   30.3282 C   0  0  0  0  0  0  0  0  0  0  0  0
   25.5773    7.9609   30.3630 N   0  0  0  0  0  0  0  0  0  0  0  0
   24.4061    9.8085   31.1309 O   0  0  0  0  0  0  0  0  0  0  0  0
   24.7732    6.7352   31.1403 S   0  0  0  0  0  0  0  0  0  0  0  0
   24.8950    6.9442   32.9380 C   0  0  0  0  0  0  0  0  0  0  0  0
   25.5561    5.5641   30.7872 O   0  0  0  0  0  0  0  0  0  0  0  0
   23.3800    6.8075   30.7649 O   0  0  0  0  0  0  0  0  0  0  0  0
   23.9894    7.9732   33.5085 C   0  0  0  0  0  0  0  0  0  0  0  0
   25.2053    5.6872   33.7102 C   0  0  0  0  0  0  0  0  0  0  0  0
   26.2780    6.7204   33.4969 C   0  0  0  0  0  0  0  0  0  0  0  0
   23.5808   11.6011   29.0466 C   0  0  0  0  0  0  0  0  0  0  0  0
   23.0794   12.5491   28.2096 F   0  0  0  0  0  0  0  0  0  0  0  0
   22.7166   10.5543   28.9996 F   0  0  0  0  0  0  0  0  0  0  0  0
   32.7059   17.6378   30.1854 H   0  0  0  0  0  0  0  0  0  0  0  0
   33.7903   16.8225   31.3119 H   0  0  0  0  0  0  0  0  0  0  0  0
   32.5852   17.6721   33.0554 H   0  0  0  0  0  0  0  0  0  0  0  0
   31.3744   18.3574   31.9687 H   0  0  0  0  0  0  0  0  0  0  0  0
   30.8282   16.2245   33.6703 H   0  0  0  0  0  0  0  0  0  0  0  0
   29.9742   16.4813   32.1532 H   0  0  0  0  0  0  0  0  0  0  0  0
   32.4409   14.7407   32.6333 H   0  0  0  0  0  0  0  0  0  0  0  0
   31.2797   15.7076   29.9465 H   0  0  0  0  0  0  0  0  0  0  0  0
   29.1722   12.2896   31.7052 H   0  0  0  0  0  0  0  0  0  0  0  0
   31.2929   10.3339   32.3995 H   0  0  0  0  0  0  0  0  0  0  0  0
   28.7991   10.2869   35.1579 H   0  0  0  0  0  0  0  0  0  0  0  0
   29.0444   11.7435   34.1945 H   0  0  0  0  0  0  0  0  0  0  0  0
   30.4372   10.7732   34.7125 H   0  0  0  0  0  0  0  0  0  0  0  0
   29.1013    8.0759   34.3199 H   0  0  0  0  0  0  0  0  0  0  0  0
   29.5248    7.7112   32.6581 H   0  0  0  0  0  0  0  0  0  0  0  0
   30.7561    8.3611   33.7584 H   0  0  0  0  0  0  0  0  0  0  0  0
   27.7521    9.1979   31.7116 H   0  0  0  0  0  0  0  0  0  0  0  0
   27.5188   10.8578   32.3055 H   0  0  0  0  0  0  0  0  0  0  0  0
   27.1840    9.4918   33.3611 H   0  0  0  0  0  0  0  0  0  0  0  0
   30.2481    9.8037   26.1610 H   0  0  0  0  0  0  0  0  0  0  0  0
   31.4969    8.9148   28.4049 H   0  0  0  0  0  0  0  0  0  0  0  0
   29.7917    8.5229   28.0527 H   0  0  0  0  0  0  0  0  0  0  0  0
   29.9348   12.1619   29.4290 H   0  0  0  0  0  0  0  0  0  0  0  0
   29.5980   12.3601   27.1370 H   0  0  0  0  0  0  0  0  0  0  0  0
   28.4424   11.0292   27.0542 H   0  0  0  0  0  0  0  0  0  0  0  0
   33.8707   13.5939   21.9117 H   0  0  0  0  0  0  0  0  0  0  0  0
   32.0862   13.7607   20.2009 H   0  0  0  0  0  0  0  0  0  0  0  0
   29.8075   12.8980   20.7044 H   0  0  0  0  0  0  0  0  0  0  0  0
   29.3455   11.8977   22.9233 H   0  0  0  0  0  0  0  0  0  0  0  0
   35.4608   13.3873   27.8002 H   0  0  0  0  0  0  0  0  0  0  0  0
   32.4080   13.6753   27.6267 H   0  0  0  0  0  0  0  0  0  0  0  0
   34.6323   15.3492   28.9684 H   0  0  0  0  0  0  0  0  0  0  0  0
   33.0505   15.9304   28.4028 H   0  0  0  0  0  0  0  0  0  0  0  0
   27.7466    9.3704   28.8837 H   0  0  0  0  0  0  0  0  0  0  0  0
   24.2403    9.2057   27.7423 H   0  0  0  0  0  0  0  0  0  0  0  0
   25.7112    9.8688   26.9210 H   0  0  0  0  0  0  0  0  0  0  0  0
   25.4364   12.0467   28.1233 H   0  0  0  0  0  0  0  0  0  0  0  0
   26.1463    7.5907   29.6028 H   0  0  0  0  0  0  0  0  0  0  0  0
   23.8281    7.8057   34.5788 H   0  0  0  0  0  0  0  0  0  0  0  0
   24.4185    8.9706   33.4120 H   0  0  0  0  0  0  0  0  0  0  0  0
   23.0010    7.9643   33.0424 H   0  0  0  0  0  0  0  0  0  0  0  0
   24.8091    5.5801   34.7174 H   0  0  0  0  0  0  0  0  0  0  0  0
   25.3015    4.7412   33.1882 H   0  0  0  0  0  0  0  0  0  0  0  0
   26.5902    7.2958   34.3616 H   0  0  0  0  0  0  0  0  0  0  0  0
   27.0930    6.4634   32.8280 H   0  0  0  0  0  0  0  0  0  0  0  0
   23.6215   12.0119   30.0597 H   0  0  0  0  0  0  0  0  0  0  0  0
  1  2  1  0
  2  3  1  0
  4  3  1  0
  4  5  1  0
  5  1  1  0
  4  6  1  0
  6  7  1  0
  7  8  1  0
  7  9  2  0
  8 10  1  0
 10 11  1  0
 10 12  1  0
 12 13  1  0
 12 14  1  0
 12 15  1  0
 11 16  2  0
 11 17  1  0
 19 17  1  0
 17 20  1  0
 18 19  1  0
 20 21  1  0
 18 21  1  0
 18 22  1  0
 22 23  1  0
 23 24  2  0
 28 23  1  0
 24 25  1  0
 26 27  1  0
 27 28  2  0
 26 29  1  0
 25 26  2  0
 32 25  1  0
 29 30  2  0
 30 31  1  0
 31 32  2  0
 28 33  1  0
 33 34  1  0
 34 35  2  0
 35 36  1  0
 36 37  1  0
  5 37  1  0
 33 38  1  0
 33 39  1  0
 20 40  1  0
 40 41  1  0
 40 42  2  0
 43 41  1  1
 43 44  1  0
 45 43  1  0
 44 45  1  0
 43 46  1  0
 46 47  1  0
 46 48  2  0
 47 49  1  0
 49 50  1  0
 49 51  2  0
 49 52  2  0
 50 53  1  0
 50 54  1  0
 55 50  1  0
 54 55  1  0
 45 56  1  0
 56 57  1  0
 56 58  1  0
  1 59  1  0
  1 60  1  0
  2 61  1  0
  2 62  1  0
  3 63  1  0
  3 64  1  0
  4 65  1  1
  5 66  1  6
  8 67  1  0
 10 68  1  1
 13 69  1  0
 13 70  1  0
 13 71  1  0
 14 72  1  0
 14 73  1  0
 14 74  1  0
 15 75  1  0
 15 76  1  0
 15 77  1  0
 18 78  1  6
 19 79  1  0
 19 80  1  0
 20 81  1  6
 21 82  1  0
 21 83  1  0
 29 84  1  0
 30 85  1  0
 31 86  1  0
 32 87  1  0
 34 88  1  0
 35 89  1  0
 36 90  1  0
 36 91  1  0
 41 92  1  0
 44 93  1  0
 44 94  1  0
 45 95  1  6
 47 96  1  0
 53 97  1  0
 53 98  1  0
 53 99  1  0
 54100  1  0
 54101  1  0
 55102  1  0
 55103  1  0
 56104  1  0
M  END
> <Uni-Dock RESULT> 
ENERGY=   -4.156  LOWER_BOUND=    0.000  UPPER_BOUND=    0.000
INTER + INTRA:          -4.156
INTER:                  -4.156
INTRA:                   0.000
UNBOUND:                 0.000

$$$$

     RDKit          3D

104110  0  0  0  0  0  0  0  0999 V2000
   24.4813   17.3350   19.6321 C   0  0  0  0  0  0  0  0  0  0  0  0
   23.2151   17.7094   20.4091 C   0  0  0  0  0  0  0  0  0  0  0  0
   23.5311   17.4648   21.8809 C   0  0  0  0  0  0  0  0  0  0  0  0
   25.0536   17.4866   21.9438 C   0  0  2  0  0  0  0  0  0  0  0  0
   25.4388   16.7337   20.6644 C   0  0  2  0  0  0  0  0  0  0  0  0
   25.5135   16.8153   23.1235 O   0  0  0  0  0  0  0  0  0  0  0  0
   26.6854   17.2726   23.6273 C   0  0  0  0  0  0  0  0  0  0  0  0
   26.9864   16.5744   24.7594 N   0  0  0  0  0  0  0  0  0  0  0  0
   27.3548   18.1845   23.1679 O   0  0  0  0  0  0  0  0  0  0  0  0
   28.1350   16.9164   25.5909 C   0  0  2  0  0  0  0  0  0  0  0  0
   29.4156   16.0294   25.4077 C   0  0  0  0  0  0  0  0  0  0  0  0
   27.7057   17.1822   27.0802 C   0  0  0  0  0  0  0  0  0  0  0  0
   26.5231   18.1817   27.1108 C   0  0  0  0  0  0  0  0  0  0  0  0
   28.8457   17.8292   27.9028 C   0  0  0  0  0  0  0  0  0  0  0  0
   27.2740   15.8903   27.7837 C   0  0  0  0  0  0  0  0  0  0  0  0
   30.4883   16.4349   25.8758 O   0  0  0  0  0  0  0  0  0  0  0  0
   29.4118   14.7929   24.7903 N   0  0  0  0  0  0  0  0  0  0  0  0
   30.3697   13.2695   23.2166 C   0  0  1  0  0  0  0  0  0  0  0  0
   30.6876   14.2315   24.3627 C   0  0  0  0  0  0  0  0  0  0  0  0
   28.2943   14.0186   24.2508 C   0  0  1  0  0  0  0  0  0  0  0  0
   28.9324   12.8376   23.4912 C   0  0  0  0  0  0  0  0  0  0  0  0
   30.4582   13.9661   21.9700 O   0  0  0  0  0  0  0  0  0  0  0  0
   30.6917   13.1541   20.8805 C   0  0  0  0  0  0  0  0  0  0  0  0
   30.5624   11.8156   21.0380 N   0  0  0  0  0  0  0  0  0  0  0  0
   30.7516   11.0480   19.9503 C   0  0  0  0  0  0  0  0  0  0  0  0
   31.0540   11.6145   18.6919 C   0  0  0  0  0  0  0  0  0  0  0  0
   31.1560   12.9450   18.5368 N   0  0  0  0  0  0  0  0  0  0  0  0
   30.9750   13.7272   19.6469 C   0  0  0  0  0  0  0  0  0  0  0  0
   31.2446   10.7743   17.6033 C   0  0  0  0  0  0  0  0  0  0  0  0
   31.1383    9.3875   17.7306 C   0  0  0  0  0  0  0  0  0  0  0  0
   30.8361    8.8317   18.9656 C   0  0  0  0  0  0  0  0  0  0  0  0
   30.6442    9.6684   20.0653 C   0  0  0  0  0  0  0  0  0  0  0  0
   31.0615   15.2352   19.4844 C   0  0  0  0  0  0  0  0  0  0  0  0
   29.7395   15.9011   19.1623 C   0  0  0  0  0  0  0  0  0  0  0  0
   28.5045   15.5481   19.5608 C   0  0  0  0  0  0  0  0  0  0  0  0
   27.2597   16.2843   19.1880 C   0  0  0  0  0  0  0  0  0  0  0  0
   26.8098   16.9489   20.3579 O   0  0  0  0  0  0  0  0  0  0  0  0
   31.9278   15.5627   18.4682 F   0  0  0  0  0  0  0  0  0  0  0  0
   31.6115   15.8530   20.5752 F   0  0  0  0  0  0  0  0  0  0  0  0
   27.4383   13.4436   25.3958 C   0  0  0  0  0  0  0  0  0  0  0  0
   28.1754   12.8016   26.3763 N   0  0  0  0  0  0  0  0  0  0  0  0
   26.2135   13.4681   25.3786 O   0  0  0  0  0  0  0  0  0  0  0  0
   27.6004   11.9158   27.3764 C   0  0  2  0  0  0  0  0  0  0  0  0
   28.0548   10.4572   27.2841 C   0  0  0  0  0  0  0  0  0  0  0  0
   26.6382   10.8110   26.9358 C   0  0  1  0  0  0  0  0  0  0  0  0
   27.4820   12.4859   28.7777 C   0  0  0  0  0  0  0  0  0  0  0  0
   28.7033   12.8527   29.3444 N   0  0  0  0  0  0  0  0  0  0  0  0
   26.3994   12.5942   29.3304 O   0  0  0  0  0  0  0  0  0  0  0  0
   28.9896   13.0212   30.9701 S   0  0  0  0  0  0  0  0  0  0  0  0
   28.1176   14.4753   31.6147 C   0  0  0  0  0  0  0  0  0  0  0  0
   30.4113   13.3140   31.0163 O   0  0  0  0  0  0  0  0  0  0  0  0
   28.4762   11.8471   31.6372 O   0  0  0  0  0  0  0  0  0  0  0  0
   26.6622   14.2819   31.8359 C   0  0  0  0  0  0  0  0  0  0  0  0
   28.9227   15.3451   32.5463 C   0  0  0  0  0  0  0  0  0  0  0  0
   28.6688   15.7941   31.1329 C   0  0  0  0  0  0  0  0  0  0  0  0
   25.4981   10.3520   27.7814 C   0  0  0  0  0  0  0  0  0  0  0  0
   24.8805    9.3304   27.1290 F   0  0  0  0  0  0  0  0  0  0  0  0
   25.9648    9.8342   28.9471 F   0  0  0  0  0  0  0  0  0  0  0  0
   24.2672   16.6232   18.8280 H   0  0  0  0  0  0  0  0  0  0  0  0
   24.9145   18.2285   19.1646 H   0  0  0  0  0  0  0  0  0  0  0  0
   22.9728   18.7639   20.2403 H   0  0  0  0  0  0  0  0  0  0  0  0
   22.3556   17.1175   20.0821 H   0  0  0  0  0  0  0  0  0  0  0  0
   23.0828   18.2189   22.5318 H   0  0  0  0  0  0  0  0  0  0  0  0
   23.1442   16.4911   22.2035 H   0  0  0  0  0  0  0  0  0  0  0  0
   25.4075   18.5258   21.9159 H   0  0  0  0  0  0  0  0  0  0  0  0
   25.2662   15.6562   20.7988 H   0  0  0  0  0  0  0  0  0  0  0  0
   26.2969   15.8949   25.0529 H   0  0  0  0  0  0  0  0  0  0  0  0
   28.4870   17.8899   25.2181 H   0  0  0  0  0  0  0  0  0  0  0  0
   26.2567   18.4515   28.1404 H   0  0  0  0  0  0  0  0  0  0  0  0
   25.6197   17.7723   26.6428 H   0  0  0  0  0  0  0  0  0  0  0  0
   26.7833   19.1113   26.5896 H   0  0  0  0  0  0  0  0  0  0  0  0
   28.4943   18.1296   28.8968 H   0  0  0  0  0  0  0  0  0  0  0  0
   29.6727   17.1343   28.0633 H   0  0  0  0  0  0  0  0  0  0  0  0
   29.2365   18.7224   27.4025 H   0  0  0  0  0  0  0  0  0  0  0  0
   28.1140   15.1926   27.8423 H   0  0  0  0  0  0  0  0  0  0  0  0
   26.4462   15.4030   27.2619 H   0  0  0  0  0  0  0  0  0  0  0  0
   26.9330   16.0914   28.8052 H   0  0  0  0  0  0  0  0  0  0  0  0
   31.0840   12.4392   23.2591 H   0  0  0  0  0  0  0  0  0  0  0  0
   31.3896   15.0169   24.0637 H   0  0  0  0  0  0  0  0  0  0  0  0
   31.0960   13.6921   25.2231 H   0  0  0  0  0  0  0  0  0  0  0  0
   27.6973   14.6241   23.5687 H   0  0  0  0  0  0  0  0  0  0  0  0
   28.3612   12.6272   22.5799 H   0  0  0  0  0  0  0  0  0  0  0  0
   28.9393   11.9152   24.0874 H   0  0  0  0  0  0  0  0  0  0  0  0
   31.4809   11.2085   16.6355 H   0  0  0  0  0  0  0  0  0  0  0  0
   31.2848    8.7491   16.8637 H   0  0  0  0  0  0  0  0  0  0  0  0
   30.7487    7.7529   19.0796 H   0  0  0  0  0  0  0  0  0  0  0  0
   30.3978    9.2381   21.0312 H   0  0  0  0  0  0  0  0  0  0  0  0
   29.8557   16.7777   18.5295 H   0  0  0  0  0  0  0  0  0  0  0  0
   28.3536   14.6991   20.2192 H   0  0  0  0  0  0  0  0  0  0  0  0
   27.4434   17.0381   18.4165 H   0  0  0  0  0  0  0  0  0  0  0  0
   26.5244   15.5668   18.8045 H   0  0  0  0  0  0  0  0  0  0  0  0
   29.1711   12.9920   26.4045 H   0  0  0  0  0  0  0  0  0  0  0  0
   28.2364    9.9063   28.2016 H   0  0  0  0  0  0  0  0  0  0  0  0
   28.7084   10.1592   26.4721 H   0  0  0  0  0  0  0  0  0  0  0  0
   26.3550   10.7822   25.8907 H   0  0  0  0  0  0  0  0  0  0  0  0
   29.5690   12.6468   28.8475 H   0  0  0  0  0  0  0  0  0  0  0  0
   26.2709   15.0178   32.5464 H   0  0  0  0  0  0  0  0  0  0  0  0
   26.1032   14.4170   30.9099 H   0  0  0  0  0  0  0  0  0  0  0  0
   26.4301   13.2981   32.2515 H   0  0  0  0  0  0  0  0  0  0  0  0
   28.4065   15.8803   33.3401 H   0  0  0  0  0  0  0  0  0  0  0  0
   29.9346   15.0600   32.8137 H   0  0  0  0  0  0  0  0  0  0  0  0
   27.9856   16.6245   30.9924 H   0  0  0  0  0  0  0  0  0  0  0  0
   29.5148   15.8070   30.4534 H   0  0  0  0  0  0  0  0  0  0  0  0
   24.7625   11.1360   27.9843 H   0  0  0  0  0  0  0  0  0  0  0  0
  1  2  1  0
  2  3  1  0
  4  3  1  0
  4  5  1  0
  5  1  1  0
  4  6  1  0
  6  7  1  0
  7  8  1  0
  7  9  2  0
  8 10  1  0
 10 11  1  0
 10 12  1  0
 12 13  1  0
 12 14  1  0
 12 15  1  0
 11 16  2  0
 11 17  1  0
 19 17  1  0
 17 20  1  0
 18 19  1  0
 20 21  1  0
 18 21  1  0
 18 22  1  0
 22 23  1  0
 23 24  2  0
 28 23  1  0
 24 25  1  0
 26 27  1  0
 27 28  2  0
 26 29  1  0
 25 26  2  0
 32 25  1  0
 29 30  2  0
 30 31  1  0
 31 32  2  0
 28 33  1  0
 33 34  1  0
 34 35  2  0
 35 36  1  0
 36 37  1  0
  5 37  1  0
 33 38  1  0
 33 39  1  0
 20 40  1  0
 40 41  1  0
 40 42  2  0
 43 41  1  1
 43 44  1  0
 45 43  1  0
 44 45  1  0
 43 46  1  0
 46 47  1  0
 46 48  2  0
 47 49  1  0
 49 50  1  0
 49 51  2  0
 49 52  2  0
 50 53  1  0
 50 54  1  0
 55 50  1  0
 54 55  1  0
 45 56  1  0
 56 57  1  0
 56 58  1  0
  1 59  1  0
  1 60  1  0
  2 61  1  0
  2 62  1  0
  3 63  1  0
  3 64  1  0
  4 65  1  1
  5 66  1  6
  8 67  1  0
 10 68  1  1
 13 69  1  0
 13 70  1  0
 13 71  1  0
 14 72  1  0
 14 73  1  0
 14 74  1  0
 15 75  1  0
 15 76  1  0
 15 77  1  0
 18 78  1  6
 19 79  1  0
 19 80  1  0
 20 81  1  6
 21 82  1  0
 21 83  1  0
 29 84  1  0
 30 85  1  0
 31 86  1  0
 32 87  1  0
 34 88  1  0
 35 89  1  0
 36 90  1  0
 36 91  1  0
 41 92  1  0
 44 93  1  0
 44 94  1  0
 45 95  1  6
 47 96  1  0
 53 97  1  0
 53 98  1  0
 53 99  1  0
 54100  1  0
 54101  1  0
 55102  1  0
 55103  1  0
 56104  1  0
M  END
> <Uni-Dock RESULT> 
ENERGY=   -3.849  LOWER_BOUND=    5.065  UPPER_BOUND=    8.099
INTER + INTRA:          -3.849
INTER:                  -3.849
INTRA:                   0.000
UNBOUND:                 0.000

$$$$

     RDKit          3D

104110  0  0  0  0  0  0  0  0999 V2000
   34.2183    8.0378   28.6041 C   0  0  0  0  0  0  0  0  0  0  0  0
   33.7924    7.2673   29.8579 C   0  0  0  0  0  0  0  0  0  0  0  0
   32.4146    7.7999   30.2371 C   0  0  0  0  0  0  0  0  0  0  0  0
   31.8890    8.4236   28.9499 C   0  0  2  0  0  0  0  0  0  0  0  0
   33.1425    9.1055   28.3880 C   0  0  2  0  0  0  0  0  0  0  0  0
   30.8481    9.3648   29.2408 O   0  0  0  0  0  0  0  0  0  0  0  0
   29.9098    9.5042   28.2730 C   0  0  0  0  0  0  0  0  0  0  0  0
   28.9678   10.3972   28.6910 N   0  0  0  0  0  0  0  0  0  0  0  0
   29.8849    8.9063   27.2087 O   0  0  0  0  0  0  0  0  0  0  0  0
   27.7673   10.6709   27.9088 C   0  0  2  0  0  0  0  0  0  0  0  0
   27.7816   11.9817   27.0476 C   0  0  0  0  0  0  0  0  0  0  0  0
   26.4643   10.4349   28.7570 C   0  0  0  0  0  0  0  0  0  0  0  0
   26.5301    9.0450   29.4369 C   0  0  0  0  0  0  0  0  0  0  0  0
   25.1937   10.4292   27.8737 C   0  0  0  0  0  0  0  0  0  0  0  0
   26.2946   11.5041   29.8426 C   0  0  0  0  0  0  0  0  0  0  0  0
   26.9198   12.1220   26.1689 O   0  0  0  0  0  0  0  0  0  0  0  0
   28.6759   13.0178   27.2401 N   0  0  0  0  0  0  0  0  0  0  0  0
   30.2294   14.5963   26.3404 C   0  0  1  0  0  0  0  0  0  0  0  0
   28.8288   14.0035   26.1768 C   0  0  0  0  0  0  0  0  0  0  0  0
   29.7144   13.1821   28.2569 C   0  0  1  0  0  0  0  0  0  0  0  0
   30.5292   14.4187   27.8258 C   0  0  0  0  0  0  0  0  0  0  0  0
   31.1584   13.8533   25.5454 O   0  0  0  0  0  0  0  0  0  0  0  0
   32.3000   14.5483   25.2069 C   0  0  0  0  0  0  0  0  0  0  0  0
   32.5504   15.7187   25.8398 N   0  0  0  0  0  0  0  0  0  0  0  0
   33.6920   16.3555   25.5245 C   0  0  0  0  0  0  0  0  0  0  0  0
   34.6013   15.8174   24.5866 C   0  0  0  0  0  0  0  0  0  0  0  0
   34.3591   14.6430   23.9809 N   0  0  0  0  0  0  0  0  0  0  0  0
   33.1907   13.9993   24.2927 C   0  0  0  0  0  0  0  0  0  0  0  0
   35.7626   16.5199   24.2949 C   0  0  0  0  0  0  0  0  0  0  0  0
   36.0465   17.7397   24.9131 C   0  0  0  0  0  0  0  0  0  0  0  0
   35.1557   18.2654   25.8381 C   0  0  0  0  0  0  0  0  0  0  0  0
   33.9855   17.5668   26.1364 C   0  0  0  0  0  0  0  0  0  0  0  0
   32.9128   12.6578   23.6361 C   0  0  0  0  0  0  0  0  0  0  0  0
   33.4322   11.4668   24.4149 C   0  0  0  0  0  0  0  0  0  0  0  0
   33.5363   11.3178   25.7474 C   0  0  0  0  0  0  0  0  0  0  0  0
   34.0600   10.0895   26.4163 C   0  0  0  0  0  0  0  0  0  0  0  0
   32.9496    9.4467   27.0219 O   0  0  0  0  0  0  0  0  0  0  0  0
   33.4927   12.6001   22.3908 F   0  0  0  0  0  0  0  0  0  0  0  0
   31.5837   12.4650   23.3711 F   0  0  0  0  0  0  0  0  0  0  0  0
   29.0792   13.4827   29.6281 C   0  0  0  0  0  0  0  0  0  0  0  0
   28.1285   14.4888   29.5950 N   0  0  0  0  0  0  0  0  0  0  0  0
   29.4604   12.9472   30.6621 O   0  0  0  0  0  0  0  0  0  0  0  0
   27.6232   15.1688   30.7772 C   0  0  2  0  0  0  0  0  0  0  0  0
   27.9568   16.6604   30.8556 C   0  0  0  0  0  0  0  0  0  0  0  0
   28.6117   15.7077   31.8130 C   0  0  1  0  0  0  0  0  0  0  0  0
   26.2254   14.7779   31.2204 C   0  0  0  0  0  0  0  0  0  0  0  0
   25.2387   15.0271   30.2657 N   0  0  0  0  0  0  0  0  0  0  0  0
   26.0197   14.2961   32.3225 O   0  0  0  0  0  0  0  0  0  0  0  0
   23.6194   15.1943   30.5871 S   0  0  0  0  0  0  0  0  0  0  0  0
   22.9084   13.6000   31.0800 C   0  0  0  0  0  0  0  0  0  0  0  0
   23.0677   15.5300   29.2862 O   0  0  0  0  0  0  0  0  0  0  0  0
   23.4765   16.1188   31.6880 O   0  0  0  0  0  0  0  0  0  0  0  0
   23.1992   13.1936   32.4781 C   0  0  0  0  0  0  0  0  0  0  0  0
   21.5806   13.2673   30.4485 C   0  0  0  0  0  0  0  0  0  0  0  0
   22.8318   12.5838   29.9681 C   0  0  0  0  0  0  0  0  0  0  0  0
   28.3059   15.7486   33.2726 C   0  0  0  0  0  0  0  0  0  0  0  0
   29.3616   16.3305   33.9031 F   0  0  0  0  0  0  0  0  0  0  0  0
   27.2350   16.5526   33.4993 F   0  0  0  0  0  0  0  0  0  0  0  0
   35.2081    8.4907   28.7240 H   0  0  0  0  0  0  0  0  0  0  0  0
   34.2774    7.3569   27.7453 H   0  0  0  0  0  0  0  0  0  0  0  0
   33.7406    6.1960   29.6369 H   0  0  0  0  0  0  0  0  0  0  0  0
   34.5097    7.4012   30.6724 H   0  0  0  0  0  0  0  0  0  0  0  0
   31.7549    7.0136   30.6111 H   0  0  0  0  0  0  0  0  0  0  0  0
   32.4953    8.5546   31.0282 H   0  0  0  0  0  0  0  0  0  0  0  0
   31.5312    7.6325   28.2777 H   0  0  0  0  0  0  0  0  0  0  0  0
   33.3580   10.0200   28.9591 H   0  0  0  0  0  0  0  0  0  0  0  0
   29.0889   10.7571   29.6286 H   0  0  0  0  0  0  0  0  0  0  0  0
   27.7431    9.8956   27.1284 H   0  0  0  0  0  0  0  0  0  0  0  0
   25.5972    8.8171   29.9676 H   0  0  0  0  0  0  0  0  0  0  0  0
   27.3413    8.9790   30.1719 H   0  0  0  0  0  0  0  0  0  0  0  0
   26.6813    8.2527   28.6932 H   0  0  0  0  0  0  0  0  0  0  0  0
   24.3111   10.1340   28.4529 H   0  0  0  0  0  0  0  0  0  0  0  0
   24.9802   11.4199   27.4667 H   0  0  0  0  0  0  0  0  0  0  0  0
   25.2957    9.7269   27.0387 H   0  0  0  0  0  0  0  0  0  0  0  0
   26.1711   12.4902   29.3863 H   0  0  0  0  0  0  0  0  0  0  0  0
   27.1527   11.5332   30.5191 H   0  0  0  0  0  0  0  0  0  0  0  0
   25.4100   11.3058   30.4577 H   0  0  0  0  0  0  0  0  0  0  0  0
   30.1940   15.6473   26.0314 H   0  0  0  0  0  0  0  0  0  0  0  0
   28.6808   13.5528   25.1898 H   0  0  0  0  0  0  0  0  0  0  0  0
   28.0606   14.7651   26.3436 H   0  0  0  0  0  0  0  0  0  0  0  0
   30.3591   12.3041   28.2972 H   0  0  0  0  0  0  0  0  0  0  0  0
   31.5923   14.2579   28.0374 H   0  0  0  0  0  0  0  0  0  0  0  0
   30.2264   15.3252   28.3671 H   0  0  0  0  0  0  0  0  0  0  0  0
   36.4612   16.1091   23.5710 H   0  0  0  0  0  0  0  0  0  0  0  0
   36.9647   18.2694   24.6748 H   0  0  0  0  0  0  0  0  0  0  0  0
   35.3642   19.2142   26.3289 H   0  0  0  0  0  0  0  0  0  0  0  0
   33.2907   17.9698   26.8670 H   0  0  0  0  0  0  0  0  0  0  0  0
   33.7433   10.6485   23.7699 H   0  0  0  0  0  0  0  0  0  0  0  0
   33.2049   12.0999   26.4224 H   0  0  0  0  0  0  0  0  0  0  0  0
   34.5101    9.3929   25.7027 H   0  0  0  0  0  0  0  0  0  0  0  0
   34.8246   10.3814   27.1462 H   0  0  0  0  0  0  0  0  0  0  0  0
   27.7498   14.7366   28.6875 H   0  0  0  0  0  0  0  0  0  0  0  0
   27.2082   17.3448   31.2425 H   0  0  0  0  0  0  0  0  0  0  0  0
   28.5805   17.1021   30.0866 H   0  0  0  0  0  0  0  0  0  0  0  0
   29.6616   15.4873   31.6639 H   0  0  0  0  0  0  0  0  0  0  0  0
   25.4852   15.5131   29.4044 H   0  0  0  0  0  0  0  0  0  0  0  0
   22.4725   12.4547   32.8325 H   0  0  0  0  0  0  0  0  0  0  0  0
   24.1805   12.7249   32.5545 H   0  0  0  0  0  0  0  0  0  0  0  0
   23.1506   14.0334   33.1758 H   0  0  0  0  0  0  0  0  0  0  0  0
   20.8689   12.6672   31.0110 H   0  0  0  0  0  0  0  0  0  0  0  0
   21.1042   13.9793   29.7829 H   0  0  0  0  0  0  0  0  0  0  0  0
   22.9475   11.5336   30.2128 H   0  0  0  0  0  0  0  0  0  0  0  0
   23.1933   12.8421   28.9780 H   0  0  0  0  0  0  0  0  0  0  0  0
   28.1355   14.7605   33.7101 H   0  0  0  0  0  0  0  0  0  0  0  0
  1  2  1  0
  2  3  1  0
  4  3  1  0
  4  5  1  0
  5  1  1  0
  4  6  1  0
  6  7  1  0
  7  8  1  0
  7  9  2  0
  8 10  1  0
 10 11  1  0
 10 12  1  0
 12 13  1  0
 12 14  1  0
 12 15  1  0
 11 16  2  0
 11 17  1  0
 19 17  1  0
 17 20  1  0
 18 19  1  0
 20 21  1  0
 18 21  1  0
 18 22  1  0
 22 23  1  0
 23 24  2  0
 28 23  1  0
 24 25  1  0
 26 27  1  0
 27 28  2  0
 26 29  1  0
 25 26  2  0
 32 25  1  0
 29 30  2  0
 30 31  1  0
 31 32  2  0
 28 33  1  0
 33 34  1  0
 34 35  2  0
 35 36  1  0
 36 37  1  0
  5 37  1  0
 33 38  1  0
 33 39  1  0
 20 40  1  0
 40 41  1  0
 40 42  2  0
 43 41  1  1
 43 44  1  0
 45 43  1  0
 44 45  1  0
 43 46  1  0
 46 47  1  0
 46 48  2  0
 47 49  1  0
 49 50  1  0
 49 51  2  0
 49 52  2  0
 50 53  1  0
 50 54  1  0
 55 50  1  0
 54 55  1  0
 45 56  1  0
 56 57  1  0
 56 58  1  0
  1 59  1  0
  1 60  1  0
  2 61  1  0
  2 62  1  0
  3 63  1  0
  3 64  1  0
  4 65  1  1
  5 66  1  6
  8 67  1  0
 10 68  1  1
 13 69  1  0
 13 70  1  0
 13 71  1  0
 14 72  1  0
 14 73  1  0
 14 74  1  0
 15 75  1  0
 15 76  1  0
 15 77  1  0
 18 78  1  6
 19 79  1  0
 19 80  1  0
 20 81  1  6
 21 82  1  0
 21 83  1  0
 29 84  1  0
 30 85  1  0
 31 86  1  0
 32 87  1  0
 34 88  1  0
 35 89  1  0
 36 90  1  0
 36 91  1  0
 41 92  1  0
 44 93  1  0
 44 94  1  0
 45 95  1  6
 47 96  1  0
 53 97  1  0
 53 98  1  0
 53 99  1  0
 54100  1  0
 54101  1  0
 55102  1  0
 55103  1  0
 56104  1  0
M  END
> <Uni-Dock RESULT> 
ENERGY=   -3.694  LOWER_BOUND=    3.785  UPPER_BOUND=    6.190
INTER + INTRA:          -3.694
INTER:                  -3.694
INTRA:                   0.000
UNBOUND:                 0.000

$$$$

     RDKit          3D

104110  0  0  0  0  0  0  0  0999 V2000
   32.0318   12.8656   23.1285 C   0  0  0  0  0  0  0  0  0  0  0  0
   30.8564   12.3177   22.3128 C   0  0  0  0  0  0  0  0  0  0  0  0
   29.8955   11.6924   23.3184 C   0  0  0  0  0  0  0  0  0  0  0  0
   30.2603   12.3522   24.6427 C   0  0  2  0  0  0  0  0  0  0  0  0
   31.7914   12.3996   24.5669 C   0  0  2  0  0  0  0  0  0  0  0  0
   29.7995   11.5549   25.7407 O   0  0  0  0  0  0  0  0  0  0  0  0
   29.4826   12.2463   26.8623 C   0  0  0  0  0  0  0  0  0  0  0  0
   29.0294   11.3758   27.8092 N   0  0  0  0  0  0  0  0  0  0  0  0
   29.5559   13.4570   27.0015 O   0  0  0  0  0  0  0  0  0  0  0  0
   28.5045   11.8374   29.0895 C   0  0  2  0  0  0  0  0  0  0  0  0
   29.4794   11.7469   30.3148 C   0  0  0  0  0  0  0  0  0  0  0  0
   27.0506   11.2941   29.3423 C   0  0  0  0  0  0  0  0  0  0  0  0
   26.1658   11.5776   28.1033 C   0  0  0  0  0  0  0  0  0  0  0  0
   26.3691   12.0035   30.5370 C   0  0  0  0  0  0  0  0  0  0  0  0
   27.0494    9.7847   29.6106 C   0  0  0  0  0  0  0  0  0  0  0  0
   29.1907   12.3665   31.3479 O   0  0  0  0  0  0  0  0  0  0  0  0
   30.6269   10.9767   30.3283 N   0  0  0  0  0  0  0  0  0  0  0  0
   32.9618   10.7612   30.7938 C   0  0  1  0  0  0  0  0  0  0  0  0
   31.6241   11.2427   31.3582 C   0  0  0  0  0  0  0  0  0  0  0  0
   31.1554   10.0651   29.3139 C   0  0  1  0  0  0  0  0  0  0  0  0
   32.5673    9.6756   29.7969 C   0  0  0  0  0  0  0  0  0  0  0  0
   33.6168   11.8447   30.1274 O   0  0  0  0  0  0  0  0  0  0  0  0
   34.9844   11.7048   30.0236 C   0  0  0  0  0  0  0  0  0  0  0  0
   35.5299   10.4994   30.3107 N   0  0  0  0  0  0  0  0  0  0  0  0
   36.8603   10.3754   30.1591 C   0  0  0  0  0  0  0  0  0  0  0  0
   37.6534   11.4514   29.7017 C   0  0  0  0  0  0  0  0  0  0  0  0
   37.1025   12.6374   29.3943 N   0  0  0  0  0  0  0  0  0  0  0  0
   35.7488   12.7682   29.5596 C   0  0  0  0  0  0  0  0  0  0  0  0
   39.0232   11.2694   29.5684 C   0  0  0  0  0  0  0  0  0  0  0  0
   39.6250   10.0463   29.8730 C   0  0  0  0  0  0  0  0  0  0  0  0
   38.8450    8.9882   30.3173 C   0  0  0  0  0  0  0  0  0  0  0  0
   37.4678    9.1625   30.4554 C   0  0  0  0  0  0  0  0  0  0  0  0
   35.1056   14.0946   29.1925 C   0  0  0  0  0  0  0  0  0  0  0  0
   34.6408   14.1812   27.7532 C   0  0  0  0  0  0  0  0  0  0  0  0
   34.1620   13.2007   26.9670 C   0  0  0  0  0  0  0  0  0  0  0  0
   33.7223   13.3977   25.5534 C   0  0  0  0  0  0  0  0  0  0  0  0
   32.3074   13.2922   25.5451 O   0  0  0  0  0  0  0  0  0  0  0  0
   35.9893   15.1300   29.3861 F   0  0  0  0  0  0  0  0  0  0  0  0
   34.0593   14.4191   30.0134 F   0  0  0  0  0  0  0  0  0  0  0  0
   30.3023    8.7836   29.2484 C   0  0  0  0  0  0  0  0  0  0  0  0
   30.0632    8.2078   30.4846 N   0  0  0  0  0  0  0  0  0  0  0  0
   29.9598    8.2740   28.1881 O   0  0  0  0  0  0  0  0  0  0  0  0
   29.5694    6.8520   30.6680 C   0  0  2  0  0  0  0  0  0  0  0  0
   30.5422    5.9003   31.3681 C   0  0  0  0  0  0  0  0  0  0  0  0
   30.2369    5.7017   29.9120 C   0  0  1  0  0  0  0  0  0  0  0  0
   28.1122    6.7260   31.0722 C   0  0  0  0  0  0  0  0  0  0  0  0
   27.8066    7.3413   32.2868 N   0  0  0  0  0  0  0  0  0  0  0  0
   27.3087    6.1282   30.3749 O   0  0  0  0  0  0  0  0  0  0  0  0
   26.4956    6.9796   33.2374 S   0  0  0  0  0  0  0  0  0  0  0  0
   24.9657    7.5330   32.4353 C   0  0  0  0  0  0  0  0  0  0  0  0
   26.7023    7.8222   34.4021 O   0  0  0  0  0  0  0  0  0  0  0  0
   26.4383    5.5443   33.3905 O   0  0  0  0  0  0  0  0  0  0  0  0
   24.4827    6.6540   31.3405 C   0  0  0  0  0  0  0  0  0  0  0  0
   23.9850    8.2351   33.3398 C   0  0  0  0  0  0  0  0  0  0  0  0
   24.8085    9.0315   32.3644 C   0  0  0  0  0  0  0  0  0  0  0  0
   29.4827    4.5050   29.4380 C   0  0  0  0  0  0  0  0  0  0  0  0
   30.3725    3.6544   28.8588 F   0  0  0  0  0  0  0  0  0  0  0  0
   28.9537    3.8409   30.4981 F   0  0  0  0  0  0  0  0  0  0  0  0
   32.9924   12.5017   22.7491 H   0  0  0  0  0  0  0  0  0  0  0  0
   32.0551   13.9612   23.0668 H   0  0  0  0  0  0  0  0  0  0  0  0
   30.3659   13.1340   21.7720 H   0  0  0  0  0  0  0  0  0  0  0  0
   31.1904   11.5858   21.5721 H   0  0  0  0  0  0  0  0  0  0  0  0
   28.8495   11.8595   23.0513 H   0  0  0  0  0  0  0  0  0  0  0  0
   30.0436   10.6075   23.3727 H   0  0  0  0  0  0  0  0  0  0  0  0
   29.8323   13.3628   24.6798 H   0  0  0  0  0  0  0  0  0  0  0  0
   32.2053   11.3963   24.7429 H   0  0  0  0  0  0  0  0  0  0  0  0
   28.9604   10.4089   27.5201 H   0  0  0  0  0  0  0  0  0  0  0  0
   28.3868   12.9262   28.9823 H   0  0  0  0  0  0  0  0  0  0  0  0
   25.1237   11.2852   28.2832 H   0  0  0  0  0  0  0  0  0  0  0  0
   26.5040   11.0290   27.2159 H   0  0  0  0  0  0  0  0  0  0  0  0
   26.1646   12.6474   27.8602 H   0  0  0  0  0  0  0  0  0  0  0  0
   25.3155   11.7124   30.6205 H   0  0  0  0  0  0  0  0  0  0  0  0
   26.8399   11.7387   31.4861 H   0  0  0  0  0  0  0  0  0  0  0  0
   26.4069   13.0928   30.4241 H   0  0  0  0  0  0  0  0  0  0  0  0
   27.6070    9.5625   30.5247 H   0  0  0  0  0  0  0  0  0  0  0  0
   27.4930    9.2264   28.7821 H   0  0  0  0  0  0  0  0  0  0  0  0
   26.0292    9.4070   29.7398 H   0  0  0  0  0  0  0  0  0  0  0  0
   33.5671   10.3823   31.6253 H   0  0  0  0  0  0  0  0  0  0  0  0
   31.6449   12.3033   31.6297 H   0  0  0  0  0  0  0  0  0  0  0  0
   31.3346   10.6526   32.2335 H   0  0  0  0  0  0  0  0  0  0  0  0
   31.2141   10.5580   28.3434 H   0  0  0  0  0  0  0  0  0  0  0  0
   33.2484    9.6042   28.9414 H   0  0  0  0  0  0  0  0  0  0  0  0
   32.5796    8.6997   30.3009 H   0  0  0  0  0  0  0  0  0  0  0  0
   39.6351   12.0972   29.2202 H   0  0  0  0  0  0  0  0  0  0  0  0
   40.6981    9.9240   29.7550 H   0  0  0  0  0  0  0  0  0  0  0  0
   39.2998    8.0289   30.5571 H   0  0  0  0  0  0  0  0  0  0  0  0
   36.8526    8.3341   30.7932 H   0  0  0  0  0  0  0  0  0  0  0  0
   34.7165   15.1877   27.3489 H   0  0  0  0  0  0  0  0  0  0  0  0
   34.0414   12.1916   27.3469 H   0  0  0  0  0  0  0  0  0  0  0  0
   33.9930   14.3870   25.1727 H   0  0  0  0  0  0  0  0  0  0  0  0
   34.2028   12.6396   24.9233 H   0  0  0  0  0  0  0  0  0  0  0  0
   30.2190    8.7875   31.3019 H   0  0  0  0  0  0  0  0  0  0  0  0
   30.1496    5.1797   32.0787 H   0  0  0  0  0  0  0  0  0  0  0  0
   31.5336    6.2557   31.6259 H   0  0  0  0  0  0  0  0  0  0  0  0
   31.0099    5.9554   29.1969 H   0  0  0  0  0  0  0  0  0  0  0  0
   28.5562    7.7434   32.8481 H   0  0  0  0  0  0  0  0  0  0  0  0
   23.4146    6.8084   31.1539 H   0  0  0  0  0  0  0  0  0  0  0  0
   24.9963    6.8746   30.4046 H   0  0  0  0  0  0  0  0  0  0  0  0
   24.6052    5.5930   31.5722 H   0  0  0  0  0  0  0  0  0  0  0  0
   22.9214    8.1398   33.1335 H   0  0  0  0  0  0  0  0  0  0  0  0
   24.2053    8.3436   34.3965 H   0  0  0  0  0  0  0  0  0  0  0  0
   24.2903    9.4617   31.5144 H   0  0  0  0  0  0  0  0  0  0  0  0
   25.5831    9.6731   32.7719 H   0  0  0  0  0  0  0  0  0  0  0  0
   28.6993    4.7427   28.7123 H   0  0  0  0  0  0  0  0  0  0  0  0
  1  2  1  0
  2  3  1  0
  4  3  1  0
  4  5  1  0
  5  1  1  0
  4  6  1  0
  6  7  1  0
  7  8  1  0
  7  9  2  0
  8 10  1  0
 10 11  1  0
 10 12  1  0
 12 13  1  0
 12 14  1  0
 12 15  1  0
 11 16  2  0
 11 17  1  0
 19 17  1  0
 17 20  1  0
 18 19  1  0
 20 21  1  0
 18 21  1  0
 18 22  1  0
 22 23  1  0
 23 24  2  0
 28 23  1  0
 24 25  1  0
 26 27  1  0
 27 28  2  0
 26 29  1  0
 25 26  2  0
 32 25  1  0
 29 30  2  0
 30 31  1  0
 31 32  2  0
 28 33  1  0
 33 34  1  0
 34 35  2  0
 35 36  1  0
 36 37  1  0
  5 37  1  0
 33 38  1  0
 33 39  1  0
 20 40  1  0
 40 41  1  0
 40 42  2  0
 43 41  1  1
 43 44  1  0
 45 43  1  0
 44 45  1  0
 43 46  1  0
 46 47  1  0
 46 48  2  0
 47 49  1  0
 49 50  1  0
 49 51  2  0
 49 52  2  0
 50 53  1  0
 50 54  1  0
 55 50  1  0
 54 55  1  0
 45 56  1  0
 56 57  1  0
 56 58  1  0
  1 59  1  0
  1 60  1  0
  2 61  1  0
  2 62  1  0
  3 63  1  0
  3 64  1  0
  4 65  1  1
  5 66  1  6
  8 67  1  0
 10 68  1  1
 13 69  1  0
 13 70  1  0
 13 71  1  0
 14 72  1  0
 14 73  1  0
 14 74  1  0
 15 75  1  0
 15 76  1  0
 15 77  1  0
 18 78  1  6
 19 79  1  0
 19 80  1  0
 20 81  1  6
 21 82  1  0
 21 83  1  0
 29 84  1  0
 30 85  1  0
 31 86  1  0
 32 87  1  0
 34 88  1  0
 35 89  1  0
 36 90  1  0
 36 91  1  0
 41 92  1  0
 44 93  1  0
 44 94  1  0
 45 95  1  6
 47 96  1  0
 53 97  1  0
 53 98  1  0
 53 99  1  0
 54100  1  0
 54101  1  0
 55102  1  0
 55103  1  0
 56104  1  0
M  END
> <Uni-Dock RESULT> 
ENERGY=   -3.682  LOWER_BOUND=    3.451  UPPER_BOUND=    6.289
INTER + INTRA:          -3.682
INTER:                  -3.682
INTRA:                   0.000
UNBOUND:                 0.000

$$$$

     RDKit          3D

104110  0  0  0  0  0  0  0  0999 V2000
   32.7643   18.8869   23.9314 C   0  0  0  0  0  0  0  0  0  0  0  0
   32.7503   19.5241   22.5382 C   0  0  0  0  0  0  0  0  0  0  0  0
   31.7037   18.7619   21.7323 C   0  0  0  0  0  0  0  0  0  0  0  0
   30.8147   18.1188   22.7897 C   0  0  2  0  0  0  0  0  0  0  0  0
   31.8379   17.6713   23.8408 C   0  0  2  0  0  0  0  0  0  0  0  0
   30.0966   17.0115   22.2310 O   0  0  0  0  0  0  0  0  0  0  0  0
   28.8878   16.7661   22.7921 C   0  0  0  0  0  0  0  0  0  0  0  0
   28.3023   15.7165   22.1477 N   0  0  0  0  0  0  0  0  0  0  0  0
   28.3811   17.3980   23.7057 O   0  0  0  0  0  0  0  0  0  0  0  0
   26.9418   15.2886   22.4539 C   0  0  2  0  0  0  0  0  0  0  0  0
   26.7995   14.0357   23.3867 C   0  0  0  0  0  0  0  0  0  0  0  0
   26.0411   15.2760   21.1649 C   0  0  0  0  0  0  0  0  0  0  0  0
   26.1770   16.6277   20.4213 C   0  0  0  0  0  0  0  0  0  0  0  0
   24.5410   15.1168   21.5106 C   0  0  0  0  0  0  0  0  0  0  0  0
   26.4397   14.1472   20.2072 C   0  0  0  0  0  0  0  0  0  0  0  0
   25.6947   13.7978   23.8939 O   0  0  0  0  0  0  0  0  0  0  0  0
   27.8277   13.1487   23.6439 N   0  0  0  0  0  0  0  0  0  0  0  0
   29.1150   11.8796   25.2082 C   0  0  1  0  0  0  0  0  0  0  0  0
   27.6927   12.2474   24.7819 C   0  0  0  0  0  0  0  0  0  0  0  0
   29.1870   13.1085   23.1053 C   0  0  1  0  0  0  0  0  0  0  0  0
   29.9315   12.0381   23.9292 C   0  0  0  0  0  0  0  0  0  0  0  0
   29.5648   12.7955   26.2112 O   0  0  0  0  0  0  0  0  0  0  0  0
   30.5723   12.3075   27.0159 C   0  0  0  0  0  0  0  0  0  0  0  0
   31.1964   11.1658   26.6418 N   0  0  0  0  0  0  0  0  0  0  0  0
   32.2052   10.7342   27.4193 C   0  0  0  0  0  0  0  0  0  0  0  0
   32.6096   11.4511   28.5676 C   0  0  0  0  0  0  0  0  0  0  0  0
   32.0027   12.5968   28.9192 N   0  0  0  0  0  0  0  0  0  0  0  0
   30.9672   13.0312   28.1344 C   0  0  0  0  0  0  0  0  0  0  0  0
   33.6539   10.9567   29.3371 C   0  0  0  0  0  0  0  0  0  0  0  0
   34.3097    9.7723   28.9939 C   0  0  0  0  0  0  0  0  0  0  0  0
   33.9157    9.0711   27.8631 C   0  0  0  0  0  0  0  0  0  0  0  0
   32.8663    9.5599   27.0846 C   0  0  0  0  0  0  0  0  0  0  0  0
   30.2862   14.3382   28.5030 C   0  0  0  0  0  0  0  0  0  0  0  0
   30.9014   15.5620   27.8557 C   0  0  0  0  0  0  0  0  0  0  0  0
   31.4843   15.6676   26.6483 C   0  0  0  0  0  0  0  0  0  0  0  0
   32.0565   16.9335   26.1004 C   0  0  0  0  0  0  0  0  0  0  0  0
   31.1862   17.3634   25.0657 O   0  0  0  0  0  0  0  0  0  0  0  0
   30.3354   14.5421   29.8618 F   0  0  0  0  0  0  0  0  0  0  0  0
   28.9435   14.3274   28.2370 F   0  0  0  0  0  0  0  0  0  0  0  0
   29.1672   12.6507   21.6341 C   0  0  0  0  0  0  0  0  0  0  0  0
   28.4170   11.5080   21.4145 N   0  0  0  0  0  0  0  0  0  0  0  0
   29.8392   13.1948   20.7660 O   0  0  0  0  0  0  0  0  0  0  0  0
   28.4940   10.7050   20.2043 C   0  0  2  0  0  0  0  0  0  0  0  0
   29.0256    9.2840   20.4054 C   0  0  0  0  0  0  0  0  0  0  0  0
   29.8641   10.2866   19.6673 C   0  0  1  0  0  0  0  0  0  0  0  0
   27.3320   10.8477   19.2388 C   0  0  0  0  0  0  0  0  0  0  0  0
   26.0982   10.4857   19.7809 N   0  0  0  0  0  0  0  0  0  0  0  0
   27.4998   11.2419   18.0962 O   0  0  0  0  0  0  0  0  0  0  0  0
   24.7605   10.0478   18.9023 S   0  0  0  0  0  0  0  0  0  0  0  0
   24.0875   11.4848   18.0234 C   0  0  0  0  0  0  0  0  0  0  0  0
   23.8044    9.6851   19.9337 O   0  0  0  0  0  0  0  0  0  0  0  0
   25.1705    9.0653   17.9257 O   0  0  0  0  0  0  0  0  0  0  0  0
   24.8324   11.8713   16.7986 C   0  0  0  0  0  0  0  0  0  0  0  0
   22.5879   11.6280   18.0823 C   0  0  0  0  0  0  0  0  0  0  0  0
   23.4602   12.5232   18.9198 C   0  0  0  0  0  0  0  0  0  0  0  0
   30.1453   10.1339   18.2102 C   0  0  0  0  0  0  0  0  0  0  0  0
   31.4282    9.7014   18.0767 F   0  0  0  0  0  0  0  0  0  0  0  0
   29.3572    9.1598   17.6859 F   0  0  0  0  0  0  0  0  0  0  0  0
   33.7755   18.5934   24.2322 H   0  0  0  0  0  0  0  0  0  0  0  0
   32.4017   19.6052   24.6779 H   0  0  0  0  0  0  0  0  0  0  0  0
   32.4777   20.5819   22.6153 H   0  0  0  0  0  0  0  0  0  0  0  0
   33.7346   19.4713   22.0645 H   0  0  0  0  0  0  0  0  0  0  0  0
   31.1388   19.4156   21.0637 H   0  0  0  0  0  0  0  0  0  0  0  0
   32.1782   17.9962   21.1075 H   0  0  0  0  0  0  0  0  0  0  0  0
   30.1272   18.8710   23.1986 H   0  0  0  0  0  0  0  0  0  0  0  0
   32.3730   16.7790   23.4851 H   0  0  0  0  0  0  0  0  0  0  0  0
   28.8174   15.3401   21.3627 H   0  0  0  0  0  0  0  0  0  0  0  0
   26.5205   16.0833   23.0877 H   0  0  0  0  0  0  0  0  0  0  0  0
   25.4952   16.6801   19.5632 H   0  0  0  0  0  0  0  0  0  0  0  0
   27.1907   16.7905   20.0356 H   0  0  0  0  0  0  0  0  0  0  0  0
   25.9280   17.4655   21.0843 H   0  0  0  0  0  0  0  0  0  0  0  0
   23.9149   15.2416   20.6195 H   0  0  0  0  0  0  0  0  0  0  0  0
   24.3211   14.1234   21.9073 H   0  0  0  0  0  0  0  0  0  0  0  0
   24.2240   15.8621   22.2488 H   0  0  0  0  0  0  0  0  0  0  0  0
   26.2828   13.1749   20.6823 H   0  0  0  0  0  0  0  0  0  0  0  0
   27.4865   14.2263   19.9025 H   0  0  0  0  0  0  0  0  0  0  0  0
   25.8382   14.1745   19.2920 H   0  0  0  0  0  0  0  0  0  0  0  0
   29.1033   10.8509   25.5865 H   0  0  0  0  0  0  0  0  0  0  0  0
   27.1221   12.7111   25.5934 H   0  0  0  0  0  0  0  0  0  0  0  0
   27.1533   11.3661   24.4205 H   0  0  0  0  0  0  0  0  0  0  0  0
   29.6769   14.0757   23.2179 H   0  0  0  0  0  0  0  0  0  0  0  0
   30.9639   12.3575   24.1106 H   0  0  0  0  0  0  0  0  0  0  0  0
   29.9797   11.0721   23.4086 H   0  0  0  0  0  0  0  0  0  0  0  0
   33.9637   11.5051   30.2226 H   0  0  0  0  0  0  0  0  0  0  0  0
   35.1291    9.4072   29.6069 H   0  0  0  0  0  0  0  0  0  0  0  0
   34.4183    8.1475   27.5825 H   0  0  0  0  0  0  0  0  0  0  0  0
   32.5615    9.0196   26.1935 H   0  0  0  0  0  0  0  0  0  0  0  0
   30.8328   16.4468   28.4840 H   0  0  0  0  0  0  0  0  0  0  0  0
   31.5409   14.8139   25.9811 H   0  0  0  0  0  0  0  0  0  0  0  0
   32.1052   17.7235   26.8558 H   0  0  0  0  0  0  0  0  0  0  0  0
   33.0727   16.7362   25.7383 H   0  0  0  0  0  0  0  0  0  0  0  0
   27.7575   11.2425   22.1378 H   0  0  0  0  0  0  0  0  0  0  0  0
   28.5779    8.4726   19.8402 H   0  0  0  0  0  0  0  0  0  0  0  0
   29.3618    8.9816   21.3908 H   0  0  0  0  0  0  0  0  0  0  0  0
   30.7393   10.6784   20.1710 H   0  0  0  0  0  0  0  0  0  0  0  0
   26.0598   10.0833   20.7165 H   0  0  0  0  0  0  0  0  0  0  0  0
   24.2049   12.4683   16.1282 H   0  0  0  0  0  0  0  0  0  0  0  0
   25.6979   12.4871   17.0436 H   0  0  0  0  0  0  0  0  0  0  0  0
   25.1640   11.0050   16.2208 H   0  0  0  0  0  0  0  0  0  0  0  0
   22.0716   12.0815   17.2393 H   0  0  0  0  0  0  0  0  0  0  0  0
   21.9923   10.8787   18.5927 H   0  0  0  0  0  0  0  0  0  0  0  0
   23.5210   13.5667   18.6307 H   0  0  0  0  0  0  0  0  0  0  0  0
   23.4481   12.3693   19.9940 H   0  0  0  0  0  0  0  0  0  0  0  0
   30.0258   11.0620   17.6435 H   0  0  0  0  0  0  0  0  0  0  0  0
  1  2  1  0
  2  3  1  0
  4  3  1  0
  4  5  1  0
  5  1  1  0
  4  6  1  0
  6  7  1  0
  7  8  1  0
  7  9  2  0
  8 10  1  0
 10 11  1  0
 10 12  1  0
 12 13  1  0
 12 14  1  0
 12 15  1  0
 11 16  2  0
 11 17  1  0
 19 17  1  0
 17 20  1  0
 18 19  1  0
 20 21  1  0
 18 21  1  0
 18 22  1  0
 22 23  1  0
 23 24  2  0
 28 23  1  0
 24 25  1  0
 26 27  1  0
 27 28  2  0
 26 29  1  0
 25 26  2  0
 32 25  1  0
 29 30  2  0
 30 31  1  0
 31 32  2  0
 28 33  1  0
 33 34  1  0
 34 35  2  0
 35 36  1  0
 36 37  1  0
  5 37  1  0
 33 38  1  0
 33 39  1  0
 20 40  1  0
 40 41  1  0
 40 42  2  0
 43 41  1  1
 43 44  1  0
 45 43  1  0
 44 45  1  0
 43 46  1  0
 46 47  1  0
 46 48  2  0
 47 49  1  0
 49 50  1  0
 49 51  2  0
 49 52  2  0
 50 53  1  0
 50 54  1  0
 55 50  1  0
 54 55  1  0
 45 56  1  0
 56 57  1  0
 56 58  1  0
  1 59  1  0
  1 60  1  0
  2 61  1  0
  2 62  1  0
  3 63  1  0
  3 64  1  0
  4 65  1  1
  5 66  1  6
  8 67  1  0
 10 68  1  1
 13 69  1  0
 13 70  1  0
 13 71  1  0
 14 72  1  0
 14 73  1  0
 14 74  1  0
 15 75  1  0
 15 76  1  0
 15 77  1  0
 18 78  1  6
 19 79  1  0
 19 80  1  0
 20 81  1  6
 21 82  1  0
 21 83  1  0
 29 84  1  0
 30 85  1  0
 31 86  1  0
 32 87  1  0
 34 88  1  0
 35 89  1  0
 36 90  1  0
 36 91  1  0
 41 92  1  0
 44 93  1  0
 44 94  1  0
 45 95  1  6
 47 96  1  0
 53 97  1  0
 53 98  1  0
 53 99  1  0
 54100  1  0
 54101  1  0
 55102  1  0
 55103  1  0
 56104  1  0
M  END
> <Uni-Dock RESULT> 
ENERGY=   -3.561  LOWER_BOUND=    5.784  UPPER_BOUND=    9.845
INTER + INTRA:          -3.561
INTER:                  -3.561
INTRA:                   0.000
UNBOUND:                 0.000

$$$$

     RDKit          3D

104110  0  0  0  0  0  0  0  0999 V2000
   26.9035   -0.1159   32.5584 C   0  0  0  0  0  0  0  0  0  0  0  0
   28.2380    0.3485   33.1505 C   0  0  0  0  0  0  0  0  0  0  0  0
   28.0601    1.8233   33.4956 C   0  0  0  0  0  0  0  0  0  0  0  0
   26.5502    2.0025   33.5985 C   0  0  2  0  0  0  0  0  0  0  0  0
   26.0447    1.1452   32.4317 C   0  0  2  0  0  0  0  0  0  0  0  0
   26.2004    3.3836   33.4438 O   0  0  0  0  0  0  0  0  0  0  0  0
   25.0821    3.7725   34.1031 C   0  0  0  0  0  0  0  0  0  0  0  0
   24.8860    5.1065   33.8994 N   0  0  0  0  0  0  0  0  0  0  0  0
   24.3758    3.0585   34.7974 O   0  0  0  0  0  0  0  0  0  0  0  0
   23.8212    5.8390   34.5757 C   0  0  2  0  0  0  0  0  0  0  0  0
   22.5262    6.1180   33.7359 C   0  0  0  0  0  0  0  0  0  0  0  0
   24.3887    7.0717   35.3703 C   0  0  0  0  0  0  0  0  0  0  0  0
   25.5722    6.6177   36.2601 C   0  0  0  0  0  0  0  0  0  0  0  0
   23.3327    7.6788   36.3248 C   0  0  0  0  0  0  0  0  0  0  0  0
   24.8800    8.1755   34.4267 C   0  0  0  0  0  0  0  0  0  0  0  0
   21.5032    6.4854   34.3299 O   0  0  0  0  0  0  0  0  0  0  0  0
   22.4682    6.0215   32.3584 N   0  0  0  0  0  0  0  0  0  0  0  0
   21.3625    5.2361   30.3898 C   0  0  1  0  0  0  0  0  0  0  0  0
   21.1563    5.9508   31.7264 C   0  0  0  0  0  0  0  0  0  0  0  0
   23.5279    5.7253   31.3946 C   0  0  1  0  0  0  0  0  0  0  0  0
   22.8178    5.5314   30.0393 C   0  0  0  0  0  0  0  0  0  0  0  0
   21.1602    3.8304   30.5636 O   0  0  0  0  0  0  0  0  0  0  0  0
   20.8232    3.1575   29.4084 C   0  0  0  0  0  0  0  0  0  0  0  0
   20.9623    3.8024   28.2261 N   0  0  0  0  0  0  0  0  0  0  0  0
   20.6697    3.1104   27.1108 C   0  0  0  0  0  0  0  0  0  0  0  0
   20.2529    1.7617   27.1683 C   0  0  0  0  0  0  0  0  0  0  0  0
   20.1413    1.1198   28.3431 N   0  0  0  0  0  0  0  0  0  0  0  0
   20.4278    1.8275   29.4806 C   0  0  0  0  0  0  0  0  0  0  0  0
   19.9587    1.0968   25.9857 C   0  0  0  0  0  0  0  0  0  0  0  0
   20.0719    1.7342   24.7481 C   0  0  0  0  0  0  0  0  0  0  0  0
   20.4863    3.0573   24.6917 C   0  0  0  0  0  0  0  0  0  0  0  0
   20.7829    3.7337   25.8753 C   0  0  0  0  0  0  0  0  0  0  0  0
   20.3314    1.1097   30.8161 C   0  0  0  0  0  0  0  0  0  0  0  0
   21.6197    0.4465   31.2580 C   0  0  0  0  0  0  0  0  0  0  0  0
   22.8854    0.8429   31.0353 C   0  0  0  0  0  0  0  0  0  0  0  0
   24.0923    0.1128   31.5261 C   0  0  0  0  0  0  0  0  0  0  0  0
   24.6517    0.8977   32.5672 O   0  0  0  0  0  0  0  0  0  0  0  0
   19.3750    0.1232   30.7663 F   0  0  0  0  0  0  0  0  0  0  0  0
   19.8877    1.9246   31.8226 F   0  0  0  0  0  0  0  0  0  0  0  0
   24.4852    6.9257   31.2649 C   0  0  0  0  0  0  0  0  0  0  0  0
   23.8409    8.1360   31.0723 N   0  0  0  0  0  0  0  0  0  0  0  0
   25.7032    6.7963   31.2335 O   0  0  0  0  0  0  0  0  0  0  0  0
   24.5039    9.3456   30.6111 C   0  0  2  0  0  0  0  0  0  0  0  0
   24.0381    9.8561   29.2456 C   0  0  0  0  0  0  0  0  0  0  0  0
   25.4171    9.2799   29.3855 C   0  0  1  0  0  0  0  0  0  0  0  0
   24.7546   10.4076   31.6657 C   0  0  0  0  0  0  0  0  0  0  0  0
   23.5928   10.8931   32.2672 N   0  0  0  0  0  0  0  0  0  0  0  0
   25.8844   10.7828   31.9337 O   0  0  0  0  0  0  0  0  0  0  0  0
   23.4603   12.3494   33.0513 S   0  0  0  0  0  0  0  0  0  0  0  0
   24.3934   12.3134   34.6063 C   0  0  0  0  0  0  0  0  0  0  0  0
   22.0500   12.4012   33.3945 O   0  0  0  0  0  0  0  0  0  0  0  0
   24.0299   13.3678   32.1996 O   0  0  0  0  0  0  0  0  0  0  0  0
   25.8624   12.4669   34.4553 C   0  0  0  0  0  0  0  0  0  0  0  0
   23.6818   12.9073   35.7952 C   0  0  0  0  0  0  0  0  0  0  0  0
   23.8039   11.4135   35.6636 C   0  0  0  0  0  0  0  0  0  0  0  0
   26.6297   10.1364   29.2382 C   0  0  0  0  0  0  0  0  0  0  0  0
   27.1803    9.8733   28.0224 F   0  0  0  0  0  0  0  0  0  0  0  0
   26.2722   11.4465   29.2204 F   0  0  0  0  0  0  0  0  0  0  0  0
   27.0392   -0.6025   31.5868 H   0  0  0  0  0  0  0  0  0  0  0  0
   26.4314   -0.8503   33.2234 H   0  0  0  0  0  0  0  0  0  0  0  0
   28.4669   -0.2301   34.0517 H   0  0  0  0  0  0  0  0  0  0  0  0
   29.0612    0.2003   32.4460 H   0  0  0  0  0  0  0  0  0  0  0  0
   28.5697    2.0964   34.4224 H   0  0  0  0  0  0  0  0  0  0  0  0
   28.4722    2.4589   32.7031 H   0  0  0  0  0  0  0  0  0  0  0  0
   26.1987    1.6103   34.5621 H   0  0  0  0  0  0  0  0  0  0  0  0
   26.2256    1.6654   31.4801 H   0  0  0  0  0  0  0  0  0  0  0  0
   25.5976    5.5774   33.3561 H   0  0  0  0  0  0  0  0  0  0  0  0
   23.4391    5.1543   35.3476 H   0  0  0  0  0  0  0  0  0  0  0  0
   25.9345    7.4397   36.8901 H   0  0  0  0  0  0  0  0  0  0  0  0
   26.4266    6.2664   35.6690 H   0  0  0  0  0  0  0  0  0  0  0  0
   25.2675    5.8053   36.9314 H   0  0  0  0  0  0  0  0  0  0  0  0
   23.7764    8.4491   36.9663 H   0  0  0  0  0  0  0  0  0  0  0  0
   22.5220    8.1622   35.7755 H   0  0  0  0  0  0  0  0  0  0  0  0
   22.8997    6.9108   36.9756 H   0  0  0  0  0  0  0  0  0  0  0  0
   24.0468    8.5673   33.8366 H   0  0  0  0  0  0  0  0  0  0  0  0
   25.6538    7.8109   33.7461 H   0  0  0  0  0  0  0  0  0  0  0  0
   25.3156    9.0099   34.9873 H   0  0  0  0  0  0  0  0  0  0  0  0
   20.6526    5.6530   29.6662 H   0  0  0  0  0  0  0  0  0  0  0  0
   20.4320    5.4355   32.3660 H   0  0  0  0  0  0  0  0  0  0  0  0
   20.8283    6.9833   31.5705 H   0  0  0  0  0  0  0  0  0  0  0  0
   24.0605    4.8156   31.6721 H   0  0  0  0  0  0  0  0  0  0  0  0
   23.3006    4.7244   29.4766 H   0  0  0  0  0  0  0  0  0  0  0  0
   22.8635    6.4328   29.4133 H   0  0  0  0  0  0  0  0  0  0  0  0
   19.6345    0.0605   26.0286 H   0  0  0  0  0  0  0  0  0  0  0  0
   19.8429    1.1926   23.8346 H   0  0  0  0  0  0  0  0  0  0  0  0
   20.5805    3.5666   23.7345 H   0  0  0  0  0  0  0  0  0  0  0  0
   21.1170    4.7660   25.8348 H   0  0  0  0  0  0  0  0  0  0  0  0
   21.4477   -0.4606   31.8325 H   0  0  0  0  0  0  0  0  0  0  0  0
   23.0944    1.7602   30.4948 H   0  0  0  0  0  0  0  0  0  0  0  0
   23.8398   -0.8693   31.9369 H   0  0  0  0  0  0  0  0  0  0  0  0
   24.7862   -0.0288   30.6888 H   0  0  0  0  0  0  0  0  0  0  0  0
   22.8528    8.1741   31.2975 H   0  0  0  0  0  0  0  0  0  0  0  0
   23.9412   10.9263   29.0918 H   0  0  0  0  0  0  0  0  0  0  0  0
   23.3105    9.2781   28.6870 H   0  0  0  0  0  0  0  0  0  0  0  0
   25.6013    8.3050   28.9510 H   0  0  0  0  0  0  0  0  0  0  0  0
   22.6838   10.5881   31.9216 H   0  0  0  0  0  0  0  0  0  0  0  0
   26.3209   12.8066   35.3902 H   0  0  0  0  0  0  0  0  0  0  0  0
   26.3330   11.5155   34.2069 H   0  0  0  0  0  0  0  0  0  0  0  0
   26.1291   13.2051   33.6948 H   0  0  0  0  0  0  0  0  0  0  0  0
   24.2716   13.3896   36.5714 H   0  0  0  0  0  0  0  0  0  0  0  0
   22.6983   13.3484   35.6725 H   0  0  0  0  0  0  0  0  0  0  0  0
   24.4737   10.9090   36.3514 H   0  0  0  0  0  0  0  0  0  0  0  0
   22.8981   10.8552   35.4503 H   0  0  0  0  0  0  0  0  0  0  0  0
   27.3836    9.9612   30.0114 H   0  0  0  0  0  0  0  0  0  0  0  0
  1  2  1  0
  2  3  1  0
  4  3  1  0
  4  5  1  0
  5  1  1  0
  4  6  1  0
  6  7  1  0
  7  8  1  0
  7  9  2  0
  8 10  1  0
 10 11  1  0
 10 12  1  0
 12 13  1  0
 12 14  1  0
 12 15  1  0
 11 16  2  0
 11 17  1  0
 19 17  1  0
 17 20  1  0
 18 19  1  0
 20 21  1  0
 18 21  1  0
 18 22  1  0
 22 23  1  0
 23 24  2  0
 28 23  1  0
 24 25  1  0
 26 27  1  0
 27 28  2  0
 26 29  1  0
 25 26  2  0
 32 25  1  0
 29 30  2  0
 30 31  1  0
 31 32  2  0
 28 33  1  0
 33 34  1  0
 34 35  2  0
 35 36  1  0
 36 37  1  0
  5 37  1  0
 33 38  1  0
 33 39  1  0
 20 40  1  0
 40 41  1  0
 40 42  2  0
 43 41  1  1
 43 44  1  0
 45 43  1  0
 44 45  1  0
 43 46  1  0
 46 47  1  0
 46 48  2  0
 47 49  1  0
 49 50  1  0
 49 51  2  0
 49 52  2  0
 50 53  1  0
 50 54  1  0
 55 50  1  0
 54 55  1  0
 45 56  1  0
 56 57  1  0
 56 58  1  0
  1 59  1  0
  1 60  1  0
  2 61  1  0
  2 62  1  0
  3 63  1  0
  3 64  1  0
  4 65  1  1
  5 66  1  6
  8 67  1  0
 10 68  1  1
 13 69  1  0
 13 70  1  0
 13 71  1  0
 14 72  1  0
 14 73  1  0
 14 74  1  0
 15 75  1  0
 15 76  1  0
 15 77  1  0
 18 78  1  6
 19 79  1  0
 19 80  1  0
 20 81  1  6
 21 82  1  0
 21 83  1  0
 29 84  1  0
 30 85  1  0
 31 86  1  0
 32 87  1  0
 34 88  1  0
 35 89  1  0
 36 90  1  0
 36 91  1  0
 41 92  1  0
 44 93  1  0
 44 94  1  0
 45 95  1  6
 47 96  1  0
 53 97  1  0
 53 98  1  0
 53 99  1  0
 54100  1  0
 54101  1  0
 55102  1  0
 55103  1  0
 56104  1  0
M  END
> <Uni-Dock RESULT> 
ENERGY=   -3.550  LOWER_BOUND=    6.178  UPPER_BOUND=   11.801
INTER + INTRA:          -3.550
INTER:                  -3.550
INTRA:                   0.000
UNBOUND:                 0.000

$$$$

     RDKit          3D

104110  0  0  0  0  0  0  0  0999 V2000
   31.0909   13.8116   27.6472 C   0  0  0  0  0  0  0  0  0  0  0  0
   29.8080   13.7496   26.8120 C   0  0  0  0  0  0  0  0  0  0  0  0
   28.9970   12.5820   27.3639 C   0  0  0  0  0  0  0  0  0  0  0  0
   29.5509   12.3742   28.7683 C   0  0  2  0  0  0  0  0  0  0  0  0
   31.0557   12.5782   28.5535 C   0  0  2  0  0  0  0  0  0  0  0  0
   29.2471   11.0533   29.2337 O   0  0  0  0  0  0  0  0  0  0  0  0
   29.0975   10.9348   30.5753 C   0  0  0  0  0  0  0  0  0  0  0  0
   28.7793    9.6433   30.8759 N   0  0  0  0  0  0  0  0  0  0  0  0
   29.1967   11.8395   31.3893 O   0  0  0  0  0  0  0  0  0  0  0  0
   28.4452    9.2301   32.2344 C   0  0  2  0  0  0  0  0  0  0  0  0
   29.5846    8.5210   33.0463 C   0  0  0  0  0  0  0  0  0  0  0  0
   27.0393    8.5278   32.2904 C   0  0  0  0  0  0  0  0  0  0  0  0
   25.9882    9.4082   31.5701 C   0  0  0  0  0  0  0  0  0  0  0  0
   26.5393    8.3524   33.7444 C   0  0  0  0  0  0  0  0  0  0  0  0
   27.0679    7.1500   31.6187 C   0  0  0  0  0  0  0  0  0  0  0  0
   29.4498    8.3983   34.2715 O   0  0  0  0  0  0  0  0  0  0  0  0
   30.7179    7.9809   32.4683 N   0  0  0  0  0  0  0  0  0  0  0  0
   33.0940    7.7209   32.4369 C   0  0  1  0  0  0  0  0  0  0  0  0
   31.8534    7.6759   33.3305 C   0  0  0  0  0  0  0  0  0  0  0  0
   31.0909    7.8756   31.0579 C   0  0  1  0  0  0  0  0  0  0  0  0
   32.5552    7.3912   31.0481 C   0  0  0  0  0  0  0  0  0  0  0  0
   33.6532    9.0376   32.4620 O   0  0  0  0  0  0  0  0  0  0  0  0
   34.9912    9.0933   32.1342 C   0  0  0  0  0  0  0  0  0  0  0  0
   35.5654    7.9941   31.5912 N   0  0  0  0  0  0  0  0  0  0  0  0
   36.8598    8.0876   31.2390 C   0  0  0  0  0  0  0  0  0  0  0  0
   37.5855    9.2876   31.4105 C   0  0  0  0  0  0  0  0  0  0  0  0
   37.0029   10.3825   31.9265 N   0  0  0  0  0  0  0  0  0  0  0  0
   35.6875   10.2847   32.2966 C   0  0  0  0  0  0  0  0  0  0  0  0
   38.9212    9.3265   31.0342 C   0  0  0  0  0  0  0  0  0  0  0  0
   39.5534    8.2072   30.4881 C   0  0  0  0  0  0  0  0  0  0  0  0
   38.8389    7.0303   30.3149 C   0  0  0  0  0  0  0  0  0  0  0  0
   37.4965    6.9818   30.6915 C   0  0  0  0  0  0  0  0  0  0  0  0
   35.0059   11.5208   32.8583 C   0  0  0  0  0  0  0  0  0  0  0  0
   34.3409   12.3916   31.8121 C   0  0  0  0  0  0  0  0  0  0  0  0
   33.7493   12.0177   30.6637 C   0  0  0  0  0  0  0  0  0  0  0  0
   33.1133   12.9650   29.7001 C   0  0  0  0  0  0  0  0  0  0  0  0
   31.7112   12.7721   29.7996 O   0  0  0  0  0  0  0  0  0  0  0  0
   35.9140   12.3162   33.5165 F   0  0  0  0  0  0  0  0  0  0  0  0
   34.0894   11.2225   33.8304 F   0  0  0  0  0  0  0  0  0  0  0  0
   30.2301    6.8089   30.3541 C   0  0  0  0  0  0  0  0  0  0  0  0
   30.1667    5.6044   31.0339 N   0  0  0  0  0  0  0  0  0  0  0  0
   29.7368    6.9864   29.2467 O   0  0  0  0  0  0  0  0  0  0  0  0
   29.6966    4.3613   30.4431 C   0  0  2  0  0  0  0  0  0  0  0  0
   30.7540    3.2607   30.3290 C   0  0  0  0  0  0  0  0  0  0  0  0
   30.2428    3.9233   29.0829 C   0  0  1  0  0  0  0  0  0  0  0  0
   28.3113    3.9084   30.8658 C   0  0  0  0  0  0  0  0  0  0  0  0
   28.1858    3.6751   32.2359 N   0  0  0  0  0  0  0  0  0  0  0  0
   27.4131    3.7666   30.0520 O   0  0  0  0  0  0  0  0  0  0  0  0
   27.0219    2.7251   32.9402 S   0  0  0  0  0  0  0  0  0  0  0  0
   25.3962    3.5184   32.8050 C   0  0  0  0  0  0  0  0  0  0  0  0
   27.3975    2.7455   34.3430 O   0  0  0  0  0  0  0  0  0  0  0  0
   26.9790    1.4698   32.2265 O   0  0  0  0  0  0  0  0  0  0  0  0
   24.7570    3.4058   31.4697 C   0  0  0  0  0  0  0  0  0  0  0  0
   24.5588    3.4822   34.0580 C   0  0  0  0  0  0  0  0  0  0  0  0
   25.2390    4.7598   33.6471 C   0  0  0  0  0  0  0  0  0  0  0  0
   29.4219    3.1708   28.0901 C   0  0  0  0  0  0  0  0  0  0  0  0
   30.2151    2.8902   27.0211 F   0  0  0  0  0  0  0  0  0  0  0  0
   29.0460    1.9744   28.6116 F   0  0  0  0  0  0  0  0  0  0  0  0
   31.9854   13.8141   27.0155 H   0  0  0  0  0  0  0  0  0  0  0  0
   31.1113   14.7360   28.2385 H   0  0  0  0  0  0  0  0  0  0  0  0
   29.2500   14.6861   26.9169 H   0  0  0  0  0  0  0  0  0  0  0  0
   30.0287   13.6150   25.7495 H   0  0  0  0  0  0  0  0  0  0  0  0
   27.9246   12.7897   27.3726 H   0  0  0  0  0  0  0  0  0  0  0  0
   29.1453   11.6842   26.7525 H   0  0  0  0  0  0  0  0  0  0  0  0
   29.1382   13.1365   29.4424 H   0  0  0  0  0  0  0  0  0  0  0  0
   31.4849   11.6966   28.0559 H   0  0  0  0  0  0  0  0  0  0  0  0
   28.6643    9.0235   30.0847 H   0  0  0  0  0  0  0  0  0  0  0  0
   28.3195   10.1642   32.8021 H   0  0  0  0  0  0  0  0  0  0  0  0
   24.9808    8.9841   31.6663 H   0  0  0  0  0  0  0  0  0  0  0  0
   26.1931    9.5074   30.4974 H   0  0  0  0  0  0  0  0  0  0  0  0
   25.9583   10.4153   32.0041 H   0  0  0  0  0  0  0  0  0  0  0  0
   25.5068    7.9847   33.7655 H   0  0  0  0  0  0  0  0  0  0  0  0
   27.1394    7.6231   34.2928 H   0  0  0  0  0  0  0  0  0  0  0  0
   26.5667    9.3027   34.2894 H   0  0  0  0  0  0  0  0  0  0  0  0
   27.7491    6.4824   32.1537 H   0  0  0  0  0  0  0  0  0  0  0  0
   27.3855    7.2156   30.5749 H   0  0  0  0  0  0  0  0  0  0  0  0
   26.0745    6.6882   31.6215 H   0  0  0  0  0  0  0  0  0  0  0  0
   33.8098    6.9784   32.8080 H   0  0  0  0  0  0  0  0  0  0  0  0
   31.9188    8.3779   34.1684 H   0  0  0  0  0  0  0  0  0  0  0  0
   31.6885    6.6660   33.7190 H   0  0  0  0  0  0  0  0  0  0  0  0
   31.0132    8.8440   30.5635 H   0  0  0  0  0  0  0  0  0  0  0  0
   33.1068    7.8855   30.2404 H   0  0  0  0  0  0  0  0  0  0  0  0
   32.6339    6.3091   30.8768 H   0  0  0  0  0  0  0  0  0  0  0  0
   39.4817   10.2477   31.1689 H   0  0  0  0  0  0  0  0  0  0  0  0
   40.5979    8.2621   30.1943 H   0  0  0  0  0  0  0  0  0  0  0  0
   39.3178    6.1505   29.8894 H   0  0  0  0  0  0  0  0  0  0  0  0
   36.9312    6.0658   30.5484 H   0  0  0  0  0  0  0  0  0  0  0  0
   34.3637   13.4476   32.0707 H   0  0  0  0  0  0  0  0  0  0  0  0
   33.6784   10.9704   30.3895 H   0  0  0  0  0  0  0  0  0  0  0  0
   33.3325   14.0087   29.9442 H   0  0  0  0  0  0  0  0  0  0  0  0
   33.4946   12.7564   28.6932 H   0  0  0  0  0  0  0  0  0  0  0  0
   30.4409    5.6102   32.0103 H   0  0  0  0  0  0  0  0  0  0  0  0
   30.4628    2.2328   30.5213 H   0  0  0  0  0  0  0  0  0  0  0  0
   31.7740    3.4770   30.6263 H   0  0  0  0  0  0  0  0  0  0  0  0
   30.9072    4.6061   28.5676 H   0  0  0  0  0  0  0  0  0  0  0  0
   29.0101    3.7333   32.8324 H   0  0  0  0  0  0  0  0  0  0  0  0
   23.6741    3.5546   31.5379 H   0  0  0  0  0  0  0  0  0  0  0  0
   25.1329    4.1698   30.7890 H   0  0  0  0  0  0  0  0  0  0  0  0
   24.9053    2.4220   31.0173 H   0  0  0  0  0  0  0  0  0  0  0  0
   23.4761    3.4408   33.9633 H   0  0  0  0  0  0  0  0  0  0  0  0
   24.9283    2.9725   34.9414 H   0  0  0  0  0  0  0  0  0  0  0  0
   24.6072    5.5616   33.2809 H   0  0  0  0  0  0  0  0  0  0  0  0
   26.0675    5.1033   34.2581 H   0  0  0  0  0  0  0  0  0  0  0  0
   28.5443    3.7234   27.7419 H   0  0  0  0  0  0  0  0  0  0  0  0
  1  2  1  0
  2  3  1  0
  4  3  1  0
  4  5  1  0
  5  1  1  0
  4  6  1  0
  6  7  1  0
  7  8  1  0
  7  9  2  0
  8 10  1  0
 10 11  1  0
 10 12  1  0
 12 13  1  0
 12 14  1  0
 12 15  1  0
 11 16  2  0
 11 17  1  0
 19 17  1  0
 17 20  1  0
 18 19  1  0
 20 21  1  0
 18 21  1  0
 18 22  1  0
 22 23  1  0
 23 24  2  0
 28 23  1  0
 24 25  1  0
 26 27  1  0
 27 28  2  0
 26 29  1  0
 25 26  2  0
 32 25  1  0
 29 30  2  0
 30 31  1  0
 31 32  2  0
 28 33  1  0
 33 34  1  0
 34 35  2  0
 35 36  1  0
 36 37  1  0
  5 37  1  0
 33 38  1  0
 33 39  1  0
 20 40  1  0
 40 41  1  0
 40 42  2  0
 43 41  1  1
 43 44  1  0
 45 43  1  0
 44 45  1  0
 43 46  1  0
 46 47  1  0
 46 48  2  0
 47 49  1  0
 49 50  1  0
 49 51  2  0
 49 52  2  0
 50 53  1  0
 50 54  1  0
 55 50  1  0
 54 55  1  0
 45 56  1  0
 56 57  1  0
 56 58  1  0
  1 59  1  0
  1 60  1  0
  2 61  1  0
  2 62  1  0
  3 63  1  0
  3 64  1  0
  4 65  1  1
  5 66  1  6
  8 67  1  0
 10 68  1  1
 13 69  1  0
 13 70  1  0
 13 71  1  0
 14 72  1  0
 14 73  1  0
 14 74  1  0
 15 75  1  0
 15 76  1  0
 15 77  1  0
 18 78  1  6
 19 79  1  0
 19 80  1  0
 20 81  1  6
 21 82  1  0
 21 83  1  0
 29 84  1  0
 30 85  1  0
 31 86  1  0
 32 87  1  0
 34 88  1  0
 35 89  1  0
 36 90  1  0
 36 91  1  0
 41 92  1  0
 44 93  1  0
 44 94  1  0
 45 95  1  6
 47 96  1  0
 53 97  1  0
 53 98  1  0
 53 99  1  0
 54100  1  0
 54101  1  0
 55102  1  0
 55103  1  0
 56104  1  0
M  END
> <Uni-Dock RESULT> 
ENERGY=   -3.488  LOWER_BOUND=    4.534  UPPER_BOUND=    6.770
INTER + INTRA:          -3.488
INTER:                  -3.488
INTRA:                   0.000
UNBOUND:                 0.000

$$$$

     RDKit          3D

104110  0  0  0  0  0  0  0  0999 V2000
   30.3460    0.7802   31.1550 C   0  0  0  0  0  0  0  0  0  0  0  0
   31.5673    1.5913   30.7102 C   0  0  0  0  0  0  0  0  0  0  0  0
   31.2438    3.0498   31.0163 C   0  0  0  0  0  0  0  0  0  0  0  0
   30.1458    2.9748   32.0704 C   0  0  2  0  0  0  0  0  0  0  0  0
   29.2883    1.8108   31.5587 C   0  0  2  0  0  0  0  0  0  0  0  0
   29.4127    4.2054   32.1151 O   0  0  0  0  0  0  0  0  0  0  0  0
   28.8892    4.5211   33.3245 C   0  0  0  0  0  0  0  0  0  0  0  0
   28.2521    5.7233   33.2342 N   0  0  0  0  0  0  0  0  0  0  0  0
   28.9941    3.8587   34.3448 O   0  0  0  0  0  0  0  0  0  0  0  0
   27.6839    6.3822   34.4050 C   0  0  2  0  0  0  0  0  0  0  0  0
   26.1343    6.2388   34.6009 C   0  0  0  0  0  0  0  0  0  0  0  0
   28.2540    7.8377   34.5767 C   0  0  0  0  0  0  0  0  0  0  0  0
   29.8004    7.8039   34.4996 C   0  0  0  0  0  0  0  0  0  0  0  0
   27.8987    8.4374   35.9583 C   0  0  0  0  0  0  0  0  0  0  0  0
   27.7295    8.7826   33.4893 C   0  0  0  0  0  0  0  0  0  0  0  0
   25.6467    6.5368   35.6999 O   0  0  0  0  0  0  0  0  0  0  0  0
   25.2672    5.8398   33.6013 N   0  0  0  0  0  0  0  0  0  0  0  0
   23.4525    4.4658   32.8712 C   0  0  1  0  0  0  0  0  0  0  0  0
   23.9297    5.4023   33.9824 C   0  0  0  0  0  0  0  0  0  0  0  0
   25.5340    5.5374   32.1953 C   0  0  1  0  0  0  0  0  0  0  0  0
   24.2269    4.9335   31.6426 C   0  0  0  0  0  0  0  0  0  0  0  0
   23.7973    3.1172   33.2022 O   0  0  0  0  0  0  0  0  0  0  0  0
   23.0205    2.1628   32.5805 C   0  0  0  0  0  0  0  0  0  0  0  0
   22.2153    2.5529   31.5644 N   0  0  0  0  0  0  0  0  0  0  0  0
   21.5010    1.5967   30.9448 C   0  0  0  0  0  0  0  0  0  0  0  0
   21.6003    0.2397   31.3250 C   0  0  0  0  0  0  0  0  0  0  0  0
   22.4203   -0.1442   32.3174 N   0  0  0  0  0  0  0  0  0  0  0  0
   23.1395    0.8307   32.9570 C   0  0  0  0  0  0  0  0  0  0  0  0
   20.8359   -0.7053   30.6543 C   0  0  0  0  0  0  0  0  0  0  0  0
   19.9795   -0.3388   29.6136 C   0  0  0  0  0  0  0  0  0  0  0  0
   19.8862    0.9934   29.2370 C   0  0  0  0  0  0  0  0  0  0  0  0
   20.6498    1.9501   29.9063 C   0  0  0  0  0  0  0  0  0  0  0  0
   24.0908    0.4111   34.0647 C   0  0  0  0  0  0  0  0  0  0  0  0
   25.4954    0.0989   33.5906 C   0  0  0  0  0  0  0  0  0  0  0  0
   26.1812    0.6574   32.5775 C   0  0  0  0  0  0  0  0  0  0  0  0
   27.5743    0.2769   32.1967 C   0  0  0  0  0  0  0  0  0  0  0  0
   28.4138    1.3539   32.5817 O   0  0  0  0  0  0  0  0  0  0  0  0
   23.6267   -0.7174   34.6983 F   0  0  0  0  0  0  0  0  0  0  0  0
   24.1616    1.3307   35.0763 F   0  0  0  0  0  0  0  0  0  0  0  0
   25.8291    6.8329   31.4151 C   0  0  0  0  0  0  0  0  0  0  0  0
   24.9026    7.8388   31.6314 N   0  0  0  0  0  0  0  0  0  0  0  0
   26.7426    6.9191   30.6032 O   0  0  0  0  0  0  0  0  0  0  0  0
   24.7736    9.0195   30.7919 C   0  0  2  0  0  0  0  0  0  0  0  0
   23.4465    9.1333   30.0381 C   0  0  0  0  0  0  0  0  0  0  0  0
   24.7073    8.8560   29.2723 C   0  0  1  0  0  0  0  0  0  0  0  0
   25.3177   10.3105   31.3750 C   0  0  0  0  0  0  0  0  0  0  0  0
   24.6999   10.6987   32.5645 N   0  0  0  0  0  0  0  0  0  0  0  0
   26.2126   10.9298   30.8228 O   0  0  0  0  0  0  0  0  0  0  0  0
   24.6862   12.2420   33.1740 S   0  0  0  0  0  0  0  0  0  0  0  0
   26.3442   12.7077   33.7435 C   0  0  0  0  0  0  0  0  0  0  0  0
   23.8450   12.1140   34.3510 O   0  0  0  0  0  0  0  0  0  0  0  0
   24.2997   13.1385   32.1092 O   0  0  0  0  0  0  0  0  0  0  0  0
   27.2909   13.0847   32.6636 C   0  0  0  0  0  0  0  0  0  0  0  0
   26.3910   13.4066   35.0784 C   0  0  0  0  0  0  0  0  0  0  0  0
   26.8105   11.9657   34.9711 C   0  0  0  0  0  0  0  0  0  0  0  0
   25.2743    9.8629   28.3287 C   0  0  0  0  0  0  0  0  0  0  0  0
   25.0011    9.4473   27.0625 F   0  0  0  0  0  0  0  0  0  0  0  0
   24.6396   11.0535   28.4854 F   0  0  0  0  0  0  0  0  0  0  0  0
   29.9796    0.1284   30.3549 H   0  0  0  0  0  0  0  0  0  0  0  0
   30.6110    0.1336   32.0014 H   0  0  0  0  0  0  0  0  0  0  0  0
   32.4517    1.2701   31.2705 H   0  0  0  0  0  0  0  0  0  0  0  0
   31.7793    1.4444   29.6475 H   0  0  0  0  0  0  0  0  0  0  0  0
   32.1168    3.6020   31.3719 H   0  0  0  0  0  0  0  0  0  0  0  0
   30.8832    3.5634   30.1175 H   0  0  0  0  0  0  0  0  0  0  0  0
   30.5899    2.7425   33.0474 H   0  0  0  0  0  0  0  0  0  0  0  0
   28.6907    2.1382   30.6958 H   0  0  0  0  0  0  0  0  0  0  0  0
   28.3113    6.1856   32.3364 H   0  0  0  0  0  0  0  0  0  0  0  0
   28.0676    5.8223   35.2711 H   0  0  0  0  0  0  0  0  0  0  0  0
   30.2305    8.7931   34.7004 H   0  0  0  0  0  0  0  0  0  0  0  0
   30.1613    7.4919   33.5122 H   0  0  0  0  0  0  0  0  0  0  0  0
   30.2140    7.1136   35.2453 H   0  0  0  0  0  0  0  0  0  0  0  0
   28.4100    9.3940   36.1171 H   0  0  0  0  0  0  0  0  0  0  0  0
   26.8291    8.6391   36.0482 H   0  0  0  0  0  0  0  0  0  0  0  0
   28.1929    7.7625   36.7700 H   0  0  0  0  0  0  0  0  0  0  0  0
   26.6434    8.8835   33.5674 H   0  0  0  0  0  0  0  0  0  0  0  0
   27.9794    8.4242   32.4873 H   0  0  0  0  0  0  0  0  0  0  0  0
   28.1673    9.7819   33.5891 H   0  0  0  0  0  0  0  0  0  0  0  0
   22.3678    4.5841   32.7667 H   0  0  0  0  0  0  0  0  0  0  0  0
   23.9329    4.9158   34.9635 H   0  0  0  0  0  0  0  0  0  0  0  0
   23.3078    6.3019   34.0287 H   0  0  0  0  0  0  0  0  0  0  0  0
   26.3480    4.8184   32.1016 H   0  0  0  0  0  0  0  0  0  0  0  0
   24.4569    4.1238   30.9409 H   0  0  0  0  0  0  0  0  0  0  0  0
   23.6261    5.6727   31.0959 H   0  0  0  0  0  0  0  0  0  0  0  0
   20.9084   -1.7490   30.9481 H   0  0  0  0  0  0  0  0  0  0  0  0
   19.3954   -1.0960   29.0979 H   0  0  0  0  0  0  0  0  0  0  0  0
   19.2242    1.2937   28.4270 H   0  0  0  0  0  0  0  0  0  0  0  0
   20.5871    2.9922   29.6081 H   0  0  0  0  0  0  0  0  0  0  0  0
   25.9729   -0.6794   34.1810 H   0  0  0  0  0  0  0  0  0  0  0  0
   25.7491    1.4593   31.9882 H   0  0  0  0  0  0  0  0  0  0  0  0
   27.9121   -0.6230   32.7194 H   0  0  0  0  0  0  0  0  0  0  0  0
   27.6073    0.0847   31.1175 H   0  0  0  0  0  0  0  0  0  0  0  0
   24.3033    7.7476   32.4445 H   0  0  0  0  0  0  0  0  0  0  0  0
   22.9859   10.1107   29.9336 H   0  0  0  0  0  0  0  0  0  0  0  0
   22.7243    8.3286   30.1180 H   0  0  0  0  0  0  0  0  0  0  0  0
   24.8427    7.8593   28.8703 H   0  0  0  0  0  0  0  0  0  0  0  0
   23.9006   10.1696   32.9106 H   0  0  0  0  0  0  0  0  0  0  0  0
   28.1128   13.6934   33.0555 H   0  0  0  0  0  0  0  0  0  0  0  0
   27.7458   12.2016   32.2146 H   0  0  0  0  0  0  0  0  0  0  0  0
   26.8146   13.6777   31.8789 H   0  0  0  0  0  0  0  0  0  0  0  0
   27.1724   14.1416   35.2577 H   0  0  0  0  0  0  0  0  0  0  0  0
   25.4693   13.6284   35.6058 H   0  0  0  0  0  0  0  0  0  0  0  0
   27.8675   11.7484   35.0787 H   0  0  0  0  0  0  0  0  0  0  0  0
   26.1649   11.2223   35.4273 H   0  0  0  0  0  0  0  0  0  0  0  0
   26.3555    9.9953   28.4303 H   0  0  0  0  0  0  0  0  0  0  0  0
  1  2  1  0
  2  3  1  0
  4  3  1  0
  4  5  1  0
  5  1  1  0
  4  6  1  0
  6  7  1  0
  7  8  1  0
  7  9  2  0
  8 10  1  0
 10 11  1  0
 10 12  1  0
 12 13  1  0
 12 14  1  0
 12 15  1  0
 11 16  2  0
 11 17  1  0
 19 17  1  0
 17 20  1  0
 18 19  1  0
 20 21  1  0
 18 21  1  0
 18 22  1  0
 22 23  1  0
 23 24  2  0
 28 23  1  0
 24 25  1  0
 26 27  1  0
 27 28  2  0
 26 29  1  0
 25 26  2  0
 32 25  1  0
 29 30  2  0
 30 31  1  0
 31 32  2  0
 28 33  1  0
 33 34  1  0
 34 35  2  0
 35 36  1  0
 36 37  1  0
  5 37  1  0
 33 38  1  0
 33 39  1  0
 20 40  1  0
 40 41  1  0
 40 42  2  0
 43 41  1  1
 43 44  1  0
 45 43  1  0
 44 45  1  0
 43 46  1  0
 46 47  1  0
 46 48  2  0
 47 49  1  0
 49 50  1  0
 49 51  2  0
 49 52  2  0
 50 53  1  0
 50 54  1  0
 55 50  1  0
 54 55  1  0
 45 56  1  0
 56 57  1  0
 56 58  1  0
  1 59  1  0
  1 60  1  0
  2 61  1  0
  2 62  1  0
  3 63  1  0
  3 64  1  0
  4 65  1  1
  5 66  1  6
  8 67  1  0
 10 68  1  1
 13 69  1  0
 13 70  1  0
 13 71  1  0
 14 72  1  0
 14 73  1  0
 14 74  1  0
 15 75  1  0
 15 76  1  0
 15 77  1  0
 18 78  1  6
 19 79  1  0
 19 80  1  0
 20 81  1  6
 21 82  1  0
 21 83  1  0
 29 84  1  0
 30 85  1  0
 31 86  1  0
 32 87  1  0
 34 88  1  0
 35 89  1  0
 36 90  1  0
 36 91  1  0
 41 92  1  0
 44 93  1  0
 44 94  1  0
 45 95  1  6
 47 96  1  0
 53 97  1  0
 53 98  1  0
 53 99  1  0
 54100  1  0
 54101  1  0
 55102  1  0
 55103  1  0
 56104  1  0
M  END
> <Uni-Dock RESULT> 
ENERGY=   -3.455  LOWER_BOUND=    6.011  UPPER_BOUND=   11.370
INTER + INTRA:          -3.455
INTER:                  -3.455
INTRA:                   0.000
UNBOUND:                 0.000

$$$$

     RDKit          3D

104110  0  0  0  0  0  0  0  0999 V2000
   33.6040   14.5694   16.2288 C   0  0  0  0  0  0  0  0  0  0  0  0
   34.3000   15.9333   16.2782 C   0  0  0  0  0  0  0  0  0  0  0  0
   34.2022   16.4088   17.7239 C   0  0  0  0  0  0  0  0  0  0  0  0
   33.9589   15.1325   18.5203 C   0  0  2  0  0  0  0  0  0  0  0  0
   32.9846   14.3694   17.6145 C   0  0  2  0  0  0  0  0  0  0  0  0
   33.3802   15.4425   19.7942 O   0  0  0  0  0  0  0  0  0  0  0  0
   33.6832   14.5762   20.7913 C   0  0  0  0  0  0  0  0  0  0  0  0
   33.1005   15.0056   21.9470 N   0  0  0  0  0  0  0  0  0  0  0  0
   34.3904   13.5862   20.6891 O   0  0  0  0  0  0  0  0  0  0  0  0
   33.3392   14.3388   23.2222 C   0  0  2  0  0  0  0  0  0  0  0  0
   32.2205   13.3552   23.7135 C   0  0  0  0  0  0  0  0  0  0  0  0
   33.8749   15.3462   24.3044 C   0  0  0  0  0  0  0  0  0  0  0  0
   35.0652   16.1494   23.7244 C   0  0  0  0  0  0  0  0  0  0  0  0
   34.4112   14.6149   25.5584 C   0  0  0  0  0  0  0  0  0  0  0  0
   32.7874   16.3321   24.7470 C   0  0  0  0  0  0  0  0  0  0  0  0
   32.4861   12.5685   24.6326 O   0  0  0  0  0  0  0  0  0  0  0  0
   30.9333   13.3428   23.2103 N   0  0  0  0  0  0  0  0  0  0  0  0
   29.0660   12.1231   22.3502 C   0  0  1  0  0  0  0  0  0  0  0  0
   30.1001   12.1763   23.4761 C   0  0  0  0  0  0  0  0  0  0  0  0
   30.3068   14.2161   22.2182 C   0  0  1  0  0  0  0  0  0  0  0  0
   28.9396   13.5761   21.9022 C   0  0  0  0  0  0  0  0  0  0  0  0
   29.5619   11.3074   21.2844 O   0  0  0  0  0  0  0  0  0  0  0  0
   28.5826   10.7763   20.4721 C   0  0  0  0  0  0  0  0  0  0  0  0
   27.3225   11.2577   20.5871 N   0  0  0  0  0  0  0  0  0  0  0  0
   26.3946   10.7554   19.7534 C   0  0  0  0  0  0  0  0  0  0  0  0
   26.7239    9.7802   18.7855 C   0  0  0  0  0  0  0  0  0  0  0  0
   27.9815    9.3252   18.6597 N   0  0  0  0  0  0  0  0  0  0  0  0
   28.9251    9.8277   19.5164 C   0  0  0  0  0  0  0  0  0  0  0  0
   25.7250    9.2925   17.9540 C   0  0  0  0  0  0  0  0  0  0  0  0
   24.4095    9.7508   18.0552 C   0  0  0  0  0  0  0  0  0  0  0  0
   24.0875   10.7123   19.0024 C   0  0  0  0  0  0  0  0  0  0  0  0
   25.0847   11.2072   19.8432 C   0  0  0  0  0  0  0  0  0  0  0  0
   30.3575    9.3429   19.3712 C   0  0  0  0  0  0  0  0  0  0  0  0
   31.2004   10.1736   18.4254 C   0  0  0  0  0  0  0  0  0  0  0  0
   31.1313   11.4944   18.1818 C   0  0  0  0  0  0  0  0  0  0  0  0
   32.0221   12.2197   17.2274 C   0  0  0  0  0  0  0  0  0  0  0  0
   32.9073   13.0062   18.0089 O   0  0  0  0  0  0  0  0  0  0  0  0
   30.3851    8.0527   18.8967 F   0  0  0  0  0  0  0  0  0  0  0  0
   31.0072    9.2482   20.5724 F   0  0  0  0  0  0  0  0  0  0  0  0
   30.0534   15.6128   22.8175 C   0  0  0  0  0  0  0  0  0  0  0  0
   29.4269   15.5859   24.0519 N   0  0  0  0  0  0  0  0  0  0  0  0
   30.2946   16.6460   22.2047 O   0  0  0  0  0  0  0  0  0  0  0  0
   28.8007   16.7435   24.6710 C   0  0  2  0  0  0  0  0  0  0  0  0
   27.2853   16.6354   24.8562 C   0  0  0  0  0  0  0  0  0  0  0  0
   27.8375   17.6039   23.8510 C   0  0  1  0  0  0  0  0  0  0  0  0
   29.5654   17.3764   25.8189 C   0  0  0  0  0  0  0  0  0  0  0  0
   29.7798   16.5175   26.8976 N   0  0  0  0  0  0  0  0  0  0  0  0
   29.9391   18.5370   25.7701 O   0  0  0  0  0  0  0  0  0  0  0  0
   30.1105   16.9991   28.4507 S   0  0  0  0  0  0  0  0  0  0  0  0
   31.7704   17.7244   28.5441 C   0  0  0  0  0  0  0  0  0  0  0  0
   30.1471   15.7409   29.1752 O   0  0  0  0  0  0  0  0  0  0  0  0
   29.1477   18.0116   28.8181 O   0  0  0  0  0  0  0  0  0  0  0  0
   31.8726   19.1148   28.0335 C   0  0  0  0  0  0  0  0  0  0  0  0
   32.5986   17.2811   29.7231 C   0  0  0  0  0  0  0  0  0  0  0  0
   32.8923   16.7346   28.3525 C   0  0  0  0  0  0  0  0  0  0  0  0
   27.7079   19.0771   24.0470 C   0  0  0  0  0  0  0  0  0  0  0  0
   26.7356   19.5250   23.2076 F   0  0  0  0  0  0  0  0  0  0  0  0
   27.2758   19.3406   25.3074 F   0  0  0  0  0  0  0  0  0  0  0  0
   32.8408   14.5327   15.4442 H   0  0  0  0  0  0  0  0  0  0  0  0
   34.3344   13.7815   16.0050 H   0  0  0  0  0  0  0  0  0  0  0  0
   35.3487   15.8271   15.9808 H   0  0  0  0  0  0  0  0  0  0  0  0
   33.8335   16.6455   15.5918 H   0  0  0  0  0  0  0  0  0  0  0  0
   35.1048   16.9303   18.0506 H   0  0  0  0  0  0  0  0  0  0  0  0
   33.3658   17.1069   17.8463 H   0  0  0  0  0  0  0  0  0  0  0  0
   34.9044   14.5865   18.6371 H   0  0  0  0  0  0  0  0  0  0  0  0
   31.9834   14.8191   17.6802 H   0  0  0  0  0  0  0  0  0  0  0  0
   32.6012   15.8834   21.8877 H   0  0  0  0  0  0  0  0  0  0  0  0
   34.1750   13.6470   23.0390 H   0  0  0  0  0  0  0  0  0  0  0  0
   35.5139   16.8008   24.4849 H   0  0  0  0  0  0  0  0  0  0  0  0
   34.7655   16.7923   22.8881 H   0  0  0  0  0  0  0  0  0  0  0  0
   35.8547   15.4760   23.3683 H   0  0  0  0  0  0  0  0  0  0  0  0
   34.9002   15.3154   26.2453 H   0  0  0  0  0  0  0  0  0  0  0  0
   33.6071   14.1377   26.1226 H   0  0  0  0  0  0  0  0  0  0  0  0
   35.1446   13.8478   25.2854 H   0  0  0  0  0  0  0  0  0  0  0  0
   31.9646   15.7965   25.2287 H   0  0  0  0  0  0  0  0  0  0  0  0
   32.3910   16.9024   23.9029 H   0  0  0  0  0  0  0  0  0  0  0  0
   33.1815   17.0586   25.4661 H   0  0  0  0  0  0  0  0  0  0  0  0
   28.1343   11.7169   22.7606 H   0  0  0  0  0  0  0  0  0  0  0  0
   30.6996   11.2618   23.5336 H   0  0  0  0  0  0  0  0  0  0  0  0
   29.6165   12.3511   24.4423 H   0  0  0  0  0  0  0  0  0  0  0  0
   30.9126   14.2716   21.3137 H   0  0  0  0  0  0  0  0  0  0  0  0
   28.7148   13.6828   20.8350 H   0  0  0  0  0  0  0  0  0  0  0  0
   28.1192   14.0548   22.4537 H   0  0  0  0  0  0  0  0  0  0  0  0
   25.9760    8.5398   17.2115 H   0  0  0  0  0  0  0  0  0  0  0  0
   23.6449    9.3601   17.3895 H   0  0  0  0  0  0  0  0  0  0  0  0
   23.0670   11.0799   19.0920 H   0  0  0  0  0  0  0  0  0  0  0  0
   24.8389   11.9669   20.5789 H   0  0  0  0  0  0  0  0  0  0  0  0
   31.9492    9.5826   17.9034 H   0  0  0  0  0  0  0  0  0  0  0  0
   30.4192   12.1209   18.7085 H   0  0  0  0  0  0  0  0  0  0  0  0
   32.6204   11.5332   16.6209 H   0  0  0  0  0  0  0  0  0  0  0  0
   31.4033   12.8271   16.5560 H   0  0  0  0  0  0  0  0  0  0  0  0
   29.4376   14.7061   24.5561 H   0  0  0  0  0  0  0  0  0  0  0  0
   26.8388   17.0333   25.7621 H   0  0  0  0  0  0  0  0  0  0  0  0
   26.7688   15.7616   24.4752 H   0  0  0  0  0  0  0  0  0  0  0  0
   27.7201   17.3614   22.8019 H   0  0  0  0  0  0  0  0  0  0  0  0
   29.3572   15.5901   26.8923 H   0  0  0  0  0  0  0  0  0  0  0  0
   32.7552   19.6197   28.4405 H   0  0  0  0  0  0  0  0  0  0  0  0
   31.9805   19.1277   26.9488 H   0  0  0  0  0  0  0  0  0  0  0  0
   31.0111   19.7266   28.3128 H   0  0  0  0  0  0  0  0  0  0  0  0
   33.3192   17.9762   30.1479 H   0  0  0  0  0  0  0  0  0  0  0  0
   32.1751   16.6052   30.4584 H   0  0  0  0  0  0  0  0  0  0  0  0
   33.8053   17.0682   27.8716 H   0  0  0  0  0  0  0  0  0  0  0  0
   32.6621   15.6896   28.1716 H   0  0  0  0  0  0  0  0  0  0  0  0
   28.6311   19.6271   23.8417 H   0  0  0  0  0  0  0  0  0  0  0  0
  1  2  1  0
  2  3  1  0
  4  3  1  0
  4  5  1  0
  5  1  1  0
  4  6  1  0
  6  7  1  0
  7  8  1  0
  7  9  2  0
  8 10  1  0
 10 11  1  0
 10 12  1  0
 12 13  1  0
 12 14  1  0
 12 15  1  0
 11 16  2  0
 11 17  1  0
 19 17  1  0
 17 20  1  0
 18 19  1  0
 20 21  1  0
 18 21  1  0
 18 22  1  0
 22 23  1  0
 23 24  2  0
 28 23  1  0
 24 25  1  0
 26 27  1  0
 27 28  2  0
 26 29  1  0
 25 26  2  0
 32 25  1  0
 29 30  2  0
 30 31  1  0
 31 32  2  0
 28 33  1  0
 33 34  1  0
 34 35  2  0
 35 36  1  0
 36 37  1  0
  5 37  1  0
 33 38  1  0
 33 39  1  0
 20 40  1  0
 40 41  1  0
 40 42  2  0
 43 41  1  1
 43 44  1  0
 45 43  1  0
 44 45  1  0
 43 46  1  0
 46 47  1  0
 46 48  2  0
 47 49  1  0
 49 50  1  0
 49 51  2  0
 49 52  2  0
 50 53  1  0
 50 54  1  0
 55 50  1  0
 54 55  1  0
 45 56  1  0
 56 57  1  0
 56 58  1  0
  1 59  1  0
  1 60  1  0
  2 61  1  0
  2 62  1  0
  3 63  1  0
  3 64  1  0
  4 65  1  1
  5 66  1  6
  8 67  1  0
 10 68  1  1
 13 69  1  0
 13 70  1  0
 13 71  1  0
 14 72  1  0
 14 73  1  0
 14 74  1  0
 15 75  1  0
 15 76  1  0
 15 77  1  0
 18 78  1  6
 19 79  1  0
 19 80  1  0
 20 81  1  6
 21 82  1  0
 21 83  1  0
 29 84  1  0
 30 85  1  0
 31 86  1  0
 32 87  1  0
 34 88  1  0
 35 89  1  0
 36 90  1  0
 36 91  1  0
 41 92  1  0
 44 93  1  0
 44 94  1  0
 45 95  1  6
 47 96  1  0
 53 97  1  0
 53 98  1  0
 53 99  1  0
 54100  1  0
 54101  1  0
 55102  1  0
 55103  1  0
 56104  1  0
M  END
> <Uni-Dock RESULT> 
ENERGY=   -2.002  LOWER_BOUND=    6.914  UPPER_BOUND=   10.331
INTER + INTRA:          -2.002
INTER:                  -2.002
INTRA:                   0.000
UNBOUND:                 0.000

$$$$
