
     RDKit          3D

104110  0  0  0  0  0  0  0  0999 V2000
   32.2379    8.1062   28.0137 C   0  0  0  0  0  0  0  0  0  0  0  0
   33.7530    8.2283   27.8145 C   0  0  0  0  0  0  0  0  0  0  0  0
   33.9712    9.5896   27.1769 C   0  0  0  0  0  0  0  0  0  0  0  0
   32.8671   10.4347   27.7925 C   0  0  2  0  0  0  0  0  0  0  0  0
   31.6485    9.5008   27.7361 C   0  0  2  0  0  0  0  0  0  0  0  0
   32.6890   11.6191   27.0062 O   0  0  0  0  0  0  0  0  0  0  0  0
   32.3254   12.7201   27.7139 C   0  0  0  0  0  0  0  0  0  0  0  0
   32.2998   13.8091   26.8927 N   0  0  0  0  0  0  0  0  0  0  0  0
   32.0708   12.7456   28.9066 O   0  0  0  0  0  0  0  0  0  0  0  0
   32.0015   15.1448   27.3865 C   0  0  2  0  0  0  0  0  0  0  0  0
   30.5874   15.7173   27.0192 C   0  0  0  0  0  0  0  0  0  0  0  0
   33.2176   16.1319   27.1906 C   0  0  0  0  0  0  0  0  0  0  0  0
   33.4156   16.5285   25.7175 C   0  0  0  0  0  0  0  0  0  0  0  0
   34.5231   15.4684   27.6946 C   0  0  0  0  0  0  0  0  0  0  0  0
   33.0402   17.4272   28.0154 C   0  0  0  0  0  0  0  0  0  0  0  0
   30.2614   16.8215   27.4810 O   0  0  0  0  0  0  0  0  0  0  0  0
   29.6418   15.0264   26.2828 N   0  0  0  0  0  0  0  0  0  0  0  0
   27.4145   14.2040   26.0850 C   0  0  1  0  0  0  0  0  0  0  0  0
   28.2435   15.4085   26.5073 C   0  0  0  0  0  0  0  0  0  0  0  0
   29.7122   13.8052   25.4473 C   0  0  1  0  0  0  0  0  0  0  0  0
   28.2572   13.6286   24.9659 C   0  0  0  0  0  0  0  0  0  0  0  0
   27.3660   13.2003   27.1082 O   0  0  0  0  0  0  0  0  0  0  0  0
   26.1231   13.1189   27.6760 C   0  0  0  0  0  0  0  0  0  0  0  0
   25.5837   14.2740   28.1265 N   0  0  0  0  0  0  0  0  0  0  0  0
   24.3884   14.1791   28.7341 C   0  0  0  0  0  0  0  0  0  0  0  0
   23.7445   12.9286   28.9052 C   0  0  0  0  0  0  0  0  0  0  0  0
   24.3039   11.7877   28.4632 N   0  0  0  0  0  0  0  0  0  0  0  0
   25.5076   11.8859   27.8274 C   0  0  0  0  0  0  0  0  0  0  0  0
   22.5036   12.8823   29.5215 C   0  0  0  0  0  0  0  0  0  0  0  0
   21.8833   14.0470   29.9802 C   0  0  0  0  0  0  0  0  0  0  0  0
   22.5139   15.2725   29.8079 C   0  0  0  0  0  0  0  0  0  0  0  0
   23.7587   15.3287   29.1853 C   0  0  0  0  0  0  0  0  0  0  0  0
   26.1240   10.6378   27.2290 C   0  0  0  0  0  0  0  0  0  0  0  0
   27.1662   10.0118   28.1281 C   0  0  0  0  0  0  0  0  0  0  0  0
   28.4629    9.8593   27.8059 C   0  0  0  0  0  0  0  0  0  0  0  0
   29.4643    9.1392   28.6562 C   0  0  0  0  0  0  0  0  0  0  0  0
   30.6770    9.8843   28.7101 O   0  0  0  0  0  0  0  0  0  0  0  0
   26.6685   10.8808   25.9921 F   0  0  0  0  0  0  0  0  0  0  0  0
   25.1755    9.6733   26.9790 F   0  0  0  0  0  0  0  0  0  0  0  0
   30.6539   13.9336   24.2206 C   0  0  0  0  0  0  0  0  0  0  0  0
   30.3168   13.1789   23.1060 N   0  0  0  0  0  0  0  0  0  0  0  0
   31.6879   14.5963   24.2616 O   0  0  0  0  0  0  0  0  0  0  0  0
   30.6670   13.5323   21.7237 C   0  0  2  0  0  0  0  0  0  0  0  0
   32.1148   13.7867   21.3349 C   0  0  0  0  0  0  0  0  0  0  0  0
   31.1485   14.9420   21.3740 C   0  0  1  0  0  0  0  0  0  0  0  0
   29.7406   12.8731   20.7109 C   0  0  0  0  0  0  0  0  0  0  0  0
   30.3168   11.8522   19.9475 N   0  0  0  0  0  0  0  0  0  0  0  0
   28.5756   13.2281   20.6628 O   0  0  0  0  0  0  0  0  0  0  0  0
   29.3939   10.8017   19.0280 S   0  0  0  0  0  0  0  0  0  0  0  0
   30.4116   10.2141   17.6491 C   0  0  0  0  0  0  0  0  0  0  0  0
   28.3111   11.5287   18.4099 O   0  0  0  0  0  0  0  0  0  0  0  0
   29.1724    9.6484   19.8716 O   0  0  0  0  0  0  0  0  0  0  0  0
   29.6385    9.3502   16.7198 C   0  0  0  0  0  0  0  0  0  0  0  0
   31.8741    9.9807   17.9260 C   0  0  0  0  0  0  0  0  0  0  0  0
   31.4350   11.1945   17.1372 C   0  0  0  0  0  0  0  0  0  0  0  0
   30.7303   15.6379   20.1273 C   0  0  0  0  0  0  0  0  0  0  0  0
   29.6866   16.4519   20.4109 F   0  0  0  0  0  0  0  0  0  0  0  0
   31.7486   16.4357   19.7163 F   0  0  0  0  0  0  0  0  0  0  0  0
   32.0103    7.7403   29.0245 H   0  0  0  0  0  0  0  0  0  0  0  0
   31.8283    7.3753   27.3071 H   0  0  0  0  0  0  0  0  0  0  0  0
   34.2500    8.1870   28.7928 H   0  0  0  0  0  0  0  0  0  0  0  0
   34.1633    7.4176   27.2017 H   0  0  0  0  0  0  0  0  0  0  0  0
   33.8689    9.5366   26.0866 H   0  0  0  0  0  0  0  0  0  0  0  0
   34.9641    9.9998   27.3903 H   0  0  0  0  0  0  0  0  0  0  0  0
   33.1304   10.6753   28.8298 H   0  0  0  0  0  0  0  0  0  0  0  0
   31.1987    9.5406   26.7365 H   0  0  0  0  0  0  0  0  0  0  0  0
   32.5647   13.6989   25.9179 H   0  0  0  0  0  0  0  0  0  0  0  0
   31.9040   15.0385   28.4783 H   0  0  0  0  0  0  0  0  0  0  0  0
   32.4991   16.9412   25.2837 H   0  0  0  0  0  0  0  0  0  0  0  0
   34.1948   17.2916   25.6144 H   0  0  0  0  0  0  0  0  0  0  0  0
   33.7308   15.6741   25.1138 H   0  0  0  0  0  0  0  0  0  0  0  0
   35.3755   16.1552   27.6037 H   0  0  0  0  0  0  0  0  0  0  0  0
   34.4268   15.1827   28.7477 H   0  0  0  0  0  0  0  0  0  0  0  0
   34.7800   14.5712   27.1179 H   0  0  0  0  0  0  0  0  0  0  0  0
   32.7870   17.1937   29.0585 H   0  0  0  0  0  0  0  0  0  0  0  0
   32.2594   18.0750   27.6003 H   0  0  0  0  0  0  0  0  0  0  0  0
   33.9643   18.0207   28.0240 H   0  0  0  0  0  0  0  0  0  0  0  0
   26.4207   14.4936   25.7253 H   0  0  0  0  0  0  0  0  0  0  0  0
   28.0410   16.2732   25.8681 H   0  0  0  0  0  0  0  0  0  0  0  0
   28.0813   15.6760   27.5547 H   0  0  0  0  0  0  0  0  0  0  0  0
   30.0190   12.9611   26.0727 H   0  0  0  0  0  0  0  0  0  0  0  0
   28.0689   14.1960   24.0477 H   0  0  0  0  0  0  0  0  0  0  0  0
   28.0343   12.5769   24.7713 H   0  0  0  0  0  0  0  0  0  0  0  0
   22.0110   11.9226   29.6439 H   0  0  0  0  0  0  0  0  0  0  0  0
   20.9104   13.9906   30.4596 H   0  0  0  0  0  0  0  0  0  0  0  0
   22.0361   16.1885   30.1496 H   0  0  0  0  0  0  0  0  0  0  0  0
   24.2479   16.2900   29.0498 H   0  0  0  0  0  0  0  0  0  0  0  0
   26.7783    9.5972   29.0519 H   0  0  0  0  0  0  0  0  0  0  0  0
   28.8281   10.2546   26.8637 H   0  0  0  0  0  0  0  0  0  0  0  0
   29.6279    8.1281   28.2672 H   0  0  0  0  0  0  0  0  0  0  0  0
   29.1023    9.0435   29.6875 H   0  0  0  0  0  0  0  0  0  0  0  0
   29.4778   12.6072   23.1782 H   0  0  0  0  0  0  0  0  0  0  0  0
   32.8764   13.7500   22.1079 H   0  0  0  0  0  0  0  0  0  0  0  0
   32.4763   13.4780   20.3620 H   0  0  0  0  0  0  0  0  0  0  0  0
   31.2829   15.6739   22.1588 H   0  0  0  0  0  0  0  0  0  0  0  0
   31.1586   11.4210   20.3151 H   0  0  0  0  0  0  0  0  0  0  0  0
   30.2850    8.9196   15.9529 H   0  0  0  0  0  0  0  0  0  0  0  0
   28.8554    9.9220   16.2148 H   0  0  0  0  0  0  0  0  0  0  0  0
   29.1674    8.5177   17.2518 H   0  0  0  0  0  0  0  0  0  0  0  0
   32.3756    9.1830   17.3833 H   0  0  0  0  0  0  0  0  0  0  0  0
   32.2689   10.1231   18.9240 H   0  0  0  0  0  0  0  0  0  0  0  0
   31.5204   12.1722   17.5929 H   0  0  0  0  0  0  0  0  0  0  0  0
   31.6265   11.2045   16.0685 H   0  0  0  0  0  0  0  0  0  0  0  0
   30.4628   14.9795   19.3005 H   0  0  0  0  0  0  0  0  0  0  0  0
  1  2  1  0
  2  3  1  0
  4  3  1  0
  4  5  1  0
  5  1  1  0
  4  6  1  0
  6  7  1  0
  7  8  1  0
  7  9  2  0
  8 10  1  0
 10 11  1  0
 10 12  1  0
 12 13  1  0
 12 14  1  0
 12 15  1  0
 11 16  2  0
 11 17  1  0
 19 17  1  0
 17 20  1  0
 18 19  1  0
 20 21  1  0
 18 21  1  0
 18 22  1  0
 22 23  1  0
 23 24  2  0
 28 23  1  0
 24 25  1  0
 26 27  1  0
 27 28  2  0
 26 29  1  0
 25 26  2  0
 32 25  1  0
 29 30  2  0
 30 31  1  0
 31 32  2  0
 28 33  1  0
 33 34  1  0
 34 35  2  0
 35 36  1  0
 36 37  1  0
  5 37  1  0
 33 38  1  0
 33 39  1  0
 20 40  1  0
 40 41  1  0
 40 42  2  0
 43 41  1  1
 43 44  1  0
 45 43  1  0
 44 45  1  0
 43 46  1  0
 46 47  1  0
 46 48  2  0
 47 49  1  0
 49 50  1  0
 49 51  2  0
 49 52  2  0
 50 53  1  0
 50 54  1  0
 55 50  1  0
 54 55  1  0
 45 56  1  0
 56 57  1  0
 56 58  1  0
  1 59  1  0
  1 60  1  0
  2 61  1  0
  2 62  1  0
  3 63  1  0
  3 64  1  0
  4 65  1  1
  5 66  1  6
  8 67  1  0
 10 68  1  6
 13 69  1  0
 13 70  1  0
 13 71  1  0
 14 72  1  0
 14 73  1  0
 14 74  1  0
 15 75  1  0
 15 76  1  0
 15 77  1  0
 18 78  1  1
 19 79  1  0
 19 80  1  0
 20 81  1  6
 21 82  1  0
 21 83  1  0
 29 84  1  0
 30 85  1  0
 31 86  1  0
 32 87  1  0
 34 88  1  0
 35 89  1  0
 36 90  1  0
 36 91  1  0
 41 92  1  0
 44 93  1  0
 44 94  1  0
 45 95  1  1
 47 96  1  0
 53 97  1  0
 53 98  1  0
 53 99  1  0
 54100  1  0
 54101  1  0
 55102  1  0
 55103  1  0
 56104  1  0
M  END
> <Uni-Dock RESULT> 
ENERGY=   -4.178  LOWER_BOUND=    0.000  UPPER_BOUND=    0.000
INTER + INTRA:          -4.178
INTER:                  -4.178
INTRA:                   0.000
UNBOUND:                 0.000

$$$$

     RDKit          3D

104110  0  0  0  0  0  0  0  0999 V2000
   32.2416    8.1041   28.0165 C   0  0  0  0  0  0  0  0  0  0  0  0
   33.7567    8.2277   27.8175 C   0  0  0  0  0  0  0  0  0  0  0  0
   33.9737    9.5892   27.1800 C   0  0  0  0  0  0  0  0  0  0  0  0
   32.8687   10.4332   27.7955 C   0  0  2  0  0  0  0  0  0  0  0  0
   31.6510    9.4981   27.7388 C   0  0  2  0  0  0  0  0  0  0  0  0
   32.6896   11.6175   27.0092 O   0  0  0  0  0  0  0  0  0  0  0  0
   32.3249   12.7181   27.7170 C   0  0  0  0  0  0  0  0  0  0  0  0
   32.2983   13.8071   26.8958 N   0  0  0  0  0  0  0  0  0  0  0  0
   32.0700   12.7433   28.9097 O   0  0  0  0  0  0  0  0  0  0  0  0
   31.9987   15.1426   27.3897 C   0  0  2  0  0  0  0  0  0  0  0  0
   30.5841   15.7137   27.0221 C   0  0  0  0  0  0  0  0  0  0  0  0
   33.2138   16.1308   27.1940 C   0  0  0  0  0  0  0  0  0  0  0  0
   33.4117   16.5277   25.7209 C   0  0  0  0  0  0  0  0  0  0  0  0
   34.5199   15.4685   27.6982 C   0  0  0  0  0  0  0  0  0  0  0  0
   33.0351   17.4259   28.0189 C   0  0  0  0  0  0  0  0  0  0  0  0
   30.2570   16.8175   27.4840 O   0  0  0  0  0  0  0  0  0  0  0  0
   29.6393   15.0220   26.2855 N   0  0  0  0  0  0  0  0  0  0  0  0
   27.4128   14.1975   26.0874 C   0  0  1  0  0  0  0  0  0  0  0  0
   28.2406   15.4027   26.5099 C   0  0  0  0  0  0  0  0  0  0  0  0
   29.7110   13.8009   25.4500 C   0  0  1  0  0  0  0  0  0  0  0  0
   28.2562   13.6229   24.9683 C   0  0  0  0  0  0  0  0  0  0  0  0
   27.3651   13.1936   27.1105 O   0  0  0  0  0  0  0  0  0  0  0  0
   26.1221   13.1110   27.6781 C   0  0  0  0  0  0  0  0  0  0  0  0
   25.5815   14.2656   28.1285 N   0  0  0  0  0  0  0  0  0  0  0  0
   24.3863   14.1695   28.7359 C   0  0  0  0  0  0  0  0  0  0  0  0
   23.7436   12.9184   28.9069 C   0  0  0  0  0  0  0  0  0  0  0  0
   24.3041   11.7780   28.4648 N   0  0  0  0  0  0  0  0  0  0  0  0
   25.5078   11.8774   27.8292 C   0  0  0  0  0  0  0  0  0  0  0  0
   22.5026   12.8709   29.5229 C   0  0  0  0  0  0  0  0  0  0  0  0
   21.8811   14.0349   29.9816 C   0  0  0  0  0  0  0  0  0  0  0  0
   22.5106   15.2610   29.8095 C   0  0  0  0  0  0  0  0  0  0  0  0
   23.7554   15.3185   29.1871 C   0  0  0  0  0  0  0  0  0  0  0  0
   26.1255   10.6299   27.2309 C   0  0  0  0  0  0  0  0  0  0  0  0
   27.1681   10.0049   28.1301 C   0  0  0  0  0  0  0  0  0  0  0  0
   28.4650    9.8536   27.8081 C   0  0  0  0  0  0  0  0  0  0  0  0
   29.4670    9.1344   28.6585 C   0  0  0  0  0  0  0  0  0  0  0  0
   30.6790    9.8807   28.7127 O   0  0  0  0  0  0  0  0  0  0  0  0
   26.6700   10.8736   25.9941 F   0  0  0  0  0  0  0  0  0  0  0  0
   25.1780    9.6645   26.9806 F   0  0  0  0  0  0  0  0  0  0  0  0
   30.6527   13.9302   24.2235 C   0  0  0  0  0  0  0  0  0  0  0  0
   30.3165   13.1753   23.1088 N   0  0  0  0  0  0  0  0  0  0  0  0
   31.6861   14.5939   24.2647 O   0  0  0  0  0  0  0  0  0  0  0  0
   30.6666   13.5291   21.7265 C   0  0  2  0  0  0  0  0  0  0  0  0
   32.1142   13.7850   21.3379 C   0  0  0  0  0  0  0  0  0  0  0  0
   31.1469   14.9393   21.3770 C   0  0  1  0  0  0  0  0  0  0  0  0
   29.7410   12.8692   20.7135 C   0  0  0  0  0  0  0  0  0  0  0  0
   30.3183   11.8488   19.9502 N   0  0  0  0  0  0  0  0  0  0  0  0
   28.5757   13.2230   20.6653 O   0  0  0  0  0  0  0  0  0  0  0  0
   29.3966   10.7975   19.0304 S   0  0  0  0  0  0  0  0  0  0  0  0
   30.4150   10.2109   17.6517 C   0  0  0  0  0  0  0  0  0  0  0  0
   28.3132   11.5235   18.4122 O   0  0  0  0  0  0  0  0  0  0  0  0
   29.1761    9.6439   19.8739 O   0  0  0  0  0  0  0  0  0  0  0  0
   29.6430    9.3464   16.7222 C   0  0  0  0  0  0  0  0  0  0  0  0
   31.8778    9.9789   17.9288 C   0  0  0  0  0  0  0  0  0  0  0  0
   31.4377   11.1923   17.1400 C   0  0  0  0  0  0  0  0  0  0  0  0
   30.7282   15.6349   20.1303 C   0  0  0  0  0  0  0  0  0  0  0  0
   29.6836   16.4478   20.4137 F   0  0  0  0  0  0  0  0  0  0  0  0
   31.7458   16.4337   19.7195 F   0  0  0  0  0  0  0  0  0  0  0  0
   32.0143    7.7379   29.0271 H   0  0  0  0  0  0  0  0  0  0  0  0
   31.8329    7.3729   27.3097 H   0  0  0  0  0  0  0  0  0  0  0  0
   34.2536    8.1868   28.7958 H   0  0  0  0  0  0  0  0  0  0  0  0
   34.1679    7.4174   27.2047 H   0  0  0  0  0  0  0  0  0  0  0  0
   33.8716    9.5362   26.0897 H   0  0  0  0  0  0  0  0  0  0  0  0
   34.9662   10.0004   27.3936 H   0  0  0  0  0  0  0  0  0  0  0  0
   33.1316   10.6740   28.8329 H   0  0  0  0  0  0  0  0  0  0  0  0
   31.2014    9.5376   26.7391 H   0  0  0  0  0  0  0  0  0  0  0  0
   32.5635   13.6972   25.9210 H   0  0  0  0  0  0  0  0  0  0  0  0
   31.9011   15.0360   28.4814 H   0  0  0  0  0  0  0  0  0  0  0  0
   32.4949   16.9395   25.2870 H   0  0  0  0  0  0  0  0  0  0  0  0
   34.1903   17.2916   25.6181 H   0  0  0  0  0  0  0  0  0  0  0  0
   33.7279   15.6736   25.1173 H   0  0  0  0  0  0  0  0  0  0  0  0
   35.3717   16.1561   27.6074 H   0  0  0  0  0  0  0  0  0  0  0  0
   34.4238   15.1827   28.7513 H   0  0  0  0  0  0  0  0  0  0  0  0
   34.7777   14.5716   27.1215 H   0  0  0  0  0  0  0  0  0  0  0  0
   32.7820   17.1921   29.0620 H   0  0  0  0  0  0  0  0  0  0  0  0
   32.2537   18.0729   27.6037 H   0  0  0  0  0  0  0  0  0  0  0  0
   33.9586   18.0203   28.0277 H   0  0  0  0  0  0  0  0  0  0  0  0
   26.4188   14.4861   25.7274 H   0  0  0  0  0  0  0  0  0  0  0  0
   28.0373   16.2673   25.8707 H   0  0  0  0  0  0  0  0  0  0  0  0
   28.0779   15.6700   27.5572 H   0  0  0  0  0  0  0  0  0  0  0  0
   30.0185   12.9570   26.0754 H   0  0  0  0  0  0  0  0  0  0  0  0
   28.0675   14.1902   24.0501 H   0  0  0  0  0  0  0  0  0  0  0  0
   28.0344   12.5710   24.7737 H   0  0  0  0  0  0  0  0  0  0  0  0
   22.0108   11.9106   29.6452 H   0  0  0  0  0  0  0  0  0  0  0  0
   20.9082   13.9776   30.4608 H   0  0  0  0  0  0  0  0  0  0  0  0
   22.0318   16.1765   30.1511 H   0  0  0  0  0  0  0  0  0  0  0  0
   24.2437   16.2802   29.0517 H   0  0  0  0  0  0  0  0  0  0  0  0
   26.7805    9.5899   29.0538 H   0  0  0  0  0  0  0  0  0  0  0  0
   28.8300   10.2494   26.8660 H   0  0  0  0  0  0  0  0  0  0  0  0
   29.6316    8.1235   28.2695 H   0  0  0  0  0  0  0  0  0  0  0  0
   29.1049    9.0383   29.6898 H   0  0  0  0  0  0  0  0  0  0  0  0
   29.4781   12.6028   23.1808 H   0  0  0  0  0  0  0  0  0  0  0  0
   32.8758   13.7489   22.1111 H   0  0  0  0  0  0  0  0  0  0  0  0
   32.4762   13.4766   20.3652 H   0  0  0  0  0  0  0  0  0  0  0  0
   31.2805   15.6713   22.1618 H   0  0  0  0  0  0  0  0  0  0  0  0
   31.1605   11.4184   20.3179 H   0  0  0  0  0  0  0  0  0  0  0  0
   30.2899    8.9164   15.9554 H   0  0  0  0  0  0  0  0  0  0  0  0
   28.8594    9.9175   16.2171 H   0  0  0  0  0  0  0  0  0  0  0  0
   29.1725    8.5133   17.2540 H   0  0  0  0  0  0  0  0  0  0  0  0
   32.3801    9.1817   17.3861 H   0  0  0  0  0  0  0  0  0  0  0  0
   32.2723   10.1217   18.9269 H   0  0  0  0  0  0  0  0  0  0  0  0
   31.5220   12.1701   17.5957 H   0  0  0  0  0  0  0  0  0  0  0  0
   31.6293   11.2026   16.0713 H   0  0  0  0  0  0  0  0  0  0  0  0
   30.4615   14.9762   19.3034 H   0  0  0  0  0  0  0  0  0  0  0  0
  1  2  1  0
  2  3  1  0
  4  3  1  0
  4  5  1  0
  5  1  1  0
  4  6  1  0
  6  7  1  0
  7  8  1  0
  7  9  2  0
  8 10  1  0
 10 11  1  0
 10 12  1  0
 12 13  1  0
 12 14  1  0
 12 15  1  0
 11 16  2  0
 11 17  1  0
 19 17  1  0
 17 20  1  0
 18 19  1  0
 20 21  1  0
 18 21  1  0
 18 22  1  0
 22 23  1  0
 23 24  2  0
 28 23  1  0
 24 25  1  0
 26 27  1  0
 27 28  2  0
 26 29  1  0
 25 26  2  0
 32 25  1  0
 29 30  2  0
 30 31  1  0
 31 32  2  0
 28 33  1  0
 33 34  1  0
 34 35  2  0
 35 36  1  0
 36 37  1  0
  5 37  1  0
 33 38  1  0
 33 39  1  0
 20 40  1  0
 40 41  1  0
 40 42  2  0
 43 41  1  1
 43 44  1  0
 45 43  1  0
 44 45  1  0
 43 46  1  0
 46 47  1  0
 46 48  2  0
 47 49  1  0
 49 50  1  0
 49 51  2  0
 49 52  2  0
 50 53  1  0
 50 54  1  0
 55 50  1  0
 54 55  1  0
 45 56  1  0
 56 57  1  0
 56 58  1  0
  1 59  1  0
  1 60  1  0
  2 61  1  0
  2 62  1  0
  3 63  1  0
  3 64  1  0
  4 65  1  1
  5 66  1  6
  8 67  1  0
 10 68  1  6
 13 69  1  0
 13 70  1  0
 13 71  1  0
 14 72  1  0
 14 73  1  0
 14 74  1  0
 15 75  1  0
 15 76  1  0
 15 77  1  0
 18 78  1  1
 19 79  1  0
 19 80  1  0
 20 81  1  6
 21 82  1  0
 21 83  1  0
 29 84  1  0
 30 85  1  0
 31 86  1  0
 32 87  1  0
 34 88  1  0
 35 89  1  0
 36 90  1  0
 36 91  1  0
 41 92  1  0
 44 93  1  0
 44 94  1  0
 45 95  1  1
 47 96  1  0
 53 97  1  0
 53 98  1  0
 53 99  1  0
 54100  1  0
 54101  1  0
 55102  1  0
 55103  1  0
 56104  1  0
M  END
> <Uni-Dock RESULT> 
ENERGY=   -4.175  LOWER_BOUND=    0.007  UPPER_BOUND=    0.007
INTER + INTRA:          -4.175
INTER:                  -4.175
INTRA:                   0.000
UNBOUND:                 0.000

$$$$

     RDKit          3D

104110  0  0  0  0  0  0  0  0999 V2000
   34.2511   13.8668   27.5567 C   0  0  0  0  0  0  0  0  0  0  0  0
   34.6102   15.2299   26.9540 C   0  0  0  0  0  0  0  0  0  0  0  0
   33.3413   15.7246   26.2814 C   0  0  0  0  0  0  0  0  0  0  0  0
   32.2436   15.1667   27.1735 C   0  0  2  0  0  0  0  0  0  0  0  0
   32.7214   13.7329   27.4496 C   0  0  2  0  0  0  0  0  0  0  0  0
   30.9986   15.2046   26.4652 O   0  0  0  0  0  0  0  0  0  0  0  0
   29.9091   15.4276   27.2452 C   0  0  0  0  0  0  0  0  0  0  0  0
   28.8004   15.5625   26.4620 N   0  0  0  0  0  0  0  0  0  0  0  0
   29.9118   15.5099   28.4623 O   0  0  0  0  0  0  0  0  0  0  0  0
   27.4915   15.8693   27.0184 C   0  0  2  0  0  0  0  0  0  0  0  0
   26.4595   14.6876   27.0485 C   0  0  0  0  0  0  0  0  0  0  0  0
   26.9396   17.2544   26.5002 C   0  0  0  0  0  0  0  0  0  0  0  0
   26.4955   17.1916   25.0286 C   0  0  0  0  0  0  0  0  0  0  0  0
   28.0347   18.3417   26.6310 C   0  0  0  0  0  0  0  0  0  0  0  0
   25.7384   17.7416   27.3424 C   0  0  0  0  0  0  0  0  0  0  0  0
   25.3565   14.8831   27.5817 O   0  0  0  0  0  0  0  0  0  0  0  0
   26.7349   13.4097   26.5961 N   0  0  0  0  0  0  0  0  0  0  0  0
   26.7670   11.0636   27.0098 C   0  0  1  0  0  0  0  0  0  0  0  0
   25.9414   12.3292   27.1916 C   0  0  0  0  0  0  0  0  0  0  0  0
   27.8306   12.8479   25.7726 C   0  0  1  0  0  0  0  0  0  0  0  0
   27.4798   11.3471   25.7040 C   0  0  0  0  0  0  0  0  0  0  0  0
   27.7900   10.9420   28.0076 O   0  0  0  0  0  0  0  0  0  0  0  0
   27.5148    9.9333   28.8913 C   0  0  0  0  0  0  0  0  0  0  0  0
   26.2935    9.9496   29.4714 N   0  0  0  0  0  0  0  0  0  0  0  0
   26.0502    8.9898   30.3804 C   0  0  0  0  0  0  0  0  0  0  0  0
   27.0337    8.0279   30.7195 C   0  0  0  0  0  0  0  0  0  0  0  0
   28.2489    8.0366   30.1421 N   0  0  0  0  0  0  0  0  0  0  0  0
   28.4892    8.9980   29.2037 C   0  0  0  0  0  0  0  0  0  0  0  0
   26.7306    7.0453   31.6492 C   0  0  0  0  0  0  0  0  0  0  0  0
   25.4748    6.9937   32.2593 C   0  0  0  0  0  0  0  0  0  0  0  0
   24.5105    7.9349   31.9226 C   0  0  0  0  0  0  0  0  0  0  0  0
   24.8049    8.9227   30.9856 C   0  0  0  0  0  0  0  0  0  0  0  0
   29.8094    8.9823   28.4603 C   0  0  0  0  0  0  0  0  0  0  0  0
   30.8198    9.9446   29.0428 C   0  0  0  0  0  0  0  0  0  0  0  0
   31.3552   10.9856   28.3810 C   0  0  0  0  0  0  0  0  0  0  0  0
   32.4365   11.8668   28.9276 C   0  0  0  0  0  0  0  0  0  0  0  0
   32.1341   13.2309   28.6507 O   0  0  0  0  0  0  0  0  0  0  0  0
   29.6441    9.2419   27.1221 F   0  0  0  0  0  0  0  0  0  0  0  0
   30.3861    7.7334   28.4767 F   0  0  0  0  0  0  0  0  0  0  0  0
   27.9032   13.4312   24.3366 C   0  0  0  0  0  0  0  0  0  0  0  0
   28.4017   12.5865   23.3550 N   0  0  0  0  0  0  0  0  0  0  0  0
   27.6192   14.6023   24.0956 O   0  0  0  0  0  0  0  0  0  0  0  0
   28.0560   12.6702   21.9296 C   0  0  2  0  0  0  0  0  0  0  0  0
   28.2514   13.9686   21.1627 C   0  0  0  0  0  0  0  0  0  0  0  0
   26.8535   13.4932   21.4627 C   0  0  1  0  0  0  0  0  0  0  0  0
   28.2825   11.3498   21.2060 C   0  0  0  0  0  0  0  0  0  0  0  0
   29.3607   11.3322   20.3147 N   0  0  0  0  0  0  0  0  0  0  0  0
   27.5654   10.4019   21.4758 O   0  0  0  0  0  0  0  0  0  0  0  0
   29.9652    9.9067   19.6798 S   0  0  0  0  0  0  0  0  0  0  0  0
   30.7225   10.2783   18.0764 C   0  0  0  0  0  0  0  0  0  0  0  0
   28.8723    9.0133   19.3787 O   0  0  0  0  0  0  0  0  0  0  0  0
   31.0562    9.5319   20.5516 O   0  0  0  0  0  0  0  0  0  0  0  0
   31.1991    9.0490   17.3915 C   0  0  0  0  0  0  0  0  0  0  0  0
   31.4428   11.5952   17.9462 C   0  0  0  0  0  0  0  0  0  0  0  0
   30.0853   11.4059   17.3063 C   0  0  0  0  0  0  0  0  0  0  0  0
   25.9482   13.0311   20.3763 C   0  0  0  0  0  0  0  0  0  0  0  0
   24.8689   12.4327   20.9325 F   0  0  0  0  0  0  0  0  0  0  0  0
   25.4904   14.1181   19.7046 F   0  0  0  0  0  0  0  0  0  0  0  0
   34.6143   13.7951   28.5912 H   0  0  0  0  0  0  0  0  0  0  0  0
   34.7411   13.0686   26.9875 H   0  0  0  0  0  0  0  0  0  0  0  0
   34.9004   15.9160   27.7607 H   0  0  0  0  0  0  0  0  0  0  0  0
   35.4504   15.1715   26.2527 H   0  0  0  0  0  0  0  0  0  0  0  0
   33.2579   15.3356   25.2596 H   0  0  0  0  0  0  0  0  0  0  0  0
   33.2974   16.8171   26.2175 H   0  0  0  0  0  0  0  0  0  0  0  0
   32.1978   15.7513   28.1006 H   0  0  0  0  0  0  0  0  0  0  0  0
   32.4461   13.0837   26.6095 H   0  0  0  0  0  0  0  0  0  0  0  0
   28.9008   15.5164   25.4518 H   0  0  0  0  0  0  0  0  0  0  0  0
   27.6601   16.0237   28.0956 H   0  0  0  0  0  0  0  0  0  0  0  0
   25.7695   16.3899   24.8597 H   0  0  0  0  0  0  0  0  0  0  0  0
   26.0209   18.1290   24.7182 H   0  0  0  0  0  0  0  0  0  0  0  0
   27.3468   17.0346   24.3619 H   0  0  0  0  0  0  0  0  0  0  0  0
   27.6569   19.3227   26.3124 H   0  0  0  0  0  0  0  0  0  0  0  0
   28.3689   18.4269   27.6707 H   0  0  0  0  0  0  0  0  0  0  0  0
   28.9097   18.1243   26.0061 H   0  0  0  0  0  0  0  0  0  0  0  0
   25.9716   17.6997   28.4150 H   0  0  0  0  0  0  0  0  0  0  0  0
   24.8369   17.1469   27.1547 H   0  0  0  0  0  0  0  0  0  0  0  0
   25.4809   18.7814   27.1002 H   0  0  0  0  0  0  0  0  0  0  0  0
   26.1385   10.1692   26.9331 H   0  0  0  0  0  0  0  0  0  0  0  0
   25.0031   12.2745   26.6315 H   0  0  0  0  0  0  0  0  0  0  0  0
   25.7330   12.5399   28.2438 H   0  0  0  0  0  0  0  0  0  0  0  0
   28.7822   13.0004   26.2912 H   0  0  0  0  0  0  0  0  0  0  0  0
   26.8003   11.1337   24.8713 H   0  0  0  0  0  0  0  0  0  0  0  0
   28.3795   10.7404   25.5769 H   0  0  0  0  0  0  0  0  0  0  0  0
   27.4851    6.3061   31.9006 H   0  0  0  0  0  0  0  0  0  0  0  0
   25.2558    6.2156   32.9846 H   0  0  0  0  0  0  0  0  0  0  0  0
   23.5243    7.8984   32.3812 H   0  0  0  0  0  0  0  0  0  0  0  0
   24.0466    9.6559   30.7227 H   0  0  0  0  0  0  0  0  0  0  0  0
   31.1688    9.6890   30.0372 H   0  0  0  0  0  0  0  0  0  0  0  0
   31.0153   11.2095   27.3751 H   0  0  0  0  0  0  0  0  0  0  0  0
   33.4056   11.5743   28.5087 H   0  0  0  0  0  0  0  0  0  0  0  0
   32.5035   11.7698   30.0184 H   0  0  0  0  0  0  0  0  0  0  0  0
   28.6739   11.6518   23.6520 H   0  0  0  0  0  0  0  0  0  0  0  0
   28.6044   14.8435   21.7002 H   0  0  0  0  0  0  0  0  0  0  0  0
   28.5702   13.9435   20.1282 H   0  0  0  0  0  0  0  0  0  0  0  0
   26.2803   14.0625   22.1817 H   0  0  0  0  0  0  0  0  0  0  0  0
   30.0738   12.0431   20.4401 H   0  0  0  0  0  0  0  0  0  0  0  0
   31.7442    9.2935   16.4780 H   0  0  0  0  0  0  0  0  0  0  0  0
   30.3601    8.4036   17.1180 H   0  0  0  0  0  0  0  0  0  0  0  0
   31.8785    8.4768   18.0312 H   0  0  0  0  0  0  0  0  0  0  0  0
   32.3068   11.6416   17.2877 H   0  0  0  0  0  0  0  0  0  0  0  0
   31.5287   12.2558   18.7997 H   0  0  0  0  0  0  0  0  0  0  0  0
   29.2346   11.9297   17.7219 H   0  0  0  0  0  0  0  0  0  0  0  0
   30.0400   11.3099   16.2257 H   0  0  0  0  0  0  0  0  0  0  0  0
   26.4052   12.3553   19.6529 H   0  0  0  0  0  0  0  0  0  0  0  0
  1  2  1  0
  2  3  1  0
  4  3  1  0
  4  5  1  0
  5  1  1  0
  4  6  1  0
  6  7  1  0
  7  8  1  0
  7  9  2  0
  8 10  1  0
 10 11  1  0
 10 12  1  0
 12 13  1  0
 12 14  1  0
 12 15  1  0
 11 16  2  0
 11 17  1  0
 19 17  1  0
 17 20  1  0
 18 19  1  0
 20 21  1  0
 18 21  1  0
 18 22  1  0
 22 23  1  0
 23 24  2  0
 28 23  1  0
 24 25  1  0
 26 27  1  0
 27 28  2  0
 26 29  1  0
 25 26  2  0
 32 25  1  0
 29 30  2  0
 30 31  1  0
 31 32  2  0
 28 33  1  0
 33 34  1  0
 34 35  2  0
 35 36  1  0
 36 37  1  0
  5 37  1  0
 33 38  1  0
 33 39  1  0
 20 40  1  0
 40 41  1  0
 40 42  2  0
 43 41  1  1
 43 44  1  0
 45 43  1  0
 44 45  1  0
 43 46  1  0
 46 47  1  0
 46 48  2  0
 47 49  1  0
 49 50  1  0
 49 51  2  0
 49 52  2  0
 50 53  1  0
 50 54  1  0
 55 50  1  0
 54 55  1  0
 45 56  1  0
 56 57  1  0
 56 58  1  0
  1 59  1  0
  1 60  1  0
  2 61  1  0
  2 62  1  0
  3 63  1  0
  3 64  1  0
  4 65  1  1
  5 66  1  6
  8 67  1  0
 10 68  1  6
 13 69  1  0
 13 70  1  0
 13 71  1  0
 14 72  1  0
 14 73  1  0
 14 74  1  0
 15 75  1  0
 15 76  1  0
 15 77  1  0
 18 78  1  1
 19 79  1  0
 19 80  1  0
 20 81  1  6
 21 82  1  0
 21 83  1  0
 29 84  1  0
 30 85  1  0
 31 86  1  0
 32 87  1  0
 34 88  1  0
 35 89  1  0
 36 90  1  0
 36 91  1  0
 41 92  1  0
 44 93  1  0
 44 94  1  0
 45 95  1  1
 47 96  1  0
 53 97  1  0
 53 98  1  0
 53 99  1  0
 54100  1  0
 54101  1  0
 55102  1  0
 55103  1  0
 56104  1  0
M  END
> <Uni-Dock RESULT> 
ENERGY=   -4.019  LOWER_BOUND=    2.639  UPPER_BOUND=    4.683
INTER + INTRA:          -4.019
INTER:                  -4.019
INTRA:                   0.000
UNBOUND:                 0.000

$$$$

     RDKit          3D

104110  0  0  0  0  0  0  0  0999 V2000
   31.6323   17.3156   30.4768 C   0  0  0  0  0  0  0  0  0  0  0  0
   30.2850   18.0090   30.2444 C   0  0  0  0  0  0  0  0  0  0  0  0
   29.5040   17.0838   29.3272 C   0  0  0  0  0  0  0  0  0  0  0  0
   29.9756   15.7030   29.7549 C   0  0  2  0  0  0  0  0  0  0  0  0
   31.4924   15.8913   29.9101 C   0  0  2  0  0  0  0  0  0  0  0  0
   29.6408   14.7554   28.7337 O   0  0  0  0  0  0  0  0  0  0  0  0
   29.3363   13.5130   29.1907 C   0  0  0  0  0  0  0  0  0  0  0  0
   28.9203   12.7291   28.1546 N   0  0  0  0  0  0  0  0  0  0  0  0
   29.4076   13.1462   30.3519 O   0  0  0  0  0  0  0  0  0  0  0  0
   28.4691   11.3600   28.3518 C   0  0  2  0  0  0  0  0  0  0  0  0
   29.4545   10.2333   27.8808 C   0  0  0  0  0  0  0  0  0  0  0  0
   26.9573   11.1713   27.9388 C   0  0  0  0  0  0  0  0  0  0  0  0
   26.7608   11.2040   26.4134 C   0  0  0  0  0  0  0  0  0  0  0  0
   26.0947   12.2956   28.5638 C   0  0  0  0  0  0  0  0  0  0  0  0
   26.3834    9.8367   28.4670 C   0  0  0  0  0  0  0  0  0  0  0  0
   29.1440    9.0519   28.0967 O   0  0  0  0  0  0  0  0  0  0  0  0
   30.6943   10.4772   27.3175 N   0  0  0  0  0  0  0  0  0  0  0  0
   33.0452   10.0909   27.3183 C   0  0  1  0  0  0  0  0  0  0  0  0
   31.6913    9.4115   27.4653 C   0  0  0  0  0  0  0  0  0  0  0  0
   31.3257   11.6975   26.7637 C   0  0  1  0  0  0  0  0  0  0  0  0
   32.7256   11.2044   26.3428 C   0  0  0  0  0  0  0  0  0  0  0  0
   33.4605   10.7288   28.5339 O   0  0  0  0  0  0  0  0  0  0  0  0
   34.5104   10.0703   29.1154 C   0  0  0  0  0  0  0  0  0  0  0  0
   34.3610    8.7408   29.3109 N   0  0  0  0  0  0  0  0  0  0  0  0
   35.3716    8.1104   29.9338 C   0  0  0  0  0  0  0  0  0  0  0  0
   36.5200    8.8134   30.3749 C   0  0  0  0  0  0  0  0  0  0  0  0
   36.6443   10.1395   30.1844 N   0  0  0  0  0  0  0  0  0  0  0  0
   35.6279   10.7764   29.5331 C   0  0  0  0  0  0  0  0  0  0  0  0
   37.5455    8.1175   30.9961 C   0  0  0  0  0  0  0  0  0  0  0  0
   37.4604    6.7378   31.1983 C   0  0  0  0  0  0  0  0  0  0  0  0
   36.3358    6.0495   30.7616 C   0  0  0  0  0  0  0  0  0  0  0  0
   35.3029    6.7401   30.1319 C   0  0  0  0  0  0  0  0  0  0  0  0
   35.7732   12.2502   29.2126 C   0  0  0  0  0  0  0  0  0  0  0  0
   35.0748   13.1384   30.2173 C   0  0  0  0  0  0  0  0  0  0  0  0
   34.0646   13.9769   29.9256 C   0  0  0  0  0  0  0  0  0  0  0  0
   33.4531   14.9333   30.9032 C   0  0  0  0  0  0  0  0  0  0  0  0
   32.0338   14.9019   30.7863 O   0  0  0  0  0  0  0  0  0  0  0  0
   35.3250   12.5434   27.9483 F   0  0  0  0  0  0  0  0  0  0  0  0
   37.0935   12.6353   29.1832 F   0  0  0  0  0  0  0  0  0  0  0  0
   30.5889   12.2852   25.5311 C   0  0  0  0  0  0  0  0  0  0  0  0
   31.3768   12.9573   24.6075 N   0  0  0  0  0  0  0  0  0  0  0  0
   29.3660   12.2363   25.4206 O   0  0  0  0  0  0  0  0  0  0  0  0
   31.0593   13.0863   23.1789 C   0  0  2  0  0  0  0  0  0  0  0  0
   29.7273   13.6686   22.7333 C   0  0  0  0  0  0  0  0  0  0  0  0
   29.9940   12.1998   22.5304 C   0  0  1  0  0  0  0  0  0  0  0  0
   32.2986   13.3634   22.3387 C   0  0  0  0  0  0  0  0  0  0  0  0
   32.3865   14.6550   21.8085 N   0  0  0  0  0  0  0  0  0  0  0  0
   33.1383   12.4874   22.2243 O   0  0  0  0  0  0  0  0  0  0  0  0
   33.8033   15.2478   21.1435 S   0  0  0  0  0  0  0  0  0  0  0  0
   33.3680   16.5068   19.9156 C   0  0  0  0  0  0  0  0  0  0  0  0
   34.4553   14.2025   20.3918 O   0  0  0  0  0  0  0  0  0  0  0  0
   34.4619   15.9581   22.2172 O   0  0  0  0  0  0  0  0  0  0  0  0
   34.5651   17.0188   19.1999 C   0  0  0  0  0  0  0  0  0  0  0  0
   32.1853   17.3876   20.2250 C   0  0  0  0  0  0  0  0  0  0  0  0
   32.0623   16.2848   19.1970 C   0  0  0  0  0  0  0  0  0  0  0  0
   30.1583   11.6288   21.1665 C   0  0  0  0  0  0  0  0  0  0  0  0
   30.6309   10.3651   21.2762 F   0  0  0  0  0  0  0  0  0  0  0  0
   28.9348   11.5402   20.5856 F   0  0  0  0  0  0  0  0  0  0  0  0
   31.8923   17.3266   31.5443 H   0  0  0  0  0  0  0  0  0  0  0  0
   32.4246   17.8570   29.9471 H   0  0  0  0  0  0  0  0  0  0  0  0
   29.7633   18.1150   31.2048 H   0  0  0  0  0  0  0  0  0  0  0  0
   30.3964   19.0122   29.8172 H   0  0  0  0  0  0  0  0  0  0  0  0
   29.7432   17.2761   28.2746 H   0  0  0  0  0  0  0  0  0  0  0  0
   28.4203   17.1963   29.4397 H   0  0  0  0  0  0  0  0  0  0  0  0
   29.5116   15.4425   30.7142 H   0  0  0  0  0  0  0  0  0  0  0  0
   31.9764   15.8143   28.9288 H   0  0  0  0  0  0  0  0  0  0  0  0
   28.8566   13.1330   27.2244 H   0  0  0  0  0  0  0  0  0  0  0  0
   28.4804   11.2019   29.4416 H   0  0  0  0  0  0  0  0  0  0  0  0
   27.4015   10.4743   25.9080 H   0  0  0  0  0  0  0  0  0  0  0  0
   25.7257   10.9686   26.1426 H   0  0  0  0  0  0  0  0  0  0  0  0
   26.9748   12.1947   26.0053 H   0  0  0  0  0  0  0  0  0  0  0  0
   25.0322   12.1593   28.3207 H   0  0  0  0  0  0  0  0  0  0  0  0
   26.1970   12.2968   29.6544 H   0  0  0  0  0  0  0  0  0  0  0  0
   26.3769   13.2883   28.1916 H   0  0  0  0  0  0  0  0  0  0  0  0
   26.5971    9.7169   29.5378 H   0  0  0  0  0  0  0  0  0  0  0  0
   26.7897    8.9729   27.9282 H   0  0  0  0  0  0  0  0  0  0  0  0
   25.2931    9.7970   28.3406 H   0  0  0  0  0  0  0  0  0  0  0  0
   33.8044    9.4130   26.9123 H   0  0  0  0  0  0  0  0  0  0  0  0
   31.5171    8.6953   26.6566 H   0  0  0  0  0  0  0  0  0  0  0  0
   31.5811    8.9130   28.4318 H   0  0  0  0  0  0  0  0  0  0  0  0
   31.4013   12.4511   27.5538 H   0  0  0  0  0  0  0  0  0  0  0  0
   32.7163   10.7976   25.3255 H   0  0  0  0  0  0  0  0  0  0  0  0
   33.4545   12.0173   26.3807 H   0  0  0  0  0  0  0  0  0  0  0  0
   38.4266    8.6595   31.3260 H   0  0  0  0  0  0  0  0  0  0  0  0
   38.2746    6.2099   31.6860 H   0  0  0  0  0  0  0  0  0  0  0  0
   36.2624    4.9729   30.9018 H   0  0  0  0  0  0  0  0  0  0  0  0
   34.4256    6.1975   29.7891 H   0  0  0  0  0  0  0  0  0  0  0  0
   35.5071   13.1259   31.2116 H   0  0  0  0  0  0  0  0  0  0  0  0
   33.6633   13.9977   28.9176 H   0  0  0  0  0  0  0  0  0  0  0  0
   33.8501   15.9412   30.7396 H   0  0  0  0  0  0  0  0  0  0  0  0
   33.6949   14.6444   31.9337 H   0  0  0  0  0  0  0  0  0  0  0  0
   32.3735   13.0066   24.8074 H   0  0  0  0  0  0  0  0  0  0  0  0
   28.9980   13.9409   23.4904 H   0  0  0  0  0  0  0  0  0  0  0  0
   29.6767   14.2885   21.8470 H   0  0  0  0  0  0  0  0  0  0  0  0
   29.4303   11.5053   23.1383 H   0  0  0  0  0  0  0  0  0  0  0  0
   31.8271   15.3751   22.2538 H   0  0  0  0  0  0  0  0  0  0  0  0
   34.3042   17.8471   18.5387 H   0  0  0  0  0  0  0  0  0  0  0  0
   35.0209   16.2344   18.5897 H   0  0  0  0  0  0  0  0  0  0  0  0
   35.3186   17.3893   19.9021 H   0  0  0  0  0  0  0  0  0  0  0  0
   32.2035   18.4126   19.8629 H   0  0  0  0  0  0  0  0  0  0  0  0
   31.6600   17.2833   21.1660 H   0  0  0  0  0  0  0  0  0  0  0  0
   31.4585   15.4178   19.4310 H   0  0  0  0  0  0  0  0  0  0  0  0
   32.0141   16.5672   18.1497 H   0  0  0  0  0  0  0  0  0  0  0  0
   30.8061   12.2021   20.5027 H   0  0  0  0  0  0  0  0  0  0  0  0
  1  2  1  0
  2  3  1  0
  4  3  1  0
  4  5  1  0
  5  1  1  0
  4  6  1  0
  6  7  1  0
  7  8  1  0
  7  9  2  0
  8 10  1  0
 10 11  1  0
 10 12  1  0
 12 13  1  0
 12 14  1  0
 12 15  1  0
 11 16  2  0
 11 17  1  0
 19 17  1  0
 17 20  1  0
 18 19  1  0
 20 21  1  0
 18 21  1  0
 18 22  1  0
 22 23  1  0
 23 24  2  0
 28 23  1  0
 24 25  1  0
 26 27  1  0
 27 28  2  0
 26 29  1  0
 25 26  2  0
 32 25  1  0
 29 30  2  0
 30 31  1  0
 31 32  2  0
 28 33  1  0
 33 34  1  0
 34 35  2  0
 35 36  1  0
 36 37  1  0
  5 37  1  0
 33 38  1  0
 33 39  1  0
 20 40  1  0
 40 41  1  0
 40 42  2  0
 43 41  1  1
 43 44  1  0
 45 43  1  0
 44 45  1  0
 43 46  1  0
 46 47  1  0
 46 48  2  0
 47 49  1  0
 49 50  1  0
 49 51  2  0
 49 52  2  0
 50 53  1  0
 50 54  1  0
 55 50  1  0
 54 55  1  0
 45 56  1  0
 56 57  1  0
 56 58  1  0
  1 59  1  0
  1 60  1  0
  2 61  1  0
  2 62  1  0
  3 63  1  0
  3 64  1  0
  4 65  1  1
  5 66  1  6
  8 67  1  0
 10 68  1  6
 13 69  1  0
 13 70  1  0
 13 71  1  0
 14 72  1  0
 14 73  1  0
 14 74  1  0
 15 75  1  0
 15 76  1  0
 15 77  1  0
 18 78  1  1
 19 79  1  0
 19 80  1  0
 20 81  1  6
 21 82  1  0
 21 83  1  0
 29 84  1  0
 30 85  1  0
 31 86  1  0
 32 87  1  0
 34 88  1  0
 35 89  1  0
 36 90  1  0
 36 91  1  0
 41 92  1  0
 44 93  1  0
 44 94  1  0
 45 95  1  1
 47 96  1  0
 53 97  1  0
 53 98  1  0
 53 99  1  0
 54100  1  0
 54101  1  0
 55102  1  0
 55103  1  0
 56104  1  0
M  END
> <Uni-Dock RESULT> 
ENERGY=   -4.006  LOWER_BOUND=    3.688  UPPER_BOUND=    8.341
INTER + INTRA:          -4.006
INTER:                  -4.006
INTRA:                   0.000
UNBOUND:                 0.000

$$$$

     RDKit          3D

104110  0  0  0  0  0  0  0  0999 V2000
   29.4721   14.0126   33.5763 C   0  0  0  0  0  0  0  0  0  0  0  0
   29.5386   15.5437   33.6139 C   0  0  0  0  0  0  0  0  0  0  0  0
   28.5971   16.0189   32.5207 C   0  0  0  0  0  0  0  0  0  0  0  0
   27.5050   14.9609   32.5285 C   0  0  2  0  0  0  0  0  0  0  0  0
   28.2978   13.6505   32.6494 C   0  0  2  0  0  0  0  0  0  0  0  0
   26.7626   15.0437   31.3058 O   0  0  0  0  0  0  0  0  0  0  0  0
   25.4450   14.7341   31.4205 C   0  0  0  0  0  0  0  0  0  0  0  0
   24.8129   14.9590   30.2327 N   0  0  0  0  0  0  0  0  0  0  0  0
   24.8962   14.3280   32.4314 O   0  0  0  0  0  0  0  0  0  0  0  0
   23.3790   14.7724   30.0707 C   0  0  2  0  0  0  0  0  0  0  0  0
   22.9347   13.5058   29.2580 C   0  0  0  0  0  0  0  0  0  0  0  0
   22.6461   16.1209   29.7020 C   0  0  0  0  0  0  0  0  0  0  0  0
   22.9309   16.5633   28.2564 C   0  0  0  0  0  0  0  0  0  0  0  0
   23.1075   17.2508   30.6555 C   0  0  0  0  0  0  0  0  0  0  0  0
   21.1143   16.0037   29.8738 C   0  0  0  0  0  0  0  0  0  0  0  0
   21.7217   13.2664   29.1581 O   0  0  0  0  0  0  0  0  0  0  0  0
   23.8159   12.5858   28.7186 N   0  0  0  0  0  0  0  0  0  0  0  0
   24.5078   10.3175   28.4900 C   0  0  1  0  0  0  0  0  0  0  0  0
   23.2909   11.2311   28.5162 C   0  0  0  0  0  0  0  0  0  0  0  0
   25.2789   12.6089   28.4879 C   0  0  1  0  0  0  0  0  0  0  0  0
   25.5565   11.2206   27.8750 C   0  0  0  0  0  0  0  0  0  0  0  0
   24.9721   10.0037   29.8102 O   0  0  0  0  0  0  0  0  0  0  0  0
   24.7275    8.6961   30.1330 C   0  0  0  0  0  0  0  0  0  0  0  0
   23.4606    8.2550   29.9645 N   0  0  0  0  0  0  0  0  0  0  0  0
   23.2140    6.9872   30.3369 C   0  0  0  0  0  0  0  0  0  0  0  0
   24.2296    6.1703   30.8926 C   0  0  0  0  0  0  0  0  0  0  0  0
   25.4814    6.6317   31.0663 N   0  0  0  0  0  0  0  0  0  0  0  0
   25.7375    7.9120   30.6688 C   0  0  0  0  0  0  0  0  0  0  0  0
   23.9328    4.8627   31.2446 C   0  0  0  0  0  0  0  0  0  0  0  0
   22.6487    4.3423   31.0654 C   0  0  0  0  0  0  0  0  0  0  0  0
   21.6554    5.1431   30.5166 C   0  0  0  0  0  0  0  0  0  0  0  0
   21.9462    6.4566   30.1554 C   0  0  0  0  0  0  0  0  0  0  0  0
   27.1563    8.4365   30.7571 C   0  0  0  0  0  0  0  0  0  0  0  0
   27.3988    9.2597   32.0019 C   0  0  0  0  0  0  0  0  0  0  0  0
   27.7525   10.5572   32.0045 C   0  0  0  0  0  0  0  0  0  0  0  0
   28.0984   11.3348   33.2375 C   0  0  0  0  0  0  0  0  0  0  0  0
   27.4764   12.6154   33.1912 O   0  0  0  0  0  0  0  0  0  0  0  0
   27.4993    9.1680   29.6468 F   0  0  0  0  0  0  0  0  0  0  0  0
   28.0759    7.4134   30.7648 F   0  0  0  0  0  0  0  0  0  0  0  0
   25.7450   13.7145   27.5038 C   0  0  0  0  0  0  0  0  0  0  0  0
   26.8822   13.4346   26.7596 N   0  0  0  0  0  0  0  0  0  0  0  0
   25.1922   14.8105   27.4487 O   0  0  0  0  0  0  0  0  0  0  0  0
   27.1762   14.0088   25.4397 C   0  0  2  0  0  0  0  0  0  0  0  0
   27.2005   15.5162   25.2414 C   0  0  0  0  0  0  0  0  0  0  0  0
   26.0837   14.7105   24.6302 C   0  0  1  0  0  0  0  0  0  0  0  0
   28.1482   13.1486   24.6436 C   0  0  0  0  0  0  0  0  0  0  0  0
   29.4304   13.6849   24.4835 N   0  0  0  0  0  0  0  0  0  0  0  0
   27.7784   12.0561   24.2496 O   0  0  0  0  0  0  0  0  0  0  0  0
   30.7155   12.7652   23.9328 S   0  0  0  0  0  0  0  0  0  0  0  0
   31.8970   13.8734   23.1213 C   0  0  0  0  0  0  0  0  0  0  0  0
   30.2592   11.8776   22.8903 O   0  0  0  0  0  0  0  0  0  0  0  0
   31.3812   12.2862   25.1237 O   0  0  0  0  0  0  0  0  0  0  0  0
   33.0271   13.1264   22.5113 C   0  0  0  0  0  0  0  0  0  0  0  0
   32.0771   15.2435   23.7219 C   0  0  0  0  0  0  0  0  0  0  0  0
   31.2937   15.0739   22.4391 C   0  0  0  0  0  0  0  0  0  0  0  0
   25.9645   14.5558   23.1553 C   0  0  0  0  0  0  0  0  0  0  0  0
   25.0462   13.5974   22.8897 F   0  0  0  0  0  0  0  0  0  0  0  0
   25.4824   15.7142   22.6376 F   0  0  0  0  0  0  0  0  0  0  0  0
   29.3558   13.6068   34.5907 H   0  0  0  0  0  0  0  0  0  0  0  0
   30.4089   13.6101   33.1742 H   0  0  0  0  0  0  0  0  0  0  0  0
   29.1872   15.8962   34.5926 H   0  0  0  0  0  0  0  0  0  0  0  0
   30.5567   15.9240   33.4726 H   0  0  0  0  0  0  0  0  0  0  0  0
   29.1054   16.0571   31.5500 H   0  0  0  0  0  0  0  0  0  0  0  0
   28.1957   17.0190   32.7166 H   0  0  0  0  0  0  0  0  0  0  0  0
   26.8599   15.1122   33.4028 H   0  0  0  0  0  0  0  0  0  0  0  0
   28.6626   13.3471   31.6604 H   0  0  0  0  0  0  0  0  0  0  0  0
   25.3454   15.3352   29.4533 H   0  0  0  0  0  0  0  0  0  0  0  0
   23.0018   14.5172   31.0734 H   0  0  0  0  0  0  0  0  0  0  0  0
   22.6891   15.7739   27.5375 H   0  0  0  0  0  0  0  0  0  0  0  0
   22.3338   17.4412   27.9863 H   0  0  0  0  0  0  0  0  0  0  0  0
   23.9787   16.8433   28.1246 H   0  0  0  0  0  0  0  0  0  0  0  0
   22.5785   18.1892   30.4405 H   0  0  0  0  0  0  0  0  0  0  0  0
   22.9085   16.9788   31.6978 H   0  0  0  0  0  0  0  0  0  0  0  0
   24.1788   17.4644   30.5551 H   0  0  0  0  0  0  0  0  0  0  0  0
   20.8632   15.5856   30.8581 H   0  0  0  0  0  0  0  0  0  0  0  0
   20.6607   15.3755   29.0985 H   0  0  0  0  0  0  0  0  0  0  0  0
   20.6311   16.9871   29.7990 H   0  0  0  0  0  0  0  0  0  0  0  0
   24.3407    9.4264   27.8745 H   0  0  0  0  0  0  0  0  0  0  0  0
   22.7725   11.2290   27.5526 H   0  0  0  0  0  0  0  0  0  0  0  0
   22.5916   10.9664   29.3136 H   0  0  0  0  0  0  0  0  0  0  0  0
   25.7910   12.7179   29.4490 H   0  0  0  0  0  0  0  0  0  0  0  0
   25.4264   11.2314   26.7871 H   0  0  0  0  0  0  0  0  0  0  0  0
   26.5747   10.8919   28.0957 H   0  0  0  0  0  0  0  0  0  0  0  0
   24.7161    4.2384   31.6635 H   0  0  0  0  0  0  0  0  0  0  0  0
   22.4358    3.3150   31.3463 H   0  0  0  0  0  0  0  0  0  0  0  0
   20.6544    4.7462   30.3602 H   0  0  0  0  0  0  0  0  0  0  0  0
   21.1669    7.0794   29.7237 H   0  0  0  0  0  0  0  0  0  0  0  0
   27.3540    8.7018   32.9306 H   0  0  0  0  0  0  0  0  0  0  0  0
   27.8212   11.0929   31.0634 H   0  0  0  0  0  0  0  0  0  0  0  0
   29.1864   11.4169   33.3355 H   0  0  0  0  0  0  0  0  0  0  0  0
   27.7214   10.8291   34.1352 H   0  0  0  0  0  0  0  0  0  0  0  0
   27.3163   12.5268   26.9126 H   0  0  0  0  0  0  0  0  0  0  0  0
   26.9488   16.1566   26.0813 H   0  0  0  0  0  0  0  0  0  0  0  0
   27.9171   15.9614   24.5626 H   0  0  0  0  0  0  0  0  0  0  0  0
   25.0959   14.8324   25.0533 H   0  0  0  0  0  0  0  0  0  0  0  0
   29.7127   14.4074   25.1378 H   0  0  0  0  0  0  0  0  0  0  0  0
   33.7826   13.8083   22.1169 H   0  0  0  0  0  0  0  0  0  0  0  0
   32.6804   12.4980   21.6865 H   0  0  0  0  0  0  0  0  0  0  0  0
   33.5218   12.4849   23.2475 H   0  0  0  0  0  0  0  0  0  0  0  0
   33.0590   15.7057   23.6539 H   0  0  0  0  0  0  0  0  0  0  0  0
   31.5454   15.5166   24.6247 H   0  0  0  0  0  0  0  0  0  0  0  0
   30.2222   15.2232   22.4581 H   0  0  0  0  0  0  0  0  0  0  0  0
   31.7536   15.4060   21.5133 H   0  0  0  0  0  0  0  0  0  0  0  0
   26.8960   14.3183   22.6409 H   0  0  0  0  0  0  0  0  0  0  0  0
  1  2  1  0
  2  3  1  0
  4  3  1  0
  4  5  1  0
  5  1  1  0
  4  6  1  0
  6  7  1  0
  7  8  1  0
  7  9  2  0
  8 10  1  0
 10 11  1  0
 10 12  1  0
 12 13  1  0
 12 14  1  0
 12 15  1  0
 11 16  2  0
 11 17  1  0
 19 17  1  0
 17 20  1  0
 18 19  1  0
 20 21  1  0
 18 21  1  0
 18 22  1  0
 22 23  1  0
 23 24  2  0
 28 23  1  0
 24 25  1  0
 26 27  1  0
 27 28  2  0
 26 29  1  0
 25 26  2  0
 32 25  1  0
 29 30  2  0
 30 31  1  0
 31 32  2  0
 28 33  1  0
 33 34  1  0
 34 35  2  0
 35 36  1  0
 36 37  1  0
  5 37  1  0
 33 38  1  0
 33 39  1  0
 20 40  1  0
 40 41  1  0
 40 42  2  0
 43 41  1  1
 43 44  1  0
 45 43  1  0
 44 45  1  0
 43 46  1  0
 46 47  1  0
 46 48  2  0
 47 49  1  0
 49 50  1  0
 49 51  2  0
 49 52  2  0
 50 53  1  0
 50 54  1  0
 55 50  1  0
 54 55  1  0
 45 56  1  0
 56 57  1  0
 56 58  1  0
  1 59  1  0
  1 60  1  0
  2 61  1  0
  2 62  1  0
  3 63  1  0
  3 64  1  0
  4 65  1  1
  5 66  1  6
  8 67  1  0
 10 68  1  6
 13 69  1  0
 13 70  1  0
 13 71  1  0
 14 72  1  0
 14 73  1  0
 14 74  1  0
 15 75  1  0
 15 76  1  0
 15 77  1  0
 18 78  1  1
 19 79  1  0
 19 80  1  0
 20 81  1  6
 21 82  1  0
 21 83  1  0
 29 84  1  0
 30 85  1  0
 31 86  1  0
 32 87  1  0
 34 88  1  0
 35 89  1  0
 36 90  1  0
 36 91  1  0
 41 92  1  0
 44 93  1  0
 44 94  1  0
 45 95  1  1
 47 96  1  0
 53 97  1  0
 53 98  1  0
 53 99  1  0
 54100  1  0
 54101  1  0
 55102  1  0
 55103  1  0
 56104  1  0
M  END
> <Uni-Dock RESULT> 
ENERGY=   -3.985  LOWER_BOUND=    4.072  UPPER_BOUND=    7.277
INTER + INTRA:          -3.985
INTER:                  -3.985
INTRA:                   0.000
UNBOUND:                 0.000

$$$$

     RDKit          3D

104110  0  0  0  0  0  0  0  0999 V2000
   27.2274   18.2579   27.1074 C   0  0  0  0  0  0  0  0  0  0  0  0
   27.8248   19.5250   27.7301 C   0  0  0  0  0  0  0  0  0  0  0  0
   29.3303   19.3281   27.6883 C   0  0  0  0  0  0  0  0  0  0  0  0
   29.5331   18.5231   26.4144 C   0  0  2  0  0  0  0  0  0  0  0  0
   28.4020   17.4854   26.4808 C   0  0  2  0  0  0  0  0  0  0  0  0
   30.8333   17.9217   26.4412 O   0  0  0  0  0  0  0  0  0  0  0  0
   31.4266   17.7996   25.2253 C   0  0  0  0  0  0  0  0  0  0  0  0
   32.6980   17.3289   25.3773 N   0  0  0  0  0  0  0  0  0  0  0  0
   30.9143   18.0781   24.1539 O   0  0  0  0  0  0  0  0  0  0  0  0
   33.5990   17.1533   24.2484 C   0  0  2  0  0  0  0  0  0  0  0  0
   33.8611   15.6733   23.7976 C   0  0  0  0  0  0  0  0  0  0  0  0
   34.8746   18.0762   24.3621 C   0  0  0  0  0  0  0  0  0  0  0  0
   35.8522   17.5894   25.4456 C   0  0  0  0  0  0  0  0  0  0  0  0
   34.4494   19.5249   24.7070 C   0  0  0  0  0  0  0  0  0  0  0  0
   35.6438   18.1544   23.0235 C   0  0  0  0  0  0  0  0  0  0  0  0
   34.5635   15.4796   22.7936 O   0  0  0  0  0  0  0  0  0  0  0  0
   33.2836   14.5690   24.3981 N   0  0  0  0  0  0  0  0  0  0  0  0
   32.0314   12.5536   24.1832 C   0  0  1  0  0  0  0  0  0  0  0  0
   33.1516   13.3732   23.5590 C   0  0  0  0  0  0  0  0  0  0  0  0
   32.5546   14.3835   25.6742 C   0  0  1  0  0  0  0  0  0  0  0  0
   32.1912   12.8843   25.6525 C   0  0  0  0  0  0  0  0  0  0  0  0
   30.7360   13.0363   23.8014 O   0  0  0  0  0  0  0  0  0  0  0  0
   30.1047   12.1680   22.9521 C   0  0  0  0  0  0  0  0  0  0  0  0
   30.7982   11.7730   21.8606 N   0  0  0  0  0  0  0  0  0  0  0  0
   30.1524   10.9658   21.0014 C   0  0  0  0  0  0  0  0  0  0  0  0
   28.8105   10.5705   21.2265 C   0  0  0  0  0  0  0  0  0  0  0  0
   28.1316   10.9859   22.3112 N   0  0  0  0  0  0  0  0  0  0  0  0
   28.7936   11.7883   23.1948 C   0  0  0  0  0  0  0  0  0  0  0  0
   28.1917    9.7216   20.3219 C   0  0  0  0  0  0  0  0  0  0  0  0
   28.8684    9.2565   19.1916 C   0  0  0  0  0  0  0  0  0  0  0  0
   30.1851    9.6416   18.9747 C   0  0  0  0  0  0  0  0  0  0  0  0
   30.8162   10.4903   19.8812 C   0  0  0  0  0  0  0  0  0  0  0  0
   28.0969   12.1977   24.4765 C   0  0  0  0  0  0  0  0  0  0  0  0
   27.4791   13.5751   24.3918 C   0  0  0  0  0  0  0  0  0  0  0  0
   27.8234   14.6175   25.1686 C   0  0  0  0  0  0  0  0  0  0  0  0
   27.1306   15.9457   25.1537 C   0  0  0  0  0  0  0  0  0  0  0  0
   28.0950   16.9938   25.1755 O   0  0  0  0  0  0  0  0  0  0  0  0
   28.9416   12.1372   25.5575 F   0  0  0  0  0  0  0  0  0  0  0  0
   27.0881   11.3229   24.8074 F   0  0  0  0  0  0  0  0  0  0  0  0
   33.4023   14.6949   26.9361 C   0  0  0  0  0  0  0  0  0  0  0  0
   33.0818   13.9819   28.0826 N   0  0  0  0  0  0  0  0  0  0  0  0
   34.2506   15.5839   26.9460 O   0  0  0  0  0  0  0  0  0  0  0  0
   34.0273   13.6747   29.1642 C   0  0  2  0  0  0  0  0  0  0  0  0
   34.7968   14.7885   29.8567 C   0  0  0  0  0  0  0  0  0  0  0  0
   35.5348   13.8335   28.9549 C   0  0  1  0  0  0  0  0  0  0  0  0
   33.5907   12.4667   29.9818 C   0  0  0  0  0  0  0  0  0  0  0  0
   33.1474   12.7492   31.2783 N   0  0  0  0  0  0  0  0  0  0  0  0
   33.6047   11.3666   29.4573 O   0  0  0  0  0  0  0  0  0  0  0  0
   32.3311   11.6189   32.2040 S   0  0  0  0  0  0  0  0  0  0  0  0
   32.6292   11.9971   33.9505 C   0  0  0  0  0  0  0  0  0  0  0  0
   32.9171   10.3161   31.9985 O   0  0  0  0  0  0  0  0  0  0  0  0
   30.9271   11.8825   31.9795 O   0  0  0  0  0  0  0  0  0  0  0  0
   32.0216   10.9810   34.8481 C   0  0  0  0  0  0  0  0  0  0  0  0
   32.7137   13.4520   34.3332 C   0  0  0  0  0  0  0  0  0  0  0  0
   33.9697   12.6122   34.2592 C   0  0  0  0  0  0  0  0  0  0  0  0
   36.5196   12.8626   29.5034 C   0  0  0  0  0  0  0  0  0  0  0  0
   36.8410   11.9727   28.5354 F   0  0  0  0  0  0  0  0  0  0  0  0
   37.6588   13.5323   29.8135 F   0  0  0  0  0  0  0  0  0  0  0  0
   26.4492   18.5177   26.3765 H   0  0  0  0  0  0  0  0  0  0  0  0
   26.7488   17.6521   27.8854 H   0  0  0  0  0  0  0  0  0  0  0  0
   27.5419   20.3940   27.1214 H   0  0  0  0  0  0  0  0  0  0  0  0
   27.4624   19.7040   28.7488 H   0  0  0  0  0  0  0  0  0  0  0  0
   29.6814   18.7746   28.5673 H   0  0  0  0  0  0  0  0  0  0  0  0
   29.8780   20.2763   27.6616 H   0  0  0  0  0  0  0  0  0  0  0  0
   29.4115   19.1820   25.5459 H   0  0  0  0  0  0  0  0  0  0  0  0
   28.7047   16.6499   27.1238 H   0  0  0  0  0  0  0  0  0  0  0  0
   33.0535   17.1603   26.3141 H   0  0  0  0  0  0  0  0  0  0  0  0
   33.0529   17.5418   23.3746 H   0  0  0  0  0  0  0  0  0  0  0  0
   36.1351   16.5429   25.2936 H   0  0  0  0  0  0  0  0  0  0  0  0
   36.7756   18.1787   25.4390 H   0  0  0  0  0  0  0  0  0  0  0  0
   35.4219   17.6907   26.4448 H   0  0  0  0  0  0  0  0  0  0  0  0
   35.3210   20.1921   24.7512 H   0  0  0  0  0  0  0  0  0  0  0  0
   33.7611   19.9139   23.9488 H   0  0  0  0  0  0  0  0  0  0  0  0
   33.9553   19.5890   25.6843 H   0  0  0  0  0  0  0  0  0  0  0  0
   34.9625   18.3933   22.1956 H   0  0  0  0  0  0  0  0  0  0  0  0
   36.1631   17.2170   22.7927 H   0  0  0  0  0  0  0  0  0  0  0  0
   36.4139   18.9368   23.0546 H   0  0  0  0  0  0  0  0  0  0  0  0
   32.1561   11.4801   24.0019 H   0  0  0  0  0  0  0  0  0  0  0  0
   34.1065   12.8411   23.6069 H   0  0  0  0  0  0  0  0  0  0  0  0
   32.9340   13.6513   22.5245 H   0  0  0  0  0  0  0  0  0  0  0  0
   31.6515   15.0016   25.6635 H   0  0  0  0  0  0  0  0  0  0  0  0
   32.9974   12.2720   26.0718 H   0  0  0  0  0  0  0  0  0  0  0  0
   31.2814   12.6938   26.2266 H   0  0  0  0  0  0  0  0  0  0  0  0
   27.1657    9.4158   20.5024 H   0  0  0  0  0  0  0  0  0  0  0  0
   28.3670    8.5911   18.4949 H   0  0  0  0  0  0  0  0  0  0  0  0
   30.7275    9.2766   18.1048 H   0  0  0  0  0  0  0  0  0  0  0  0
   31.8477   10.7873   19.7094 H   0  0  0  0  0  0  0  0  0  0  0  0
   26.6484   13.6578   23.6998 H   0  0  0  0  0  0  0  0  0  0  0  0
   28.6382   14.5082   25.8768 H   0  0  0  0  0  0  0  0  0  0  0  0
   26.4376   16.0162   25.9993 H   0  0  0  0  0  0  0  0  0  0  0  0
   26.5456   16.0694   24.2338 H   0  0  0  0  0  0  0  0  0  0  0  0
   32.3225   13.3087   28.0045 H   0  0  0  0  0  0  0  0  0  0  0  0
   34.6700   15.8074   29.5036 H   0  0  0  0  0  0  0  0  0  0  0  0
   35.0032   14.7252   30.9178 H   0  0  0  0  0  0  0  0  0  0  0  0
   35.9090   14.2251   28.0188 H   0  0  0  0  0  0  0  0  0  0  0  0
   32.8536   13.7019   31.4675 H   0  0  0  0  0  0  0  0  0  0  0  0
   32.1179   11.2728   35.8955 H   0  0  0  0  0  0  0  0  0  0  0  0
   32.5085   10.0098   34.7253 H   0  0  0  0  0  0  0  0  0  0  0  0
   30.9535   10.8582   34.6426 H   0  0  0  0  0  0  0  0  0  0  0  0
   32.3603   13.7418   35.3198 H   0  0  0  0  0  0  0  0  0  0  0  0
   32.5570   14.2212   33.5876 H   0  0  0  0  0  0  0  0  0  0  0  0
   34.6751   12.7971   33.4598 H   0  0  0  0  0  0  0  0  0  0  0  0
   34.4476   12.3266   35.1914 H   0  0  0  0  0  0  0  0  0  0  0  0
   36.1903   12.3269   30.3941 H   0  0  0  0  0  0  0  0  0  0  0  0
  1  2  1  0
  2  3  1  0
  4  3  1  0
  4  5  1  0
  5  1  1  0
  4  6  1  0
  6  7  1  0
  7  8  1  0
  7  9  2  0
  8 10  1  0
 10 11  1  0
 10 12  1  0
 12 13  1  0
 12 14  1  0
 12 15  1  0
 11 16  2  0
 11 17  1  0
 19 17  1  0
 17 20  1  0
 18 19  1  0
 20 21  1  0
 18 21  1  0
 18 22  1  0
 22 23  1  0
 23 24  2  0
 28 23  1  0
 24 25  1  0
 26 27  1  0
 27 28  2  0
 26 29  1  0
 25 26  2  0
 32 25  1  0
 29 30  2  0
 30 31  1  0
 31 32  2  0
 28 33  1  0
 33 34  1  0
 34 35  2  0
 35 36  1  0
 36 37  1  0
  5 37  1  0
 33 38  1  0
 33 39  1  0
 20 40  1  0
 40 41  1  0
 40 42  2  0
 43 41  1  1
 43 44  1  0
 45 43  1  0
 44 45  1  0
 43 46  1  0
 46 47  1  0
 46 48  2  0
 47 49  1  0
 49 50  1  0
 49 51  2  0
 49 52  2  0
 50 53  1  0
 50 54  1  0
 55 50  1  0
 54 55  1  0
 45 56  1  0
 56 57  1  0
 56 58  1  0
  1 59  1  0
  1 60  1  0
  2 61  1  0
  2 62  1  0
  3 63  1  0
  3 64  1  0
  4 65  1  1
  5 66  1  6
  8 67  1  0
 10 68  1  6
 13 69  1  0
 13 70  1  0
 13 71  1  0
 14 72  1  0
 14 73  1  0
 14 74  1  0
 15 75  1  0
 15 76  1  0
 15 77  1  0
 18 78  1  1
 19 79  1  0
 19 80  1  0
 20 81  1  6
 21 82  1  0
 21 83  1  0
 29 84  1  0
 30 85  1  0
 31 86  1  0
 32 87  1  0
 34 88  1  0
 35 89  1  0
 36 90  1  0
 36 91  1  0
 41 92  1  0
 44 93  1  0
 44 94  1  0
 45 95  1  1
 47 96  1  0
 53 97  1  0
 53 98  1  0
 53 99  1  0
 54100  1  0
 54101  1  0
 55102  1  0
 55103  1  0
 56104  1  0
M  END
> <Uni-Dock RESULT> 
ENERGY=   -3.763  LOWER_BOUND=    4.333  UPPER_BOUND=    9.353
INTER + INTRA:          -3.763
INTER:                  -3.763
INTRA:                   0.000
UNBOUND:                 0.000

$$$$

     RDKit          3D

104110  0  0  0  0  0  0  0  0999 V2000
   27.2542   12.8624   25.6342 C   0  0  0  0  0  0  0  0  0  0  0  0
   28.4577   13.6353   25.0826 C   0  0  0  0  0  0  0  0  0  0  0  0
   29.6083   13.3229   26.0238 C   0  0  0  0  0  0  0  0  0  0  0  0
   29.3172   11.8939   26.4543 C   0  0  2  0  0  0  0  0  0  0  0  0
   27.8036   11.9162   26.7169 C   0  0  2  0  0  0  0  0  0  0  0  0
   30.0753   11.5952   27.6329 O   0  0  0  0  0  0  0  0  0  0  0  0
   30.4862   10.3041   27.7307 C   0  0  0  0  0  0  0  0  0  0  0  0
   31.2937   10.1579   28.8204 N   0  0  0  0  0  0  0  0  0  0  0  0
   30.1942    9.4055   26.9591 O   0  0  0  0  0  0  0  0  0  0  0  0
   31.9339    8.8925   29.1460 C   0  0  2  0  0  0  0  0  0  0  0  0
   31.3350    8.1094   30.3668 C   0  0  0  0  0  0  0  0  0  0  0  0
   33.5081    8.9980   29.0990 C   0  0  0  0  0  0  0  0  0  0  0  0
   34.0752    9.7936   30.2874 C   0  0  0  0  0  0  0  0  0  0  0  0
   33.9519    9.6974   27.7903 C   0  0  0  0  0  0  0  0  0  0  0  0
   34.1740    7.6029   29.0954 C   0  0  0  0  0  0  0  0  0  0  0  0
   31.8010    6.9914   30.6346 O   0  0  0  0  0  0  0  0  0  0  0  0
   30.2558    8.5490   31.1123 N   0  0  0  0  0  0  0  0  0  0  0  0
   28.1007    8.1152   32.0307 C   0  0  1  0  0  0  0  0  0  0  0  0
   29.4773    7.5102   31.7954 C   0  0  0  0  0  0  0  0  0  0  0  0
   29.5638    9.8552   31.2080 C   0  0  1  0  0  0  0  0  0  0  0  0
   28.4378    9.5787   32.2257 C   0  0  0  0  0  0  0  0  0  0  0  0
   27.2763    8.0455   30.8593 O   0  0  0  0  0  0  0  0  0  0  0  0
   26.2595    7.1416   31.0115 C   0  0  0  0  0  0  0  0  0  0  0  0
   26.6064    5.8987   31.4152 N   0  0  0  0  0  0  0  0  0  0  0  0
   25.6109    5.0002   31.5077 C   0  0  0  0  0  0  0  0  0  0  0  0
   24.2755    5.3416   31.1797 C   0  0  0  0  0  0  0  0  0  0  0  0
   23.9519    6.5801   30.7654 N   0  0  0  0  0  0  0  0  0  0  0  0
   24.9587    7.4986   30.6916 C   0  0  0  0  0  0  0  0  0  0  0  0
   23.2790    4.3865   31.3085 C   0  0  0  0  0  0  0  0  0  0  0  0
   23.5728    3.0941   31.7501 C   0  0  0  0  0  0  0  0  0  0  0  0
   24.8818    2.7623   32.0753 C   0  0  0  0  0  0  0  0  0  0  0  0
   25.8885    3.7173   31.9536 C   0  0  0  0  0  0  0  0  0  0  0  0
   24.6198    8.9289   30.3237 C   0  0  0  0  0  0  0  0  0  0  0  0
   24.8569    9.2279   28.8606 C   0  0  0  0  0  0  0  0  0  0  0  0
   25.7279   10.1419   28.3975 C   0  0  0  0  0  0  0  0  0  0  0  0
   25.8764   10.5097   26.9529 C   0  0  0  0  0  0  0  0  0  0  0  0
   27.2577   10.6003   26.6170 O   0  0  0  0  0  0  0  0  0  0  0  0
   25.3094    9.8309   31.0959 F   0  0  0  0  0  0  0  0  0  0  0  0
   23.3017    9.2218   30.5866 F   0  0  0  0  0  0  0  0  0  0  0  0
   30.4625   11.0087   31.7272 C   0  0  0  0  0  0  0  0  0  0  0  0
   29.8210   12.0175   32.4317 N   0  0  0  0  0  0  0  0  0  0  0  0
   31.6593   11.0726   31.4560 O   0  0  0  0  0  0  0  0  0  0  0  0
   30.4597   12.8534   33.4572 C   0  0  2  0  0  0  0  0  0  0  0  0
   31.7241   13.6356   33.1384 C   0  0  0  0  0  0  0  0  0  0  0  0
   31.8042   12.4527   34.0681 C   0  0  1  0  0  0  0  0  0  0  0  0
   29.4448   13.4596   34.4169 C   0  0  0  0  0  0  0  0  0  0  0  0
   29.2485   14.8388   34.2889 N   0  0  0  0  0  0  0  0  0  0  0  0
   28.8456   12.7223   35.1804 O   0  0  0  0  0  0  0  0  0  0  0  0
   27.9604   15.6237   35.0137 S   0  0  0  0  0  0  0  0  0  0  0  0
   28.4434   17.3438   35.3145 C   0  0  0  0  0  0  0  0  0  0  0  0
   27.7332   15.0647   36.3248 O   0  0  0  0  0  0  0  0  0  0  0  0
   26.9274   15.6772   34.0032 O   0  0  0  0  0  0  0  0  0  0  0  0
   27.3919   18.0932   36.0494 C   0  0  0  0  0  0  0  0  0  0  0  0
   29.3173   18.0026   34.2789 C   0  0  0  0  0  0  0  0  0  0  0  0
   29.9062   17.5638   35.6014 C   0  0  0  0  0  0  0  0  0  0  0  0
   32.1039   12.6298   35.5146 C   0  0  0  0  0  0  0  0  0  0  0  0
   31.8702   11.4605   36.1552 F   0  0  0  0  0  0  0  0  0  0  0  0
   33.4283   12.8934   35.6516 F   0  0  0  0  0  0  0  0  0  0  0  0
   26.7348   12.3298   24.8256 H   0  0  0  0  0  0  0  0  0  0  0  0
   26.5338   13.5617   26.0737 H   0  0  0  0  0  0  0  0  0  0  0  0
   28.6883   13.2712   24.0726 H   0  0  0  0  0  0  0  0  0  0  0  0
   28.2683   14.7123   25.0095 H   0  0  0  0  0  0  0  0  0  0  0  0
   29.6117   14.0032   26.8837 H   0  0  0  0  0  0  0  0  0  0  0  0
   30.5856   13.4098   25.5370 H   0  0  0  0  0  0  0  0  0  0  0  0
   29.5637   11.2103   25.6325 H   0  0  0  0  0  0  0  0  0  0  0  0
   27.6085   12.3174   27.7189 H   0  0  0  0  0  0  0  0  0  0  0  0
   31.5128   10.9734   29.3857 H   0  0  0  0  0  0  0  0  0  0  0  0
   31.6769    8.2129   28.3185 H   0  0  0  0  0  0  0  0  0  0  0  0
   33.7358    9.3860   31.2450 H   0  0  0  0  0  0  0  0  0  0  0  0
   35.1704    9.7678   30.2943 H   0  0  0  0  0  0  0  0  0  0  0  0
   33.7860   10.8460   30.2364 H   0  0  0  0  0  0  0  0  0  0  0  0
   35.0471    9.7448   27.7200 H   0  0  0  0  0  0  0  0  0  0  0  0
   33.5780    9.1514   26.9174 H   0  0  0  0  0  0  0  0  0  0  0  0
   33.5886   10.7307   27.7303 H   0  0  0  0  0  0  0  0  0  0  0  0
   33.7227    6.9574   28.3298 H   0  0  0  0  0  0  0  0  0  0  0  0
   34.0910    7.1056   30.0687 H   0  0  0  0  0  0  0  0  0  0  0  0
   35.2473    7.6772   28.8749 H   0  0  0  0  0  0  0  0  0  0  0  0
   27.6138    7.6980   32.9194 H   0  0  0  0  0  0  0  0  0  0  0  0
   29.9849    7.2994   32.7415 H   0  0  0  0  0  0  0  0  0  0  0  0
   29.4321    6.6020   31.1889 H   0  0  0  0  0  0  0  0  0  0  0  0
   29.1472   10.1119   30.2290 H   0  0  0  0  0  0  0  0  0  0  0  0
   28.7828    9.7328   33.2542 H   0  0  0  0  0  0  0  0  0  0  0  0
   27.5813   10.2336   32.0492 H   0  0  0  0  0  0  0  0  0  0  0  0
   22.2561    4.6550   31.0627 H   0  0  0  0  0  0  0  0  0  0  0  0
   22.7783    2.3599   31.8457 H   0  0  0  0  0  0  0  0  0  0  0  0
   25.1221    1.7628   32.4323 H   0  0  0  0  0  0  0  0  0  0  0  0
   26.9112    3.4546   32.2117 H   0  0  0  0  0  0  0  0  0  0  0  0
   24.1970    8.7042   28.1779 H   0  0  0  0  0  0  0  0  0  0  0  0
   26.3601   10.6783   29.0976 H   0  0  0  0  0  0  0  0  0  0  0  0
   25.3483   11.4477   26.7490 H   0  0  0  0  0  0  0  0  0  0  0  0
   25.4410    9.7366   26.3076 H   0  0  0  0  0  0  0  0  0  0  0  0
   28.8159   11.9189   32.5574 H   0  0  0  0  0  0  0  0  0  0  0  0
   32.1712   13.5254   32.1550 H   0  0  0  0  0  0  0  0  0  0  0  0
   31.8781   14.6158   33.5719 H   0  0  0  0  0  0  0  0  0  0  0  0
   32.3176   11.5722   33.7065 H   0  0  0  0  0  0  0  0  0  0  0  0
   29.5280   15.2645   33.4112 H   0  0  0  0  0  0  0  0  0  0  0  0
   27.6483   19.1509   36.1337 H   0  0  0  0  0  0  0  0  0  0  0  0
   27.2649   17.6981   37.0609 H   0  0  0  0  0  0  0  0  0  0  0  0
   26.4283   18.0332   35.5336 H   0  0  0  0  0  0  0  0  0  0  0  0
   29.1956   19.0701   34.1124 H   0  0  0  0  0  0  0  0  0  0  0  0
   29.5966   17.4660   33.3809 H   0  0  0  0  0  0  0  0  0  0  0  0
   30.5854   16.7216   35.6168 H   0  0  0  0  0  0  0  0  0  0  0  0
   30.1635   18.3316   36.3247 H   0  0  0  0  0  0  0  0  0  0  0  0
   31.5483   13.4296   36.0049 H   0  0  0  0  0  0  0  0  0  0  0  0
  1  2  1  0
  2  3  1  0
  4  3  1  0
  4  5  1  0
  5  1  1  0
  4  6  1  0
  6  7  1  0
  7  8  1  0
  7  9  2  0
  8 10  1  0
 10 11  1  0
 10 12  1  0
 12 13  1  0
 12 14  1  0
 12 15  1  0
 11 16  2  0
 11 17  1  0
 19 17  1  0
 17 20  1  0
 18 19  1  0
 20 21  1  0
 18 21  1  0
 18 22  1  0
 22 23  1  0
 23 24  2  0
 28 23  1  0
 24 25  1  0
 26 27  1  0
 27 28  2  0
 26 29  1  0
 25 26  2  0
 32 25  1  0
 29 30  2  0
 30 31  1  0
 31 32  2  0
 28 33  1  0
 33 34  1  0
 34 35  2  0
 35 36  1  0
 36 37  1  0
  5 37  1  0
 33 38  1  0
 33 39  1  0
 20 40  1  0
 40 41  1  0
 40 42  2  0
 43 41  1  1
 43 44  1  0
 45 43  1  0
 44 45  1  0
 43 46  1  0
 46 47  1  0
 46 48  2  0
 47 49  1  0
 49 50  1  0
 49 51  2  0
 49 52  2  0
 50 53  1  0
 50 54  1  0
 55 50  1  0
 54 55  1  0
 45 56  1  0
 56 57  1  0
 56 58  1  0
  1 59  1  0
  1 60  1  0
  2 61  1  0
  2 62  1  0
  3 63  1  0
  3 64  1  0
  4 65  1  1
  5 66  1  6
  8 67  1  0
 10 68  1  6
 13 69  1  0
 13 70  1  0
 13 71  1  0
 14 72  1  0
 14 73  1  0
 14 74  1  0
 15 75  1  0
 15 76  1  0
 15 77  1  0
 18 78  1  1
 19 79  1  0
 19 80  1  0
 20 81  1  6
 21 82  1  0
 21 83  1  0
 29 84  1  0
 30 85  1  0
 31 86  1  0
 32 87  1  0
 34 88  1  0
 35 89  1  0
 36 90  1  0
 36 91  1  0
 41 92  1  0
 44 93  1  0
 44 94  1  0
 45 95  1  1
 47 96  1  0
 53 97  1  0
 53 98  1  0
 53 99  1  0
 54100  1  0
 54101  1  0
 55102  1  0
 55103  1  0
 56104  1  0
M  END
> <Uni-Dock RESULT> 
ENERGY=   -3.646  LOWER_BOUND=    5.917  UPPER_BOUND=   10.627
INTER + INTRA:          -3.646
INTER:                  -3.646
INTRA:                   0.000
UNBOUND:                 0.000

$$$$

     RDKit          3D

104110  0  0  0  0  0  0  0  0999 V2000
   27.8140   13.6702   35.1611 C   0  0  0  0  0  0  0  0  0  0  0  0
   27.8749   15.2006   35.0947 C   0  0  0  0  0  0  0  0  0  0  0  0
   27.4144   15.5658   33.6940 C   0  0  0  0  0  0  0  0  0  0  0  0
   26.3894   14.4872   33.3807 C   0  0  2  0  0  0  0  0  0  0  0  0
   27.0682   13.2089   33.8961 C   0  0  2  0  0  0  0  0  0  0  0  0
   26.1586   14.4555   31.9670 O   0  0  0  0  0  0  0  0  0  0  0  0
   24.8910   14.1262   31.6067 C   0  0  0  0  0  0  0  0  0  0  0  0
   24.7507   14.2415   30.2547 N   0  0  0  0  0  0  0  0  0  0  0  0
   24.0006   13.7894   32.3695 O   0  0  0  0  0  0  0  0  0  0  0  0
   23.4797   14.0100   29.5853 C   0  0  2  0  0  0  0  0  0  0  0  0
   23.3604   12.6730   28.7726 C   0  0  0  0  0  0  0  0  0  0  0  0
   22.9494   15.3079   28.8601 C   0  0  0  0  0  0  0  0  0  0  0  0
   23.7577   15.6402   27.5940 C   0  0  0  0  0  0  0  0  0  0  0  0
   23.0308   16.5203   29.8204 C   0  0  0  0  0  0  0  0  0  0  0  0
   21.4635   15.1699   28.4569 C   0  0  0  0  0  0  0  0  0  0  0  0
   22.2706   12.3989   28.2473 O   0  0  0  0  0  0  0  0  0  0  0  0
   24.3713   11.7332   28.6788 N   0  0  0  0  0  0  0  0  0  0  0  0
   25.0787    9.4702   28.9124 C   0  0  1  0  0  0  0  0  0  0  0  0
   23.9482   10.3552   28.4073 C   0  0  0  0  0  0  0  0  0  0  0  0
   25.8146   11.7712   29.0096 C   0  0  1  0  0  0  0  0  0  0  0  0
   26.2891   10.3452   28.6611 C   0  0  0  0  0  0  0  0  0  0  0  0
   25.0132    9.2732   30.3314 O   0  0  0  0  0  0  0  0  0  0  0  0
   24.6543    7.9902   30.6461 C   0  0  0  0  0  0  0  0  0  0  0  0
   23.5384    7.5084   30.0539 N   0  0  0  0  0  0  0  0  0  0  0  0
   23.1595    6.2690   30.4103 C   0  0  0  0  0  0  0  0  0  0  0  0
   23.8866    5.5222   31.3701 C   0  0  0  0  0  0  0  0  0  0  0  0
   24.9867    6.0242   31.9598 N   0  0  0  0  0  0  0  0  0  0  0  0
   25.3840    7.2744   31.5827 C   0  0  0  0  0  0  0  0  0  0  0  0
   23.4684    4.2403   31.6922 C   0  0  0  0  0  0  0  0  0  0  0  0
   22.3400    3.6782   31.0902 C   0  0  0  0  0  0  0  0  0  0  0  0
   21.6307    4.4101   30.1465 C   0  0  0  0  0  0  0  0  0  0  0  0
   22.0469    5.6969   29.8132 C   0  0  0  0  0  0  0  0  0  0  0  0
   26.6715    7.8363   32.1505 C   0  0  0  0  0  0  0  0  0  0  0  0
   26.4383    8.7613   33.3236 C   0  0  0  0  0  0  0  0  0  0  0  0
   26.7766   10.0625   33.3513 C   0  0  0  0  0  0  0  0  0  0  0  0
   26.6433   10.9434   34.5557 C   0  0  0  0  0  0  0  0  0  0  0  0
   26.0949   12.2018   34.1755 O   0  0  0  0  0  0  0  0  0  0  0  0
   27.4109    8.4847   31.1923 F   0  0  0  0  0  0  0  0  0  0  0  0
   27.5126    6.8382   32.5850 F   0  0  0  0  0  0  0  0  0  0  0  0
   26.6243   12.8052   28.1832 C   0  0  0  0  0  0  0  0  0  0  0  0
   27.9548   12.4929   27.9429 N   0  0  0  0  0  0  0  0  0  0  0  0
   26.1417   13.8806   27.8357 O   0  0  0  0  0  0  0  0  0  0  0  0
   28.7258   12.9669   26.7856 C   0  0  2  0  0  0  0  0  0  0  0  0
   28.8356   14.4538   26.4874 C   0  0  0  0  0  0  0  0  0  0  0  0
   28.0212   13.5770   25.5721 C   0  0  1  0  0  0  0  0  0  0  0  0
   29.9174   12.0684   26.4835 C   0  0  0  0  0  0  0  0  0  0  0  0
   31.1711   12.6192   26.7699 N   0  0  0  0  0  0  0  0  0  0  0  0
   29.7122   10.9398   26.0713 O   0  0  0  0  0  0  0  0  0  0  0  0
   32.5609   11.6881   26.8162 S   0  0  0  0  0  0  0  0  0  0  0  0
   33.9696   12.7548   26.4160 C   0  0  0  0  0  0  0  0  0  0  0  0
   32.5196   10.7102   25.7556 O   0  0  0  0  0  0  0  0  0  0  0  0
   32.7290   11.3206   28.2046 O   0  0  0  0  0  0  0  0  0  0  0  0
   35.2392   11.9874   26.3355 C   0  0  0  0  0  0  0  0  0  0  0  0
   33.9241   14.1720   26.9255 C   0  0  0  0  0  0  0  0  0  0  0  0
   33.6755   13.8832   25.4616 C   0  0  0  0  0  0  0  0  0  0  0  0
   28.4605   13.3027   24.1774 C   0  0  0  0  0  0  0  0  0  0  0  0
   27.6998   12.3056   23.6681 F   0  0  0  0  0  0  0  0  0  0  0  0
   28.2170   14.4050   23.4237 F   0  0  0  0  0  0  0  0  0  0  0  0
   27.3235   13.3439   36.0885 H   0  0  0  0  0  0  0  0  0  0  0  0
   28.8297   13.2585   35.1722 H   0  0  0  0  0  0  0  0  0  0  0  0
   27.1863   15.6218   35.8390 H   0  0  0  0  0  0  0  0  0  0  0  0
   28.8753   15.5915   35.3127 H   0  0  0  0  0  0  0  0  0  0  0  0
   28.2490   15.5381   32.9835 H   0  0  0  0  0  0  0  0  0  0  0  0
   26.9777   16.5690   33.6430 H   0  0  0  0  0  0  0  0  0  0  0  0
   25.4657   14.6929   33.9355 H   0  0  0  0  0  0  0  0  0  0  0  0
   27.7736   12.8362   33.1433 H   0  0  0  0  0  0  0  0  0  0  0  0
   25.5392   14.5665   29.7022 H   0  0  0  0  0  0  0  0  0  0  0  0
   22.7528   13.8269   30.3921 H   0  0  0  0  0  0  0  0  0  0  0  0
   23.7954   14.7908   26.9044 H   0  0  0  0  0  0  0  0  0  0  0  0
   23.3125   16.4801   27.0494 H   0  0  0  0  0  0  0  0  0  0  0  0
   24.7813   15.9326   27.8402 H   0  0  0  0  0  0  0  0  0  0  0  0
   22.6287   17.4263   29.3471 H   0  0  0  0  0  0  0  0  0  0  0  0
   22.4544   16.3276   30.7317 H   0  0  0  0  0  0  0  0  0  0  0  0
   24.0638   16.7495   30.1098 H   0  0  0  0  0  0  0  0  0  0  0  0
   20.8590   14.8259   29.3071 H   0  0  0  0  0  0  0  0  0  0  0  0
   21.3272   14.4719   27.6228 H   0  0  0  0  0  0  0  0  0  0  0  0
   21.0519   16.1331   28.1265 H   0  0  0  0  0  0  0  0  0  0  0  0
   25.1461    8.5294   28.3545 H   0  0  0  0  0  0  0  0  0  0  0  0
   23.8275   10.2647   27.3235 H   0  0  0  0  0  0  0  0  0  0  0  0
   22.9993   10.1390   28.9050 H   0  0  0  0  0  0  0  0  0  0  0  0
   25.9313   11.9679   30.0799 H   0  0  0  0  0  0  0  0  0  0  0  0
   26.5752   10.2664   27.6063 H   0  0  0  0  0  0  0  0  0  0  0  0
   27.1481   10.0583   29.2721 H   0  0  0  0  0  0  0  0  0  0  0  0
   24.0330    3.6693   32.4230 H   0  0  0  0  0  0  0  0  0  0  0  0
   22.0285    2.6720   31.3549 H   0  0  0  0  0  0  0  0  0  0  0  0
   20.7573    3.9793   29.6611 H   0  0  0  0  0  0  0  0  0  0  0  0
   21.4908    6.2655   29.0721 H   0  0  0  0  0  0  0  0  0  0  0  0
   26.0447    8.2781   34.2110 H   0  0  0  0  0  0  0  0  0  0  0  0
   27.1968   10.5231   32.4631 H   0  0  0  0  0  0  0  0  0  0  0  0
   27.6165   11.0578   35.0456 H   0  0  0  0  0  0  0  0  0  0  0  0
   25.9537   10.5023   35.2863 H   0  0  0  0  0  0  0  0  0  0  0  0
   28.2923   11.6103   28.3210 H   0  0  0  0  0  0  0  0  0  0  0  0
   28.2937   15.1532   27.1169 H   0  0  0  0  0  0  0  0  0  0  0  0
   29.7578   14.8598   26.0909 H   0  0  0  0  0  0  0  0  0  0  0  0
   26.9479   13.7096   25.5845 H   0  0  0  0  0  0  0  0  0  0  0  0
   31.1946   13.3977   27.4204 H   0  0  0  0  0  0  0  0  0  0  0  0
   36.0933   12.6528   26.1969 H   0  0  0  0  0  0  0  0  0  0  0  0
   35.2205   11.2877   25.4956 H   0  0  0  0  0  0  0  0  0  0  0  0
   35.4173   11.4180   27.2532 H   0  0  0  0  0  0  0  0  0  0  0  0
   34.8642   14.6495   27.1911 H   0  0  0  0  0  0  0  0  0  0  0  0
   33.0958   14.5039   27.5388 H   0  0  0  0  0  0  0  0  0  0  0  0
   32.6758   14.0091   25.0671 H   0  0  0  0  0  0  0  0  0  0  0  0
   34.4510   14.1508   24.7504 H   0  0  0  0  0  0  0  0  0  0  0  0
   29.5147   13.0463   24.0691 H   0  0  0  0  0  0  0  0  0  0  0  0
  1  2  1  0
  2  3  1  0
  4  3  1  0
  4  5  1  0
  5  1  1  0
  4  6  1  0
  6  7  1  0
  7  8  1  0
  7  9  2  0
  8 10  1  0
 10 11  1  0
 10 12  1  0
 12 13  1  0
 12 14  1  0
 12 15  1  0
 11 16  2  0
 11 17  1  0
 19 17  1  0
 17 20  1  0
 18 19  1  0
 20 21  1  0
 18 21  1  0
 18 22  1  0
 22 23  1  0
 23 24  2  0
 28 23  1  0
 24 25  1  0
 26 27  1  0
 27 28  2  0
 26 29  1  0
 25 26  2  0
 32 25  1  0
 29 30  2  0
 30 31  1  0
 31 32  2  0
 28 33  1  0
 33 34  1  0
 34 35  2  0
 35 36  1  0
 36 37  1  0
  5 37  1  0
 33 38  1  0
 33 39  1  0
 20 40  1  0
 40 41  1  0
 40 42  2  0
 43 41  1  1
 43 44  1  0
 45 43  1  0
 44 45  1  0
 43 46  1  0
 46 47  1  0
 46 48  2  0
 47 49  1  0
 49 50  1  0
 49 51  2  0
 49 52  2  0
 50 53  1  0
 50 54  1  0
 55 50  1  0
 54 55  1  0
 45 56  1  0
 56 57  1  0
 56 58  1  0
  1 59  1  0
  1 60  1  0
  2 61  1  0
  2 62  1  0
  3 63  1  0
  3 64  1  0
  4 65  1  1
  5 66  1  6
  8 67  1  0
 10 68  1  6
 13 69  1  0
 13 70  1  0
 13 71  1  0
 14 72  1  0
 14 73  1  0
 14 74  1  0
 15 75  1  0
 15 76  1  0
 15 77  1  0
 18 78  1  1
 19 79  1  0
 19 80  1  0
 20 81  1  6
 21 82  1  0
 21 83  1  0
 29 84  1  0
 30 85  1  0
 31 86  1  0
 32 87  1  0
 34 88  1  0
 35 89  1  0
 36 90  1  0
 36 91  1  0
 41 92  1  0
 44 93  1  0
 44 94  1  0
 45 95  1  1
 47 96  1  0
 53 97  1  0
 53 98  1  0
 53 99  1  0
 54100  1  0
 54101  1  0
 55102  1  0
 55103  1  0
 56104  1  0
M  END
> <Uni-Dock RESULT> 
ENERGY=   -3.624  LOWER_BOUND=    4.524  UPPER_BOUND=    8.068
INTER + INTRA:          -3.624
INTER:                  -3.624
INTRA:                   0.000
UNBOUND:                 0.000

$$$$

     RDKit          3D

104110  0  0  0  0  0  0  0  0999 V2000
   23.3516    8.5504   19.0363 C   0  0  0  0  0  0  0  0  0  0  0  0
   21.8659    8.9026   19.1735 C   0  0  0  0  0  0  0  0  0  0  0  0
   21.8286   10.3802   19.5237 C   0  0  0  0  0  0  0  0  0  0  0  0
   23.0308   10.9372   18.7777 C   0  0  2  0  0  0  0  0  0  0  0  0
   24.1181    9.8852   19.0452 C   0  0  2  0  0  0  0  0  0  0  0  0
   23.3641   12.2219   19.3175 O   0  0  0  0  0  0  0  0  0  0  0  0
   23.8649   13.1040   18.4139 C   0  0  0  0  0  0  0  0  0  0  0  0
   24.0347   14.3224   19.0034 N   0  0  0  0  0  0  0  0  0  0  0  0
   24.1163   12.8583   17.2458 O   0  0  0  0  0  0  0  0  0  0  0  0
   24.5021   15.4835   18.2615 C   0  0  2  0  0  0  0  0  0  0  0  0
   25.9799   15.9319   18.5396 C   0  0  0  0  0  0  0  0  0  0  0  0
   23.4252   16.6371   18.2308 C   0  0  0  0  0  0  0  0  0  0  0  0
   23.2858   17.3414   19.5913 C   0  0  0  0  0  0  0  0  0  0  0  0
   22.0427   16.0590   17.8393 C   0  0  0  0  0  0  0  0  0  0  0  0
   23.7662   17.7084   17.1698 C   0  0  0  0  0  0  0  0  0  0  0  0
   26.4448   16.8709   17.8755 O   0  0  0  0  0  0  0  0  0  0  0  0
   26.8305   15.2865   19.4192 N   0  0  0  0  0  0  0  0  0  0  0  0
   28.9329   14.2420   19.8256 C   0  0  1  0  0  0  0  0  0  0  0  0
   28.2657   15.4341   19.1546 C   0  0  0  0  0  0  0  0  0  0  0  0
   26.6052   14.2757   20.4783 C   0  0  1  0  0  0  0  0  0  0  0  0
   28.0268   14.0138   21.0175 C   0  0  0  0  0  0  0  0  0  0  0  0
   28.8469   13.0566   19.0229 O   0  0  0  0  0  0  0  0  0  0  0  0
   30.0666   12.7053   18.5104 C   0  0  0  0  0  0  0  0  0  0  0  0
   30.7498   13.6687   17.8521 N   0  0  0  0  0  0  0  0  0  0  0  0
   31.9204   13.3025   17.3021 C   0  0  0  0  0  0  0  0  0  0  0  0
   32.3958   11.9711   17.3966 C   0  0  0  0  0  0  0  0  0  0  0  0
   31.6947   11.0223   18.0434 N   0  0  0  0  0  0  0  0  0  0  0  0
   30.5163   11.3985   18.6201 C   0  0  0  0  0  0  0  0  0  0  0  0
   33.6180   11.6445   16.8296 C   0  0  0  0  0  0  0  0  0  0  0  0
   34.3825   12.6052   16.1631 C   0  0  0  0  0  0  0  0  0  0  0  0
   33.9170   13.9108   16.0750 C   0  0  0  0  0  0  0  0  0  0  0  0
   32.6923   14.2489   16.6463 C   0  0  0  0  0  0  0  0  0  0  0  0
   29.7452   10.3841   19.4400 C   0  0  0  0  0  0  0  0  0  0  0  0
   28.6273    9.7301   18.6598 C   0  0  0  0  0  0  0  0  0  0  0  0
   27.3230    9.8119   18.9768 C   0  0  0  0  0  0  0  0  0  0  0  0
   26.2335    9.0709   18.2639 C   0  0  0  0  0  0  0  0  0  0  0  0
   25.1275    9.9394   18.0364 O   0  0  0  0  0  0  0  0  0  0  0  0
   29.2415   10.9365   20.5917 F   0  0  0  0  0  0  0  0  0  0  0  0
   30.5614    9.3755   19.8973 F   0  0  0  0  0  0  0  0  0  0  0  0
   25.6927   14.7654   21.6339 C   0  0  0  0  0  0  0  0  0  0  0  0
   25.9331   14.2113   22.8832 N   0  0  0  0  0  0  0  0  0  0  0  0
   24.7533   15.5334   21.4394 O   0  0  0  0  0  0  0  0  0  0  0  0
   25.6368   14.8750   24.1599 C   0  0  2  0  0  0  0  0  0  0  0  0
   24.2358   15.3850   24.4582 C   0  0  0  0  0  0  0  0  0  0  0  0
   25.3437   16.3759   24.2125 C   0  0  1  0  0  0  0  0  0  0  0  0
   26.4735   14.3180   25.3036 C   0  0  0  0  0  0  0  0  0  0  0  0
   25.7725   13.5521   26.2411 N   0  0  0  0  0  0  0  0  0  0  0  0
   27.6750   14.5234   25.3064 O   0  0  0  0  0  0  0  0  0  0  0  0
   26.5546   12.5967   27.3710 S   0  0  0  0  0  0  0  0  0  0  0  0
   25.4743   12.4309   28.8159 C   0  0  0  0  0  0  0  0  0  0  0  0
   27.7249   13.2877   27.8568 O   0  0  0  0  0  0  0  0  0  0  0  0
   26.6213   11.2797   26.7778 O   0  0  0  0  0  0  0  0  0  0  0  0
   26.1320   11.6780   29.9149 C   0  0  0  0  0  0  0  0  0  0  0  0
   23.9928   12.3361   28.5582 C   0  0  0  0  0  0  0  0  0  0  0  0
   24.5887   13.6164   29.1004 C   0  0  0  0  0  0  0  0  0  0  0  0
   25.8533   17.2471   25.3056 C   0  0  0  0  0  0  0  0  0  0  0  0
   26.9928   17.8478   24.8897 F   0  0  0  0  0  0  0  0  0  0  0  0
   24.9487   18.2344   25.5276 F   0  0  0  0  0  0  0  0  0  0  0  0
   23.5260    7.9642   18.1235 H   0  0  0  0  0  0  0  0  0  0  0  0
   23.6654    7.9288   19.8827 H   0  0  0  0  0  0  0  0  0  0  0  0
   21.3641    8.7310   18.2120 H   0  0  0  0  0  0  0  0  0  0  0  0
   21.3561    8.2896   19.9255 H   0  0  0  0  0  0  0  0  0  0  0  0
   21.9272   10.5330   20.6050 H   0  0  0  0  0  0  0  0  0  0  0  0
   20.8966   10.8632   19.2112 H   0  0  0  0  0  0  0  0  0  0  0  0
   22.7972   10.9978   17.7076 H   0  0  0  0  0  0  0  0  0  0  0  0
   24.5729   10.0656   20.0269 H   0  0  0  0  0  0  0  0  0  0  0  0
   23.7614   14.4435   19.9746 H   0  0  0  0  0  0  0  0  0  0  0  0
   24.5809   15.1500   17.2149 H   0  0  0  0  0  0  0  0  0  0  0  0
   24.2496   17.7116   19.9551 H   0  0  0  0  0  0  0  0  0  0  0  0
   22.6126   18.2031   19.5237 H   0  0  0  0  0  0  0  0  0  0  0  0
   22.8645   16.6720   20.3451 H   0  0  0  0  0  0  0  0  0  0  0  0
   21.2870   16.8535   17.7733 H   0  0  0  0  0  0  0  0  0  0  0  0
   22.0972   15.5592   16.8660 H   0  0  0  0  0  0  0  0  0  0  0  0
   21.6737   15.3352   18.5764 H   0  0  0  0  0  0  0  0  0  0  0  0
   23.9831   17.2412   16.1996 H   0  0  0  0  0  0  0  0  0  0  0  0
   24.6260   18.3206   17.4657 H   0  0  0  0  0  0  0  0  0  0  0  0
   22.9270   18.4015   17.0232 H   0  0  0  0  0  0  0  0  0  0  0  0
   29.9572   14.4679   20.1429 H   0  0  0  0  0  0  0  0  0  0  0  0
   28.5812   16.3757   19.6142 H   0  0  0  0  0  0  0  0  0  0  0  0
   28.4575   15.4644   18.0789 H   0  0  0  0  0  0  0  0  0  0  0  0
   26.1891   13.3702   20.0259 H   0  0  0  0  0  0  0  0  0  0  0  0
   28.2905   14.7241   21.8090 H   0  0  0  0  0  0  0  0  0  0  0  0
   28.1119   13.0024   21.4215 H   0  0  0  0  0  0  0  0  0  0  0  0
   33.9814   10.6246   16.9108 H   0  0  0  0  0  0  0  0  0  0  0  0
   35.3381   12.3303   15.7263 H   0  0  0  0  0  0  0  0  0  0  0  0
   34.5084   14.6715   15.5694 H   0  0  0  0  0  0  0  0  0  0  0  0
   32.3326   15.2724   16.5777 H   0  0  0  0  0  0  0  0  0  0  0  0
   28.9547    9.0934   17.8453 H   0  0  0  0  0  0  0  0  0  0  0  0
   27.0156   10.4306   19.8136 H   0  0  0  0  0  0  0  0  0  0  0  0
   25.9414    8.1872   18.8418 H   0  0  0  0  0  0  0  0  0  0  0  0
   26.5762    8.7261   17.2803 H   0  0  0  0  0  0  0  0  0  0  0  0
   26.6904   13.5341   22.9444 H   0  0  0  0  0  0  0  0  0  0  0  0
   23.4730   15.2926   23.6910 H   0  0  0  0  0  0  0  0  0  0  0  0
   23.8408   15.3252   25.4646 H   0  0  0  0  0  0  0  0  0  0  0  0
   25.3025   16.9478   23.2955 H   0  0  0  0  0  0  0  0  0  0  0  0
   24.8805   13.1675   25.9476 H   0  0  0  0  0  0  0  0  0  0  0  0
   25.4380   11.4952   30.7373 H   0  0  0  0  0  0  0  0  0  0  0  0
   26.9847   12.2340   30.3140 H   0  0  0  0  0  0  0  0  0  0  0  0
   26.4892   10.7028   29.5691 H   0  0  0  0  0  0  0  0  0  0  0  0
   23.3940   11.7335   29.2368 H   0  0  0  0  0  0  0  0  0  0  0  0
   23.6161   12.3260   27.5431 H   0  0  0  0  0  0  0  0  0  0  0  0
   24.6293   14.4864   28.4583 H   0  0  0  0  0  0  0  0  0  0  0  0
   24.4041   13.8637   30.1414 H   0  0  0  0  0  0  0  0  0  0  0  0
   26.0361   16.7380   26.2523 H   0  0  0  0  0  0  0  0  0  0  0  0
  1  2  1  0
  2  3  1  0
  4  3  1  0
  4  5  1  0
  5  1  1  0
  4  6  1  0
  6  7  1  0
  7  8  1  0
  7  9  2  0
  8 10  1  0
 10 11  1  0
 10 12  1  0
 12 13  1  0
 12 14  1  0
 12 15  1  0
 11 16  2  0
 11 17  1  0
 19 17  1  0
 17 20  1  0
 18 19  1  0
 20 21  1  0
 18 21  1  0
 18 22  1  0
 22 23  1  0
 23 24  2  0
 28 23  1  0
 24 25  1  0
 26 27  1  0
 27 28  2  0
 26 29  1  0
 25 26  2  0
 32 25  1  0
 29 30  2  0
 30 31  1  0
 31 32  2  0
 28 33  1  0
 33 34  1  0
 34 35  2  0
 35 36  1  0
 36 37  1  0
  5 37  1  0
 33 38  1  0
 33 39  1  0
 20 40  1  0
 40 41  1  0
 40 42  2  0
 43 41  1  1
 43 44  1  0
 45 43  1  0
 44 45  1  0
 43 46  1  0
 46 47  1  0
 46 48  2  0
 47 49  1  0
 49 50  1  0
 49 51  2  0
 49 52  2  0
 50 53  1  0
 50 54  1  0
 55 50  1  0
 54 55  1  0
 45 56  1  0
 56 57  1  0
 56 58  1  0
  1 59  1  0
  1 60  1  0
  2 61  1  0
  2 62  1  0
  3 63  1  0
  3 64  1  0
  4 65  1  1
  5 66  1  6
  8 67  1  0
 10 68  1  6
 13 69  1  0
 13 70  1  0
 13 71  1  0
 14 72  1  0
 14 73  1  0
 14 74  1  0
 15 75  1  0
 15 76  1  0
 15 77  1  0
 18 78  1  1
 19 79  1  0
 19 80  1  0
 20 81  1  6
 21 82  1  0
 21 83  1  0
 29 84  1  0
 30 85  1  0
 31 86  1  0
 32 87  1  0
 34 88  1  0
 35 89  1  0
 36 90  1  0
 36 91  1  0
 41 92  1  0
 44 93  1  0
 44 94  1  0
 45 95  1  1
 47 96  1  0
 53 97  1  0
 53 98  1  0
 53 99  1  0
 54100  1  0
 54101  1  0
 55102  1  0
 55103  1  0
 56104  1  0
M  END
> <Uni-Dock RESULT> 
ENERGY=   -3.527  LOWER_BOUND=    4.714  UPPER_BOUND=   11.088
INTER + INTRA:          -3.527
INTER:                  -3.527
INTRA:                   0.000
UNBOUND:                 0.000

$$$$
