
     RDKit          3D

104110  0  0  0  0  0  0  0  0999 V2000
   24.8280   11.7452   31.7455 C   0  0  0  0  0  0  0  0  0  0  0  0
   25.4141   12.7204   30.7433 C   0  0  0  0  0  0  0  0  0  0  0  0
   26.7812   12.1466   30.3566 C   0  0  0  0  0  0  0  0  0  0  0  0
   26.7749   10.6877   30.8184 C   0  0  2  0  0  0  0  0  0  0  0  0
   25.3204   10.3882   31.2386 C   0  0  2  0  0  0  0  0  0  0  0  0
   27.6203   10.5969   31.9790 O   0  0  0  0  0  0  0  0  0  0  0  0
   28.1990    9.3988   32.2018 C   0  0  0  0  0  0  0  0  0  0  0  0
   28.6698    9.3771   33.4823 N   0  0  0  0  0  0  0  0  0  0  0  0
   28.2486    8.4610   31.4172 O   0  0  0  0  0  0  0  0  0  0  0  0
   29.0710    8.1284   34.1407 C   0  0  2  0  0  0  0  0  0  0  0  0
   27.7468    7.3865   34.4797 C   0  0  0  0  0  0  0  0  0  0  0  0
   30.0248    8.3647   35.3526 C   0  0  0  0  0  0  0  0  0  0  0  0
   31.4022    8.8153   34.8222 C   0  0  0  0  0  0  0  0  0  0  0  0
   29.5238    9.4466   36.3249 C   0  0  0  0  0  0  0  0  0  0  0  0
   30.2084    7.0437   36.1303 C   0  0  0  0  0  0  0  0  0  0  0  0
   26.9937    7.7134   35.3925 O   0  0  0  0  0  0  0  0  0  0  0  0
   27.3751    6.4499   33.5105 N   0  0  0  0  0  0  0  0  0  0  0  0
   25.4221    5.2114   32.8293 C   0  0  1  0  0  0  0  0  0  0  0  0
   26.0235    6.6120   32.9558 C   0  0  0  0  0  0  0  0  0  0  0  0
   27.5432    5.0333   33.8745 C   0  0  1  0  0  0  0  0  0  0  0  0
   26.1188    4.4810   33.9860 C   0  0  0  0  0  0  0  0  0  0  0  0
   23.9987    5.2769   32.9291 O   0  0  0  0  0  0  0  0  0  0  0  0
   23.3877    4.3124   32.1774 C   0  0  0  0  0  0  0  0  0  0  0  0
   23.8815    3.0577   32.2870 N   0  0  0  0  0  0  0  0  0  0  0  0
   23.2832    2.1142   31.5462 C   0  0  0  0  0  0  0  0  0  0  0  0
   22.1982    2.4234   30.6903 C   0  0  0  0  0  0  0  0  0  0  0  0
   21.7359    3.6828   30.5839 N   0  0  0  0  0  0  0  0  0  0  0  0
   22.3217    4.6432   31.3576 C   0  0  0  0  0  0  0  0  0  0  0  0
   21.6323    1.3998   29.9245 C   0  0  0  0  0  0  0  0  0  0  0  0
   22.1227    0.0924   29.9740 C   0  0  0  0  0  0  0  0  0  0  0  0
   23.1712   -0.2095   30.8365 C   0  0  0  0  0  0  0  0  0  0  0  0
   23.7547    0.8080   31.6057 C   0  0  0  0  0  0  0  0  0  0  0  0
   21.8578    6.0843   31.2130 C   0  0  0  0  0  0  0  0  0  0  0  0
   22.8050    6.8728   30.3310 C   0  0  0  0  0  0  0  0  0  0  0  0
   23.6110    7.8719   30.7362 C   0  0  0  0  0  0  0  0  0  0  0  0
   24.5525    8.6125   29.8435 C   0  0  0  0  0  0  0  0  0  0  0  0
   24.4925   10.0018   30.1359 O   0  0  0  0  0  0  0  0  0  0  0  0
   20.6187    6.1635   30.6263 F   0  0  0  0  0  0  0  0  0  0  0  0
   21.7046    6.7079   32.4217 F   0  0  0  0  0  0  0  0  0  0  0  0
   28.3185    4.3031   32.7655 C   0  0  0  0  0  0  0  0  0  0  0  0
   29.1572    5.1087   31.9971 N   0  0  0  0  0  0  0  0  0  0  0  0
   28.3156    3.0755   32.6154 O   0  0  0  0  0  0  0  0  0  0  0  0
   29.9040    4.5632   30.8605 C   0  0  2  0  0  0  0  0  0  0  0  0
   29.8759    5.4362   29.5931 C   0  0  0  0  0  0  0  0  0  0  0  0
   29.1257    4.1329   29.6124 C   0  0  1  0  0  0  0  0  0  0  0  0
   31.2169    3.8520   31.1652 C   0  0  0  0  0  0  0  0  0  0  0  0
   31.2985    3.2125   32.4069 N   0  0  0  0  0  0  0  0  0  0  0  0
   32.1327    3.8372   30.3578 O   0  0  0  0  0  0  0  0  0  0  0  0
   32.5692    3.5472   33.4303 S   0  0  0  0  0  0  0  0  0  0  0  0
   33.9254    2.3895   33.1724 C   0  0  0  0  0  0  0  0  0  0  0  0
   33.0455    4.8744   33.1034 O   0  0  0  0  0  0  0  0  0  0  0  0
   32.0608    3.3135   34.7676 O   0  0  0  0  0  0  0  0  0  0  0  0
   35.2200    2.8825   33.7068 C   0  0  0  0  0  0  0  0  0  0  0  0
   33.8732    1.5339   31.9165 C   0  0  0  0  0  0  0  0  0  0  0  0
   33.5293    0.9393   33.2538 C   0  0  0  0  0  0  0  0  0  0  0  0
   29.5851    2.9801   28.8077 C   0  0  0  0  0  0  0  0  0  0  0  0
   28.7387    2.8218   27.7727 F   0  0  0  0  0  0  0  0  0  0  0  0
   29.4969    1.8415   29.5484 F   0  0  0  0  0  0  0  0  0  0  0  0
   23.7366   11.8131   31.7795 H   0  0  0  0  0  0  0  0  0  0  0  0
   25.2208   11.9377   32.7551 H   0  0  0  0  0  0  0  0  0  0  0  0
   25.4869   13.7359   31.1478 H   0  0  0  0  0  0  0  0  0  0  0  0
   24.7523   12.7655   29.8630 H   0  0  0  0  0  0  0  0  0  0  0  0
   26.9018   12.2463   29.2634 H   0  0  0  0  0  0  0  0  0  0  0  0
   27.5886   12.7326   30.8283 H   0  0  0  0  0  0  0  0  0  0  0  0
   27.1401   10.0584   30.0051 H   0  0  0  0  0  0  0  0  0  0  0  0
   25.2627    9.6581   32.0519 H   0  0  0  0  0  0  0  0  0  0  0  0
   28.3319   10.1263   34.0704 H   0  0  0  0  0  0  0  0  0  0  0  0
   29.6111    7.5361   33.3951 H   0  0  0  0  0  0  0  0  0  0  0  0
   32.0934    8.9663   35.6687 H   0  0  0  0  0  0  0  0  0  0  0  0
   31.3364    9.7591   34.2622 H   0  0  0  0  0  0  0  0  0  0  0  0
   31.8221    8.0389   34.1606 H   0  0  0  0  0  0  0  0  0  0  0  0
   30.1896    9.5415   37.1939 H   0  0  0  0  0  0  0  0  0  0  0  0
   28.5225    9.2341   36.7120 H   0  0  0  0  0  0  0  0  0  0  0  0
   29.4907   10.4390   35.8591 H   0  0  0  0  0  0  0  0  0  0  0  0
   30.4533    6.2326   35.4385 H   0  0  0  0  0  0  0  0  0  0  0  0
   29.2893    6.7741   36.6750 H   0  0  0  0  0  0  0  0  0  0  0  0
   31.0237    7.1399   36.8636 H   0  0  0  0  0  0  0  0  0  0  0  0
   25.7375    4.8141   31.8613 H   0  0  0  0  0  0  0  0  0  0  0  0
   26.1293    7.0582   31.9676 H   0  0  0  0  0  0  0  0  0  0  0  0
   25.4033    7.2779   33.5604 H   0  0  0  0  0  0  0  0  0  0  0  0
   28.0959    4.9233   34.8137 H   0  0  0  0  0  0  0  0  0  0  0  0
   25.6498    4.7572   34.9553 H   0  0  0  0  0  0  0  0  0  0  0  0
   26.0671    3.3917   33.8759 H   0  0  0  0  0  0  0  0  0  0  0  0
   20.7945    1.6438   29.2703 H   0  0  0  0  0  0  0  0  0  0  0  0
   21.6726   -0.6684   29.3480 H   0  0  0  0  0  0  0  0  0  0  0  0
   23.5591   -1.2196   30.8840 H   0  0  0  0  0  0  0  0  0  0  0  0
   24.5893    0.5593   32.2466 H   0  0  0  0  0  0  0  0  0  0  0  0
   22.7804    6.5820   29.2840 H   0  0  0  0  0  0  0  0  0  0  0  0
   23.5692    8.1665   31.7783 H   0  0  0  0  0  0  0  0  0  0  0  0
   25.5722    8.2368   29.9585 H   0  0  0  0  0  0  0  0  0  0  0  0
   24.2716    8.4903   28.7950 H   0  0  0  0  0  0  0  0  0  0  0  0
   29.0171    6.1165   32.0336 H   0  0  0  0  0  0  0  0  0  0  0  0
   29.3062    6.3563   29.6053 H   0  0  0  0  0  0  0  0  0  0  0  0
   30.7905    5.5229   29.0168 H   0  0  0  0  0  0  0  0  0  0  0  0
   28.0465    4.1368   29.6959 H   0  0  0  0  0  0  0  0  0  0  0  0
   30.4219    3.1281   32.9128 H   0  0  0  0  0  0  0  0  0  0  0  0
   35.1265    3.1283   34.7691 H   0  0  0  0  0  0  0  0  0  0  0  0
   35.5646    3.7556   33.1554 H   0  0  0  0  0  0  0  0  0  0  0  0
   36.0015    2.1296   33.6309 H   0  0  0  0  0  0  0  0  0  0  0  0
   34.8150    1.2526   31.4457 H   0  0  0  0  0  0  0  0  0  0  0  0
   33.0584    1.6429   31.2059 H   0  0  0  0  0  0  0  0  0  0  0  0
   32.4914    0.6895   33.4456 H   0  0  0  0  0  0  0  0  0  0  0  0
   34.2369    0.2530   33.6929 H   0  0  0  0  0  0  0  0  0  0  0  0
   30.5916    3.0758   28.4029 H   0  0  0  0  0  0  0  0  0  0  0  0
  1  2  1  0
  2  3  1  0
  4  3  1  0
  4  5  1  0
  5  1  1  0
  4  6  1  0
  6  7  1  0
  7  8  1  0
  7  9  2  0
  8 10  1  0
 10 11  1  0
 10 12  1  0
 12 13  1  0
 12 14  1  0
 12 15  1  0
 11 16  2  0
 11 17  1  0
 19 17  1  0
 17 20  1  0
 18 19  1  0
 20 21  1  0
 18 21  1  0
 18 22  1  0
 22 23  1  0
 23 24  2  0
 28 23  1  0
 24 25  1  0
 26 27  1  0
 27 28  2  0
 26 29  1  0
 25 26  2  0
 32 25  1  0
 29 30  2  0
 30 31  1  0
 31 32  2  0
 28 33  1  0
 33 34  1  0
 34 35  2  0
 35 36  1  0
 36 37  1  0
  5 37  1  0
 33 38  1  0
 33 39  1  0
 20 40  1  0
 40 41  1  0
 40 42  2  0
 43 41  1  6
 43 44  1  0
 45 43  1  0
 44 45  1  0
 43 46  1  0
 46 47  1  0
 46 48  2  0
 47 49  1  0
 49 50  1  0
 49 51  2  0
 49 52  2  0
 50 53  1  0
 50 54  1  0
 55 50  1  0
 54 55  1  0
 45 56  1  0
 56 57  1  0
 56 58  1  0
  1 59  1  0
  1 60  1  0
  2 61  1  0
  2 62  1  0
  3 63  1  0
  3 64  1  0
  4 65  1  1
  5 66  1  6
  8 67  1  0
 10 68  1  1
 13 69  1  0
 13 70  1  0
 13 71  1  0
 14 72  1  0
 14 73  1  0
 14 74  1  0
 15 75  1  0
 15 76  1  0
 15 77  1  0
 18 78  1  1
 19 79  1  0
 19 80  1  0
 20 81  1  6
 21 82  1  0
 21 83  1  0
 29 84  1  0
 30 85  1  0
 31 86  1  0
 32 87  1  0
 34 88  1  0
 35 89  1  0
 36 90  1  0
 36 91  1  0
 41 92  1  0
 44 93  1  0
 44 94  1  0
 45 95  1  6
 47 96  1  0
 53 97  1  0
 53 98  1  0
 53 99  1  0
 54100  1  0
 54101  1  0
 55102  1  0
 55103  1  0
 56104  1  0
M  END
> <Uni-Dock RESULT> 
ENERGY=   -4.011  LOWER_BOUND=    0.000  UPPER_BOUND=    0.000
INTER + INTRA:          -4.011
INTER:                  -4.011
INTRA:                   0.000
UNBOUND:                 0.000

$$$$

     RDKit          3D

104110  0  0  0  0  0  0  0  0999 V2000
   29.2436   11.5298   22.4133 C   0  0  0  0  0  0  0  0  0  0  0  0
   28.6331   12.5766   21.5020 C   0  0  0  0  0  0  0  0  0  0  0  0
   27.9249   13.5709   22.4281 C   0  0  0  0  0  0  0  0  0  0  0  0
   28.4752   13.3091   23.8318 C   0  0  2  0  0  0  0  0  0  0  0  0
   29.6613   12.3401   23.6421 C   0  0  2  0  0  0  0  0  0  0  0  0
   27.4463   12.6402   24.5828 O   0  0  0  0  0  0  0  0  0  0  0  0
   27.4755   12.8161   25.9200 C   0  0  0  0  0  0  0  0  0  0  0  0
   26.6783   11.8717   26.4981 N   0  0  0  0  0  0  0  0  0  0  0  0
   28.1446   13.6408   26.5279 O   0  0  0  0  0  0  0  0  0  0  0  0
   26.7314   11.5859   27.9366 C   0  0  2  0  0  0  0  0  0  0  0  0
   28.0503   10.7926   28.1602 C   0  0  0  0  0  0  0  0  0  0  0  0
   25.4407   10.8828   28.4603 C   0  0  0  0  0  0  0  0  0  0  0  0
   24.2815   11.9016   28.4557 C   0  0  0  0  0  0  0  0  0  0  0  0
   25.0073    9.6806   27.6035 C   0  0  0  0  0  0  0  0  0  0  0  0
   25.6658   10.4043   29.9108 C   0  0  0  0  0  0  0  0  0  0  0  0
   28.2029    9.6160   27.8447 O   0  0  0  0  0  0  0  0  0  0  0  0
   29.1226   11.6022   28.5471 N   0  0  0  0  0  0  0  0  0  0  0  0
   31.5290   11.5072   28.6579 C   0  0  1  0  0  0  0  0  0  0  0  0
   30.3276   11.5027   27.7113 C   0  0  0  0  0  0  0  0  0  0  0  0
   29.5433   11.4984   29.9541 C   0  0  1  0  0  0  0  0  0  0  0  0
   30.9285   10.8461   29.9065 C   0  0  0  0  0  0  0  0  0  0  0  0
   32.6214   10.8001   28.0689 O   0  0  0  0  0  0  0  0  0  0  0  0
   33.8293   11.3149   28.4493 C   0  0  0  0  0  0  0  0  0  0  0  0
   33.9922   11.5617   29.7694 N   0  0  0  0  0  0  0  0  0  0  0  0
   35.1761   12.0699   30.1397 C   0  0  0  0  0  0  0  0  0  0  0  0
   36.1941   12.3394   29.1928 C   0  0  0  0  0  0  0  0  0  0  0  0
   36.0022   12.1027   27.8820 N   0  0  0  0  0  0  0  0  0  0  0  0
   34.8095   11.5578   27.5016 C   0  0  0  0  0  0  0  0  0  0  0  0
   37.3983   12.8924   29.6384 C   0  0  0  0  0  0  0  0  0  0  0  0
   37.6092   13.1974   30.9855 C   0  0  0  0  0  0  0  0  0  0  0  0
   36.6151   12.9056   31.9135 C   0  0  0  0  0  0  0  0  0  0  0  0
   35.3984   12.3577   31.4812 C   0  0  0  0  0  0  0  0  0  0  0  0
   34.5447   11.3352   26.0207 C   0  0  0  0  0  0  0  0  0  0  0  0
   33.6901   12.4489   25.4495 C   0  0  0  0  0  0  0  0  0  0  0  0
   32.4222   12.3249   25.0147 C   0  0  0  0  0  0  0  0  0  0  0  0
   31.5987   13.4509   24.4799 C   0  0  0  0  0  0  0  0  0  0  0  0
   30.8852   13.0152   23.3308 O   0  0  0  0  0  0  0  0  0  0  0  0
   35.7086   11.3216   25.2921 F   0  0  0  0  0  0  0  0  0  0  0  0
   33.9694   10.1189   25.7695 F   0  0  0  0  0  0  0  0  0  0  0  0
   29.6308   12.9034   30.5725 C   0  0  0  0  0  0  0  0  0  0  0  0
   28.8185   13.8668   29.9768 N   0  0  0  0  0  0  0  0  0  0  0  0
   30.2706   13.1674   31.5974 O   0  0  0  0  0  0  0  0  0  0  0  0
   28.8500   15.2647   30.4149 C   0  0  2  0  0  0  0  0  0  0  0  0
   28.8756   16.2968   29.2732 C   0  0  0  0  0  0  0  0  0  0  0  0
   30.1029   16.0962   30.1190 C   0  0  1  0  0  0  0  0  0  0  0  0
   28.0222   15.6303   31.6411 C   0  0  0  0  0  0  0  0  0  0  0  0
   27.8498   14.6194   32.5929 N   0  0  0  0  0  0  0  0  0  0  0  0
   27.5529   16.7490   31.7793 O   0  0  0  0  0  0  0  0  0  0  0  0
   26.3170   14.2108   33.1006 S   0  0  0  0  0  0  0  0  0  0  0  0
   25.8546   15.1471   34.5689 C   0  0  0  0  0  0  0  0  0  0  0  0
   25.4031   14.5673   32.0363 O   0  0  0  0  0  0  0  0  0  0  0  0
   26.3983   12.8180   33.4942 O   0  0  0  0  0  0  0  0  0  0  0  0
   24.3890   15.1707   34.8054 C   0  0  0  0  0  0  0  0  0  0  0  0
   26.7235   16.3422   34.9275 C   0  0  0  0  0  0  0  0  0  0  0  0
   26.8438   15.0584   35.7004 C   0  0  0  0  0  0  0  0  0  0  0  0
   30.5484   17.1377   31.0699 C   0  0  0  0  0  0  0  0  0  0  0  0
   31.6557   17.7199   30.5722 F   0  0  0  0  0  0  0  0  0  0  0  0
   30.9193   16.5566   32.2435 F   0  0  0  0  0  0  0  0  0  0  0  0
   30.0870   11.0239   21.9339 H   0  0  0  0  0  0  0  0  0  0  0  0
   28.4971   10.7722   22.6950 H   0  0  0  0  0  0  0  0  0  0  0  0
   27.9534   12.1370   20.7637 H   0  0  0  0  0  0  0  0  0  0  0  0
   29.4416   13.0776   20.9450 H   0  0  0  0  0  0  0  0  0  0  0  0
   28.1421   14.5927   22.0698 H   0  0  0  0  0  0  0  0  0  0  0  0
   26.8316   13.4319   22.3733 H   0  0  0  0  0  0  0  0  0  0  0  0
   28.7496   14.2622   24.2868 H   0  0  0  0  0  0  0  0  0  0  0  0
   29.7878   11.6634   24.4930 H   0  0  0  0  0  0  0  0  0  0  0  0
   26.3990   11.1195   25.8836 H   0  0  0  0  0  0  0  0  0  0  0  0
   26.8235   12.5494   28.4481 H   0  0  0  0  0  0  0  0  0  0  0  0
   23.3665   11.4226   28.8435 H   0  0  0  0  0  0  0  0  0  0  0  0
   24.0691   12.2753   27.4438 H   0  0  0  0  0  0  0  0  0  0  0  0
   24.5315   12.7577   29.1048 H   0  0  0  0  0  0  0  0  0  0  0  0
   24.1322    9.1767   28.0368 H   0  0  0  0  0  0  0  0  0  0  0  0
   25.7943    8.9265   27.5070 H   0  0  0  0  0  0  0  0  0  0  0  0
   24.7137    9.9788   26.5897 H   0  0  0  0  0  0  0  0  0  0  0  0
   26.0847   11.2163   30.5123 H   0  0  0  0  0  0  0  0  0  0  0  0
   26.3610    9.5502   29.9424 H   0  0  0  0  0  0  0  0  0  0  0  0
   24.7137   10.0861   30.3622 H   0  0  0  0  0  0  0  0  0  0  0  0
   31.7841   12.5530   28.8460 H   0  0  0  0  0  0  0  0  0  0  0  0
   30.3561   12.3872   27.0757 H   0  0  0  0  0  0  0  0  0  0  0  0
   30.3122   10.6235   27.0629 H   0  0  0  0  0  0  0  0  0  0  0  0
   28.8350   10.9046   30.5419 H   0  0  0  0  0  0  0  0  0  0  0  0
   30.8557    9.7460   29.7638 H   0  0  0  0  0  0  0  0  0  0  0  0
   31.5285   11.0385   30.8033 H   0  0  0  0  0  0  0  0  0  0  0  0
   38.1795   13.0939   28.9046 H   0  0  0  0  0  0  0  0  0  0  0  0
   38.5470   13.6468   31.2885 H   0  0  0  0  0  0  0  0  0  0  0  0
   36.7677   13.1368   32.9606 H   0  0  0  0  0  0  0  0  0  0  0  0
   34.6264   12.1672   32.2139 H   0  0  0  0  0  0  0  0  0  0  0  0
   34.1967   13.4085   25.3877 H   0  0  0  0  0  0  0  0  0  0  0  0
   31.9691   11.3409   25.0456 H   0  0  0  0  0  0  0  0  0  0  0  0
   30.9115   13.8251   25.2428 H   0  0  0  0  0  0  0  0  0  0  0  0
   32.2335   14.2839   24.1698 H   0  0  0  0  0  0  0  0  0  0  0  0
   28.4378   13.6668   29.0539 H   0  0  0  0  0  0  0  0  0  0  0  0
   28.8940   15.9437   28.2503 H   0  0  0  0  0  0  0  0  0  0  0  0
   28.2819   17.1968   29.3900 H   0  0  0  0  0  0  0  0  0  0  0  0
   30.9504   15.5580   29.7145 H   0  0  0  0  0  0  0  0  0  0  0  0
   28.4348   13.7986   32.4685 H   0  0  0  0  0  0  0  0  0  0  0  0
   23.9947   14.1515   34.8643 H   0  0  0  0  0  0  0  0  0  0  0  0
   23.8739   15.7202   34.0195 H   0  0  0  0  0  0  0  0  0  0  0  0
   24.1394   15.6540   35.7475 H   0  0  0  0  0  0  0  0  0  0  0  0
   26.2490   17.1985   35.4064 H   0  0  0  0  0  0  0  0  0  0  0  0
   27.5694   16.6185   34.3041 H   0  0  0  0  0  0  0  0  0  0  0  0
   27.7433   14.4676   35.5650 H   0  0  0  0  0  0  0  0  0  0  0  0
   26.4515   15.0410   36.7055 H   0  0  0  0  0  0  0  0  0  0  0  0
   29.8189   17.9224   31.2651 H   0  0  0  0  0  0  0  0  0  0  0  0
  1  2  1  0
  2  3  1  0
  4  3  1  0
  4  5  1  0
  5  1  1  0
  4  6  1  0
  6  7  1  0
  7  8  1  0
  7  9  2  0
  8 10  1  0
 10 11  1  0
 10 12  1  0
 12 13  1  0
 12 14  1  0
 12 15  1  0
 11 16  2  0
 11 17  1  0
 19 17  1  0
 17 20  1  0
 18 19  1  0
 20 21  1  0
 18 21  1  0
 18 22  1  0
 22 23  1  0
 23 24  2  0
 28 23  1  0
 24 25  1  0
 26 27  1  0
 27 28  2  0
 26 29  1  0
 25 26  2  0
 32 25  1  0
 29 30  2  0
 30 31  1  0
 31 32  2  0
 28 33  1  0
 33 34  1  0
 34 35  2  0
 35 36  1  0
 36 37  1  0
  5 37  1  0
 33 38  1  0
 33 39  1  0
 20 40  1  0
 40 41  1  0
 40 42  2  0
 43 41  1  6
 43 44  1  0
 45 43  1  0
 44 45  1  0
 43 46  1  0
 46 47  1  0
 46 48  2  0
 47 49  1  0
 49 50  1  0
 49 51  2  0
 49 52  2  0
 50 53  1  0
 50 54  1  0
 55 50  1  0
 54 55  1  0
 45 56  1  0
 56 57  1  0
 56 58  1  0
  1 59  1  0
  1 60  1  0
  2 61  1  0
  2 62  1  0
  3 63  1  0
  3 64  1  0
  4 65  1  1
  5 66  1  6
  8 67  1  0
 10 68  1  1
 13 69  1  0
 13 70  1  0
 13 71  1  0
 14 72  1  0
 14 73  1  0
 14 74  1  0
 15 75  1  0
 15 76  1  0
 15 77  1  0
 18 78  1  1
 19 79  1  0
 19 80  1  0
 20 81  1  6
 21 82  1  0
 21 83  1  0
 29 84  1  0
 30 85  1  0
 31 86  1  0
 32 87  1  0
 34 88  1  0
 35 89  1  0
 36 90  1  0
 36 91  1  0
 41 92  1  0
 44 93  1  0
 44 94  1  0
 45 95  1  6
 47 96  1  0
 53 97  1  0
 53 98  1  0
 53 99  1  0
 54100  1  0
 54101  1  0
 55102  1  0
 55103  1  0
 56104  1  0
M  END
> <Uni-Dock RESULT> 
ENERGY=   -3.975  LOWER_BOUND=    7.666  UPPER_BOUND=   12.388
INTER + INTRA:          -3.975
INTER:                  -3.975
INTRA:                   0.000
UNBOUND:                 0.000

$$$$

     RDKit          3D

104110  0  0  0  0  0  0  0  0999 V2000
   29.8423   10.9471   18.1728 C   0  0  0  0  0  0  0  0  0  0  0  0
   30.2889    9.4981   18.1682 C   0  0  0  0  0  0  0  0  0  0  0  0
   30.5879    9.1514   19.6305 C   0  0  0  0  0  0  0  0  0  0  0  0
   29.9327   10.2507   20.4696 C   0  0  2  0  0  0  0  0  0  0  0  0
   29.0676   11.0677   19.4866 C   0  0  2  0  0  0  0  0  0  0  0  0
   30.9829   11.0948   20.9740 O   0  0  0  0  0  0  0  0  0  0  0  0
   30.7254   11.7381   22.1316 C   0  0  0  0  0  0  0  0  0  0  0  0
   31.6473   12.7317   22.2887 N   0  0  0  0  0  0  0  0  0  0  0  0
   29.7924   11.5166   22.8916 O   0  0  0  0  0  0  0  0  0  0  0  0
   31.4695   13.8073   23.2711 C   0  0  2  0  0  0  0  0  0  0  0  0
   30.3757   14.7415   22.6797 C   0  0  0  0  0  0  0  0  0  0  0  0
   32.8105   14.5129   23.6428 C   0  0  0  0  0  0  0  0  0  0  0  0
   33.6641   13.5460   24.4902 C   0  0  0  0  0  0  0  0  0  0  0  0
   33.6477   14.9218   22.4184 C   0  0  0  0  0  0  0  0  0  0  0  0
   32.5149   15.7719   24.4860 C   0  0  0  0  0  0  0  0  0  0  0  0
   30.5702   15.5203   21.7508 O   0  0  0  0  0  0  0  0  0  0  0  0
   29.0909   14.4543   23.1505 N   0  0  0  0  0  0  0  0  0  0  0  0
   26.7950   14.9008   22.5660 C   0  0  1  0  0  0  0  0  0  0  0  0
   28.0777   14.1992   22.1166 C   0  0  0  0  0  0  0  0  0  0  0  0
   28.5194   15.4124   24.1113 C   0  0  1  0  0  0  0  0  0  0  0  0
   27.3642   16.0836   23.3621 C   0  0  0  0  0  0  0  0  0  0  0  0
   26.0089   15.2628   21.4296 O   0  0  0  0  0  0  0  0  0  0  0  0
   24.6695   15.2255   21.7007 C   0  0  0  0  0  0  0  0  0  0  0  0
   24.2685   15.8188   22.8483 N   0  0  0  0  0  0  0  0  0  0  0  0
   22.9552   15.7778   23.1139 C   0  0  0  0  0  0  0  0  0  0  0  0
   22.0433   15.1382   22.2393 C   0  0  0  0  0  0  0  0  0  0  0  0
   22.4682   14.5385   21.1119 N   0  0  0  0  0  0  0  0  0  0  0  0
   23.8007   14.6019   20.8207 C   0  0  0  0  0  0  0  0  0  0  0  0
   20.6888   15.1078   22.5840 C   0  0  0  0  0  0  0  0  0  0  0  0
   20.2234   15.6764   23.7725 C   0  0  0  0  0  0  0  0  0  0  0  0
   21.1206   16.3259   24.6138 C   0  0  0  0  0  0  0  0  0  0  0  0
   22.4839   16.3584   24.2855 C   0  0  0  0  0  0  0  0  0  0  0  0
   24.3155   13.8823   19.5839 C   0  0  0  0  0  0  0  0  0  0  0  0
   24.9318   12.5472   19.9507 C   0  0  0  0  0  0  0  0  0  0  0  0
   26.2375   12.2318   19.8633 C   0  0  0  0  0  0  0  0  0  0  0  0
   26.8159   10.9120   20.2578 C   0  0  0  0  0  0  0  0  0  0  0  0
   27.7683   10.5000   19.2869 O   0  0  0  0  0  0  0  0  0  0  0  0
   23.3051   13.6157   18.6929 F   0  0  0  0  0  0  0  0  0  0  0  0
   25.2082   14.6380   18.8729 F   0  0  0  0  0  0  0  0  0  0  0  0
   27.9954   14.6578   25.3442 C   0  0  0  0  0  0  0  0  0  0  0  0
   28.6125   13.4342   25.5991 N   0  0  0  0  0  0  0  0  0  0  0  0
   27.1741   15.1256   26.1417 O   0  0  0  0  0  0  0  0  0  0  0  0
   28.1689   12.5730   26.6984 C   0  0  2  0  0  0  0  0  0  0  0  0
   28.0418   11.0821   26.3372 C   0  0  0  0  0  0  0  0  0  0  0  0
   26.8001   11.8926   26.5881 C   0  0  1  0  0  0  0  0  0  0  0  0
   28.6996   12.8905   28.0912 C   0  0  0  0  0  0  0  0  0  0  0  0
   28.9881   14.2348   28.3499 N   0  0  0  0  0  0  0  0  0  0  0  0
   28.8475   12.0145   28.9288 O   0  0  0  0  0  0  0  0  0  0  0  0
   30.4889   14.6642   28.9309 S   0  0  0  0  0  0  0  0  0  0  0  0
   30.4921   14.7118   30.7320 C   0  0  0  0  0  0  0  0  0  0  0  0
   31.4214   13.6409   28.5085 O   0  0  0  0  0  0  0  0  0  0  0  0
   30.7082   16.0213   28.4705 O   0  0  0  0  0  0  0  0  0  0  0  0
   31.8570   14.6448   31.3126 C   0  0  0  0  0  0  0  0  0  0  0  0
   29.3087   14.0731   31.4415 C   0  0  0  0  0  0  0  0  0  0  0  0
   29.4106   15.5691   31.3336 C   0  0  0  0  0  0  0  0  0  0  0  0
   25.9789   11.6690   27.7977 C   0  0  0  0  0  0  0  0  0  0  0  0
   24.8404   11.0523   27.4288 F   0  0  0  0  0  0  0  0  0  0  0  0
   25.6079   12.8673   28.3262 F   0  0  0  0  0  0  0  0  0  0  0  0
   29.2287   11.1800   17.2974 H   0  0  0  0  0  0  0  0  0  0  0  0
   30.7095   11.6242   18.1808 H   0  0  0  0  0  0  0  0  0  0  0  0
   31.1529    9.3334   17.5151 H   0  0  0  0  0  0  0  0  0  0  0  0
   29.4652    8.8739   17.7850 H   0  0  0  0  0  0  0  0  0  0  0  0
   30.1715    8.1504   19.8409 H   0  0  0  0  0  0  0  0  0  0  0  0
   31.6776    9.0920   19.7938 H   0  0  0  0  0  0  0  0  0  0  0  0
   29.3663    9.7868   21.2788 H   0  0  0  0  0  0  0  0  0  0  0  0
   28.9996   12.1231   19.7684 H   0  0  0  0  0  0  0  0  0  0  0  0
   32.1897   12.9406   21.4620 H   0  0  0  0  0  0  0  0  0  0  0  0
   31.0673   13.3450   24.1782 H   0  0  0  0  0  0  0  0  0  0  0  0
   34.6076   14.0402   24.7776 H   0  0  0  0  0  0  0  0  0  0  0  0
   33.9132   12.6286   23.9380 H   0  0  0  0  0  0  0  0  0  0  0  0
   33.1187   13.2701   25.4085 H   0  0  0  0  0  0  0  0  0  0  0  0
   34.5529   15.4677   22.7183 H   0  0  0  0  0  0  0  0  0  0  0  0
   33.0976   15.5701   21.7295 H   0  0  0  0  0  0  0  0  0  0  0  0
   33.9939   14.0536   21.8446 H   0  0  0  0  0  0  0  0  0  0  0  0
   31.8256   15.5252   25.2987 H   0  0  0  0  0  0  0  0  0  0  0  0
   32.0604   16.5637   23.8692 H   0  0  0  0  0  0  0  0  0  0  0  0
   33.4446   16.1698   24.9209 H   0  0  0  0  0  0  0  0  0  0  0  0
   26.2607   14.2044   23.2169 H   0  0  0  0  0  0  0  0  0  0  0  0
   27.9152   13.1226   22.0797 H   0  0  0  0  0  0  0  0  0  0  0  0
   28.4041   14.5238   21.1258 H   0  0  0  0  0  0  0  0  0  0  0  0
   29.2663   16.1416   24.4430 H   0  0  0  0  0  0  0  0  0  0  0  0
   27.7313   16.8733   22.6711 H   0  0  0  0  0  0  0  0  0  0  0  0
   26.6169   16.5290   24.0288 H   0  0  0  0  0  0  0  0  0  0  0  0
   19.9914   14.6171   21.9043 H   0  0  0  0  0  0  0  0  0  0  0  0
   19.1699   15.6120   24.0159 H   0  0  0  0  0  0  0  0  0  0  0  0
   20.7712   16.7712   25.5372 H   0  0  0  0  0  0  0  0  0  0  0  0
   23.1699   16.8408   24.9681 H   0  0  0  0  0  0  0  0  0  0  0  0
   24.2129   11.8060   20.2900 H   0  0  0  0  0  0  0  0  0  0  0  0
   26.9155   12.9814   19.4722 H   0  0  0  0  0  0  0  0  0  0  0  0
   27.2740   10.9700   21.2483 H   0  0  0  0  0  0  0  0  0  0  0  0
   26.0406   10.1436   20.2968 H   0  0  0  0  0  0  0  0  0  0  0  0
   29.1554   13.0075   24.8508 H   0  0  0  0  0  0  0  0  0  0  0  0
   28.2549   10.7705   25.3229 H   0  0  0  0  0  0  0  0  0  0  0  0
   28.3670   10.3531   27.0714 H   0  0  0  0  0  0  0  0  0  0  0  0
   26.1803   12.1957   25.7542 H   0  0  0  0  0  0  0  0  0  0  0  0
   28.6524   14.8948   27.6547 H   0  0  0  0  0  0  0  0  0  0  0  0
   32.4837   15.4464   30.9097 H   0  0  0  0  0  0  0  0  0  0  0  0
   32.3203   13.6799   31.1145 H   0  0  0  0  0  0  0  0  0  0  0  0
   31.8436   14.7754   32.3925 H   0  0  0  0  0  0  0  0  0  0  0  0
   29.4806   13.6057   32.4109 H   0  0  0  0  0  0  0  0  0  0  0  0
   28.5151   13.5950   30.8738 H   0  0  0  0  0  0  0  0  0  0  0  0
   28.7171   16.0780   30.6730 H   0  0  0  0  0  0  0  0  0  0  0  0
   29.6516   16.1199   32.2296 H   0  0  0  0  0  0  0  0  0  0  0  0
   26.4524   11.0611   28.5673 H   0  0  0  0  0  0  0  0  0  0  0  0
  1  2  1  0
  2  3  1  0
  4  3  1  0
  4  5  1  0
  5  1  1  0
  4  6  1  0
  6  7  1  0
  7  8  1  0
  7  9  2  0
  8 10  1  0
 10 11  1  0
 10 12  1  0
 12 13  1  0
 12 14  1  0
 12 15  1  0
 11 16  2  0
 11 17  1  0
 19 17  1  0
 17 20  1  0
 18 19  1  0
 20 21  1  0
 18 21  1  0
 18 22  1  0
 22 23  1  0
 23 24  2  0
 28 23  1  0
 24 25  1  0
 26 27  1  0
 27 28  2  0
 26 29  1  0
 25 26  2  0
 32 25  1  0
 29 30  2  0
 30 31  1  0
 31 32  2  0
 28 33  1  0
 33 34  1  0
 34 35  2  0
 35 36  1  0
 36 37  1  0
  5 37  1  0
 33 38  1  0
 33 39  1  0
 20 40  1  0
 40 41  1  0
 40 42  2  0
 43 41  1  6
 43 44  1  0
 45 43  1  0
 44 45  1  0
 43 46  1  0
 46 47  1  0
 46 48  2  0
 47 49  1  0
 49 50  1  0
 49 51  2  0
 49 52  2  0
 50 53  1  0
 50 54  1  0
 55 50  1  0
 54 55  1  0
 45 56  1  0
 56 57  1  0
 56 58  1  0
  1 59  1  0
  1 60  1  0
  2 61  1  0
  2 62  1  0
  3 63  1  0
  3 64  1  0
  4 65  1  1
  5 66  1  6
  8 67  1  0
 10 68  1  1
 13 69  1  0
 13 70  1  0
 13 71  1  0
 14 72  1  0
 14 73  1  0
 14 74  1  0
 15 75  1  0
 15 76  1  0
 15 77  1  0
 18 78  1  1
 19 79  1  0
 19 80  1  0
 20 81  1  6
 21 82  1  0
 21 83  1  0
 29 84  1  0
 30 85  1  0
 31 86  1  0
 32 87  1  0
 34 88  1  0
 35 89  1  0
 36 90  1  0
 36 91  1  0
 41 92  1  0
 44 93  1  0
 44 94  1  0
 45 95  1  6
 47 96  1  0
 53 97  1  0
 53 98  1  0
 53 99  1  0
 54100  1  0
 54101  1  0
 55102  1  0
 55103  1  0
 56104  1  0
M  END
> <Uni-Dock RESULT> 
ENERGY=   -3.922  LOWER_BOUND=    9.321  UPPER_BOUND=   13.215
INTER + INTRA:          -3.922
INTER:                  -3.922
INTRA:                   0.000
UNBOUND:                 0.000

$$$$

     RDKit          3D

104110  0  0  0  0  0  0  0  0999 V2000
   26.8899    2.8143   32.6938 C   0  0  0  0  0  0  0  0  0  0  0  0
   25.6540    2.8252   31.8153 C   0  0  0  0  0  0  0  0  0  0  0  0
   25.7017    4.1509   31.0485 C   0  0  0  0  0  0  0  0  0  0  0  0
   27.1331    4.6727   31.1919 C   0  0  2  0  0  0  0  0  0  0  0  0
   27.9368    3.5195   31.8293 C   0  0  2  0  0  0  0  0  0  0  0  0
   27.1010    5.7785   32.1118 O   0  0  0  0  0  0  0  0  0  0  0  0
   28.0682    6.7068   31.9607 C   0  0  0  0  0  0  0  0  0  0  0  0
   28.1075    7.4777   33.0859 N   0  0  0  0  0  0  0  0  0  0  0  0
   28.8273    6.8137   31.0070 O   0  0  0  0  0  0  0  0  0  0  0  0
   29.2370    8.3681   33.3777 C   0  0  2  0  0  0  0  0  0  0  0  0
   30.4029    7.4386   33.8198 C   0  0  0  0  0  0  0  0  0  0  0  0
   28.8702    9.4957   34.3916 C   0  0  0  0  0  0  0  0  0  0  0  0
   27.9348   10.5068   33.6955 C   0  0  0  0  0  0  0  0  0  0  0  0
   28.1457    8.9793   35.6468 C   0  0  0  0  0  0  0  0  0  0  0  0
   30.1532   10.2358   34.8271 C   0  0  0  0  0  0  0  0  0  0  0  0
   30.4595    6.8853   34.9144 O   0  0  0  0  0  0  0  0  0  0  0  0
   31.2717    7.1079   32.7755 N   0  0  0  0  0  0  0  0  0  0  0  0
   32.9697    5.4736   32.2674 C   0  0  1  0  0  0  0  0  0  0  0  0
   31.4801    5.6699   32.5536 C   0  0  0  0  0  0  0  0  0  0  0  0
   32.5945    7.7541   32.7985 C   0  0  1  0  0  0  0  0  0  0  0  0
   33.5845    6.6202   33.0823 C   0  0  0  0  0  0  0  0  0  0  0  0
   33.3786    4.1646   32.6668 O   0  0  0  0  0  0  0  0  0  0  0  0
   34.3793    3.6765   31.8737 C   0  0  0  0  0  0  0  0  0  0  0  0
   35.4118    4.5130   31.6201 N   0  0  0  0  0  0  0  0  0  0  0  0
   36.3902    4.0335   30.8392 C   0  0  0  0  0  0  0  0  0  0  0  0
   36.3349    2.7232   30.3048 C   0  0  0  0  0  0  0  0  0  0  0  0
   35.2883    1.9153   30.5560 N   0  0  0  0  0  0  0  0  0  0  0  0
   34.3025    2.3870   31.3745 C   0  0  0  0  0  0  0  0  0  0  0  0
   37.3747    2.2897   29.4769 C   0  0  0  0  0  0  0  0  0  0  0  0
   38.4498    3.1223   29.1556 C   0  0  0  0  0  0  0  0  0  0  0  0
   38.5107    4.3985   29.7052 C   0  0  0  0  0  0  0  0  0  0  0  0
   37.4715    4.8508   30.5316 C   0  0  0  0  0  0  0  0  0  0  0  0
   33.0810    1.5169   31.6268 C   0  0  0  0  0  0  0  0  0  0  0  0
   31.9203    1.9450   30.7514 C   0  0  0  0  0  0  0  0  0  0  0  0
   30.7785    2.5146   31.1802 C   0  0  0  0  0  0  0  0  0  0  0  0
   29.6631    2.9481   30.2858 C   0  0  0  0  0  0  0  0  0  0  0  0
   28.4184    2.5785   30.8634 O   0  0  0  0  0  0  0  0  0  0  0  0
   33.3267    0.1978   31.3343 F   0  0  0  0  0  0  0  0  0  0  0  0
   32.7060    1.5114   32.9432 F   0  0  0  0  0  0  0  0  0  0  0  0
   32.8829    8.3904   31.4289 C   0  0  0  0  0  0  0  0  0  0  0  0
   31.7560    8.7426   30.6878 N   0  0  0  0  0  0  0  0  0  0  0  0
   34.0149    8.6932   31.0335 O   0  0  0  0  0  0  0  0  0  0  0  0
   31.8767    9.2937   29.3355 C   0  0  2  0  0  0  0  0  0  0  0  0
   30.8988    8.6969   28.3074 C   0  0  0  0  0  0  0  0  0  0  0  0
   32.3643    8.3734   28.2112 C   0  0  1  0  0  0  0  0  0  0  0  0
   32.1625   10.7855   29.2131 C   0  0  0  0  0  0  0  0  0  0  0  0
   32.9009   11.3598   30.2536 N   0  0  0  0  0  0  0  0  0  0  0  0
   31.7750   11.4289   28.2504 O   0  0  0  0  0  0  0  0  0  0  0  0
   32.3149   12.7044   31.0427 S   0  0  0  0  0  0  0  0  0  0  0  0
   32.9308   14.2167   30.2813 C   0  0  0  0  0  0  0  0  0  0  0  0
   30.8741   12.6888   30.9053 O   0  0  0  0  0  0  0  0  0  0  0  0
   32.8751   12.6437   32.3784 O   0  0  0  0  0  0  0  0  0  0  0  0
   32.1238   15.4132   30.6300 C   0  0  0  0  0  0  0  0  0  0  0  0
   33.5830   14.0851   28.9140 C   0  0  0  0  0  0  0  0  0  0  0  0
   34.4286   14.2777   30.1420 C   0  0  0  0  0  0  0  0  0  0  0  0
   33.1908    8.9143   27.1104 C   0  0  0  0  0  0  0  0  0  0  0  0
   33.4734    7.9097   26.2598 F   0  0  0  0  0  0  0  0  0  0  0  0
   34.3851    9.3424   27.6033 F   0  0  0  0  0  0  0  0  0  0  0  0
   27.1812    1.7946   32.9629 H   0  0  0  0  0  0  0  0  0  0  0  0
   26.7174    3.3834   33.6196 H   0  0  0  0  0  0  0  0  0  0  0  0
   24.7322    2.7120   32.3964 H   0  0  0  0  0  0  0  0  0  0  0  0
   25.7073    1.9740   31.1170 H   0  0  0  0  0  0  0  0  0  0  0  0
   25.4243    3.9531   29.9980 H   0  0  0  0  0  0  0  0  0  0  0  0
   24.9556    4.8547   31.4556 H   0  0  0  0  0  0  0  0  0  0  0  0
   27.4978    4.9775   30.2097 H   0  0  0  0  0  0  0  0  0  0  0  0
   28.7480    3.8801   32.4695 H   0  0  0  0  0  0  0  0  0  0  0  0
   27.5916    7.1066   33.8717 H   0  0  0  0  0  0  0  0  0  0  0  0
   29.5199    8.8417   32.4321 H   0  0  0  0  0  0  0  0  0  0  0  0
   27.6838   11.3215   34.3958 H   0  0  0  0  0  0  0  0  0  0  0  0
   26.9967   10.0374   33.3669 H   0  0  0  0  0  0  0  0  0  0  0  0
   28.4401   10.9425   32.8171 H   0  0  0  0  0  0  0  0  0  0  0  0
   27.9584    9.7920   36.3622 H   0  0  0  0  0  0  0  0  0  0  0  0
   28.7179    8.2125   36.1779 H   0  0  0  0  0  0  0  0  0  0  0  0
   27.1639    8.5507   35.4116 H   0  0  0  0  0  0  0  0  0  0  0  0
   30.7432   10.5116   33.9483 H   0  0  0  0  0  0  0  0  0  0  0  0
   30.7735    9.6015   35.4806 H   0  0  0  0  0  0  0  0  0  0  0  0
   29.8987   11.1515   35.3825 H   0  0  0  0  0  0  0  0  0  0  0  0
   33.1123    5.6277   31.1949 H   0  0  0  0  0  0  0  0  0  0  0  0
   30.8964    5.3884   31.6778 H   0  0  0  0  0  0  0  0  0  0  0  0
   31.1351    5.0653   33.3957 H   0  0  0  0  0  0  0  0  0  0  0  0
   32.6449    8.5376   33.5622 H   0  0  0  0  0  0  0  0  0  0  0  0
   33.6049    6.3584   34.1625 H   0  0  0  0  0  0  0  0  0  0  0  0
   34.6078    6.8493   32.7636 H   0  0  0  0  0  0  0  0  0  0  0  0
   37.3280    1.2782   29.0718 H   0  0  0  0  0  0  0  0  0  0  0  0
   39.2245    2.7582   28.4919 H   0  0  0  0  0  0  0  0  0  0  0  0
   39.3396    5.0526   29.4640 H   0  0  0  0  0  0  0  0  0  0  0  0
   37.5218    5.8573   30.9236 H   0  0  0  0  0  0  0  0  0  0  0  0
   32.0617    1.7344   29.6945 H   0  0  0  0  0  0  0  0  0  0  0  0
   30.6541    2.6615   32.2467 H   0  0  0  0  0  0  0  0  0  0  0  0
   29.7032    4.0260   30.1107 H   0  0  0  0  0  0  0  0  0  0  0  0
   29.7286    2.4528   29.3144 H   0  0  0  0  0  0  0  0  0  0  0  0
   30.8608    8.3400   30.9584 H   0  0  0  0  0  0  0  0  0  0  0  0
   30.2205    7.9154   28.6244 H   0  0  0  0  0  0  0  0  0  0  0  0
   30.4472    9.3703   27.5871 H   0  0  0  0  0  0  0  0  0  0  0  0
   32.7182    7.3958   28.5120 H   0  0  0  0  0  0  0  0  0  0  0  0
   33.3287   10.7028   30.8993 H   0  0  0  0  0  0  0  0  0  0  0  0
   32.0645   15.5312   31.7164 H   0  0  0  0  0  0  0  0  0  0  0  0
   31.1212   15.3454   30.2114 H   0  0  0  0  0  0  0  0  0  0  0  0
   32.5688   16.3275   30.2432 H   0  0  0  0  0  0  0  0  0  0  0  0
   33.4817   14.9137   28.2135 H   0  0  0  0  0  0  0  0  0  0  0  0
   33.6480   13.1182   28.4225 H   0  0  0  0  0  0  0  0  0  0  0  0
   35.0216   13.4373   30.4860 H   0  0  0  0  0  0  0  0  0  0  0  0
   34.9033   15.2374   30.2769 H   0  0  0  0  0  0  0  0  0  0  0  0
   32.7241    9.7142   26.5373 H   0  0  0  0  0  0  0  0  0  0  0  0
  1  2  1  0
  2  3  1  0
  4  3  1  0
  4  5  1  0
  5  1  1  0
  4  6  1  0
  6  7  1  0
  7  8  1  0
  7  9  2  0
  8 10  1  0
 10 11  1  0
 10 12  1  0
 12 13  1  0
 12 14  1  0
 12 15  1  0
 11 16  2  0
 11 17  1  0
 19 17  1  0
 17 20  1  0
 18 19  1  0
 20 21  1  0
 18 21  1  0
 18 22  1  0
 22 23  1  0
 23 24  2  0
 28 23  1  0
 24 25  1  0
 26 27  1  0
 27 28  2  0
 26 29  1  0
 25 26  2  0
 32 25  1  0
 29 30  2  0
 30 31  1  0
 31 32  2  0
 28 33  1  0
 33 34  1  0
 34 35  2  0
 35 36  1  0
 36 37  1  0
  5 37  1  0
 33 38  1  0
 33 39  1  0
 20 40  1  0
 40 41  1  0
 40 42  2  0
 43 41  1  6
 43 44  1  0
 45 43  1  0
 44 45  1  0
 43 46  1  0
 46 47  1  0
 46 48  2  0
 47 49  1  0
 49 50  1  0
 49 51  2  0
 49 52  2  0
 50 53  1  0
 50 54  1  0
 55 50  1  0
 54 55  1  0
 45 56  1  0
 56 57  1  0
 56 58  1  0
  1 59  1  0
  1 60  1  0
  2 61  1  0
  2 62  1  0
  3 63  1  0
  3 64  1  0
  4 65  1  1
  5 66  1  6
  8 67  1  0
 10 68  1  1
 13 69  1  0
 13 70  1  0
 13 71  1  0
 14 72  1  0
 14 73  1  0
 14 74  1  0
 15 75  1  0
 15 76  1  0
 15 77  1  0
 18 78  1  1
 19 79  1  0
 19 80  1  0
 20 81  1  6
 21 82  1  0
 21 83  1  0
 29 84  1  0
 30 85  1  0
 31 86  1  0
 32 87  1  0
 34 88  1  0
 35 89  1  0
 36 90  1  0
 36 91  1  0
 41 92  1  0
 44 93  1  0
 44 94  1  0
 45 95  1  6
 47 96  1  0
 53 97  1  0
 53 98  1  0
 53 99  1  0
 54100  1  0
 54101  1  0
 55102  1  0
 55103  1  0
 56104  1  0
M  END
> <Uni-Dock RESULT> 
ENERGY=   -3.896  LOWER_BOUND=    4.189  UPPER_BOUND=    9.283
INTER + INTRA:          -3.896
INTER:                  -3.896
INTRA:                   0.000
UNBOUND:                 0.000

$$$$

     RDKit          3D

104110  0  0  0  0  0  0  0  0999 V2000
   28.2140   13.3778   29.9734 C   0  0  0  0  0  0  0  0  0  0  0  0
   29.1221   13.8810   28.8682 C   0  0  0  0  0  0  0  0  0  0  0  0
   30.1906   12.7984   28.6840 C   0  0  0  0  0  0  0  0  0  0  0  0
   29.6514   11.5472   29.3809 C   0  0  2  0  0  0  0  0  0  0  0  0
   28.1841   11.8665   29.7373 C   0  0  2  0  0  0  0  0  0  0  0  0
   30.3969   11.3746   30.5992 O   0  0  0  0  0  0  0  0  0  0  0  0
   30.4994   10.1109   31.0605 C   0  0  0  0  0  0  0  0  0  0  0  0
   30.9200   10.1566   32.3577 N   0  0  0  0  0  0  0  0  0  0  0  0
   30.2114    9.0908   30.4491 O   0  0  0  0  0  0  0  0  0  0  0  0
   30.8353    8.9891   33.2428 C   0  0  2  0  0  0  0  0  0  0  0  0
   29.3295    8.8416   33.6027 C   0  0  0  0  0  0  0  0  0  0  0  0
   31.8002    9.0870   34.4649 C   0  0  0  0  0  0  0  0  0  0  0  0
   33.2514    8.9137   33.9692 C   0  0  0  0  0  0  0  0  0  0  0  0
   31.7185   10.4340   35.2038 C   0  0  0  0  0  0  0  0  0  0  0  0
   31.4855    7.9523   35.4634 C   0  0  0  0  0  0  0  0  0  0  0  0
   28.7393    9.5753   34.3905 O   0  0  0  0  0  0  0  0  0  0  0  0
   28.6507    7.9389   32.7786 N   0  0  0  0  0  0  0  0  0  0  0  0
   26.3868    7.3741   32.1721 C   0  0  1  0  0  0  0  0  0  0  0  0
   27.4547    8.4672   32.1071 C   0  0  0  0  0  0  0  0  0  0  0  0
   28.2902    6.6467   33.3851 C   0  0  1  0  0  0  0  0  0  0  0  0
   26.7616    6.6673   33.4824 C   0  0  0  0  0  0  0  0  0  0  0  0
   25.0836    7.9586   32.1550 O   0  0  0  0  0  0  0  0  0  0  0  0
   24.1701    7.1549   31.5319 C   0  0  0  0  0  0  0  0  0  0  0  0
   24.1738    5.8490   31.8852 N   0  0  0  0  0  0  0  0  0  0  0  0
   23.2796    5.0621   31.2703 C   0  0  0  0  0  0  0  0  0  0  0  0
   22.3877    5.5756   30.2975 C   0  0  0  0  0  0  0  0  0  0  0  0
   22.4150    6.8752   29.9489 N   0  0  0  0  0  0  0  0  0  0  0  0
   23.3034    7.6881   30.5925 C   0  0  0  0  0  0  0  0  0  0  0  0
   21.4949    4.6992   29.6737 C   0  0  0  0  0  0  0  0  0  0  0  0
   21.4767    3.3352   29.9764 C   0  0  0  0  0  0  0  0  0  0  0  0
   22.3373    2.8426   30.9517 C   0  0  0  0  0  0  0  0  0  0  0  0
   23.2442    3.7078   31.5811 C   0  0  0  0  0  0  0  0  0  0  0  0
   23.3955    9.1478   30.1760 C   0  0  0  0  0  0  0  0  0  0  0  0
   24.5713    9.3733   29.2467 C   0  0  0  0  0  0  0  0  0  0  0  0
   25.6818   10.0763   29.5377 C   0  0  0  0  0  0  0  0  0  0  0  0
   26.8350   10.2579   28.6054 C   0  0  0  0  0  0  0  0  0  0  0  0
   27.2812   11.6060   28.6568 O   0  0  0  0  0  0  0  0  0  0  0  0
   22.2744    9.5543   29.4950 F   0  0  0  0  0  0  0  0  0  0  0  0
   23.4696    9.9940   31.2493 F   0  0  0  0  0  0  0  0  0  0  0  0
   28.7562    5.4997   32.4734 C   0  0  0  0  0  0  0  0  0  0  0  0
   29.8363    5.8000   31.6450 N   0  0  0  0  0  0  0  0  0  0  0  0
   28.3091    4.3481   32.5302 O   0  0  0  0  0  0  0  0  0  0  0  0
   30.3430    4.8275   30.6731 C   0  0  2  0  0  0  0  0  0  0  0  0
   30.6437    5.4071   29.2792 C   0  0  0  0  0  0  0  0  0  0  0  0
   29.4714    4.4827   29.4606 C   0  0  1  0  0  0  0  0  0  0  0  0
   31.3056    3.7640   31.1875 C   0  0  0  0  0  0  0  0  0  0  0  0
   31.1397    3.3748   32.5211 N   0  0  0  0  0  0  0  0  0  0  0  0
   32.1599    3.2779   30.4632 O   0  0  0  0  0  0  0  0  0  0  0  0
   32.4371    3.4160   33.5648 S   0  0  0  0  0  0  0  0  0  0  0  0
   33.2824    1.8253   33.6037 C   0  0  0  0  0  0  0  0  0  0  0  0
   33.3653    4.4037   33.0569 O   0  0  0  0  0  0  0  0  0  0  0  0
   31.8679    3.6259   34.8814 O   0  0  0  0  0  0  0  0  0  0  0  0
   34.6634    1.9141   34.1418 C   0  0  0  0  0  0  0  0  0  0  0  0
   32.9331    0.8310   32.5077 C   0  0  0  0  0  0  0  0  0  0  0  0
   32.3862    0.6516   33.8965 C   0  0  0  0  0  0  0  0  0  0  0  0
   29.4873    3.1161   28.8953 C   0  0  0  0  0  0  0  0  0  0  0  0
   28.6495    3.0836   27.8419 F   0  0  0  0  0  0  0  0  0  0  0  0
   28.9859    2.2385   29.8069 F   0  0  0  0  0  0  0  0  0  0  0  0
   27.2215   13.8344   29.9154 H   0  0  0  0  0  0  0  0  0  0  0  0
   28.6419   13.5983   30.9628 H   0  0  0  0  0  0  0  0  0  0  0  0
   29.5554   14.8596   29.1020 H   0  0  0  0  0  0  0  0  0  0  0  0
   28.5288   13.9975   27.9466 H   0  0  0  0  0  0  0  0  0  0  0  0
   30.3477   12.6479   27.6013 H   0  0  0  0  0  0  0  0  0  0  0  0
   31.1519   13.1342   29.1092 H   0  0  0  0  0  0  0  0  0  0  0  0
   29.7696   10.6925   28.7129 H   0  0  0  0  0  0  0  0  0  0  0  0
   27.8589   11.3657   30.6545 H   0  0  0  0  0  0  0  0  0  0  0  0
   30.8726   11.0707   32.7862 H   0  0  0  0  0  0  0  0  0  0  0  0
   31.1293    8.1184   32.6480 H   0  0  0  0  0  0  0  0  0  0  0  0
   33.9435    8.9604   34.8271 H   0  0  0  0  0  0  0  0  0  0  0  0
   33.5371    9.7004   33.2564 H   0  0  0  0  0  0  0  0  0  0  0  0
   33.3660    7.9322   33.4790 H   0  0  0  0  0  0  0  0  0  0  0  0
   32.3665   10.4424   36.0912 H   0  0  0  0  0  0  0  0  0  0  0  0
   30.7054   10.6658   35.5464 H   0  0  0  0  0  0  0  0  0  0  0  0
   32.0516   11.2708   34.5779 H   0  0  0  0  0  0  0  0  0  0  0  0
   31.4247    6.9957   34.9363 H   0  0  0  0  0  0  0  0  0  0  0  0
   30.5270    8.1312   35.9765 H   0  0  0  0  0  0  0  0  0  0  0  0
   32.2743    7.8840   36.2281 H   0  0  0  0  0  0  0  0  0  0  0  0
   26.5442    6.7215   31.3098 H   0  0  0  0  0  0  0  0  0  0  0  0
   27.7231    8.6588   31.0687 H   0  0  0  0  0  0  0  0  0  0  0  0
   27.1138    9.4083   32.5451 H   0  0  0  0  0  0  0  0  0  0  0  0
   28.7578    6.5202   34.3675 H   0  0  0  0  0  0  0  0  0  0  0  0
   26.4172    7.2637   34.3550 H   0  0  0  0  0  0  0  0  0  0  0  0
   26.3189    5.6671   33.5520 H   0  0  0  0  0  0  0  0  0  0  0  0
   20.8081    5.1018   28.9284 H   0  0  0  0  0  0  0  0  0  0  0  0
   20.7861    2.6839   29.4547 H   0  0  0  0  0  0  0  0  0  0  0  0
   22.3316    1.7872   31.1953 H   0  0  0  0  0  0  0  0  0  0  0  0
   23.9265    3.2996   32.3140 H   0  0  0  0  0  0  0  0  0  0  0  0
   24.4512    8.9249   28.2639 H   0  0  0  0  0  0  0  0  0  0  0  0
   25.7416   10.5508   30.5101 H   0  0  0  0  0  0  0  0  0  0  0  0
   27.6478    9.5717   28.8559 H   0  0  0  0  0  0  0  0  0  0  0  0
   26.5372   10.0549   27.5743 H   0  0  0  0  0  0  0  0  0  0  0  0
   30.0713    6.7804   31.5025 H   0  0  0  0  0  0  0  0  0  0  0  0
   30.4470    6.4555   29.0960 H   0  0  0  0  0  0  0  0  0  0  0  0
   31.5320    5.0565   28.7652 H   0  0  0  0  0  0  0  0  0  0  0  0
   28.4668    4.8853   29.4628 H   0  0  0  0  0  0  0  0  0  0  0  0
   30.2883    3.7013   32.9683 H   0  0  0  0  0  0  0  0  0  0  0  0
   34.6571    2.3661   35.1385 H   0  0  0  0  0  0  0  0  0  0  0  0
   35.3058    2.4916   33.4793 H   0  0  0  0  0  0  0  0  0  0  0  0
   35.1188    0.9321   34.2501 H   0  0  0  0  0  0  0  0  0  0  0  0
   33.7121    0.1525   32.1607 H   0  0  0  0  0  0  0  0  0  0  0  0
   32.2191    1.0914   31.7310 H   0  0  0  0  0  0  0  0  0  0  0  0
   31.3270    0.8266   34.0507 H   0  0  0  0  0  0  0  0  0  0  0  0
   32.7928   -0.1493   34.4945 H   0  0  0  0  0  0  0  0  0  0  0  0
   30.4631    2.7722   28.5551 H   0  0  0  0  0  0  0  0  0  0  0  0
  1  2  1  0
  2  3  1  0
  4  3  1  0
  4  5  1  0
  5  1  1  0
  4  6  1  0
  6  7  1  0
  7  8  1  0
  7  9  2  0
  8 10  1  0
 10 11  1  0
 10 12  1  0
 12 13  1  0
 12 14  1  0
 12 15  1  0
 11 16  2  0
 11 17  1  0
 19 17  1  0
 17 20  1  0
 18 19  1  0
 20 21  1  0
 18 21  1  0
 18 22  1  0
 22 23  1  0
 23 24  2  0
 28 23  1  0
 24 25  1  0
 26 27  1  0
 27 28  2  0
 26 29  1  0
 25 26  2  0
 32 25  1  0
 29 30  2  0
 30 31  1  0
 31 32  2  0
 28 33  1  0
 33 34  1  0
 34 35  2  0
 35 36  1  0
 36 37  1  0
  5 37  1  0
 33 38  1  0
 33 39  1  0
 20 40  1  0
 40 41  1  0
 40 42  2  0
 43 41  1  6
 43 44  1  0
 45 43  1  0
 44 45  1  0
 43 46  1  0
 46 47  1  0
 46 48  2  0
 47 49  1  0
 49 50  1  0
 49 51  2  0
 49 52  2  0
 50 53  1  0
 50 54  1  0
 55 50  1  0
 54 55  1  0
 45 56  1  0
 56 57  1  0
 56 58  1  0
  1 59  1  0
  1 60  1  0
  2 61  1  0
  2 62  1  0
  3 63  1  0
  3 64  1  0
  4 65  1  1
  5 66  1  6
  8 67  1  0
 10 68  1  1
 13 69  1  0
 13 70  1  0
 13 71  1  0
 14 72  1  0
 14 73  1  0
 14 74  1  0
 15 75  1  0
 15 76  1  0
 15 77  1  0
 18 78  1  1
 19 79  1  0
 19 80  1  0
 20 81  1  6
 21 82  1  0
 21 83  1  0
 29 84  1  0
 30 85  1  0
 31 86  1  0
 32 87  1  0
 34 88  1  0
 35 89  1  0
 36 90  1  0
 36 91  1  0
 41 92  1  0
 44 93  1  0
 44 94  1  0
 45 95  1  6
 47 96  1  0
 53 97  1  0
 53 98  1  0
 53 99  1  0
 54100  1  0
 54101  1  0
 55102  1  0
 55103  1  0
 56104  1  0
M  END
> <Uni-Dock RESULT> 
ENERGY=   -3.758  LOWER_BOUND=    1.871  UPPER_BOUND=    2.535
INTER + INTRA:          -3.758
INTER:                  -3.758
INTRA:                   0.000
UNBOUND:                 0.000

$$$$

     RDKit          3D

104110  0  0  0  0  0  0  0  0999 V2000
   34.7919   18.6845   24.9308 C   0  0  0  0  0  0  0  0  0  0  0  0
   35.9482   18.7046   25.9115 C   0  0  0  0  0  0  0  0  0  0  0  0
   35.4783   17.8937   27.1236 C   0  0  0  0  0  0  0  0  0  0  0  0
   34.2545   17.1028   26.6564 C   0  0  2  0  0  0  0  0  0  0  0  0
   34.1956   17.2891   25.1254 C   0  0  2  0  0  0  0  0  0  0  0  0
   33.0925   17.7162   27.2425 O   0  0  0  0  0  0  0  0  0  0  0  0
   32.0291   16.9098   27.4397 C   0  0  0  0  0  0  0  0  0  0  0  0
   30.9321   17.6884   27.6682 N   0  0  0  0  0  0  0  0  0  0  0  0
   32.0234   15.6881   27.3703 O   0  0  0  0  0  0  0  0  0  0  0  0
   29.5697   17.1460   27.6108 C   0  0  2  0  0  0  0  0  0  0  0  0
   29.2634   16.9352   26.1007 C   0  0  0  0  0  0  0  0  0  0  0  0
   28.5362   18.0281   28.3777 C   0  0  0  0  0  0  0  0  0  0  0  0
   28.7910   17.8902   29.8935 C   0  0  0  0  0  0  0  0  0  0  0  0
   28.6252   19.5230   28.0249 C   0  0  0  0  0  0  0  0  0  0  0  0
   27.1067   17.5299   28.0746 C   0  0  0  0  0  0  0  0  0  0  0  0
   29.0130   17.8485   25.3193 O   0  0  0  0  0  0  0  0  0  0  0  0
   29.5199   15.6327   25.6619 N   0  0  0  0  0  0  0  0  0  0  0  0
   29.8511   14.4398   23.5932 C   0  0  1  0  0  0  0  0  0  0  0  0
   30.4290   15.5169   24.5127 C   0  0  0  0  0  0  0  0  0  0  0  0
   28.3418   14.7932   25.3878 C   0  0  1  0  0  0  0  0  0  0  0  0
   28.3481   14.5849   23.8702 C   0  0  0  0  0  0  0  0  0  0  0  0
   30.2406   14.6871   22.2413 O   0  0  0  0  0  0  0  0  0  0  0  0
   30.3909   13.5284   21.5317 C   0  0  0  0  0  0  0  0  0  0  0  0
   29.4018   12.6134   21.6521 N   0  0  0  0  0  0  0  0  0  0  0  0
   29.5531   11.4765   20.9582 C   0  0  0  0  0  0  0  0  0  0  0  0
   30.6943   11.2487   20.1512 C   0  0  0  0  0  0  0  0  0  0  0  0
   31.6746   12.1665   20.0615 N   0  0  0  0  0  0  0  0  0  0  0  0
   31.5130   13.3388   20.7424 C   0  0  0  0  0  0  0  0  0  0  0  0
   30.8058   10.0324   19.4712 C   0  0  0  0  0  0  0  0  0  0  0  0
   29.8300    9.0387   19.5844 C   0  0  0  0  0  0  0  0  0  0  0  0
   28.6993    9.2796   20.3577 C   0  0  0  0  0  0  0  0  0  0  0  0
   28.5764   10.4921   21.0521 C   0  0  0  0  0  0  0  0  0  0  0  0
   32.6321   14.3679   20.7054 C   0  0  0  0  0  0  0  0  0  0  0  0
   33.4790   14.2931   21.9600 C   0  0  0  0  0  0  0  0  0  0  0  0
   33.5470   15.2326   22.9216 C   0  0  0  0  0  0  0  0  0  0  0  0
   34.3745   15.1153   24.1600 C   0  0  0  0  0  0  0  0  0  0  0  0
   35.0200   16.3542   24.4205 O   0  0  0  0  0  0  0  0  0  0  0  0
   33.4811   14.1585   19.6465 F   0  0  0  0  0  0  0  0  0  0  0  0
   32.1653   15.6416   20.5230 F   0  0  0  0  0  0  0  0  0  0  0  0
   28.4854   13.4470   26.1166 C   0  0  0  0  0  0  0  0  0  0  0  0
   29.2913   13.4696   27.2537 N   0  0  0  0  0  0  0  0  0  0  0  0
   27.8519   12.4285   25.8154 O   0  0  0  0  0  0  0  0  0  0  0  0
   29.5759   12.2464   28.0087 C   0  0  2  0  0  0  0  0  0  0  0  0
   31.0482   12.0734   28.4229 C   0  0  0  0  0  0  0  0  0  0  0  0
   30.4661   11.1788   27.3635 C   0  0  1  0  0  0  0  0  0  0  0  0
   28.5293   11.7903   29.0181 C   0  0  0  0  0  0  0  0  0  0  0  0
   27.2017   12.1166   28.7206 N   0  0  0  0  0  0  0  0  0  0  0  0
   28.8431   11.1650   30.0188 O   0  0  0  0  0  0  0  0  0  0  0  0
   26.2726   12.9195   29.8458 S   0  0  0  0  0  0  0  0  0  0  0  0
   25.3568   11.7561   30.8724 C   0  0  0  0  0  0  0  0  0  0  0  0
   27.1774   13.6561   30.7025 O   0  0  0  0  0  0  0  0  0  0  0  0
   25.2963   13.6676   29.0786 O   0  0  0  0  0  0  0  0  0  0  0  0
   24.8772   12.3551   32.1434 C   0  0  0  0  0  0  0  0  0  0  0  0
   25.7787   10.2967   30.8063 C   0  0  0  0  0  0  0  0  0  0  0  0
   24.5345   10.7589   30.1003 C   0  0  0  0  0  0  0  0  0  0  0  0
   30.2229    9.7445   27.6302 C   0  0  0  0  0  0  0  0  0  0  0  0
   31.1414    9.0267   26.9565 F   0  0  0  0  0  0  0  0  0  0  0  0
   29.0123    9.3841   27.1231 F   0  0  0  0  0  0  0  0  0  0  0  0
   35.1327   18.8594   23.9059 H   0  0  0  0  0  0  0  0  0  0  0  0
   34.0478   19.4536   25.1867 H   0  0  0  0  0  0  0  0  0  0  0  0
   36.2447   19.7243   26.1809 H   0  0  0  0  0  0  0  0  0  0  0  0
   36.8212   18.2235   25.4410 H   0  0  0  0  0  0  0  0  0  0  0  0
   36.3087   17.2411   27.4463 H   0  0  0  0  0  0  0  0  0  0  0  0
   35.2462   18.5668   27.9667 H   0  0  0  0  0  0  0  0  0  0  0  0
   34.3634   16.0642   26.9729 H   0  0  0  0  0  0  0  0  0  0  0  0
   33.1701   17.2797   24.7429 H   0  0  0  0  0  0  0  0  0  0  0  0
   31.0539   18.6669   27.4467 H   0  0  0  0  0  0  0  0  0  0  0  0
   29.5992   16.1632   28.0920 H   0  0  0  0  0  0  0  0  0  0  0  0
   28.0532   18.4935   30.4492 H   0  0  0  0  0  0  0  0  0  0  0  0
   29.7961   18.2371   30.1728 H   0  0  0  0  0  0  0  0  0  0  0  0
   28.6826   16.8355   30.1980 H   0  0  0  0  0  0  0  0  0  0  0  0
   27.8444   20.1013   28.5380 H   0  0  0  0  0  0  0  0  0  0  0  0
   28.5088   19.7105   26.9531 H   0  0  0  0  0  0  0  0  0  0  0  0
   29.5807   19.9651   28.3324 H   0  0  0  0  0  0  0  0  0  0  0  0
   27.0515   16.4457   28.2087 H   0  0  0  0  0  0  0  0  0  0  0  0
   26.8150   17.7702   27.0396 H   0  0  0  0  0  0  0  0  0  0  0  0
   26.3822   18.0064   28.7526 H   0  0  0  0  0  0  0  0  0  0  0  0
   30.2296   13.4785   23.9494 H   0  0  0  0  0  0  0  0  0  0  0  0
   31.3967   15.1943   24.8952 H   0  0  0  0  0  0  0  0  0  0  0  0
   30.5719   16.4701   23.9983 H   0  0  0  0  0  0  0  0  0  0  0  0
   27.4185   15.2745   25.7277 H   0  0  0  0  0  0  0  0  0  0  0  0
   27.9408   15.4707   23.3361 H   0  0  0  0  0  0  0  0  0  0  0  0
   27.7836   13.7009   23.5524 H   0  0  0  0  0  0  0  0  0  0  0  0
   31.6852    9.8649   18.8483 H   0  0  0  0  0  0  0  0  0  0  0  0
   29.9636    8.1002   19.0604 H   0  0  0  0  0  0  0  0  0  0  0  0
   27.9359    8.5172   20.4521 H   0  0  0  0  0  0  0  0  0  0  0  0
   27.7049   10.6476   21.6730 H   0  0  0  0  0  0  0  0  0  0  0  0
   34.0815   13.3916   22.0343 H   0  0  0  0  0  0  0  0  0  0  0  0
   32.9702   16.1400   22.7862 H   0  0  0  0  0  0  0  0  0  0  0  0
   33.7584   14.8140   25.0108 H   0  0  0  0  0  0  0  0  0  0  0  0
   35.1566   14.3631   24.0353 H   0  0  0  0  0  0  0  0  0  0  0  0
   29.9177   14.2623   27.3801 H   0  0  0  0  0  0  0  0  0  0  0  0
   31.7670   12.8245   28.1221 H   0  0  0  0  0  0  0  0  0  0  0  0
   31.2536   11.6758   29.4108 H   0  0  0  0  0  0  0  0  0  0  0  0
   30.7279   11.3370   26.3252 H   0  0  0  0  0  0  0  0  0  0  0  0
   27.0383   12.4664   27.7812 H   0  0  0  0  0  0  0  0  0  0  0  0
   24.2712   13.2440   31.9425 H   0  0  0  0  0  0  0  0  0  0  0  0
   25.7109   12.6165   32.7927 H   0  0  0  0  0  0  0  0  0  0  0  0
   24.2437   11.6680   32.7003 H   0  0  0  0  0  0  0  0  0  0  0  0
   25.6749    9.6896   31.7054 H   0  0  0  0  0  0  0  0  0  0  0  0
   26.6109    9.9889   30.1790 H   0  0  0  0  0  0  0  0  0  0  0  0
   24.5501   10.7940   29.0163 H   0  0  0  0  0  0  0  0  0  0  0  0
   23.5839   10.4659   30.5187 H   0  0  0  0  0  0  0  0  0  0  0  0
   30.2800    9.4573   28.6791 H   0  0  0  0  0  0  0  0  0  0  0  0
  1  2  1  0
  2  3  1  0
  4  3  1  0
  4  5  1  0
  5  1  1  0
  4  6  1  0
  6  7  1  0
  7  8  1  0
  7  9  2  0
  8 10  1  0
 10 11  1  0
 10 12  1  0
 12 13  1  0
 12 14  1  0
 12 15  1  0
 11 16  2  0
 11 17  1  0
 19 17  1  0
 17 20  1  0
 18 19  1  0
 20 21  1  0
 18 21  1  0
 18 22  1  0
 22 23  1  0
 23 24  2  0
 28 23  1  0
 24 25  1  0
 26 27  1  0
 27 28  2  0
 26 29  1  0
 25 26  2  0
 32 25  1  0
 29 30  2  0
 30 31  1  0
 31 32  2  0
 28 33  1  0
 33 34  1  0
 34 35  2  0
 35 36  1  0
 36 37  1  0
  5 37  1  0
 33 38  1  0
 33 39  1  0
 20 40  1  0
 40 41  1  0
 40 42  2  0
 43 41  1  6
 43 44  1  0
 45 43  1  0
 44 45  1  0
 43 46  1  0
 46 47  1  0
 46 48  2  0
 47 49  1  0
 49 50  1  0
 49 51  2  0
 49 52  2  0
 50 53  1  0
 50 54  1  0
 55 50  1  0
 54 55  1  0
 45 56  1  0
 56 57  1  0
 56 58  1  0
  1 59  1  0
  1 60  1  0
  2 61  1  0
  2 62  1  0
  3 63  1  0
  3 64  1  0
  4 65  1  1
  5 66  1  6
  8 67  1  0
 10 68  1  1
 13 69  1  0
 13 70  1  0
 13 71  1  0
 14 72  1  0
 14 73  1  0
 14 74  1  0
 15 75  1  0
 15 76  1  0
 15 77  1  0
 18 78  1  1
 19 79  1  0
 19 80  1  0
 20 81  1  6
 21 82  1  0
 21 83  1  0
 29 84  1  0
 30 85  1  0
 31 86  1  0
 32 87  1  0
 34 88  1  0
 35 89  1  0
 36 90  1  0
 36 91  1  0
 41 92  1  0
 44 93  1  0
 44 94  1  0
 45 95  1  6
 47 96  1  0
 53 97  1  0
 53 98  1  0
 53 99  1  0
 54100  1  0
 54101  1  0
 55102  1  0
 55103  1  0
 56104  1  0
M  END
> <Uni-Dock RESULT> 
ENERGY=   -3.565  LOWER_BOUND=    8.795  UPPER_BOUND=   12.967
INTER + INTRA:          -3.565
INTER:                  -3.565
INTRA:                   0.000
UNBOUND:                 0.000

$$$$

     RDKit          3D

104110  0  0  0  0  0  0  0  0999 V2000
   23.2073   14.1287   29.0554 C   0  0  0  0  0  0  0  0  0  0  0  0
   23.1798   14.7794   27.6861 C   0  0  0  0  0  0  0  0  0  0  0  0
   24.6163   14.6980   27.1590 C   0  0  0  0  0  0  0  0  0  0  0  0
   25.3313   13.6660   28.0340 C   0  0  2  0  0  0  0  0  0  0  0  0
   24.2276   13.0015   28.8838 C   0  0  2  0  0  0  0  0  0  0  0  0
   26.2213   14.3820   28.9088 O   0  0  0  0  0  0  0  0  0  0  0  0
   27.3087   13.7064   29.3345 C   0  0  0  0  0  0  0  0  0  0  0  0
   27.8474   14.3770   30.3937 N   0  0  0  0  0  0  0  0  0  0  0  0
   27.7191   12.6417   28.8927 O   0  0  0  0  0  0  0  0  0  0  0  0
   28.8409   13.7590   31.2796 C   0  0  2  0  0  0  0  0  0  0  0  0
   28.0508   12.7478   32.1582 C   0  0  0  0  0  0  0  0  0  0  0  0
   29.6787   14.8095   32.0726 C   0  0  0  0  0  0  0  0  0  0  0  0
   30.6343   15.5255   31.0949 C   0  0  0  0  0  0  0  0  0  0  0  0
   28.8204   15.8871   32.7575 C   0  0  0  0  0  0  0  0  0  0  0  0
   30.5248   14.0913   33.1458 C   0  0  0  0  0  0  0  0  0  0  0  0
   27.3168   13.0754   33.0863 O   0  0  0  0  0  0  0  0  0  0  0  0
   28.0732   11.4437   31.6547 N   0  0  0  0  0  0  0  0  0  0  0  0
   26.8698    9.3707   31.9131 C   0  0  1  0  0  0  0  0  0  0  0  0
   26.7583   10.8218   31.4427 C   0  0  0  0  0  0  0  0  0  0  0  0
   28.9134   10.4782   32.3825 C   0  0  1  0  0  0  0  0  0  0  0  0
   27.9264    9.4953   33.0198 C   0  0  0  0  0  0  0  0  0  0  0  0
   25.5949    8.8961   32.3488 O   0  0  0  0  0  0  0  0  0  0  0  0
   25.4391    7.5584   32.1144 C   0  0  0  0  0  0  0  0  0  0  0  0
   26.4680    6.7578   32.4758 N   0  0  0  0  0  0  0  0  0  0  0  0
   26.3145    5.4468   32.2416 C   0  0  0  0  0  0  0  0  0  0  0  0
   25.1389    4.9355   31.6399 C   0  0  0  0  0  0  0  0  0  0  0  0
   24.1359    5.7539   31.2720 N   0  0  0  0  0  0  0  0  0  0  0  0
   24.2734    7.0868   31.5343 C   0  0  0  0  0  0  0  0  0  0  0  0
   25.0491    3.5613   31.3993 C   0  0  0  0  0  0  0  0  0  0  0  0
   26.0941    2.6920   31.7227 C   0  0  0  0  0  0  0  0  0  0  0  0
   27.2348    3.1974   32.3375 C   0  0  0  0  0  0  0  0  0  0  0  0
   27.3432    4.5750   32.5787 C   0  0  0  0  0  0  0  0  0  0  0  0
   23.1810    8.0402   31.0757 C   0  0  0  0  0  0  0  0  0  0  0  0
   23.5691    8.7273   29.7818 C   0  0  0  0  0  0  0  0  0  0  0  0
   23.8496   10.0360   29.6382 C   0  0  0  0  0  0  0  0  0  0  0  0
   24.2540   10.6768   28.3507 C   0  0  0  0  0  0  0  0  0  0  0  0
   23.5803   11.9195   28.2050 O   0  0  0  0  0  0  0  0  0  0  0  0
   22.0008    7.3820   30.8311 F   0  0  0  0  0  0  0  0  0  0  0  0
   22.8634    8.9690   32.0297 F   0  0  0  0  0  0  0  0  0  0  0  0
   29.8372    9.7484   31.3935 C   0  0  0  0  0  0  0  0  0  0  0  0
   30.1320   10.4507   30.2262 N   0  0  0  0  0  0  0  0  0  0  0  0
   30.3929    8.6705   31.6357 O   0  0  0  0  0  0  0  0  0  0  0  0
   30.9421    9.8519   29.1622 C   0  0  2  0  0  0  0  0  0  0  0  0
   30.3978   10.0690   27.7389 C   0  0  0  0  0  0  0  0  0  0  0  0
   30.3460    8.6963   28.3510 C   0  0  1  0  0  0  0  0  0  0  0  0
   32.4564    9.9051   29.3247 C   0  0  0  0  0  0  0  0  0  0  0  0
   32.9368    9.8929   30.6386 N   0  0  0  0  0  0  0  0  0  0  0  0
   33.1976    9.9426   28.3551 O   0  0  0  0  0  0  0  0  0  0  0  0
   33.9910   11.0779   31.1475 S   0  0  0  0  0  0  0  0  0  0  0  0
   35.7012   10.5580   30.9213 C   0  0  0  0  0  0  0  0  0  0  0  0
   33.7631   12.2408   30.3163 O   0  0  0  0  0  0  0  0  0  0  0  0
   33.7714   11.2040   32.5749 O   0  0  0  0  0  0  0  0  0  0  0  0
   36.6590   11.6925   30.9272 C   0  0  0  0  0  0  0  0  0  0  0  0
   35.9417    9.3365   30.0484 C   0  0  0  0  0  0  0  0  0  0  0  0
   36.0350    9.2290   31.5450 C   0  0  0  0  0  0  0  0  0  0  0  0
   31.2156    7.6090   27.8521 C   0  0  0  0  0  0  0  0  0  0  0  0
   30.4518    6.7352   27.1696 F   0  0  0  0  0  0  0  0  0  0  0  0
   31.7342    6.9191   28.9047 F   0  0  0  0  0  0  0  0  0  0  0  0
   22.2178   13.7627   29.3450 H   0  0  0  0  0  0  0  0  0  0  0  0
   23.5536   14.8399   29.8202 H   0  0  0  0  0  0  0  0  0  0  0  0
   22.8071   15.8089   27.7246 H   0  0  0  0  0  0  0  0  0  0  0  0
   22.4977   14.2085   27.0353 H   0  0  0  0  0  0  0  0  0  0  0  0
   24.5785   14.4012   26.0959 H   0  0  0  0  0  0  0  0  0  0  0  0
   25.0963   15.6906   27.2034 H   0  0  0  0  0  0  0  0  0  0  0  0
   25.8733   12.9719   27.3898 H   0  0  0  0  0  0  0  0  0  0  0  0
   24.5893   12.6910   29.8690 H   0  0  0  0  0  0  0  0  0  0  0  0
   27.2535   15.0935   30.7876 H   0  0  0  0  0  0  0  0  0  0  0  0
   29.5257   13.1917   30.6412 H   0  0  0  0  0  0  0  0  0  0  0  0
   31.2479   16.2576   31.6467 H   0  0  0  0  0  0  0  0  0  0  0  0
   30.0869   16.0629   30.3074 H   0  0  0  0  0  0  0  0  0  0  0  0
   31.3065   14.7905   30.6211 H   0  0  0  0  0  0  0  0  0  0  0  0
   29.4399   16.5713   33.3537 H   0  0  0  0  0  0  0  0  0  0  0  0
   28.0723   15.4626   33.4340 H   0  0  0  0  0  0  0  0  0  0  0  0
   28.2875   16.5148   32.0329 H   0  0  0  0  0  0  0  0  0  0  0  0
   31.0565   13.2458   32.6998 H   0  0  0  0  0  0  0  0  0  0  0  0
   29.8897   13.7140   33.9633 H   0  0  0  0  0  0  0  0  0  0  0  0
   31.2632   14.7832   33.5791 H   0  0  0  0  0  0  0  0  0  0  0  0
   27.2462    8.7886   31.0683 H   0  0  0  0  0  0  0  0  0  0  0  0
   26.5555   10.8477   30.3725 H   0  0  0  0  0  0  0  0  0  0  0  0
   25.9561   11.3631   31.9497 H   0  0  0  0  0  0  0  0  0  0  0  0
   29.5349   10.9749   33.1353 H   0  0  0  0  0  0  0  0  0  0  0  0
   27.4713    9.9163   33.9426 H   0  0  0  0  0  0  0  0  0  0  0  0
   28.3783    8.5283   33.2684 H   0  0  0  0  0  0  0  0  0  0  0  0
   24.1395    3.1736   30.9393 H   0  0  0  0  0  0  0  0  0  0  0  0
   25.9963    1.6367   31.4994 H   0  0  0  0  0  0  0  0  0  0  0  0
   28.0510    2.5330   32.5936 H   0  0  0  0  0  0  0  0  0  0  0  0
   28.2510    4.9524   33.0288 H   0  0  0  0  0  0  0  0  0  0  0  0
   23.5895    8.0669   28.9188 H   0  0  0  0  0  0  0  0  0  0  0  0
   23.7685   10.6712   30.5125 H   0  0  0  0  0  0  0  0  0  0  0  0
   25.3370   10.8172   28.3110 H   0  0  0  0  0  0  0  0  0  0  0  0
   23.9702   10.0533   27.4999 H   0  0  0  0  0  0  0  0  0  0  0  0
   29.5425   11.2450   29.9843 H   0  0  0  0  0  0  0  0  0  0  0  0
   29.4689   10.6096   27.6119 H   0  0  0  0  0  0  0  0  0  0  0  0
   31.1114   10.2807   26.9500 H   0  0  0  0  0  0  0  0  0  0  0  0
   29.4015    8.3016   28.7026 H   0  0  0  0  0  0  0  0  0  0  0  0
   32.2494    9.6710   31.3525 H   0  0  0  0  0  0  0  0  0  0  0  0
   36.5569   12.2745   31.8483 H   0  0  0  0  0  0  0  0  0  0  0  0
   36.5066   12.3385   30.0643 H   0  0  0  0  0  0  0  0  0  0  0  0
   37.6910   11.3503   30.8900 H   0  0  0  0  0  0  0  0  0  0  0  0
   36.8598    9.2949   29.4628 H   0  0  0  0  0  0  0  0  0  0  0  0
   35.1102    8.8239   29.5725 H   0  0  0  0  0  0  0  0  0  0  0  0
   35.2547    8.6827   32.0636 H   0  0  0  0  0  0  0  0  0  0  0  0
   37.0168    9.1139   31.9779 H   0  0  0  0  0  0  0  0  0  0  0  0
   32.0211    7.9317   27.1941 H   0  0  0  0  0  0  0  0  0  0  0  0
  1  2  1  0
  2  3  1  0
  4  3  1  0
  4  5  1  0
  5  1  1  0
  4  6  1  0
  6  7  1  0
  7  8  1  0
  7  9  2  0
  8 10  1  0
 10 11  1  0
 10 12  1  0
 12 13  1  0
 12 14  1  0
 12 15  1  0
 11 16  2  0
 11 17  1  0
 19 17  1  0
 17 20  1  0
 18 19  1  0
 20 21  1  0
 18 21  1  0
 18 22  1  0
 22 23  1  0
 23 24  2  0
 28 23  1  0
 24 25  1  0
 26 27  1  0
 27 28  2  0
 26 29  1  0
 25 26  2  0
 32 25  1  0
 29 30  2  0
 30 31  1  0
 31 32  2  0
 28 33  1  0
 33 34  1  0
 34 35  2  0
 35 36  1  0
 36 37  1  0
  5 37  1  0
 33 38  1  0
 33 39  1  0
 20 40  1  0
 40 41  1  0
 40 42  2  0
 43 41  1  6
 43 44  1  0
 45 43  1  0
 44 45  1  0
 43 46  1  0
 46 47  1  0
 46 48  2  0
 47 49  1  0
 49 50  1  0
 49 51  2  0
 49 52  2  0
 50 53  1  0
 50 54  1  0
 55 50  1  0
 54 55  1  0
 45 56  1  0
 56 57  1  0
 56 58  1  0
  1 59  1  0
  1 60  1  0
  2 61  1  0
  2 62  1  0
  3 63  1  0
  3 64  1  0
  4 65  1  1
  5 66  1  6
  8 67  1  0
 10 68  1  1
 13 69  1  0
 13 70  1  0
 13 71  1  0
 14 72  1  0
 14 73  1  0
 14 74  1  0
 15 75  1  0
 15 76  1  0
 15 77  1  0
 18 78  1  1
 19 79  1  0
 19 80  1  0
 20 81  1  6
 21 82  1  0
 21 83  1  0
 29 84  1  0
 30 85  1  0
 31 86  1  0
 32 87  1  0
 34 88  1  0
 35 89  1  0
 36 90  1  0
 36 91  1  0
 41 92  1  0
 44 93  1  0
 44 94  1  0
 45 95  1  6
 47 96  1  0
 53 97  1  0
 53 98  1  0
 53 99  1  0
 54100  1  0
 54101  1  0
 55102  1  0
 55103  1  0
 56104  1  0
M  END
> <Uni-Dock RESULT> 
ENERGY=   -3.512  LOWER_BOUND=    3.849  UPPER_BOUND=    5.597
INTER + INTRA:          -3.512
INTER:                  -3.512
INTRA:                   0.000
UNBOUND:                 0.000

$$$$

     RDKit          3D

104110  0  0  0  0  0  0  0  0999 V2000
   37.2347    5.4827   30.1094 C   0  0  0  0  0  0  0  0  0  0  0  0
   38.2755    5.9963   31.0851 C   0  0  0  0  0  0  0  0  0  0  0  0
   37.6986    7.2929   31.6629 C   0  0  0  0  0  0  0  0  0  0  0  0
   36.2061    7.2806   31.3251 C   0  0  2  0  0  0  0  0  0  0  0  0
   35.9130    5.8681   30.7766 C   0  0  2  0  0  0  0  0  0  0  0  0
   35.9919    8.2392   30.2738 O   0  0  0  0  0  0  0  0  0  0  0  0
   34.7632    8.7930   30.2144 C   0  0  0  0  0  0  0  0  0  0  0  0
   34.6181    9.3945   28.9983 N   0  0  0  0  0  0  0  0  0  0  0  0
   33.8953    8.7249   31.0743 O   0  0  0  0  0  0  0  0  0  0  0  0
   33.3065    9.8157   28.4922 C   0  0  2  0  0  0  0  0  0  0  0  0
   32.5761    8.5077   28.0747 C   0  0  0  0  0  0  0  0  0  0  0  0
   33.4106   10.8998   27.3748 C   0  0  0  0  0  0  0  0  0  0  0  0
   33.8659   12.2297   28.0117 C   0  0  0  0  0  0  0  0  0  0  0  0
   34.4186   10.5444   26.2683 C   0  0  0  0  0  0  0  0  0  0  0  0
   32.0229   11.1145   26.7331 C   0  0  0  0  0  0  0  0  0  0  0  0
   32.8445    7.8674   27.0622 O   0  0  0  0  0  0  0  0  0  0  0  0
   31.7372    8.0015   29.0722 N   0  0  0  0  0  0  0  0  0  0  0  0
   30.6177    5.9429   29.6387 C   0  0  1  0  0  0  0  0  0  0  0  0
   31.9846    6.6062   29.4626 C   0  0  0  0  0  0  0  0  0  0  0  0
   30.2903    8.1539   28.8466 C   0  0  1  0  0  0  0  0  0  0  0  0
   29.7711    6.7294   28.6281 C   0  0  0  0  0  0  0  0  0  0  0  0
   30.7147    4.5413   29.3809 O   0  0  0  0  0  0  0  0  0  0  0  0
   29.8361    3.8191   30.1394 C   0  0  0  0  0  0  0  0  0  0  0  0
   28.5632    4.2745   30.1875 N   0  0  0  0  0  0  0  0  0  0  0  0
   27.7042    3.5669   30.9347 C   0  0  0  0  0  0  0  0  0  0  0  0
   28.1165    2.4103   31.6403 C   0  0  0  0  0  0  0  0  0  0  0  0
   29.3930    1.9867   31.5920 N   0  0  0  0  0  0  0  0  0  0  0  0
   30.2663    2.6860   30.8093 C   0  0  0  0  0  0  0  0  0  0  0  0
   27.1790    1.7292   32.4224 C   0  0  0  0  0  0  0  0  0  0  0  0
   25.8588    2.1729   32.5341 C   0  0  0  0  0  0  0  0  0  0  0  0
   25.4543    3.2942   31.8175 C   0  0  0  0  0  0  0  0  0  0  0  0
   26.3850    3.9928   31.0344 C   0  0  0  0  0  0  0  0  0  0  0  0
   31.7270    2.2636   30.7837 C   0  0  0  0  0  0  0  0  0  0  0  0
   32.5613    3.1417   31.6946 C   0  0  0  0  0  0  0  0  0  0  0  0
   33.4986    4.0226   31.2976 C   0  0  0  0  0  0  0  0  0  0  0  0
   34.2863    4.8921   32.2225 C   0  0  0  0  0  0  0  0  0  0  0  0
   35.6465    4.9152   31.8117 O   0  0  0  0  0  0  0  0  0  0  0  0
   31.8915    0.9736   31.2248 F   0  0  0  0  0  0  0  0  0  0  0  0
   32.2485    2.2616   29.5182 F   0  0  0  0  0  0  0  0  0  0  0  0
   29.6365    8.7806   30.0891 C   0  0  0  0  0  0  0  0  0  0  0  0
   30.4811    9.5635   30.8743 N   0  0  0  0  0  0  0  0  0  0  0  0
   28.4270    8.7161   30.3387 O   0  0  0  0  0  0  0  0  0  0  0  0
   30.0145   10.1658   32.1259 C   0  0  2  0  0  0  0  0  0  0  0  0
   30.9937   10.0373   33.3066 C   0  0  0  0  0  0  0  0  0  0  0  0
   29.7154    9.2452   33.3140 C   0  0  1  0  0  0  0  0  0  0  0  0
   29.2428   11.4760   32.0243 C   0  0  0  0  0  0  0  0  0  0  0  0
   28.4968   11.6637   30.8557 N   0  0  0  0  0  0  0  0  0  0  0  0
   29.2716   12.3007   32.9242 O   0  0  0  0  0  0  0  0  0  0  0  0
   28.7061   13.0464   29.9511 S   0  0  0  0  0  0  0  0  0  0  0  0
   27.5369   14.3238   30.4484 C   0  0  0  0  0  0  0  0  0  0  0  0
   30.0425   13.5349   30.2169 O   0  0  0  0  0  0  0  0  0  0  0  0
   28.3727   12.6729   28.5906 O   0  0  0  0  0  0  0  0  0  0  0  0
   27.9452   15.6849   30.0179 C   0  0  0  0  0  0  0  0  0  0  0  0
   26.7943   14.1081   31.7576 C   0  0  0  0  0  0  0  0  0  0  0  0
   26.0969   13.8846   30.4447 C   0  0  0  0  0  0  0  0  0  0  0  0
   28.6235    9.5741   34.2559 C   0  0  0  0  0  0  0  0  0  0  0  0
   28.5789    8.6184   35.2032 F   0  0  0  0  0  0  0  0  0  0  0  0
   27.4284    9.5218   33.6066 F   0  0  0  0  0  0  0  0  0  0  0  0
   37.3303    4.4042   29.9524 H   0  0  0  0  0  0  0  0  0  0  0  0
   37.3284    5.9863   29.1356 H   0  0  0  0  0  0  0  0  0  0  0  0
   39.2500    6.1491   30.6083 H   0  0  0  0  0  0  0  0  0  0  0  0
   38.4149    5.2479   31.8821 H   0  0  0  0  0  0  0  0  0  0  0  0
   37.8884    7.3015   32.7508 H   0  0  0  0  0  0  0  0  0  0  0  0
   38.2187    8.1667   31.2343 H   0  0  0  0  0  0  0  0  0  0  0  0
   35.6391    7.5346   32.2221 H   0  0  0  0  0  0  0  0  0  0  0  0
   35.1175    5.8690   30.0249 H   0  0  0  0  0  0  0  0  0  0  0  0
   35.3232    9.1485   28.3174 H   0  0  0  0  0  0  0  0  0  0  0  0
   32.7655   10.2520   29.3380 H   0  0  0  0  0  0  0  0  0  0  0  0
   33.9239   13.0111   27.2351 H   0  0  0  0  0  0  0  0  0  0  0  0
   34.8558   12.1407   28.4816 H   0  0  0  0  0  0  0  0  0  0  0  0
   33.1377   12.5485   28.7765 H   0  0  0  0  0  0  0  0  0  0  0  0
   34.4195   11.3009   25.4713 H   0  0  0  0  0  0  0  0  0  0  0  0
   34.2021    9.5821   25.7944 H   0  0  0  0  0  0  0  0  0  0  0  0
   35.4480   10.4996   26.6443 H   0  0  0  0  0  0  0  0  0  0  0  0
   31.2677   11.2549   27.5119 H   0  0  0  0  0  0  0  0  0  0  0  0
   31.7336   10.2483   26.1166 H   0  0  0  0  0  0  0  0  0  0  0  0
   32.0325   12.0054   26.0866 H   0  0  0  0  0  0  0  0  0  0  0  0
   30.2964    6.1399   30.6645 H   0  0  0  0  0  0  0  0  0  0  0  0
   32.5110    6.6241   30.4163 H   0  0  0  0  0  0  0  0  0  0  0  0
   32.6134    6.0782   28.7418 H   0  0  0  0  0  0  0  0  0  0  0  0
   30.0843    8.7977   27.9847 H   0  0  0  0  0  0  0  0  0  0  0  0
   29.9761    6.3755   27.5944 H   0  0  0  0  0  0  0  0  0  0  0  0
   28.6973    6.6258   28.8215 H   0  0  0  0  0  0  0  0  0  0  0  0
   27.5021    0.8371   32.9600 H   0  0  0  0  0  0  0  0  0  0  0  0
   25.1678    1.6314   33.1685 H   0  0  0  0  0  0  0  0  0  0  0  0
   24.4332    3.6470   31.8956 H   0  0  0  0  0  0  0  0  0  0  0  0
   26.0585    4.8803   30.5099 H   0  0  0  0  0  0  0  0  0  0  0  0
   32.3625    2.9965   32.7532 H   0  0  0  0  0  0  0  0  0  0  0  0
   33.7036    4.1016   30.2363 H   0  0  0  0  0  0  0  0  0  0  0  0
   33.8734    5.9035   32.2494 H   0  0  0  0  0  0  0  0  0  0  0  0
   34.2627    4.4982   33.2410 H   0  0  0  0  0  0  0  0  0  0  0  0
   31.4857    9.4657   30.7399 H   0  0  0  0  0  0  0  0  0  0  0  0
   31.9251    9.5069   33.1572 H   0  0  0  0  0  0  0  0  0  0  0  0
   31.1037   10.8890   33.9689 H   0  0  0  0  0  0  0  0  0  0  0  0
   29.7427    8.1817   33.1147 H   0  0  0  0  0  0  0  0  0  0  0  0
   28.3941   10.8425   30.2669 H   0  0  0  0  0  0  0  0  0  0  0  0
   28.1013   15.7127   28.9350 H   0  0  0  0  0  0  0  0  0  0  0  0
   28.8524   16.0020   30.5292 H   0  0  0  0  0  0  0  0  0  0  0  0
   27.1798   16.4255   30.2394 H   0  0  0  0  0  0  0  0  0  0  0  0
   26.5280   14.9840   32.3488 H   0  0  0  0  0  0  0  0  0  0  0  0
   26.9871   13.2278   32.3647 H   0  0  0  0  0  0  0  0  0  0  0  0
   25.8610   12.8640   30.1633 H   0  0  0  0  0  0  0  0  0  0  0  0
   25.3556   14.6082   30.1426 H   0  0  0  0  0  0  0  0  0  0  0  0
   28.7251   10.5354   34.7576 H   0  0  0  0  0  0  0  0  0  0  0  0
  1  2  1  0
  2  3  1  0
  4  3  1  0
  4  5  1  0
  5  1  1  0
  4  6  1  0
  6  7  1  0
  7  8  1  0
  7  9  2  0
  8 10  1  0
 10 11  1  0
 10 12  1  0
 12 13  1  0
 12 14  1  0
 12 15  1  0
 11 16  2  0
 11 17  1  0
 19 17  1  0
 17 20  1  0
 18 19  1  0
 20 21  1  0
 18 21  1  0
 18 22  1  0
 22 23  1  0
 23 24  2  0
 28 23  1  0
 24 25  1  0
 26 27  1  0
 27 28  2  0
 26 29  1  0
 25 26  2  0
 32 25  1  0
 29 30  2  0
 30 31  1  0
 31 32  2  0
 28 33  1  0
 33 34  1  0
 34 35  2  0
 35 36  1  0
 36 37  1  0
  5 37  1  0
 33 38  1  0
 33 39  1  0
 20 40  1  0
 40 41  1  0
 40 42  2  0
 43 41  1  6
 43 44  1  0
 45 43  1  0
 44 45  1  0
 43 46  1  0
 46 47  1  0
 46 48  2  0
 47 49  1  0
 49 50  1  0
 49 51  2  0
 49 52  2  0
 50 53  1  0
 50 54  1  0
 55 50  1  0
 54 55  1  0
 45 56  1  0
 56 57  1  0
 56 58  1  0
  1 59  1  0
  1 60  1  0
  2 61  1  0
  2 62  1  0
  3 63  1  0
  3 64  1  0
  4 65  1  1
  5 66  1  6
  8 67  1  0
 10 68  1  1
 13 69  1  0
 13 70  1  0
 13 71  1  0
 14 72  1  0
 14 73  1  0
 14 74  1  0
 15 75  1  0
 15 76  1  0
 15 77  1  0
 18 78  1  1
 19 79  1  0
 19 80  1  0
 20 81  1  6
 21 82  1  0
 21 83  1  0
 29 84  1  0
 30 85  1  0
 31 86  1  0
 32 87  1  0
 34 88  1  0
 35 89  1  0
 36 90  1  0
 36 91  1  0
 41 92  1  0
 44 93  1  0
 44 94  1  0
 45 95  1  6
 47 96  1  0
 53 97  1  0
 53 98  1  0
 53 99  1  0
 54100  1  0
 54101  1  0
 55102  1  0
 55103  1  0
 56104  1  0
M  END
> <Uni-Dock RESULT> 
ENERGY=   -3.487  LOWER_BOUND=    4.171  UPPER_BOUND=    9.296
INTER + INTRA:          -3.487
INTER:                  -3.487
INTRA:                   0.000
UNBOUND:                 0.000

$$$$

     RDKit          3D

104110  0  0  0  0  0  0  0  0999 V2000
   25.0743    9.8120   27.4271 C   0  0  0  0  0  0  0  0  0  0  0  0
   24.0187   10.1831   28.4504 C   0  0  0  0  0  0  0  0  0  0  0  0
   24.7751   10.4094   29.7635 C   0  0  0  0  0  0  0  0  0  0  0  0
   26.2495   10.5615   29.3830 C   0  0  2  0  0  0  0  0  0  0  0  0
   26.2758   10.6629   27.8432 C   0  0  2  0  0  0  0  0  0  0  0  0
   26.9259    9.3551   29.7792 O   0  0  0  0  0  0  0  0  0  0  0  0
   28.2395    9.4746   30.0624 C   0  0  0  0  0  0  0  0  0  0  0  0
   28.7934    8.2277   30.0807 N   0  0  0  0  0  0  0  0  0  0  0  0
   28.8544   10.5207   30.2203 O   0  0  0  0  0  0  0  0  0  0  0  0
   30.2463    8.0232   30.0485 C   0  0  2  0  0  0  0  0  0  0  0  0
   30.6833    8.3347   28.5888 C   0  0  0  0  0  0  0  0  0  0  0  0
   30.6699    6.6186   30.5795 C   0  0  0  0  0  0  0  0  0  0  0  0
   30.4504    6.5761   32.1065 C   0  0  0  0  0  0  0  0  0  0  0  0
   29.8657    5.4617   29.9613 C   0  0  0  0  0  0  0  0  0  0  0  0
   32.1698    6.3896   30.2942 C   0  0  0  0  0  0  0  0  0  0  0  0
   30.4813    7.5836   27.6390 O   0  0  0  0  0  0  0  0  0  0  0  0
   31.1275    9.6489   28.4141 N   0  0  0  0  0  0  0  0  0  0  0  0
   31.5246   11.2143   26.6242 C   0  0  1  0  0  0  0  0  0  0  0  0
   30.4480   10.4142   27.3591 C   0  0  0  0  0  0  0  0  0  0  0  0
   32.5777    9.8285   28.2347 C   0  0  1  0  0  0  0  0  0  0  0  0
   32.7430   10.2942   26.7848 C   0  0  0  0  0  0  0  0  0  0  0  0
   31.1241   11.4525   25.2740 O   0  0  0  0  0  0  0  0  0  0  0  0
   31.6008   12.6432   24.8009 C   0  0  0  0  0  0  0  0  0  0  0  0
   32.9073   12.9061   25.0330 N   0  0  0  0  0  0  0  0  0  0  0  0
   33.3717   14.0758   24.5715 C   0  0  0  0  0  0  0  0  0  0  0  0
   32.5314   14.9866   23.8859 C   0  0  0  0  0  0  0  0  0  0  0  0
   31.2299   14.7112   23.6828 N   0  0  0  0  0  0  0  0  0  0  0  0
   30.7574   13.5088   24.1246 C   0  0  0  0  0  0  0  0  0  0  0  0
   33.0692   16.2013   23.4504 C   0  0  0  0  0  0  0  0  0  0  0  0
   34.4036   16.5388   23.6909 C   0  0  0  0  0  0  0  0  0  0  0  0
   35.2297   15.6285   24.3415 C   0  0  0  0  0  0  0  0  0  0  0  0
   34.7032   14.4086   24.7912 C   0  0  0  0  0  0  0  0  0  0  0  0
   29.2778   13.1979   23.9604 C   0  0  0  0  0  0  0  0  0  0  0  0
   28.5253   13.4446   25.2526 C   0  0  0  0  0  0  0  0  0  0  0  0
   27.9571   12.5005   26.0258 C   0  0  0  0  0  0  0  0  0  0  0  0
   27.2433   12.7766   27.3088 C   0  0  0  0  0  0  0  0  0  0  0  0
   26.0568   11.9969   27.3711 O   0  0  0  0  0  0  0  0  0  0  0  0
   28.6929   13.9958   23.0080 F   0  0  0  0  0  0  0  0  0  0  0  0
   29.0577   11.9210   23.5192 F   0  0  0  0  0  0  0  0  0  0  0  0
   33.0898   10.9036   29.2072 C   0  0  0  0  0  0  0  0  0  0  0  0
   32.3298   11.0696   30.3639 N   0  0  0  0  0  0  0  0  0  0  0  0
   34.1582   11.5100   29.0649 O   0  0  0  0  0  0  0  0  0  0  0  0
   32.6573   12.1054   31.3471 C   0  0  2  0  0  0  0  0  0  0  0  0
   31.4488   12.9037   31.8682 C   0  0  0  0  0  0  0  0  0  0  0  0
   32.4447   13.5734   30.9619 C   0  0  1  0  0  0  0  0  0  0  0  0
   33.7464   11.7832   32.3633 C   0  0  0  0  0  0  0  0  0  0  0  0
   34.7481   10.9047   31.9364 N   0  0  0  0  0  0  0  0  0  0  0  0
   33.7408   12.2803   33.4785 O   0  0  0  0  0  0  0  0  0  0  0  0
   35.1047    9.5514   32.8395 S   0  0  0  0  0  0  0  0  0  0  0  0
   36.4311    9.8905   34.0108 C   0  0  0  0  0  0  0  0  0  0  0  0
   33.9166    9.2138   33.5942 O   0  0  0  0  0  0  0  0  0  0  0  0
   35.6132    8.5779   31.8933 O   0  0  0  0  0  0  0  0  0  0  0  0
   36.4929    8.9053   35.1199 C   0  0  0  0  0  0  0  0  0  0  0  0
   36.7933   11.3493   34.2401 C   0  0  0  0  0  0  0  0  0  0  0  0
   37.6734   10.4739   33.3920 C   0  0  0  0  0  0  0  0  0  0  0  0
   33.3562   14.6187   31.4757 C   0  0  0  0  0  0  0  0  0  0  0  0
   32.9465   15.8095   30.9993 F   0  0  0  0  0  0  0  0  0  0  0  0
   34.6070   14.4199   30.9771 F   0  0  0  0  0  0  0  0  0  0  0  0
   24.7374   10.0257   26.4083 H   0  0  0  0  0  0  0  0  0  0  0  0
   25.3259    8.7429   27.4940 H   0  0  0  0  0  0  0  0  0  0  0  0
   23.2432    9.4148   28.5424 H   0  0  0  0  0  0  0  0  0  0  0  0
   23.5219   11.1124   28.1269 H   0  0  0  0  0  0  0  0  0  0  0  0
   24.3653   11.3134   30.2476 H   0  0  0  0  0  0  0  0  0  0  0  0
   24.6046    9.5648   30.4529 H   0  0  0  0  0  0  0  0  0  0  0  0
   26.6570   11.4364   29.8921 H   0  0  0  0  0  0  0  0  0  0  0  0
   27.1861   10.2347   27.4121 H   0  0  0  0  0  0  0  0  0  0  0  0
   28.2116    7.5002   29.6890 H   0  0  0  0  0  0  0  0  0  0  0  0
   30.6877    8.7804   30.7044 H   0  0  0  0  0  0  0  0  0  0  0  0
   30.7656    5.5942   32.4984 H   0  0  0  0  0  0  0  0  0  0  0  0
   29.3945    6.7274   32.3726 H   0  0  0  0  0  0  0  0  0  0  0  0
   31.0549    7.3592   32.5945 H   0  0  0  0  0  0  0  0  0  0  0  0
   30.2325    4.4877   30.3138 H   0  0  0  0  0  0  0  0  0  0  0  0
   29.9209    5.4470   28.8685 H   0  0  0  0  0  0  0  0  0  0  0  0
   28.8043    5.5025   30.2347 H   0  0  0  0  0  0  0  0  0  0  0  0
   32.7503    7.2562   30.6236 H   0  0  0  0  0  0  0  0  0  0  0  0
   32.3491    6.2364   29.2180 H   0  0  0  0  0  0  0  0  0  0  0  0
   32.5310    5.4988   30.8305 H   0  0  0  0  0  0  0  0  0  0  0  0
   31.6584   12.1499   27.1730 H   0  0  0  0  0  0  0  0  0  0  0  0
   29.7525   11.0953   27.8485 H   0  0  0  0  0  0  0  0  0  0  0  0
   29.8733    9.7739   26.6858 H   0  0  0  0  0  0  0  0  0  0  0  0
   33.1239    8.8988   28.4271 H   0  0  0  0  0  0  0  0  0  0  0  0
   32.6797    9.4420   26.0737 H   0  0  0  0  0  0  0  0  0  0  0  0
   33.6856   10.8239   26.6051 H   0  0  0  0  0  0  0  0  0  0  0  0
   32.4177   16.8965   22.9197 H   0  0  0  0  0  0  0  0  0  0  0  0
   34.7773   17.4995   23.3583 H   0  0  0  0  0  0  0  0  0  0  0  0
   36.2660   15.8787   24.5326 H   0  0  0  0  0  0  0  0  0  0  0  0
   35.3538   13.7279   25.3226 H   0  0  0  0  0  0  0  0  0  0  0  0
   28.4477   14.4935   25.5263 H   0  0  0  0  0  0  0  0  0  0  0  0
   28.0123   11.4708   25.6924 H   0  0  0  0  0  0  0  0  0  0  0  0
   27.8893   12.5664   28.1648 H   0  0  0  0  0  0  0  0  0  0  0  0
   26.9447   13.8254   27.3698 H   0  0  0  0  0  0  0  0  0  0  0  0
   31.3874   10.6842   30.3761 H   0  0  0  0  0  0  0  0  0  0  0  0
   30.4660   12.6799   31.4742 H   0  0  0  0  0  0  0  0  0  0  0  0
   31.4247   13.1564   32.9226 H   0  0  0  0  0  0  0  0  0  0  0  0
   32.1852   13.7647   29.9287 H   0  0  0  0  0  0  0  0  0  0  0  0
   34.7575   10.7042   30.9408 H   0  0  0  0  0  0  0  0  0  0  0  0
   36.5854    7.8892   34.7241 H   0  0  0  0  0  0  0  0  0  0  0  0
   35.6117    8.9745   35.7552 H   0  0  0  0  0  0  0  0  0  0  0  0
   37.3587    9.0690   35.7580 H   0  0  0  0  0  0  0  0  0  0  0  0
   37.1450   11.6432   35.2288 H   0  0  0  0  0  0  0  0  0  0  0  0
   36.2527   12.1409   33.7284 H   0  0  0  0  0  0  0  0  0  0  0  0
   37.6903   10.6562   32.3229 H   0  0  0  0  0  0  0  0  0  0  0  0
   38.6242   10.1723   33.8034 H   0  0  0  0  0  0  0  0  0  0  0  0
   33.4030   14.6928   32.5612 H   0  0  0  0  0  0  0  0  0  0  0  0
  1  2  1  0
  2  3  1  0
  4  3  1  0
  4  5  1  0
  5  1  1  0
  4  6  1  0
  6  7  1  0
  7  8  1  0
  7  9  2  0
  8 10  1  0
 10 11  1  0
 10 12  1  0
 12 13  1  0
 12 14  1  0
 12 15  1  0
 11 16  2  0
 11 17  1  0
 19 17  1  0
 17 20  1  0
 18 19  1  0
 20 21  1  0
 18 21  1  0
 18 22  1  0
 22 23  1  0
 23 24  2  0
 28 23  1  0
 24 25  1  0
 26 27  1  0
 27 28  2  0
 26 29  1  0
 25 26  2  0
 32 25  1  0
 29 30  2  0
 30 31  1  0
 31 32  2  0
 28 33  1  0
 33 34  1  0
 34 35  2  0
 35 36  1  0
 36 37  1  0
  5 37  1  0
 33 38  1  0
 33 39  1  0
 20 40  1  0
 40 41  1  0
 40 42  2  0
 43 41  1  6
 43 44  1  0
 45 43  1  0
 44 45  1  0
 43 46  1  0
 46 47  1  0
 46 48  2  0
 47 49  1  0
 49 50  1  0
 49 51  2  0
 49 52  2  0
 50 53  1  0
 50 54  1  0
 55 50  1  0
 54 55  1  0
 45 56  1  0
 56 57  1  0
 56 58  1  0
  1 59  1  0
  1 60  1  0
  2 61  1  0
  2 62  1  0
  3 63  1  0
  3 64  1  0
  4 65  1  1
  5 66  1  6
  8 67  1  0
 10 68  1  1
 13 69  1  0
 13 70  1  0
 13 71  1  0
 14 72  1  0
 14 73  1  0
 14 74  1  0
 15 75  1  0
 15 76  1  0
 15 77  1  0
 18 78  1  1
 19 79  1  0
 19 80  1  0
 20 81  1  6
 21 82  1  0
 21 83  1  0
 29 84  1  0
 30 85  1  0
 31 86  1  0
 32 87  1  0
 34 88  1  0
 35 89  1  0
 36 90  1  0
 36 91  1  0
 41 92  1  0
 44 93  1  0
 44 94  1  0
 45 95  1  6
 47 96  1  0
 53 97  1  0
 53 98  1  0
 53 99  1  0
 54100  1  0
 54101  1  0
 55102  1  0
 55103  1  0
 56104  1  0
M  END
> <Uni-Dock RESULT> 
ENERGY=   -3.351  LOWER_BOUND=    6.677  UPPER_BOUND=   10.553
INTER + INTRA:          -3.351
INTER:                  -3.351
INTRA:                   0.000
UNBOUND:                 0.000

$$$$
