
     RDKit          3D

104110  0  0  0  0  0  0  0  0999 V2000
   24.0559   12.9523   18.9556 C   0  0  0  0  0  0  0  0  0  0  0  0
   22.8959   13.8381   19.4003 C   0  0  0  0  0  0  0  0  0  0  0  0
   23.3428   14.5077   20.7032 C   0  0  0  0  0  0  0  0  0  0  0  0
   24.7646   14.0005   20.9768 C   0  0  2  0  0  0  0  0  0  0  0  0
   24.7969   12.6479   20.2554 C   0  0  2  0  0  0  0  0  0  0  0  0
   24.9652   13.8636   22.3911 O   0  0  0  0  0  0  0  0  0  0  0  0
   26.1297   14.3726   22.8615 C   0  0  0  0  0  0  0  0  0  0  0  0
   26.0501   14.4508   24.2291 N   0  0  0  0  0  0  0  0  0  0  0  0
   27.0577   14.7878   22.1842 O   0  0  0  0  0  0  0  0  0  0  0  0
   26.6436   15.6354   24.8602 C   0  0  2  0  0  0  0  0  0  0  0  0
   28.1675   15.5603   25.2035 C   0  0  0  0  0  0  0  0  0  0  0  0
   25.6991   16.2850   25.9453 C   0  0  0  0  0  0  0  0  0  0  0  0
   24.3357   16.6402   25.2903 C   0  0  0  0  0  0  0  0  0  0  0  0
   25.4236   15.3600   27.1385 C   0  0  0  0  0  0  0  0  0  0  0  0
   26.2778   17.6041   26.5041 C   0  0  0  0  0  0  0  0  0  0  0  0
   28.7740   16.6326   25.3526 O   0  0  0  0  0  0  0  0  0  0  0  0
   28.8560   14.3756   25.3552 N   0  0  0  0  0  0  0  0  0  0  0  0
   30.7473   13.0457   24.7927 C   0  0  1  0  0  0  0  0  0  0  0  0
   30.3199   14.4325   25.2814 C   0  0  0  0  0  0  0  0  0  0  0  0
   28.4005   12.9793   25.3579 C   0  0  1  0  0  0  0  0  0  0  0  0
   29.7052   12.1543   25.4586 C   0  0  0  0  0  0  0  0  0  0  0  0
   30.5411   12.8620   23.3854 O   0  0  0  0  0  0  0  0  0  0  0  0
   31.5797   13.2490   22.5762 C   0  0  0  0  0  0  0  0  0  0  0  0
   32.4745   14.1469   23.0457 N   0  0  0  0  0  0  0  0  0  0  0  0
   33.4034   14.5911   22.1727 C   0  0  0  0  0  0  0  0  0  0  0  0
   33.4432   14.1216   20.8374 C   0  0  0  0  0  0  0  0  0  0  0  0
   32.5591   13.2119   20.3861 N   0  0  0  0  0  0  0  0  0  0  0  0
   31.6075   12.7743   21.2671 C   0  0  0  0  0  0  0  0  0  0  0  0
   34.4074   14.6198   19.9669 C   0  0  0  0  0  0  0  0  0  0  0  0
   35.3257   15.5836   20.3769 C   0  0  0  0  0  0  0  0  0  0  0  0
   35.2851   16.0529   21.6834 C   0  0  0  0  0  0  0  0  0  0  0  0
   34.3312   15.5437   22.5741 C   0  0  0  0  0  0  0  0  0  0  0  0
   30.5525   11.7761   20.8089 C   0  0  0  0  0  0  0  0  0  0  0  0
   29.2342   12.4532   20.4980 C   0  0  0  0  0  0  0  0  0  0  0  0
   28.3429   12.0401   19.5730 C   0  0  0  0  0  0  0  0  0  0  0  0
   27.0402   12.7285   19.3246 C   0  0  0  0  0  0  0  0  0  0  0  0
   26.0712   12.0389   20.1015 O   0  0  0  0  0  0  0  0  0  0  0  0
   30.3165   10.8008   21.7485 F   0  0  0  0  0  0  0  0  0  0  0  0
   30.9725   11.0792   19.6978 F   0  0  0  0  0  0  0  0  0  0  0  0
   27.5571   12.5770   26.5774 C   0  0  0  0  0  0  0  0  0  0  0  0
   26.9505   11.3331   26.4709 N   0  0  0  0  0  0  0  0  0  0  0  0
   27.5030   13.2262   27.6185 O   0  0  0  0  0  0  0  0  0  0  0  0
   26.3379   10.6973   27.6335 C   0  0  2  0  0  0  0  0  0  0  0  0
   25.1865    9.7325   27.3443 C   0  0  0  0  0  0  0  0  0  0  0  0
   24.8977   11.0544   27.9923 C   0  0  1  0  0  0  0  0  0  0  0  0
   27.2904   10.3235   28.7618 C   0  0  0  0  0  0  0  0  0  0  0  0
   27.7780   11.4009   29.5039 N   0  0  0  0  0  0  0  0  0  0  0  0
   27.5727    9.1548   28.9756 O   0  0  0  0  0  0  0  0  0  0  0  0
   29.2793   11.3567   30.2266 S   0  0  0  0  0  0  0  0  0  0  0  0
   29.3118   10.0484   31.4733 C   0  0  0  0  0  0  0  0  0  0  0  0
   29.3988   12.6001   30.9613 O   0  0  0  0  0  0  0  0  0  0  0  0
   30.2331   11.0398   29.1843 O   0  0  0  0  0  0  0  0  0  0  0  0
   28.1868   10.1204   32.4424 C   0  0  0  0  0  0  0  0  0  0  0  0
   29.9035    8.7349   31.0497 C   0  0  0  0  0  0  0  0  0  0  0  0
   30.7068    9.6725   31.9232 C   0  0  0  0  0  0  0  0  0  0  0  0
   24.4269   11.1093   29.4021 C   0  0  0  0  0  0  0  0  0  0  0  0
   23.0721   11.0183   29.4100 F   0  0  0  0  0  0  0  0  0  0  0  0
   24.7348   12.3282   29.9060 F   0  0  0  0  0  0  0  0  0  0  0  0
   23.7198   12.0431   18.4463 H   0  0  0  0  0  0  0  0  0  0  0  0
   24.6887   13.4961   18.2452 H   0  0  0  0  0  0  0  0  0  0  0  0
   22.0078   13.2273   19.5840 H   0  0  0  0  0  0  0  0  0  0  0  0
   22.6267   14.5682   18.6284 H   0  0  0  0  0  0  0  0  0  0  0  0
   22.6482   14.2523   21.5138 H   0  0  0  0  0  0  0  0  0  0  0  0
   23.3345   15.6032   20.6066 H   0  0  0  0  0  0  0  0  0  0  0  0
   25.4613   14.7143   20.5283 H   0  0  0  0  0  0  0  0  0  0  0  0
   24.2072   11.9299   20.8373 H   0  0  0  0  0  0  0  0  0  0  0  0
   25.1378   14.1674   24.5580 H   0  0  0  0  0  0  0  0  0  0  0  0
   26.6523   16.3873   24.0529 H   0  0  0  0  0  0  0  0  0  0  0  0
   23.7925   15.7580   24.9287 H   0  0  0  0  0  0  0  0  0  0  0  0
   23.6698   17.1621   26.0009 H   0  0  0  0  0  0  0  0  0  0  0  0
   24.4859   17.3053   24.4238 H   0  0  0  0  0  0  0  0  0  0  0  0
   26.3217   15.2503   27.7534 H   0  0  0  0  0  0  0  0  0  0  0  0
   25.0936   14.3668   26.8199 H   0  0  0  0  0  0  0  0  0  0  0  0
   24.6366   15.7639   27.7897 H   0  0  0  0  0  0  0  0  0  0  0  0
   25.5567   18.0914   27.1737 H   0  0  0  0  0  0  0  0  0  0  0  0
   26.5089   18.3151   25.7027 H   0  0  0  0  0  0  0  0  0  0  0  0
   27.1824   17.4301   27.0980 H   0  0  0  0  0  0  0  0  0  0  0  0
   31.7630   12.7549   25.0895 H   0  0  0  0  0  0  0  0  0  0  0  0
   30.6715   14.6191   26.3068 H   0  0  0  0  0  0  0  0  0  0  0  0
   30.6419   15.2425   24.6169 H   0  0  0  0  0  0  0  0  0  0  0  0
   27.8762   12.7509   24.4249 H   0  0  0  0  0  0  0  0  0  0  0  0
   29.9816   11.9740   26.5060 H   0  0  0  0  0  0  0  0  0  0  0  0
   29.5903   11.1860   24.9608 H   0  0  0  0  0  0  0  0  0  0  0  0
   34.4299   14.2542   18.9410 H   0  0  0  0  0  0  0  0  0  0  0  0
   36.0682   15.9569   19.6838 H   0  0  0  0  0  0  0  0  0  0  0  0
   35.9907   16.8083   22.0165 H   0  0  0  0  0  0  0  0  0  0  0  0
   34.2920   15.9164   23.5956 H   0  0  0  0  0  0  0  0  0  0  0  0
   29.0067   13.3482   21.0746 H   0  0  0  0  0  0  0  0  0  0  0  0
   28.5400   11.1318   19.0069 H   0  0  0  0  0  0  0  0  0  0  0  0
   26.7865   12.6399   18.2675 H   0  0  0  0  0  0  0  0  0  0  0  0
   27.1034   13.7844   19.5913 H   0  0  0  0  0  0  0  0  0  0  0  0
   27.2236   10.7278   25.7070 H   0  0  0  0  0  0  0  0  0  0  0  0
   24.8628    9.5957   26.3183 H   0  0  0  0  0  0  0  0  0  0  0  0
   25.1147    8.8301   27.9339 H   0  0  0  0  0  0  0  0  0  0  0  0
   24.3963   11.7860   27.3889 H   0  0  0  0  0  0  0  0  0  0  0  0
   27.5946   12.3445   29.1258 H   0  0  0  0  0  0  0  0  0  0  0  0
   28.2634    9.3380   33.2148 H   0  0  0  0  0  0  0  0  0  0  0  0
   28.1614   11.0895   32.9575 H   0  0  0  0  0  0  0  0  0  0  0  0
   27.2241    9.9832   31.9329 H   0  0  0  0  0  0  0  0  0  0  0  0
   30.2176    8.6054   30.0194 H   0  0  0  0  0  0  0  0  0  0  0  0
   29.5064    7.8323   31.4976 H   0  0  0  0  0  0  0  0  0  0  0  0
   30.8513    9.3992   32.9598 H   0  0  0  0  0  0  0  0  0  0  0  0
   31.5695   10.1701   31.4844 H   0  0  0  0  0  0  0  0  0  0  0  0
   24.8450   10.3356   30.0497 H   0  0  0  0  0  0  0  0  0  0  0  0
  1  2  1  0
  2  3  1  0
  4  3  1  0
  4  5  1  0
  5  1  1  0
  4  6  1  0
  6  7  1  0
  7  8  1  0
  7  9  2  0
  8 10  1  0
 10 11  1  0
 10 12  1  0
 12 13  1  0
 12 14  1  0
 12 15  1  0
 11 16  2  0
 11 17  1  0
 19 17  1  0
 17 20  1  0
 18 19  1  0
 20 21  1  0
 18 21  1  0
 18 22  1  0
 22 23  1  0
 23 24  2  0
 28 23  1  0
 24 25  1  0
 26 27  1  0
 27 28  2  0
 26 29  1  0
 25 26  2  0
 32 25  1  0
 29 30  2  0
 30 31  1  0
 31 32  2  0
 28 33  1  0
 33 34  1  0
 34 35  2  0
 35 36  1  0
 36 37  1  0
  5 37  1  0
 33 38  1  0
 33 39  1  0
 20 40  1  0
 40 41  1  0
 40 42  2  0
 43 41  1  1
 43 44  1  0
 45 43  1  0
 44 45  1  0
 43 46  1  0
 46 47  1  0
 46 48  2  0
 47 49  1  0
 49 50  1  0
 49 51  2  0
 49 52  2  0
 50 53  1  0
 50 54  1  0
 55 50  1  0
 54 55  1  0
 45 56  1  0
 56 57  1  0
 56 58  1  0
  1 59  1  0
  1 60  1  0
  2 61  1  0
  2 62  1  0
  3 63  1  0
  3 64  1  0
  4 65  1  1
  5 66  1  6
  8 67  1  0
 10 68  1  1
 13 69  1  0
 13 70  1  0
 13 71  1  0
 14 72  1  0
 14 73  1  0
 14 74  1  0
 15 75  1  0
 15 76  1  0
 15 77  1  0
 18 78  1  1
 19 79  1  0
 19 80  1  0
 20 81  1  6
 21 82  1  0
 21 83  1  0
 29 84  1  0
 30 85  1  0
 31 86  1  0
 32 87  1  0
 34 88  1  0
 35 89  1  0
 36 90  1  0
 36 91  1  0
 41 92  1  0
 44 93  1  0
 44 94  1  0
 45 95  1  1
 47 96  1  0
 53 97  1  0
 53 98  1  0
 53 99  1  0
 54100  1  0
 54101  1  0
 55102  1  0
 55103  1  0
 56104  1  0
M  END
> <Uni-Dock RESULT> 
ENERGY=   -4.557  LOWER_BOUND=    0.000  UPPER_BOUND=    0.000
INTER + INTRA:          -4.557
INTER:                  -4.557
INTRA:                   0.000
UNBOUND:                 0.000

$$$$

     RDKit          3D

104110  0  0  0  0  0  0  0  0999 V2000
   32.3862    7.9282   28.7056 C   0  0  0  0  0  0  0  0  0  0  0  0
   33.8376    8.2528   28.3648 C   0  0  0  0  0  0  0  0  0  0  0  0
   33.8008    9.4995   27.4760 C   0  0  0  0  0  0  0  0  0  0  0  0
   32.3207    9.8771   27.3330 C   0  0  2  0  0  0  0  0  0  0  0  0
   31.5980    8.5425   27.5512 C   0  0  2  0  0  0  0  0  0  0  0  0
   32.0828   10.4126   26.0230 O   0  0  0  0  0  0  0  0  0  0  0  0
   31.3447   11.5485   25.9885 C   0  0  0  0  0  0  0  0  0  0  0  0
   31.4575   12.1035   24.7386 N   0  0  0  0  0  0  0  0  0  0  0  0
   30.7582   12.0531   26.9338 O   0  0  0  0  0  0  0  0  0  0  0  0
   31.5564   13.5662   24.6702 C   0  0  2  0  0  0  0  0  0  0  0  0
   30.2101   14.3608   24.6276 C   0  0  0  0  0  0  0  0  0  0  0  0
   32.7038   14.0543   23.7024 C   0  0  0  0  0  0  0  0  0  0  0  0
   34.0546   13.4362   24.1574 C   0  0  0  0  0  0  0  0  0  0  0  0
   32.4705   13.6555   22.2388 C   0  0  0  0  0  0  0  0  0  0  0  0
   32.8840   15.5883   23.7425 C   0  0  0  0  0  0  0  0  0  0  0  0
   30.2388   15.5537   24.9683 O   0  0  0  0  0  0  0  0  0  0  0  0
   29.0126   13.8084   24.2263 N   0  0  0  0  0  0  0  0  0  0  0  0
   26.7052   13.4328   24.6704 C   0  0  1  0  0  0  0  0  0  0  0  0
   27.7841   14.5172   24.6007 C   0  0  0  0  0  0  0  0  0  0  0  0
   28.6887   12.4895   23.6668 C   0  0  1  0  0  0  0  0  0  0  0  0
   27.1459   12.4932   23.5538 C   0  0  0  0  0  0  0  0  0  0  0  0
   26.7838   12.6437   25.8655 O   0  0  0  0  0  0  0  0  0  0  0  0
   26.0874   13.1270   26.9446 C   0  0  0  0  0  0  0  0  0  0  0  0
   25.7800   14.4427   26.9882 N   0  0  0  0  0  0  0  0  0  0  0  0
   25.2069   14.8946   28.1237 C   0  0  0  0  0  0  0  0  0  0  0  0
   24.9281   14.0238   29.2050 C   0  0  0  0  0  0  0  0  0  0  0  0
   25.2201   12.7109   29.1428 N   0  0  0  0  0  0  0  0  0  0  0  0
   25.8162   12.2566   27.9976 C   0  0  0  0  0  0  0  0  0  0  0  0
   24.3522   14.5362   30.3633 C   0  0  0  0  0  0  0  0  0  0  0  0
   24.0583   15.8920   30.4884 C   0  0  0  0  0  0  0  0  0  0  0  0
   24.3377   16.7511   29.4335 C   0  0  0  0  0  0  0  0  0  0  0  0
   24.8991   16.2428   28.2549 C   0  0  0  0  0  0  0  0  0  0  0  0
   26.2097   10.7902   27.8786 C   0  0  0  0  0  0  0  0  0  0  0  0
   27.6878   10.5815   28.1332 C   0  0  0  0  0  0  0  0  0  0  0  0
   28.2388    9.4741   28.6724 C   0  0  0  0  0  0  0  0  0  0  0  0
   29.7095    9.3061   28.8762 C   0  0  0  0  0  0  0  0  0  0  0  0
   30.1911    8.6038   27.7392 O   0  0  0  0  0  0  0  0  0  0  0  0
   25.9160   10.2718   26.6398 F   0  0  0  0  0  0  0  0  0  0  0  0
   25.4885   10.0064   28.7517 F   0  0  0  0  0  0  0  0  0  0  0  0
   29.2110   12.2456   22.2427 C   0  0  0  0  0  0  0  0  0  0  0  0
   29.0947   10.9335   21.8052 N   0  0  0  0  0  0  0  0  0  0  0  0
   29.5933   13.1376   21.4900 O   0  0  0  0  0  0  0  0  0  0  0  0
   29.2989   10.5921   20.4007 C   0  0  2  0  0  0  0  0  0  0  0  0
   29.7929    9.1720   20.1182 C   0  0  0  0  0  0  0  0  0  0  0  0
   30.7200   10.3325   19.9070 C   0  0  1  0  0  0  0  0  0  0  0  0
   28.2931   11.1848   19.4226 C   0  0  0  0  0  0  0  0  0  0  0  0
   28.4283   12.5557   19.1952 N   0  0  0  0  0  0  0  0  0  0  0  0
   27.4527   10.4769   18.8896 O   0  0  0  0  0  0  0  0  0  0  0  0
   27.1185   13.5114   18.8089 S   0  0  0  0  0  0  0  0  0  0  0  0
   26.4246   12.9758   17.2282 C   0  0  0  0  0  0  0  0  0  0  0  0
   27.6549   14.8366   18.5716 O   0  0  0  0  0  0  0  0  0  0  0  0
   26.1337   13.3073   19.8505 O   0  0  0  0  0  0  0  0  0  0  0  0
   27.4308   12.8767   16.1385 C   0  0  0  0  0  0  0  0  0  0  0  0
   25.2424   12.0523   17.2948 C   0  0  0  0  0  0  0  0  0  0  0  0
   25.0353   13.5129   16.9614 C   0  0  0  0  0  0  0  0  0  0  0  0
   31.1570   10.7004   18.5337 C   0  0  0  0  0  0  0  0  0  0  0  0
   32.2741    9.9906   18.2301 F   0  0  0  0  0  0  0  0  0  0  0  0
   31.5183   12.0058   18.5380 F   0  0  0  0  0  0  0  0  0  0  0  0
   32.2077    6.8525   28.8046 H   0  0  0  0  0  0  0  0  0  0  0  0
   32.1189    8.3820   29.6666 H   0  0  0  0  0  0  0  0  0  0  0  0
   34.2882    7.4209   27.8166 H   0  0  0  0  0  0  0  0  0  0  0  0
   34.4402    8.4033   29.2678 H   0  0  0  0  0  0  0  0  0  0  0  0
   34.2692    9.2835   26.5070 H   0  0  0  0  0  0  0  0  0  0  0  0
   34.3686   10.3246   27.9301 H   0  0  0  0  0  0  0  0  0  0  0  0
   32.0864   10.5971   28.1221 H   0  0  0  0  0  0  0  0  0  0  0  0
   31.7387    7.9215   26.6588 H   0  0  0  0  0  0  0  0  0  0  0  0
   32.0971   11.5755   24.1616 H   0  0  0  0  0  0  0  0  0  0  0  0
   31.9313   13.8517   25.6677 H   0  0  0  0  0  0  0  0  0  0  0  0
   34.0682   12.3411   24.0886 H   0  0  0  0  0  0  0  0  0  0  0  0
   34.8961   13.8098   23.5465 H   0  0  0  0  0  0  0  0  0  0  0  0
   34.2635   13.6970   25.2081 H   0  0  0  0  0  0  0  0  0  0  0  0
   31.6449   14.2322   21.8117 H   0  0  0  0  0  0  0  0  0  0  0  0
   32.2443   12.5902   22.1351 H   0  0  0  0  0  0  0  0  0  0  0  0
   33.3553   13.8554   21.6195 H   0  0  0  0  0  0  0  0  0  0  0  0
   33.7550   15.8926   23.1472 H   0  0  0  0  0  0  0  0  0  0  0  0
   33.0470   15.9489   24.7646 H   0  0  0  0  0  0  0  0  0  0  0  0
   32.0197   16.1091   23.3145 H   0  0  0  0  0  0  0  0  0  0  0  0
   25.6848   13.7983   24.4988 H   0  0  0  0  0  0  0  0  0  0  0  0
   27.5809   15.2291   23.7870 H   0  0  0  0  0  0  0  0  0  0  0  0
   27.9202   15.0522   25.5474 H   0  0  0  0  0  0  0  0  0  0  0  0
   29.0191   11.6987   24.3473 H   0  0  0  0  0  0  0  0  0  0  0  0
   26.8195   12.8878   22.5823 H   0  0  0  0  0  0  0  0  0  0  0  0
   26.7472   11.4798   23.6658 H   0  0  0  0  0  0  0  0  0  0  0  0
   24.1424   13.8594   31.1908 H   0  0  0  0  0  0  0  0  0  0  0  0
   23.6095   16.2694   31.3978 H   0  0  0  0  0  0  0  0  0  0  0  0
   24.1195   17.8115   29.5179 H   0  0  0  0  0  0  0  0  0  0  0  0
   25.1268   16.9154   27.4306 H   0  0  0  0  0  0  0  0  0  0  0  0
   28.3433   11.4056   27.8568 H   0  0  0  0  0  0  0  0  0  0  0  0
   27.6026    8.6292   28.9287 H   0  0  0  0  0  0  0  0  0  0  0  0
   29.8787    8.7057   29.7710 H   0  0  0  0  0  0  0  0  0  0  0  0
   30.1968   10.2747   28.9964 H   0  0  0  0  0  0  0  0  0  0  0  0
   28.5477   10.2874   22.3601 H   0  0  0  0  0  0  0  0  0  0  0  0
   29.9976    8.5126   20.9544 H   0  0  0  0  0  0  0  0  0  0  0  0
   29.3944    8.6531   19.2585 H   0  0  0  0  0  0  0  0  0  0  0  0
   31.5234   10.4399   20.6097 H   0  0  0  0  0  0  0  0  0  0  0  0
   29.0679   13.0686   19.8236 H   0  0  0  0  0  0  0  0  0  0  0  0
   26.9668   12.5939   15.1796 H   0  0  0  0  0  0  0  0  0  0  0  0
   27.9506   13.8311   15.9833 H   0  0  0  0  0  0  0  0  0  0  0  0
   28.1858   12.1151   16.3731 H   0  0  0  0  0  0  0  0  0  0  0  0
   24.9029   11.6986   18.2627 H   0  0  0  0  0  0  0  0  0  0  0  0
   25.1226   11.3244   16.5019 H   0  0  0  0  0  0  0  0  0  0  0  0
   24.7745   13.7674   15.9430 H   0  0  0  0  0  0  0  0  0  0  0  0
   24.5477   14.1442   17.7017 H   0  0  0  0  0  0  0  0  0  0  0  0
   30.4038   10.5376   17.7599 H   0  0  0  0  0  0  0  0  0  0  0  0
  1  2  1  0
  2  3  1  0
  4  3  1  0
  4  5  1  0
  5  1  1  0
  4  6  1  0
  6  7  1  0
  7  8  1  0
  7  9  2  0
  8 10  1  0
 10 11  1  0
 10 12  1  0
 12 13  1  0
 12 14  1  0
 12 15  1  0
 11 16  2  0
 11 17  1  0
 19 17  1  0
 17 20  1  0
 18 19  1  0
 20 21  1  0
 18 21  1  0
 18 22  1  0
 22 23  1  0
 23 24  2  0
 28 23  1  0
 24 25  1  0
 26 27  1  0
 27 28  2  0
 26 29  1  0
 25 26  2  0
 32 25  1  0
 29 30  2  0
 30 31  1  0
 31 32  2  0
 28 33  1  0
 33 34  1  0
 34 35  2  0
 35 36  1  0
 36 37  1  0
  5 37  1  0
 33 38  1  0
 33 39  1  0
 20 40  1  0
 40 41  1  0
 40 42  2  0
 43 41  1  1
 43 44  1  0
 45 43  1  0
 44 45  1  0
 43 46  1  0
 46 47  1  0
 46 48  2  0
 47 49  1  0
 49 50  1  0
 49 51  2  0
 49 52  2  0
 50 53  1  0
 50 54  1  0
 55 50  1  0
 54 55  1  0
 45 56  1  0
 56 57  1  0
 56 58  1  0
  1 59  1  0
  1 60  1  0
  2 61  1  0
  2 62  1  0
  3 63  1  0
  3 64  1  0
  4 65  1  1
  5 66  1  6
  8 67  1  0
 10 68  1  1
 13 69  1  0
 13 70  1  0
 13 71  1  0
 14 72  1  0
 14 73  1  0
 14 74  1  0
 15 75  1  0
 15 76  1  0
 15 77  1  0
 18 78  1  1
 19 79  1  0
 19 80  1  0
 20 81  1  6
 21 82  1  0
 21 83  1  0
 29 84  1  0
 30 85  1  0
 31 86  1  0
 32 87  1  0
 34 88  1  0
 35 89  1  0
 36 90  1  0
 36 91  1  0
 41 92  1  0
 44 93  1  0
 44 94  1  0
 45 95  1  1
 47 96  1  0
 53 97  1  0
 53 98  1  0
 53 99  1  0
 54100  1  0
 54101  1  0
 55102  1  0
 55103  1  0
 56104  1  0
M  END
> <Uni-Dock RESULT> 
ENERGY=   -4.395  LOWER_BOUND=    3.012  UPPER_BOUND=   10.068
INTER + INTRA:          -4.395
INTER:                  -4.395
INTRA:                   0.000
UNBOUND:                 0.000

$$$$

     RDKit          3D

104110  0  0  0  0  0  0  0  0999 V2000
   35.5289    4.5553   34.6211 C   0  0  0  0  0  0  0  0  0  0  0  0
   35.2352    3.0628   34.5008 C   0  0  0  0  0  0  0  0  0  0  0  0
   34.1234    2.9275   33.4562 C   0  0  0  0  0  0  0  0  0  0  0  0
   33.8069    4.3525   32.9840 C   0  0  2  0  0  0  0  0  0  0  0  0
   34.2256    5.2167   34.1794 C   0  0  2  0  0  0  0  0  0  0  0  0
   32.4052    4.4670   32.6990 O   0  0  0  0  0  0  0  0  0  0  0  0
   32.1016    5.0838   31.5311 C   0  0  0  0  0  0  0  0  0  0  0  0
   30.7796    4.8511   31.2464 N   0  0  0  0  0  0  0  0  0  0  0  0
   32.8889    5.6643   30.7995 O   0  0  0  0  0  0  0  0  0  0  0  0
   30.4391    4.6015   29.8408 C   0  0  2  0  0  0  0  0  0  0  0  0
   30.1503    5.8565   28.9536 C   0  0  0  0  0  0  0  0  0  0  0  0
   29.4788    3.3622   29.6577 C   0  0  0  0  0  0  0  0  0  0  0  0
   30.1378    2.1061   30.2915 C   0  0  0  0  0  0  0  0  0  0  0  0
   28.1062    3.5587   30.3156 C   0  0  0  0  0  0  0  0  0  0  0  0
   29.2366    3.0301   28.1683 C   0  0  0  0  0  0  0  0  0  0  0  0
   30.2571    5.7250   27.7242 O   0  0  0  0  0  0  0  0  0  0  0  0
   29.7790    7.0815   29.4656 N   0  0  0  0  0  0  0  0  0  0  0  0
   30.1235    9.4348   29.5389 C   0  0  1  0  0  0  0  0  0  0  0  0
   29.9232    8.2497   28.5902 C   0  0  0  0  0  0  0  0  0  0  0  0
   29.4615    7.5077   30.8348 C   0  0  1  0  0  0  0  0  0  0  0  0
   29.2415    9.0343   30.7161 C   0  0  0  0  0  0  0  0  0  0  0  0
   31.4502    9.4982   30.0801 O   0  0  0  0  0  0  0  0  0  0  0  0
   32.3649   10.1969   29.3330 C   0  0  0  0  0  0  0  0  0  0  0  0
   32.1336   10.3716   28.0126 N   0  0  0  0  0  0  0  0  0  0  0  0
   33.1182   10.9539   27.2960 C   0  0  0  0  0  0  0  0  0  0  0  0
   34.3241   11.3748   27.9075 C   0  0  0  0  0  0  0  0  0  0  0  0
   34.5355   11.2141   29.2275 N   0  0  0  0  0  0  0  0  0  0  0  0
   33.5435   10.6087   29.9504 C   0  0  0  0  0  0  0  0  0  0  0  0
   35.3191   11.9549   27.1271 C   0  0  0  0  0  0  0  0  0  0  0  0
   35.1610   12.1163   25.7526 C   0  0  0  0  0  0  0  0  0  0  0  0
   33.9833   11.6975   25.1474 C   0  0  0  0  0  0  0  0  0  0  0  0
   32.9664   11.1302   25.9265 C   0  0  0  0  0  0  0  0  0  0  0  0
   33.7359   10.3598   31.4405 C   0  0  0  0  0  0  0  0  0  0  0  0
   34.1292    8.9255   31.7255 C   0  0  0  0  0  0  0  0  0  0  0  0
   34.9081    8.5178   32.7491 C   0  0  0  0  0  0  0  0  0  0  0  0
   35.2433    7.0842   33.0039 C   0  0  0  0  0  0  0  0  0  0  0  0
   34.2988    6.6180   33.9571 O   0  0  0  0  0  0  0  0  0  0  0  0
   32.6019   10.6401   32.1652 F   0  0  0  0  0  0  0  0  0  0  0  0
   34.6901   11.2006   31.9689 F   0  0  0  0  0  0  0  0  0  0  0  0
   28.1509    6.9398   31.4009 C   0  0  0  0  0  0  0  0  0  0  0  0
   27.9661    7.1655   32.7579 N   0  0  0  0  0  0  0  0  0  0  0  0
   27.2700    6.4311   30.7129 O   0  0  0  0  0  0  0  0  0  0  0  0
   26.6710    6.9246   33.3869 C   0  0  2  0  0  0  0  0  0  0  0  0
   26.7016    6.5628   34.8730 C   0  0  0  0  0  0  0  0  0  0  0  0
   26.3375    5.5134   33.8645 C   0  0  1  0  0  0  0  0  0  0  0  0
   25.5291    7.8135   32.9120 C   0  0  0  0  0  0  0  0  0  0  0  0
   25.0531    7.5288   31.6307 N   0  0  0  0  0  0  0  0  0  0  0  0
   25.0839    8.6925   33.6336 O   0  0  0  0  0  0  0  0  0  0  0  0
   24.3995    8.7136   30.6574 S   0  0  0  0  0  0  0  0  0  0  0  0
   22.9060    9.3756   31.4309 C   0  0  0  0  0  0  0  0  0  0  0  0
   23.9509    8.0345   29.4584 O   0  0  0  0  0  0  0  0  0  0  0  0
   25.3890    9.7665   30.5631 O   0  0  0  0  0  0  0  0  0  0  0  0
   21.9291    8.3296   31.8326 C   0  0  0  0  0  0  0  0  0  0  0  0
   23.0652   10.6470   32.2140 C   0  0  0  0  0  0  0  0  0  0  0  0
   22.4441   10.6878   30.8355 C   0  0  0  0  0  0  0  0  0  0  0  0
   24.9534    4.9712   33.8157 C   0  0  0  0  0  0  0  0  0  0  0  0
   24.8709    3.9174   34.6680 F   0  0  0  0  0  0  0  0  0  0  0  0
   24.7327    4.4805   32.5727 F   0  0  0  0  0  0  0  0  0  0  0  0
   35.8195    4.8465   35.6358 H   0  0  0  0  0  0  0  0  0  0  0  0
   36.3639    4.8246   33.9644 H   0  0  0  0  0  0  0  0  0  0  0  0
   34.8898    2.6710   35.4615 H   0  0  0  0  0  0  0  0  0  0  0  0
   36.1327    2.4956   34.2291 H   0  0  0  0  0  0  0  0  0  0  0  0
   33.2493    2.4339   33.9003 H   0  0  0  0  0  0  0  0  0  0  0  0
   34.4498    2.3034   32.6115 H   0  0  0  0  0  0  0  0  0  0  0  0
   34.4248    4.5533   32.1043 H   0  0  0  0  0  0  0  0  0  0  0  0
   33.4810    5.0936   34.9745 H   0  0  0  0  0  0  0  0  0  0  0  0
   30.3610    4.2393   31.9328 H   0  0  0  0  0  0  0  0  0  0  0  0
   31.3872    4.2516   29.3984 H   0  0  0  0  0  0  0  0  0  0  0  0
   30.2814    2.1997   31.3754 H   0  0  0  0  0  0  0  0  0  0  0  0
   29.5274    1.2007   30.1225 H   0  0  0  0  0  0  0  0  0  0  0  0
   31.1310    1.9264   29.8479 H   0  0  0  0  0  0  0  0  0  0  0  0
   27.5193    4.2987   29.7635 H   0  0  0  0  0  0  0  0  0  0  0  0
   28.1930    3.8858   31.3559 H   0  0  0  0  0  0  0  0  0  0  0  0
   27.5238    2.6275   30.3216 H   0  0  0  0  0  0  0  0  0  0  0  0
   28.6568    2.1033   28.0665 H   0  0  0  0  0  0  0  0  0  0  0  0
   30.1795    2.8844   27.6288 H   0  0  0  0  0  0  0  0  0  0  0  0
   28.6569    3.8141   27.6676 H   0  0  0  0  0  0  0  0  0  0  0  0
   29.8136   10.4028   29.1251 H   0  0  0  0  0  0  0  0  0  0  0  0
   28.9759    8.3376   28.0380 H   0  0  0  0  0  0  0  0  0  0  0  0
   30.7569    8.1092   27.8929 H   0  0  0  0  0  0  0  0  0  0  0  0
   30.3026    7.2944   31.5017 H   0  0  0  0  0  0  0  0  0  0  0  0
   28.1920    9.2685   30.4939 H   0  0  0  0  0  0  0  0  0  0  0  0
   29.5175    9.5387   31.6478 H   0  0  0  0  0  0  0  0  0  0  0  0
   36.2442   12.2745   27.6056 H   0  0  0  0  0  0  0  0  0  0  0  0
   35.9473   12.5710   25.1645 H   0  0  0  0  0  0  0  0  0  0  0  0
   33.8472   11.8113   24.0760 H   0  0  0  0  0  0  0  0  0  0  0  0
   32.0466   10.7934   25.4530 H   0  0  0  0  0  0  0  0  0  0  0  0
   33.7467    8.1767   31.0341 H   0  0  0  0  0  0  0  0  0  0  0  0
   35.2762    9.2486   33.4666 H   0  0  0  0  0  0  0  0  0  0  0  0
   36.2463    7.0230   33.4282 H   0  0  0  0  0  0  0  0  0  0  0  0
   35.2096    6.5084   32.0779 H   0  0  0  0  0  0  0  0  0  0  0  0
   28.5947    7.8029   33.2302 H   0  0  0  0  0  0  0  0  0  0  0  0
   27.6610    6.4692   35.3698 H   0  0  0  0  0  0  0  0  0  0  0  0
   25.9315    6.9668   35.5140 H   0  0  0  0  0  0  0  0  0  0  0  0
   27.0614    4.7406   33.6924 H   0  0  0  0  0  0  0  0  0  0  0  0
   25.6149    6.8740   31.0628 H   0  0  0  0  0  0  0  0  0  0  0  0
   21.0120    8.7698   32.2569 H   0  0  0  0  0  0  0  0  0  0  0  0
   21.6307    7.7088   30.9778 H   0  0  0  0  0  0  0  0  0  0  0  0
   22.3580    7.6686   32.5970 H   0  0  0  0  0  0  0  0  0  0  0  0
   24.0565   11.0700   32.3377 H   0  0  0  0  0  0  0  0  0  0  0  0
   22.4201   10.7986   33.0706 H   0  0  0  0  0  0  0  0  0  0  0  0
   21.3800   10.8687   30.7651 H   0  0  0  0  0  0  0  0  0  0  0  0
   23.0135   11.1467   30.0295 H   0  0  0  0  0  0  0  0  0  0  0  0
   24.1741    5.6961   34.0605 H   0  0  0  0  0  0  0  0  0  0  0  0
  1  2  1  0
  2  3  1  0
  4  3  1  0
  4  5  1  0
  5  1  1  0
  4  6  1  0
  6  7  1  0
  7  8  1  0
  7  9  2  0
  8 10  1  0
 10 11  1  0
 10 12  1  0
 12 13  1  0
 12 14  1  0
 12 15  1  0
 11 16  2  0
 11 17  1  0
 19 17  1  0
 17 20  1  0
 18 19  1  0
 20 21  1  0
 18 21  1  0
 18 22  1  0
 22 23  1  0
 23 24  2  0
 28 23  1  0
 24 25  1  0
 26 27  1  0
 27 28  2  0
 26 29  1  0
 25 26  2  0
 32 25  1  0
 29 30  2  0
 30 31  1  0
 31 32  2  0
 28 33  1  0
 33 34  1  0
 34 35  2  0
 35 36  1  0
 36 37  1  0
  5 37  1  0
 33 38  1  0
 33 39  1  0
 20 40  1  0
 40 41  1  0
 40 42  2  0
 43 41  1  1
 43 44  1  0
 45 43  1  0
 44 45  1  0
 43 46  1  0
 46 47  1  0
 46 48  2  0
 47 49  1  0
 49 50  1  0
 49 51  2  0
 49 52  2  0
 50 53  1  0
 50 54  1  0
 55 50  1  0
 54 55  1  0
 45 56  1  0
 56 57  1  0
 56 58  1  0
  1 59  1  0
  1 60  1  0
  2 61  1  0
  2 62  1  0
  3 63  1  0
  3 64  1  0
  4 65  1  1
  5 66  1  6
  8 67  1  0
 10 68  1  1
 13 69  1  0
 13 70  1  0
 13 71  1  0
 14 72  1  0
 14 73  1  0
 14 74  1  0
 15 75  1  0
 15 76  1  0
 15 77  1  0
 18 78  1  1
 19 79  1  0
 19 80  1  0
 20 81  1  6
 21 82  1  0
 21 83  1  0
 29 84  1  0
 30 85  1  0
 31 86  1  0
 32 87  1  0
 34 88  1  0
 35 89  1  0
 36 90  1  0
 36 91  1  0
 41 92  1  0
 44 93  1  0
 44 94  1  0
 45 95  1  1
 47 96  1  0
 53 97  1  0
 53 98  1  0
 53 99  1  0
 54100  1  0
 54101  1  0
 55102  1  0
 55103  1  0
 56104  1  0
M  END
> <Uni-Dock RESULT> 
ENERGY=   -4.273  LOWER_BOUND=    6.934  UPPER_BOUND=   11.165
INTER + INTRA:          -4.273
INTER:                  -4.273
INTRA:                   0.000
UNBOUND:                 0.000

$$$$

     RDKit          3D

104110  0  0  0  0  0  0  0  0999 V2000
   27.3766   11.3106   19.6303 C   0  0  0  0  0  0  0  0  0  0  0  0
   25.9877   11.8742   19.3452 C   0  0  0  0  0  0  0  0  0  0  0  0
   25.6672   12.8287   20.4992 C   0  0  0  0  0  0  0  0  0  0  0  0
   26.8910   12.8048   21.4241 C   0  0  2  0  0  0  0  0  0  0  0  0
   27.5107   11.4300   21.1465 C   0  0  2  0  0  0  0  0  0  0  0  0
   26.4683   12.9414   22.7886 O   0  0  0  0  0  0  0  0  0  0  0  0
   27.1755   13.8316   23.5262 C   0  0  0  0  0  0  0  0  0  0  0  0
   26.4854   14.0828   24.6852 N   0  0  0  0  0  0  0  0  0  0  0  0
   28.2024   14.3957   23.1805 O   0  0  0  0  0  0  0  0  0  0  0  0
   26.4863   15.4683   25.1692 C   0  0  2  0  0  0  0  0  0  0  0  0
   27.6814   15.8927   26.0842 C   0  0  0  0  0  0  0  0  0  0  0  0
   25.0501   15.9656   25.5952 C   0  0  0  0  0  0  0  0  0  0  0  0
   24.0767   15.8070   24.3947 C   0  0  0  0  0  0  0  0  0  0  0  0
   24.4679   15.1859   26.7821 C   0  0  0  0  0  0  0  0  0  0  0  0
   25.0429   17.4632   25.9750 C   0  0  0  0  0  0  0  0  0  0  0  0
   27.9295   17.1052   26.1757 O   0  0  0  0  0  0  0  0  0  0  0  0
   28.4547   14.9965   26.7908 N   0  0  0  0  0  0  0  0  0  0  0  0
   30.6244   14.2095   27.3701 C   0  0  1  0  0  0  0  0  0  0  0  0
   29.7553   15.4670   27.2794 C   0  0  0  0  0  0  0  0  0  0  0  0
   28.3368   13.5442   26.9756 C   0  0  1  0  0  0  0  0  0  0  0  0
   29.5987   13.1604   27.7839 C   0  0  0  0  0  0  0  0  0  0  0  0
   31.1035   13.7692   26.0920 O   0  0  0  0  0  0  0  0  0  0  0  0
   32.2911   14.3196   25.6798 C   0  0  0  0  0  0  0  0  0  0  0  0
   32.6847   15.4984   26.2117 N   0  0  0  0  0  0  0  0  0  0  0  0
   33.7931   16.0614   25.6858 C   0  0  0  0  0  0  0  0  0  0  0  0
   34.5130   15.4334   24.6405 C   0  0  0  0  0  0  0  0  0  0  0  0
   34.1232   14.2492   24.1320 N   0  0  0  0  0  0  0  0  0  0  0  0
   32.9901   13.6870   24.6545 C   0  0  0  0  0  0  0  0  0  0  0  0
   35.6403   16.0582   24.1167 C   0  0  0  0  0  0  0  0  0  0  0  0
   36.0675   17.2975   24.5880 C   0  0  0  0  0  0  0  0  0  0  0  0
   35.3596   17.9208   25.6074 C   0  0  0  0  0  0  0  0  0  0  0  0
   34.2345   17.2916   26.1561 C   0  0  0  0  0  0  0  0  0  0  0  0
   32.4717   12.3683   24.0962 C   0  0  0  0  0  0  0  0  0  0  0  0
   31.3207   12.5776   23.1348 C   0  0  0  0  0  0  0  0  0  0  0  0
   31.0340   11.7911   22.0765 C   0  0  0  0  0  0  0  0  0  0  0  0
   29.8667   12.0248   21.1736 C   0  0  0  0  0  0  0  0  0  0  0  0
   28.8151   11.2040   21.6620 O   0  0  0  0  0  0  0  0  0  0  0  0
   32.0464   11.5155   25.0869 F   0  0  0  0  0  0  0  0  0  0  0  0
   33.4706   11.6694   23.4556 F   0  0  0  0  0  0  0  0  0  0  0  0
   27.1413   13.0965   27.8306 C   0  0  0  0  0  0  0  0  0  0  0  0
   26.9088   11.7282   27.8210 N   0  0  0  0  0  0  0  0  0  0  0  0
   26.5028   13.8470   28.5636 O   0  0  0  0  0  0  0  0  0  0  0  0
   25.9874   11.1190   28.7754 C   0  0  2  0  0  0  0  0  0  0  0  0
   25.3034    9.8284   28.3205 C   0  0  0  0  0  0  0  0  0  0  0  0
   24.4980   11.0885   28.4414 C   0  0  1  0  0  0  0  0  0  0  0  0
   26.3961   11.2094   30.2398 C   0  0  0  0  0  0  0  0  0  0  0  0
   26.2770   12.4789   30.8085 N   0  0  0  0  0  0  0  0  0  0  0  0
   26.7837   10.2187   30.8394 O   0  0  0  0  0  0  0  0  0  0  0  0
   27.2784   12.9817   32.0425 S   0  0  0  0  0  0  0  0  0  0  0  0
   27.0189   11.9376   33.4949 C   0  0  0  0  0  0  0  0  0  0  0  0
   26.8074   14.2995   32.4190 O   0  0  0  0  0  0  0  0  0  0  0  0
   28.6367   12.8078   31.5723 O   0  0  0  0  0  0  0  0  0  0  0  0
   25.5926   11.8192   33.8968 C   0  0  0  0  0  0  0  0  0  0  0  0
   27.9880   10.8069   33.6880 C   0  0  0  0  0  0  0  0  0  0  0  0
   28.1149   12.0558   34.5316 C   0  0  0  0  0  0  0  0  0  0  0  0
   23.4520   11.2096   29.4918 C   0  0  0  0  0  0  0  0  0  0  0  0
   22.2828   10.7291   28.9960 F   0  0  0  0  0  0  0  0  0  0  0  0
   23.2528   12.5255   29.7435 F   0  0  0  0  0  0  0  0  0  0  0  0
   27.4912   10.2785   19.2831 H   0  0  0  0  0  0  0  0  0  0  0  0
   28.1343   11.9051   19.1075 H   0  0  0  0  0  0  0  0  0  0  0  0
   25.2533   11.0645   19.3200 H   0  0  0  0  0  0  0  0  0  0  0  0
   25.9468   12.3723   18.3697 H   0  0  0  0  0  0  0  0  0  0  0  0
   24.7530   12.5033   21.0124 H   0  0  0  0  0  0  0  0  0  0  0  0
   25.4819   13.8474   20.1286 H   0  0  0  0  0  0  0  0  0  0  0  0
   27.5544   13.6170   21.1141 H   0  0  0  0  0  0  0  0  0  0  0  0
   26.8826   10.6646   21.6171 H   0  0  0  0  0  0  0  0  0  0  0  0
   25.5996   13.5968   24.6948 H   0  0  0  0  0  0  0  0  0  0  0  0
   26.6996   16.0630   24.2648 H   0  0  0  0  0  0  0  0  0  0  0  0
   23.9395   14.7615   24.0909 H   0  0  0  0  0  0  0  0  0  0  0  0
   23.0753   16.2099   24.6305 H   0  0  0  0  0  0  0  0  0  0  0  0
   24.4571   16.3523   23.5152 H   0  0  0  0  0  0  0  0  0  0  0  0
   25.0030   15.4348   27.7032 H   0  0  0  0  0  0  0  0  0  0  0  0
   24.5205   14.1042   26.6277 H   0  0  0  0  0  0  0  0  0  0  0  0
   23.4108   15.4333   26.9487 H   0  0  0  0  0  0  0  0  0  0  0  0
   24.0185   17.8114   26.1619 H   0  0  0  0  0  0  0  0  0  0  0  0
   25.4561   18.0851   25.1726 H   0  0  0  0  0  0  0  0  0  0  0  0
   25.6060   17.6501   26.8966 H   0  0  0  0  0  0  0  0  0  0  0  0
   31.4394   14.2748   28.1020 H   0  0  0  0  0  0  0  0  0  0  0  0
   29.5715   15.8965   28.2753 H   0  0  0  0  0  0  0  0  0  0  0  0
   30.1674   16.2291   26.6081 H   0  0  0  0  0  0  0  0  0  0  0  0
   28.3372   13.0383   26.0052 H   0  0  0  0  0  0  0  0  0  0  0  0
   29.4133   13.2243   28.8643 H   0  0  0  0  0  0  0  0  0  0  0  0
   29.9135   12.1387   27.5480 H   0  0  0  0  0  0  0  0  0  0  0  0
   36.1874   15.5688   23.3117 H   0  0  0  0  0  0  0  0  0  0  0  0
   36.9477   17.7654   24.1671 H   0  0  0  0  0  0  0  0  0  0  0  0
   35.6768   18.8896   25.9818 H   0  0  0  0  0  0  0  0  0  0  0  0
   33.6735   17.7822   26.9488 H   0  0  0  0  0  0  0  0  0  0  0  0
   30.6865   13.4415   23.3263 H   0  0  0  0  0  0  0  0  0  0  0  0
   31.6396   10.9072   21.8859 H   0  0  0  0  0  0  0  0  0  0  0  0
   30.1303   11.7119   20.1625 H   0  0  0  0  0  0  0  0  0  0  0  0
   29.5913   13.0804   21.1623 H   0  0  0  0  0  0  0  0  0  0  0  0
   27.6073   11.1238   27.4069 H   0  0  0  0  0  0  0  0  0  0  0  0
   25.5017    9.4541   27.3222 H   0  0  0  0  0  0  0  0  0  0  0  0
   25.1616    9.0411   29.0466 H   0  0  0  0  0  0  0  0  0  0  0  0
   24.1793   11.5449   27.5245 H   0  0  0  0  0  0  0  0  0  0  0  0
   26.0939   13.2617   30.1599 H   0  0  0  0  0  0  0  0  0  0  0  0
   25.4756   11.2155   34.8115 H   0  0  0  0  0  0  0  0  0  0  0  0
   25.1474   12.8033   34.0933 H   0  0  0  0  0  0  0  0  0  0  0  0
   25.0042   11.3336   33.1074 H   0  0  0  0  0  0  0  0  0  0  0  0
   28.7443   10.6251   32.9318 H   0  0  0  0  0  0  0  0  0  0  0  0
   27.6247    9.9036   34.1624 H   0  0  0  0  0  0  0  0  0  0  0  0
   27.8378   11.9917   35.5752 H   0  0  0  0  0  0  0  0  0  0  0  0
   28.9627   12.7136   34.3504 H   0  0  0  0  0  0  0  0  0  0  0  0
   23.6869   10.6956   30.4263 H   0  0  0  0  0  0  0  0  0  0  0  0
  1  2  1  0
  2  3  1  0
  4  3  1  0
  4  5  1  0
  5  1  1  0
  4  6  1  0
  6  7  1  0
  7  8  1  0
  7  9  2  0
  8 10  1  0
 10 11  1  0
 10 12  1  0
 12 13  1  0
 12 14  1  0
 12 15  1  0
 11 16  2  0
 11 17  1  0
 19 17  1  0
 17 20  1  0
 18 19  1  0
 20 21  1  0
 18 21  1  0
 18 22  1  0
 22 23  1  0
 23 24  2  0
 28 23  1  0
 24 25  1  0
 26 27  1  0
 27 28  2  0
 26 29  1  0
 25 26  2  0
 32 25  1  0
 29 30  2  0
 30 31  1  0
 31 32  2  0
 28 33  1  0
 33 34  1  0
 34 35  2  0
 35 36  1  0
 36 37  1  0
  5 37  1  0
 33 38  1  0
 33 39  1  0
 20 40  1  0
 40 41  1  0
 40 42  2  0
 43 41  1  1
 43 44  1  0
 45 43  1  0
 44 45  1  0
 43 46  1  0
 46 47  1  0
 46 48  2  0
 47 49  1  0
 49 50  1  0
 49 51  2  0
 49 52  2  0
 50 53  1  0
 50 54  1  0
 55 50  1  0
 54 55  1  0
 45 56  1  0
 56 57  1  0
 56 58  1  0
  1 59  1  0
  1 60  1  0
  2 61  1  0
  2 62  1  0
  3 63  1  0
  3 64  1  0
  4 65  1  1
  5 66  1  6
  8 67  1  0
 10 68  1  1
 13 69  1  0
 13 70  1  0
 13 71  1  0
 14 72  1  0
 14 73  1  0
 14 74  1  0
 15 75  1  0
 15 76  1  0
 15 77  1  0
 18 78  1  1
 19 79  1  0
 19 80  1  0
 20 81  1  6
 21 82  1  0
 21 83  1  0
 29 84  1  0
 30 85  1  0
 31 86  1  0
 32 87  1  0
 34 88  1  0
 35 89  1  0
 36 90  1  0
 36 91  1  0
 41 92  1  0
 44 93  1  0
 44 94  1  0
 45 95  1  1
 47 96  1  0
 53 97  1  0
 53 98  1  0
 53 99  1  0
 54100  1  0
 54101  1  0
 55102  1  0
 55103  1  0
 56104  1  0
M  END
> <Uni-Dock RESULT> 
ENERGY=   -4.117  LOWER_BOUND=    2.228  UPPER_BOUND=    2.883
INTER + INTRA:          -4.117
INTER:                  -4.117
INTRA:                   0.000
UNBOUND:                 0.000

$$$$

     RDKit          3D

104110  0  0  0  0  0  0  0  0999 V2000
   30.1027    7.4804   29.5058 C   0  0  0  0  0  0  0  0  0  0  0  0
   31.5714    7.1570   29.2475 C   0  0  0  0  0  0  0  0  0  0  0  0
   32.1154    8.2967   28.3811 C   0  0  0  0  0  0  0  0  0  0  0  0
   30.9451    9.2654   28.1677 C   0  0  2  0  0  0  0  0  0  0  0  0
   29.7142    8.3645   28.3232 C   0  0  2  0  0  0  0  0  0  0  0  0
   31.0293    9.8440   26.8572 O   0  0  0  0  0  0  0  0  0  0  0  0
   30.8452   11.1856   26.8049 C   0  0  0  0  0  0  0  0  0  0  0  0
   31.2513   11.6334   25.5731 N   0  0  0  0  0  0  0  0  0  0  0  0
   30.4764   11.8964   27.7273 O   0  0  0  0  0  0  0  0  0  0  0  0
   31.9642   12.9157   25.5369 C   0  0  2  0  0  0  0  0  0  0  0  0
   31.0861   14.2060   25.4385 C   0  0  0  0  0  0  0  0  0  0  0  0
   33.2619   12.8658   24.6396 C   0  0  0  0  0  0  0  0  0  0  0  0
   34.1962   11.7357   25.1534 C   0  0  0  0  0  0  0  0  0  0  0  0
   32.9629   12.5954   23.1588 C   0  0  0  0  0  0  0  0  0  0  0  0
   34.0726   14.1788   24.7174 C   0  0  0  0  0  0  0  0  0  0  0  0
   31.5986   15.2760   25.8021 O   0  0  0  0  0  0  0  0  0  0  0  0
   29.7915   14.2113   24.9648 N   0  0  0  0  0  0  0  0  0  0  0  0
   27.5217   14.8521   25.2805 C   0  0  1  0  0  0  0  0  0  0  0  0
   28.9604   15.3762   25.2873 C   0  0  0  0  0  0  0  0  0  0  0  0
   28.9707   13.1511   24.3650 C   0  0  1  0  0  0  0  0  0  0  0  0
   27.5837   13.8081   24.1713 C   0  0  0  0  0  0  0  0  0  0  0  0
   27.1924   14.1108   26.4633 O   0  0  0  0  0  0  0  0  0  0  0  0
   26.7079   14.8498   27.5132 C   0  0  0  0  0  0  0  0  0  0  0  0
   26.9850   16.1719   27.5648 N   0  0  0  0  0  0  0  0  0  0  0  0
   26.5956   16.8305   28.6769 C   0  0  0  0  0  0  0  0  0  0  0  0
   25.9148   16.1661   29.7259 C   0  0  0  0  0  0  0  0  0  0  0  0
   25.6260   14.8529   29.6549 N   0  0  0  0  0  0  0  0  0  0  0  0
   26.0357   14.1824   28.5343 C   0  0  0  0  0  0  0  0  0  0  0  0
   25.5473   16.8808   30.8616 C   0  0  0  0  0  0  0  0  0  0  0  0
   25.8491   18.2339   30.9961 C   0  0  0  0  0  0  0  0  0  0  0  0
   26.5239   18.8876   29.9733 C   0  0  0  0  0  0  0  0  0  0  0  0
   26.8813   18.1826   28.8165 C   0  0  0  0  0  0  0  0  0  0  0  0
   25.7768   12.6869   28.4091 C   0  0  0  0  0  0  0  0  0  0  0  0
   27.0107   11.8725   28.7369 C   0  0  0  0  0  0  0  0  0  0  0  0
   27.0099   10.6389   29.2838 C   0  0  0  0  0  0  0  0  0  0  0  0
   28.2570    9.8642   29.5612 C   0  0  0  0  0  0  0  0  0  0  0  0
   28.4578    9.0177   28.4382 O   0  0  0  0  0  0  0  0  0  0  0  0
   25.3600   12.3351   27.1473 F   0  0  0  0  0  0  0  0  0  0  0  0
   24.7445   12.2877   29.2286 F   0  0  0  0  0  0  0  0  0  0  0  0
   29.4184   12.7008   22.9659 C   0  0  0  0  0  0  0  0  0  0  0  0
   28.7814   11.5595   22.4989 N   0  0  0  0  0  0  0  0  0  0  0  0
   30.1835   13.3423   22.2509 O   0  0  0  0  0  0  0  0  0  0  0  0
   28.8990   11.1559   21.1009 C   0  0  2  0  0  0  0  0  0  0  0  0
   28.7596    9.6588   20.8187 C   0  0  0  0  0  0  0  0  0  0  0  0
   30.1012   10.3154   20.6777 C   0  0  1  0  0  0  0  0  0  0  0  0
   28.2948   12.1138   20.0826 C   0  0  0  0  0  0  0  0  0  0  0  0
   29.0105   13.2966   19.8878 N   0  0  0  0  0  0  0  0  0  0  0  0
   27.2645   11.8261   19.4933 O   0  0  0  0  0  0  0  0  0  0  0  0
   28.2525   14.7154   19.4511 S   0  0  0  0  0  0  0  0  0  0  0  0
   27.4855   14.5158   17.8266 C   0  0  0  0  0  0  0  0  0  0  0  0
   29.3121   15.6867   19.2667 O   0  0  0  0  0  0  0  0  0  0  0  0
   27.2181   14.9540   20.4357 O   0  0  0  0  0  0  0  0  0  0  0  0
   28.4135   13.9933   16.7895 C   0  0  0  0  0  0  0  0  0  0  0  0
   26.0217   14.1812   17.8142 C   0  0  0  0  0  0  0  0  0  0  0  0
   26.4718   15.5899   17.4974 C   0  0  0  0  0  0  0  0  0  0  0  0
   30.7280   10.4556   19.3362 C   0  0  0  0  0  0  0  0  0  0  0  0
   31.4541    9.3375   19.0785 F   0  0  0  0  0  0  0  0  0  0  0  0
   31.6075   11.4846   19.3834 F   0  0  0  0  0  0  0  0  0  0  0  0
   29.4801    6.5824   29.5754 H   0  0  0  0  0  0  0  0  0  0  0  0
   30.0002    8.0100   30.4597 H   0  0  0  0  0  0  0  0  0  0  0  0
   31.6565    6.2094   28.7084 H   0  0  0  0  0  0  0  0  0  0  0  0
   32.1300    7.0428   30.1835 H   0  0  0  0  0  0  0  0  0  0  0  0
   32.5009    7.8970   27.4341 H   0  0  0  0  0  0  0  0  0  0  0  0
   32.9533    8.8056   28.8795 H   0  0  0  0  0  0  0  0  0  0  0  0
   30.9947   10.0212   28.9565 H   0  0  0  0  0  0  0  0  0  0  0  0
   29.6276    7.7374   27.4281 H   0  0  0  0  0  0  0  0  0  0  0  0
   31.6378   10.8808   25.0208 H   0  0  0  0  0  0  0  0  0  0  0  0
   32.3691   13.0208   26.5578 H   0  0  0  0  0  0  0  0  0  0  0  0
   33.7483   10.7378   25.0652 H   0  0  0  0  0  0  0  0  0  0  0  0
   35.1490   11.7138   24.5944 H   0  0  0  0  0  0  0  0  0  0  0  0
   34.4375   11.8892   26.2182 H   0  0  0  0  0  0  0  0  0  0  0  0
   32.4844   13.4654   22.6996 H   0  0  0  0  0  0  0  0  0  0  0  0
   32.3127   11.7260   23.0238 H   0  0  0  0  0  0  0  0  0  0  0  0
   33.8818   12.3978   22.5904 H   0  0  0  0  0  0  0  0  0  0  0  0
   35.0219   14.0817   24.1742 H   0  0  0  0  0  0  0  0  0  0  0  0
   34.3163   14.4419   25.7531 H   0  0  0  0  0  0  0  0  0  0  0  0
   33.5355   15.0145   24.2543 H   0  0  0  0  0  0  0  0  0  0  0  0
   26.7635   15.6149   25.0624 H   0  0  0  0  0  0  0  0  0  0  0  0
   29.1233   16.1026   24.4774 H   0  0  0  0  0  0  0  0  0  0  0  0
   29.2579   15.8083   26.2496 H   0  0  0  0  0  0  0  0  0  0  0  0
   28.8969   12.2986   25.0472 H   0  0  0  0  0  0  0  0  0  0  0  0
   27.5095   14.2984   23.1916 H   0  0  0  0  0  0  0  0  0  0  0  0
   26.7876   13.0600   24.2436 H   0  0  0  0  0  0  0  0  0  0  0  0
   25.0251   16.3615   31.6644 H   0  0  0  0  0  0  0  0  0  0  0  0
   25.5530   18.7711   31.8875 H   0  0  0  0  0  0  0  0  0  0  0  0
   26.7714   19.9410   30.0656 H   0  0  0  0  0  0  0  0  0  0  0  0
   27.4177   18.6907   28.0178 H   0  0  0  0  0  0  0  0  0  0  0  0
   27.9678   12.3392   28.5104 H   0  0  0  0  0  0  0  0  0  0  0  0
   26.0625   10.1450   29.4908 H   0  0  0  0  0  0  0  0  0  0  0  0
   28.1062    9.2538   30.4525 H   0  0  0  0  0  0  0  0  0  0  0  0
   29.1014   10.5355   29.7246 H   0  0  0  0  0  0  0  0  0  0  0  0
   27.9825   11.2094   23.0124 H   0  0  0  0  0  0  0  0  0  0  0  0
   28.6191    8.9794   21.6521 H   0  0  0  0  0  0  0  0  0  0  0  0
   28.2269    9.3531   19.9299 H   0  0  0  0  0  0  0  0  0  0  0  0
   30.8342   10.0758   21.4234 H   0  0  0  0  0  0  0  0  0  0  0  0
   29.7713   13.4934   20.5582 H   0  0  0  0  0  0  0  0  0  0  0  0
   27.9271   13.9287   15.8026 H   0  0  0  0  0  0  0  0  0  0  0  0
   29.2964   14.6364   16.6793 H   0  0  0  0  0  0  0  0  0  0  0  0
   28.7605   12.9847   17.0493 H   0  0  0  0  0  0  0  0  0  0  0  0
   25.5115   14.0102   18.7563 H   0  0  0  0  0  0  0  0  0  0  0  0
   25.6489   13.5684   17.0028 H   0  0  0  0  0  0  0  0  0  0  0  0
   26.4001   15.9254   16.4715 H   0  0  0  0  0  0  0  0  0  0  0  0
   26.2575   16.3726   18.2226 H   0  0  0  0  0  0  0  0  0  0  0  0
   30.0207   10.6233   18.5211 H   0  0  0  0  0  0  0  0  0  0  0  0
  1  2  1  0
  2  3  1  0
  4  3  1  0
  4  5  1  0
  5  1  1  0
  4  6  1  0
  6  7  1  0
  7  8  1  0
  7  9  2  0
  8 10  1  0
 10 11  1  0
 10 12  1  0
 12 13  1  0
 12 14  1  0
 12 15  1  0
 11 16  2  0
 11 17  1  0
 19 17  1  0
 17 20  1  0
 18 19  1  0
 20 21  1  0
 18 21  1  0
 18 22  1  0
 22 23  1  0
 23 24  2  0
 28 23  1  0
 24 25  1  0
 26 27  1  0
 27 28  2  0
 26 29  1  0
 25 26  2  0
 32 25  1  0
 29 30  2  0
 30 31  1  0
 31 32  2  0
 28 33  1  0
 33 34  1  0
 34 35  2  0
 35 36  1  0
 36 37  1  0
  5 37  1  0
 33 38  1  0
 33 39  1  0
 20 40  1  0
 40 41  1  0
 40 42  2  0
 43 41  1  1
 43 44  1  0
 45 43  1  0
 44 45  1  0
 43 46  1  0
 46 47  1  0
 46 48  2  0
 47 49  1  0
 49 50  1  0
 49 51  2  0
 49 52  2  0
 50 53  1  0
 50 54  1  0
 55 50  1  0
 54 55  1  0
 45 56  1  0
 56 57  1  0
 56 58  1  0
  1 59  1  0
  1 60  1  0
  2 61  1  0
  2 62  1  0
  3 63  1  0
  3 64  1  0
  4 65  1  1
  5 66  1  6
  8 67  1  0
 10 68  1  1
 13 69  1  0
 13 70  1  0
 13 71  1  0
 14 72  1  0
 14 73  1  0
 14 74  1  0
 15 75  1  0
 15 76  1  0
 15 77  1  0
 18 78  1  1
 19 79  1  0
 19 80  1  0
 20 81  1  6
 21 82  1  0
 21 83  1  0
 29 84  1  0
 30 85  1  0
 31 86  1  0
 32 87  1  0
 34 88  1  0
 35 89  1  0
 36 90  1  0
 36 91  1  0
 41 92  1  0
 44 93  1  0
 44 94  1  0
 45 95  1  1
 47 96  1  0
 53 97  1  0
 53 98  1  0
 53 99  1  0
 54100  1  0
 54101  1  0
 55102  1  0
 55103  1  0
 56104  1  0
M  END
> <Uni-Dock RESULT> 
ENERGY=   -3.946  LOWER_BOUND=    2.929  UPPER_BOUND=    9.876
INTER + INTRA:          -3.946
INTER:                  -3.946
INTRA:                   0.000
UNBOUND:                 0.000

$$$$

     RDKit          3D

104110  0  0  0  0  0  0  0  0999 V2000
   36.0080   11.9550   28.5975 C   0  0  0  0  0  0  0  0  0  0  0  0
   35.8159   11.3425   29.9818 C   0  0  0  0  0  0  0  0  0  0  0  0
   34.3106   11.1106   30.1428 C   0  0  0  0  0  0  0  0  0  0  0  0
   33.6642   11.5854   28.8350 C   0  0  2  0  0  0  0  0  0  0  0  0
   34.6649   12.6205   28.3074 C   0  0  2  0  0  0  0  0  0  0  0  0
   32.3817   12.1662   29.1127 O   0  0  0  0  0  0  0  0  0  0  0  0
   31.3769   11.7651   28.2966 C   0  0  0  0  0  0  0  0  0  0  0  0
   30.1831   12.1462   28.8557 N   0  0  0  0  0  0  0  0  0  0  0  0
   31.4986   11.0904   27.2855 O   0  0  0  0  0  0  0  0  0  0  0  0
   29.0679   11.1987   28.7451 C   0  0  2  0  0  0  0  0  0  0  0  0
   28.1999   11.2826   27.4470 C   0  0  0  0  0  0  0  0  0  0  0  0
   28.2958   11.0051   30.1082 C   0  0  0  0  0  0  0  0  0  0  0  0
   29.2976   10.5444   31.2028 C   0  0  0  0  0  0  0  0  0  0  0  0
   27.6118   12.2869   30.6027 C   0  0  0  0  0  0  0  0  0  0  0  0
   27.2121    9.9082   30.0112 C   0  0  0  0  0  0  0  0  0  0  0  0
   27.5348   10.2816   27.1376 O   0  0  0  0  0  0  0  0  0  0  0  0
   28.1329   12.4035   26.6473 N   0  0  0  0  0  0  0  0  0  0  0  0
   28.2712   13.3478   24.4675 C   0  0  1  0  0  0  0  0  0  0  0  0
   27.6179   12.2298   25.2848 C   0  0  0  0  0  0  0  0  0  0  0  0
   28.6971   13.7498   26.8102 C   0  0  1  0  0  0  0  0  0  0  0  0
   28.3368   14.4748   25.4920 C   0  0  0  0  0  0  0  0  0  0  0  0
   29.6396   13.0717   24.1384 O   0  0  0  0  0  0  0  0  0  0  0  0
   29.8425   12.3731   22.9748 C   0  0  0  0  0  0  0  0  0  0  0  0
   28.8335   11.6230   22.4783 N   0  0  0  0  0  0  0  0  0  0  0  0
   29.1188   10.8567   21.4043 C   0  0  0  0  0  0  0  0  0  0  0  0
   30.4091   10.8575   20.8209 C   0  0  0  0  0  0  0  0  0  0  0  0
   31.4013   11.6241   21.3116 N   0  0  0  0  0  0  0  0  0  0  0  0
   31.1158   12.3883   22.4105 C   0  0  0  0  0  0  0  0  0  0  0  0
   30.6634   10.0388   19.7251 C   0  0  0  0  0  0  0  0  0  0  0  0
   29.6792    9.2054   19.1987 C   0  0  0  0  0  0  0  0  0  0  0  0
   28.4147    9.1954   19.7728 C   0  0  0  0  0  0  0  0  0  0  0  0
   28.1416   10.0304   20.8641 C   0  0  0  0  0  0  0  0  0  0  0  0
   32.2047   13.2471   23.0398 C   0  0  0  0  0  0  0  0  0  0  0  0
   32.7964   12.5932   24.2708 C   0  0  0  0  0  0  0  0  0  0  0  0
   34.0688   12.7368   24.6963 C   0  0  0  0  0  0  0  0  0  0  0  0
   34.5964   12.0918   25.9366 C   0  0  0  0  0  0  0  0  0  0  0  0
   34.4798   13.0603   26.9693 O   0  0  0  0  0  0  0  0  0  0  0  0
   31.7426   14.4903   23.4012 F   0  0  0  0  0  0  0  0  0  0  0  0
   33.2150   13.5109   22.1418 F   0  0  0  0  0  0  0  0  0  0  0  0
   28.0624   14.5849   27.9328 C   0  0  0  0  0  0  0  0  0  0  0  0
   28.7381   15.7615   28.2253 N   0  0  0  0  0  0  0  0  0  0  0  0
   26.9861   14.3190   28.4610 O   0  0  0  0  0  0  0  0  0  0  0  0
   28.1299   16.7828   29.0728 C   0  0  2  0  0  0  0  0  0  0  0  0
   29.0980   17.6721   29.8552 C   0  0  0  0  0  0  0  0  0  0  0  0
   28.2694   16.6585   30.5879 C   0  0  1  0  0  0  0  0  0  0  0  0
   26.8755   17.4435   28.5161 C   0  0  0  0  0  0  0  0  0  0  0  0
   25.7334   16.6404   28.5215 N   0  0  0  0  0  0  0  0  0  0  0  0
   26.9060   18.5965   28.1146 O   0  0  0  0  0  0  0  0  0  0  0  0
   24.5319   16.8214   27.3806 S   0  0  0  0  0  0  0  0  0  0  0  0
   23.7895   18.4618   27.5394 C   0  0  0  0  0  0  0  0  0  0  0  0
   23.4916   15.8836   27.7529 O   0  0  0  0  0  0  0  0  0  0  0  0
   25.1696   16.7150   26.0850 O   0  0  0  0  0  0  0  0  0  0  0  0
   23.3507   18.7861   28.9222 C   0  0  0  0  0  0  0  0  0  0  0  0
   24.3018   19.5213   26.6068 C   0  0  0  0  0  0  0  0  0  0  0  0
   22.9617   18.8725   26.3412 C   0  0  0  0  0  0  0  0  0  0  0  0
   27.1958   17.1011   31.5173 C   0  0  0  0  0  0  0  0  0  0  0  0
   27.7363   17.2781   32.7503 F   0  0  0  0  0  0  0  0  0  0  0  0
   26.2927   16.0981   31.6321 F   0  0  0  0  0  0  0  0  0  0  0  0
   36.8399   12.6661   28.5639 H   0  0  0  0  0  0  0  0  0  0  0  0
   36.2366   11.1677   27.8704 H   0  0  0  0  0  0  0  0  0  0  0  0
   36.1676   12.0365   30.7501 H   0  0  0  0  0  0  0  0  0  0  0  0
   36.3939   10.4185   30.0979 H   0  0  0  0  0  0  0  0  0  0  0  0
   33.9370   11.6633   31.0146 H   0  0  0  0  0  0  0  0  0  0  0  0
   34.0920   10.0474   30.3190 H   0  0  0  0  0  0  0  0  0  0  0  0
   33.5903   10.7199   28.1705 H   0  0  0  0  0  0  0  0  0  0  0  0
   34.5815   13.5268   28.9186 H   0  0  0  0  0  0  0  0  0  0  0  0
   30.3248   12.5809   29.7566 H   0  0  0  0  0  0  0  0  0  0  0  0
   29.5638   10.2243   28.5973 H   0  0  0  0  0  0  0  0  0  0  0  0
   30.0718   11.2923   31.4157 H   0  0  0  0  0  0  0  0  0  0  0  0
   28.7832   10.3300   32.1568 H   0  0  0  0  0  0  0  0  0  0  0  0
   29.8153    9.6231   30.8885 H   0  0  0  0  0  0  0  0  0  0  0  0
   26.7558   12.5336   29.9677 H   0  0  0  0  0  0  0  0  0  0  0  0
   28.2971   13.1395   30.6136 H   0  0  0  0  0  0  0  0  0  0  0  0
   27.2293   12.1720   31.6259 H   0  0  0  0  0  0  0  0  0  0  0  0
   26.7647    9.7163   30.9954 H   0  0  0  0  0  0  0  0  0  0  0  0
   27.6286    8.9598   29.6532 H   0  0  0  0  0  0  0  0  0  0  0  0
   26.3901   10.2082   29.3511 H   0  0  0  0  0  0  0  0  0  0  0  0
   27.7003   13.6529   23.5813 H   0  0  0  0  0  0  0  0  0  0  0  0
   26.5285   12.3681   25.3490 H   0  0  0  0  0  0  0  0  0  0  0  0
   27.8513   11.2272   24.9086 H   0  0  0  0  0  0  0  0  0  0  0  0
   29.7835   13.6926   26.9292 H   0  0  0  0  0  0  0  0  0  0  0  0
   27.3599   14.9709   25.5654 H   0  0  0  0  0  0  0  0  0  0  0  0
   29.0900   15.2309   25.2478 H   0  0  0  0  0  0  0  0  0  0  0  0
   31.6592   10.0445   19.2834 H   0  0  0  0  0  0  0  0  0  0  0  0
   29.8981    8.5773   18.3451 H   0  0  0  0  0  0  0  0  0  0  0  0
   27.6384    8.5470   19.3773 H   0  0  0  0  0  0  0  0  0  0  0  0
   27.1542   10.0176   21.3208 H   0  0  0  0  0  0  0  0  0  0  0  0
   32.1264   11.9545   24.8439 H   0  0  0  0  0  0  0  0  0  0  0  0
   34.7450   13.3935   24.1524 H   0  0  0  0  0  0  0  0  0  0  0  0
   35.6484   11.8443   25.7894 H   0  0  0  0  0  0  0  0  0  0  0  0
   34.0418   11.1804   26.1648 H   0  0  0  0  0  0  0  0  0  0  0  0
   29.4740   16.0629   27.5991 H   0  0  0  0  0  0  0  0  0  0  0  0
   30.1631   17.4849   29.7743 H   0  0  0  0  0  0  0  0  0  0  0  0
   28.8599   18.7208   29.9583 H   0  0  0  0  0  0  0  0  0  0  0  0
   28.7882   15.8037   30.9762 H   0  0  0  0  0  0  0  0  0  0  0  0
   25.8723   15.6392   28.7338 H   0  0  0  0  0  0  0  0  0  0  0  0
   22.8611   19.7722   28.9738 H   0  0  0  0  0  0  0  0  0  0  0  0
   22.6362   18.0440   29.3017 H   0  0  0  0  0  0  0  0  0  0  0  0
   24.2081   18.8109   29.6075 H   0  0  0  0  0  0  0  0  0  0  0  0
   25.1230   19.2841   25.9386 H   0  0  0  0  0  0  0  0  0  0  0  0
   24.3137   20.5449   26.9604 H   0  0  0  0  0  0  0  0  0  0  0  0
   22.0711   19.4613   26.5151 H   0  0  0  0  0  0  0  0  0  0  0  0
   22.8758   18.2030   25.4875 H   0  0  0  0  0  0  0  0  0  0  0  0
   26.6819   18.0155   31.2132 H   0  0  0  0  0  0  0  0  0  0  0  0
  1  2  1  0
  2  3  1  0
  4  3  1  0
  4  5  1  0
  5  1  1  0
  4  6  1  0
  6  7  1  0
  7  8  1  0
  7  9  2  0
  8 10  1  0
 10 11  1  0
 10 12  1  0
 12 13  1  0
 12 14  1  0
 12 15  1  0
 11 16  2  0
 11 17  1  0
 19 17  1  0
 17 20  1  0
 18 19  1  0
 20 21  1  0
 18 21  1  0
 18 22  1  0
 22 23  1  0
 23 24  2  0
 28 23  1  0
 24 25  1  0
 26 27  1  0
 27 28  2  0
 26 29  1  0
 25 26  2  0
 32 25  1  0
 29 30  2  0
 30 31  1  0
 31 32  2  0
 28 33  1  0
 33 34  1  0
 34 35  2  0
 35 36  1  0
 36 37  1  0
  5 37  1  0
 33 38  1  0
 33 39  1  0
 20 40  1  0
 40 41  1  0
 40 42  2  0
 43 41  1  1
 43 44  1  0
 45 43  1  0
 44 45  1  0
 43 46  1  0
 46 47  1  0
 46 48  2  0
 47 49  1  0
 49 50  1  0
 49 51  2  0
 49 52  2  0
 50 53  1  0
 50 54  1  0
 55 50  1  0
 54 55  1  0
 45 56  1  0
 56 57  1  0
 56 58  1  0
  1 59  1  0
  1 60  1  0
  2 61  1  0
  2 62  1  0
  3 63  1  0
  3 64  1  0
  4 65  1  1
  5 66  1  6
  8 67  1  0
 10 68  1  1
 13 69  1  0
 13 70  1  0
 13 71  1  0
 14 72  1  0
 14 73  1  0
 14 74  1  0
 15 75  1  0
 15 76  1  0
 15 77  1  0
 18 78  1  1
 19 79  1  0
 19 80  1  0
 20 81  1  6
 21 82  1  0
 21 83  1  0
 29 84  1  0
 30 85  1  0
 31 86  1  0
 32 87  1  0
 34 88  1  0
 35 89  1  0
 36 90  1  0
 36 91  1  0
 41 92  1  0
 44 93  1  0
 44 94  1  0
 45 95  1  1
 47 96  1  0
 53 97  1  0
 53 98  1  0
 53 99  1  0
 54100  1  0
 54101  1  0
 55102  1  0
 55103  1  0
 56104  1  0
M  END
> <Uni-Dock RESULT> 
ENERGY=   -3.851  LOWER_BOUND=    3.460  UPPER_BOUND=    7.994
INTER + INTRA:          -3.851
INTER:                  -3.851
INTRA:                   0.000
UNBOUND:                 0.000

$$$$

     RDKit          3D

104110  0  0  0  0  0  0  0  0999 V2000
   27.4119   11.0811   26.6757 C   0  0  0  0  0  0  0  0  0  0  0  0
   26.1248   11.0561   27.4948 C   0  0  0  0  0  0  0  0  0  0  0  0
   26.5049   10.5093   28.8740 C   0  0  0  0  0  0  0  0  0  0  0  0
   28.0147   10.2411   28.8245 C   0  0  2  0  0  0  0  0  0  0  0  0
   28.2786   10.0091   27.3320 C   0  0  2  0  0  0  0  0  0  0  0  0
   28.3263    9.0844   29.6146 O   0  0  0  0  0  0  0  0  0  0  0  0
   29.3887    9.2208   30.4447 C   0  0  0  0  0  0  0  0  0  0  0  0
   29.3797    8.1798   31.3386 N   0  0  0  0  0  0  0  0  0  0  0  0
   30.1681   10.1612   30.4653 O   0  0  0  0  0  0  0  0  0  0  0  0
   29.7558    8.4920   32.7223 C   0  0  2  0  0  0  0  0  0  0  0  0
   31.2810    8.4437   33.0645 C   0  0  0  0  0  0  0  0  0  0  0  0
   28.7673    7.8615   33.7792 C   0  0  0  0  0  0  0  0  0  0  0  0
   27.3222    8.3490   33.4826 C   0  0  0  0  0  0  0  0  0  0  0  0
   28.7616    6.3269   33.7611 C   0  0  0  0  0  0  0  0  0  0  0  0
   29.0970    8.3077   35.2212 C   0  0  0  0  0  0  0  0  0  0  0  0
   31.6630    9.0698   34.0655 O   0  0  0  0  0  0  0  0  0  0  0  0
   32.2057    7.7406   32.3221 N   0  0  0  0  0  0  0  0  0  0  0  0
   34.2908    7.7217   31.1758 C   0  0  1  0  0  0  0  0  0  0  0  0
   33.6194    8.0879   32.5024 C   0  0  0  0  0  0  0  0  0  0  0  0
   32.0471    6.8291   31.1814 C   0  0  1  0  0  0  0  0  0  0  0  0
   33.4968    6.4873   30.7638 C   0  0  0  0  0  0  0  0  0  0  0  0
   34.0398    8.6814   30.1399 O   0  0  0  0  0  0  0  0  0  0  0  0
   34.9248    9.7278   30.0710 C   0  0  0  0  0  0  0  0  0  0  0  0
   35.6441   10.0491   31.1695 N   0  0  0  0  0  0  0  0  0  0  0  0
   36.4063   11.1604   31.0921 C   0  0  0  0  0  0  0  0  0  0  0  0
   36.4586   11.9367   29.9089 C   0  0  0  0  0  0  0  0  0  0  0  0
   35.7534   11.5960   28.8137 N   0  0  0  0  0  0  0  0  0  0  0  0
   34.9682   10.4782   28.8984 C   0  0  0  0  0  0  0  0  0  0  0  0
   37.2445   13.0844   29.8795 C   0  0  0  0  0  0  0  0  0  0  0  0
   37.9694   13.4956   30.9956 C   0  0  0  0  0  0  0  0  0  0  0  0
   37.9146   12.7418   32.1607 C   0  0  0  0  0  0  0  0  0  0  0  0
   37.1423   11.5735   32.1954 C   0  0  0  0  0  0  0  0  0  0  0  0
   34.1137   10.0606   27.7090 C   0  0  0  0  0  0  0  0  0  0  0  0
   32.6680   10.4772   27.8804 C   0  0  0  0  0  0  0  0  0  0  0  0
   31.8247   10.8022   26.8785 C   0  0  0  0  0  0  0  0  0  0  0  0
   30.3958   11.1791   27.0992 C   0  0  0  0  0  0  0  0  0  0  0  0
   29.6386    9.9903   26.9216 O   0  0  0  0  0  0  0  0  0  0  0  0
   34.1413    8.7021   27.5003 F   0  0  0  0  0  0  0  0  0  0  0  0
   34.5979   10.5920   26.5343 F   0  0  0  0  0  0  0  0  0  0  0  0
   31.3811    5.4855   31.5156 C   0  0  0  0  0  0  0  0  0  0  0  0
   31.0369    4.7239   30.4074 N   0  0  0  0  0  0  0  0  0  0  0  0
   31.2598    5.0446   32.6554 O   0  0  0  0  0  0  0  0  0  0  0  0
   30.6409    3.3264   30.5536 C   0  0  2  0  0  0  0  0  0  0  0  0
   29.6959    2.7792   29.4822 C   0  0  0  0  0  0  0  0  0  0  0  0
   29.1830    3.0058   30.8738 C   0  0  1  0  0  0  0  0  0  0  0  0
   31.7177    2.3847   31.0764 C   0  0  0  0  0  0  0  0  0  0  0  0
   32.0193    2.5276   32.4321 N   0  0  0  0  0  0  0  0  0  0  0  0
   32.2462    1.5715   30.3343 O   0  0  0  0  0  0  0  0  0  0  0  0
   33.5396    2.1959   33.0294 S   0  0  0  0  0  0  0  0  0  0  0  0
   33.9166    0.4452   32.7844 C   0  0  0  0  0  0  0  0  0  0  0  0
   33.4471    2.3790   34.4640 O   0  0  0  0  0  0  0  0  0  0  0  0
   34.4716    2.9922   32.2588 O   0  0  0  0  0  0  0  0  0  0  0  0
   32.8630   -0.4690   33.2981 C   0  0  0  0  0  0  0  0  0  0  0  0
   34.7375    0.1003   31.5752 C   0  0  0  0  0  0  0  0  0  0  0  0
   35.3842    0.1120   32.9424 C   0  0  0  0  0  0  0  0  0  0  0  0
   28.7992    1.8495   31.7270 C   0  0  0  0  0  0  0  0  0  0  0  0
   27.4950    1.5529   31.4931 F   0  0  0  0  0  0  0  0  0  0  0  0
   28.8816    2.2322   33.0237 F   0  0  0  0  0  0  0  0  0  0  0  0
   27.2383   10.8819   25.6131 H   0  0  0  0  0  0  0  0  0  0  0  0
   27.8746   12.0725   26.7392 H   0  0  0  0  0  0  0  0  0  0  0  0
   25.3938   10.3939   27.0229 H   0  0  0  0  0  0  0  0  0  0  0  0
   25.6645   12.0491   27.5534 H   0  0  0  0  0  0  0  0  0  0  0  0
   25.9290    9.5998   29.0888 H   0  0  0  0  0  0  0  0  0  0  0  0
   26.2664   11.2347   29.6653 H   0  0  0  0  0  0  0  0  0  0  0  0
   28.5212   11.1390   29.1895 H   0  0  0  0  0  0  0  0  0  0  0  0
   27.8857    9.0227   27.0592 H   0  0  0  0  0  0  0  0  0  0  0  0
   28.5669    7.5940   31.2078 H   0  0  0  0  0  0  0  0  0  0  0  0
   29.5603    9.5742   32.8105 H   0  0  0  0  0  0  0  0  0  0  0  0
   26.9499    8.0136   32.5063 H   0  0  0  0  0  0  0  0  0  0  0  0
   26.6088    7.9850   34.2439 H   0  0  0  0  0  0  0  0  0  0  0  0
   27.2789    9.4506   33.4845 H   0  0  0  0  0  0  0  0  0  0  0  0
   29.6995    5.9357   34.1661 H   0  0  0  0  0  0  0  0  0  0  0  0
   28.6231    5.9291   32.7515 H   0  0  0  0  0  0  0  0  0  0  0  0
   27.9506    5.9184   34.3789 H   0  0  0  0  0  0  0  0  0  0  0  0
   28.3343    7.9460   35.9234 H   0  0  0  0  0  0  0  0  0  0  0  0
   29.1273    9.3998   35.3088 H   0  0  0  0  0  0  0  0  0  0  0  0
   30.0531    7.8959   35.5640 H   0  0  0  0  0  0  0  0  0  0  0  0
   35.3609    7.4931   31.2585 H   0  0  0  0  0  0  0  0  0  0  0  0
   33.9882    7.4550   33.3232 H   0  0  0  0  0  0  0  0  0  0  0  0
   33.7268    9.1470   32.7627 H   0  0  0  0  0  0  0  0  0  0  0  0
   31.5238    7.3344   30.3637 H   0  0  0  0  0  0  0  0  0  0  0  0
   33.8686    5.6061   31.3033 H   0  0  0  0  0  0  0  0  0  0  0  0
   33.5521    6.2826   29.6897 H   0  0  0  0  0  0  0  0  0  0  0  0
   37.2778   13.6764   28.9656 H   0  0  0  0  0  0  0  0  0  0  0  0
   38.5753   14.3911   30.9507 H   0  0  0  0  0  0  0  0  0  0  0  0
   38.4697   13.0524   33.0409 H   0  0  0  0  0  0  0  0  0  0  0  0
   37.0910   10.9862   33.1099 H   0  0  0  0  0  0  0  0  0  0  0  0
   32.2981   10.5167   28.9035 H   0  0  0  0  0  0  0  0  0  0  0  0
   32.1682   10.7412   25.8476 H   0  0  0  0  0  0  0  0  0  0  0  0
   30.1006   11.9121   26.3473 H   0  0  0  0  0  0  0  0  0  0  0  0
   30.2577   11.6084   28.0926 H   0  0  0  0  0  0  0  0  0  0  0  0
   31.3804    5.0114   29.4998 H   0  0  0  0  0  0  0  0  0  0  0  0
   29.3441    3.4468   28.7034 H   0  0  0  0  0  0  0  0  0  0  0  0
   29.8471    1.7674   29.1350 H   0  0  0  0  0  0  0  0  0  0  0  0
   28.5060    3.8269   31.0087 H   0  0  0  0  0  0  0  0  0  0  0  0
   31.6234    3.3533   32.9102 H   0  0  0  0  0  0  0  0  0  0  0  0
   33.1461   -1.5271   33.1753 H   0  0  0  0  0  0  0  0  0  0  0  0
   32.6716   -0.3018   34.3661 H   0  0  0  0  0  0  0  0  0  0  0  0
   31.9192   -0.3185   32.7580 H   0  0  0  0  0  0  0  0  0  0  0  0
   35.0071    0.8870   30.8784 H   0  0  0  0  0  0  0  0  0  0  0  0
   34.5623   -0.8570   31.1001 H   0  0  0  0  0  0  0  0  0  0  0  0
   35.6457   -0.8390   33.3866 H   0  0  0  0  0  0  0  0  0  0  0  0
   36.0978    0.9027   33.1658 H   0  0  0  0  0  0  0  0  0  0  0  0
   29.4063    0.9543   31.5764 H   0  0  0  0  0  0  0  0  0  0  0  0
  1  2  1  0
  2  3  1  0
  4  3  1  0
  4  5  1  0
  5  1  1  0
  4  6  1  0
  6  7  1  0
  7  8  1  0
  7  9  2  0
  8 10  1  0
 10 11  1  0
 10 12  1  0
 12 13  1  0
 12 14  1  0
 12 15  1  0
 11 16  2  0
 11 17  1  0
 19 17  1  0
 17 20  1  0
 18 19  1  0
 20 21  1  0
 18 21  1  0
 18 22  1  0
 22 23  1  0
 23 24  2  0
 28 23  1  0
 24 25  1  0
 26 27  1  0
 27 28  2  0
 26 29  1  0
 25 26  2  0
 32 25  1  0
 29 30  2  0
 30 31  1  0
 31 32  2  0
 28 33  1  0
 33 34  1  0
 34 35  2  0
 35 36  1  0
 36 37  1  0
  5 37  1  0
 33 38  1  0
 33 39  1  0
 20 40  1  0
 40 41  1  0
 40 42  2  0
 43 41  1  1
 43 44  1  0
 45 43  1  0
 44 45  1  0
 43 46  1  0
 46 47  1  0
 46 48  2  0
 47 49  1  0
 49 50  1  0
 49 51  2  0
 49 52  2  0
 50 53  1  0
 50 54  1  0
 55 50  1  0
 54 55  1  0
 45 56  1  0
 56 57  1  0
 56 58  1  0
  1 59  1  0
  1 60  1  0
  2 61  1  0
  2 62  1  0
  3 63  1  0
  3 64  1  0
  4 65  1  1
  5 66  1  6
  8 67  1  0
 10 68  1  1
 13 69  1  0
 13 70  1  0
 13 71  1  0
 14 72  1  0
 14 73  1  0
 14 74  1  0
 15 75  1  0
 15 76  1  0
 15 77  1  0
 18 78  1  1
 19 79  1  0
 19 80  1  0
 20 81  1  6
 21 82  1  0
 21 83  1  0
 29 84  1  0
 30 85  1  0
 31 86  1  0
 32 87  1  0
 34 88  1  0
 35 89  1  0
 36 90  1  0
 36 91  1  0
 41 92  1  0
 44 93  1  0
 44 94  1  0
 45 95  1  1
 47 96  1  0
 53 97  1  0
 53 98  1  0
 53 99  1  0
 54100  1  0
 54101  1  0
 55102  1  0
 55103  1  0
 56104  1  0
M  END
> <Uni-Dock RESULT> 
ENERGY=   -3.787  LOWER_BOUND=    6.281  UPPER_BOUND=    9.903
INTER + INTRA:          -3.787
INTER:                  -3.787
INTRA:                   0.000
UNBOUND:                 0.000

$$$$

     RDKit          3D

104110  0  0  0  0  0  0  0  0999 V2000
   36.0052    2.2714   31.2734 C   0  0  0  0  0  0  0  0  0  0  0  0
   37.0582    2.9923   32.1100 C   0  0  0  0  0  0  0  0  0  0  0  0
   36.4316    4.3243   32.5329 C   0  0  0  0  0  0  0  0  0  0  0  0
   35.0174    4.3375   31.9383 C   0  0  2  0  0  0  0  0  0  0  0  0
   35.1397    3.4046   30.7276 C   0  0  2  0  0  0  0  0  0  0  0  0
   34.6662    5.6754   31.5564 O   0  0  0  0  0  0  0  0  0  0  0  0
   33.4302    6.0796   31.9379 C   0  0  0  0  0  0  0  0  0  0  0  0
   33.3506    7.4410   31.7853 N   0  0  0  0  0  0  0  0  0  0  0  0
   32.5637    5.3733   32.4302 O   0  0  0  0  0  0  0  0  0  0  0  0
   32.6267    8.1824   32.8246 C   0  0  2  0  0  0  0  0  0  0  0  0
   31.0801    8.3228   32.6402 C   0  0  0  0  0  0  0  0  0  0  0  0
   33.4064    9.4653   33.3123 C   0  0  0  0  0  0  0  0  0  0  0  0
   34.8138    9.0466   33.8200 C   0  0  0  0  0  0  0  0  0  0  0  0
   33.5949   10.5143   32.2080 C   0  0  0  0  0  0  0  0  0  0  0  0
   32.6981   10.1601   34.4967 C   0  0  0  0  0  0  0  0  0  0  0  0
   30.4038    8.5724   33.6503 O   0  0  0  0  0  0  0  0  0  0  0  0
   30.4437    8.1934   31.4242 N   0  0  0  0  0  0  0  0  0  0  0  0
   28.7024    7.1961   30.1453 C   0  0  1  0  0  0  0  0  0  0  0  0
   28.9966    7.9543   31.4428 C   0  0  0  0  0  0  0  0  0  0  0  0
   30.9705    8.0208   30.0640 C   0  0  1  0  0  0  0  0  0  0  0  0
   29.7092    7.8266   29.1898 C   0  0  0  0  0  0  0  0  0  0  0  0
   29.0758    5.8129   30.2105 O   0  0  0  0  0  0  0  0  0  0  0  0
   28.1158    4.9595   30.6936 C   0  0  0  0  0  0  0  0  0  0  0  0
   27.1266    5.4593   31.4676 N   0  0  0  0  0  0  0  0  0  0  0  0
   26.2797    4.5661   32.0216 C   0  0  0  0  0  0  0  0  0  0  0  0
   26.4162    3.1767   31.7847 C   0  0  0  0  0  0  0  0  0  0  0  0
   27.3933    2.6915   30.9956 N   0  0  0  0  0  0  0  0  0  0  0  0
   28.2616    3.5964   30.4475 C   0  0  0  0  0  0  0  0  0  0  0  0
   25.5310    2.2906   32.3904 C   0  0  0  0  0  0  0  0  0  0  0  0
   24.5216    2.7402   33.2386 C   0  0  0  0  0  0  0  0  0  0  0  0
   24.3891    4.1014   33.4802 C   0  0  0  0  0  0  0  0  0  0  0  0
   25.2625    5.0043   32.8600 C   0  0  0  0  0  0  0  0  0  0  0  0
   29.4138    3.1104   29.5783 C   0  0  0  0  0  0  0  0  0  0  0  0
   30.7204    3.0761   30.3431 C   0  0  0  0  0  0  0  0  0  0  0  0
   31.7313    2.2098   30.1237 C   0  0  0  0  0  0  0  0  0  0  0  0
   33.0147    2.2368   30.8884 C   0  0  0  0  0  0  0  0  0  0  0  0
   33.9256    3.0004   30.1104 O   0  0  0  0  0  0  0  0  0  0  0  0
   29.5944    3.8980   28.4662 F   0  0  0  0  0  0  0  0  0  0  0  0
   29.1600    1.8573   29.0664 F   0  0  0  0  0  0  0  0  0  0  0  0
   31.6914    9.2500   29.4895 C   0  0  0  0  0  0  0  0  0  0  0  0
   32.3723    9.0139   28.3032 N   0  0  0  0  0  0  0  0  0  0  0  0
   31.5926   10.3826   29.9539 O   0  0  0  0  0  0  0  0  0  0  0  0
   32.8830   10.1211   27.5005 C   0  0  2  0  0  0  0  0  0  0  0  0
   34.1100    9.8175   26.6387 C   0  0  0  0  0  0  0  0  0  0  0  0
   34.2522   10.7043   27.8405 C   0  0  1  0  0  0  0  0  0  0  0  0
   31.8309   11.0494   26.9082 C   0  0  0  0  0  0  0  0  0  0  0  0
   31.2052   11.8947   27.8265 N   0  0  0  0  0  0  0  0  0  0  0  0
   31.5896   11.0323   25.7111 O   0  0  0  0  0  0  0  0  0  0  0  0
   29.6365   12.4143   27.6089 S   0  0  0  0  0  0  0  0  0  0  0  0
   29.5341   13.4155   26.1075 C   0  0  0  0  0  0  0  0  0  0  0  0
   29.3680   13.3240   28.7047 O   0  0  0  0  0  0  0  0  0  0  0  0
   28.8250   11.2269   27.4413 O   0  0  0  0  0  0  0  0  0  0  0  0
   30.5370   14.5113   26.0523 C   0  0  0  0  0  0  0  0  0  0  0  0
   29.0656   12.7133   24.8657 C   0  0  0  0  0  0  0  0  0  0  0  0
   28.1195   13.6261   25.6133 C   0  0  0  0  0  0  0  0  0  0  0  0
   34.5573   12.1502   27.6711 C   0  0  0  0  0  0  0  0  0  0  0  0
   35.9054   12.3060   27.6264 F   0  0  0  0  0  0  0  0  0  0  0  0
   34.1292   12.8072   28.7755 F   0  0  0  0  0  0  0  0  0  0  0  0
   36.4452    1.6636   30.4760 H   0  0  0  0  0  0  0  0  0  0  0  0
   35.4283    1.5894   31.9081 H   0  0  0  0  0  0  0  0  0  0  0  0
   37.9515    3.1784   31.5075 H   0  0  0  0  0  0  0  0  0  0  0  0
   37.3730    2.3892   32.9693 H   0  0  0  0  0  0  0  0  0  0  0  0
   37.0431    5.1594   32.1673 H   0  0  0  0  0  0  0  0  0  0  0  0
   36.3917    4.4111   33.6284 H   0  0  0  0  0  0  0  0  0  0  0  0
   34.3383    3.9321   32.6936 H   0  0  0  0  0  0  0  0  0  0  0  0
   35.6978    3.9270   29.9418 H   0  0  0  0  0  0  0  0  0  0  0  0
   34.2340    7.8260   31.4816 H   0  0  0  0  0  0  0  0  0  0  0  0
   32.6687    7.5148   33.7019 H   0  0  0  0  0  0  0  0  0  0  0  0
   35.4411    8.6127   33.0310 H   0  0  0  0  0  0  0  0  0  0  0  0
   35.3662    9.9084   34.2359 H   0  0  0  0  0  0  0  0  0  0  0  0
   34.7268    8.2899   34.6171 H   0  0  0  0  0  0  0  0  0  0  0  0
   32.6403   10.9901   31.9648 H   0  0  0  0  0  0  0  0  0  0  0  0
   34.0117   10.0786   31.2952 H   0  0  0  0  0  0  0  0  0  0  0  0
   34.2803   11.3130   32.5220 H   0  0  0  0  0  0  0  0  0  0  0  0
   33.3116   10.9825   34.8876 H   0  0  0  0  0  0  0  0  0  0  0  0
   32.5209    9.4647   35.3252 H   0  0  0  0  0  0  0  0  0  0  0  0
   31.7428   10.6039   34.1935 H   0  0  0  0  0  0  0  0  0  0  0  0
   27.6768    7.3166   29.7737 H   0  0  0  0  0  0  0  0  0  0  0  0
   28.5219    8.9467   31.4403 H   0  0  0  0  0  0  0  0  0  0  0  0
   28.7085    7.3985   32.3424 H   0  0  0  0  0  0  0  0  0  0  0  0
   31.6084    7.1329   30.0155 H   0  0  0  0  0  0  0  0  0  0  0  0
   29.3265    8.7890   28.8249 H   0  0  0  0  0  0  0  0  0  0  0  0
   29.9315    7.1936   28.3247 H   0  0  0  0  0  0  0  0  0  0  0  0
   25.6441    1.2233   32.2038 H   0  0  0  0  0  0  0  0  0  0  0  0
   23.8431    2.0338   33.6986 H   0  0  0  0  0  0  0  0  0  0  0  0
   23.6109    4.4670   34.1435 H   0  0  0  0  0  0  0  0  0  0  0  0
   25.1660    6.0704   33.0548 H   0  0  0  0  0  0  0  0  0  0  0  0
   30.8328    3.8154   31.1342 H   0  0  0  0  0  0  0  0  0  0  0  0
   31.6486    1.4823   29.3186 H   0  0  0  0  0  0  0  0  0  0  0  0
   33.3905    1.2178   30.9894 H   0  0  0  0  0  0  0  0  0  0  0  0
   32.8650    2.6641   31.8809 H   0  0  0  0  0  0  0  0  0  0  0  0
   32.2201    8.1335   27.8275 H   0  0  0  0  0  0  0  0  0  0  0  0
   34.5544    8.8296   26.6893 H   0  0  0  0  0  0  0  0  0  0  0  0
   34.1634   10.2548   25.6522 H   0  0  0  0  0  0  0  0  0  0  0  0
   34.7784   10.2945   28.6806 H   0  0  0  0  0  0  0  0  0  0  0  0
   31.3790   11.7020   28.8264 H   0  0  0  0  0  0  0  0  0  0  0  0
   30.4159   15.1295   25.1479 H   0  0  0  0  0  0  0  0  0  0  0  0
   30.4518   15.1782   26.9201 H   0  0  0  0  0  0  0  0  0  0  0  0
   31.5570   14.1058   26.0366 H   0  0  0  0  0  0  0  0  0  0  0  0
   28.8772   11.6454   24.9024 H   0  0  0  0  0  0  0  0  0  0  0  0
   29.4576   13.0509   23.9142 H   0  0  0  0  0  0  0  0  0  0  0  0
   27.8738   14.5785   25.1630 H   0  0  0  0  0  0  0  0  0  0  0  0
   27.2863   13.1747   26.1483 H   0  0  0  0  0  0  0  0  0  0  0  0
   34.1110   12.6065   26.7849 H   0  0  0  0  0  0  0  0  0  0  0  0
  1  2  1  0
  2  3  1  0
  4  3  1  0
  4  5  1  0
  5  1  1  0
  4  6  1  0
  6  7  1  0
  7  8  1  0
  7  9  2  0
  8 10  1  0
 10 11  1  0
 10 12  1  0
 12 13  1  0
 12 14  1  0
 12 15  1  0
 11 16  2  0
 11 17  1  0
 19 17  1  0
 17 20  1  0
 18 19  1  0
 20 21  1  0
 18 21  1  0
 18 22  1  0
 22 23  1  0
 23 24  2  0
 28 23  1  0
 24 25  1  0
 26 27  1  0
 27 28  2  0
 26 29  1  0
 25 26  2  0
 32 25  1  0
 29 30  2  0
 30 31  1  0
 31 32  2  0
 28 33  1  0
 33 34  1  0
 34 35  2  0
 35 36  1  0
 36 37  1  0
  5 37  1  0
 33 38  1  0
 33 39  1  0
 20 40  1  0
 40 41  1  0
 40 42  2  0
 43 41  1  1
 43 44  1  0
 45 43  1  0
 44 45  1  0
 43 46  1  0
 46 47  1  0
 46 48  2  0
 47 49  1  0
 49 50  1  0
 49 51  2  0
 49 52  2  0
 50 53  1  0
 50 54  1  0
 55 50  1  0
 54 55  1  0
 45 56  1  0
 56 57  1  0
 56 58  1  0
  1 59  1  0
  1 60  1  0
  2 61  1  0
  2 62  1  0
  3 63  1  0
  3 64  1  0
  4 65  1  1
  5 66  1  6
  8 67  1  0
 10 68  1  1
 13 69  1  0
 13 70  1  0
 13 71  1  0
 14 72  1  0
 14 73  1  0
 14 74  1  0
 15 75  1  0
 15 76  1  0
 15 77  1  0
 18 78  1  1
 19 79  1  0
 19 80  1  0
 20 81  1  6
 21 82  1  0
 21 83  1  0
 29 84  1  0
 30 85  1  0
 31 86  1  0
 32 87  1  0
 34 88  1  0
 35 89  1  0
 36 90  1  0
 36 91  1  0
 41 92  1  0
 44 93  1  0
 44 94  1  0
 45 95  1  1
 47 96  1  0
 53 97  1  0
 53 98  1  0
 53 99  1  0
 54100  1  0
 54101  1  0
 55102  1  0
 55103  1  0
 56104  1  0
M  END
> <Uni-Dock RESULT> 
ENERGY=   -3.782  LOWER_BOUND=    5.684  UPPER_BOUND=   12.743
INTER + INTRA:          -3.782
INTER:                  -3.782
INTRA:                   0.000
UNBOUND:                 0.000

$$$$

     RDKit          3D

104110  0  0  0  0  0  0  0  0999 V2000
   27.6604   11.9714   26.0593 C   0  0  0  0  0  0  0  0  0  0  0  0
   26.3387   12.1078   26.8095 C   0  0  0  0  0  0  0  0  0  0  0  0
   26.5891   11.5684   28.2209 C   0  0  0  0  0  0  0  0  0  0  0  0
   28.0623   11.1418   28.2586 C   0  0  2  0  0  0  0  0  0  0  0  0
   28.3742   10.8358   26.7888 C   0  0  2  0  0  0  0  0  0  0  0  0
   28.2092    9.9846   29.0944 O   0  0  0  0  0  0  0  0  0  0  0  0
   29.2373   10.0352   29.9758 C   0  0  0  0  0  0  0  0  0  0  0  0
   29.0729    9.0299   30.8952 N   0  0  0  0  0  0  0  0  0  0  0  0
   30.1104   10.8888   30.0127 O   0  0  0  0  0  0  0  0  0  0  0  0
   29.4107    9.3450   32.2882 C   0  0  2  0  0  0  0  0  0  0  0  0
   30.9031    9.1478   32.7118 C   0  0  0  0  0  0  0  0  0  0  0  0
   28.3092    8.8559   33.3075 C   0  0  0  0  0  0  0  0  0  0  0  0
   26.9408    9.4826   32.9220 C   0  0  0  0  0  0  0  0  0  0  0  0
   28.1411    7.3305   33.3298 C   0  0  0  0  0  0  0  0  0  0  0  0
   28.6121    9.3108   34.7526 C   0  0  0  0  0  0  0  0  0  0  0  0
   31.2992    9.7620   33.7147 O   0  0  0  0  0  0  0  0  0  0  0  0
   31.7835    8.3282   32.0384 N   0  0  0  0  0  0  0  0  0  0  0  0
   33.9094    8.0539   31.0050 C   0  0  1  0  0  0  0  0  0  0  0  0
   33.2154    8.5307   32.2840 C   0  0  0  0  0  0  0  0  0  0  0  0
   31.5858    7.4024   30.9154 C   0  0  1  0  0  0  0  0  0  0  0  0
   33.0099    6.8971   30.5843 C   0  0  0  0  0  0  0  0  0  0  0  0
   33.8139    9.0010   29.9323 O   0  0  0  0  0  0  0  0  0  0  0  0
   34.8077    9.9460   29.8826 C   0  0  0  0  0  0  0  0  0  0  0  0
   35.5014   10.2249   31.0088 N   0  0  0  0  0  0  0  0  0  0  0  0
   36.3805   11.2471   30.9425 C   0  0  0  0  0  0  0  0  0  0  0  0
   36.5741   11.9753   29.7436 C   0  0  0  0  0  0  0  0  0  0  0  0
   35.8922   11.6757   28.6219 N   0  0  0  0  0  0  0  0  0  0  0  0
   34.9891   10.6499   28.6945 C   0  0  0  0  0  0  0  0  0  0  0  0
   37.4782   13.0327   29.7254 C   0  0  0  0  0  0  0  0  0  0  0  0
   38.1863   13.4010   30.8670 C   0  0  0  0  0  0  0  0  0  0  0  0
   37.9935   12.6947   32.0472 C   0  0  0  0  0  0  0  0  0  0  0  0
   37.1003   11.6156   32.0719 C   0  0  0  0  0  0  0  0  0  0  0  0
   34.1555   10.2865   27.4729 C   0  0  0  0  0  0  0  0  0  0  0  0
   32.7556   10.8578   27.5564 C   0  0  0  0  0  0  0  0  0  0  0  0
   32.0027   11.2373   26.5030 C   0  0  0  0  0  0  0  0  0  0  0  0
   30.6128   11.7690   26.6376 C   0  0  0  0  0  0  0  0  0  0  0  0
   29.7432   10.6612   26.4517 O   0  0  0  0  0  0  0  0  0  0  0  0
   34.0486    8.9266   27.3021 F   0  0  0  0  0  0  0  0  0  0  0  0
   34.7515   10.7262   26.3119 F   0  0  0  0  0  0  0  0  0  0  0  0
   30.7648    6.1474   31.2493 C   0  0  0  0  0  0  0  0  0  0  0  0
   30.3971    5.3912   30.1450 N   0  0  0  0  0  0  0  0  0  0  0  0
   30.5405    5.7584   32.3923 O   0  0  0  0  0  0  0  0  0  0  0  0
   29.8477    4.0484   30.3070 C   0  0  2  0  0  0  0  0  0  0  0  0
   28.9044    3.5695   29.2019 C   0  0  0  0  0  0  0  0  0  0  0  0
   28.3499    3.8930   30.5579 C   0  0  1  0  0  0  0  0  0  0  0  0
   30.7907    3.0161   30.9109 C   0  0  0  0  0  0  0  0  0  0  0  0
   31.0378    3.1698   32.2764 N   0  0  0  0  0  0  0  0  0  0  0  0
   31.2660    2.1285   30.2196 O   0  0  0  0  0  0  0  0  0  0  0  0
   32.4825    2.6995   32.9619 S   0  0  0  0  0  0  0  0  0  0  0  0
   32.6827    0.9120   32.7837 C   0  0  0  0  0  0  0  0  0  0  0  0
   32.3386    2.9371   34.3843 O   0  0  0  0  0  0  0  0  0  0  0  0
   33.5312    3.3685   32.2210 O   0  0  0  0  0  0  0  0  0  0  0  0
   31.5134    0.1303   33.2649 C   0  0  0  0  0  0  0  0  0  0  0  0
   33.5214    0.4444   31.6293 C   0  0  0  0  0  0  0  0  0  0  0  0
   34.0967    0.4318   33.0280 C   0  0  0  0  0  0  0  0  0  0  0  0
   27.8031    2.8112   31.4199 C   0  0  0  0  0  0  0  0  0  0  0  0
   26.4879    2.6459   31.1252 F   0  0  0  0  0  0  0  0  0  0  0  0
   27.8609    3.2244   32.7085 F   0  0  0  0  0  0  0  0  0  0  0  0
   27.5197   11.7577   24.9947 H   0  0  0  0  0  0  0  0  0  0  0  0
   28.2222   12.9102   26.1210 H   0  0  0  0  0  0  0  0  0  0  0  0
   25.5658   11.5112   26.3172 H   0  0  0  0  0  0  0  0  0  0  0  0
   25.9844   13.1450   26.8173 H   0  0  0  0  0  0  0  0  0  0  0  0
   25.9096   10.7318   28.4289 H   0  0  0  0  0  0  0  0  0  0  0  0
   26.3900   12.3398   28.9790 H   0  0  0  0  0  0  0  0  0  0  0  0
   28.6427   11.9927   28.6260 H   0  0  0  0  0  0  0  0  0  0  0  0
   27.8926    9.8879   26.5218 H   0  0  0  0  0  0  0  0  0  0  0  0
   28.2099    8.5289   30.7371 H   0  0  0  0  0  0  0  0  0  0  0  0
   29.3273   10.4440   32.3372 H   0  0  0  0  0  0  0  0  0  0  0  0
   26.5841    9.1572   31.9365 H   0  0  0  0  0  0  0  0  0  0  0  0
   26.1556    9.2201   33.6537 H   0  0  0  0  0  0  0  0  0  0  0  0
   27.0150   10.5822   32.8923 H   0  0  0  0  0  0  0  0  0  0  0  0
   29.0106    6.8562   33.7942 H   0  0  0  0  0  0  0  0  0  0  0  0
   28.0115    6.9174   32.3251 H   0  0  0  0  0  0  0  0  0  0  0  0
   27.2613    7.0294   33.9144 H   0  0  0  0  0  0  0  0  0  0  0  0
   27.7812    9.0538   35.4228 H   0  0  0  0  0  0  0  0  0  0  0  0
   28.7542   10.3959   34.8127 H   0  0  0  0  0  0  0  0  0  0  0  0
   29.5007    8.8121   35.1564 H   0  0  0  0  0  0  0  0  0  0  0  0
   34.9436    7.7169   31.1503 H   0  0  0  0  0  0  0  0  0  0  0  0
   33.4733    7.8892   33.1396 H   0  0  0  0  0  0  0  0  0  0  0  0
   33.4219    9.5805   32.5215 H   0  0  0  0  0  0  0  0  0  0  0  0
   31.1608    7.9334   30.0580 H   0  0  0  0  0  0  0  0  0  0  0  0
   33.2584    5.9995   31.1660 H   0  0  0  0  0  0  0  0  0  0  0  0
   33.0966    6.6535   29.5205 H   0  0  0  0  0  0  0  0  0  0  0  0
   37.6199   13.5884   28.7992 H   0  0  0  0  0  0  0  0  0  0  0  0
   38.8855   14.2260   30.8307 H   0  0  0  0  0  0  0  0  0  0  0  0
   38.5338   12.9732   32.9470 H   0  0  0  0  0  0  0  0  0  0  0  0
   36.9413   11.0665   32.9976 H   0  0  0  0  0  0  0  0  0  0  0  0
   32.3414   10.9685   28.5571 H   0  0  0  0  0  0  0  0  0  0  0  0
   32.3888   11.1077   25.4938 H   0  0  0  0  0  0  0  0  0  0  0  0
   30.4353   12.5045   25.8520 H   0  0  0  0  0  0  0  0  0  0  0  0
   30.4719   12.2420   27.6106 H   0  0  0  0  0  0  0  0  0  0  0  0
   30.8141    5.6120   29.2495 H   0  0  0  0  0  0  0  0  0  0  0  0
   28.6651    4.2451   28.3881 H   0  0  0  0  0  0  0  0  0  0  0  0
   28.9642    2.5368   28.8901 H   0  0  0  0  0  0  0  0  0  0  0  0
   27.7582    4.7845   30.6349 H   0  0  0  0  0  0  0  0  0  0  0  0
   30.7087    4.0472   32.7108 H   0  0  0  0  0  0  0  0  0  0  0  0
   31.6879   -0.9550   33.1853 H   0  0  0  0  0  0  0  0  0  0  0  0
   31.2878    0.3508   34.3165 H   0  0  0  0  0  0  0  0  0  0  0  0
   30.6191    0.3617   32.6718 H   0  0  0  0  0  0  0  0  0  0  0  0
   33.9077    1.1757   30.9272 H   0  0  0  0  0  0  0  0  0  0  0  0
   33.2692   -0.5040   31.1711 H   0  0  0  0  0  0  0  0  0  0  0  0
   34.2329   -0.5267   33.5105 H   0  0  0  0  0  0  0  0  0  0  0  0
   34.8784    1.1500   33.2679 H   0  0  0  0  0  0  0  0  0  0  0  0
   28.3181    1.8529   31.3254 H   0  0  0  0  0  0  0  0  0  0  0  0
  1  2  1  0
  2  3  1  0
  4  3  1  0
  4  5  1  0
  5  1  1  0
  4  6  1  0
  6  7  1  0
  7  8  1  0
  7  9  2  0
  8 10  1  0
 10 11  1  0
 10 12  1  0
 12 13  1  0
 12 14  1  0
 12 15  1  0
 11 16  2  0
 11 17  1  0
 19 17  1  0
 17 20  1  0
 18 19  1  0
 20 21  1  0
 18 21  1  0
 18 22  1  0
 22 23  1  0
 23 24  2  0
 28 23  1  0
 24 25  1  0
 26 27  1  0
 27 28  2  0
 26 29  1  0
 25 26  2  0
 32 25  1  0
 29 30  2  0
 30 31  1  0
 31 32  2  0
 28 33  1  0
 33 34  1  0
 34 35  2  0
 35 36  1  0
 36 37  1  0
  5 37  1  0
 33 38  1  0
 33 39  1  0
 20 40  1  0
 40 41  1  0
 40 42  2  0
 43 41  1  1
 43 44  1  0
 45 43  1  0
 44 45  1  0
 43 46  1  0
 46 47  1  0
 46 48  2  0
 47 49  1  0
 49 50  1  0
 49 51  2  0
 49 52  2  0
 50 53  1  0
 50 54  1  0
 55 50  1  0
 54 55  1  0
 45 56  1  0
 56 57  1  0
 56 58  1  0
  1 59  1  0
  1 60  1  0
  2 61  1  0
  2 62  1  0
  3 63  1  0
  3 64  1  0
  4 65  1  1
  5 66  1  6
  8 67  1  0
 10 68  1  1
 13 69  1  0
 13 70  1  0
 13 71  1  0
 14 72  1  0
 14 73  1  0
 14 74  1  0
 15 75  1  0
 15 76  1  0
 15 77  1  0
 18 78  1  1
 19 79  1  0
 19 80  1  0
 20 81  1  6
 21 82  1  0
 21 83  1  0
 29 84  1  0
 30 85  1  0
 31 86  1  0
 32 87  1  0
 34 88  1  0
 35 89  1  0
 36 90  1  0
 36 91  1  0
 41 92  1  0
 44 93  1  0
 44 94  1  0
 45 95  1  1
 47 96  1  0
 53 97  1  0
 53 98  1  0
 53 99  1  0
 54100  1  0
 54101  1  0
 55102  1  0
 55103  1  0
 56104  1  0
M  END
> <Uni-Dock RESULT> 
ENERGY=   -3.770  LOWER_BOUND=    5.778  UPPER_BOUND=    9.193
INTER + INTRA:          -3.770
INTER:                  -3.770
INTRA:                   0.000
UNBOUND:                 0.000

$$$$
