
     RDKit          3D

104110  0  0  0  0  0  0  0  0999 V2000
   27.2767    6.0121   33.1761 C   0  0  0  0  0  0  0  0  0  0  0  0
   26.0224    6.3532   33.9796 C   0  0  0  0  0  0  0  0  0  0  0  0
   24.9064    6.5774   32.9571 C   0  0  0  0  0  0  0  0  0  0  0  0
   25.5606    6.3838   31.5888 C   0  0  2  0  0  0  0  0  0  0  0  0
   27.0526    6.6819   31.8222 C   0  0  2  0  0  0  0  0  0  0  0  0
   24.9171    7.0975   30.5229 O   0  0  0  0  0  0  0  0  0  0  0  0
   24.9680    8.4460   30.4942 C   0  0  0  0  0  0  0  0  0  0  0  0
   24.3215    8.8712   29.3838 N   0  0  0  0  0  0  0  0  0  0  0  0
   25.5332    9.1425   31.3190 O   0  0  0  0  0  0  0  0  0  0  0  0
   24.2830   10.2311   28.8377 C   0  0  2  0  0  0  0  0  0  0  0  0
   25.5925   10.5125   28.0358 C   0  0  0  0  0  0  0  0  0  0  0  0
   23.5975   11.3420   29.7093 C   0  0  0  0  0  0  0  0  0  0  0  0
   22.1770   10.8626   30.1005 C   0  0  0  0  0  0  0  0  0  0  0  0
   23.4124   12.6244   28.8719 C   0  0  0  0  0  0  0  0  0  0  0  0
   24.3197   11.7339   31.0064 C   0  0  0  0  0  0  0  0  0  0  0  0
   25.8469    9.9089   26.9911 O   0  0  0  0  0  0  0  0  0  0  0  0
   26.5302   11.3722   28.6119 N   0  0  0  0  0  0  0  0  0  0  0  0
   28.7048   10.3812   28.2896 C   0  0  1  0  0  0  0  0  0  0  0  0
   27.5713   10.6299   29.3107 C   0  0  0  0  0  0  0  0  0  0  0  0
   27.2657   12.2440   27.6934 C   0  0  1  0  0  0  0  0  0  0  0  0
   28.4750   11.4464   27.2080 C   0  0  0  0  0  0  0  0  0  0  0  0
   29.9440   10.4363   29.0009 O   0  0  0  0  0  0  0  0  0  0  0  0
   31.0521   10.4742   28.2089 C   0  0  0  0  0  0  0  0  0  0  0  0
   31.5507   11.7257   28.0562 N   0  0  0  0  0  0  0  0  0  0  0  0
   32.6970   11.8521   27.3632 C   0  0  0  0  0  0  0  0  0  0  0  0
   33.3579   10.7249   26.8326 C   0  0  0  0  0  0  0  0  0  0  0  0
   32.8676    9.4872   27.0186 N   0  0  0  0  0  0  0  0  0  0  0  0
   31.7083    9.3465   27.7350 C   0  0  0  0  0  0  0  0  0  0  0  0
   34.5330   10.9034   26.1133 C   0  0  0  0  0  0  0  0  0  0  0  0
   35.0754   12.1741   25.9132 C   0  0  0  0  0  0  0  0  0  0  0  0
   34.4345   13.2846   26.4475 C   0  0  0  0  0  0  0  0  0  0  0  0
   33.2482   13.1133   27.1628 C   0  0  0  0  0  0  0  0  0  0  0  0
   31.1517    7.9386   27.8896 C   0  0  0  0  0  0  0  0  0  0  0  0
   30.7104    7.5721   29.2907 C   0  0  0  0  0  0  0  0  0  0  0  0
   29.7459    6.6721   29.5540 C   0  0  0  0  0  0  0  0  0  0  0  0
   29.2330    6.3304   30.9129 C   0  0  0  0  0  0  0  0  0  0  0  0
   27.8326    6.1169   30.7764 O   0  0  0  0  0  0  0  0  0  0  0  0
   32.0653    6.9882   27.5074 F   0  0  0  0  0  0  0  0  0  0  0  0
   30.1053    7.7541   27.0216 F   0  0  0  0  0  0  0  0  0  0  0  0
   26.4801   12.9288   26.5535 C   0  0  0  0  0  0  0  0  0  0  0  0
   27.2380   13.7739   25.7584 N   0  0  0  0  0  0  0  0  0  0  0  0
   25.2716   12.8108   26.3759 O   0  0  0  0  0  0  0  0  0  0  0  0
   26.6976   14.2686   24.4897 C   0  0  2  0  0  0  0  0  0  0  0  0
   26.8403   13.3369   23.2811 C   0  0  0  0  0  0  0  0  0  0  0  0
   27.7132   14.5580   23.3796 C   0  0  1  0  0  0  0  0  0  0  0  0
   25.4358   15.1370   24.5616 C   0  0  0  0  0  0  0  0  0  0  0  0
   25.2728   15.8484   25.7542 N   0  0  0  0  0  0  0  0  0  0  0  0
   24.7065   15.2620   23.5906 O   0  0  0  0  0  0  0  0  0  0  0  0
   23.8456   16.5493   26.2315 S   0  0  0  0  0  0  0  0  0  0  0  0
   23.1114   17.4925   24.8686 C   0  0  0  0  0  0  0  0  0  0  0  0
   24.2365   17.5295   27.2260 O   0  0  0  0  0  0  0  0  0  0  0  0
   22.9424   15.4808   26.5981 O   0  0  0  0  0  0  0  0  0  0  0  0
   24.0333   18.5048   24.2957 C   0  0  0  0  0  0  0  0  0  0  0  0
   22.0973   16.7655   24.0243 C   0  0  0  0  0  0  0  0  0  0  0  0
   21.6396   17.7843   25.0375 C   0  0  0  0  0  0  0  0  0  0  0  0
   27.5537   15.6953   22.4345 C   0  0  0  0  0  0  0  0  0  0  0  0
   28.1448   16.7861   22.9927 F   0  0  0  0  0  0  0  0  0  0  0  0
   28.2626   15.4133   21.3053 F   0  0  0  0  0  0  0  0  0  0  0  0
   27.3770    4.9250   33.0551 H   0  0  0  0  0  0  0  0  0  0  0  0
   28.1894    6.3632   33.6712 H   0  0  0  0  0  0  0  0  0  0  0  0
   26.1766    7.2709   34.5595 H   0  0  0  0  0  0  0  0  0  0  0  0
   25.7801    5.5507   34.6856 H   0  0  0  0  0  0  0  0  0  0  0  0
   24.4673    7.5722   33.0742 H   0  0  0  0  0  0  0  0  0  0  0  0
   24.0879    5.8632   33.1033 H   0  0  0  0  0  0  0  0  0  0  0  0
   25.4668    5.3264   31.3020 H   0  0  0  0  0  0  0  0  0  0  0  0
   27.2649    7.7520   31.8836 H   0  0  0  0  0  0  0  0  0  0  0  0
   24.0847    8.1210   28.7472 H   0  0  0  0  0  0  0  0  0  0  0  0
   23.5663   10.1064   28.0063 H   0  0  0  0  0  0  0  0  0  0  0  0
   22.2055    9.9625   30.7216 H   0  0  0  0  0  0  0  0  0  0  0  0
   21.6388   11.6327   30.6653 H   0  0  0  0  0  0  0  0  0  0  0  0
   21.5753   10.6326   29.2155 H   0  0  0  0  0  0  0  0  0  0  0  0
   22.9634   12.3996   27.8986 H   0  0  0  0  0  0  0  0  0  0  0  0
   22.7516   13.3371   29.3785 H   0  0  0  0  0  0  0  0  0  0  0  0
   24.3628   13.1354   28.7083 H   0  0  0  0  0  0  0  0  0  0  0  0
   24.2010   10.9780   31.7874 H   0  0  0  0  0  0  0  0  0  0  0  0
   23.8939   12.6561   31.4217 H   0  0  0  0  0  0  0  0  0  0  0  0
   25.3850   11.9196   30.8523 H   0  0  0  0  0  0  0  0  0  0  0  0
   28.5798    9.3841   27.8537 H   0  0  0  0  0  0  0  0  0  0  0  0
   27.9137   11.2402   30.1537 H   0  0  0  0  0  0  0  0  0  0  0  0
   27.2237    9.6738   29.7030 H   0  0  0  0  0  0  0  0  0  0  0  0
   27.6297   13.0655   28.3290 H   0  0  0  0  0  0  0  0  0  0  0  0
   28.2510   10.9541   26.2503 H   0  0  0  0  0  0  0  0  0  0  0  0
   29.3200   12.1143   27.0348 H   0  0  0  0  0  0  0  0  0  0  0  0
   35.0368   10.0319   25.6988 H   0  0  0  0  0  0  0  0  0  0  0  0
   35.9972   12.2901   25.3483 H   0  0  0  0  0  0  0  0  0  0  0  0
   34.8511   14.2811   26.3082 H   0  0  0  0  0  0  0  0  0  0  0  0
   32.7397   13.9814   27.5741 H   0  0  0  0  0  0  0  0  0  0  0  0
   31.2107    8.0829   30.1067 H   0  0  0  0  0  0  0  0  0  0  0  0
   29.2690    6.1494   28.7241 H   0  0  0  0  0  0  0  0  0  0  0  0
   29.4594    7.1303   31.6239 H   0  0  0  0  0  0  0  0  0  0  0  0
   29.6811    5.3997   31.2638 H   0  0  0  0  0  0  0  0  0  0  0  0
   28.2470   13.7427   25.8505 H   0  0  0  0  0  0  0  0  0  0  0  0
   26.0446   13.3167   22.5419 H   0  0  0  0  0  0  0  0  0  0  0  0
   27.2998   12.3648   23.4338 H   0  0  0  0  0  0  0  0  0  0  0  0
   28.7680   14.3989   23.5884 H   0  0  0  0  0  0  0  0  0  0  0  0
   25.8176   15.5329   26.5478 H   0  0  0  0  0  0  0  0  0  0  0  0
   23.5264   19.1371   23.5603 H   0  0  0  0  0  0  0  0  0  0  0  0
   24.8780   18.0280   23.7905 H   0  0  0  0  0  0  0  0  0  0  0  0
   24.4292   19.1627   25.0730 H   0  0  0  0  0  0  0  0  0  0  0  0
   22.0369   17.0242   22.9734 H   0  0  0  0  0  0  0  0  0  0  0  0
   21.8994   15.7187   24.2224 H   0  0  0  0  0  0  0  0  0  0  0  0
   21.2507   18.7266   24.6721 H   0  0  0  0  0  0  0  0  0  0  0  0
   21.1223   17.4202   25.9197 H   0  0  0  0  0  0  0  0  0  0  0  0
   26.5296   15.9478   22.1424 H   0  0  0  0  0  0  0  0  0  0  0  0
  1  2  1  0
  2  3  1  0
  4  3  1  0
  4  5  1  0
  5  1  1  0
  4  6  1  0
  6  7  1  0
  7  8  1  0
  7  9  2  0
  8 10  1  0
 10 11  1  0
 10 12  1  0
 12 13  1  0
 12 14  1  0
 12 15  1  0
 11 16  2  0
 11 17  1  0
 19 17  1  0
 17 20  1  0
 18 19  1  0
 20 21  1  0
 18 21  1  0
 18 22  1  0
 22 23  1  0
 23 24  2  0
 28 23  1  0
 24 25  1  0
 26 27  1  0
 27 28  2  0
 26 29  1  0
 25 26  2  0
 32 25  1  0
 29 30  2  0
 30 31  1  0
 31 32  2  0
 28 33  1  0
 33 34  1  0
 34 35  2  0
 35 36  1  0
 36 37  1  0
  5 37  1  0
 33 38  1  0
 33 39  1  0
 20 40  1  0
 40 41  1  0
 40 42  2  0
 43 41  1  6
 43 44  1  0
 45 43  1  0
 44 45  1  0
 43 46  1  0
 46 47  1  0
 46 48  2  0
 47 49  1  0
 49 50  1  0
 49 51  2  0
 49 52  2  0
 50 53  1  0
 50 54  1  0
 55 50  1  0
 54 55  1  0
 45 56  1  0
 56 57  1  0
 56 58  1  0
  1 59  1  0
  1 60  1  0
  2 61  1  0
  2 62  1  0
  3 63  1  0
  3 64  1  0
  4 65  1  1
  5 66  1  6
  8 67  1  0
 10 68  1  1
 13 69  1  0
 13 70  1  0
 13 71  1  0
 14 72  1  0
 14 73  1  0
 14 74  1  0
 15 75  1  0
 15 76  1  0
 15 77  1  0
 18 78  1  1
 19 79  1  0
 19 80  1  0
 20 81  1  6
 21 82  1  0
 21 83  1  0
 29 84  1  0
 30 85  1  0
 31 86  1  0
 32 87  1  0
 34 88  1  0
 35 89  1  0
 36 90  1  0
 36 91  1  0
 41 92  1  0
 44 93  1  0
 44 94  1  0
 45 95  1  6
 47 96  1  0
 53 97  1  0
 53 98  1  0
 53 99  1  0
 54100  1  0
 54101  1  0
 55102  1  0
 55103  1  0
 56104  1  0
M  END
> <Uni-Dock RESULT> 
ENERGY=   -4.396  LOWER_BOUND=    0.000  UPPER_BOUND=    0.000
INTER + INTRA:          -4.396
INTER:                  -4.396
INTRA:                   0.000
UNBOUND:                 0.000

$$$$

     RDKit          3D

104110  0  0  0  0  0  0  0  0999 V2000
   23.8009   19.3052   23.0076 C   0  0  0  0  0  0  0  0  0  0  0  0
   22.6611   19.5227   24.0021 C   0  0  0  0  0  0  0  0  0  0  0  0
   23.2811   19.4067   25.3963 C   0  0  0  0  0  0  0  0  0  0  0  0
   24.7601   19.0983   25.1616 C   0  0  2  0  0  0  0  0  0  0  0  0
   24.8080   18.4456   23.7685 C   0  0  2  0  0  0  0  0  0  0  0  0
   25.3887   18.3812   26.2342 O   0  0  0  0  0  0  0  0  0  0  0  0
   25.0341   17.1028   26.4827 C   0  0  0  0  0  0  0  0  0  0  0  0
   25.7873   16.6457   27.5100 N   0  0  0  0  0  0  0  0  0  0  0  0
   24.1993   16.4739   25.8561 O   0  0  0  0  0  0  0  0  0  0  0  0
   25.8879   15.2680   28.0006 C   0  0  2  0  0  0  0  0  0  0  0  0
   26.8576   14.4545   27.0869 C   0  0  0  0  0  0  0  0  0  0  0  0
   24.5945   14.6203   28.6099 C   0  0  0  0  0  0  0  0  0  0  0  0
   24.0372   15.5595   29.7090 C   0  0  0  0  0  0  0  0  0  0  0  0
   24.9533   13.2923   29.3084 C   0  0  0  0  0  0  0  0  0  0  0  0
   23.4478   14.3348   27.6296 C   0  0  0  0  0  0  0  0  0  0  0  0
   28.0621   14.7141   27.0384 O   0  0  0  0  0  0  0  0  0  0  0  0
   26.2936   13.5121   26.2243 N   0  0  0  0  0  0  0  0  0  0  0  0
   27.3934   13.7440   24.0908 C   0  0  1  0  0  0  0  0  0  0  0  0
   26.1073   14.0613   24.8876 C   0  0  0  0  0  0  0  0  0  0  0  0
   27.0641   12.2862   26.0048 C   0  0  1  0  0  0  0  0  0  0  0  0
   28.0314   12.5775   24.8586 C   0  0  0  0  0  0  0  0  0  0  0  0
   27.0096   13.4956   22.7360 O   0  0  0  0  0  0  0  0  0  0  0  0
   27.9937   12.9689   21.9546 C   0  0  0  0  0  0  0  0  0  0  0  0
   27.8877   11.6257   21.8040 N   0  0  0  0  0  0  0  0  0  0  0  0
   28.7632   11.0273   20.9759 C   0  0  0  0  0  0  0  0  0  0  0  0
   29.7395   11.7726   20.2828 C   0  0  0  0  0  0  0  0  0  0  0  0
   29.8125   13.1079   20.4184 N   0  0  0  0  0  0  0  0  0  0  0  0
   28.9164   13.7284   21.2484 C   0  0  0  0  0  0  0  0  0  0  0  0
   30.6309   11.1116   19.4469 C   0  0  0  0  0  0  0  0  0  0  0  0
   30.5736    9.7276   19.2741 C   0  0  0  0  0  0  0  0  0  0  0  0
   29.6035    8.9929   19.9441 C   0  0  0  0  0  0  0  0  0  0  0  0
   28.7111    9.6495   20.7930 C   0  0  0  0  0  0  0  0  0  0  0  0
   29.0525   15.2345   21.4190 C   0  0  0  0  0  0  0  0  0  0  0  0
   27.7566   16.0117   21.3266 C   0  0  0  0  0  0  0  0  0  0  0  0
   27.5479   17.1847   21.9513 C   0  0  0  0  0  0  0  0  0  0  0  0
   26.2668   17.9498   21.9435 C   0  0  0  0  0  0  0  0  0  0  0  0
   26.1260   18.5188   23.2403 O   0  0  0  0  0  0  0  0  0  0  0  0
   29.8992   15.7754   20.4837 F   0  0  0  0  0  0  0  0  0  0  0  0
   29.6647   15.5138   22.6147 F   0  0  0  0  0  0  0  0  0  0  0  0
   27.7363   11.6204   27.2255 C   0  0  0  0  0  0  0  0  0  0  0  0
   28.4054   10.4402   26.9422 N   0  0  0  0  0  0  0  0  0  0  0  0
   27.6508   12.0364   28.3769 O   0  0  0  0  0  0  0  0  0  0  0  0
   29.3102    9.8531   27.9338 C   0  0  2  0  0  0  0  0  0  0  0  0
   30.7359   10.4144   27.9689 C   0  0  0  0  0  0  0  0  0  0  0  0
   30.4941    9.0480   27.3880 C   0  0  1  0  0  0  0  0  0  0  0  0
   28.6932    9.4196   29.2689 C   0  0  0  0  0  0  0  0  0  0  0  0
   27.3417    9.0660   29.2106 N   0  0  0  0  0  0  0  0  0  0  0  0
   29.3852    9.2969   30.2671 O   0  0  0  0  0  0  0  0  0  0  0  0
   26.3589    8.9255   30.5410 S   0  0  0  0  0  0  0  0  0  0  0  0
   27.1744    7.9547   31.8367 C   0  0  0  0  0  0  0  0  0  0  0  0
   25.2430    8.1193   30.0854 O   0  0  0  0  0  0  0  0  0  0  0  0
   26.1178   10.2608   31.0416 O   0  0  0  0  0  0  0  0  0  0  0  0
   27.6275    6.6208   31.3692 C   0  0  0  0  0  0  0  0  0  0  0  0
   27.9305    8.7360   32.8796 C   0  0  0  0  0  0  0  0  0  0  0  0
   26.5863    8.1403   33.2148 C   0  0  0  0  0  0  0  0  0  0  0  0
   31.0011    7.8244   28.0645 C   0  0  0  0  0  0  0  0  0  0  0  0
   30.3047    6.7615   27.5785 F   0  0  0  0  0  0  0  0  0  0  0  0
   32.2971    7.6356   27.6880 F   0  0  0  0  0  0  0  0  0  0  0  0
   24.2537   20.2636   22.7198 H   0  0  0  0  0  0  0  0  0  0  0  0
   23.4544   18.8263   22.0846 H   0  0  0  0  0  0  0  0  0  0  0  0
   21.8923   18.7509   23.8786 H   0  0  0  0  0  0  0  0  0  0  0  0
   22.1836   20.4962   23.8425 H   0  0  0  0  0  0  0  0  0  0  0  0
   22.7790   18.6303   25.9804 H   0  0  0  0  0  0  0  0  0  0  0  0
   23.1610   20.3388   25.9603 H   0  0  0  0  0  0  0  0  0  0  0  0
   25.3122   20.0478   25.1106 H   0  0  0  0  0  0  0  0  0  0  0  0
   24.4890   17.4006   23.7804 H   0  0  0  0  0  0  0  0  0  0  0  0
   26.5405   17.2724   27.7631 H   0  0  0  0  0  0  0  0  0  0  0  0
   26.5263   15.4054   28.8917 H   0  0  0  0  0  0  0  0  0  0  0  0
   23.7306   16.5279   29.3028 H   0  0  0  0  0  0  0  0  0  0  0  0
   23.1623   15.1198   30.2018 H   0  0  0  0  0  0  0  0  0  0  0  0
   24.7831   15.7505   30.4870 H   0  0  0  0  0  0  0  0  0  0  0  0
   25.8156   13.4153   29.9724 H   0  0  0  0  0  0  0  0  0  0  0  0
   24.1204   12.9284   29.9206 H   0  0  0  0  0  0  0  0  0  0  0  0
   25.1798   12.5083   28.5839 H   0  0  0  0  0  0  0  0  0  0  0  0
   22.9161   15.2461   27.3425 H   0  0  0  0  0  0  0  0  0  0  0  0
   22.6935   13.6882   28.0956 H   0  0  0  0  0  0  0  0  0  0  0  0
   23.7872   13.8234   26.7262 H   0  0  0  0  0  0  0  0  0  0  0  0
   28.0589   14.6133   24.1268 H   0  0  0  0  0  0  0  0  0  0  0  0
   25.2284   13.5804   24.4440 H   0  0  0  0  0  0  0  0  0  0  0  0
   25.9406   15.1387   24.8882 H   0  0  0  0  0  0  0  0  0  0  0  0
   26.3210   11.5565   25.6490 H   0  0  0  0  0  0  0  0  0  0  0  0
   29.0101   12.8890   25.2520 H   0  0  0  0  0  0  0  0  0  0  0  0
   28.1962   11.6749   24.2683 H   0  0  0  0  0  0  0  0  0  0  0  0
   31.3880   11.6890   18.9189 H   0  0  0  0  0  0  0  0  0  0  0  0
   31.2805    9.2314   18.6135 H   0  0  0  0  0  0  0  0  0  0  0  0
   29.5402    7.9139   19.8113 H   0  0  0  0  0  0  0  0  0  0  0  0
   27.9568    9.0760   21.3256 H   0  0  0  0  0  0  0  0  0  0  0  0
   26.9689   15.5726   20.7235 H   0  0  0  0  0  0  0  0  0  0  0  0
   28.3574   17.6251   22.5344 H   0  0  0  0  0  0  0  0  0  0  0  0
   25.4277   17.2961   21.6881 H   0  0  0  0  0  0  0  0  0  0  0  0
   26.3185   18.7672   21.2229 H   0  0  0  0  0  0  0  0  0  0  0  0
   28.5667   10.2014   25.9703 H   0  0  0  0  0  0  0  0  0  0  0  0
   31.2399   10.4973   28.9276 H   0  0  0  0  0  0  0  0  0  0  0  0
   30.9860   11.2234   27.2888 H   0  0  0  0  0  0  0  0  0  0  0  0
   30.5952    8.9413   26.3111 H   0  0  0  0  0  0  0  0  0  0  0  0
   26.8262    9.3798   28.3970 H   0  0  0  0  0  0  0  0  0  0  0  0
   28.0055    6.0137   32.1974 H   0  0  0  0  0  0  0  0  0  0  0  0
   28.4337    6.7127   30.6360 H   0  0  0  0  0  0  0  0  0  0  0  0
   26.8082    6.0658   30.9061 H   0  0  0  0  0  0  0  0  0  0  0  0
   28.8151    8.2800   33.3091 H   0  0  0  0  0  0  0  0  0  0  0  0
   28.0054    9.8124   32.7806 H   0  0  0  0  0  0  0  0  0  0  0  0
   26.5587    7.2920   33.8873 H   0  0  0  0  0  0  0  0  0  0  0  0
   25.7527    8.8224   33.3507 H   0  0  0  0  0  0  0  0  0  0  0  0
   30.9572    7.8169   29.1581 H   0  0  0  0  0  0  0  0  0  0  0  0
  1  2  1  0
  2  3  1  0
  4  3  1  0
  4  5  1  0
  5  1  1  0
  4  6  1  0
  6  7  1  0
  7  8  1  0
  7  9  2  0
  8 10  1  0
 10 11  1  0
 10 12  1  0
 12 13  1  0
 12 14  1  0
 12 15  1  0
 11 16  2  0
 11 17  1  0
 19 17  1  0
 17 20  1  0
 18 19  1  0
 20 21  1  0
 18 21  1  0
 18 22  1  0
 22 23  1  0
 23 24  2  0
 28 23  1  0
 24 25  1  0
 26 27  1  0
 27 28  2  0
 26 29  1  0
 25 26  2  0
 32 25  1  0
 29 30  2  0
 30 31  1  0
 31 32  2  0
 28 33  1  0
 33 34  1  0
 34 35  2  0
 35 36  1  0
 36 37  1  0
  5 37  1  0
 33 38  1  0
 33 39  1  0
 20 40  1  0
 40 41  1  0
 40 42  2  0
 43 41  1  6
 43 44  1  0
 45 43  1  0
 44 45  1  0
 43 46  1  0
 46 47  1  0
 46 48  2  0
 47 49  1  0
 49 50  1  0
 49 51  2  0
 49 52  2  0
 50 53  1  0
 50 54  1  0
 55 50  1  0
 54 55  1  0
 45 56  1  0
 56 57  1  0
 56 58  1  0
  1 59  1  0
  1 60  1  0
  2 61  1  0
  2 62  1  0
  3 63  1  0
  3 64  1  0
  4 65  1  1
  5 66  1  6
  8 67  1  0
 10 68  1  1
 13 69  1  0
 13 70  1  0
 13 71  1  0
 14 72  1  0
 14 73  1  0
 14 74  1  0
 15 75  1  0
 15 76  1  0
 15 77  1  0
 18 78  1  1
 19 79  1  0
 19 80  1  0
 20 81  1  6
 21 82  1  0
 21 83  1  0
 29 84  1  0
 30 85  1  0
 31 86  1  0
 32 87  1  0
 34 88  1  0
 35 89  1  0
 36 90  1  0
 36 91  1  0
 41 92  1  0
 44 93  1  0
 44 94  1  0
 45 95  1  6
 47 96  1  0
 53 97  1  0
 53 98  1  0
 53 99  1  0
 54100  1  0
 54101  1  0
 55102  1  0
 55103  1  0
 56104  1  0
M  END
> <Uni-Dock RESULT> 
ENERGY=   -4.156  LOWER_BOUND=    2.913  UPPER_BOUND=    9.551
INTER + INTRA:          -4.156
INTER:                  -4.156
INTRA:                   0.000
UNBOUND:                 0.000

$$$$

     RDKit          3D

104110  0  0  0  0  0  0  0  0999 V2000
   28.8593   15.5514   26.9255 C   0  0  0  0  0  0  0  0  0  0  0  0
   30.3065   16.0375   26.9934 C   0  0  0  0  0  0  0  0  0  0  0  0
   31.1592   14.9337   26.3643 C   0  0  0  0  0  0  0  0  0  0  0  0
   30.1762   13.8291   25.9755 C   0  0  2  0  0  0  0  0  0  0  0  0
   28.9720   14.0285   26.9133 C   0  0  2  0  0  0  0  0  0  0  0  0
   30.7535   12.5158   25.9339 O   0  0  0  0  0  0  0  0  0  0  0  0
   31.1561   11.9252   27.0789 C   0  0  0  0  0  0  0  0  0  0  0  0
   31.6282   10.6932   26.7774 N   0  0  0  0  0  0  0  0  0  0  0  0
   31.0699   12.4201   28.1892 O   0  0  0  0  0  0  0  0  0  0  0  0
   31.9945    9.6236   27.7104 C   0  0  2  0  0  0  0  0  0  0  0  0
   30.7077    8.8805   28.1892 C   0  0  0  0  0  0  0  0  0  0  0  0
   33.1993    9.8903   28.6804 C   0  0  0  0  0  0  0  0  0  0  0  0
   34.4239   10.3372   27.8429 C   0  0  0  0  0  0  0  0  0  0  0  0
   33.6047    8.5788   29.3846 C   0  0  0  0  0  0  0  0  0  0  0  0
   32.9781   10.9522   29.7671 C   0  0  0  0  0  0  0  0  0  0  0  0
   30.0266    8.2106   27.4098 O   0  0  0  0  0  0  0  0  0  0  0  0
   30.2788    9.1104   29.4982 N   0  0  0  0  0  0  0  0  0  0  0  0
   27.8864    9.4034   29.4280 C   0  0  1  0  0  0  0  0  0  0  0  0
   29.2433   10.1344   29.5450 C   0  0  0  0  0  0  0  0  0  0  0  0
   29.6874    7.9692   30.2000 C   0  0  1  0  0  0  0  0  0  0  0  0
   28.2017    7.9594   29.8437 C   0  0  0  0  0  0  0  0  0  0  0  0
   26.9426   10.1176   30.2303 O   0  0  0  0  0  0  0  0  0  0  0  0
   25.7595    9.4708   30.4263 C   0  0  0  0  0  0  0  0  0  0  0  0
   25.6920    8.8434   31.6263 N   0  0  0  0  0  0  0  0  0  0  0  0
   24.5272    8.2516   31.9477 C   0  0  0  0  0  0  0  0  0  0  0  0
   23.4194    8.2980   31.0762 C   0  0  0  0  0  0  0  0  0  0  0  0
   23.4917    8.9504   29.9032 N   0  0  0  0  0  0  0  0  0  0  0  0
   24.6690    9.5683   29.5729 C   0  0  0  0  0  0  0  0  0  0  0  0
   22.2397    7.6628   31.4438 C   0  0  0  0  0  0  0  0  0  0  0  0
   22.1278    6.9878   32.6605 C   0  0  0  0  0  0  0  0  0  0  0  0
   23.2126    6.9533   33.5274 C   0  0  0  0  0  0  0  0  0  0  0  0
   24.4039    7.5810   33.1600 C   0  0  0  0  0  0  0  0  0  0  0  0
   24.7370   10.2590   28.2185 C   0  0  0  0  0  0  0  0  0  0  0  0
   25.3444   11.6457   28.2339 C   0  0  0  0  0  0  0  0  0  0  0  0
   25.9812   12.1892   27.1809 C   0  0  0  0  0  0  0  0  0  0  0  0
   26.6524   13.5219   27.1731 C   0  0  0  0  0  0  0  0  0  0  0  0
   27.8246   13.3814   26.3783 O   0  0  0  0  0  0  0  0  0  0  0  0
   23.4934   10.3842   27.6512 F   0  0  0  0  0  0  0  0  0  0  0  0
   25.4246    9.4724   27.3291 F   0  0  0  0  0  0  0  0  0  0  0  0
   30.3670    6.5904   30.0500 C   0  0  0  0  0  0  0  0  0  0  0  0
   29.7751    5.5737   30.7827 N   0  0  0  0  0  0  0  0  0  0  0  0
   31.3869    6.3872   29.3985 O   0  0  0  0  0  0  0  0  0  0  0  0
   30.1369    4.1774   30.5257 C   0  0  2  0  0  0  0  0  0  0  0  0
   29.4082    3.4892   29.3662 C   0  0  0  0  0  0  0  0  0  0  0  0
   29.0483    3.1301   30.7820 C   0  0  1  0  0  0  0  0  0  0  0  0
   31.5971    3.7797   30.7721 C   0  0  0  0  0  0  0  0  0  0  0  0
   32.2662    4.5448   31.7323 N   0  0  0  0  0  0  0  0  0  0  0  0
   32.0761    2.7939   30.2345 O   0  0  0  0  0  0  0  0  0  0  0  0
   33.9158    4.5714   31.9161 S   0  0  0  0  0  0  0  0  0  0  0  0
   34.5837    2.8862   31.9245 C   0  0  0  0  0  0  0  0  0  0  0  0
   34.1244    5.0866   33.2554 O   0  0  0  0  0  0  0  0  0  0  0  0
   34.4641    5.2840   30.7833 O   0  0  0  0  0  0  0  0  0  0  0  0
   33.9508    2.0122   32.9438 C   0  0  0  0  0  0  0  0  0  0  0  0
   35.0640    2.3522   30.6001 C   0  0  0  0  0  0  0  0  0  0  0  0
   36.0633    2.8031   31.6355 C   0  0  0  0  0  0  0  0  0  0  0  0
   29.3559    1.7845   31.3358 C   0  0  0  0  0  0  0  0  0  0  0  0
   29.3168    1.8741   32.6927 F   0  0  0  0  0  0  0  0  0  0  0  0
   28.3494    0.9374   30.9804 F   0  0  0  0  0  0  0  0  0  0  0  0
   28.3722   15.9080   26.0079 H   0  0  0  0  0  0  0  0  0  0  0  0
   28.2623   15.9204   27.7674 H   0  0  0  0  0  0  0  0  0  0  0  0
   30.6122   16.1864   28.0358 H   0  0  0  0  0  0  0  0  0  0  0  0
   30.4219   16.9952   26.4732 H   0  0  0  0  0  0  0  0  0  0  0  0
   31.9231   14.5865   27.0659 H   0  0  0  0  0  0  0  0  0  0  0  0
   31.6983   15.3043   25.4849 H   0  0  0  0  0  0  0  0  0  0  0  0
   29.8371   14.0086   24.9451 H   0  0  0  0  0  0  0  0  0  0  0  0
   29.1544   13.6490   27.9216 H   0  0  0  0  0  0  0  0  0  0  0  0
   31.4411   10.4162   25.8222 H   0  0  0  0  0  0  0  0  0  0  0  0
   32.4104    8.8701   27.0178 H   0  0  0  0  0  0  0  0  0  0  0  0
   34.2396   11.2800   27.3197 H   0  0  0  0  0  0  0  0  0  0  0  0
   35.3072   10.4816   28.4758 H   0  0  0  0  0  0  0  0  0  0  0  0
   34.6867    9.5884   27.0889 H   0  0  0  0  0  0  0  0  0  0  0  0
   33.7093    7.7598   28.6651 H   0  0  0  0  0  0  0  0  0  0  0  0
   34.5667    8.6854   29.8987 H   0  0  0  0  0  0  0  0  0  0  0  0
   32.8727    8.2882   30.1402 H   0  0  0  0  0  0  0  0  0  0  0  0
   33.0143   11.9675   29.3630 H   0  0  0  0  0  0  0  0  0  0  0  0
   33.7753   10.9062   30.5198 H   0  0  0  0  0  0  0  0  0  0  0  0
   32.0338   10.8163   30.2988 H   0  0  0  0  0  0  0  0  0  0  0  0
   27.5610    9.4203   28.3822 H   0  0  0  0  0  0  0  0  0  0  0  0
   29.3353   10.6650   30.4991 H   0  0  0  0  0  0  0  0  0  0  0  0
   29.3292   10.8653   28.7405 H   0  0  0  0  0  0  0  0  0  0  0  0
   29.7824    8.2250   31.2662 H   0  0  0  0  0  0  0  0  0  0  0  0
   28.0146    7.2845   28.9957 H   0  0  0  0  0  0  0  0  0  0  0  0
   27.6166    7.5860   30.6854 H   0  0  0  0  0  0  0  0  0  0  0  0
   21.3888    7.6942   30.7655 H   0  0  0  0  0  0  0  0  0  0  0  0
   21.1941    6.4990   32.9284 H   0  0  0  0  0  0  0  0  0  0  0  0
   23.1368    6.4391   34.4845 H   0  0  0  0  0  0  0  0  0  0  0  0
   25.2573    7.5477   33.8324 H   0  0  0  0  0  0  0  0  0  0  0  0
   25.2527   12.2060   29.1584 H   0  0  0  0  0  0  0  0  0  0  0  0
   26.0444   11.6233   26.2509 H   0  0  0  0  0  0  0  0  0  0  0  0
   26.8833   13.8444   28.1926 H   0  0  0  0  0  0  0  0  0  0  0  0
   26.0119   14.2656   26.6969 H   0  0  0  0  0  0  0  0  0  0  0  0
   28.8665    5.7472   31.1973 H   0  0  0  0  0  0  0  0  0  0  0  0
   29.9529    2.7689   28.7626 H   0  0  0  0  0  0  0  0  0  0  0  0
   28.6968    4.0721   28.7888 H   0  0  0  0  0  0  0  0  0  0  0  0
   28.0822    3.4666   31.1494 H   0  0  0  0  0  0  0  0  0  0  0  0
   31.8494    5.4366   31.9715 H   0  0  0  0  0  0  0  0  0  0  0  0
   34.4538    1.0424   33.0072 H   0  0  0  0  0  0  0  0  0  0  0  0
   32.9012    1.8214   32.7030 H   0  0  0  0  0  0  0  0  0  0  0  0
   33.9949    2.4675   33.9360 H   0  0  0  0  0  0  0  0  0  0  0  0
   34.9597    1.2890   30.4168 H   0  0  0  0  0  0  0  0  0  0  0  0
   34.9372    2.9574   29.7103 H   0  0  0  0  0  0  0  0  0  0  0  0
   36.6503    2.0459   32.1403 H   0  0  0  0  0  0  0  0  0  0  0  0
   36.6189    3.7142   31.4362 H   0  0  0  0  0  0  0  0  0  0  0  0
   30.3060    1.3357   31.0295 H   0  0  0  0  0  0  0  0  0  0  0  0
  1  2  1  0
  2  3  1  0
  4  3  1  0
  4  5  1  0
  5  1  1  0
  4  6  1  0
  6  7  1  0
  7  8  1  0
  7  9  2  0
  8 10  1  0
 10 11  1  0
 10 12  1  0
 12 13  1  0
 12 14  1  0
 12 15  1  0
 11 16  2  0
 11 17  1  0
 19 17  1  0
 17 20  1  0
 18 19  1  0
 20 21  1  0
 18 21  1  0
 18 22  1  0
 22 23  1  0
 23 24  2  0
 28 23  1  0
 24 25  1  0
 26 27  1  0
 27 28  2  0
 26 29  1  0
 25 26  2  0
 32 25  1  0
 29 30  2  0
 30 31  1  0
 31 32  2  0
 28 33  1  0
 33 34  1  0
 34 35  2  0
 35 36  1  0
 36 37  1  0
  5 37  1  0
 33 38  1  0
 33 39  1  0
 20 40  1  0
 40 41  1  0
 40 42  2  0
 43 41  1  6
 43 44  1  0
 45 43  1  0
 44 45  1  0
 43 46  1  0
 46 47  1  0
 46 48  2  0
 47 49  1  0
 49 50  1  0
 49 51  2  0
 49 52  2  0
 50 53  1  0
 50 54  1  0
 55 50  1  0
 54 55  1  0
 45 56  1  0
 56 57  1  0
 56 58  1  0
  1 59  1  0
  1 60  1  0
  2 61  1  0
  2 62  1  0
  3 63  1  0
  3 64  1  0
  4 65  1  1
  5 66  1  6
  8 67  1  0
 10 68  1  1
 13 69  1  0
 13 70  1  0
 13 71  1  0
 14 72  1  0
 14 73  1  0
 14 74  1  0
 15 75  1  0
 15 76  1  0
 15 77  1  0
 18 78  1  1
 19 79  1  0
 19 80  1  0
 20 81  1  6
 21 82  1  0
 21 83  1  0
 29 84  1  0
 30 85  1  0
 31 86  1  0
 32 87  1  0
 34 88  1  0
 35 89  1  0
 36 90  1  0
 36 91  1  0
 41 92  1  0
 44 93  1  0
 44 94  1  0
 45 95  1  6
 47 96  1  0
 53 97  1  0
 53 98  1  0
 53 99  1  0
 54100  1  0
 54101  1  0
 55102  1  0
 55103  1  0
 56104  1  0
M  END
> <Uni-Dock RESULT> 
ENERGY=   -4.140  LOWER_BOUND=    4.412  UPPER_BOUND=   11.781
INTER + INTRA:          -4.140
INTER:                  -4.140
INTRA:                   0.000
UNBOUND:                 0.000

$$$$

     RDKit          3D

104110  0  0  0  0  0  0  0  0999 V2000
   23.5537    3.1626   31.6629 C   0  0  0  0  0  0  0  0  0  0  0  0
   23.6834    1.6722   31.3509 C   0  0  0  0  0  0  0  0  0  0  0  0
   24.8489    1.1570   32.1981 C   0  0  0  0  0  0  0  0  0  0  0  0
   25.3743    2.3768   32.9554 C   0  0  2  0  0  0  0  0  0  0  0  0
   24.9572    3.5824   32.0941 C   0  0  2  0  0  0  0  0  0  0  0  0
   26.7596    2.2906   33.3204 O   0  0  0  0  0  0  0  0  0  0  0  0
   27.7079    2.3237   32.3604 C   0  0  0  0  0  0  0  0  0  0  0  0
   28.9199    2.2610   32.9592 N   0  0  0  0  0  0  0  0  0  0  0  0
   27.4906    2.4264   31.1657 O   0  0  0  0  0  0  0  0  0  0  0  0
   30.2340    2.4558   32.3394 C   0  0  2  0  0  0  0  0  0  0  0  0
   30.5225    3.9825   32.1883 C   0  0  0  0  0  0  0  0  0  0  0  0
   30.6783    1.4225   31.2446 C   0  0  0  0  0  0  0  0  0  0  0  0
   30.5478   -0.0075   31.8269 C   0  0  0  0  0  0  0  0  0  0  0  0
   32.1704    1.6247   30.9087 C   0  0  0  0  0  0  0  0  0  0  0  0
   29.8966    1.4499   29.9234 C   0  0  0  0  0  0  0  0  0  0  0  0
   30.6824    4.7056   33.1742 O   0  0  0  0  0  0  0  0  0  0  0  0
   30.4588    4.5276   30.9041 N   0  0  0  0  0  0  0  0  0  0  0  0
   29.2722    6.6202   31.0713 C   0  0  1  0  0  0  0  0  0  0  0  0
   29.1598    5.1370   30.6505 C   0  0  0  0  0  0  0  0  0  0  0  0
   31.4197    5.5898   30.5987 C   0  0  1  0  0  0  0  0  0  0  0  0
   30.7816    6.9007   31.0554 C   0  0  0  0  0  0  0  0  0  0  0  0
   28.4614    7.3841   30.1750 O   0  0  0  0  0  0  0  0  0  0  0  0
   28.6372    8.7326   30.2594 C   0  0  0  0  0  0  0  0  0  0  0  0
   29.4529    9.2213   29.2930 N   0  0  0  0  0  0  0  0  0  0  0  0
   29.6156   10.5559   29.2406 C   0  0  0  0  0  0  0  0  0  0  0  0
   28.9508   11.4089   30.1457 C   0  0  0  0  0  0  0  0  0  0  0  0
   28.1208   10.9118   31.0790 N   0  0  0  0  0  0  0  0  0  0  0  0
   27.9374    9.5551   31.1315 C   0  0  0  0  0  0  0  0  0  0  0  0
   29.1574   12.7802   30.0626 C   0  0  0  0  0  0  0  0  0  0  0  0
   30.0027   13.3294   29.0969 C   0  0  0  0  0  0  0  0  0  0  0  0
   30.6472   12.4927   28.1946 C   0  0  0  0  0  0  0  0  0  0  0  0
   30.4516   11.1132   28.2788 C   0  0  0  0  0  0  0  0  0  0  0  0
   27.0293    9.0170   32.2278 C   0  0  0  0  0  0  0  0  0  0  0  0
   26.0217    7.9809   31.7771 C   0  0  0  0  0  0  0  0  0  0  0  0
   25.5315    7.0219   32.5830 C   0  0  0  0  0  0  0  0  0  0  0  0
   24.5910    5.9415   32.1647 C   0  0  0  0  0  0  0  0  0  0  0  0
   24.9766    4.7702   32.8752 O   0  0  0  0  0  0  0  0  0  0  0  0
   26.3132   10.0212   32.8302 F   0  0  0  0  0  0  0  0  0  0  0  0
   27.7874    8.4991   33.2474 F   0  0  0  0  0  0  0  0  0  0  0  0
   32.8772    5.4129   31.0779 C   0  0  0  0  0  0  0  0  0  0  0  0
   33.7336    6.4379   30.7079 N   0  0  0  0  0  0  0  0  0  0  0  0
   33.2944    4.4287   31.6806 O   0  0  0  0  0  0  0  0  0  0  0  0
   35.0613    6.5415   31.3187 C   0  0  2  0  0  0  0  0  0  0  0  0
   35.1310    7.2482   32.6769 C   0  0  0  0  0  0  0  0  0  0  0  0
   35.6457    7.9517   31.4509 C   0  0  1  0  0  0  0  0  0  0  0  0
   36.0289    5.3754   31.0835 C   0  0  0  0  0  0  0  0  0  0  0  0
   35.8213    4.6623   29.8989 N   0  0  0  0  0  0  0  0  0  0  0  0
   36.9682    5.1802   31.8384 O   0  0  0  0  0  0  0  0  0  0  0  0
   36.4663    3.1642   29.5898 S   0  0  0  0  0  0  0  0  0  0  0  0
   38.2307    3.1318   30.0046 C   0  0  0  0  0  0  0  0  0  0  0  0
   36.3960    3.0284   28.1479 O   0  0  0  0  0  0  0  0  0  0  0  0
   35.7725    2.2145   30.4314 O   0  0  0  0  0  0  0  0  0  0  0  0
   39.0105    4.1953   29.3235 C   0  0  0  0  0  0  0  0  0  0  0  0
   38.5827    2.6416   31.3851 C   0  0  0  0  0  0  0  0  0  0  0  0
   38.7993    1.7456   30.1916 C   0  0  0  0  0  0  0  0  0  0  0  0
   37.0962    8.2295   31.2759 C   0  0  0  0  0  0  0  0  0  0  0  0
   37.3171    8.4719   29.9556 F   0  0  0  0  0  0  0  0  0  0  0  0
   37.3900    9.3878   31.9308 F   0  0  0  0  0  0  0  0  0  0  0  0
   22.8358    3.3281   32.4776 H   0  0  0  0  0  0  0  0  0  0  0  0
   23.1927    3.7329   30.7993 H   0  0  0  0  0  0  0  0  0  0  0  0
   23.9088    1.5213   30.2886 H   0  0  0  0  0  0  0  0  0  0  0  0
   22.7484    1.1441   31.5706 H   0  0  0  0  0  0  0  0  0  0  0  0
   25.6129    0.6953   31.5662 H   0  0  0  0  0  0  0  0  0  0  0  0
   24.5167    0.3782   32.8941 H   0  0  0  0  0  0  0  0  0  0  0  0
   24.8450    2.4472   33.9166 H   0  0  0  0  0  0  0  0  0  0  0  0
   25.6010    3.7215   31.2222 H   0  0  0  0  0  0  0  0  0  0  0  0
   28.8746    2.3621   33.9651 H   0  0  0  0  0  0  0  0  0  0  0  0
   30.9052    2.2113   33.1821 H   0  0  0  0  0  0  0  0  0  0  0  0
   29.5118   -0.2546   32.0764 H   0  0  0  0  0  0  0  0  0  0  0  0
   30.9011   -0.7611   31.1135 H   0  0  0  0  0  0  0  0  0  0  0  0
   31.1424   -0.1232   32.7386 H   0  0  0  0  0  0  0  0  0  0  0  0
   32.7760    1.6851   31.8193 H   0  0  0  0  0  0  0  0  0  0  0  0
   32.5597    0.7908   30.3137 H   0  0  0  0  0  0  0  0  0  0  0  0
   32.3288    2.5321   30.3234 H   0  0  0  0  0  0  0  0  0  0  0  0
   28.9071    0.9952   30.0218 H   0  0  0  0  0  0  0  0  0  0  0  0
   30.4156    0.8624   29.1555 H   0  0  0  0  0  0  0  0  0  0  0  0
   29.7838    2.4605   29.5249 H   0  0  0  0  0  0  0  0  0  0  0  0
   28.8901    6.7314   32.0918 H   0  0  0  0  0  0  0  0  0  0  0  0
   28.9418    5.0359   29.5815 H   0  0  0  0  0  0  0  0  0  0  0  0
   28.3506    4.6647   31.2080 H   0  0  0  0  0  0  0  0  0  0  0  0
   31.4749    5.6003   29.4995 H   0  0  0  0  0  0  0  0  0  0  0  0
   31.1175    7.1579   32.0707 H   0  0  0  0  0  0  0  0  0  0  0  0
   31.0900    7.7164   30.3999 H   0  0  0  0  0  0  0  0  0  0  0  0
   28.6484   13.4354   30.7675 H   0  0  0  0  0  0  0  0  0  0  0  0
   30.1485   14.4059   29.0492 H   0  0  0  0  0  0  0  0  0  0  0  0
   31.3017   12.9075   27.4293 H   0  0  0  0  0  0  0  0  0  0  0  0
   30.9618   10.4555   27.5799 H   0  0  0  0  0  0  0  0  0  0  0  0
   25.7006    8.0338   30.7421 H   0  0  0  0  0  0  0  0  0  0  0  0
   25.8456    6.9963   33.6270 H   0  0  0  0  0  0  0  0  0  0  0  0
   24.6274    5.7956   31.0812 H   0  0  0  0  0  0  0  0  0  0  0  0
   23.5712    6.1920   32.4600 H   0  0  0  0  0  0  0  0  0  0  0  0
   33.3300    7.2883   30.3317 H   0  0  0  0  0  0  0  0  0  0  0  0
   35.8421    6.8890   33.4153 H   0  0  0  0  0  0  0  0  0  0  0  0
   34.2046    7.6018   33.1197 H   0  0  0  0  0  0  0  0  0  0  0  0
   35.0633    8.7905   31.0785 H   0  0  0  0  0  0  0  0  0  0  0  0
   34.9203    4.7806   29.4511 H   0  0  0  0  0  0  0  0  0  0  0  0
   40.0844    4.0775   29.4970 H   0  0  0  0  0  0  0  0  0  0  0  0
   38.7269    5.1869   29.6874 H   0  0  0  0  0  0  0  0  0  0  0  0
   38.8506    4.1711   28.2429 H   0  0  0  0  0  0  0  0  0  0  0  0
   39.4523    3.0728   31.8673 H   0  0  0  0  0  0  0  0  0  0  0  0
   37.7854    2.3939   32.0758 H   0  0  0  0  0  0  0  0  0  0  0  0
   39.8175    1.5541   29.8769 H   0  0  0  0  0  0  0  0  0  0  0  0
   38.1479    0.8838   30.0839 H   0  0  0  0  0  0  0  0  0  0  0  0
   37.7873    7.4548   31.6227 H   0  0  0  0  0  0  0  0  0  0  0  0
  1  2  1  0
  2  3  1  0
  4  3  1  0
  4  5  1  0
  5  1  1  0
  4  6  1  0
  6  7  1  0
  7  8  1  0
  7  9  2  0
  8 10  1  0
 10 11  1  0
 10 12  1  0
 12 13  1  0
 12 14  1  0
 12 15  1  0
 11 16  2  0
 11 17  1  0
 19 17  1  0
 17 20  1  0
 18 19  1  0
 20 21  1  0
 18 21  1  0
 18 22  1  0
 22 23  1  0
 23 24  2  0
 28 23  1  0
 24 25  1  0
 26 27  1  0
 27 28  2  0
 26 29  1  0
 25 26  2  0
 32 25  1  0
 29 30  2  0
 30 31  1  0
 31 32  2  0
 28 33  1  0
 33 34  1  0
 34 35  2  0
 35 36  1  0
 36 37  1  0
  5 37  1  0
 33 38  1  0
 33 39  1  0
 20 40  1  0
 40 41  1  0
 40 42  2  0
 43 41  1  6
 43 44  1  0
 45 43  1  0
 44 45  1  0
 43 46  1  0
 46 47  1  0
 46 48  2  0
 47 49  1  0
 49 50  1  0
 49 51  2  0
 49 52  2  0
 50 53  1  0
 50 54  1  0
 55 50  1  0
 54 55  1  0
 45 56  1  0
 56 57  1  0
 56 58  1  0
  1 59  1  0
  1 60  1  0
  2 61  1  0
  2 62  1  0
  3 63  1  0
  3 64  1  0
  4 65  1  1
  5 66  1  6
  8 67  1  0
 10 68  1  1
 13 69  1  0
 13 70  1  0
 13 71  1  0
 14 72  1  0
 14 73  1  0
 14 74  1  0
 15 75  1  0
 15 76  1  0
 15 77  1  0
 18 78  1  1
 19 79  1  0
 19 80  1  0
 20 81  1  6
 21 82  1  0
 21 83  1  0
 29 84  1  0
 30 85  1  0
 31 86  1  0
 32 87  1  0
 34 88  1  0
 35 89  1  0
 36 90  1  0
 36 91  1  0
 41 92  1  0
 44 93  1  0
 44 94  1  0
 45 95  1  6
 47 96  1  0
 53 97  1  0
 53 98  1  0
 53 99  1  0
 54100  1  0
 54101  1  0
 55102  1  0
 55103  1  0
 56104  1  0
M  END
> <Uni-Dock RESULT> 
ENERGY=   -4.098  LOWER_BOUND=    6.226  UPPER_BOUND=   11.409
INTER + INTRA:          -4.098
INTER:                  -4.098
INTRA:                   0.000
UNBOUND:                 0.000

$$$$

     RDKit          3D

104110  0  0  0  0  0  0  0  0999 V2000
   23.7688    6.4346   30.8716 C   0  0  0  0  0  0  0  0  0  0  0  0
   23.5244    4.9623   30.5429 C   0  0  0  0  0  0  0  0  0  0  0  0
   24.4694    4.1604   31.4403 C   0  0  0  0  0  0  0  0  0  0  0  0
   25.2514    5.2004   32.2431 C   0  0  2  0  0  0  0  0  0  0  0  0
   25.2078    6.4747   31.3809 C   0  0  2  0  0  0  0  0  0  0  0  0
   26.5454    4.7568   32.6774 O   0  0  0  0  0  0  0  0  0  0  0  0
   27.5200    4.5446   31.7680 C   0  0  0  0  0  0  0  0  0  0  0  0
   28.6405    4.1682   32.4271 N   0  0  0  0  0  0  0  0  0  0  0  0
   27.4014    4.7028   30.5655 O   0  0  0  0  0  0  0  0  0  0  0  0
   29.9915    4.0165   31.8788 C   0  0  2  0  0  0  0  0  0  0  0  0
   30.6734    5.4163   31.7672 C   0  0  0  0  0  0  0  0  0  0  0  0
   30.2111    2.9056   30.7919 C   0  0  0  0  0  0  0  0  0  0  0  0
   29.6834    1.5573   31.3437 C   0  0  0  0  0  0  0  0  0  0  0  0
   31.7205    2.7143   30.5363 C   0  0  0  0  0  0  0  0  0  0  0  0
   29.5353    3.1379   29.4329 C   0  0  0  0  0  0  0  0  0  0  0  0
   30.9619    6.0710   32.7715 O   0  0  0  0  0  0  0  0  0  0  0  0
   30.8222    5.9621   30.4904 N   0  0  0  0  0  0  0  0  0  0  0  0
   30.2111    8.2905   30.6299 C   0  0  1  0  0  0  0  0  0  0  0  0
   29.7410    6.8883   30.1801 C   0  0  0  0  0  0  0  0  0  0  0  0
   32.0404    6.7390   30.2517 C   0  0  1  0  0  0  0  0  0  0  0  0
   31.7402    8.1696   30.6961 C   0  0  0  0  0  0  0  0  0  0  0  0
   29.6753    9.2406   29.7055 O   0  0  0  0  0  0  0  0  0  0  0  0
   30.1897   10.4971   29.8204 C   0  0  0  0  0  0  0  0  0  0  0  0
   31.1548   10.7594   28.9051 N   0  0  0  0  0  0  0  0  0  0  0  0
   31.6604   12.0061   28.8825 C   0  0  0  0  0  0  0  0  0  0  0  0
   31.1915   13.0005   29.7659 C   0  0  0  0  0  0  0  0  0  0  0  0
   30.2122   12.7339   30.6472 N   0  0  0  0  0  0  0  0  0  0  0  0
   29.6810   11.4712   30.6685 C   0  0  0  0  0  0  0  0  0  0  0  0
   31.7506   14.2714   29.7154 C   0  0  0  0  0  0  0  0  0  0  0  0
   32.7600   14.5844   28.8033 C   0  0  0  0  0  0  0  0  0  0  0  0
   33.2132   13.6110   27.9220 C   0  0  0  0  0  0  0  0  0  0  0  0
   32.6626   12.3294   27.9740 C   0  0  0  0  0  0  0  0  0  0  0  0
   28.6070   11.1849   31.7080 C   0  0  0  0  0  0  0  0  0  0  0  0
   27.3911   10.4469   31.1895 C   0  0  0  0  0  0  0  0  0  0  0  0
   26.6265    9.6462   31.9538 C   0  0  0  0  0  0  0  0  0  0  0  0
   25.4622    8.8479   31.4704 C   0  0  0  0  0  0  0  0  0  0  0  0
   25.4923    7.6151   32.1809 O   0  0  0  0  0  0  0  0  0  0  0  0
   28.1441   12.3393   32.2888 F   0  0  0  0  0  0  0  0  0  0  0  0
   29.1490   10.4858   32.7567 F   0  0  0  0  0  0  0  0  0  0  0  0
   33.3745    6.1889   30.8023 C   0  0  0  0  0  0  0  0  0  0  0  0
   34.4857    6.9572   30.4932 N   0  0  0  0  0  0  0  0  0  0  0  0
   33.4894    5.1288   31.4097 O   0  0  0  0  0  0  0  0  0  0  0  0
   35.7601    6.7113   31.1730 C   0  0  2  0  0  0  0  0  0  0  0  0
   35.9374    7.3728   32.5441 C   0  0  0  0  0  0  0  0  0  0  0  0
   36.6819    7.9212   31.3575 C   0  0  1  0  0  0  0  0  0  0  0  0
   36.4038    5.3345   30.9691 C   0  0  0  0  0  0  0  0  0  0  0  0
   36.0825    4.7023   29.7641 N   0  0  0  0  0  0  0  0  0  0  0  0
   37.2184    4.9006   31.7680 O   0  0  0  0  0  0  0  0  0  0  0  0
   36.3330    3.0888   29.4646 S   0  0  0  0  0  0  0  0  0  0  0  0
   38.0037    2.5986   29.9689 C   0  0  0  0  0  0  0  0  0  0  0  0
   36.3075    2.9789   28.0189 O   0  0  0  0  0  0  0  0  0  0  0  0
   35.3726    2.3499   30.2541 O   0  0  0  0  0  0  0  0  0  0  0  0
   39.0679    3.4247   29.3458 C   0  0  0  0  0  0  0  0  0  0  0  0
   38.1420    2.0309   31.3575 C   0  0  0  0  0  0  0  0  0  0  0  0
   38.1829    1.1120   30.1626 C   0  0  0  0  0  0  0  0  0  0  0  0
   38.1621    7.8133   31.2618 C   0  0  0  0  0  0  0  0  0  0  0  0
   38.5090    7.9929   29.9586 F   0  0  0  0  0  0  0  0  0  0  0  0
   38.7104    8.8543   31.9494 F   0  0  0  0  0  0  0  0  0  0  0  0
   23.0756    6.7790   31.6509 H   0  0  0  0  0  0  0  0  0  0  0  0
   23.6148    7.0809   29.9998 H   0  0  0  0  0  0  0  0  0  0  0  0
   23.7599    4.7603   29.4912 H   0  0  0  0  0  0  0  0  0  0  0  0
   22.4742    4.6945   30.7057 H   0  0  0  0  0  0  0  0  0  0  0  0
   25.1205    3.5176   30.8413 H   0  0  0  0  0  0  0  0  0  0  0  0
   23.9099    3.4930   32.1058 H   0  0  0  0  0  0  0  0  0  0  0  0
   24.7075    5.4037   33.1769 H   0  0  0  0  0  0  0  0  0  0  0  0
   25.9116    6.4439   30.5456 H   0  0  0  0  0  0  0  0  0  0  0  0
   28.5688    4.2754   33.4309 H   0  0  0  0  0  0  0  0  0  0  0  0
   30.5301    3.6044   32.7509 H   0  0  0  0  0  0  0  0  0  0  0  0
   28.6069    1.5870   31.5357 H   0  0  0  0  0  0  0  0  0  0  0  0
   29.8672    0.7394   30.6374 H   0  0  0  0  0  0  0  0  0  0  0  0
   30.1778    1.2893   32.2828 H   0  0  0  0  0  0  0  0  0  0  0  0
   32.2711    2.6135   31.4777 H   0  0  0  0  0  0  0  0  0  0  0  0
   31.9118    1.8092   29.9488 H   0  0  0  0  0  0  0  0  0  0  0  0
   32.1397    3.5508   29.9745 H   0  0  0  0  0  0  0  0  0  0  0  0
   28.4580    2.9554   29.4731 H   0  0  0  0  0  0  0  0  0  0  0  0
   29.9249    2.4374   28.6833 H   0  0  0  0  0  0  0  0  0  0  0  0
   29.7098    4.1440   29.0454 H   0  0  0  0  0  0  0  0  0  0  0  0
   29.8165    8.4949   31.6311 H   0  0  0  0  0  0  0  0  0  0  0  0
   29.5621    6.8495   29.0999 H   0  0  0  0  0  0  0  0  0  0  0  0
   28.8083    6.6410   30.6878 H   0  0  0  0  0  0  0  0  0  0  0  0
   32.1555    6.7372   29.1571 H   0  0  0  0  0  0  0  0  0  0  0  0
   32.0762    8.3286   31.7312 H   0  0  0  0  0  0  0  0  0  0  0  0
   32.2842    8.8787   30.0704 H   0  0  0  0  0  0  0  0  0  0  0  0
   31.3916   15.0347   30.4037 H   0  0  0  0  0  0  0  0  0  0  0  0
   33.1820   15.5862   28.7805 H   0  0  0  0  0  0  0  0  0  0  0  0
   33.9929   13.8433   27.1981 H   0  0  0  0  0  0  0  0  0  0  0  0
   33.0218   11.5632   27.2918 H   0  0  0  0  0  0  0  0  0  0  0  0
   27.1507   10.5835   30.1404 H   0  0  0  0  0  0  0  0  0  0  0  0
   26.8667    9.5378   33.0120 H   0  0  0  0  0  0  0  0  0  0  0  0
   25.5176    8.6999   30.3880 H   0  0  0  0  0  0  0  0  0  0  0  0
   24.5277    9.3539   31.7170 H   0  0  0  0  0  0  0  0  0  0  0  0
   34.3371    7.8840   30.1105 H   0  0  0  0  0  0  0  0  0  0  0  0
   36.4904    6.8397   33.3122 H   0  0  0  0  0  0  0  0  0  0  0  0
   35.1119    7.9538   32.9443 H   0  0  0  0  0  0  0  0  0  0  0  0
   36.3576    8.8832   30.9692 H   0  0  0  0  0  0  0  0  0  0  0  0
   35.2683    5.0513   29.2726 H   0  0  0  0  0  0  0  0  0  0  0  0
   40.0638    3.0318   29.5724 H   0  0  0  0  0  0  0  0  0  0  0  0
   39.0318    4.4551   29.7106 H   0  0  0  0  0  0  0  0  0  0  0  0
   38.9655    3.4451   28.2582 H   0  0  0  0  0  0  0  0  0  0  0  0
   39.0665    2.2205   31.8906 H   0  0  0  0  0  0  0  0  0  0  0  0
   37.2718    1.9972   32.0024 H   0  0  0  0  0  0  0  0  0  0  0  0
   39.1321    0.6633   29.8975 H   0  0  0  0  0  0  0  0  0  0  0  0
   37.3372    0.4490   30.0077 H   0  0  0  0  0  0  0  0  0  0  0  0
   38.6093    6.8850   31.6311 H   0  0  0  0  0  0  0  0  0  0  0  0
  1  2  1  0
  2  3  1  0
  4  3  1  0
  4  5  1  0
  5  1  1  0
  4  6  1  0
  6  7  1  0
  7  8  1  0
  7  9  2  0
  8 10  1  0
 10 11  1  0
 10 12  1  0
 12 13  1  0
 12 14  1  0
 12 15  1  0
 11 16  2  0
 11 17  1  0
 19 17  1  0
 17 20  1  0
 18 19  1  0
 20 21  1  0
 18 21  1  0
 18 22  1  0
 22 23  1  0
 23 24  2  0
 28 23  1  0
 24 25  1  0
 26 27  1  0
 27 28  2  0
 26 29  1  0
 25 26  2  0
 32 25  1  0
 29 30  2  0
 30 31  1  0
 31 32  2  0
 28 33  1  0
 33 34  1  0
 34 35  2  0
 35 36  1  0
 36 37  1  0
  5 37  1  0
 33 38  1  0
 33 39  1  0
 20 40  1  0
 40 41  1  0
 40 42  2  0
 43 41  1  6
 43 44  1  0
 45 43  1  0
 44 45  1  0
 43 46  1  0
 46 47  1  0
 46 48  2  0
 47 49  1  0
 49 50  1  0
 49 51  2  0
 49 52  2  0
 50 53  1  0
 50 54  1  0
 55 50  1  0
 54 55  1  0
 45 56  1  0
 56 57  1  0
 56 58  1  0
  1 59  1  0
  1 60  1  0
  2 61  1  0
  2 62  1  0
  3 63  1  0
  3 64  1  0
  4 65  1  1
  5 66  1  6
  8 67  1  0
 10 68  1  1
 13 69  1  0
 13 70  1  0
 13 71  1  0
 14 72  1  0
 14 73  1  0
 14 74  1  0
 15 75  1  0
 15 76  1  0
 15 77  1  0
 18 78  1  1
 19 79  1  0
 19 80  1  0
 20 81  1  6
 21 82  1  0
 21 83  1  0
 29 84  1  0
 30 85  1  0
 31 86  1  0
 32 87  1  0
 34 88  1  0
 35 89  1  0
 36 90  1  0
 36 91  1  0
 41 92  1  0
 44 93  1  0
 44 94  1  0
 45 95  1  6
 47 96  1  0
 53 97  1  0
 53 98  1  0
 53 99  1  0
 54100  1  0
 54101  1  0
 55102  1  0
 55103  1  0
 56104  1  0
M  END
> <Uni-Dock RESULT> 
ENERGY=   -3.999  LOWER_BOUND=    6.134  UPPER_BOUND=   11.065
INTER + INTRA:          -3.999
INTER:                  -3.999
INTRA:                   0.000
UNBOUND:                 0.000

$$$$

     RDKit          3D

104110  0  0  0  0  0  0  0  0999 V2000
   30.9729   15.9402   18.0207 C   0  0  0  0  0  0  0  0  0  0  0  0
   32.4546   15.9659   18.3940 C   0  0  0  0  0  0  0  0  0  0  0  0
   32.7645   14.6007   19.0117 C   0  0  0  0  0  0  0  0  0  0  0  0
   31.4404   13.8364   18.9997 C   0  0  2  0  0  0  0  0  0  0  0  0
   30.3571   14.9298   18.9860 C   0  0  2  0  0  0  0  0  0  0  0  0
   31.3323   12.8310   20.0181 O   0  0  0  0  0  0  0  0  0  0  0  0
   31.2512   13.1979   21.3146 C   0  0  0  0  0  0  0  0  0  0  0  0
   31.1246   12.0787   22.0649 N   0  0  0  0  0  0  0  0  0  0  0  0
   31.2587   14.3477   21.7181 O   0  0  0  0  0  0  0  0  0  0  0  0
   30.8154   11.9918   23.4951 C   0  0  2  0  0  0  0  0  0  0  0  0
   29.2791   12.1647   23.7119 C   0  0  0  0  0  0  0  0  0  0  0  0
   31.8606   12.5937   24.4996 C   0  0  0  0  0  0  0  0  0  0  0  0
   33.2520   11.9829   24.1965 C   0  0  0  0  0  0  0  0  0  0  0  0
   31.5027   12.1754   25.9408 C   0  0  0  0  0  0  0  0  0  0  0  0
   32.0200   14.1208   24.4848 C   0  0  0  0  0  0  0  0  0  0  0  0
   28.4753   11.3228   23.3051 O   0  0  0  0  0  0  0  0  0  0  0  0
   28.8362   13.3697   24.2615 N   0  0  0  0  0  0  0  0  0  0  0  0
   26.8966   14.0604   23.0063 C   0  0  1  0  0  0  0  0  0  0  0  0
   28.4080   14.2998   23.2248 C   0  0  0  0  0  0  0  0  0  0  0  0
   27.6891   13.2897   25.1684 C   0  0  1  0  0  0  0  0  0  0  0  0
   26.4368   13.3669   24.2966 C   0  0  0  0  0  0  0  0  0  0  0  0
   26.3007   15.3239   22.7016 O   0  0  0  0  0  0  0  0  0  0  0  0
   24.9382   15.3274   22.7158 C   0  0  0  0  0  0  0  0  0  0  0  0
   24.4224   15.8198   23.8689 N   0  0  0  0  0  0  0  0  0  0  0  0
   23.0848   15.9461   23.9413 C   0  0  0  0  0  0  0  0  0  0  0  0
   22.2580   15.5944   22.8542 C   0  0  0  0  0  0  0  0  0  0  0  0
   22.7862   15.1366   21.7060 N   0  0  0  0  0  0  0  0  0  0  0  0
   24.1482   15.0177   21.6173 C   0  0  0  0  0  0  0  0  0  0  0  0
   20.8808   15.7301   22.9773 C   0  0  0  0  0  0  0  0  0  0  0  0
   20.3015   16.2146   24.1514 C   0  0  0  0  0  0  0  0  0  0  0  0
   21.1145   16.5758   25.2182 C   0  0  0  0  0  0  0  0  0  0  0  0
   22.4983   16.4328   25.1047 C   0  0  0  0  0  0  0  0  0  0  0  0
   24.7151   14.4526   20.3229 C   0  0  0  0  0  0  0  0  0  0  0  0
   25.8945   15.2112   19.7525 C   0  0  0  0  0  0  0  0  0  0  0  0
   26.8477   14.6408   18.9937 C   0  0  0  0  0  0  0  0  0  0  0  0
   28.0606   15.3332   18.4682 C   0  0  0  0  0  0  0  0  0  0  0  0
   29.1244   14.3896   18.5277 O   0  0  0  0  0  0  0  0  0  0  0  0
   23.7658   14.4056   19.3325 F   0  0  0  0  0  0  0  0  0  0  0  0
   25.0652   13.1383   20.5030 F   0  0  0  0  0  0  0  0  0  0  0  0
   27.6541   12.1394   26.1983 C   0  0  0  0  0  0  0  0  0  0  0  0
   26.5610   12.1618   27.0500 N   0  0  0  0  0  0  0  0  0  0  0  0
   28.5363   11.2959   26.3260 O   0  0  0  0  0  0  0  0  0  0  0  0
   26.2550   10.9956   27.8823 C   0  0  2  0  0  0  0  0  0  0  0  0
   25.4525    9.8747   27.2125 C   0  0  0  0  0  0  0  0  0  0  0  0
   24.7785   10.7647   28.2207 C   0  0  1  0  0  0  0  0  0  0  0  0
   27.3085   10.5829   28.9172 C   0  0  0  0  0  0  0  0  0  0  0  0
   28.1220   11.6209   29.3816 N   0  0  0  0  0  0  0  0  0  0  0  0
   27.3355    9.4468   29.3633 O   0  0  0  0  0  0  0  0  0  0  0  0
   29.5485   11.3902   30.1986 S   0  0  0  0  0  0  0  0  0  0  0  0
   29.3379   10.1623   31.5154 C   0  0  0  0  0  0  0  0  0  0  0  0
   29.7917   12.6525   30.8696 O   0  0  0  0  0  0  0  0  0  0  0  0
   30.5148   10.8901   29.2457 O   0  0  0  0  0  0  0  0  0  0  0  0
   28.2374   10.4955   32.4541 C   0  0  0  0  0  0  0  0  0  0  0  0
   29.6847    8.7393   31.1625 C   0  0  0  0  0  0  0  0  0  0  0  0
   30.6284    9.5546   32.0102 C   0  0  0  0  0  0  0  0  0  0  0  0
   24.3396   10.2371   29.5401 C   0  0  0  0  0  0  0  0  0  0  0  0
   24.1644   11.2971   30.3747 F   0  0  0  0  0  0  0  0  0  0  0  0
   23.1115    9.6675   29.3839 F   0  0  0  0  0  0  0  0  0  0  0  0
   30.8396   15.6096   16.9818 H   0  0  0  0  0  0  0  0  0  0  0  0
   30.5120   16.9313   18.1015 H   0  0  0  0  0  0  0  0  0  0  0  0
   32.6504   16.7536   19.1311 H   0  0  0  0  0  0  0  0  0  0  0  0
   33.0757   16.1716   17.5147 H   0  0  0  0  0  0  0  0  0  0  0  0
   33.1729   14.7151   20.0199 H   0  0  0  0  0  0  0  0  0  0  0  0
   33.5277   14.0693   18.4317 H   0  0  0  0  0  0  0  0  0  0  0  0
   31.3682   13.2755   18.0568 H   0  0  0  0  0  0  0  0  0  0  0  0
   30.2016   15.3828   19.9681 H   0  0  0  0  0  0  0  0  0  0  0  0
   30.9602   11.2452   21.5149 H   0  0  0  0  0  0  0  0  0  0  0  0
   30.9175   10.9057   23.6695 H   0  0  0  0  0  0  0  0  0  0  0  0
   33.6051   12.2464   23.1951 H   0  0  0  0  0  0  0  0  0  0  0  0
   34.0048   12.3341   24.9116 H   0  0  0  0  0  0  0  0  0  0  0  0
   33.2311   10.8904   24.2611 H   0  0  0  0  0  0  0  0  0  0  0  0
   31.3062   11.0998   26.0030 H   0  0  0  0  0  0  0  0  0  0  0  0
   32.3224   12.3972   26.6335 H   0  0  0  0  0  0  0  0  0  0  0  0
   30.6255   12.7121   26.3064 H   0  0  0  0  0  0  0  0  0  0  0  0
   32.5834   14.4667   23.6140 H   0  0  0  0  0  0  0  0  0  0  0  0
   32.5920   14.4576   25.3586 H   0  0  0  0  0  0  0  0  0  0  0  0
   31.0606   14.6418   24.5156 H   0  0  0  0  0  0  0  0  0  0  0  0
   26.7620   13.3809   22.1577 H   0  0  0  0  0  0  0  0  0  0  0  0
   28.6087   15.3169   23.5791 H   0  0  0  0  0  0  0  0  0  0  0  0
   28.9351   14.1590   22.2808 H   0  0  0  0  0  0  0  0  0  0  0  0
   27.7482   14.2123   25.7657 H   0  0  0  0  0  0  0  0  0  0  0  0
   26.0709   12.3571   24.0599 H   0  0  0  0  0  0  0  0  0  0  0  0
   25.6371   13.8796   24.8333 H   0  0  0  0  0  0  0  0  0  0  0  0
   20.2450   15.4507   22.1390 H   0  0  0  0  0  0  0  0  0  0  0  0
   19.2212   16.3140   24.2250 H   0  0  0  0  0  0  0  0  0  0  0  0
   20.6775   16.9649   26.1368 H   0  0  0  0  0  0  0  0  0  0  0  0
   23.1362   16.7060   25.9413 H   0  0  0  0  0  0  0  0  0  0  0  0
   25.9530   16.2683   19.9899 H   0  0  0  0  0  0  0  0  0  0  0  0
   26.7624   13.5827   18.7438 H   0  0  0  0  0  0  0  0  0  0  0  0
   28.2759   16.2326   19.0523 H   0  0  0  0  0  0  0  0  0  0  0  0
   27.9158   15.6092   17.4227 H   0  0  0  0  0  0  0  0  0  0  0  0
   25.7940   12.7871   26.8301 H   0  0  0  0  0  0  0  0  0  0  0  0
   25.6706    8.8452   27.4816 H   0  0  0  0  0  0  0  0  0  0  0  0
   25.1840    9.9901   26.1665 H   0  0  0  0  0  0  0  0  0  0  0  0
   24.0444   11.4731   27.8455 H   0  0  0  0  0  0  0  0  0  0  0  0
   28.1453   12.4638   28.8202 H   0  0  0  0  0  0  0  0  0  0  0  0
   28.2117    9.8043   33.3021 H   0  0  0  0  0  0  0  0  0  0  0  0
   27.2647   10.4402   31.9572 H   0  0  0  0  0  0  0  0  0  0  0  0
   28.3558   11.5033   32.8589 H   0  0  0  0  0  0  0  0  0  0  0  0
   29.1188    7.9483   31.6408 H   0  0  0  0  0  0  0  0  0  0  0  0
   29.9788    8.5048   30.1462 H   0  0  0  0  0  0  0  0  0  0  0  0
   30.7164    9.3032   33.0598 H   0  0  0  0  0  0  0  0  0  0  0  0
   31.5683    9.8634   31.5630 H   0  0  0  0  0  0  0  0  0  0  0  0
   24.9988    9.5052   30.0174 H   0  0  0  0  0  0  0  0  0  0  0  0
  1  2  1  0
  2  3  1  0
  4  3  1  0
  4  5  1  0
  5  1  1  0
  4  6  1  0
  6  7  1  0
  7  8  1  0
  7  9  2  0
  8 10  1  0
 10 11  1  0
 10 12  1  0
 12 13  1  0
 12 14  1  0
 12 15  1  0
 11 16  2  0
 11 17  1  0
 19 17  1  0
 17 20  1  0
 18 19  1  0
 20 21  1  0
 18 21  1  0
 18 22  1  0
 22 23  1  0
 23 24  2  0
 28 23  1  0
 24 25  1  0
 26 27  1  0
 27 28  2  0
 26 29  1  0
 25 26  2  0
 32 25  1  0
 29 30  2  0
 30 31  1  0
 31 32  2  0
 28 33  1  0
 33 34  1  0
 34 35  2  0
 35 36  1  0
 36 37  1  0
  5 37  1  0
 33 38  1  0
 33 39  1  0
 20 40  1  0
 40 41  1  0
 40 42  2  0
 43 41  1  6
 43 44  1  0
 45 43  1  0
 44 45  1  0
 43 46  1  0
 46 47  1  0
 46 48  2  0
 47 49  1  0
 49 50  1  0
 49 51  2  0
 49 52  2  0
 50 53  1  0
 50 54  1  0
 55 50  1  0
 54 55  1  0
 45 56  1  0
 56 57  1  0
 56 58  1  0
  1 59  1  0
  1 60  1  0
  2 61  1  0
  2 62  1  0
  3 63  1  0
  3 64  1  0
  4 65  1  1
  5 66  1  6
  8 67  1  0
 10 68  1  1
 13 69  1  0
 13 70  1  0
 13 71  1  0
 14 72  1  0
 14 73  1  0
 14 74  1  0
 15 75  1  0
 15 76  1  0
 15 77  1  0
 18 78  1  1
 19 79  1  0
 19 80  1  0
 20 81  1  6
 21 82  1  0
 21 83  1  0
 29 84  1  0
 30 85  1  0
 31 86  1  0
 32 87  1  0
 34 88  1  0
 35 89  1  0
 36 90  1  0
 36 91  1  0
 41 92  1  0
 44 93  1  0
 44 94  1  0
 45 95  1  6
 47 96  1  0
 53 97  1  0
 53 98  1  0
 53 99  1  0
 54100  1  0
 54101  1  0
 55102  1  0
 55103  1  0
 56104  1  0
M  END
> <Uni-Dock RESULT> 
ENERGY=   -3.931  LOWER_BOUND=    3.878  UPPER_BOUND=   11.111
INTER + INTRA:          -3.931
INTER:                  -3.931
INTRA:                   0.000
UNBOUND:                 0.000

$$$$

     RDKit          3D

104110  0  0  0  0  0  0  0  0999 V2000
   21.5777   16.0316   22.7325 C   0  0  0  0  0  0  0  0  0  0  0  0
   20.8032   16.0309   24.0499 C   0  0  0  0  0  0  0  0  0  0  0  0
   21.7297   16.6613   25.0919 C   0  0  0  0  0  0  0  0  0  0  0  0
   23.0249   16.9831   24.3459 C   0  0  2  0  0  0  0  0  0  0  0  0
   23.0447   16.0068   23.1561 C   0  0  2  0  0  0  0  0  0  0  0  0
   24.1926   17.0107   25.1798 O   0  0  0  0  0  0  0  0  0  0  0  0
   24.6487   15.8659   25.7307 C   0  0  0  0  0  0  0  0  0  0  0  0
   25.7674   16.1514   26.4368 N   0  0  0  0  0  0  0  0  0  0  0  0
   24.1444   14.7671   25.5788 O   0  0  0  0  0  0  0  0  0  0  0  0
   26.7068   15.2042   27.0444 C   0  0  2  0  0  0  0  0  0  0  0  0
   27.6809   14.6577   25.9537 C   0  0  0  0  0  0  0  0  0  0  0  0
   26.1658   14.2873   28.1978 C   0  0  0  0  0  0  0  0  0  0  0  0
   25.5063   15.1817   29.2776 C   0  0  0  0  0  0  0  0  0  0  0  0
   27.3416   13.5635   28.8863 C   0  0  0  0  0  0  0  0  0  0  0  0
   25.1353   13.2222   27.7963 C   0  0  0  0  0  0  0  0  0  0  0  0
   28.5025   15.3929   25.4014 O   0  0  0  0  0  0  0  0  0  0  0  0
   27.4994   13.3404   25.5274 N   0  0  0  0  0  0  0  0  0  0  0  0
   27.7055   13.3292   23.1249 C   0  0  1  0  0  0  0  0  0  0  0  0
   26.7083   13.2827   24.3051 C   0  0  0  0  0  0  0  0  0  0  0  0
   28.7129   12.5864   25.2057 C   0  0  1  0  0  0  0  0  0  0  0  0
   29.0391   12.8866   23.7437 C   0  0  0  0  0  0  0  0  0  0  0  0
   27.1729   12.5119   22.0795 O   0  0  0  0  0  0  0  0  0  0  0  0
   28.0413   12.2544   21.0616 C   0  0  0  0  0  0  0  0  0  0  0  0
   28.6279   11.0363   21.1621 N   0  0  0  0  0  0  0  0  0  0  0  0
   29.4345   10.6557   20.1547 C   0  0  0  0  0  0  0  0  0  0  0  0
   29.6460   11.4862   19.0347 C   0  0  0  0  0  0  0  0  0  0  0  0
   29.0330   12.6783   18.9347 N   0  0  0  0  0  0  0  0  0  0  0  0
   28.1986   13.0689   19.9487 C   0  0  0  0  0  0  0  0  0  0  0  0
   30.4965   11.0578   18.0231 C   0  0  0  0  0  0  0  0  0  0  0  0
   31.1382    9.8199   18.0903 C   0  0  0  0  0  0  0  0  0  0  0  0
   30.9201    8.9935   19.1853 C   0  0  0  0  0  0  0  0  0  0  0  0
   30.0744    9.4220   20.2097 C   0  0  0  0  0  0  0  0  0  0  0  0
   27.5553   14.4430   19.8310 C   0  0  0  0  0  0  0  0  0  0  0  0
   26.0739   14.4879   20.1398 C   0  0  0  0  0  0  0  0  0  0  0  0
   25.4476   15.5782   20.6181 C   0  0  0  0  0  0  0  0  0  0  0  0
   24.0067   15.6470   20.9997 C   0  0  0  0  0  0  0  0  0  0  0  0
   23.9310   16.4809   22.1506 O   0  0  0  0  0  0  0  0  0  0  0  0
   27.7070   14.9668   18.5713 F   0  0  0  0  0  0  0  0  0  0  0  0
   28.2141   15.3359   20.6379 F   0  0  0  0  0  0  0  0  0  0  0  0
   29.9274   12.7243   26.1498 C   0  0  0  0  0  0  0  0  0  0  0  0
   31.0182   11.9428   25.8031 N   0  0  0  0  0  0  0  0  0  0  0  0
   29.9394   13.4076   27.1691 O   0  0  0  0  0  0  0  0  0  0  0  0
   32.3187   12.1753   26.4366 C   0  0  2  0  0  0  0  0  0  0  0  0
   33.1808   13.2877   25.8298 C   0  0  0  0  0  0  0  0  0  0  0  0
   33.5575   11.8503   25.5956 C   0  0  1  0  0  0  0  0  0  0  0  0
   32.4000   11.9728   27.9544 C   0  0  0  0  0  0  0  0  0  0  0  0
   31.4817   11.0594   28.4808 N   0  0  0  0  0  0  0  0  0  0  0  0
   33.2845   12.5011   28.6092 O   0  0  0  0  0  0  0  0  0  0  0  0
   31.1113   10.9380   30.0945 S   0  0  0  0  0  0  0  0  0  0  0  0
   32.6226   10.9089   31.0951 C   0  0  0  0  0  0  0  0  0  0  0  0
   30.5189    9.6218   30.2338 O   0  0  0  0  0  0  0  0  0  0  0  0
   30.3405   12.1093   30.4489 O   0  0  0  0  0  0  0  0  0  0  0  0
   33.5724    9.8435   30.6878 C   0  0  0  0  0  0  0  0  0  0  0  0
   33.0917   12.2354   31.6339 C   0  0  0  0  0  0  0  0  0  0  0  0
   32.4105   11.2505   32.5505 C   0  0  0  0  0  0  0  0  0  0  0  0
   34.7917   11.2722   26.1908 C   0  0  0  0  0  0  0  0  0  0  0  0
   34.6658    9.9176   26.1761 F   0  0  0  0  0  0  0  0  0  0  0  0
   35.8388   11.5668   25.3699 F   0  0  0  0  0  0  0  0  0  0  0  0
   21.3600   16.9397   22.1542 H   0  0  0  0  0  0  0  0  0  0  0  0
   21.3103   15.1783   22.0986 H   0  0  0  0  0  0  0  0  0  0  0  0
   20.5594   15.0050   24.3504 H   0  0  0  0  0  0  0  0  0  0  0  0
   19.8605   16.5808   23.9494 H   0  0  0  0  0  0  0  0  0  0  0  0
   21.8887   15.9795   25.9322 H   0  0  0  0  0  0  0  0  0  0  0  0
   21.2866   17.5699   25.5155 H   0  0  0  0  0  0  0  0  0  0  0  0
   22.9540   18.0046   23.9454 H   0  0  0  0  0  0  0  0  0  0  0  0
   23.3440   14.9961   23.4438 H   0  0  0  0  0  0  0  0  0  0  0  0
   26.1093   17.0912   26.2814 H   0  0  0  0  0  0  0  0  0  0  0  0
   27.3822   15.8912   27.5849 H   0  0  0  0  0  0  0  0  0  0  0  0
   24.6396   15.7230   28.8869 H   0  0  0  0  0  0  0  0  0  0  0  0
   25.1624   14.5863   30.1313 H   0  0  0  0  0  0  0  0  0  0  0  0
   26.2106   15.9244   29.6656 H   0  0  0  0  0  0  0  0  0  0  0  0
   28.1458   14.2640   29.1351 H   0  0  0  0  0  0  0  0  0  0  0  0
   27.0225   13.0888   29.8211 H   0  0  0  0  0  0  0  0  0  0  0  0
   27.7500   12.7736   28.2536 H   0  0  0  0  0  0  0  0  0  0  0  0
   24.1485   13.6548   27.6101 H   0  0  0  0  0  0  0  0  0  0  0  0
   24.9913   12.4988   28.6088 H   0  0  0  0  0  0  0  0  0  0  0  0
   25.4437   12.6522   26.9172 H   0  0  0  0  0  0  0  0  0  0  0  0
   27.7913   14.3622   22.7708 H   0  0  0  0  0  0  0  0  0  0  0  0
   26.1378   12.3474   24.3153 H   0  0  0  0  0  0  0  0  0  0  0  0
   26.0032   14.1093   24.2136 H   0  0  0  0  0  0  0  0  0  0  0  0
   28.4068   11.5318   25.2790 H   0  0  0  0  0  0  0  0  0  0  0  0
   29.7666   13.7085   23.6735 H   0  0  0  0  0  0  0  0  0  0  0  0
   29.4956   12.0139   23.2743 H   0  0  0  0  0  0  0  0  0  0  0  0
   30.6634   11.7045   17.1633 H   0  0  0  0  0  0  0  0  0  0  0  0
   31.7986    9.5043   17.2861 H   0  0  0  0  0  0  0  0  0  0  0  0
   31.4058    8.0207   19.2467 H   0  0  0  0  0  0  0  0  0  0  0  0
   29.9091    8.7812   21.0721 H   0  0  0  0  0  0  0  0  0  0  0  0
   25.5130   13.5760   19.9633 H   0  0  0  0  0  0  0  0  0  0  0  0
   26.0200   16.4943   20.7677 H   0  0  0  0  0  0  0  0  0  0  0  0
   23.6091   14.6460   21.1907 H   0  0  0  0  0  0  0  0  0  0  0  0
   23.4268   16.1190   20.2054 H   0  0  0  0  0  0  0  0  0  0  0  0
   31.0205   11.4994   24.8915 H   0  0  0  0  0  0  0  0  0  0  0  0
   33.7943   13.8915   26.4923 H   0  0  0  0  0  0  0  0  0  0  0  0
   32.7761   13.8538   24.9960 H   0  0  0  0  0  0  0  0  0  0  0  0
   33.4138   11.4564   24.5927 H   0  0  0  0  0  0  0  0  0  0  0  0
   30.6866   10.8289   27.8969 H   0  0  0  0  0  0  0  0  0  0  0  0
   34.4157    9.7726   31.3815 H   0  0  0  0  0  0  0  0  0  0  0  0
   33.9823   10.0397   29.6930 H   0  0  0  0  0  0  0  0  0  0  0  0
   33.0842    8.8663   30.6678 H   0  0  0  0  0  0  0  0  0  0  0  0
   34.1593   12.3859   31.7452 H   0  0  0  0  0  0  0  0  0  0  0  0
   32.5560   13.1359   31.3577 H   0  0  0  0  0  0  0  0  0  0  0  0
   33.0136   10.7478   33.2962 H   0  0  0  0  0  0  0  0  0  0  0  0
   31.4122   11.4950   32.9001 H   0  0  0  0  0  0  0  0  0  0  0  0
   35.0465   11.6014   27.2030 H   0  0  0  0  0  0  0  0  0  0  0  0
  1  2  1  0
  2  3  1  0
  4  3  1  0
  4  5  1  0
  5  1  1  0
  4  6  1  0
  6  7  1  0
  7  8  1  0
  7  9  2  0
  8 10  1  0
 10 11  1  0
 10 12  1  0
 12 13  1  0
 12 14  1  0
 12 15  1  0
 11 16  2  0
 11 17  1  0
 19 17  1  0
 17 20  1  0
 18 19  1  0
 20 21  1  0
 18 21  1  0
 18 22  1  0
 22 23  1  0
 23 24  2  0
 28 23  1  0
 24 25  1  0
 26 27  1  0
 27 28  2  0
 26 29  1  0
 25 26  2  0
 32 25  1  0
 29 30  2  0
 30 31  1  0
 31 32  2  0
 28 33  1  0
 33 34  1  0
 34 35  2  0
 35 36  1  0
 36 37  1  0
  5 37  1  0
 33 38  1  0
 33 39  1  0
 20 40  1  0
 40 41  1  0
 40 42  2  0
 43 41  1  6
 43 44  1  0
 45 43  1  0
 44 45  1  0
 43 46  1  0
 46 47  1  0
 46 48  2  0
 47 49  1  0
 49 50  1  0
 49 51  2  0
 49 52  2  0
 50 53  1  0
 50 54  1  0
 55 50  1  0
 54 55  1  0
 45 56  1  0
 56 57  1  0
 56 58  1  0
  1 59  1  0
  1 60  1  0
  2 61  1  0
  2 62  1  0
  3 63  1  0
  3 64  1  0
  4 65  1  1
  5 66  1  6
  8 67  1  0
 10 68  1  1
 13 69  1  0
 13 70  1  0
 13 71  1  0
 14 72  1  0
 14 73  1  0
 14 74  1  0
 15 75  1  0
 15 76  1  0
 15 77  1  0
 18 78  1  1
 19 79  1  0
 19 80  1  0
 20 81  1  6
 21 82  1  0
 21 83  1  0
 29 84  1  0
 30 85  1  0
 31 86  1  0
 32 87  1  0
 34 88  1  0
 35 89  1  0
 36 90  1  0
 36 91  1  0
 41 92  1  0
 44 93  1  0
 44 94  1  0
 45 95  1  6
 47 96  1  0
 53 97  1  0
 53 98  1  0
 53 99  1  0
 54100  1  0
 54101  1  0
 55102  1  0
 55103  1  0
 56104  1  0
M  END
> <Uni-Dock RESULT> 
ENERGY=   -3.890  LOWER_BOUND=    3.956  UPPER_BOUND=    9.590
INTER + INTRA:          -3.890
INTER:                  -3.890
INTRA:                   0.000
UNBOUND:                 0.000

$$$$

     RDKit          3D

104110  0  0  0  0  0  0  0  0999 V2000
   24.5278    7.4702   30.8553 C   0  0  0  0  0  0  0  0  0  0  0  0
   24.1797    5.9953   30.6585 C   0  0  0  0  0  0  0  0  0  0  0  0
   25.0923    5.2100   31.6029 C   0  0  0  0  0  0  0  0  0  0  0  0
   25.9604    6.2589   32.2985 C   0  0  2  0  0  0  0  0  0  0  0  0
   25.9787    7.4562   31.3315 C   0  0  2  0  0  0  0  0  0  0  0  0
   27.2331    5.7674   32.7441 O   0  0  0  0  0  0  0  0  0  0  0  0
   28.1688    5.4145   31.8376 C   0  0  0  0  0  0  0  0  0  0  0  0
   29.2783    5.0204   32.5048 N   0  0  0  0  0  0  0  0  0  0  0  0
   28.0308    5.4787   30.6285 O   0  0  0  0  0  0  0  0  0  0  0  0
   30.6025    4.7327   31.9456 C   0  0  2  0  0  0  0  0  0  0  0  0
   31.3714    6.0692   31.7015 C   0  0  0  0  0  0  0  0  0  0  0  0
   30.7219    3.5222   30.9536 C   0  0  0  0  0  0  0  0  0  0  0  0
   30.1212    2.2635   31.6288 C   0  0  0  0  0  0  0  0  0  0  0  0
   32.2087    3.2090   30.6863 C   0  0  0  0  0  0  0  0  0  0  0  0
   30.0291    3.6842   29.5930 C   0  0  0  0  0  0  0  0  0  0  0  0
   31.7270    6.7851   32.6403 O   0  0  0  0  0  0  0  0  0  0  0  0
   31.5237    6.4944   30.3800 N   0  0  0  0  0  0  0  0  0  0  0  0
   31.0696    8.8621   30.3316 C   0  0  1  0  0  0  0  0  0  0  0  0
   30.4979    7.4618   30.0126 C   0  0  0  0  0  0  0  0  0  0  0  0
   32.7837    7.1649   30.0524 C   0  0  1  0  0  0  0  0  0  0  0  0
   32.5888    8.6448   30.3784 C   0  0  0  0  0  0  0  0  0  0  0  0
   30.5741    9.7650   29.3398 O   0  0  0  0  0  0  0  0  0  0  0  0
   31.1722   10.9893   29.3369 C   0  0  0  0  0  0  0  0  0  0  0  0
   32.1293   11.1083   28.3841 N   0  0  0  0  0  0  0  0  0  0  0  0
   32.7145   12.3119   28.2452 C   0  0  0  0  0  0  0  0  0  0  0  0
   32.3338   13.4063   29.0491 C   0  0  0  0  0  0  0  0  0  0  0  0
   31.3614   13.2811   29.9687 N   0  0  0  0  0  0  0  0  0  0  0  0
   30.7495   12.0632   30.1082 C   0  0  0  0  0  0  0  0  0  0  0  0
   32.9732   14.6279   28.8793 C   0  0  0  0  0  0  0  0  0  0  0  0
   33.9778   14.7946   27.9245 C   0  0  0  0  0  0  0  0  0  0  0  0
   34.3444   13.7223   27.1211 C   0  0  0  0  0  0  0  0  0  0  0  0
   33.7128   12.4895   27.2932 C   0  0  0  0  0  0  0  0  0  0  0  0
   29.6853   11.9382   31.1888 C   0  0  0  0  0  0  0  0  0  0  0  0
   28.4113   11.2425   30.7589 C   0  0  0  0  0  0  0  0  0  0  0  0
   27.6153   10.5621   31.6035 C   0  0  0  0  0  0  0  0  0  0  0  0
   26.3896    9.8061   31.2127 C   0  0  0  0  0  0  0  0  0  0  0  0
   26.3568    8.6382   32.0254 O   0  0  0  0  0  0  0  0  0  0  0  0
   29.3135   13.1658   31.6775 F   0  0  0  0  0  0  0  0  0  0  0  0
   30.2065   11.2949   32.2828 F   0  0  0  0  0  0  0  0  0  0  0  0
   34.0923    6.5747   30.6221 C   0  0  0  0  0  0  0  0  0  0  0  0
   35.2433    7.2379   30.2271 N   0  0  0  0  0  0  0  0  0  0  0  0
   34.1528    5.5641   31.3157 O   0  0  0  0  0  0  0  0  0  0  0  0
   36.5154    6.9649   30.9007 C   0  0  2  0  0  0  0  0  0  0  0  0
   36.7697    7.7259   32.2066 C   0  0  0  0  0  0  0  0  0  0  0  0
   37.5186    8.1213   30.9633 C   0  0  1  0  0  0  0  0  0  0  0  0
   37.0625    5.5358   30.8030 C   0  0  0  0  0  0  0  0  0  0  0  0
   36.6707    4.8275   29.6630 N   0  0  0  0  0  0  0  0  0  0  0  0
   37.8667    5.1167   31.6203 O   0  0  0  0  0  0  0  0  0  0  0  0
   36.8077    3.1813   29.4978 S   0  0  0  0  0  0  0  0  0  0  0  0
   38.4550    2.6241   30.0099 C   0  0  0  0  0  0  0  0  0  0  0  0
   36.7391    2.9522   28.0676 O   0  0  0  0  0  0  0  0  0  0  0  0
   35.8211    2.5776   30.3660 O   0  0  0  0  0  0  0  0  0  0  0  0
   39.5550    3.3215   29.2980 C   0  0  0  0  0  0  0  0  0  0  0  0
   38.5904    2.1672   31.4391 C   0  0  0  0  0  0  0  0  0  0  0  0
   38.5414    1.1504   30.3266 C   0  0  0  0  0  0  0  0  0  0  0  0
   38.9858    7.9066   30.8486 C   0  0  0  0  0  0  0  0  0  0  0  0
   39.3111    7.9523   29.5284 F   0  0  0  0  0  0  0  0  0  0  0  0
   39.6178    8.9625   31.4340 F   0  0  0  0  0  0  0  0  0  0  0  0
   23.8782    7.9247   31.6155 H   0  0  0  0  0  0  0  0  0  0  0  0
   24.3948    8.0498   29.9345 H   0  0  0  0  0  0  0  0  0  0  0  0
   24.3752    5.6902   29.6236 H   0  0  0  0  0  0  0  0  0  0  0  0
   23.1187    5.8133   30.8639 H   0  0  0  0  0  0  0  0  0  0  0  0
   25.6850    4.4767   31.0486 H   0  0  0  0  0  0  0  0  0  0  0  0
   24.5072    4.6400   32.3336 H   0  0  0  0  0  0  0  0  0  0  0  0
   25.4544    6.5761   33.2217 H   0  0  0  0  0  0  0  0  0  0  0  0
   26.6579    7.3081   30.4885 H   0  0  0  0  0  0  0  0  0  0  0  0
   29.2389    5.2162   33.4969 H   0  0  0  0  0  0  0  0  0  0  0  0
   31.1346    4.3601   32.8391 H   0  0  0  0  0  0  0  0  0  0  0  0
   29.0540    2.3816   31.8383 H   0  0  0  0  0  0  0  0  0  0  0  0
   30.2335    1.3786   30.9917 H   0  0  0  0  0  0  0  0  0  0  0  0
   30.6203    2.0428   32.5777 H   0  0  0  0  0  0  0  0  0  0  0  0
   32.7749    3.1510   31.6221 H   0  0  0  0  0  0  0  0  0  0  0  0
   32.3258    2.2470   30.1748 H   0  0  0  0  0  0  0  0  0  0  0  0
   32.6676    3.9653   30.0471 H   0  0  0  0  0  0  0  0  0  0  0  0
   28.9435    3.5785   29.6694 H   0  0  0  0  0  0  0  0  0  0  0  0
   30.3533    2.8986   28.8988 H   0  0  0  0  0  0  0  0  0  0  0  0
   30.2592    4.6402   29.1176 H   0  0  0  0  0  0  0  0  0  0  0  0
   30.7143    9.1761   31.3190 H   0  0  0  0  0  0  0  0  0  0  0  0
   30.2899    7.3445   28.9433 H   0  0  0  0  0  0  0  0  0  0  0  0
   29.5640    7.3214   30.5574 H   0  0  0  0  0  0  0  0  0  0  0  0
   32.8712    7.0634   28.9599 H   0  0  0  0  0  0  0  0  0  0  0  0
   32.9601    8.8673   31.3895 H   0  0  0  0  0  0  0  0  0  0  0  0
   33.1621    9.2606   29.6840 H   0  0  0  0  0  0  0  0  0  0  0  0
   32.6821   15.4688   29.5066 H   0  0  0  0  0  0  0  0  0  0  0  0
   34.4637   15.7604   27.8079 H   0  0  0  0  0  0  0  0  0  0  0  0
   35.1194   13.8400   26.3651 H   0  0  0  0  0  0  0  0  0  0  0  0
   34.0041   11.6463   26.6722 H   0  0  0  0  0  0  0  0  0  0  0  0
   28.1542   11.3063   29.7068 H   0  0  0  0  0  0  0  0  0  0  0  0
   27.8742   10.5272   32.6623 H   0  0  0  0  0  0  0  0  0  0  0  0
   26.4083    9.5642   30.1461 H   0  0  0  0  0  0  0  0  0  0  0  0
   25.4966   10.3926   31.4331 H   0  0  0  0  0  0  0  0  0  0  0  0
   35.1460    8.1371   29.7694 H   0  0  0  0  0  0  0  0  0  0  0  0
   37.3056    7.2234   33.0067 H   0  0  0  0  0  0  0  0  0  0  0  0
   35.9940    8.3927   32.5715 H   0  0  0  0  0  0  0  0  0  0  0  0
   37.2483    9.0669   30.5005 H   0  0  0  0  0  0  0  0  0  0  0  0
   35.8691    5.1879   29.1592 H   0  0  0  0  0  0  0  0  0  0  0  0
   40.5284    2.8830   29.5381 H   0  0  0  0  0  0  0  0  0  0  0  0
   39.5953    4.3790   29.5739 H   0  0  0  0  0  0  0  0  0  0  0  0
   39.4271    3.2573   28.2149 H   0  0  0  0  0  0  0  0  0  0  0  0
   39.5383    2.3384   31.9361 H   0  0  0  0  0  0  0  0  0  0  0  0
   37.7362    2.2463   32.1012 H   0  0  0  0  0  0  0  0  0  0  0  0
   39.4524    0.6182   30.0826 H   0  0  0  0  0  0  0  0  0  0  0  0
   37.6507    0.5351   30.2453 H   0  0  0  0  0  0  0  0  0  0  0  0
   39.3804    6.9847   31.2873 H   0  0  0  0  0  0  0  0  0  0  0  0
  1  2  1  0
  2  3  1  0
  4  3  1  0
  4  5  1  0
  5  1  1  0
  4  6  1  0
  6  7  1  0
  7  8  1  0
  7  9  2  0
  8 10  1  0
 10 11  1  0
 10 12  1  0
 12 13  1  0
 12 14  1  0
 12 15  1  0
 11 16  2  0
 11 17  1  0
 19 17  1  0
 17 20  1  0
 18 19  1  0
 20 21  1  0
 18 21  1  0
 18 22  1  0
 22 23  1  0
 23 24  2  0
 28 23  1  0
 24 25  1  0
 26 27  1  0
 27 28  2  0
 26 29  1  0
 25 26  2  0
 32 25  1  0
 29 30  2  0
 30 31  1  0
 31 32  2  0
 28 33  1  0
 33 34  1  0
 34 35  2  0
 35 36  1  0
 36 37  1  0
  5 37  1  0
 33 38  1  0
 33 39  1  0
 20 40  1  0
 40 41  1  0
 40 42  2  0
 43 41  1  6
 43 44  1  0
 45 43  1  0
 44 45  1  0
 43 46  1  0
 46 47  1  0
 46 48  2  0
 47 49  1  0
 49 50  1  0
 49 51  2  0
 49 52  2  0
 50 53  1  0
 50 54  1  0
 55 50  1  0
 54 55  1  0
 45 56  1  0
 56 57  1  0
 56 58  1  0
  1 59  1  0
  1 60  1  0
  2 61  1  0
  2 62  1  0
  3 63  1  0
  3 64  1  0
  4 65  1  1
  5 66  1  6
  8 67  1  0
 10 68  1  1
 13 69  1  0
 13 70  1  0
 13 71  1  0
 14 72  1  0
 14 73  1  0
 14 74  1  0
 15 75  1  0
 15 76  1  0
 15 77  1  0
 18 78  1  1
 19 79  1  0
 19 80  1  0
 20 81  1  6
 21 82  1  0
 21 83  1  0
 29 84  1  0
 30 85  1  0
 31 86  1  0
 32 87  1  0
 34 88  1  0
 35 89  1  0
 36 90  1  0
 36 91  1  0
 41 92  1  0
 44 93  1  0
 44 94  1  0
 45 95  1  6
 47 96  1  0
 53 97  1  0
 53 98  1  0
 53 99  1  0
 54100  1  0
 54101  1  0
 55102  1  0
 55103  1  0
 56104  1  0
M  END
> <Uni-Dock RESULT> 
ENERGY=   -3.863  LOWER_BOUND=    6.065  UPPER_BOUND=   11.138
INTER + INTRA:          -3.863
INTER:                  -3.863
INTRA:                   0.000
UNBOUND:                 0.000

$$$$
