
     RDKit          3D

104110  0  0  0  0  0  0  0  0999 V2000
   29.6906   11.0693   32.8580 C   0  0  0  0  0  0  0  0  0  0  0  0
   28.1767   10.9059   32.9846 C   0  0  0  0  0  0  0  0  0  0  0  0
   27.6749   10.5107   31.5977 C   0  0  0  0  0  0  0  0  0  0  0  0
   28.9302   10.3353   30.7460 C   0  0  2  0  0  0  0  0  0  0  0  0
   29.9307   11.3284   31.3643 C   0  0  2  0  0  0  0  0  0  0  0  0
   28.6363   10.3873   29.3431 O   0  0  0  0  0  0  0  0  0  0  0  0
   28.4515   11.5622   28.7030 C   0  0  0  0  0  0  0  0  0  0  0  0
   28.1432   11.2815   27.4070 N   0  0  0  0  0  0  0  0  0  0  0  0
   28.5535   12.6651   29.2013 O   0  0  0  0  0  0  0  0  0  0  0  0
   28.4765   12.1402   26.2604 C   0  0  2  0  0  0  0  0  0  0  0  0
   30.0213   11.9922   26.0991 C   0  0  0  0  0  0  0  0  0  0  0  0
   27.7524   13.5275   26.1539 C   0  0  0  0  0  0  0  0  0  0  0  0
   26.2613   13.3637   26.5365 C   0  0  0  0  0  0  0  0  0  0  0  0
   27.7751   13.9956   24.6749 C   0  0  0  0  0  0  0  0  0  0  0  0
   28.3376   14.6681   27.0078 C   0  0  0  0  0  0  0  0  0  0  0  0
   30.6072   10.9669   26.4680 O   0  0  0  0  0  0  0  0  0  0  0  0
   30.7249   13.0297   25.4744 N   0  0  0  0  0  0  0  0  0  0  0  0
   33.0052   12.5241   26.0135 C   0  0  1  0  0  0  0  0  0  0  0  0
   31.8287   13.4837   26.3100 C   0  0  0  0  0  0  0  0  0  0  0  0
   31.3927   12.6821   24.2197 C   0  0  1  0  0  0  0  0  0  0  0  0
   32.6998   11.9873   24.6035 C   0  0  0  0  0  0  0  0  0  0  0  0
   34.3236   13.0664   26.0024 O   0  0  0  0  0  0  0  0  0  0  0  0
   34.5603   13.9642   26.9978 C   0  0  0  0  0  0  0  0  0  0  0  0
   34.5014   15.2474   26.5714 N   0  0  0  0  0  0  0  0  0  0  0  0
   34.7657   16.2076   27.4738 C   0  0  0  0  0  0  0  0  0  0  0  0
   35.0883   15.8894   28.8112 C   0  0  0  0  0  0  0  0  0  0  0  0
   35.1370   14.6107   29.2256 N   0  0  0  0  0  0  0  0  0  0  0  0
   34.8831   13.6263   28.3046 C   0  0  0  0  0  0  0  0  0  0  0  0
   35.3497   16.9207   29.7050 C   0  0  0  0  0  0  0  0  0  0  0  0
   35.3054   18.2564   29.3022 C   0  0  0  0  0  0  0  0  0  0  0  0
   35.0006   18.5649   27.9806 C   0  0  0  0  0  0  0  0  0  0  0  0
   34.7262   17.5396   27.0797 C   0  0  0  0  0  0  0  0  0  0  0  0
   34.9374   12.1876   28.7981 C   0  0  0  0  0  0  0  0  0  0  0  0
   33.6709   11.8331   29.5543 C   0  0  0  0  0  0  0  0  0  0  0  0
   33.4549   12.1334   30.8494 C   0  0  0  0  0  0  0  0  0  0  0  0
   32.2262   11.8537   31.6626 C   0  0  0  0  0  0  0  0  0  0  0  0
   31.2724   11.0688   30.9473 O   0  0  0  0  0  0  0  0  0  0  0  0
   35.1170   11.2796   27.7928 F   0  0  0  0  0  0  0  0  0  0  0  0
   36.0208   11.9842   29.6179 F   0  0  0  0  0  0  0  0  0  0  0  0
   30.5782   11.9569   23.1316 C   0  0  0  0  0  0  0  0  0  0  0  0
   31.2144   11.9553   21.8997 N   0  0  0  0  0  0  0  0  0  0  0  0
   29.4756   11.4580   23.3357 O   0  0  0  0  0  0  0  0  0  0  0  0
   30.6378   11.5531   20.6112 C   0  0  2  0  0  0  0  0  0  0  0  0
   29.1315   11.3405   20.4282 C   0  0  0  0  0  0  0  0  0  0  0  0
   30.0537   10.1532   20.4815 C   0  0  1  0  0  0  0  0  0  0  0  0
   31.3150   12.2385   19.4320 C   0  0  0  0  0  0  0  0  0  0  0  0
   31.1530   13.6286   19.4558 N   0  0  0  0  0  0  0  0  0  0  0  0
   31.9942   11.6353   18.6187 O   0  0  0  0  0  0  0  0  0  0  0  0
   31.4954   14.6414   18.1909 S   0  0  0  0  0  0  0  0  0  0  0  0
   33.0931   14.2322   17.4567 C   0  0  0  0  0  0  0  0  0  0  0  0
   30.4507   14.4334   17.2102 O   0  0  0  0  0  0  0  0  0  0  0  0
   31.6613   15.9457   18.8054 O   0  0  0  0  0  0  0  0  0  0  0  0
   34.2122   14.1985   18.4320 C   0  0  0  0  0  0  0  0  0  0  0  0
   33.2950   14.8047   16.0750 C   0  0  0  0  0  0  0  0  0  0  0  0
   33.0571   13.3257   16.2511 C   0  0  0  0  0  0  0  0  0  0  0  0
   30.2459    9.2868   19.2901 C   0  0  0  0  0  0  0  0  0  0  0  0
   31.5459    8.9183   19.2143 F   0  0  0  0  0  0  0  0  0  0  0  0
   29.9397    9.9527   18.1505 F   0  0  0  0  0  0  0  0  0  0  0  0
   30.2024   10.1528   33.1772 H   0  0  0  0  0  0  0  0  0  0  0  0
   30.0664   11.8784   33.4914 H   0  0  0  0  0  0  0  0  0  0  0  0
   27.7109   11.8468   33.2982 H   0  0  0  0  0  0  0  0  0  0  0  0
   27.9212   10.1501   33.7350 H   0  0  0  0  0  0  0  0  0  0  0  0
   27.0816    9.5903   31.6256 H   0  0  0  0  0  0  0  0  0  0  0  0
   27.0228   11.2904   31.1898 H   0  0  0  0  0  0  0  0  0  0  0  0
   29.3239    9.3211   30.8975 H   0  0  0  0  0  0  0  0  0  0  0  0
   29.6859   12.3671   31.1274 H   0  0  0  0  0  0  0  0  0  0  0  0
   28.2850   10.2931   27.2316 H   0  0  0  0  0  0  0  0  0  0  0  0
   28.0835   11.5440   25.4233 H   0  0  0  0  0  0  0  0  0  0  0  0
   25.7039   14.2927   26.3659 H   0  0  0  0  0  0  0  0  0  0  0  0
   25.7821   12.5772   25.9416 H   0  0  0  0  0  0  0  0  0  0  0  0
   26.1336   13.1106   27.5941 H   0  0  0  0  0  0  0  0  0  0  0  0
   28.7860   14.2423   24.3425 H   0  0  0  0  0  0  0  0  0  0  0  0
   27.3713   13.2280   24.0053 H   0  0  0  0  0  0  0  0  0  0  0  0
   27.1675   14.8975   24.5363 H   0  0  0  0  0  0  0  0  0  0  0  0
   29.4253   14.7219   26.9477 H   0  0  0  0  0  0  0  0  0  0  0  0
   27.9525   15.6392   26.6715 H   0  0  0  0  0  0  0  0  0  0  0  0
   28.0592   14.5942   28.0606 H   0  0  0  0  0  0  0  0  0  0  0  0
   32.9944   11.6764   26.7026 H   0  0  0  0  0  0  0  0  0  0  0  0
   31.5572   13.4744   27.3734 H   0  0  0  0  0  0  0  0  0  0  0  0
   32.0451   14.5166   26.0174 H   0  0  0  0  0  0  0  0  0  0  0  0
   31.6438   13.6557   23.7704 H   0  0  0  0  0  0  0  0  0  0  0  0
   33.4915   12.1856   23.8738 H   0  0  0  0  0  0  0  0  0  0  0  0
   32.5573   10.9012   24.6365 H   0  0  0  0  0  0  0  0  0  0  0  0
   35.5901   16.6730   30.7357 H   0  0  0  0  0  0  0  0  0  0  0  0
   35.5194   19.0433   30.0185 H   0  0  0  0  0  0  0  0  0  0  0  0
   34.9727   19.6013   27.6562 H   0  0  0  0  0  0  0  0  0  0  0  0
   34.4829   17.7803   26.0469 H   0  0  0  0  0  0  0  0  0  0  0  0
   32.9135   11.2881   28.9970 H   0  0  0  0  0  0  0  0  0  0  0  0
   34.2366   12.6687   31.3941 H   0  0  0  0  0  0  0  0  0  0  0  0
   31.7981   12.8209   31.9573 H   0  0  0  0  0  0  0  0  0  0  0  0
   32.5155   11.3054   32.5686 H   0  0  0  0  0  0  0  0  0  0  0  0
   32.1458   12.3596   21.8480 H   0  0  0  0  0  0  0  0  0  0  0  0
   28.6850   11.6040   19.4710 H   0  0  0  0  0  0  0  0  0  0  0  0
   28.4493   11.4978   21.2541 H   0  0  0  0  0  0  0  0  0  0  0  0
   30.0328    9.5422   21.3780 H   0  0  0  0  0  0  0  0  0  0  0  0
   30.4834   14.0388   20.1020 H   0  0  0  0  0  0  0  0  0  0  0  0
   34.1198   13.3468   19.1091 H   0  0  0  0  0  0  0  0  0  0  0  0
   35.1781   14.1023   17.9257 H   0  0  0  0  0  0  0  0  0  0  0  0
   34.2456   15.1133   19.0294 H   0  0  0  0  0  0  0  0  0  0  0  0
   32.4982   15.3963   15.6334 H   0  0  0  0  0  0  0  0  0  0  0  0
   34.2894   15.1290   15.7935 H   0  0  0  0  0  0  0  0  0  0  0  0
   33.8864   12.6448   16.0954 H   0  0  0  0  0  0  0  0  0  0  0  0
   32.1036   12.9170   15.9279 H   0  0  0  0  0  0  0  0  0  0  0  0
   29.6290    8.3841   19.3379 H   0  0  0  0  0  0  0  0  0  0  0  0
  1  2  1  0
  2  3  1  0
  4  3  1  0
  4  5  1  0
  5  1  1  0
  4  6  1  0
  6  7  1  0
  7  8  1  0
  7  9  2  0
  8 10  1  0
 10 11  1  0
 10 12  1  0
 12 13  1  0
 12 14  1  0
 12 15  1  0
 11 16  2  0
 11 17  1  0
 19 17  1  0
 17 20  1  0
 18 19  1  0
 20 21  1  0
 18 21  1  0
 18 22  1  0
 22 23  1  0
 23 24  2  0
 28 23  1  0
 24 25  1  0
 26 27  1  0
 27 28  2  0
 26 29  1  0
 25 26  2  0
 32 25  1  0
 29 30  2  0
 30 31  1  0
 31 32  2  0
 28 33  1  0
 33 34  1  0
 34 35  2  0
 35 36  1  0
 36 37  1  0
  5 37  1  0
 33 38  1  0
 33 39  1  0
 20 40  1  0
 40 41  1  0
 40 42  2  0
 43 41  1  1
 43 44  1  0
 45 43  1  0
 44 45  1  0
 43 46  1  0
 46 47  1  0
 46 48  2  0
 47 49  1  0
 49 50  1  0
 49 51  2  0
 49 52  2  0
 50 53  1  0
 50 54  1  0
 55 50  1  0
 54 55  1  0
 45 56  1  0
 56 57  1  0
 56 58  1  0
  1 59  1  0
  1 60  1  0
  2 61  1  0
  2 62  1  0
  3 63  1  0
  3 64  1  0
  4 65  1  1
  5 66  1  6
  8 67  1  0
 10 68  1  1
 13 69  1  0
 13 70  1  0
 13 71  1  0
 14 72  1  0
 14 73  1  0
 14 74  1  0
 15 75  1  0
 15 76  1  0
 15 77  1  0
 18 78  1  1
 19 79  1  0
 19 80  1  0
 20 81  1  6
 21 82  1  0
 21 83  1  0
 29 84  1  0
 30 85  1  0
 31 86  1  0
 32 87  1  0
 34 88  1  0
 35 89  1  0
 36 90  1  0
 36 91  1  0
 41 92  1  0
 44 93  1  0
 44 94  1  0
 45 95  1  1
 47 96  1  0
 53 97  1  0
 53 98  1  0
 53 99  1  0
 54100  1  0
 54101  1  0
 55102  1  0
 55103  1  0
 56104  1  0
M  END
> <Uni-Dock RESULT> 
ENERGY=   -4.142  LOWER_BOUND=    0.000  UPPER_BOUND=    0.000
INTER + INTRA:          -4.142
INTER:                  -4.142
INTRA:                   0.000
UNBOUND:                 0.000

$$$$

     RDKit          3D

104110  0  0  0  0  0  0  0  0999 V2000
   25.4950    0.8256   35.3585 C   0  0  0  0  0  0  0  0  0  0  0  0
   24.6059    1.6072   36.3245 C   0  0  0  0  0  0  0  0  0  0  0  0
   24.3898    2.9781   35.6878 C   0  0  0  0  0  0  0  0  0  0  0  0
   25.0564    2.8990   34.3163 C   0  0  2  0  0  0  0  0  0  0  0  0
   26.2095    1.9017   34.5295 C   0  0  2  0  0  0  0  0  0  0  0  0
   25.3197    4.2003   33.7736 O   0  0  0  0  0  0  0  0  0  0  0  0
   26.3849    4.9293   34.1711 C   0  0  0  0  0  0  0  0  0  0  0  0
   26.3339    6.1233   33.5190 N   0  0  0  0  0  0  0  0  0  0  0  0
   27.2344    4.5710   34.9618 O   0  0  0  0  0  0  0  0  0  0  0  0
   27.5087    6.9213   33.1366 C   0  0  2  0  0  0  0  0  0  0  0  0
   28.1592    6.1207   31.9661 C   0  0  0  0  0  0  0  0  0  0  0  0
   28.3600    7.5627   34.2874 C   0  0  0  0  0  0  0  0  0  0  0  0
   27.4159    8.1260   35.3773 C   0  0  0  0  0  0  0  0  0  0  0  0
   29.1435    8.7751   33.7189 C   0  0  0  0  0  0  0  0  0  0  0  0
   29.3797    6.6368   34.9769 C   0  0  0  0  0  0  0  0  0  0  0  0
   27.4798    5.3843   31.2402 O   0  0  0  0  0  0  0  0  0  0  0  0
   29.5268    6.2979   31.7214 N   0  0  0  0  0  0  0  0  0  0  0  0
   30.0463    4.4681   30.2626 C   0  0  1  0  0  0  0  0  0  0  0  0
   30.2195    5.0163   31.6987 C   0  0  0  0  0  0  0  0  0  0  0  0
   29.8726    6.8738   30.4214 C   0  0  1  0  0  0  0  0  0  0  0  0
   29.8101    5.7281   29.4105 C   0  0  0  0  0  0  0  0  0  0  0  0
   31.1319    3.7447   29.6879 O   0  0  0  0  0  0  0  0  0  0  0  0
   31.7456    2.8901   30.5517 C   0  0  0  0  0  0  0  0  0  0  0  0
   32.9070    3.3834   31.0409 N   0  0  0  0  0  0  0  0  0  0  0  0
   33.6100    2.5924   31.8695 C   0  0  0  0  0  0  0  0  0  0  0  0
   33.1530    1.3022   32.2163 C   0  0  0  0  0  0  0  0  0  0  0  0
   31.9935    0.8249   31.7296 N   0  0  0  0  0  0  0  0  0  0  0  0
   31.2798    1.6223   30.8713 C   0  0  0  0  0  0  0  0  0  0  0  0
   33.9167    0.5265   33.0800 C   0  0  0  0  0  0  0  0  0  0  0  0
   35.1233    0.9970   33.6005 C   0  0  0  0  0  0  0  0  0  0  0  0
   35.5766    2.2631   33.2454 C   0  0  0  0  0  0  0  0  0  0  0  0
   34.8136    3.0529   32.3896 C   0  0  0  0  0  0  0  0  0  0  0  0
   29.9681    1.0639   30.3387 C   0  0  0  0  0  0  0  0  0  0  0  0
   28.8744    1.1776   31.3840 C   0  0  0  0  0  0  0  0  0  0  0  0
   28.6931    0.2972   32.3870 C   0  0  0  0  0  0  0  0  0  0  0  0
   27.6659    0.3498   33.4784 C   0  0  0  0  0  0  0  0  0  0  0  0
   26.7350    1.4160   33.2929 O   0  0  0  0  0  0  0  0  0  0  0  0
   29.5462    1.6786   29.1935 F   0  0  0  0  0  0  0  0  0  0  0  0
   30.1015   -0.2530   29.9712 F   0  0  0  0  0  0  0  0  0  0  0  0
   29.1536    8.1610   29.9748 C   0  0  0  0  0  0  0  0  0  0  0  0
   29.7698    8.7691   28.8918 N   0  0  0  0  0  0  0  0  0  0  0  0
   28.1576    8.6061   30.5371 O   0  0  0  0  0  0  0  0  0  0  0  0
   29.4871   10.1049   28.3534 C   0  0  2  0  0  0  0  0  0  0  0  0
   28.6394   11.1252   29.1203 C   0  0  0  0  0  0  0  0  0  0  0  0
   28.0642   10.4272   27.9182 C   0  0  1  0  0  0  0  0  0  0  0  0
   30.6877   10.7093   27.6377 C   0  0  0  0  0  0  0  0  0  0  0  0
   31.7750   10.9134   28.4951 N   0  0  0  0  0  0  0  0  0  0  0  0
   30.7106   10.9020   26.4340 O   0  0  0  0  0  0  0  0  0  0  0  0
   33.1141   11.8147   28.1247 S   0  0  0  0  0  0  0  0  0  0  0  0
   33.7165   11.4172   26.4699 C   0  0  0  0  0  0  0  0  0  0  0  0
   32.6938   13.1999   28.1610 O   0  0  0  0  0  0  0  0  0  0  0  0
   34.1337   11.3440   29.0439 O   0  0  0  0  0  0  0  0  0  0  0  0
   33.9701    9.9702   26.2537 C   0  0  0  0  0  0  0  0  0  0  0  0
   34.6481   12.4550   25.8932 C   0  0  0  0  0  0  0  0  0  0  0  0
   33.2448   12.3201   25.3570 C   0  0  0  0  0  0  0  0  0  0  0  0
   27.7310   11.1871   26.6860 C   0  0  0  0  0  0  0  0  0  0  0  0
   28.0577   10.4431   25.6037 F   0  0  0  0  0  0  0  0  0  0  0  0
   28.4379   12.3413   26.6207 F   0  0  0  0  0  0  0  0  0  0  0  0
   24.8847    0.1829   34.7116 H   0  0  0  0  0  0  0  0  0  0  0  0
   26.1926    0.1699   35.8882 H   0  0  0  0  0  0  0  0  0  0  0  0
   25.0965    1.7185   37.2978 H   0  0  0  0  0  0  0  0  0  0  0  0
   23.6561    1.0893   36.4959 H   0  0  0  0  0  0  0  0  0  0  0  0
   23.3259    3.2235   35.5993 H   0  0  0  0  0  0  0  0  0  0  0  0
   24.8410    3.7624   36.3051 H   0  0  0  0  0  0  0  0  0  0  0  0
   24.3508    2.4516   33.6031 H   0  0  0  0  0  0  0  0  0  0  0  0
   27.0284    2.3313   35.1125 H   0  0  0  0  0  0  0  0  0  0  0  0
   25.6140    6.0891   32.8059 H   0  0  0  0  0  0  0  0  0  0  0  0
   27.0343    7.7696   32.6207 H   0  0  0  0  0  0  0  0  0  0  0  0
   27.9769    8.6779   36.1411 H   0  0  0  0  0  0  0  0  0  0  0  0
   26.6783    8.8141   34.9477 H   0  0  0  0  0  0  0  0  0  0  0  0
   26.8714    7.3325   35.8997 H   0  0  0  0  0  0  0  0  0  0  0  0
   29.9164    8.4641   33.0125 H   0  0  0  0  0  0  0  0  0  0  0  0
   28.4768    9.4802   33.2097 H   0  0  0  0  0  0  0  0  0  0  0  0
   29.6497    9.3288   34.5183 H   0  0  0  0  0  0  0  0  0  0  0  0
   29.9571    6.0447   34.2658 H   0  0  0  0  0  0  0  0  0  0  0  0
   30.1005    7.2230   35.5612 H   0  0  0  0  0  0  0  0  0  0  0  0
   28.9158    5.9530   35.6900 H   0  0  0  0  0  0  0  0  0  0  0  0
   29.1510    3.8458   30.1928 H   0  0  0  0  0  0  0  0  0  0  0  0
   29.8104    4.3258   32.4474 H   0  0  0  0  0  0  0  0  0  0  0  0
   31.2668    5.2165   31.9485 H   0  0  0  0  0  0  0  0  0  0  0  0
   30.9265    7.1733   30.5321 H   0  0  0  0  0  0  0  0  0  0  0  0
   30.5400    5.8605   28.6052 H   0  0  0  0  0  0  0  0  0  0  0  0
   28.8197    5.6870   28.9434 H   0  0  0  0  0  0  0  0  0  0  0  0
   33.5585   -0.4633   33.3514 H   0  0  0  0  0  0  0  0  0  0  0  0
   35.7041    0.3689   34.2686 H   0  0  0  0  0  0  0  0  0  0  0  0
   36.5189    2.6340   33.6387 H   0  0  0  0  0  0  0  0  0  0  0  0
   35.1650    4.0454   32.1153 H   0  0  0  0  0  0  0  0  0  0  0  0
   28.1984    2.0229   31.2841 H   0  0  0  0  0  0  0  0  0  0  0  0
   29.3756   -0.5532   32.4591 H   0  0  0  0  0  0  0  0  0  0  0  0
   28.2013    0.4563   34.4311 H   0  0  0  0  0  0  0  0  0  0  0  0
   27.1097   -0.5967   33.4904 H   0  0  0  0  0  0  0  0  0  0  0  0
   30.5659    8.2950   28.4732 H   0  0  0  0  0  0  0  0  0  0  0  0
   28.8942   12.1799   29.0313 H   0  0  0  0  0  0  0  0  0  0  0  0
   28.2363   10.8836   30.0957 H   0  0  0  0  0  0  0  0  0  0  0  0
   27.3104    9.6666   28.0935 H   0  0  0  0  0  0  0  0  0  0  0  0
   31.6369   10.8311   29.4993 H   0  0  0  0  0  0  0  0  0  0  0  0
   33.0357    9.4055   26.2284 H   0  0  0  0  0  0  0  0  0  0  0  0
   34.4775    9.7937   25.2999 H   0  0  0  0  0  0  0  0  0  0  0  0
   34.6032    9.5561   27.0428 H   0  0  0  0  0  0  0  0  0  0  0  0
   34.8807   13.3349   26.4862 H   0  0  0  0  0  0  0  0  0  0  0  0
   35.4655   12.1201   25.2664 H   0  0  0  0  0  0  0  0  0  0  0  0
   33.1053   11.8906   24.3712 H   0  0  0  0  0  0  0  0  0  0  0  0
   32.5304   13.1068   25.5841 H   0  0  0  0  0  0  0  0  0  0  0  0
   26.6657   11.4323   26.6329 H   0  0  0  0  0  0  0  0  0  0  0  0
  1  2  1  0
  2  3  1  0
  4  3  1  0
  4  5  1  0
  5  1  1  0
  4  6  1  0
  6  7  1  0
  7  8  1  0
  7  9  2  0
  8 10  1  0
 10 11  1  0
 10 12  1  0
 12 13  1  0
 12 14  1  0
 12 15  1  0
 11 16  2  0
 11 17  1  0
 19 17  1  0
 17 20  1  0
 18 19  1  0
 20 21  1  0
 18 21  1  0
 18 22  1  0
 22 23  1  0
 23 24  2  0
 28 23  1  0
 24 25  1  0
 26 27  1  0
 27 28  2  0
 26 29  1  0
 25 26  2  0
 32 25  1  0
 29 30  2  0
 30 31  1  0
 31 32  2  0
 28 33  1  0
 33 34  1  0
 34 35  2  0
 35 36  1  0
 36 37  1  0
  5 37  1  0
 33 38  1  0
 33 39  1  0
 20 40  1  0
 40 41  1  0
 40 42  2  0
 43 41  1  1
 43 44  1  0
 45 43  1  0
 44 45  1  0
 43 46  1  0
 46 47  1  0
 46 48  2  0
 47 49  1  0
 49 50  1  0
 49 51  2  0
 49 52  2  0
 50 53  1  0
 50 54  1  0
 55 50  1  0
 54 55  1  0
 45 56  1  0
 56 57  1  0
 56 58  1  0
  1 59  1  0
  1 60  1  0
  2 61  1  0
  2 62  1  0
  3 63  1  0
  3 64  1  0
  4 65  1  1
  5 66  1  6
  8 67  1  0
 10 68  1  1
 13 69  1  0
 13 70  1  0
 13 71  1  0
 14 72  1  0
 14 73  1  0
 14 74  1  0
 15 75  1  0
 15 76  1  0
 15 77  1  0
 18 78  1  1
 19 79  1  0
 19 80  1  0
 20 81  1  6
 21 82  1  0
 21 83  1  0
 29 84  1  0
 30 85  1  0
 31 86  1  0
 32 87  1  0
 34 88  1  0
 35 89  1  0
 36 90  1  0
 36 91  1  0
 41 92  1  0
 44 93  1  0
 44 94  1  0
 45 95  1  1
 47 96  1  0
 53 97  1  0
 53 98  1  0
 53 99  1  0
 54100  1  0
 54101  1  0
 55102  1  0
 55103  1  0
 56104  1  0
M  END
> <Uni-Dock RESULT> 
ENERGY=   -3.921  LOWER_BOUND=    7.319  UPPER_BOUND=   10.864
INTER + INTRA:          -3.921
INTER:                  -3.921
INTRA:                   0.000
UNBOUND:                 0.000

$$$$

     RDKit          3D

104110  0  0  0  0  0  0  0  0999 V2000
   33.9299   13.9250   16.1197 C   0  0  0  0  0  0  0  0  0  0  0  0
   34.4853   15.3477   16.0750 C   0  0  0  0  0  0  0  0  0  0  0  0
   34.4640   15.8571   17.5142 C   0  0  0  0  0  0  0  0  0  0  0  0
   34.0157   14.6673   18.3600 C   0  0  2  0  0  0  0  0  0  0  0  0
   33.1023   13.8704   17.4111 C   0  0  2  0  0  0  0  0  0  0  0  0
   33.5354   15.0772   19.6478 O   0  0  0  0  0  0  0  0  0  0  0  0
   32.2900   15.5733   19.8124 C   0  0  0  0  0  0  0  0  0  0  0  0
   32.1516   15.9135   21.1233 N   0  0  0  0  0  0  0  0  0  0  0  0
   31.4496   15.6833   18.9424 O   0  0  0  0  0  0  0  0  0  0  0  0
   30.8855   15.8760   21.8707 C   0  0  2  0  0  0  0  0  0  0  0  0
   30.5910   14.3558   22.0619 C   0  0  0  0  0  0  0  0  0  0  0  0
   29.7692   16.9008   21.4655 C   0  0  0  0  0  0  0  0  0  0  0  0
   30.4115   18.2807   21.1827 C   0  0  0  0  0  0  0  0  0  0  0  0
   28.8105   17.1033   22.6683 C   0  0  0  0  0  0  0  0  0  0  0  0
   28.9068   16.5214   20.2469 C   0  0  0  0  0  0  0  0  0  0  0  0
   31.5081   13.5258   22.0911 O   0  0  0  0  0  0  0  0  0  0  0  0
   29.2623   13.9571   22.2550 N   0  0  0  0  0  0  0  0  0  0  0  0
   29.3658   11.5858   21.9204 C   0  0  1  0  0  0  0  0  0  0  0  0
   28.8885   12.9208   21.3016 C   0  0  0  0  0  0  0  0  0  0  0  0
   28.9653   13.3312   23.5439 C   0  0  1  0  0  0  0  0  0  0  0  0
   29.4169   11.8745   23.4315 C   0  0  0  0  0  0  0  0  0  0  0  0
   28.5569   10.4292   21.7199 O   0  0  0  0  0  0  0  0  0  0  0  0
   28.0477   10.3220   20.4620 C   0  0  0  0  0  0  0  0  0  0  0  0
   26.7513   10.7032   20.3870 N   0  0  0  0  0  0  0  0  0  0  0  0
   26.1459   10.5908   19.1923 C   0  0  0  0  0  0  0  0  0  0  0  0
   26.8359   10.0982   18.0631 C   0  0  0  0  0  0  0  0  0  0  0  0
   28.1265    9.7289   18.1477 N   0  0  0  0  0  0  0  0  0  0  0  0
   28.7446    9.8272   19.3685 C   0  0  0  0  0  0  0  0  0  0  0  0
   26.1639   10.0054   16.8504 C   0  0  0  0  0  0  0  0  0  0  0  0
   24.8251   10.3824   16.7338 C   0  0  0  0  0  0  0  0  0  0  0  0
   24.1452   10.8542   17.8518 C   0  0  0  0  0  0  0  0  0  0  0  0
   24.8123   10.9616   19.0691 C   0  0  0  0  0  0  0  0  0  0  0  0
   30.2065    9.4100   19.4384 C   0  0  0  0  0  0  0  0  0  0  0  0
   31.1012   10.4987   18.8765 C   0  0  0  0  0  0  0  0  0  0  0  0
   31.3471   10.6722   17.5637 C   0  0  0  0  0  0  0  0  0  0  0  0
   32.1857   11.7365   16.9209 C   0  0  0  0  0  0  0  0  0  0  0  0
   32.8653   12.5428   17.8830 O   0  0  0  0  0  0  0  0  0  0  0  0
   30.6216    9.1115   20.7057 F   0  0  0  0  0  0  0  0  0  0  0  0
   30.4249    8.2464   18.7417 F   0  0  0  0  0  0  0  0  0  0  0  0
   29.4239   14.0457   24.8294 C   0  0  0  0  0  0  0  0  0  0  0  0
   28.8306   13.5268   25.9700 N   0  0  0  0  0  0  0  0  0  0  0  0
   30.2113   14.9872   24.8326 O   0  0  0  0  0  0  0  0  0  0  0  0
   28.8688   14.0993   27.3210 C   0  0  2  0  0  0  0  0  0  0  0  0
   29.3556   15.5284   27.5822 C   0  0  0  0  0  0  0  0  0  0  0  0
   30.2248   14.3608   27.9616 C   0  0  1  0  0  0  0  0  0  0  0  0
   27.6648   13.6915   28.1595 C   0  0  0  0  0  0  0  0  0  0  0  0
   26.4582   14.1607   27.6274 N   0  0  0  0  0  0  0  0  0  0  0  0
   27.7542   12.9613   29.1318 O   0  0  0  0  0  0  0  0  0  0  0  0
   25.0084   14.1587   28.4279 S   0  0  0  0  0  0  0  0  0  0  0  0
   24.7312   12.5742   29.2475 C   0  0  0  0  0  0  0  0  0  0  0  0
   25.0941   15.2048   29.4253 O   0  0  0  0  0  0  0  0  0  0  0  0
   24.0129   14.2427   27.3754 O   0  0  0  0  0  0  0  0  0  0  0  0
   24.8438   11.4016   28.3435 C   0  0  0  0  0  0  0  0  0  0  0  0
   23.6702   12.6185   30.3199 C   0  0  0  0  0  0  0  0  0  0  0  0
   25.1246   12.5014   30.7023 C   0  0  0  0  0  0  0  0  0  0  0  0
   30.5325   14.0744   29.3865 C   0  0  0  0  0  0  0  0  0  0  0  0
   30.5263   12.7352   29.5815 F   0  0  0  0  0  0  0  0  0  0  0  0
   29.5959   14.6137   30.2038 F   0  0  0  0  0  0  0  0  0  0  0  0
   34.7487   13.1955   16.1556 H   0  0  0  0  0  0  0  0  0  0  0  0
   33.3375   13.6918   15.2298 H   0  0  0  0  0  0  0  0  0  0  0  0
   33.8608   15.9871   15.4412 H   0  0  0  0  0  0  0  0  0  0  0  0
   35.4978   15.3647   15.6574 H   0  0  0  0  0  0  0  0  0  0  0  0
   35.4463   16.2231   17.8319 H   0  0  0  0  0  0  0  0  0  0  0  0
   33.7703   16.6990   17.6122 H   0  0  0  0  0  0  0  0  0  0  0  0
   34.8906   14.0439   18.5889 H   0  0  0  0  0  0  0  0  0  0  0  0
   32.1389   14.3617   17.2514 H   0  0  0  0  0  0  0  0  0  0  0  0
   32.9462   15.5667   21.6488 H   0  0  0  0  0  0  0  0  0  0  0  0
   31.2168   16.1902   22.8718 H   0  0  0  0  0  0  0  0  0  0  0  0
   29.6458   19.0453   21.0044 H   0  0  0  0  0  0  0  0  0  0  0  0
   31.0222   18.6162   22.0293 H   0  0  0  0  0  0  0  0  0  0  0  0
   31.0502   18.2625   20.2936 H   0  0  0  0  0  0  0  0  0  0  0  0
   28.2264   16.2044   22.8779 H   0  0  0  0  0  0  0  0  0  0  0  0
   29.3591   17.3759   23.5768 H   0  0  0  0  0  0  0  0  0  0  0  0
   28.0926   17.9080   22.4706 H   0  0  0  0  0  0  0  0  0  0  0  0
   28.5762   15.4824   20.2737 H   0  0  0  0  0  0  0  0  0  0  0  0
   28.0023   17.1417   20.2056 H   0  0  0  0  0  0  0  0  0  0  0  0
   29.4182   16.6904   19.2976 H   0  0  0  0  0  0  0  0  0  0  0  0
   30.3805   11.3495   21.5915 H   0  0  0  0  0  0  0  0  0  0  0  0
   29.3438   13.0968   20.3186 H   0  0  0  0  0  0  0  0  0  0  0  0
   27.7999   12.9675   21.1919 H   0  0  0  0  0  0  0  0  0  0  0  0
   27.8657   13.3434   23.6013 H   0  0  0  0  0  0  0  0  0  0  0  0
   28.7863   11.2093   24.0303 H   0  0  0  0  0  0  0  0  0  0  0  0
   30.4425   11.7650   23.8016 H   0  0  0  0  0  0  0  0  0  0  0  0
   26.7000    9.6333   15.9810 H   0  0  0  0  0  0  0  0  0  0  0  0
   24.3212   10.2947   15.7765 H   0  0  0  0  0  0  0  0  0  0  0  0
   23.1005   11.1415   17.7724 H   0  0  0  0  0  0  0  0  0  0  0  0
   24.2825   11.3352   19.9429 H   0  0  0  0  0  0  0  0  0  0  0  0
   31.5741   11.1559   19.6017 H   0  0  0  0  0  0  0  0  0  0  0  0
   30.8727    9.9903   16.8536 H   0  0  0  0  0  0  0  0  0  0  0  0
   31.5216   12.3468   16.2947 H   0  0  0  0  0  0  0  0  0  0  0  0
   32.9364   11.2589   16.2777 H   0  0  0  0  0  0  0  0  0  0  0  0
   28.2242   12.7180   25.8613 H   0  0  0  0  0  0  0  0  0  0  0  0
   28.8811   16.0985   28.3791 H   0  0  0  0  0  0  0  0  0  0  0  0
   29.6737   16.1599   26.7623 H   0  0  0  0  0  0  0  0  0  0  0  0
   31.1029   14.1711   27.3530 H   0  0  0  0  0  0  0  0  0  0  0  0
   26.4806   14.8514   26.8813 H   0  0  0  0  0  0  0  0  0  0  0  0
   25.8774   11.2447   28.0280 H   0  0  0  0  0  0  0  0  0  0  0  0
   24.5174   10.4829   28.8414 H   0  0  0  0  0  0  0  0  0  0  0  0
   24.2251   11.5278   27.4512 H   0  0  0  0  0  0  0  0  0  0  0  0
   23.1689   13.5612   30.5196 H   0  0  0  0  0  0  0  0  0  0  0  0
   23.0384   11.7489   30.4538 H   0  0  0  0  0  0  0  0  0  0  0  0
   25.4842   11.5551   31.0905 H   0  0  0  0  0  0  0  0  0  0  0  0
   25.6056   13.3608   31.1614 H   0  0  0  0  0  0  0  0  0  0  0  0
   31.5117   14.4657   29.6795 H   0  0  0  0  0  0  0  0  0  0  0  0
  1  2  1  0
  2  3  1  0
  4  3  1  0
  4  5  1  0
  5  1  1  0
  4  6  1  0
  6  7  1  0
  7  8  1  0
  7  9  2  0
  8 10  1  0
 10 11  1  0
 10 12  1  0
 12 13  1  0
 12 14  1  0
 12 15  1  0
 11 16  2  0
 11 17  1  0
 19 17  1  0
 17 20  1  0
 18 19  1  0
 20 21  1  0
 18 21  1  0
 18 22  1  0
 22 23  1  0
 23 24  2  0
 28 23  1  0
 24 25  1  0
 26 27  1  0
 27 28  2  0
 26 29  1  0
 25 26  2  0
 32 25  1  0
 29 30  2  0
 30 31  1  0
 31 32  2  0
 28 33  1  0
 33 34  1  0
 34 35  2  0
 35 36  1  0
 36 37  1  0
  5 37  1  0
 33 38  1  0
 33 39  1  0
 20 40  1  0
 40 41  1  0
 40 42  2  0
 43 41  1  1
 43 44  1  0
 45 43  1  0
 44 45  1  0
 43 46  1  0
 46 47  1  0
 46 48  2  0
 47 49  1  0
 49 50  1  0
 49 51  2  0
 49 52  2  0
 50 53  1  0
 50 54  1  0
 55 50  1  0
 54 55  1  0
 45 56  1  0
 56 57  1  0
 56 58  1  0
  1 59  1  0
  1 60  1  0
  2 61  1  0
  2 62  1  0
  3 63  1  0
  3 64  1  0
  4 65  1  1
  5 66  1  6
  8 67  1  0
 10 68  1  1
 13 69  1  0
 13 70  1  0
 13 71  1  0
 14 72  1  0
 14 73  1  0
 14 74  1  0
 15 75  1  0
 15 76  1  0
 15 77  1  0
 18 78  1  1
 19 79  1  0
 19 80  1  0
 20 81  1  6
 21 82  1  0
 21 83  1  0
 29 84  1  0
 30 85  1  0
 31 86  1  0
 32 87  1  0
 34 88  1  0
 35 89  1  0
 36 90  1  0
 36 91  1  0
 41 92  1  0
 44 93  1  0
 44 94  1  0
 45 95  1  1
 47 96  1  0
 53 97  1  0
 53 98  1  0
 53 99  1  0
 54100  1  0
 54101  1  0
 55102  1  0
 55103  1  0
 56104  1  0
M  END
> <Uni-Dock RESULT> 
ENERGY=   -3.721  LOWER_BOUND=    3.862  UPPER_BOUND=   11.532
INTER + INTRA:          -3.721
INTER:                  -3.721
INTRA:                   0.000
UNBOUND:                 0.000

$$$$

     RDKit          3D

104110  0  0  0  0  0  0  0  0999 V2000
   36.3534   15.2666   30.2879 C   0  0  0  0  0  0  0  0  0  0  0  0
   36.7696   15.7319   31.6825 C   0  0  0  0  0  0  0  0  0  0  0  0
   36.9714   14.4648   32.5102 C   0  0  0  0  0  0  0  0  0  0  0  0
   36.7883   13.3067   31.5318 C   0  0  2  0  0  0  0  0  0  0  0  0
   35.7858   13.8566   30.5011 C   0  0  2  0  0  0  0  0  0  0  0  0
   36.5211   12.0711   32.2094 O   0  0  0  0  0  0  0  0  0  0  0  0
   35.2902   11.7754   32.6802 C   0  0  0  0  0  0  0  0  0  0  0  0
   35.3679   10.5704   33.3090 N   0  0  0  0  0  0  0  0  0  0  0  0
   34.2976   12.4634   32.5521 O   0  0  0  0  0  0  0  0  0  0  0  0
   34.2691    9.5966   33.3953 C   0  0  2  0  0  0  0  0  0  0  0  0
   34.1438    9.0217   31.9502 C   0  0  0  0  0  0  0  0  0  0  0  0
   33.0152    9.9867   34.2531 C   0  0  0  0  0  0  0  0  0  0  0  0
   33.4760   10.6873   35.5544 C   0  0  0  0  0  0  0  0  0  0  0  0
   32.2812    8.6918   34.6905 C   0  0  0  0  0  0  0  0  0  0  0  0
   31.9778   10.8960   33.5678 C   0  0  0  0  0  0  0  0  0  0  0  0
   35.1169    8.9940   31.1867 O   0  0  0  0  0  0  0  0  0  0  0  0
   32.9118    8.4857   31.5546 N   0  0  0  0  0  0  0  0  0  0  0  0
   33.1507    8.3055   29.1763 C   0  0  1  0  0  0  0  0  0  0  0  0
   32.4569    9.0946   30.3116 C   0  0  0  0  0  0  0  0  0  0  0  0
   32.9113    7.0582   31.2330 C   0  0  1  0  0  0  0  0  0  0  0  0
   33.4551    6.9357   29.8090 C   0  0  0  0  0  0  0  0  0  0  0  0
   32.4187    8.0823   27.9735 O   0  0  0  0  0  0  0  0  0  0  0  0
   31.6971    9.1591   27.5577 C   0  0  0  0  0  0  0  0  0  0  0  0
   30.3817    9.0568   27.8592 N   0  0  0  0  0  0  0  0  0  0  0  0
   29.5780   10.0529   27.4492 C   0  0  0  0  0  0  0  0  0  0  0  0
   30.0868   11.1605   26.7363 C   0  0  0  0  0  0  0  0  0  0  0  0
   31.3972   11.2550   26.4483 N   0  0  0  0  0  0  0  0  0  0  0  0
   32.2193   10.2335   26.8512 C   0  0  0  0  0  0  0  0  0  0  0  0
   29.2128   12.1649   26.3385 C   0  0  0  0  0  0  0  0  0  0  0  0
   27.8486   12.0928   26.6246 C   0  0  0  0  0  0  0  0  0  0  0  0
   27.3494   10.9934   27.3152 C   0  0  0  0  0  0  0  0  0  0  0  0
   28.2181    9.9869   27.7280 C   0  0  0  0  0  0  0  0  0  0  0  0
   33.6989   10.3656   26.5200 C   0  0  0  0  0  0  0  0  0  0  0  0
   34.3799   11.3191   27.4837 C   0  0  0  0  0  0  0  0  0  0  0  0
   34.3640   12.6600   27.3579 C   0  0  0  0  0  0  0  0  0  0  0  0
   34.9772   13.6743   28.2769 C   0  0  0  0  0  0  0  0  0  0  0  0
   35.7524   13.0674   29.3106 O   0  0  0  0  0  0  0  0  0  0  0  0
   34.3642    9.1721   26.5399 F   0  0  0  0  0  0  0  0  0  0  0  0
   33.8820   10.8191   25.2363 F   0  0  0  0  0  0  0  0  0  0  0  0
   33.5373    6.0784   32.2435 C   0  0  0  0  0  0  0  0  0  0  0  0
   33.2104    4.7571   31.9797 N   0  0  0  0  0  0  0  0  0  0  0  0
   34.2299    6.4384   33.1906 O   0  0  0  0  0  0  0  0  0  0  0  0
   33.4489    3.6000   32.8506 C   0  0  2  0  0  0  0  0  0  0  0  0
   33.8537    3.7609   34.3196 C   0  0  0  0  0  0  0  0  0  0  0  0
   34.8730    3.3149   33.3071 C   0  0  1  0  0  0  0  0  0  0  0  0
   32.4588    2.4702   32.6006 C   0  0  0  0  0  0  0  0  0  0  0  0
   31.1397    2.8417   32.8854 N   0  0  0  0  0  0  0  0  0  0  0  0
   32.7871    1.3990   32.1196 O   0  0  0  0  0  0  0  0  0  0  0  0
   29.8678    1.7885   33.0112 S   0  0  0  0  0  0  0  0  0  0  0  0
   29.8807    0.6027   31.6499 C   0  0  0  0  0  0  0  0  0  0  0  0
   30.0478    1.0824   34.2625 O   0  0  0  0  0  0  0  0  0  0  0  0
   28.6917    2.6144   32.8094 O   0  0  0  0  0  0  0  0  0  0  0  0
   29.9227    1.2312   30.3053 C   0  0  0  0  0  0  0  0  0  0  0  0
   29.0358   -0.6227   31.8992 C   0  0  0  0  0  0  0  0  0  0  0  0
   30.5404   -0.7246   31.9318 C   0  0  0  0  0  0  0  0  0  0  0  0
   35.4612    1.9523   33.3710 C   0  0  0  0  0  0  0  0  0  0  0  0
   35.6035    1.4709   32.1142 F   0  0  0  0  0  0  0  0  0  0  0  0
   34.6494    1.1038   34.0473 F   0  0  0  0  0  0  0  0  0  0  0  0
   37.2232   15.2348   29.6197 H   0  0  0  0  0  0  0  0  0  0  0  0
   35.6288   15.9476   29.8316 H   0  0  0  0  0  0  0  0  0  0  0  0
   35.9874   16.3535   32.1323 H   0  0  0  0  0  0  0  0  0  0  0  0
   37.6826   16.3357   31.6426 H   0  0  0  0  0  0  0  0  0  0  0  0
   37.9612   14.4369   32.9786 H   0  0  0  0  0  0  0  0  0  0  0  0
   36.2394   14.4181   33.3236 H   0  0  0  0  0  0  0  0  0  0  0  0
   37.7397   13.1251   31.0136 H   0  0  0  0  0  0  0  0  0  0  0  0
   34.7717   13.9255   30.9033 H   0  0  0  0  0  0  0  0  0  0  0  0
   36.2721   10.1503   33.1253 H   0  0  0  0  0  0  0  0  0  0  0  0
   34.7518    8.7752   33.9458 H   0  0  0  0  0  0  0  0  0  0  0  0
   32.6290   10.8733   36.2259 H   0  0  0  0  0  0  0  0  0  0  0  0
   34.2020   10.0737   36.1009 H   0  0  0  0  0  0  0  0  0  0  0  0
   33.9390   11.6596   35.3562 H   0  0  0  0  0  0  0  0  0  0  0  0
   31.8235    8.1781   33.8420 H   0  0  0  0  0  0  0  0  0  0  0  0
   32.9631    7.9929   35.1877 H   0  0  0  0  0  0  0  0  0  0  0  0
   31.4741    8.9145   35.3982 H   0  0  0  0  0  0  0  0  0  0  0  0
   31.7463   10.5767   32.5510 H   0  0  0  0  0  0  0  0  0  0  0  0
   31.0323   10.8918   34.1252 H   0  0  0  0  0  0  0  0  0  0  0  0
   32.2892   11.9415   33.5325 H   0  0  0  0  0  0  0  0  0  0  0  0
   34.1035    8.7694   28.9108 H   0  0  0  0  0  0  0  0  0  0  0  0
   32.7067   10.1627   30.2731 H   0  0  0  0  0  0  0  0  0  0  0  0
   31.3667    8.9933   30.2883 H   0  0  0  0  0  0  0  0  0  0  0  0
   31.8440    6.7875   31.2144 H   0  0  0  0  0  0  0  0  0  0  0  0
   33.0040    6.0923   29.2761 H   0  0  0  0  0  0  0  0  0  0  0  0
   34.5369    6.7619   29.8291 H   0  0  0  0  0  0  0  0  0  0  0  0
   29.6087   13.0201   25.7967 H   0  0  0  0  0  0  0  0  0  0  0  0
   27.1860   12.8879   26.2976 H   0  0  0  0  0  0  0  0  0  0  0  0
   26.2876   10.9246   27.5344 H   0  0  0  0  0  0  0  0  0  0  0  0
   27.8292    9.1290   28.2725 H   0  0  0  0  0  0  0  0  0  0  0  0
   34.9215   10.8647   28.3092 H   0  0  0  0  0  0  0  0  0  0  0  0
   33.8257   13.0943   26.5118 H   0  0  0  0  0  0  0  0  0  0  0  0
   34.1601   14.2744   28.6987 H   0  0  0  0  0  0  0  0  0  0  0  0
   35.6338   14.3330   27.6936 H   0  0  0  0  0  0  0  0  0  0  0  0
   32.6645    4.5628   31.1442 H   0  0  0  0  0  0  0  0  0  0  0  0
   33.4881    3.0305   35.0394 H   0  0  0  0  0  0  0  0  0  0  0  0
   33.9609    4.7459   34.7561 H   0  0  0  0  0  0  0  0  0  0  0  0
   35.6365    4.0292   33.0167 H   0  0  0  0  0  0  0  0  0  0  0  0
   30.9660    3.7103   33.3848 H   0  0  0  0  0  0  0  0  0  0  0  0
   30.8898    1.7035   30.1207 H   0  0  0  0  0  0  0  0  0  0  0  0
   29.7721    0.4891   29.5147 H   0  0  0  0  0  0  0  0  0  0  0  0
   29.1417    1.9883   30.1966 H   0  0  0  0  0  0  0  0  0  0  0  0
   28.5025   -0.7062   32.8418 H   0  0  0  0  0  0  0  0  0  0  0  0
   28.5149   -1.0671   31.0599 H   0  0  0  0  0  0  0  0  0  0  0  0
   31.0437   -1.2316   31.1162 H   0  0  0  0  0  0  0  0  0  0  0  0
   31.0239   -0.8789   32.8926 H   0  0  0  0  0  0  0  0  0  0  0  0
   36.4412    1.9529   33.8581 H   0  0  0  0  0  0  0  0  0  0  0  0
  1  2  1  0
  2  3  1  0
  4  3  1  0
  4  5  1  0
  5  1  1  0
  4  6  1  0
  6  7  1  0
  7  8  1  0
  7  9  2  0
  8 10  1  0
 10 11  1  0
 10 12  1  0
 12 13  1  0
 12 14  1  0
 12 15  1  0
 11 16  2  0
 11 17  1  0
 19 17  1  0
 17 20  1  0
 18 19  1  0
 20 21  1  0
 18 21  1  0
 18 22  1  0
 22 23  1  0
 23 24  2  0
 28 23  1  0
 24 25  1  0
 26 27  1  0
 27 28  2  0
 26 29  1  0
 25 26  2  0
 32 25  1  0
 29 30  2  0
 30 31  1  0
 31 32  2  0
 28 33  1  0
 33 34  1  0
 34 35  2  0
 35 36  1  0
 36 37  1  0
  5 37  1  0
 33 38  1  0
 33 39  1  0
 20 40  1  0
 40 41  1  0
 40 42  2  0
 43 41  1  1
 43 44  1  0
 45 43  1  0
 44 45  1  0
 43 46  1  0
 46 47  1  0
 46 48  2  0
 47 49  1  0
 49 50  1  0
 49 51  2  0
 49 52  2  0
 50 53  1  0
 50 54  1  0
 55 50  1  0
 54 55  1  0
 45 56  1  0
 56 57  1  0
 56 58  1  0
  1 59  1  0
  1 60  1  0
  2 61  1  0
  2 62  1  0
  3 63  1  0
  3 64  1  0
  4 65  1  1
  5 66  1  6
  8 67  1  0
 10 68  1  1
 13 69  1  0
 13 70  1  0
 13 71  1  0
 14 72  1  0
 14 73  1  0
 14 74  1  0
 15 75  1  0
 15 76  1  0
 15 77  1  0
 18 78  1  1
 19 79  1  0
 19 80  1  0
 20 81  1  6
 21 82  1  0
 21 83  1  0
 29 84  1  0
 30 85  1  0
 31 86  1  0
 32 87  1  0
 34 88  1  0
 35 89  1  0
 36 90  1  0
 36 91  1  0
 41 92  1  0
 44 93  1  0
 44 94  1  0
 45 95  1  1
 47 96  1  0
 53 97  1  0
 53 98  1  0
 53 99  1  0
 54100  1  0
 54101  1  0
 55102  1  0
 55103  1  0
 56104  1  0
M  END
> <Uni-Dock RESULT> 
ENERGY=   -3.652  LOWER_BOUND=    6.535  UPPER_BOUND=   11.867
INTER + INTRA:          -3.652
INTER:                  -3.652
INTRA:                   0.000
UNBOUND:                 0.000

$$$$

     RDKit          3D

104110  0  0  0  0  0  0  0  0999 V2000
   25.2843   15.3865   32.7505 C   0  0  0  0  0  0  0  0  0  0  0  0
   24.8091   16.8272   32.5677 C   0  0  0  0  0  0  0  0  0  0  0  0
   24.4521   16.9722   31.0903 C   0  0  0  0  0  0  0  0  0  0  0  0
   24.6125   15.5755   30.4943 C   0  0  2  0  0  0  0  0  0  0  0  0
   25.7243   14.9409   31.3493 C   0  0  2  0  0  0  0  0  0  0  0  0
   24.7348   15.6142   29.0658 O   0  0  0  0  0  0  0  0  0  0  0  0
   25.9030   15.9279   28.4650 C   0  0  0  0  0  0  0  0  0  0  0  0
   25.6881   15.9285   27.1206 N   0  0  0  0  0  0  0  0  0  0  0  0
   26.9527   16.1576   29.0312 O   0  0  0  0  0  0  0  0  0  0  0  0
   26.6992   15.5852   26.1091 C   0  0  2  0  0  0  0  0  0  0  0  0
   26.8802   14.0417   26.2476 C   0  0  0  0  0  0  0  0  0  0  0  0
   27.9166   16.5590   25.9358 C   0  0  0  0  0  0  0  0  0  0  0  0
   27.4218   18.0241   26.0081 C   0  0  0  0  0  0  0  0  0  0  0  0
   28.5154   16.3696   24.5172 C   0  0  0  0  0  0  0  0  0  0  0  0
   29.0669   16.3974   26.9474 C   0  0  0  0  0  0  0  0  0  0  0  0
   25.9636   13.3260   26.6699 O   0  0  0  0  0  0  0  0  0  0  0  0
   28.0914   13.4762   25.8295 N   0  0  0  0  0  0  0  0  0  0  0  0
   28.0061   11.2770   26.7794 C   0  0  1  0  0  0  0  0  0  0  0  0
   28.6780   12.6661   26.8889 C   0  0  0  0  0  0  0  0  0  0  0  0
   28.0034   12.5330   24.7142 C   0  0  1  0  0  0  0  0  0  0  0  0
   27.5526   11.1990   25.3105 C   0  0  0  0  0  0  0  0  0  0  0  0
   28.8007   10.1264   27.0569 O   0  0  0  0  0  0  0  0  0  0  0  0
   29.6312   10.2728   28.1255 C   0  0  0  0  0  0  0  0  0  0  0  0
   30.9103   10.5278   27.7644 N   0  0  0  0  0  0  0  0  0  0  0  0
   31.8158   10.6442   28.7508 C   0  0  0  0  0  0  0  0  0  0  0  0
   31.4457   10.5088   30.1067 C   0  0  0  0  0  0  0  0  0  0  0  0
   30.1699   10.2624   30.4543 N   0  0  0  0  0  0  0  0  0  0  0  0
   29.2447   10.1274   29.4505 C   0  0  0  0  0  0  0  0  0  0  0  0
   32.4207   10.6418   31.0878 C   0  0  0  0  0  0  0  0  0  0  0  0
   33.7518   10.8983   30.7555 C   0  0  0  0  0  0  0  0  0  0  0  0
   34.1146   11.0174   29.4180 C   0  0  0  0  0  0  0  0  0  0  0  0
   33.1435   10.8969   28.4277 C   0  0  0  0  0  0  0  0  0  0  0  0
   27.8067    9.8555   29.8682 C   0  0  0  0  0  0  0  0  0  0  0  0
   27.1362   11.1319   30.3404 C   0  0  0  0  0  0  0  0  0  0  0  0
   27.2650   11.6386   31.5816 C   0  0  0  0  0  0  0  0  0  0  0  0
   26.6698   12.9051   32.1210 C   0  0  0  0  0  0  0  0  0  0  0  0
   25.7794   13.5220   31.1914 O   0  0  0  0  0  0  0  0  0  0  0  0
   27.0509    9.3057   28.8713 F   0  0  0  0  0  0  0  0  0  0  0  0
   27.7495    8.9209   30.8733 F   0  0  0  0  0  0  0  0  0  0  0  0
   27.2339   12.9615   23.4502 C   0  0  0  0  0  0  0  0  0  0  0  0
   27.4749   12.1272   22.3694 N   0  0  0  0  0  0  0  0  0  0  0  0
   26.5070   13.9494   23.4065 O   0  0  0  0  0  0  0  0  0  0  0  0
   27.0868   12.3603   20.9732 C   0  0  2  0  0  0  0  0  0  0  0  0
   26.5941   13.7269   20.4862 C   0  0  0  0  0  0  0  0  0  0  0  0
   25.6164   12.5964   20.6570 C   0  0  1  0  0  0  0  0  0  0  0  0
   28.0011   11.6439   19.9883 C   0  0  0  0  0  0  0  0  0  0  0  0
   29.3220   12.1025   20.0533 N   0  0  0  0  0  0  0  0  0  0  0  0
   27.6250   10.7150   19.2939 O   0  0  0  0  0  0  0  0  0  0  0  0
   30.4962   11.7622   18.9361 S   0  0  0  0  0  0  0  0  0  0  0  0
   30.4864   10.0079   18.5101 C   0  0  0  0  0  0  0  0  0  0  0  0
   30.1749   12.5422   17.7592 O   0  0  0  0  0  0  0  0  0  0  0  0
   31.7442   11.9948   19.6393 O   0  0  0  0  0  0  0  0  0  0  0  0
   30.5875    9.1036   19.6835 C   0  0  0  0  0  0  0  0  0  0  0  0
   31.2139    9.6866   17.2275 C   0  0  0  0  0  0  0  0  0  0  0  0
   29.7074    9.6289   17.2748 C   0  0  0  0  0  0  0  0  0  0  0  0
   24.9211   12.0097   19.4826 C   0  0  0  0  0  0  0  0  0  0  0  0
   24.8299   10.6692   19.6448 F   0  0  0  0  0  0  0  0  0  0  0  0
   25.6151   12.2400   18.3419 F   0  0  0  0  0  0  0  0  0  0  0  0
   24.4636   14.7563   33.1153 H   0  0  0  0  0  0  0  0  0  0  0  0
   26.0898   15.3147   33.4875 H   0  0  0  0  0  0  0  0  0  0  0  0
   25.6039   17.5333   32.8329 H   0  0  0  0  0  0  0  0  0  0  0  0
   23.9508   17.0460   33.2121 H   0  0  0  0  0  0  0  0  0  0  0  0
   23.4328   17.3488   30.9521 H   0  0  0  0  0  0  0  0  0  0  0  0
   25.1195   17.6916   30.6038 H   0  0  0  0  0  0  0  0  0  0  0  0
   23.6884   15.0071   30.6665 H   0  0  0  0  0  0  0  0  0  0  0  0
   26.7101   15.3561   31.1241 H   0  0  0  0  0  0  0  0  0  0  0  0
   24.7691   15.5481   26.9245 H   0  0  0  0  0  0  0  0  0  0  0  0
   26.1168   15.6824   25.1807 H   0  0  0  0  0  0  0  0  0  0  0  0
   28.2317   18.7277   25.7805 H   0  0  0  0  0  0  0  0  0  0  0  0
   26.6139   18.2070   25.2898 H   0  0  0  0  0  0  0  0  0  0  0  0
   27.0508   18.2841   27.0049 H   0  0  0  0  0  0  0  0  0  0  0  0
   28.9899   15.3922   24.4038 H   0  0  0  0  0  0  0  0  0  0  0  0
   27.7481   16.4706   23.7414 H   0  0  0  0  0  0  0  0  0  0  0  0
   29.2858   17.1213   24.3095 H   0  0  0  0  0  0  0  0  0  0  0  0
   29.3434   15.3543   27.1056 H   0  0  0  0  0  0  0  0  0  0  0  0
   29.9679   16.9148   26.5937 H   0  0  0  0  0  0  0  0  0  0  0  0
   28.8409   16.8397   27.9193 H   0  0  0  0  0  0  0  0  0  0  0  0
   27.1131   11.2302   27.4071 H   0  0  0  0  0  0  0  0  0  0  0  0
   28.5153   13.1175   27.8760 H   0  0  0  0  0  0  0  0  0  0  0  0
   29.7560   12.6274   26.6997 H   0  0  0  0  0  0  0  0  0  0  0  0
   29.0451   12.4199   24.3754 H   0  0  0  0  0  0  0  0  0  0  0  0
   27.9729   10.3495   24.7625 H   0  0  0  0  0  0  0  0  0  0  0  0
   26.4618   11.1083   25.2573 H   0  0  0  0  0  0  0  0  0  0  0  0
   32.1314   10.5448   32.1311 H   0  0  0  0  0  0  0  0  0  0  0  0
   34.4955   10.9920   31.5406 H   0  0  0  0  0  0  0  0  0  0  0  0
   35.1499   11.2082   29.1497 H   0  0  0  0  0  0  0  0  0  0  0  0
   33.4256   10.9949   27.3814 H   0  0  0  0  0  0  0  0  0  0  0  0
   26.5045   11.6405   29.6168 H   0  0  0  0  0  0  0  0  0  0  0  0
   27.8933   11.1024   32.2971 H   0  0  0  0  0  0  0  0  0  0  0  0
   27.4996   13.5773   32.3765 H   0  0  0  0  0  0  0  0  0  0  0  0
   26.1088   12.6739   33.0359 H   0  0  0  0  0  0  0  0  0  0  0  0
   28.0611   11.3109   22.5236 H   0  0  0  0  0  0  0  0  0  0  0  0
   26.8505   14.0385   19.4751 H   0  0  0  0  0  0  0  0  0  0  0  0
   26.5335   14.5653   21.1687 H   0  0  0  0  0  0  0  0  0  0  0  0
   24.9329   12.6477   21.4982 H   0  0  0  0  0  0  0  0  0  0  0  0
   29.5273   12.9504   20.5758 H   0  0  0  0  0  0  0  0  0  0  0  0
   29.6752    9.1321   20.2831 H   0  0  0  0  0  0  0  0  0  0  0  0
   30.7348    8.0642   19.3729 H   0  0  0  0  0  0  0  0  0  0  0  0
   31.4306    9.3766   20.3234 H   0  0  0  0  0  0  0  0  0  0  0  0
   31.6719   10.4983   16.6697 H   0  0  0  0  0  0  0  0  0  0  0  0
   31.7561    8.7510   17.1649 H   0  0  0  0  0  0  0  0  0  0  0  0
   29.2245    8.6585   17.2496 H   0  0  0  0  0  0  0  0  0  0  0  0
   29.1474   10.3975   16.7490 H   0  0  0  0  0  0  0  0  0  0  0  0
   23.9124   12.4163   19.3601 H   0  0  0  0  0  0  0  0  0  0  0  0
  1  2  1  0
  2  3  1  0
  4  3  1  0
  4  5  1  0
  5  1  1  0
  4  6  1  0
  6  7  1  0
  7  8  1  0
  7  9  2  0
  8 10  1  0
 10 11  1  0
 10 12  1  0
 12 13  1  0
 12 14  1  0
 12 15  1  0
 11 16  2  0
 11 17  1  0
 19 17  1  0
 17 20  1  0
 18 19  1  0
 20 21  1  0
 18 21  1  0
 18 22  1  0
 22 23  1  0
 23 24  2  0
 28 23  1  0
 24 25  1  0
 26 27  1  0
 27 28  2  0
 26 29  1  0
 25 26  2  0
 32 25  1  0
 29 30  2  0
 30 31  1  0
 31 32  2  0
 28 33  1  0
 33 34  1  0
 34 35  2  0
 35 36  1  0
 36 37  1  0
  5 37  1  0
 33 38  1  0
 33 39  1  0
 20 40  1  0
 40 41  1  0
 40 42  2  0
 43 41  1  1
 43 44  1  0
 45 43  1  0
 44 45  1  0
 43 46  1  0
 46 47  1  0
 46 48  2  0
 47 49  1  0
 49 50  1  0
 49 51  2  0
 49 52  2  0
 50 53  1  0
 50 54  1  0
 55 50  1  0
 54 55  1  0
 45 56  1  0
 56 57  1  0
 56 58  1  0
  1 59  1  0
  1 60  1  0
  2 61  1  0
  2 62  1  0
  3 63  1  0
  3 64  1  0
  4 65  1  1
  5 66  1  6
  8 67  1  0
 10 68  1  1
 13 69  1  0
 13 70  1  0
 13 71  1  0
 14 72  1  0
 14 73  1  0
 14 74  1  0
 15 75  1  0
 15 76  1  0
 15 77  1  0
 18 78  1  1
 19 79  1  0
 19 80  1  0
 20 81  1  6
 21 82  1  0
 21 83  1  0
 29 84  1  0
 30 85  1  0
 31 86  1  0
 32 87  1  0
 34 88  1  0
 35 89  1  0
 36 90  1  0
 36 91  1  0
 41 92  1  0
 44 93  1  0
 44 94  1  0
 45 95  1  1
 47 96  1  0
 53 97  1  0
 53 98  1  0
 53 99  1  0
 54100  1  0
 54101  1  0
 55102  1  0
 55103  1  0
 56104  1  0
M  END
> <Uni-Dock RESULT> 
ENERGY=   -3.635  LOWER_BOUND=    3.948  UPPER_BOUND=    5.521
INTER + INTRA:          -3.635
INTER:                  -3.635
INTRA:                   0.000
UNBOUND:                 0.000

$$$$

     RDKit          3D

104110  0  0  0  0  0  0  0  0999 V2000
   38.5200    6.8498   31.6159 C   0  0  0  0  0  0  0  0  0  0  0  0
   39.3479    7.6616   30.6208 C   0  0  0  0  0  0  0  0  0  0  0  0
   38.5483    8.9316   30.3396 C   0  0  0  0  0  0  0  0  0  0  0  0
   37.3451    8.8704   31.2779 C   0  0  2  0  0  0  0  0  0  0  0  0
   37.0841    7.3616   31.4366 C   0  0  2  0  0  0  0  0  0  0  0  0
   36.2898    9.7437   30.8524 O   0  0  0  0  0  0  0  0  0  0  0  0
   35.4434    9.3971   29.8586 C   0  0  0  0  0  0  0  0  0  0  0  0
   34.5955   10.4428   29.6558 N   0  0  0  0  0  0  0  0  0  0  0  0
   35.4419    8.3372   29.2655 O   0  0  0  0  0  0  0  0  0  0  0  0
   33.2055   10.3180   29.1916 C   0  0  2  0  0  0  0  0  0  0  0  0
   32.4398    9.7178   30.4114 C   0  0  0  0  0  0  0  0  0  0  0  0
   32.9694    9.8152   27.7246 C   0  0  0  0  0  0  0  0  0  0  0  0
   34.0004   10.4772   26.7784 C   0  0  0  0  0  0  0  0  0  0  0  0
   31.5713   10.2898   27.2482 C   0  0  0  0  0  0  0  0  0  0  0  0
   33.0379    8.2917   27.5080 C   0  0  0  0  0  0  0  0  0  0  0  0
   32.8335    9.9066   31.5690 O   0  0  0  0  0  0  0  0  0  0  0  0
   31.2608    9.0025   30.1671 N   0  0  0  0  0  0  0  0  0  0  0  0
   30.8738    7.8886   32.2542 C   0  0  1  0  0  0  0  0  0  0  0  0
   31.3165    7.6847   30.7860 C   0  0  0  0  0  0  0  0  0  0  0  0
   30.0392    9.5736   30.7353 C   0  0  1  0  0  0  0  0  0  0  0  0
   30.0160    9.1659   32.2090 C   0  0  0  0  0  0  0  0  0  0  0  0
   30.1008    6.8602   32.8682 O   0  0  0  0  0  0  0  0  0  0  0  0
   30.5225    5.6002   32.5721 C   0  0  0  0  0  0  0  0  0  0  0  0
   29.7619    5.0015   31.6262 N   0  0  0  0  0  0  0  0  0  0  0  0
   30.0731    3.7360   31.2977 C   0  0  0  0  0  0  0  0  0  0  0  0
   31.1507    3.0617   31.9127 C   0  0  0  0  0  0  0  0  0  0  0  0
   31.9043    3.6692   32.8466 N   0  0  0  0  0  0  0  0  0  0  0  0
   31.5812    4.9556   33.1965 C   0  0  0  0  0  0  0  0  0  0  0  0
   31.4320    1.7548   31.5338 C   0  0  0  0  0  0  0  0  0  0  0  0
   30.6670    1.1007   30.5669 C   0  0  0  0  0  0  0  0  0  0  0  0
   29.5979    1.7638   29.9735 C   0  0  0  0  0  0  0  0  0  0  0  0
   29.3143    3.0772   30.3378 C   0  0  0  0  0  0  0  0  0  0  0  0
   32.4519    5.6246   34.2502 C   0  0  0  0  0  0  0  0  0  0  0  0
   33.7589    6.0980   33.6426 C   0  0  0  0  0  0  0  0  0  0  0  0
   34.8307    5.3067   33.4446 C   0  0  0  0  0  0  0  0  0  0  0  0
   36.1433    5.6798   32.8225 C   0  0  0  0  0  0  0  0  0  0  0  0
   36.2329    7.0779   32.5485 O   0  0  0  0  0  0  0  0  0  0  0  0
   31.8419    6.6848   34.8595 F   0  0  0  0  0  0  0  0  0  0  0  0
   32.7248    4.7660   35.2873 F   0  0  0  0  0  0  0  0  0  0  0  0
   29.7371   11.0623   30.4785 C   0  0  0  0  0  0  0  0  0  0  0  0
   28.4321   11.4055   30.7970 N   0  0  0  0  0  0  0  0  0  0  0  0
   30.5610   11.8474   30.0191 O   0  0  0  0  0  0  0  0  0  0  0  0
   27.7496   12.6650   30.4775 C   0  0  2  0  0  0  0  0  0  0  0  0
   28.3331   13.6732   29.4822 C   0  0  0  0  0  0  0  0  0  0  0  0
   28.3703   13.9700   30.9565 C   0  0  1  0  0  0  0  0  0  0  0  0
   26.2391   12.4988   30.3780 C   0  0  0  0  0  0  0  0  0  0  0  0
   25.8626   11.6375   29.3409 N   0  0  0  0  0  0  0  0  0  0  0  0
   25.4660   12.9966   31.1786 O   0  0  0  0  0  0  0  0  0  0  0  0
   24.3184   11.4688   28.7666 S   0  0  0  0  0  0  0  0  0  0  0  0
   23.1406   11.3264   30.1274 C   0  0  0  0  0  0  0  0  0  0  0  0
   24.0330   12.6703   28.0106 O   0  0  0  0  0  0  0  0  0  0  0  0
   24.3176   10.1788   28.1019 O   0  0  0  0  0  0  0  0  0  0  0  0
   23.4699   10.2518   31.0978 C   0  0  0  0  0  0  0  0  0  0  0  0
   21.7093   11.5872   29.7263 C   0  0  0  0  0  0  0  0  0  0  0  0
   22.4584   12.6036   30.5515 C   0  0  0  0  0  0  0  0  0  0  0  0
   27.5858   15.0965   31.5244 C   0  0  0  0  0  0  0  0  0  0  0  0
   27.0734   14.7224   32.7198 F   0  0  0  0  0  0  0  0  0  0  0  0
   26.5485   15.4227   30.7159 F   0  0  0  0  0  0  0  0  0  0  0  0
   38.8684    7.0304   32.6405 H   0  0  0  0  0  0  0  0  0  0  0  0
   38.6091    5.7742   31.4365 H   0  0  0  0  0  0  0  0  0  0  0  0
   39.4976    7.0991   29.6925 H   0  0  0  0  0  0  0  0  0  0  0  0
   40.3393    7.8921   31.0254 H   0  0  0  0  0  0  0  0  0  0  0  0
   39.1428    9.8349   30.5139 H   0  0  0  0  0  0  0  0  0  0  0  0
   38.2340    8.9620   29.2908 H   0  0  0  0  0  0  0  0  0  0  0  0
   37.6387    9.2672   32.2592 H   0  0  0  0  0  0  0  0  0  0  0  0
   36.6455    6.9188   30.5386 H   0  0  0  0  0  0  0  0  0  0  0  0
   34.7196   11.1272   30.3933 H   0  0  0  0  0  0  0  0  0  0  0  0
   32.8829   11.3699   29.1921 H   0  0  0  0  0  0  0  0  0  0  0  0
   33.7916   10.2312   25.7303 H   0  0  0  0  0  0  0  0  0  0  0  0
   33.9814   11.5695   26.8712 H   0  0  0  0  0  0  0  0  0  0  0  0
   35.0218   10.1399   26.9827 H   0  0  0  0  0  0  0  0  0  0  0  0
   30.7659    9.7896   27.7908 H   0  0  0  0  0  0  0  0  0  0  0  0
   31.4505   11.3715   27.3749 H   0  0  0  0  0  0  0  0  0  0  0  0
   31.4203   10.0701   26.1848 H   0  0  0  0  0  0  0  0  0  0  0  0
   32.4902    7.7344   28.2689 H   0  0  0  0  0  0  0  0  0  0  0  0
   32.6012    8.0193   26.5387 H   0  0  0  0  0  0  0  0  0  0  0  0
   34.0616    7.9138   27.4816 H   0  0  0  0  0  0  0  0  0  0  0  0
   31.7373    8.0892   32.8928 H   0  0  0  0  0  0  0  0  0  0  0  0
   32.3241    7.2542   30.7233 H   0  0  0  0  0  0  0  0  0  0  0  0
   30.6300    7.0411   30.2258 H   0  0  0  0  0  0  0  0  0  0  0  0
   29.2271    9.0367   30.2206 H   0  0  0  0  0  0  0  0  0  0  0  0
   28.9930    9.0246   32.5724 H   0  0  0  0  0  0  0  0  0  0  0  0
   30.4717    9.9479   32.8268 H   0  0  0  0  0  0  0  0  0  0  0  0
   32.2670    1.2410   32.0033 H   0  0  0  0  0  0  0  0  0  0  0  0
   30.9038    0.0774   30.2929 H   0  0  0  0  0  0  0  0  0  0  0  0
   28.9915    1.2594   29.2264 H   0  0  0  0  0  0  0  0  0  0  0  0
   28.4813    3.5983   29.8705 H   0  0  0  0  0  0  0  0  0  0  0  0
   33.8126    7.1500   33.3745 H   0  0  0  0  0  0  0  0  0  0  0  0
   34.7592    4.2557   33.7356 H   0  0  0  0  0  0  0  0  0  0  0  0
   36.2518    5.0908   31.9022 H   0  0  0  0  0  0  0  0  0  0  0  0
   36.9541    5.4099   33.5117 H   0  0  0  0  0  0  0  0  0  0  0  0
   27.8423   10.6884   31.2114 H   0  0  0  0  0  0  0  0  0  0  0  0
   27.6449   14.2417   28.8590 H   0  0  0  0  0  0  0  0  0  0  0  0
   29.2682   13.4688   28.9762 H   0  0  0  0  0  0  0  0  0  0  0  0
   29.3310   13.9051   31.4566 H   0  0  0  0  0  0  0  0  0  0  0  0
   26.5575   11.3544   28.6545 H   0  0  0  0  0  0  0  0  0  0  0  0
   24.3607   10.5032   31.6773 H   0  0  0  0  0  0  0  0  0  0  0  0
   22.6551   10.0982   31.8126 H   0  0  0  0  0  0  0  0  0  0  0  0
   23.6445    9.2992   30.5909 H   0  0  0  0  0  0  0  0  0  0  0  0
   21.4942   11.8355   28.6910 H   0  0  0  0  0  0  0  0  0  0  0  0
   20.9274   11.0159   30.2117 H   0  0  0  0  0  0  0  0  0  0  0  0
   22.1923   12.7215   31.5959 H   0  0  0  0  0  0  0  0  0  0  0  0
   22.7475   13.5375   30.0773 H   0  0  0  0  0  0  0  0  0  0  0  0
   28.2013   15.9893   31.6720 H   0  0  0  0  0  0  0  0  0  0  0  0
  1  2  1  0
  2  3  1  0
  4  3  1  0
  4  5  1  0
  5  1  1  0
  4  6  1  0
  6  7  1  0
  7  8  1  0
  7  9  2  0
  8 10  1  0
 10 11  1  0
 10 12  1  0
 12 13  1  0
 12 14  1  0
 12 15  1  0
 11 16  2  0
 11 17  1  0
 19 17  1  0
 17 20  1  0
 18 19  1  0
 20 21  1  0
 18 21  1  0
 18 22  1  0
 22 23  1  0
 23 24  2  0
 28 23  1  0
 24 25  1  0
 26 27  1  0
 27 28  2  0
 26 29  1  0
 25 26  2  0
 32 25  1  0
 29 30  2  0
 30 31  1  0
 31 32  2  0
 28 33  1  0
 33 34  1  0
 34 35  2  0
 35 36  1  0
 36 37  1  0
  5 37  1  0
 33 38  1  0
 33 39  1  0
 20 40  1  0
 40 41  1  0
 40 42  2  0
 43 41  1  1
 43 44  1  0
 45 43  1  0
 44 45  1  0
 43 46  1  0
 46 47  1  0
 46 48  2  0
 47 49  1  0
 49 50  1  0
 49 51  2  0
 49 52  2  0
 50 53  1  0
 50 54  1  0
 55 50  1  0
 54 55  1  0
 45 56  1  0
 56 57  1  0
 56 58  1  0
  1 59  1  0
  1 60  1  0
  2 61  1  0
  2 62  1  0
  3 63  1  0
  3 64  1  0
  4 65  1  1
  5 66  1  6
  8 67  1  0
 10 68  1  1
 13 69  1  0
 13 70  1  0
 13 71  1  0
 14 72  1  0
 14 73  1  0
 14 74  1  0
 15 75  1  0
 15 76  1  0
 15 77  1  0
 18 78  1  1
 19 79  1  0
 19 80  1  0
 20 81  1  6
 21 82  1  0
 21 83  1  0
 29 84  1  0
 30 85  1  0
 31 86  1  0
 32 87  1  0
 34 88  1  0
 35 89  1  0
 36 90  1  0
 36 91  1  0
 41 92  1  0
 44 93  1  0
 44 94  1  0
 45 95  1  1
 47 96  1  0
 53 97  1  0
 53 98  1  0
 53 99  1  0
 54100  1  0
 54101  1  0
 55102  1  0
 55103  1  0
 56104  1  0
M  END
> <Uni-Dock RESULT> 
ENERGY=   -3.628  LOWER_BOUND=    6.938  UPPER_BOUND=   11.179
INTER + INTRA:          -3.628
INTER:                  -3.628
INTRA:                   0.000
UNBOUND:                 0.000

$$$$

     RDKit          3D

104110  0  0  0  0  0  0  0  0999 V2000
   32.4441   16.8694   29.6045 C   0  0  0  0  0  0  0  0  0  0  0  0
   33.2081   17.3655   30.8312 C   0  0  0  0  0  0  0  0  0  0  0  0
   33.9543   16.1540   31.3852 C   0  0  0  0  0  0  0  0  0  0  0  0
   33.6975   15.0271   30.3872 C   0  0  2  0  0  0  0  0  0  0  0  0
   32.3055   15.3558   29.8180 C   0  0  2  0  0  0  0  0  0  0  0  0
   33.9568   13.7373   30.9583 O   0  0  0  0  0  0  0  0  0  0  0  0
   33.0617   13.1298   31.7670 C   0  0  0  0  0  0  0  0  0  0  0  0
   33.6120   11.9562   32.1831 N   0  0  0  0  0  0  0  0  0  0  0  0
   31.9627   13.5581   32.0570 O   0  0  0  0  0  0  0  0  0  0  0  0
   32.8503   10.7400   32.5054 C   0  0  2  0  0  0  0  0  0  0  0  0
   32.3577   10.2111   31.1226 C   0  0  0  0  0  0  0  0  0  0  0  0
   31.9204   10.7756   33.7681 C   0  0  0  0  0  0  0  0  0  0  0  0
   32.6419   11.5143   34.9214 C   0  0  0  0  0  0  0  0  0  0  0  0
   31.6831    9.3235   34.2601 C   0  0  0  0  0  0  0  0  0  0  0  0
   30.5390   11.4297   33.5778 C   0  0  0  0  0  0  0  0  0  0  0  0
   32.9858   10.4540   30.0847 O   0  0  0  0  0  0  0  0  0  0  0  0
   31.2122    9.4059   31.0907 N   0  0  0  0  0  0  0  0  0  0  0  0
   30.6418    9.3865   28.7626 C   0  0  1  0  0  0  0  0  0  0  0  0
   30.2331    9.9346   30.1502 C   0  0  0  0  0  0  0  0  0  0  0  0
   31.4087    8.0361   30.6149 C   0  0  1  0  0  0  0  0  0  0  0  0
   31.4360    8.1086   29.0877 C   0  0  0  0  0  0  0  0  0  0  0  0
   29.6040    9.0397   27.8488 O   0  0  0  0  0  0  0  0  0  0  0  0
   28.5681    9.9226   27.8279 C   0  0  0  0  0  0  0  0  0  0  0  0
   27.4951    9.4887   28.5295 N   0  0  0  0  0  0  0  0  0  0  0  0
   26.4038   10.2731   28.5310 C   0  0  0  0  0  0  0  0  0  0  0  0
   26.3803   11.4997   27.8318 C   0  0  0  0  0  0  0  0  0  0  0  0
   27.4551   11.9244   27.1436 N   0  0  0  0  0  0  0  0  0  0  0  0
   28.5663   11.1201   27.1263 C   0  0  0  0  0  0  0  0  0  0  0  0
   25.2274   12.2744   27.8689 C   0  0  0  0  0  0  0  0  0  0  0  0
   24.0980   11.8585   28.5758 C   0  0  0  0  0  0  0  0  0  0  0  0
   24.1207   10.6431   29.2519 C   0  0  0  0  0  0  0  0  0  0  0  0
   25.2746    9.8644   29.2304 C   0  0  0  0  0  0  0  0  0  0  0  0
   29.7722   11.6243   26.3467 C   0  0  0  0  0  0  0  0  0  0  0  0
   30.5223   12.6758   27.1425 C   0  0  0  0  0  0  0  0  0  0  0  0
   30.1740   13.9758   27.1940 C   0  0  0  0  0  0  0  0  0  0  0  0
   30.8336   15.0712   27.9777 C   0  0  0  0  0  0  0  0  0  0  0  0
   32.0316   14.6315   28.6172 O   0  0  0  0  0  0  0  0  0  0  0  0
   30.6442   10.6307   26.0010 F   0  0  0  0  0  0  0  0  0  0  0  0
   29.3946   12.1606   25.1397 F   0  0  0  0  0  0  0  0  0  0  0  0
   32.5433    7.1995   31.2362 C   0  0  0  0  0  0  0  0  0  0  0  0
   32.4391    5.8503   30.9347 N   0  0  0  0  0  0  0  0  0  0  0  0
   33.4267    7.6797   31.9401 O   0  0  0  0  0  0  0  0  0  0  0  0
   33.2100    4.7526   31.5306 C   0  0  2  0  0  0  0  0  0  0  0  0
   34.0555    4.9480   32.7934 C   0  0  0  0  0  0  0  0  0  0  0  0
   34.7296    4.8072   31.4560 C   0  0  1  0  0  0  0  0  0  0  0  0
   32.4643    3.4257   31.4831 C   0  0  0  0  0  0  0  0  0  0  0  0
   31.2796    3.4504   32.2281 N   0  0  0  0  0  0  0  0  0  0  0  0
   32.8282    2.4881   30.7937 O   0  0  0  0  0  0  0  0  0  0  0  0
   30.3910    2.1132   32.6345 S   0  0  0  0  0  0  0  0  0  0  0  0
   30.1858    1.0231   31.2101 C   0  0  0  0  0  0  0  0  0  0  0  0
   31.1432    1.4227   33.6611 O   0  0  0  0  0  0  0  0  0  0  0  0
   29.0693    2.6330   32.9325 O   0  0  0  0  0  0  0  0  0  0  0  0
   29.6204    1.6968   30.0137 C   0  0  0  0  0  0  0  0  0  0  0  0
   29.7669   -0.3811   31.5709 C   0  0  0  0  0  0  0  0  0  0  0  0
   31.1728   -0.1122   31.0953 C   0  0  0  0  0  0  0  0  0  0  0  0
   35.5833    3.6289   31.1561 C   0  0  0  0  0  0  0  0  0  0  0  0
   35.3801    3.2486   29.8733 F   0  0  0  0  0  0  0  0  0  0  0  0
   35.2616    2.5806   31.9521 F   0  0  0  0  0  0  0  0  0  0  0  0
   33.0119   17.0791   28.6894 H   0  0  0  0  0  0  0  0  0  0  0  0
   31.4769   17.3699   29.4982 H   0  0  0  0  0  0  0  0  0  0  0  0
   32.5166   17.7575   31.5853 H   0  0  0  0  0  0  0  0  0  0  0  0
   33.8965   18.1759   30.5681 H   0  0  0  0  0  0  0  0  0  0  0  0
   35.0262   16.3507   31.4957 H   0  0  0  0  0  0  0  0  0  0  0  0
   33.5796   15.8963   32.3816 H   0  0  0  0  0  0  0  0  0  0  0  0
   34.4245   15.1056   29.5674 H   0  0  0  0  0  0  0  0  0  0  0  0
   31.5053   15.1575   30.5359 H   0  0  0  0  0  0  0  0  0  0  0  0
   34.4638   11.7784   31.6629 H   0  0  0  0  0  0  0  0  0  0  0  0
   33.6599   10.0404   32.7621 H   0  0  0  0  0  0  0  0  0  0  0  0
   32.0626   11.4595   35.8510 H   0  0  0  0  0  0  0  0  0  0  0  0
   33.6270   11.0758   35.1200 H   0  0  0  0  0  0  0  0  0  0  0  0
   32.7849   12.5776   34.7028 H   0  0  0  0  0  0  0  0  0  0  0  0
   31.0816    8.7482   33.5527 H   0  0  0  0  0  0  0  0  0  0  0  0
   32.6294    8.7935   34.4166 H   0  0  0  0  0  0  0  0  0  0  0  0
   31.1449    9.3126   35.2152 H   0  0  0  0  0  0  0  0  0  0  0  0
   30.0431   11.1050   32.6623 H   0  0  0  0  0  0  0  0  0  0  0  0
   29.8712   11.1712   34.4096 H   0  0  0  0  0  0  0  0  0  0  0  0
   30.5846   12.5202   33.5705 H   0  0  0  0  0  0  0  0  0  0  0  0
   31.3183   10.0803   28.2580 H   0  0  0  0  0  0  0  0  0  0  0  0
   30.2165   11.0320   30.1629 H   0  0  0  0  0  0  0  0  0  0  0  0
   29.2524    9.5701   30.4737 H   0  0  0  0  0  0  0  0  0  0  0  0
   30.4872    7.5130   30.9147 H   0  0  0  0  0  0  0  0  0  0  0  0
   31.0215    7.2028   28.6334 H   0  0  0  0  0  0  0  0  0  0  0  0
   32.4674    8.2049   28.7303 H   0  0  0  0  0  0  0  0  0  0  0  0
   25.2150   13.2219   27.3362 H   0  0  0  0  0  0  0  0  0  0  0  0
   23.2078   12.4794   28.5842 H   0  0  0  0  0  0  0  0  0  0  0  0
   23.2432   10.3072   29.7973 H   0  0  0  0  0  0  0  0  0  0  0  0
   25.2948    8.9160   29.7631 H   0  0  0  0  0  0  0  0  0  0  0  0
   31.4019   12.3349   27.6825 H   0  0  0  0  0  0  0  0  0  0  0  0
   29.2946   14.2988   26.6313 H   0  0  0  0  0  0  0  0  0  0  0  0
   30.1051   15.4350   28.7143 H   0  0  0  0  0  0  0  0  0  0  0  0
   31.0871   15.8940   27.2965 H   0  0  0  0  0  0  0  0  0  0  0  0
   31.6926    5.5622   30.3075 H   0  0  0  0  0  0  0  0  0  0  0  0
   34.1305    4.1217   33.4982 H   0  0  0  0  0  0  0  0  0  0  0  0
   34.0920    5.9107   33.2876 H   0  0  0  0  0  0  0  0  0  0  0  0
   35.1706    5.6980   31.0208 H   0  0  0  0  0  0  0  0  0  0  0  0
   31.1070    4.2289   32.8592 H   0  0  0  0  0  0  0  0  0  0  0  0
   30.3363    2.3990   29.5813 H   0  0  0  0  0  0  0  0  0  0  0  0
   29.3686    0.9732   29.2318 H   0  0  0  0  0  0  0  0  0  0  0  0
   28.7064    2.2431   30.2608 H   0  0  0  0  0  0  0  0  0  0  0  0
   29.6264   -0.6311   32.6186 H   0  0  0  0  0  0  0  0  0  0  0  0
   29.0959   -0.9052   30.9013 H   0  0  0  0  0  0  0  0  0  0  0  0
   31.4579   -0.4468   30.1041 H   0  0  0  0  0  0  0  0  0  0  0  0
   31.9815   -0.1821   31.8177 H   0  0  0  0  0  0  0  0  0  0  0  0
   36.6466    3.8501   31.2909 H   0  0  0  0  0  0  0  0  0  0  0  0
  1  2  1  0
  2  3  1  0
  4  3  1  0
  4  5  1  0
  5  1  1  0
  4  6  1  0
  6  7  1  0
  7  8  1  0
  7  9  2  0
  8 10  1  0
 10 11  1  0
 10 12  1  0
 12 13  1  0
 12 14  1  0
 12 15  1  0
 11 16  2  0
 11 17  1  0
 19 17  1  0
 17 20  1  0
 18 19  1  0
 20 21  1  0
 18 21  1  0
 18 22  1  0
 22 23  1  0
 23 24  2  0
 28 23  1  0
 24 25  1  0
 26 27  1  0
 27 28  2  0
 26 29  1  0
 25 26  2  0
 32 25  1  0
 29 30  2  0
 30 31  1  0
 31 32  2  0
 28 33  1  0
 33 34  1  0
 34 35  2  0
 35 36  1  0
 36 37  1  0
  5 37  1  0
 33 38  1  0
 33 39  1  0
 20 40  1  0
 40 41  1  0
 40 42  2  0
 43 41  1  1
 43 44  1  0
 45 43  1  0
 44 45  1  0
 43 46  1  0
 46 47  1  0
 46 48  2  0
 47 49  1  0
 49 50  1  0
 49 51  2  0
 49 52  2  0
 50 53  1  0
 50 54  1  0
 55 50  1  0
 54 55  1  0
 45 56  1  0
 56 57  1  0
 56 58  1  0
  1 59  1  0
  1 60  1  0
  2 61  1  0
  2 62  1  0
  3 63  1  0
  3 64  1  0
  4 65  1  1
  5 66  1  6
  8 67  1  0
 10 68  1  1
 13 69  1  0
 13 70  1  0
 13 71  1  0
 14 72  1  0
 14 73  1  0
 14 74  1  0
 15 75  1  0
 15 76  1  0
 15 77  1  0
 18 78  1  1
 19 79  1  0
 19 80  1  0
 20 81  1  6
 21 82  1  0
 21 83  1  0
 29 84  1  0
 30 85  1  0
 31 86  1  0
 32 87  1  0
 34 88  1  0
 35 89  1  0
 36 90  1  0
 36 91  1  0
 41 92  1  0
 44 93  1  0
 44 94  1  0
 45 95  1  1
 47 96  1  0
 53 97  1  0
 53 98  1  0
 53 99  1  0
 54100  1  0
 54101  1  0
 55102  1  0
 55103  1  0
 56104  1  0
M  END
> <Uni-Dock RESULT> 
ENERGY=   -3.569  LOWER_BOUND=    5.865  UPPER_BOUND=   11.331
INTER + INTRA:          -3.569
INTER:                  -3.569
INTRA:                   0.000
UNBOUND:                 0.000

$$$$

     RDKit          3D

104110  0  0  0  0  0  0  0  0999 V2000
   22.6730    7.2184   33.0422 C   0  0  0  0  0  0  0  0  0  0  0  0
   21.2826    7.7659   32.7231 C   0  0  0  0  0  0  0  0  0  0  0  0
   21.3500    8.2860   31.2891 C   0  0  0  0  0  0  0  0  0  0  0  0
   22.7404    7.9070   30.7841 C   0  0  2  0  0  0  0  0  0  0  0  0
   23.6080    7.9311   32.0556 C   0  0  2  0  0  0  0  0  0  0  0  0
   23.1215    8.6783   29.6365 O   0  0  0  0  0  0  0  0  0  0  0  0
   23.5862    9.9408   29.7563 C   0  0  0  0  0  0  0  0  0  0  0  0
   23.8115   10.4180   28.5014 N   0  0  0  0  0  0  0  0  0  0  0  0
   23.7742   10.5313   30.8009 O   0  0  0  0  0  0  0  0  0  0  0  0
   24.8474   11.4016   28.1511 C   0  0  2  0  0  0  0  0  0  0  0  0
   26.1889   10.6142   28.2724 C   0  0  0  0  0  0  0  0  0  0  0  0
   24.6809   12.8619   28.6990 C   0  0  0  0  0  0  0  0  0  0  0  0
   23.1975   13.2904   28.5878 C   0  0  0  0  0  0  0  0  0  0  0  0
   25.4853   13.8336   27.7958 C   0  0  0  0  0  0  0  0  0  0  0  0
   25.1348   13.0998   30.1516 C   0  0  0  0  0  0  0  0  0  0  0  0
   26.2276    9.3884   28.1089 O   0  0  0  0  0  0  0  0  0  0  0  0
   27.3625   11.3380   28.5181 N   0  0  0  0  0  0  0  0  0  0  0  0
   28.9182    9.6276   29.1508 C   0  0  1  0  0  0  0  0  0  0  0  0
   28.0661   10.8062   29.6778 C   0  0  0  0  0  0  0  0  0  0  0  0
   28.3803   11.2779   27.4685 C   0  0  1  0  0  0  0  0  0  0  0  0
   29.1216    9.9542   27.6604 C   0  0  0  0  0  0  0  0  0  0  0  0
   30.2015    9.4171   29.7348 O   0  0  0  0  0  0  0  0  0  0  0  0
   30.2264    9.5758   31.0866 C   0  0  0  0  0  0  0  0  0  0  0  0
   30.7359   10.7713   31.4647 N   0  0  0  0  0  0  0  0  0  0  0  0
   30.8431   11.0039   32.7841 C   0  0  0  0  0  0  0  0  0  0  0  0
   30.4380   10.0414   33.7346 C   0  0  0  0  0  0  0  0  0  0  0  0
   29.9265    8.8593   33.3472 N   0  0  0  0  0  0  0  0  0  0  0  0
   29.8292    8.6109   32.0016 C   0  0  0  0  0  0  0  0  0  0  0  0
   30.5673   10.3339   35.0868 C   0  0  0  0  0  0  0  0  0  0  0  0
   31.0940   11.5529   35.5168 C   0  0  0  0  0  0  0  0  0  0  0  0
   31.5045   12.4928   34.5772 C   0  0  0  0  0  0  0  0  0  0  0  0
   31.3691   12.2142   33.2198 C   0  0  0  0  0  0  0  0  0  0  0  0
   29.2413    7.2697   31.5872 C   0  0  0  0  0  0  0  0  0  0  0  0
   27.7295    7.2863   31.7127 C   0  0  0  0  0  0  0  0  0  0  0  0
   27.0644    7.0763   32.8649 C   0  0  0  0  0  0  0  0  0  0  0  0
   25.5815    7.1084   33.0864 C   0  0  0  0  0  0  0  0  0  0  0  0
   24.8566    7.2629   31.8664 O   0  0  0  0  0  0  0  0  0  0  0  0
   29.5718    6.9074   30.3117 F   0  0  0  0  0  0  0  0  0  0  0  0
   29.7436    6.2482   32.3562 F   0  0  0  0  0  0  0  0  0  0  0  0
   27.9548   11.5683   26.0166 C   0  0  0  0  0  0  0  0  0  0  0  0
   29.0361   11.7801   25.1751 N   0  0  0  0  0  0  0  0  0  0  0  0
   26.7828   11.6276   25.6571 O   0  0  0  0  0  0  0  0  0  0  0  0
   28.9947   12.2893   23.7991 C   0  0  2  0  0  0  0  0  0  0  0  0
   27.7324   12.9255   23.2078 C   0  0  0  0  0  0  0  0  0  0  0  0
   28.1487   11.5465   22.7742 C   0  0  1  0  0  0  0  0  0  0  0  0
   30.2871   12.9882   23.3987 C   0  0  0  0  0  0  0  0  0  0  0  0
   30.5423   14.1261   24.1728 N   0  0  0  0  0  0  0  0  0  0  0  0
   31.0466   12.5401   22.5567 O   0  0  0  0  0  0  0  0  0  0  0  0
   31.6825   15.2737   23.8183 S   0  0  0  0  0  0  0  0  0  0  0  0
   33.2447   14.5009   23.3476 C   0  0  0  0  0  0  0  0  0  0  0  0
   31.1643   16.0276   22.6960 O   0  0  0  0  0  0  0  0  0  0  0  0
   31.9323   15.9396   25.0833 O   0  0  0  0  0  0  0  0  0  0  0  0
   33.7585   13.5275   24.3443 C   0  0  0  0  0  0  0  0  0  0  0  0
   34.1891   15.4261   22.6197 C   0  0  0  0  0  0  0  0  0  0  0  0
   33.4802   14.3275   21.8674 C   0  0  0  0  0  0  0  0  0  0  0  0
   28.5837   11.2886   21.3773 C   0  0  0  0  0  0  0  0  0  0  0  0
   29.6155   10.4130   21.3882 F   0  0  0  0  0  0  0  0  0  0  0  0
   29.0168   12.4278   20.7850 F   0  0  0  0  0  0  0  0  0  0  0  0
   22.7021    6.1329   32.8851 H   0  0  0  0  0  0  0  0  0  0  0  0
   22.9493    7.3944   34.0862 H   0  0  0  0  0  0  0  0  0  0  0  0
   21.0219    8.5818   33.4064 H   0  0  0  0  0  0  0  0  0  0  0  0
   20.5166    6.9909   32.8341 H   0  0  0  0  0  0  0  0  0  0  0  0
   20.5662    7.8505   30.6600 H   0  0  0  0  0  0  0  0  0  0  0  0
   21.2009    9.3709   31.2678 H   0  0  0  0  0  0  0  0  0  0  0  0
   22.7145    6.8735   30.4129 H   0  0  0  0  0  0  0  0  0  0  0  0
   23.8052    8.9479   32.4051 H   0  0  0  0  0  0  0  0  0  0  0  0
   23.7223    9.6629   27.8309 H   0  0  0  0  0  0  0  0  0  0  0  0
   24.7077   11.4834   27.0628 H   0  0  0  0  0  0  0  0  0  0  0  0
   23.0680   14.3448   28.8601 H   0  0  0  0  0  0  0  0  0  0  0  0
   22.8229   13.1651   27.5650 H   0  0  0  0  0  0  0  0  0  0  0  0
   22.5512   12.7118   29.2560 H   0  0  0  0  0  0  0  0  0  0  0  0
   26.5624   13.6783   27.8904 H   0  0  0  0  0  0  0  0  0  0  0  0
   25.2131   13.7182   26.7407 H   0  0  0  0  0  0  0  0  0  0  0  0
   25.2912   14.8779   28.0673 H   0  0  0  0  0  0  0  0  0  0  0  0
   26.1017   12.6445   30.3692 H   0  0  0  0  0  0  0  0  0  0  0  0
   25.2367   14.1737   30.3535 H   0  0  0  0  0  0  0  0  0  0  0  0
   24.4144   12.7336   30.8853 H   0  0  0  0  0  0  0  0  0  0  0  0
   28.3605    8.6903   29.2137 H   0  0  0  0  0  0  0  0  0  0  0  0
   27.3657   10.4819   30.4581 H   0  0  0  0  0  0  0  0  0  0  0  0
   28.6782   11.6207   30.0793 H   0  0  0  0  0  0  0  0  0  0  0  0
   29.0735   12.0959   27.7195 H   0  0  0  0  0  0  0  0  0  0  0  0
   30.1727   10.0340   27.3646 H   0  0  0  0  0  0  0  0  0  0  0  0
   28.6708    9.1726   27.0384 H   0  0  0  0  0  0  0  0  0  0  0  0
   30.2473    9.5941   35.8162 H   0  0  0  0  0  0  0  0  0  0  0  0
   31.1899   11.7546   36.5790 H   0  0  0  0  0  0  0  0  0  0  0  0
   31.9238   13.4405   34.9027 H   0  0  0  0  0  0  0  0  0  0  0  0
   31.6853   12.9509   32.4842 H   0  0  0  0  0  0  0  0  0  0  0  0
   27.1719    7.4648   30.7969 H   0  0  0  0  0  0  0  0  0  0  0  0
   27.6454    6.8840   33.7704 H   0  0  0  0  0  0  0  0  0  0  0  0
   25.3687    7.9345   33.7778 H   0  0  0  0  0  0  0  0  0  0  0  0
   25.2707    6.1662   33.5564 H   0  0  0  0  0  0  0  0  0  0  0  0
   29.9681   11.6662   25.5649 H   0  0  0  0  0  0  0  0  0  0  0  0
   27.8493   13.7455   22.5013 H   0  0  0  0  0  0  0  0  0  0  0  0
   26.8354   13.0265   23.8056 H   0  0  0  0  0  0  0  0  0  0  0  0
   27.5601   10.7090   23.1341 H   0  0  0  0  0  0  0  0  0  0  0  0
   29.8083   14.4913   24.7745 H   0  0  0  0  0  0  0  0  0  0  0  0
   33.1354   12.6312   24.3777 H   0  0  0  0  0  0  0  0  0  0  0  0
   34.7741   13.2030   24.0961 H   0  0  0  0  0  0  0  0  0  0  0  0
   33.7900   13.9643   25.3458 H   0  0  0  0  0  0  0  0  0  0  0  0
   33.8769   16.4497   22.4335 H   0  0  0  0  0  0  0  0  0  0  0  0
   35.2523   15.3169   22.7952 H   0  0  0  0  0  0  0  0  0  0  0  0
   34.0562   13.4709   21.5357 H   0  0  0  0  0  0  0  0  0  0  0  0
   32.6927   14.6065   21.1727 H   0  0  0  0  0  0  0  0  0  0  0  0
   27.7762   10.8696   20.7689 H   0  0  0  0  0  0  0  0  0  0  0  0
  1  2  1  0
  2  3  1  0
  4  3  1  0
  4  5  1  0
  5  1  1  0
  4  6  1  0
  6  7  1  0
  7  8  1  0
  7  9  2  0
  8 10  1  0
 10 11  1  0
 10 12  1  0
 12 13  1  0
 12 14  1  0
 12 15  1  0
 11 16  2  0
 11 17  1  0
 19 17  1  0
 17 20  1  0
 18 19  1  0
 20 21  1  0
 18 21  1  0
 18 22  1  0
 22 23  1  0
 23 24  2  0
 28 23  1  0
 24 25  1  0
 26 27  1  0
 27 28  2  0
 26 29  1  0
 25 26  2  0
 32 25  1  0
 29 30  2  0
 30 31  1  0
 31 32  2  0
 28 33  1  0
 33 34  1  0
 34 35  2  0
 35 36  1  0
 36 37  1  0
  5 37  1  0
 33 38  1  0
 33 39  1  0
 20 40  1  0
 40 41  1  0
 40 42  2  0
 43 41  1  1
 43 44  1  0
 45 43  1  0
 44 45  1  0
 43 46  1  0
 46 47  1  0
 46 48  2  0
 47 49  1  0
 49 50  1  0
 49 51  2  0
 49 52  2  0
 50 53  1  0
 50 54  1  0
 55 50  1  0
 54 55  1  0
 45 56  1  0
 56 57  1  0
 56 58  1  0
  1 59  1  0
  1 60  1  0
  2 61  1  0
  2 62  1  0
  3 63  1  0
  3 64  1  0
  4 65  1  1
  5 66  1  6
  8 67  1  0
 10 68  1  1
 13 69  1  0
 13 70  1  0
 13 71  1  0
 14 72  1  0
 14 73  1  0
 14 74  1  0
 15 75  1  0
 15 76  1  0
 15 77  1  0
 18 78  1  1
 19 79  1  0
 19 80  1  0
 20 81  1  6
 21 82  1  0
 21 83  1  0
 29 84  1  0
 30 85  1  0
 31 86  1  0
 32 87  1  0
 34 88  1  0
 35 89  1  0
 36 90  1  0
 36 91  1  0
 41 92  1  0
 44 93  1  0
 44 94  1  0
 45 95  1  1
 47 96  1  0
 53 97  1  0
 53 98  1  0
 53 99  1  0
 54100  1  0
 54101  1  0
 55102  1  0
 55103  1  0
 56104  1  0
M  END
> <Uni-Dock RESULT> 
ENERGY=   -3.530  LOWER_BOUND=    3.877  UPPER_BOUND=    6.354
INTER + INTRA:          -3.530
INTER:                  -3.530
INTRA:                   0.000
UNBOUND:                 0.000

$$$$
