
     RDKit          3D

109114  0  0  0  0  0  0  0  0999 V2000
   52.9282   12.9094   19.7076 O   0  0  0  0  0  0  0  0  0  0  0  0
   51.8118   12.3868   20.4439 C   0  0  2  0  0  0  0  0  0  0  0  0
   51.2404   11.2010   19.6523 C   0  0  0  0  0  0  0  0  0  0  0  0
   52.2965   10.1128   19.4144 C   0  0  2  0  0  0  0  0  0  0  0  0
   53.2964   10.5648   18.5063 O   0  0  0  0  0  0  0  0  0  0  0  0
   51.6870    8.8928   18.7909 C   0  0  0  0  0  0  0  0  0  0  0  0
   51.5972    7.7037   19.4092 C   0  0  0  0  0  0  0  0  0  0  0  0
   50.9693    6.5273   18.7808 C   0  0  0  0  0  0  0  0  0  0  0  0
   51.7784    5.5120   18.2460 C   0  0  0  0  0  0  0  0  0  0  0  0
   51.2376    4.3869   17.7072 N   0  0  0  0  0  0  0  0  0  0  0  0
   49.9079    4.2427   17.6579 C   0  0  0  0  0  0  0  0  0  0  0  0
   49.4071    3.0769   17.0925 C   0  0  0  0  0  0  0  0  0  0  0  0
   48.0372    2.8287   17.0041 C   0  0  0  0  0  0  0  0  0  0  0  0
   47.1391    3.7670   17.4903 C   0  0  0  0  0  0  0  0  0  0  0  0
   47.6190    4.9459   18.0615 C   0  0  0  0  0  0  0  0  0  0  0  0
   49.0107    5.2083   18.1574 C   0  0  0  0  0  0  0  0  0  0  0  0
   49.5630    6.3830   18.7373 C   0  0  0  0  0  0  0  0  0  0  0  0
   48.6841    7.4293   19.3002 C   0  0  0  0  0  0  0  0  0  0  0  0
   48.1741    8.4513   18.4788 C   0  0  0  0  0  0  0  0  0  0  0  0
   47.3458    9.4403   19.0085 C   0  0  0  0  0  0  0  0  0  0  0  0
   47.0243    9.4125   20.3600 C   0  0  0  0  0  0  0  0  0  0  0  0
   46.2139   10.3500   20.8641 F   0  0  0  0  0  0  0  0  0  0  0  0
   47.5201    8.4185   21.1944 C   0  0  0  0  0  0  0  0  0  0  0  0
   48.3490    7.4285   20.6646 C   0  0  0  0  0  0  0  0  0  0  0  0
   53.2949    5.6058   18.2600 C   0  0  0  0  0  0  0  0  0  0  0  0
   54.1134    4.9955   17.1423 C   0  0  0  0  0  0  0  0  0  0  0  0
   54.0011    6.4857   17.2542 C   0  0  0  0  0  0  0  0  0  0  0  0
   50.7587   13.4744   20.6430 C   0  0  0  0  0  0  0  0  0  0  0  0
   51.3089   14.4680   21.6639 C   0  0  0  0  0  0  0  0  0  0  0  0
   52.5034   14.8352   21.4558 O   0  0  0  0  0  0  0  0  0  0  0  0
   50.5112   14.7916   22.5835 O   0  0  0  0  0  0  0  0  0  0  0  0
   50.5645    8.1936   19.1386 Mg  0  0  0  0  0 15  0  0  0  0  0  0
   53.2667   11.0073   22.1420 O   0  0  0  0  0  0  0  0  0  0  0  0
   52.8395   11.8051   21.0323 C   0  0  2  0  0  0  0  0  0  0  0  0
   51.9755   10.9191   20.1212 C   0  0  0  0  0  0  0  0  0  0  0  0
   52.6896    9.6849   19.5365 C   0  0  2  0  0  0  0  0  0  0  0  0
   53.5429   10.0279   18.4407 O   0  0  0  0  0  0  0  0  0  0  0  0
   51.7928    8.6200   18.9559 C   0  0  0  0  0  0  0  0  0  0  0  0
   50.4516    8.5877   18.9289 C   0  0  0  0  0  0  0  0  0  0  0  0
   49.7167    7.5207   18.2241 C   0  0  0  0  0  0  0  0  0  0  0  0
   49.3452    7.7233   16.8837 C   0  0  0  0  0  0  0  0  0  0  0  0
   48.6885    6.7638   16.1806 N   0  0  0  0  0  0  0  0  0  0  0  0
   48.3824    5.5998   16.7618 C   0  0  0  0  0  0  0  0  0  0  0  0
   47.7191    4.6510   15.9952 C   0  0  0  0  0  0  0  0  0  0  0  0
   47.3637    3.4017   16.5057 C   0  0  0  0  0  0  0  0  0  0  0  0
   47.6723    3.0874   17.8185 C   0  0  0  0  0  0  0  0  0  0  0  0
   48.3301    4.0290   18.6099 C   0  0  0  0  0  0  0  0  0  0  0  0
   48.7032    5.3011   18.0989 C   0  0  0  0  0  0  0  0  0  0  0  0
   49.3852    6.2979   18.8502 C   0  0  0  0  0  0  0  0  0  0  0  0
   49.7332    6.0597   20.2656 C   0  0  0  0  0  0  0  0  0  0  0  0
   50.9775    5.5118   20.6187 C   0  0  0  0  0  0  0  0  0  0  0  0
   51.2913    5.2646   21.9570 C   0  0  0  0  0  0  0  0  0  0  0  0
   50.3591    5.5631   22.9417 C   0  0  0  0  0  0  0  0  0  0  0  0
   50.6502    5.3090   24.2242 F   0  0  0  0  0  0  0  0  0  0  0  0
   49.1213    6.1055   22.6199 C   0  0  0  0  0  0  0  0  0  0  0  0
   48.8111    6.3575   21.2831 C   0  0  0  0  0  0  0  0  0  0  0  0
   49.6741    9.0123   16.1479 C   0  0  0  0  0  0  0  0  0  0  0  0
   48.8796   10.2679   16.4289 C   0  0  0  0  0  0  0  0  0  0  0  0
   48.7242    9.5720   15.1139 C   0  0  0  0  0  0  0  0  0  0  0  0
   54.0447   12.4324   20.3465 C   0  0  0  0  0  0  0  0  0  0  0  0
   54.6179   13.5299   21.2403 C   0  0  0  0  0  0  0  0  0  0  0  0
   54.6843   13.2315   22.4693 O   0  0  0  0  0  0  0  0  0  0  0  0
   54.9579   14.5855   20.6397 O   0  0  0  0  0  0  0  0  0  0  0  0
   53.1483   13.7464   20.1996 H   0  0  0  0  0  0  0  0  0  0  0  0
   52.1918   12.0322   21.4104 H   0  0  0  0  0  0  0  0  0  0  0  0
   50.8851   11.5661   18.6774 H   0  0  0  0  0  0  0  0  0  0  0  0
   50.3834   10.7823   20.1936 H   0  0  0  0  0  0  0  0  0  0  0  0
   52.7969    9.8578   20.3540 H   0  0  0  0  0  0  0  0  0  0  0  0
   53.4538   11.5053   18.7562 H   0  0  0  0  0  0  0  0  0  0  0  0
   51.3135    9.0142   17.7769 H   0  0  0  0  0  0  0  0  0  0  0  0
   51.9810    7.5627   20.4148 H   0  0  0  0  0  0  0  0  0  0  0  0
   50.1094    2.3361   16.7121 H   0  0  0  0  0  0  0  0  0  0  0  0
   47.6792    1.9011   16.5656 H   0  0  0  0  0  0  0  0  0  0  0  0
   46.0691    3.5870   17.4280 H   0  0  0  0  0  0  0  0  0  0  0  0
   46.8936    5.6667   18.4372 H   0  0  0  0  0  0  0  0  0  0  0  0
   48.4321    8.4792   17.4222 H   0  0  0  0  0  0  0  0  0  0  0  0
   46.9585   10.2356   18.3787 H   0  0  0  0  0  0  0  0  0  0  0  0
   47.2639    8.4252   22.2484 H   0  0  0  0  0  0  0  0  0  0  0  0
   48.7396    6.6572   21.3242 H   0  0  0  0  0  0  0  0  0  0  0  0
   53.7433    5.5541   19.2500 H   0  0  0  0  0  0  0  0  0  0  0  0
   53.5918    4.5004   16.3295 H   0  0  0  0  0  0  0  0  0  0  0  0
   55.0588    4.5369   17.4050 H   0  0  0  0  0  0  0  0  0  0  0  0
   53.4039    7.0128   16.5186 H   0  0  0  0  0  0  0  0  0  0  0  0
   54.8601    7.0450   17.6043 H   0  0  0  0  0  0  0  0  0  0  0  0
   49.8176   13.0493   21.0159 H   0  0  0  0  0  0  0  0  0  0  0  0
   50.5611   14.0158   19.7090 H   0  0  0  0  0  0  0  0  0  0  0  0
   53.8691   11.6185   22.6425 H   0  0  0  0  0  0  0  0  0  0  0  0
   52.1861   12.5940   21.4293 H   0  0  0  0  0  0  0  0  0  0  0  0
   51.1340   10.5798   20.7367 H   0  0  0  0  0  0  0  0  0  0  0  0
   51.5626   11.5336   19.3105 H   0  0  0  0  0  0  0  0  0  0  0  0
   53.3106    9.2092   20.3038 H   0  0  0  0  0  0  0  0  0  0  0  0
   53.5753   10.9944   18.3645 H   0  0  0  0  0  0  0  0  0  0  0  0
   52.3437    7.8085   18.4847 H   0  0  0  0  0  0  0  0  0  0  0  0
   49.8333    9.3652   19.3643 H   0  0  0  0  0  0  0  0  0  0  0  0
   47.4792    4.8890   14.9617 H   0  0  0  0  0  0  0  0  0  0  0  0
   46.8489    2.6861   15.8716 H   0  0  0  0  0  0  0  0  0  0  0  0
   47.4049    2.1164   18.2283 H   0  0  0  0  0  0  0  0  0  0  0  0
   48.5618    3.7568   19.6376 H   0  0  0  0  0  0  0  0  0  0  0  0
   51.7088    5.2798   19.8497 H   0  0  0  0  0  0  0  0  0  0  0  0
   52.2508    4.8433   22.2339 H   0  0  0  0  0  0  0  0  0  0  0  0
   48.4135    6.3407   23.4057 H   0  0  0  0  0  0  0  0  0  0  0  0
   47.8463    6.7897   21.0340 H   0  0  0  0  0  0  0  0  0  0  0  0
   50.7315    9.1535   15.9347 H   0  0  0  0  0  0  0  0  0  0  0  0
   48.0567   10.2182   17.1305 H   0  0  0  0  0  0  0  0  0  0  0  0
   49.4160   11.2084   16.4474 H   0  0  0  0  0  0  0  0  0  0  0  0
   47.7982    9.0445   14.9236 H   0  0  0  0  0  0  0  0  0  0  0  0
   49.1616   10.0247   14.2337 H   0  0  0  0  0  0  0  0  0  0  0  0
   54.8437   11.7012   20.1847 H   0  0  0  0  0  0  0  0  0  0  0  0
   53.7569   12.8707   19.3853 H   0  0  0  0  0  0  0  0  0  0  0  0
  2  1  1  0
  2  3  1  0
  3  4  1  0
  4  5  1  0
  4  6  1  0
  6  7  2  0
  7  8  1  0
  8  9  2  0
  9 10  1  0
 10 11  2  0
 11 12  1  0
 12 13  2  0
 13 14  1  0
 14 15  2  0
 15 16  1  0
 11 16  1  0
 16 17  2  0
  8 17  1  0
 17 18  1  0
 18 19  2  0
 19 20  1  0
 20 21  2  0
 21 22  1  0
 21 23  1  0
 23 24  2  0
 18 24  1  0
  9 25  1  0
 25 26  1  0
 26 27  1  0
 25 27  1  0
  2 28  1  0
 28 29  1  0
 29 30  2  0
 29 31  1  0
 34 33  1  0
 34 35  1  0
 35 36  1  0
 36 37  1  0
 36 38  1  0
 38 39  2  0
 39 40  1  0
 40 41  2  0
 41 42  1  0
 42 43  2  0
 43 44  1  0
 44 45  2  0
 45 46  1  0
 46 47  2  0
 47 48  1  0
 43 48  1  0
 48 49  2  0
 40 49  1  0
 49 50  1  0
 50 51  2  0
 51 52  1  0
 52 53  2  0
 53 54  1  0
 53 55  1  0
 55 56  2  0
 50 56  1  0
 41 57  1  0
 57 58  1  0
 58 59  1  0
 57 59  1  0
 34 60  1  0
 60 61  1  0
 61 62  2  0
 61 63  1  0
  1 64  1  0
  2 65  1  1
  3 66  1  0
  3 67  1  0
  4 68  1  1
  5 69  1  0
  6 70  1  0
  7 71  1  0
 12 72  1  0
 13 73  1  0
 14 74  1  0
 15 75  1  0
 19 76  1  0
 20 77  1  0
 23 78  1  0
 24 79  1  0
 25 80  1  0
 26 81  1  0
 26 82  1  0
 27 83  1  0
 27 84  1  0
 28 85  1  0
 28 86  1  0
 33 87  1  0
 34 88  1  1
 35 89  1  0
 35 90  1  0
 36 91  1  1
 37 92  1  0
 38 93  1  0
 39 94  1  0
 44 95  1  0
 45 96  1  0
 46 97  1  0
 47 98  1  0
 51 99  1  0
 52100  1  0
 55101  1  0
 56102  1  0
 57103  1  0
 58104  1  0
 58105  1  0
 59106  1  0
 59107  1  0
 60108  1  0
 60109  1  0
M  CHG  3  31  -1  32   2  63  -1
M  END
> <Uni-Dock RESULT> 
ENERGY=   -6.769  LOWER_BOUND=    0.000  UPPER_BOUND=    0.000
INTER + INTRA:          -6.769
INTER:                  -6.769
INTRA:                   0.000
UNBOUND:                 0.000

$$$$

     RDKit          3D

109114  0  0  0  0  0  0  0  0999 V2000
   52.7588   12.9400   19.8240 O   0  0  0  0  0  0  0  0  0  0  0  0
   51.6437   12.3853   20.5385 C   0  0  2  0  0  0  0  0  0  0  0  0
   51.1004   11.2052   19.7191 C   0  0  0  0  0  0  0  0  0  0  0  0
   52.1770   10.1392   19.4724 C   0  0  2  0  0  0  0  0  0  0  0  0
   53.1786   10.6246   18.5835 O   0  0  0  0  0  0  0  0  0  0  0  0
   51.5945    8.9212   18.8199 C   0  0  0  0  0  0  0  0  0  0  0  0
   51.5181    7.7194   19.4152 C   0  0  0  0  0  0  0  0  0  0  0  0
   50.9165    6.5448   18.7585 C   0  0  0  0  0  0  0  0  0  0  0  0
   51.7479    5.5531   18.2136 C   0  0  0  0  0  0  0  0  0  0  0  0
   51.2316    4.4295   17.6485 N   0  0  0  0  0  0  0  0  0  0  0  0
   49.9051    4.2644   17.5823 C   0  0  0  0  0  0  0  0  0  0  0  0
   49.4297    3.1012   16.9901 C   0  0  0  0  0  0  0  0  0  0  0  0
   48.0651    2.8321   16.8825 C   0  0  0  0  0  0  0  0  0  0  0  0
   47.1465    3.7462   17.3763 C   0  0  0  0  0  0  0  0  0  0  0  0
   47.6007    4.9221   17.9744 C   0  0  0  0  0  0  0  0  0  0  0  0
   48.9867    5.2055   18.0899 C   0  0  0  0  0  0  0  0  0  0  0  0
   49.5133    6.3781   18.6973 C   0  0  0  0  0  0  0  0  0  0  0  0
   48.6113    7.3991   19.2701 C   0  0  0  0  0  0  0  0  0  0  0  0
   48.0928    8.4277   18.4623 C   0  0  0  0  0  0  0  0  0  0  0  0
   47.2427    9.3928   19.0013 C   0  0  0  0  0  0  0  0  0  0  0  0
   46.9077    9.3346   20.3486 C   0  0  0  0  0  0  0  0  0  0  0  0
   46.0766   10.2490   20.8612 F   0  0  0  0  0  0  0  0  0  0  0  0
   47.4114    8.3334   21.1696 C   0  0  0  0  0  0  0  0  0  0  0  0
   48.2621    7.3674   20.6305 C   0  0  0  0  0  0  0  0  0  0  0  0
   53.2624    5.6717   18.2457 C   0  0  0  0  0  0  0  0  0  0  0  0
   54.1026    5.0959   17.1256 C   0  0  0  0  0  0  0  0  0  0  0  0
   53.9642    6.5817   17.2639 C   0  0  0  0  0  0  0  0  0  0  0  0
   50.5706   13.4515   20.7465 C   0  0  0  0  0  0  0  0  0  0  0  0
   51.0935   14.4348   21.7914 C   0  0  0  0  0  0  0  0  0  0  0  0
   52.2838   14.8255   21.6029 O   0  0  0  0  0  0  0  0  0  0  0  0
   50.2811   14.7280   22.7082 O   0  0  0  0  0  0  0  0  0  0  0  0
   50.4803    8.1973   19.1426 Mg  0  0  0  0  0 15  0  0  0  0  0  0
   53.1038   10.9985   22.2263 O   0  0  0  0  0  0  0  0  0  0  0  0
   52.6748   11.8097   21.1270 C   0  0  2  0  0  0  0  0  0  0  0  0
   51.8352   10.9268   20.1905 C   0  0  0  0  0  0  0  0  0  0  0  0
   52.5759    9.7157   19.5908 C   0  0  2  0  0  0  0  0  0  0  0  0
   53.4347   10.0931   18.5107 O   0  0  0  0  0  0  0  0  0  0  0  0
   51.7030    8.6472   18.9810 C   0  0  0  0  0  0  0  0  0  0  0  0
   50.3629    8.5932   18.9391 C   0  0  0  0  0  0  0  0  0  0  0  0
   49.6533    7.5276   18.2069 C   0  0  0  0  0  0  0  0  0  0  0  0
   49.2925    7.7490   16.8666 C   0  0  0  0  0  0  0  0  0  0  0  0
   48.6591    6.7921   16.1389 N   0  0  0  0  0  0  0  0  0  0  0  0
   48.3665    5.6126   16.6952 C   0  0  0  0  0  0  0  0  0  0  0  0
   47.7271    4.6674   15.9041 C   0  0  0  0  0  0  0  0  0  0  0  0
   47.3874    3.4031   16.3876 C   0  0  0  0  0  0  0  0  0  0  0  0
   47.6875    3.0696   17.6976 C   0  0  0  0  0  0  0  0  0  0  0  0
   48.3212    4.0069   18.5133 C   0  0  0  0  0  0  0  0  0  0  0  0
   48.6784    5.2943   18.0299 C   0  0  0  0  0  0  0  0  0  0  0  0
   49.3358    6.2880   18.8067 C   0  0  0  0  0  0  0  0  0  0  0  0
   49.6730    6.0293   20.2211 C   0  0  0  0  0  0  0  0  0  0  0  0
   50.9226    5.4954   20.5773 C   0  0  0  0  0  0  0  0  0  0  0  0
   51.2266    5.2285   21.9141 C   0  0  0  0  0  0  0  0  0  0  0  0
   50.2793    5.4932   22.8941 C   0  0  0  0  0  0  0  0  0  0  0  0
   50.5613    5.2200   24.1747 F   0  0  0  0  0  0  0  0  0  0  0  0
   49.0360    6.0210   22.5692 C   0  0  0  0  0  0  0  0  0  0  0  0
   48.7356    6.2927   21.2341 C   0  0  0  0  0  0  0  0  0  0  0  0
   49.6074    9.0568   16.1583 C   0  0  0  0  0  0  0  0  0  0  0  0
   48.7891   10.2937   16.4540 C   0  0  0  0  0  0  0  0  0  0  0  0
   48.6591    9.6199   15.1247 C   0  0  0  0  0  0  0  0  0  0  0  0
   53.8765   12.4696   20.4659 C   0  0  0  0  0  0  0  0  0  0  0  0
   54.4220   13.5595   21.3859 C   0  0  0  0  0  0  0  0  0  0  0  0
   54.4806   13.2393   22.6098 O   0  0  0  0  0  0  0  0  0  0  0  0
   54.7505   14.6316   20.8085 O   0  0  0  0  0  0  0  0  0  0  0  0
   52.9598   13.7711   20.3337 H   0  0  0  0  0  0  0  0  0  0  0  0
   52.0196   12.0191   21.5023 H   0  0  0  0  0  0  0  0  0  0  0  0
   50.7492   11.5826   18.7473 H   0  0  0  0  0  0  0  0  0  0  0  0
   50.2450   10.7624   20.2433 H   0  0  0  0  0  0  0  0  0  0  0  0
   52.6718    9.8750   20.4125 H   0  0  0  0  0  0  0  0  0  0  0  0
   53.3176   11.5627   18.8525 H   0  0  0  0  0  0  0  0  0  0  0  0
   51.2295    9.0553   17.8044 H   0  0  0  0  0  0  0  0  0  0  0  0
   51.8937    7.5660   20.4221 H   0  0  0  0  0  0  0  0  0  0  0  0
   50.1482    2.3793   16.6036 H   0  0  0  0  0  0  0  0  0  0  0  0
   47.7273    1.9071   16.4231 H   0  0  0  0  0  0  0  0  0  0  0  0
   46.0803    3.5498   17.2993 H   0  0  0  0  0  0  0  0  0  0  0  0
   46.8595    5.6236   18.3555 H   0  0  0  0  0  0  0  0  0  0  0  0
   48.3612    8.4796   17.4092 H   0  0  0  0  0  0  0  0  0  0  0  0
   46.8487   10.1933   18.3821 H   0  0  0  0  0  0  0  0  0  0  0  0
   47.1441    8.3163   22.2207 H   0  0  0  0  0  0  0  0  0  0  0  0
   48.6587    6.5904   21.2799 H   0  0  0  0  0  0  0  0  0  0  0  0
   53.7013    5.6089   19.2392 H   0  0  0  0  0  0  0  0  0  0  0  0
   53.5978    4.6075   16.2983 H   0  0  0  0  0  0  0  0  0  0  0  0
   55.0527    4.6481   17.3899 H   0  0  0  0  0  0  0  0  0  0  0  0
   53.3660    7.1125   16.5318 H   0  0  0  0  0  0  0  0  0  0  0  0
   54.8101    7.1485   17.6334 H   0  0  0  0  0  0  0  0  0  0  0  0
   49.6329   13.0040   21.1013 H   0  0  0  0  0  0  0  0  0  0  0  0
   50.3738   14.0069   19.8206 H   0  0  0  0  0  0  0  0  0  0  0  0
   53.6907   11.6102   22.7444 H   0  0  0  0  0  0  0  0  0  0  0  0
   52.0043   12.5802   21.5316 H   0  0  0  0  0  0  0  0  0  0  0  0
   50.9932   10.5622   20.7907 H   0  0  0  0  0  0  0  0  0  0  0  0
   51.4206   11.5494   19.3869 H   0  0  0  0  0  0  0  0  0  0  0  0
   53.1967    9.2360   20.3558 H   0  0  0  0  0  0  0  0  0  0  0  0
   53.4517   11.0613   18.4527 H   0  0  0  0  0  0  0  0  0  0  0  0
   52.2723    7.8538   18.5008 H   0  0  0  0  0  0  0  0  0  0  0  0
   49.7272    9.3521   19.3821 H   0  0  0  0  0  0  0  0  0  0  0  0
   47.4941    4.9206   14.8727 H   0  0  0  0  0  0  0  0  0  0  0  0
   46.8912    2.6911   15.7349 H   0  0  0  0  0  0  0  0  0  0  0  0
   47.4321    2.0867   18.0865 H   0  0  0  0  0  0  0  0  0  0  0  0
   48.5468    3.7194   19.5381 H   0  0  0  0  0  0  0  0  0  0  0  0
   51.6656    5.2900   19.8120 H   0  0  0  0  0  0  0  0  0  0  0  0
   52.1900    4.8180   22.1934 H   0  0  0  0  0  0  0  0  0  0  0  0
   48.3163    6.2297   23.3516 H   0  0  0  0  0  0  0  0  0  0  0  0
   47.7663    6.7135   20.9826 H   0  0  0  0  0  0  0  0  0  0  0  0
   50.6644    9.2194   15.9590 H   0  0  0  0  0  0  0  0  0  0  0  0
   47.9599   10.2173   17.1456 H   0  0  0  0  0  0  0  0  0  0  0  0
   49.3096   11.2424   16.4956 H   0  0  0  0  0  0  0  0  0  0  0  0
   47.7440    9.0809   14.9149 H   0  0  0  0  0  0  0  0  0  0  0  0
   49.0979   10.0961   14.2578 H   0  0  0  0  0  0  0  0  0  0  0  0
   54.6892   11.7548   20.2992 H   0  0  0  0  0  0  0  0  0  0  0  0
   53.5913   12.9209   19.5099 H   0  0  0  0  0  0  0  0  0  0  0  0
  2  1  1  0
  2  3  1  0
  3  4  1  0
  4  5  1  0
  4  6  1  0
  6  7  2  0
  7  8  1  0
  8  9  2  0
  9 10  1  0
 10 11  2  0
 11 12  1  0
 12 13  2  0
 13 14  1  0
 14 15  2  0
 15 16  1  0
 11 16  1  0
 16 17  2  0
  8 17  1  0
 17 18  1  0
 18 19  2  0
 19 20  1  0
 20 21  2  0
 21 22  1  0
 21 23  1  0
 23 24  2  0
 18 24  1  0
  9 25  1  0
 25 26  1  0
 26 27  1  0
 25 27  1  0
  2 28  1  0
 28 29  1  0
 29 30  2  0
 29 31  1  0
 34 33  1  0
 34 35  1  0
 35 36  1  0
 36 37  1  0
 36 38  1  0
 38 39  2  0
 39 40  1  0
 40 41  2  0
 41 42  1  0
 42 43  2  0
 43 44  1  0
 44 45  2  0
 45 46  1  0
 46 47  2  0
 47 48  1  0
 43 48  1  0
 48 49  2  0
 40 49  1  0
 49 50  1  0
 50 51  2  0
 51 52  1  0
 52 53  2  0
 53 54  1  0
 53 55  1  0
 55 56  2  0
 50 56  1  0
 41 57  1  0
 57 58  1  0
 58 59  1  0
 57 59  1  0
 34 60  1  0
 60 61  1  0
 61 62  2  0
 61 63  1  0
  1 64  1  0
  2 65  1  1
  3 66  1  0
  3 67  1  0
  4 68  1  1
  5 69  1  0
  6 70  1  0
  7 71  1  0
 12 72  1  0
 13 73  1  0
 14 74  1  0
 15 75  1  0
 19 76  1  0
 20 77  1  0
 23 78  1  0
 24 79  1  0
 25 80  1  0
 26 81  1  0
 26 82  1  0
 27 83  1  0
 27 84  1  0
 28 85  1  0
 28 86  1  0
 33 87  1  0
 34 88  1  1
 35 89  1  0
 35 90  1  0
 36 91  1  1
 37 92  1  0
 38 93  1  0
 39 94  1  0
 44 95  1  0
 45 96  1  0
 46 97  1  0
 47 98  1  0
 51 99  1  0
 52100  1  0
 55101  1  0
 56102  1  0
 57103  1  0
 58104  1  0
 58105  1  0
 59106  1  0
 59107  1  0
 60108  1  0
 60109  1  0
M  CHG  3  31  -1  32   2  63  -1
M  END
> <Uni-Dock RESULT> 
ENERGY=   -6.756  LOWER_BOUND=    0.138  UPPER_BOUND=    0.138
INTER + INTRA:          -6.756
INTER:                  -6.756
INTRA:                   0.000
UNBOUND:                 0.000

$$$$

     RDKit          3D

109114  0  0  0  0  0  0  0  0999 V2000
   55.1728   11.1078   20.9214 O   0  0  0  0  0  0  0  0  0  0  0  0
   55.0214   10.7503   19.5390 C   0  0  2  0  0  0  0  0  0  0  0  0
   54.0674    9.5487   19.4660 C   0  0  0  0  0  0  0  0  0  0  0  0
   52.7061    9.8624   20.1023 C   0  0  2  0  0  0  0  0  0  0  0  0
   52.8259   10.0048   21.5144 O   0  0  0  0  0  0  0  0  0  0  0  0
   51.7318    8.7451   19.8765 C   0  0  0  0  0  0  0  0  0  0  0  0
   50.6297    8.8573   19.1167 C   0  0  0  0  0  0  0  0  0  0  0  0
   49.7025    7.7337   18.8917 C   0  0  0  0  0  0  0  0  0  0  0  0
   48.4861    7.6874   19.5913 C   0  0  0  0  0  0  0  0  0  0  0  0
   47.5810    6.6969   19.3713 N   0  0  0  0  0  0  0  0  0  0  0  0
   47.8535    5.7271   18.4902 C   0  0  0  0  0  0  0  0  0  0  0  0
   46.8973    4.7362   18.3070 C   0  0  0  0  0  0  0  0  0  0  0  0
   47.0831    3.6889   17.4043 C   0  0  0  0  0  0  0  0  0  0  0  0
   48.2536    3.6239   16.6634 C   0  0  0  0  0  0  0  0  0  0  0  0
   49.2287    4.6075   16.8313 C   0  0  0  0  0  0  0  0  0  0  0  0
   49.0497    5.6778   17.7463 C   0  0  0  0  0  0  0  0  0  0  0  0
   49.9984    6.7158   17.9552 C   0  0  0  0  0  0  0  0  0  0  0  0
   51.2660    6.7411   17.1958 C   0  0  0  0  0  0  0  0  0  0  0  0
   52.3935    6.0424   17.6650 C   0  0  0  0  0  0  0  0  0  0  0  0
   53.5908    6.0663   16.9504 C   0  0  0  0  0  0  0  0  0  0  0  0
   53.6667    6.7881   15.7655 C   0  0  0  0  0  0  0  0  0  0  0  0
   54.8095    6.7950   15.0701 F   0  0  0  0  0  0  0  0  0  0  0  0
   52.5703    7.4923   15.2838 C   0  0  0  0  0  0  0  0  0  0  0  0
   51.3719    7.4685   15.9986 C   0  0  0  0  0  0  0  0  0  0  0  0
   48.1081    8.7486   20.6111 C   0  0  0  0  0  0  0  0  0  0  0  0
   47.2726    8.3890   21.8212 C   0  0  0  0  0  0  0  0  0  0  0  0
   48.7252    8.7164   21.9905 C   0  0  0  0  0  0  0  0  0  0  0  0
   56.3811   10.4115   18.9323 C   0  0  0  0  0  0  0  0  0  0  0  0
   57.1592   11.7173   18.7857 C   0  0  0  0  0  0  0  0  0  0  0  0
   57.1400   12.4637   19.8092 O   0  0  0  0  0  0  0  0  0  0  0  0
   57.7150   11.8897   17.6686 O   0  0  0  0  0  0  0  0  0  0  0  0
   51.4134    8.0729   18.7291 Mg  0  0  0  0  0 15  0  0  0  0  0  0
   53.2648   12.6271   18.9952 O   0  0  0  0  0  0  0  0  0  0  0  0
   54.1527   11.7339   19.6765 C   0  0  2  0  0  0  0  0  0  0  0  0
   53.5739   10.3152   19.5592 C   0  0  0  0  0  0  0  0  0  0  0  0
   52.1783   10.1217   20.1837 C   0  0  2  0  0  0  0  0  0  0  0  0
   52.2390   10.0092   21.6085 O   0  0  0  0  0  0  0  0  0  0  0  0
   51.4401    8.8730   19.7697 C   0  0  0  0  0  0  0  0  0  0  0  0
   51.8225    7.9354   18.8892 C   0  0  0  0  0  0  0  0  0  0  0  0
   51.0323    6.7094   18.6713 C   0  0  0  0  0  0  0  0  0  0  0  0
   51.3362    5.5625   19.4250 C   0  0  0  0  0  0  0  0  0  0  0  0
   50.6240    4.4143   19.2812 N   0  0  0  0  0  0  0  0  0  0  0  0
   49.6124    4.3591   18.4095 C   0  0  0  0  0  0  0  0  0  0  0  0
   48.9122    3.1642   18.3090 C   0  0  0  0  0  0  0  0  0  0  0  0
   47.8345    3.0074   17.4364 C   0  0  0  0  0  0  0  0  0  0  0  0
   47.4436    4.0677   16.6363 C   0  0  0  0  0  0  0  0  0  0  0  0
   48.1386    5.2746   16.7138 C   0  0  0  0  0  0  0  0  0  0  0  0
   49.2326    5.4482   17.6035 C   0  0  0  0  0  0  0  0  0  0  0  0
   49.9726    6.6555   17.7378 C   0  0  0  0  0  0  0  0  0  0  0  0
   49.6422    7.8311   16.9071 C   0  0  0  0  0  0  0  0  0  0  0  0
   48.7383    8.8044   17.3642 C   0  0  0  0  0  0  0  0  0  0  0  0
   48.4097    9.9009   16.5639 C   0  0  0  0  0  0  0  0  0  0  0  0
   48.9834   10.0220   15.3053 C   0  0  0  0  0  0  0  0  0  0  0  0
   48.6550   11.0624   14.5283 F   0  0  0  0  0  0  0  0  0  0  0  0
   49.8800    9.0737   14.8291 C   0  0  0  0  0  0  0  0  0  0  0  0
   50.2120    7.9819   15.6318 C   0  0  0  0  0  0  0  0  0  0  0  0
   52.4593    5.5523   20.4494 C   0  0  0  0  0  0  0  0  0  0  0  0
   53.8994    5.4833   19.9929 C   0  0  0  0  0  0  0  0  0  0  0  0
   53.2820    4.3049   20.6770 C   0  0  0  0  0  0  0  0  0  0  0  0
   54.3765   12.2099   21.1047 C   0  0  0  0  0  0  0  0  0  0  0  0
   55.2462   13.4650   21.0868 C   0  0  0  0  0  0  0  0  0  0  0  0
   54.9448   14.3055   20.1886 O   0  0  0  0  0  0  0  0  0  0  0  0
   56.1442   13.5060   21.9713 O   0  0  0  0  0  0  0  0  0  0  0  0
   55.9024   11.7846   20.8985 H   0  0  0  0  0  0  0  0  0  0  0  0
   54.5693   11.6080   19.0249 H   0  0  0  0  0  0  0  0  0  0  0  0
   54.5219    8.7043   20.0049 H   0  0  0  0  0  0  0  0  0  0  0  0
   53.9344    9.2539   18.4181 H   0  0  0  0  0  0  0  0  0  0  0  0
   52.3117   10.8048   19.7090 H   0  0  0  0  0  0  0  0  0  0  0  0
   53.6728   10.4922   21.6451 H   0  0  0  0  0  0  0  0  0  0  0  0
   51.9599    7.8077   20.3781 H   0  0  0  0  0  0  0  0  0  0  0  0
   50.3798    9.7916   18.6236 H   0  0  0  0  0  0  0  0  0  0  0  0
   45.9752    4.7854   18.8850 H   0  0  0  0  0  0  0  0  0  0  0  0
   46.3098    2.9361   17.2774 H   0  0  0  0  0  0  0  0  0  0  0  0
   48.4119    2.8137   15.9565 H   0  0  0  0  0  0  0  0  0  0  0  0
   50.1388    4.5349   16.2370 H   0  0  0  0  0  0  0  0  0  0  0  0
   52.3380    5.4840   18.5970 H   0  0  0  0  0  0  0  0  0  0  0  0
   54.4652    5.5357   17.3152 H   0  0  0  0  0  0  0  0  0  0  0  0
   52.6582    8.0576   14.3623 H   0  0  0  0  0  0  0  0  0  0  0  0
   50.5193    8.0275   15.6200 H   0  0  0  0  0  0  0  0  0  0  0  0
   47.9231    9.7352   20.1916 H   0  0  0  0  0  0  0  0  0  0  0  0
   46.9603    7.3571   21.9467 H   0  0  0  0  0  0  0  0  0  0  0  0
   46.5456    9.1153   22.1632 H   0  0  0  0  0  0  0  0  0  0  0  0
   49.4088    7.9104   22.2328 H   0  0  0  0  0  0  0  0  0  0  0  0
   48.9934    9.6675   22.4340 H   0  0  0  0  0  0  0  0  0  0  0  0
   56.2675    9.9400   17.9473 H   0  0  0  0  0  0  0  0  0  0  0  0
   56.9547    9.7414   19.5853 H   0  0  0  0  0  0  0  0  0  0  0  0
   53.6619   13.5205   19.1718 H   0  0  0  0  0  0  0  0  0  0  0  0
   55.1055   11.7400   19.1296 H   0  0  0  0  0  0  0  0  0  0  0  0
   53.5118   10.1001   18.4859 H   0  0  0  0  0  0  0  0  0  0  0  0
   54.2837    9.6010   19.9968 H   0  0  0  0  0  0  0  0  0  0  0  0
   51.5362   10.9771   19.9458 H   0  0  0  0  0  0  0  0  0  0  0  0
   53.1483   10.1889   21.8946 H   0  0  0  0  0  0  0  0  0  0  0  0
   50.4972    8.7403   20.2965 H   0  0  0  0  0  0  0  0  0  0  0  0
   52.7538    7.9897   18.3359 H   0  0  0  0  0  0  0  0  0  0  0  0
   49.2100    2.3295   18.9389 H   0  0  0  0  0  0  0  0  0  0  0  0
   47.3108    2.0572   17.3909 H   0  0  0  0  0  0  0  0  0  0  0  0
   46.6032    3.9608   15.9546 H   0  0  0  0  0  0  0  0  0  0  0  0
   47.8107    6.0923   16.0752 H   0  0  0  0  0  0  0  0  0  0  0  0
   48.2905    8.7124   18.3496 H   0  0  0  0  0  0  0  0  0  0  0  0
   47.7140   10.6550   16.9134 H   0  0  0  0  0  0  0  0  0  0  0  0
   50.3237    9.1942   13.8481 H   0  0  0  0  0  0  0  0  0  0  0  0
   50.9199    7.2460   15.2614 H   0  0  0  0  0  0  0  0  0  0  0  0
   52.2674    6.1526   21.3362 H   0  0  0  0  0  0  0  0  0  0  0  0
   54.1073    5.4043   18.9335 H   0  0  0  0  0  0  0  0  0  0  0  0
   54.6289    6.0662   20.5413 H   0  0  0  0  0  0  0  0  0  0  0  0
   53.0650    3.4270   20.0818 H   0  0  0  0  0  0  0  0  0  0  0  0
   53.5757    4.0847   21.6950 H   0  0  0  0  0  0  0  0  0  0  0  0
   53.4343   12.4800   21.5931 H   0  0  0  0  0  0  0  0  0  0  0  0
   54.8798   11.4368   21.6946 H   0  0  0  0  0  0  0  0  0  0  0  0
  2  1  1  0
  2  3  1  0
  3  4  1  0
  4  5  1  0
  4  6  1  0
  6  7  2  0
  7  8  1  0
  8  9  2  0
  9 10  1  0
 10 11  2  0
 11 12  1  0
 12 13  2  0
 13 14  1  0
 14 15  2  0
 15 16  1  0
 11 16  1  0
 16 17  2  0
  8 17  1  0
 17 18  1  0
 18 19  2  0
 19 20  1  0
 20 21  2  0
 21 22  1  0
 21 23  1  0
 23 24  2  0
 18 24  1  0
  9 25  1  0
 25 26  1  0
 26 27  1  0
 25 27  1  0
  2 28  1  0
 28 29  1  0
 29 30  2  0
 29 31  1  0
 34 33  1  0
 34 35  1  0
 35 36  1  0
 36 37  1  0
 36 38  1  0
 38 39  2  0
 39 40  1  0
 40 41  2  0
 41 42  1  0
 42 43  2  0
 43 44  1  0
 44 45  2  0
 45 46  1  0
 46 47  2  0
 47 48  1  0
 43 48  1  0
 48 49  2  0
 40 49  1  0
 49 50  1  0
 50 51  2  0
 51 52  1  0
 52 53  2  0
 53 54  1  0
 53 55  1  0
 55 56  2  0
 50 56  1  0
 41 57  1  0
 57 58  1  0
 58 59  1  0
 57 59  1  0
 34 60  1  0
 60 61  1  0
 61 62  2  0
 61 63  1  0
  1 64  1  0
  2 65  1  1
  3 66  1  0
  3 67  1  0
  4 68  1  1
  5 69  1  0
  6 70  1  0
  7 71  1  0
 12 72  1  0
 13 73  1  0
 14 74  1  0
 15 75  1  0
 19 76  1  0
 20 77  1  0
 23 78  1  0
 24 79  1  0
 25 80  1  0
 26 81  1  0
 26 82  1  0
 27 83  1  0
 27 84  1  0
 28 85  1  0
 28 86  1  0
 33 87  1  0
 34 88  1  1
 35 89  1  0
 35 90  1  0
 36 91  1  1
 37 92  1  0
 38 93  1  0
 39 94  1  0
 44 95  1  0
 45 96  1  0
 46 97  1  0
 47 98  1  0
 51 99  1  0
 52100  1  0
 55101  1  0
 56102  1  0
 57103  1  0
 58104  1  0
 58105  1  0
 59106  1  0
 59107  1  0
 60108  1  0
 60109  1  0
M  CHG  3  31  -1  32   2  63  -1
M  END
> <Uni-Dock RESULT> 
ENERGY=   -5.575  LOWER_BOUND=    2.235  UPPER_BOUND=    5.015
INTER + INTRA:          -5.575
INTER:                  -5.575
INTRA:                   0.000
UNBOUND:                 0.000

$$$$

     RDKit          3D

109114  0  0  0  0  0  0  0  0999 V2000
   55.4077    8.4657   20.7780 O   0  0  0  0  0  0  0  0  0  0  0  0
   54.5108    9.5356   20.4426 C   0  0  2  0  0  0  0  0  0  0  0  0
   53.7633    9.1380   19.1611 C   0  0  0  0  0  0  0  0  0  0  0  0
   52.9996    7.8176   19.3332 C   0  0  2  0  0  0  0  0  0  0  0  0
   53.9007    6.7209   19.4510 O   0  0  0  0  0  0  0  0  0  0  0  0
   52.1425    7.5272   18.1376 C   0  0  0  0  0  0  0  0  0  0  0  0
   50.7997    7.5110   18.1674 C   0  0  0  0  0  0  0  0  0  0  0  0
   49.9818    7.2473   16.9697 C   0  0  0  0  0  0  0  0  0  0  0  0
   49.3945    5.9840   16.7952 C   0  0  0  0  0  0  0  0  0  0  0  0
   48.5895    5.7192   15.7319 N   0  0  0  0  0  0  0  0  0  0  0  0
   48.3638    6.6658   14.8131 C   0  0  0  0  0  0  0  0  0  0  0  0
   47.5384    6.3417   13.7439 C   0  0  0  0  0  0  0  0  0  0  0  0
   47.2343    7.2621   12.7407 C   0  0  0  0  0  0  0  0  0  0  0  0
   47.7671    8.5410   12.8012 C   0  0  0  0  0  0  0  0  0  0  0  0
   48.5997    8.8889   13.8653 C   0  0  0  0  0  0  0  0  0  0  0  0
   48.9150    7.9607   14.8918 C   0  0  0  0  0  0  0  0  0  0  0  0
   49.7464    8.2561   16.0066 C   0  0  0  0  0  0  0  0  0  0  0  0
   50.3423    9.5990   16.1664 C   0  0  0  0  0  0  0  0  0  0  0  0
   51.5742    9.9099   15.5622 C   0  0  0  0  0  0  0  0  0  0  0  0
   52.1388   11.1761   15.7130 C   0  0  0  0  0  0  0  0  0  0  0  0
   51.4756   12.1359   16.4678 C   0  0  0  0  0  0  0  0  0  0  0  0
   52.0076   13.3567   16.5963 F   0  0  0  0  0  0  0  0  0  0  0  0
   50.2614   11.8526   17.0806 C   0  0  0  0  0  0  0  0  0  0  0  0
   49.6961   10.5856   16.9298 C   0  0  0  0  0  0  0  0  0  0  0  0
   49.6082    4.8571   17.7918 C   0  0  0  0  0  0  0  0  0  0  0  0
   49.6443    3.4166   17.3276 C   0  0  0  0  0  0  0  0  0  0  0  0
   50.9069    4.0838   17.7820 C   0  0  0  0  0  0  0  0  0  0  0  0
   55.2918   10.8327   20.2445 C   0  0  0  0  0  0  0  0  0  0  0  0
   55.7633   11.3020   21.6191 C   0  0  0  0  0  0  0  0  0  0  0  0
   56.2909   10.3998   22.3351 O   0  0  0  0  0  0  0  0  0  0  0  0
   55.5639   12.5203   21.8691 O   0  0  0  0  0  0  0  0  0  0  0  0
   51.2636    8.3325   17.4677 Mg  0  0  0  0  0 15  0  0  0  0  0  0
   52.6513    8.8408   22.1640 O   0  0  0  0  0  0  0  0  0  0  0  0
   53.8216    8.8557   21.3390 C   0  0  2  0  0  0  0  0  0  0  0  0
   53.3678    8.7242   19.8767 C   0  0  0  0  0  0  0  0  0  0  0  0
   52.6001    7.4308   19.5411 C   0  0  2  0  0  0  0  0  0  0  0  0
   53.4758    6.3084   19.3995 O   0  0  0  0  0  0  0  0  0  0  0  0
   51.8354    7.4386   18.2409 C   0  0  0  0  0  0  0  0  0  0  0  0
   51.6978    8.4452   17.3642 C   0  0  0  0  0  0  0  0  0  0  0  0
   51.0020    8.2613   16.0769 C   0  0  0  0  0  0  0  0  0  0  0  0
   51.7528    7.9018   14.9443 C   0  0  0  0  0  0  0  0  0  0  0  0
   51.1586    7.6963   13.7397 N   0  0  0  0  0  0  0  0  0  0  0  0
   49.8353    7.8355   13.6139 C   0  0  0  0  0  0  0  0  0  0  0  0
   49.2787    7.6048   12.3630 C   0  0  0  0  0  0  0  0  0  0  0  0
   47.9071    7.7145   12.1300 C   0  0  0  0  0  0  0  0  0  0  0  0
   47.0638    8.0684   13.1697 C   0  0  0  0  0  0  0  0  0  0  0  0
   47.6023    8.3141   14.4327 C   0  0  0  0  0  0  0  0  0  0  0  0
   48.9960    8.1986   14.6834 C   0  0  0  0  0  0  0  0  0  0  0  0
   49.6039    8.4235   15.9496 C   0  0  0  0  0  0  0  0  0  0  0  0
   48.7854    8.8286   17.1103 C   0  0  0  0  0  0  0  0  0  0  0  0
   48.2519    7.8680   17.9854 C   0  0  0  0  0  0  0  0  0  0  0  0
   47.4572    8.2551   19.0668 C   0  0  0  0  0  0  0  0  0  0  0  0
   47.1941    9.6030   19.2708 C   0  0  0  0  0  0  0  0  0  0  0  0
   46.4163    9.9753   20.2958 F   0  0  0  0  0  0  0  0  0  0  0  0
   47.7092   10.5734   18.4205 C   0  0  0  0  0  0  0  0  0  0  0  0
   48.5078   10.1860   17.3440 C   0  0  0  0  0  0  0  0  0  0  0  0
   53.2589    7.7062   15.0114 C   0  0  0  0  0  0  0  0  0  0  0  0
   54.1754    8.9067   15.0855 C   0  0  0  0  0  0  0  0  0  0  0  0
   54.1365    8.0805   13.8390 C   0  0  0  0  0  0  0  0  0  0  0  0
   54.7967    7.7809   21.7979 C   0  0  0  0  0  0  0  0  0  0  0  0
   55.4199    8.2009   23.1273 C   0  0  0  0  0  0  0  0  0  0  0  0
   54.6066    8.7021   23.9588 O   0  0  0  0  0  0  0  0  0  0  0  0
   56.6588    7.9873   23.2282 O   0  0  0  0  0  0  0  0  0  0  0  0
   55.9488    8.8517   21.5190 H   0  0  0  0  0  0  0  0  0  0  0  0
   53.7944    9.6355   21.2679 H   0  0  0  0  0  0  0  0  0  0  0  0
   54.4952    9.0182   18.3486 H   0  0  0  0  0  0  0  0  0  0  0  0
   53.0701    9.9404   18.8813 H   0  0  0  0  0  0  0  0  0  0  0  0
   52.3945    7.8454   20.2451 H   0  0  0  0  0  0  0  0  0  0  0  0
   54.6374    7.0621   20.0103 H   0  0  0  0  0  0  0  0  0  0  0  0
   52.6738    7.3153   17.2128 H   0  0  0  0  0  0  0  0  0  0  0  0
   50.2556    7.7036   19.0868 H   0  0  0  0  0  0  0  0  0  0  0  0
   47.1155    5.3390   13.6944 H   0  0  0  0  0  0  0  0  0  0  0  0
   46.5760    6.9790   11.9237 H   0  0  0  0  0  0  0  0  0  0  0  0
   47.5388    9.2684   12.0265 H   0  0  0  0  0  0  0  0  0  0  0  0
   49.0048    9.8999   13.8908 H   0  0  0  0  0  0  0  0  0  0  0  0
   52.0988    9.1567   14.9782 H   0  0  0  0  0  0  0  0  0  0  0  0
   53.0941   11.4157   15.2556 H   0  0  0  0  0  0  0  0  0  0  0  0
   49.7690   12.6152   17.6742 H   0  0  0  0  0  0  0  0  0  0  0  0
   48.7490   10.3677   17.4178 H   0  0  0  0  0  0  0  0  0  0  0  0
   49.1564    5.0228   18.7676 H   0  0  0  0  0  0  0  0  0  0  0  0
   49.5241    3.2107   16.2688 H   0  0  0  0  0  0  0  0  0  0  0  0
   49.2038    2.6690   17.9759 H   0  0  0  0  0  0  0  0  0  0  0  0
   51.6528    4.3346   17.0361 H   0  0  0  0  0  0  0  0  0  0  0  0
   51.3232    3.8051   18.7424 H   0  0  0  0  0  0  0  0  0  0  0  0
   54.6612   11.6076   19.7891 H   0  0  0  0  0  0  0  0  0  0  0  0
   56.1759   10.6750   19.6136 H   0  0  0  0  0  0  0  0  0  0  0  0
   53.0227    8.8582   23.0853 H   0  0  0  0  0  0  0  0  0  0  0  0
   54.2841    9.8464   21.4457 H   0  0  0  0  0  0  0  0  0  0  0  0
   52.7130    9.5821   19.6835 H   0  0  0  0  0  0  0  0  0  0  0  0
   54.2419    8.8236   19.2197 H   0  0  0  0  0  0  0  0  0  0  0  0
   51.8876    7.1965   20.3400 H   0  0  0  0  0  0  0  0  0  0  0  0
   54.3713    6.5806   19.6543 H   0  0  0  0  0  0  0  0  0  0  0  0
   51.3771    6.4791   18.0096 H   0  0  0  0  0  0  0  0  0  0  0  0
   52.1361    9.4254   17.5171 H   0  0  0  0  0  0  0  0  0  0  0  0
   49.9344    7.3205   11.5436 H   0  0  0  0  0  0  0  0  0  0  0  0
   47.5112    7.5217   11.1374 H   0  0  0  0  0  0  0  0  0  0  0  0
   45.9926    8.1538   13.0034 H   0  0  0  0  0  0  0  0  0  0  0  0
   46.9181    8.5896   15.2326 H   0  0  0  0  0  0  0  0  0  0  0  0
   48.4588    6.8132   17.8285 H   0  0  0  0  0  0  0  0  0  0  0  0
   47.0448    7.5172   19.7452 H   0  0  0  0  0  0  0  0  0  0  0  0
   47.4997   11.6201   18.6053 H   0  0  0  0  0  0  0  0  0  0  0  0
   48.9169   10.9465   16.6852 H   0  0  0  0  0  0  0  0  0  0  0  0
   53.5759    6.8278   15.5695 H   0  0  0  0  0  0  0  0  0  0  0  0
   53.7406    9.8975   15.0520 H   0  0  0  0  0  0  0  0  0  0  0  0
   55.0506    8.8325   15.7188 H   0  0  0  0  0  0  0  0  0  0  0  0
   53.6703    8.5072   12.9600 H   0  0  0  0  0  0  0  0  0  0  0  0
   54.9749    7.4319   13.6214 H   0  0  0  0  0  0  0  0  0  0  0  0
   54.2925    6.8240   21.9687 H   0  0  0  0  0  0  0  0  0  0  0  0
   55.5934    7.6421   21.0598 H   0  0  0  0  0  0  0  0  0  0  0  0
  2  1  1  0
  2  3  1  0
  3  4  1  0
  4  5  1  0
  4  6  1  0
  6  7  2  0
  7  8  1  0
  8  9  2  0
  9 10  1  0
 10 11  2  0
 11 12  1  0
 12 13  2  0
 13 14  1  0
 14 15  2  0
 15 16  1  0
 11 16  1  0
 16 17  2  0
  8 17  1  0
 17 18  1  0
 18 19  2  0
 19 20  1  0
 20 21  2  0
 21 22  1  0
 21 23  1  0
 23 24  2  0
 18 24  1  0
  9 25  1  0
 25 26  1  0
 26 27  1  0
 25 27  1  0
  2 28  1  0
 28 29  1  0
 29 30  2  0
 29 31  1  0
 34 33  1  0
 34 35  1  0
 35 36  1  0
 36 37  1  0
 36 38  1  0
 38 39  2  0
 39 40  1  0
 40 41  2  0
 41 42  1  0
 42 43  2  0
 43 44  1  0
 44 45  2  0
 45 46  1  0
 46 47  2  0
 47 48  1  0
 43 48  1  0
 48 49  2  0
 40 49  1  0
 49 50  1  0
 50 51  2  0
 51 52  1  0
 52 53  2  0
 53 54  1  0
 53 55  1  0
 55 56  2  0
 50 56  1  0
 41 57  1  0
 57 58  1  0
 58 59  1  0
 57 59  1  0
 34 60  1  0
 60 61  1  0
 61 62  2  0
 61 63  1  0
  1 64  1  0
  2 65  1  1
  3 66  1  0
  3 67  1  0
  4 68  1  1
  5 69  1  0
  6 70  1  0
  7 71  1  0
 12 72  1  0
 13 73  1  0
 14 74  1  0
 15 75  1  0
 19 76  1  0
 20 77  1  0
 23 78  1  0
 24 79  1  0
 25 80  1  0
 26 81  1  0
 26 82  1  0
 27 83  1  0
 27 84  1  0
 28 85  1  0
 28 86  1  0
 33 87  1  0
 34 88  1  1
 35 89  1  0
 35 90  1  0
 36 91  1  1
 37 92  1  0
 38 93  1  0
 39 94  1  0
 44 95  1  0
 45 96  1  0
 46 97  1  0
 47 98  1  0
 51 99  1  0
 52100  1  0
 55101  1  0
 56102  1  0
 57103  1  0
 58104  1  0
 58105  1  0
 59106  1  0
 59107  1  0
 60108  1  0
 60109  1  0
M  CHG  3  31  -1  32   2  63  -1
M  END
> <Uni-Dock RESULT> 
ENERGY=   -5.337  LOWER_BOUND=    2.630  UPPER_BOUND=    4.774
INTER + INTRA:          -5.337
INTER:                  -5.337
INTRA:                   0.000
UNBOUND:                 0.000

$$$$

     RDKit          3D

109114  0  0  0  0  0  0  0  0999 V2000
   53.8304    2.4474   19.7348 O   0  0  0  0  0  0  0  0  0  0  0  0
   53.0282    2.8426   18.6114 C   0  0  2  0  0  0  0  0  0  0  0  0
   52.0742    3.9507   19.0817 C   0  0  0  0  0  0  0  0  0  0  0  0
   52.8363    5.1516   19.6592 C   0  0  2  0  0  0  0  0  0  0  0  0
   53.4584    4.8123   20.8947 O   0  0  0  0  0  0  0  0  0  0  0  0
   51.9074    6.2902   19.9582 C   0  0  0  0  0  0  0  0  0  0  0  0
   51.9313    7.4645   19.3065 C   0  0  0  0  0  0  0  0  0  0  0  0
   50.9885    8.5577   19.6048 C   0  0  0  0  0  0  0  0  0  0  0  0
   51.4186    9.6561   20.3663 C   0  0  0  0  0  0  0  0  0  0  0  0
   50.5953   10.7088   20.6165 N   0  0  0  0  0  0  0  0  0  0  0  0
   49.3395   10.6992   20.1537 C   0  0  0  0  0  0  0  0  0  0  0  0
   48.5385   11.7968   20.4423 C   0  0  0  0  0  0  0  0  0  0  0  0
   47.2196   11.8857   19.9963 C   0  0  0  0  0  0  0  0  0  0  0  0
   46.6810   10.8533   19.2432 C   0  0  0  0  0  0  0  0  0  0  0  0
   47.4665    9.7403   18.9419 C   0  0  0  0  0  0  0  0  0  0  0  0
   48.8096    9.6398   19.3897 C   0  0  0  0  0  0  0  0  0  0  0  0
   49.6645    8.5395   19.1076 C   0  0  0  0  0  0  0  0  0  0  0  0
   49.1843    7.4023   18.2949 C   0  0  0  0  0  0  0  0  0  0  0  0
   48.5141    6.3241   18.9012 C   0  0  0  0  0  0  0  0  0  0  0  0
   48.0616    5.2495   18.1361 C   0  0  0  0  0  0  0  0  0  0  0  0
   48.2770    5.2476   16.7634 C   0  0  0  0  0  0  0  0  0  0  0  0
   47.8256    4.2261   16.0269 F   0  0  0  0  0  0  0  0  0  0  0  0
   48.9421    6.2965   16.1409 C   0  0  0  0  0  0  0  0  0  0  0  0
   49.3951    7.3720   16.9062 C   0  0  0  0  0  0  0  0  0  0  0  0
   52.8271    9.7369   20.9304 C   0  0  0  0  0  0  0  0  0  0  0  0
   53.0881   10.4310   22.2503 C   0  0  0  0  0  0  0  0  0  0  0  0
   53.1886    8.9384   22.1618 C   0  0  0  0  0  0  0  0  0  0  0  0
   52.2543    1.6424   18.0709 C   0  0  0  0  0  0  0  0  0  0  0  0
   53.2551    0.7241   17.3731 C   0  0  0  0  0  0  0  0  0  0  0  0
   54.3130    0.4952   18.0315 O   0  0  0  0  0  0  0  0  0  0  0  0
   52.9070    0.3162   16.2334 O   0  0  0  0  0  0  0  0  0  0  0  0
   50.9329    6.8578   19.1851 Mg  0  0  0  0  0 15  0  0  0  0  0  0
   54.8611    4.3891   17.5378 O   0  0  0  0  0  0  0  0  0  0  0  0
   54.1330    3.5415   18.4334 C   0  0  2  0  0  0  0  0  0  0  0  0
   52.8972    4.3176   18.9151 C   0  0  0  0  0  0  0  0  0  0  0  0
   53.1975    5.6223   19.6783 C   0  0  2  0  0  0  0  0  0  0  0  0
   53.6019    5.3736   21.0278 O   0  0  0  0  0  0  0  0  0  0  0  0
   52.0378    6.5742   19.8351 C   0  0  0  0  0  0  0  0  0  0  0  0
   50.7920    6.4523   19.3515 C   0  0  0  0  0  0  0  0  0  0  0  0
   49.7336    7.4240   19.6843 C   0  0  0  0  0  0  0  0  0  0  0  0
   48.9048    7.1729   20.7914 C   0  0  0  0  0  0  0  0  0  0  0  0
   47.9305    8.0470   21.1562 N   0  0  0  0  0  0  0  0  0  0  0  0
   47.7444    9.1713   20.4580 C   0  0  0  0  0  0  0  0  0  0  0  0
   46.7410   10.0336   20.8795 C   0  0  0  0  0  0  0  0  0  0  0  0
   46.4735   11.2366   20.2247 C   0  0  0  0  0  0  0  0  0  0  0  0
   47.2221   11.5913   19.1151 C   0  0  0  0  0  0  0  0  0  0  0  0
   48.2290   10.7358   18.6682 C   0  0  0  0  0  0  0  0  0  0  0  0
   48.5150    9.5121   19.3310 C   0  0  0  0  0  0  0  0  0  0  0  0
   49.5349    8.6042   18.9326 C   0  0  0  0  0  0  0  0  0  0  0  0
   50.3668    8.8884   17.7458 C   0  0  0  0  0  0  0  0  0  0  0  0
   51.5848    9.5774   17.8688 C   0  0  0  0  0  0  0  0  0  0  0  0
   52.3551    9.8662   16.7401 C   0  0  0  0  0  0  0  0  0  0  0  0
   51.9054    9.4681   15.4883 C   0  0  0  0  0  0  0  0  0  0  0  0
   52.6329    9.7609   14.4024 F   0  0  0  0  0  0  0  0  0  0  0  0
   50.7047    8.7855   15.3387 C   0  0  0  0  0  0  0  0  0  0  0  0
   49.9389    8.4924   16.4675 C   0  0  0  0  0  0  0  0  0  0  0  0
   49.0666    5.9262   21.6460 C   0  0  0  0  0  0  0  0  0  0  0  0
   48.5794    4.5892   21.1341 C   0  0  0  0  0  0  0  0  0  0  0  0
   47.8615    5.2556   22.2648 C   0  0  0  0  0  0  0  0  0  0  0  0
   55.0473    3.0529   19.5478 C   0  0  0  0  0  0  0  0  0  0  0  0
   56.0323    2.0332   18.9803 C   0  0  0  0  0  0  0  0  0  0  0  0
   56.5282    2.3440   17.8571 O   0  0  0  0  0  0  0  0  0  0  0  0
   56.2304    1.0203   19.7051 O   0  0  0  0  0  0  0  0  0  0  0  0
   54.3101    1.6440   19.3953 H   0  0  0  0  0  0  0  0  0  0  0  0
   53.7064    3.2437   17.8475 H   0  0  0  0  0  0  0  0  0  0  0  0
   51.4167    3.5419   19.8631 H   0  0  0  0  0  0  0  0  0  0  0  0
   51.4475    4.2713   18.2408 H   0  0  0  0  0  0  0  0  0  0  0  0
   53.6255    5.4674   18.9694 H   0  0  0  0  0  0  0  0  0  0  0  0
   53.7997    3.8974   20.7593 H   0  0  0  0  0  0  0  0  0  0  0  0
   51.1920    6.1212   20.7595 H   0  0  0  0  0  0  0  0  0  0  0  0
   52.6509    7.6540   18.5161 H   0  0  0  0  0  0  0  0  0  0  0  0
   48.9589   12.6112   21.0311 H   0  0  0  0  0  0  0  0  0  0  0  0
   46.6239   12.7638   20.2307 H   0  0  0  0  0  0  0  0  0  0  0  0
   45.6550   10.9090   18.8891 H   0  0  0  0  0  0  0  0  0  0  0  0
   47.0209    8.9431   18.3479 H   0  0  0  0  0  0  0  0  0  0  0  0
   48.3524    6.3202   19.9771 H   0  0  0  0  0  0  0  0  0  0  0  0
   47.5524    4.4116   18.6029 H   0  0  0  0  0  0  0  0  0  0  0  0
   49.1082    6.2661   15.0694 H   0  0  0  0  0  0  0  0  0  0  0  0
   49.9212    8.1867   16.4141 H   0  0  0  0  0  0  0  0  0  0  0  0
   53.6097    9.8451   20.1824 H   0  0  0  0  0  0  0  0  0  0  0  0
   52.2464   10.8586   22.7856 H   0  0  0  0  0  0  0  0  0  0  0  0
   54.0068   10.9965   22.3471 H   0  0  0  0  0  0  0  0  0  0  0  0
   52.4174    8.3423   22.6367 H   0  0  0  0  0  0  0  0  0  0  0  0
   54.1713    8.4832   22.1845 H   0  0  0  0  0  0  0  0  0  0  0  0
   51.4855    1.9589   17.3537 H   0  0  0  0  0  0  0  0  0  0  0  0
   51.7762    1.0769   18.8810 H   0  0  0  0  0  0  0  0  0  0  0  0
   55.6708    3.8537   17.3263 H   0  0  0  0  0  0  0  0  0  0  0  0
   53.7691    2.6851   17.8495 H   0  0  0  0  0  0  0  0  0  0  0  0
   52.3215    4.5615   18.0144 H   0  0  0  0  0  0  0  0  0  0  0  0
   52.2762    3.6554   19.5325 H   0  0  0  0  0  0  0  0  0  0  0  0
   54.0081    6.1703   19.1852 H   0  0  0  0  0  0  0  0  0  0  0  0
   53.7071    4.4167   21.1479 H   0  0  0  0  0  0  0  0  0  0  0  0
   52.2770    7.4409   20.4480 H   0  0  0  0  0  0  0  0  0  0  0  0
   50.4736    5.6114   18.7450 H   0  0  0  0  0  0  0  0  0  0  0  0
   46.1535    9.7640   21.7539 H   0  0  0  0  0  0  0  0  0  0  0  0
   45.6822   11.8850   20.5889 H   0  0  0  0  0  0  0  0  0  0  0  0
   47.0272   12.5275   18.5974 H   0  0  0  0  0  0  0  0  0  0  0  0
   48.8031   11.0383   17.7948 H   0  0  0  0  0  0  0  0  0  0  0  0
   51.9392    9.8875   18.8477 H   0  0  0  0  0  0  0  0  0  0  0  0
   53.2962   10.3963   16.8306 H   0  0  0  0  0  0  0  0  0  0  0  0
   50.3787    8.4750   14.3533 H   0  0  0  0  0  0  0  0  0  0  0  0
   49.0046    7.9510   16.3497 H   0  0  0  0  0  0  0  0  0  0  0  0
   49.9721    5.9060   22.2486 H   0  0  0  0  0  0  0  0  0  0  0  0
   48.0848    4.5481   20.1721 H   0  0  0  0  0  0  0  0  0  0  0  0
   49.1809    3.7166   21.3562 H   0  0  0  0  0  0  0  0  0  0  0  0
   46.8815    5.6723   22.0701 H   0  0  0  0  0  0  0  0  0  0  0  0
   47.9776    4.8513   23.2618 H   0  0  0  0  0  0  0  0  0  0  0  0
   55.6406    3.8700   19.9713 H   0  0  0  0  0  0  0  0  0  0  0  0
   54.4649    2.5793   20.3448 H   0  0  0  0  0  0  0  0  0  0  0  0
  2  1  1  0
  2  3  1  0
  3  4  1  0
  4  5  1  0
  4  6  1  0
  6  7  2  0
  7  8  1  0
  8  9  2  0
  9 10  1  0
 10 11  2  0
 11 12  1  0
 12 13  2  0
 13 14  1  0
 14 15  2  0
 15 16  1  0
 11 16  1  0
 16 17  2  0
  8 17  1  0
 17 18  1  0
 18 19  2  0
 19 20  1  0
 20 21  2  0
 21 22  1  0
 21 23  1  0
 23 24  2  0
 18 24  1  0
  9 25  1  0
 25 26  1  0
 26 27  1  0
 25 27  1  0
  2 28  1  0
 28 29  1  0
 29 30  2  0
 29 31  1  0
 34 33  1  0
 34 35  1  0
 35 36  1  0
 36 37  1  0
 36 38  1  0
 38 39  2  0
 39 40  1  0
 40 41  2  0
 41 42  1  0
 42 43  2  0
 43 44  1  0
 44 45  2  0
 45 46  1  0
 46 47  2  0
 47 48  1  0
 43 48  1  0
 48 49  2  0
 40 49  1  0
 49 50  1  0
 50 51  2  0
 51 52  1  0
 52 53  2  0
 53 54  1  0
 53 55  1  0
 55 56  2  0
 50 56  1  0
 41 57  1  0
 57 58  1  0
 58 59  1  0
 57 59  1  0
 34 60  1  0
 60 61  1  0
 61 62  2  0
 61 63  1  0
  1 64  1  0
  2 65  1  1
  3 66  1  0
  3 67  1  0
  4 68  1  1
  5 69  1  0
  6 70  1  0
  7 71  1  0
 12 72  1  0
 13 73  1  0
 14 74  1  0
 15 75  1  0
 19 76  1  0
 20 77  1  0
 23 78  1  0
 24 79  1  0
 25 80  1  0
 26 81  1  0
 26 82  1  0
 27 83  1  0
 27 84  1  0
 28 85  1  0
 28 86  1  0
 33 87  1  0
 34 88  1  1
 35 89  1  0
 35 90  1  0
 36 91  1  1
 37 92  1  0
 38 93  1  0
 39 94  1  0
 44 95  1  0
 45 96  1  0
 46 97  1  0
 47 98  1  0
 51 99  1  0
 52100  1  0
 55101  1  0
 56102  1  0
 57103  1  0
 58104  1  0
 58105  1  0
 59106  1  0
 59107  1  0
 60108  1  0
 60109  1  0
M  CHG  3  31  -1  32   2  63  -1
M  END
> <Uni-Dock RESULT> 
ENERGY=   -5.248  LOWER_BOUND=    3.742  UPPER_BOUND=    7.500
INTER + INTRA:          -5.248
INTER:                  -5.248
INTRA:                   0.000
UNBOUND:                 0.000

$$$$

     RDKit          3D

109114  0  0  0  0  0  0  0  0999 V2000
   53.5856   12.4783   20.7062 O   0  0  0  0  0  0  0  0  0  0  0  0
   52.3842   11.7318   20.9529 C   0  0  2  0  0  0  0  0  0  0  0  0
   51.7083   11.4682   19.5991 C   0  0  0  0  0  0  0  0  0  0  0  0
   52.6350   10.7114   18.6373 C   0  0  2  0  0  0  0  0  0  0  0  0
   53.7196   11.5360   18.2222 O   0  0  0  0  0  0  0  0  0  0  0  0
   51.9100   10.3139   17.3862 C   0  0  0  0  0  0  0  0  0  0  0  0
   51.6516    9.0406   17.0453 C   0  0  0  0  0  0  0  0  0  0  0  0
   50.9139    8.6804   15.8210 C   0  0  0  0  0  0  0  0  0  0  0  0
   51.6168    8.2060   14.7019 C   0  0  0  0  0  0  0  0  0  0  0  0
   50.9678    7.8125   13.5738 N   0  0  0  0  0  0  0  0  0  0  0  0
   49.6338    7.8967   13.5071 C   0  0  0  0  0  0  0  0  0  0  0  0
   49.0207    7.4868   12.3299 C   0  0  0  0  0  0  0  0  0  0  0  0
   47.6359    7.5262   12.1664 C   0  0  0  0  0  0  0  0  0  0  0  0
   46.8375    7.9877   13.2021 C   0  0  0  0  0  0  0  0  0  0  0  0
   47.4312    8.4057   14.3935 C   0  0  0  0  0  0  0  0  0  0  0  0
   48.8389    8.3691   14.5710 C   0  0  0  0  0  0  0  0  0  0  0  0
   49.5035    8.7695   15.7623 C   0  0  0  0  0  0  0  0  0  0  0  0
   48.7339    9.2558   16.9265 C   0  0  0  0  0  0  0  0  0  0  0  0
   48.3859   10.6146   17.0353 C   0  0  0  0  0  0  0  0  0  0  0  0
   47.6609   11.0755   18.1338 C   0  0  0  0  0  0  0  0  0  0  0  0
   47.2814   10.1816   19.1275 C   0  0  0  0  0  0  0  0  0  0  0  0
   46.5691   10.6202   20.1716 F   0  0  0  0  0  0  0  0  0  0  0  0
   47.6182    8.8361   19.0479 C   0  0  0  0  0  0  0  0  0  0  0  0
   48.3436    8.3745   17.9486 C   0  0  0  0  0  0  0  0  0  0  0  0
   53.1317    8.0870   14.6993 C   0  0  0  0  0  0  0  0  0  0  0  0
   53.9174    8.2999   13.4230 C   0  0  0  0  0  0  0  0  0  0  0  0
   53.9806    9.3240   14.5153 C   0  0  0  0  0  0  0  0  0  0  0  0
   51.4622   12.5139   21.8855 C   0  0  0  0  0  0  0  0  0  0  0  0
   52.0841   12.4853   23.2800 C   0  0  0  0  0  0  0  0  0  0  0  0
   53.3219   12.7531   23.3139 O   0  0  0  0  0  0  0  0  0  0  0  0
   51.2930   12.1946   24.2159 O   0  0  0  0  0  0  0  0  0  0  0  0
   50.6978    9.7015   17.2279 Mg  0  0  0  0  0 15  0  0  0  0  0  0
   53.5892    9.4102   21.2021 O   0  0  0  0  0  0  0  0  0  0  0  0
   53.3085   10.7903   20.9431 C   0  0  2  0  0  0  0  0  0  0  0  0
   52.3836   10.8602   19.7178 C   0  0  0  0  0  0  0  0  0  0  0  0
   52.9682   10.2710   18.4193 C   0  0  2  0  0  0  0  0  0  0  0  0
   53.9022   11.1599   17.7997 O   0  0  0  0  0  0  0  0  0  0  0  0
   51.9751    9.9914   17.3188 C   0  0  0  0  0  0  0  0  0  0  0  0
   50.6421   10.1433   17.3445 C   0  0  0  0  0  0  0  0  0  0  0  0
   49.8147    9.9270   16.1429 C   0  0  0  0  0  0  0  0  0  0  0  0
   49.5275   11.0222   15.3100 C   0  0  0  0  0  0  0  0  0  0  0  0
   48.7904   10.8739   14.1781 N   0  0  0  0  0  0  0  0  0  0  0  0
   48.3221    9.6693   13.8376 C   0  0  0  0  0  0  0  0  0  0  0  0
   47.5825    9.5724   12.6665 C   0  0  0  0  0  0  0  0  0  0  0  0
   47.0580    8.3590   12.2189 C   0  0  0  0  0  0  0  0  0  0  0  0
   47.2706    7.2084   12.9594 C   0  0  0  0  0  0  0  0  0  0  0  0
   48.0028    7.2839   14.1442 C   0  0  0  0  0  0  0  0  0  0  0  0
   48.5476    8.5122   14.6060 C   0  0  0  0  0  0  0  0  0  0  0  0
   49.3122    8.6522   15.7972 C   0  0  0  0  0  0  0  0  0  0  0  0
   49.5686    7.4833   16.6626 C   0  0  0  0  0  0  0  0  0  0  0  0
   50.7218    6.6997   16.4911 C   0  0  0  0  0  0  0  0  0  0  0  0
   50.9466    5.5802   17.2954 C   0  0  0  0  0  0  0  0  0  0  0  0
   50.0161    5.2432   18.2693 C   0  0  0  0  0  0  0  0  0  0  0  0
   50.2199    4.1588   19.0288 F   0  0  0  0  0  0  0  0  0  0  0  0
   48.8673    6.0008   18.4598 C   0  0  0  0  0  0  0  0  0  0  0  0
   48.6468    7.1223   17.6597 C   0  0  0  0  0  0  0  0  0  0  0  0
   50.0400   12.4195   15.6196 C   0  0  0  0  0  0  0  0  0  0  0  0
   49.3912   13.2386   16.7128 C   0  0  0  0  0  0  0  0  0  0  0  0
   49.2092   13.6363   15.2822 C   0  0  0  0  0  0  0  0  0  0  0  0
   54.6085   11.5687   20.7997 C   0  0  0  0  0  0  0  0  0  0  0  0
   55.2712   11.6989   22.1693 C   0  0  0  0  0  0  0  0  0  0  0  0
   55.2490   10.6447   22.8709 O   0  0  0  0  0  0  0  0  0  0  0  0
   55.7609   12.8336   22.4207 O   0  0  0  0  0  0  0  0  0  0  0  0
   53.8837   12.7309   21.6218 H   0  0  0  0  0  0  0  0  0  0  0  0
   52.6775   10.7769   21.4074 H   0  0  0  0  0  0  0  0  0  0  0  0
   51.4412   12.4335   19.1443 H   0  0  0  0  0  0  0  0  0  0  0  0
   50.7850   10.8984   19.7590 H   0  0  0  0  0  0  0  0  0  0  0  0
   53.0606    9.8331   19.1331 H   0  0  0  0  0  0  0  0  0  0  0  0
   53.9782   12.0347   19.0324 H   0  0  0  0  0  0  0  0  0  0  0  0
   51.5972   11.1300   16.7393 H   0  0  0  0  0  0  0  0  0  0  0  0
   51.9726    8.2147   17.6724 H   0  0  0  0  0  0  0  0  0  0  0  0
   49.6443    7.1209   11.5150 H   0  0  0  0  0  0  0  0  0  0  0  0
   47.1878    7.1877   11.2360 H   0  0  0  0  0  0  0  0  0  0  0  0
   45.7572    8.0240   13.0887 H   0  0  0  0  0  0  0  0  0  0  0  0
   46.7825    8.7629   15.1926 H   0  0  0  0  0  0  0  0  0  0  0  0
   48.6899   11.3172   16.2622 H   0  0  0  0  0  0  0  0  0  0  0  0
   47.3993   12.1256   18.2248 H   0  0  0  0  0  0  0  0  0  0  0  0
   47.3202    8.1603   19.8422 H   0  0  0  0  0  0  0  0  0  0  0  0
   48.6102    7.3215   17.8955 H   0  0  0  0  0  0  0  0  0  0  0  0
   53.5281    7.3292   15.3717 H   0  0  0  0  0  0  0  0  0  0  0  0
   53.3750    8.5482   12.5163 H   0  0  0  0  0  0  0  0  0  0  0  0
   54.7887    7.6774   13.2601 H   0  0  0  0  0  0  0  0  0  0  0  0
   53.4829   10.2743   14.3581 H   0  0  0  0  0  0  0  0  0  0  0  0
   54.8851    9.3949   15.1070 H   0  0  0  0  0  0  0  0  0  0  0  0
   50.4618   12.0630   21.9212 H   0  0  0  0  0  0  0  0  0  0  0  0
   51.3710   13.5617   21.5717 H   0  0  0  0  0  0  0  0  0  0  0  0
   54.2390    9.4476   21.9526 H   0  0  0  0  0  0  0  0  0  0  0  0
   52.7386   11.1743   21.8002 H   0  0  0  0  0  0  0  0  0  0  0  0
   51.4820   10.2964   19.9852 H   0  0  0  0  0  0  0  0  0  0  0  0
   52.0824   11.9034   19.5550 H   0  0  0  0  0  0  0  0  0  0  0  0
   53.4942    9.3339   18.6332 H   0  0  0  0  0  0  0  0  0  0  0  0
   54.0539   11.9121   18.3932 H   0  0  0  0  0  0  0  0  0  0  0  0
   52.4438    9.6530   16.3969 H   0  0  0  0  0  0  0  0  0  0  0  0
   50.1040   10.4891   18.2204 H   0  0  0  0  0  0  0  0  0  0  0  0
   47.4171   10.4709   12.0770 H   0  0  0  0  0  0  0  0  0  0  0  0
   46.4882    8.3253   11.2951 H   0  0  0  0  0  0  0  0  0  0  0  0
   46.8711    6.2555   12.6206 H   0  0  0  0  0  0  0  0  0  0  0  0
   48.1563    6.3653   14.7067 H   0  0  0  0  0  0  0  0  0  0  0  0
   51.4519    6.9634   15.7312 H   0  0  0  0  0  0  0  0  0  0  0  0
   51.8358    4.9738   17.1674 H   0  0  0  0  0  0  0  0  0  0  0  0
   48.1604    5.7253   19.2331 H   0  0  0  0  0  0  0  0  0  0  0  0
   47.7524    7.7186   17.8157 H   0  0  0  0  0  0  0  0  0  0  0  0
   51.1149   12.5422   15.5045 H   0  0  0  0  0  0  0  0  0  0  0  0
   48.5393   12.8258   17.2378 H   0  0  0  0  0  0  0  0  0  0  0  0
   50.0357   13.8488   17.3332 H   0  0  0  0  0  0  0  0  0  0  0  0
   48.2352   13.4887   14.8331 H   0  0  0  0  0  0  0  0  0  0  0  0
   49.7348   14.5086   14.9164 H   0  0  0  0  0  0  0  0  0  0  0  0
   55.3198   11.0511   20.1476 H   0  0  0  0  0  0  0  0  0  0  0  0
   54.4165   12.5702   20.4009 H   0  0  0  0  0  0  0  0  0  0  0  0
  2  1  1  0
  2  3  1  0
  3  4  1  0
  4  5  1  0
  4  6  1  0
  6  7  2  0
  7  8  1  0
  8  9  2  0
  9 10  1  0
 10 11  2  0
 11 12  1  0
 12 13  2  0
 13 14  1  0
 14 15  2  0
 15 16  1  0
 11 16  1  0
 16 17  2  0
  8 17  1  0
 17 18  1  0
 18 19  2  0
 19 20  1  0
 20 21  2  0
 21 22  1  0
 21 23  1  0
 23 24  2  0
 18 24  1  0
  9 25  1  0
 25 26  1  0
 26 27  1  0
 25 27  1  0
  2 28  1  0
 28 29  1  0
 29 30  2  0
 29 31  1  0
 34 33  1  0
 34 35  1  0
 35 36  1  0
 36 37  1  0
 36 38  1  0
 38 39  2  0
 39 40  1  0
 40 41  2  0
 41 42  1  0
 42 43  2  0
 43 44  1  0
 44 45  2  0
 45 46  1  0
 46 47  2  0
 47 48  1  0
 43 48  1  0
 48 49  2  0
 40 49  1  0
 49 50  1  0
 50 51  2  0
 51 52  1  0
 52 53  2  0
 53 54  1  0
 53 55  1  0
 55 56  2  0
 50 56  1  0
 41 57  1  0
 57 58  1  0
 58 59  1  0
 57 59  1  0
 34 60  1  0
 60 61  1  0
 61 62  2  0
 61 63  1  0
  1 64  1  0
  2 65  1  1
  3 66  1  0
  3 67  1  0
  4 68  1  1
  5 69  1  0
  6 70  1  0
  7 71  1  0
 12 72  1  0
 13 73  1  0
 14 74  1  0
 15 75  1  0
 19 76  1  0
 20 77  1  0
 23 78  1  0
 24 79  1  0
 25 80  1  0
 26 81  1  0
 26 82  1  0
 27 83  1  0
 27 84  1  0
 28 85  1  0
 28 86  1  0
 33 87  1  0
 34 88  1  1
 35 89  1  0
 35 90  1  0
 36 91  1  1
 37 92  1  0
 38 93  1  0
 39 94  1  0
 44 95  1  0
 45 96  1  0
 46 97  1  0
 47 98  1  0
 51 99  1  0
 52100  1  0
 55101  1  0
 56102  1  0
 57103  1  0
 58104  1  0
 58105  1  0
 59106  1  0
 59107  1  0
 60108  1  0
 60109  1  0
M  CHG  3  31  -1  32   2  63  -1
M  END
> <Uni-Dock RESULT> 
ENERGY=   -5.226  LOWER_BOUND=    2.334  UPPER_BOUND=    3.770
INTER + INTRA:          -5.226
INTER:                  -5.226
INTRA:                   0.000
UNBOUND:                 0.000

$$$$

     RDKit          3D

109114  0  0  0  0  0  0  0  0999 V2000
   51.9094    9.5104   13.3716 O   0  0  0  0  0  0  0  0  0  0  0  0
   52.6887    9.5373   14.5772 C   0  0  2  0  0  0  0  0  0  0  0  0
   51.7507    9.2170   15.7505 C   0  0  0  0  0  0  0  0  0  0  0  0
   51.0620    7.8565   15.5745 C   0  0  2  0  0  0  0  0  0  0  0  0
   50.1234    7.8967   14.5039 O   0  0  0  0  0  0  0  0  0  0  0  0
   50.2826    7.4809   16.7992 C   0  0  0  0  0  0  0  0  0  0  0  0
   50.5963    6.4458   17.5958 C   0  0  0  0  0  0  0  0  0  0  0  0
   49.8263    6.1152   18.8086 C   0  0  0  0  0  0  0  0  0  0  0  0
   48.9187    5.0442   18.7835 C   0  0  0  0  0  0  0  0  0  0  0  0
   48.2304    4.6743   19.8962 N   0  0  0  0  0  0  0  0  0  0  0  0
   48.3944    5.3518   21.0388 C   0  0  0  0  0  0  0  0  0  0  0  0
   47.6633    4.9362   22.1444 C   0  0  0  0  0  0  0  0  0  0  0  0
   47.7721    5.5705   23.3821 C   0  0  0  0  0  0  0  0  0  0  0  0
   48.6310    6.6499   23.5246 C   0  0  0  0  0  0  0  0  0  0  0  0
   49.3747    7.0858   22.4275 C   0  0  0  0  0  0  0  0  0  0  0  0
   49.2724    6.4473   21.1639 C   0  0  0  0  0  0  0  0  0  0  0  0
   50.0099    6.8352   20.0121 C   0  0  0  0  0  0  0  0  0  0  0  0
   50.9648    7.9615   20.0737 C   0  0  0  0  0  0  0  0  0  0  0  0
   50.5280    9.2808   19.8542 C   0  0  0  0  0  0  0  0  0  0  0  0
   51.4278   10.3446   19.9106 C   0  0  0  0  0  0  0  0  0  0  0  0
   52.7667   10.0951   20.1858 C   0  0  0  0  0  0  0  0  0  0  0  0
   53.6262   11.1176   20.2592 F   0  0  0  0  0  0  0  0  0  0  0  0
   53.2253    8.8011   20.3995 C   0  0  0  0  0  0  0  0  0  0  0  0
   52.3251    7.7363   20.3433 C   0  0  0  0  0  0  0  0  0  0  0  0
   48.6742    4.2312   17.5233 C   0  0  0  0  0  0  0  0  0  0  0  0
   47.3094    3.6394   17.2427 C   0  0  0  0  0  0  0  0  0  0  0  0
   47.8019    4.7946   16.4250 C   0  0  0  0  0  0  0  0  0  0  0  0
   53.3398   10.9075   14.7510 C   0  0  0  0  0  0  0  0  0  0  0  0
   54.4530   11.0247   13.7121 C   0  0  0  0  0  0  0  0  0  0  0  0
   54.1237   10.6729   12.5404 O   0  0  0  0  0  0  0  0  0  0  0  0
   55.5551   11.4489   14.1502 O   0  0  0  0  0  0  0  0  0  0  0  0
   50.6500    7.4975   18.1162 Mg  0  0  0  0  0 15  0  0  0  0  0  0
   53.6973    7.1311   14.2667 O   0  0  0  0  0  0  0  0  0  0  0  0
   52.9159    8.3217   14.1174 C   0  0  2  0  0  0  0  0  0  0  0  0
   51.9917    8.4340   15.3400 C   0  0  0  0  0  0  0  0  0  0  0  0
   51.0006    7.2682   15.5233 C   0  0  2  0  0  0  0  0  0  0  0  0
   49.8838    7.3687   14.6350 O   0  0  0  0  0  0  0  0  0  0  0  0
   50.3532    7.1630   16.8818 C   0  0  0  0  0  0  0  0  0  0  0  0
   50.5680    7.9247   17.9655 C   0  0  0  0  0  0  0  0  0  0  0  0
   49.7719    7.7623   19.1963 C   0  0  0  0  0  0  0  0  0  0  0  0
   48.6147    8.5422   19.3645 C   0  0  0  0  0  0  0  0  0  0  0  0
   47.8320    8.4150   20.4680 N   0  0  0  0  0  0  0  0  0  0  0  0
   48.1566    7.5357   21.4208 C   0  0  0  0  0  0  0  0  0  0  0  0
   47.3174    7.4398   22.5228 C   0  0  0  0  0  0  0  0  0  0  0  0
   47.5629    6.5465   23.5664 C   0  0  0  0  0  0  0  0  0  0  0  0
   48.6781    5.7271   23.5160 C   0  0  0  0  0  0  0  0  0  0  0  0
   49.5402    5.8131   22.4229 C   0  0  0  0  0  0  0  0  0  0  0  0
   49.2965    6.7136   21.3513 C   0  0  0  0  0  0  0  0  0  0  0  0
   50.1295    6.8395   20.2052 C   0  0  0  0  0  0  0  0  0  0  0  0
   51.3537    6.0232   20.0775 C   0  0  0  0  0  0  0  0  0  0  0  0
   51.3249    4.7797   19.4247 C   0  0  0  0  0  0  0  0  0  0  0  0
   52.4799    4.0002   19.3293 C   0  0  0  0  0  0  0  0  0  0  0  0
   53.6628    4.4636   19.8895 C   0  0  0  0  0  0  0  0  0  0  0  0
   54.7671    3.7091   19.8163 F   0  0  0  0  0  0  0  0  0  0  0  0
   53.7187    5.6896   20.5406 C   0  0  0  0  0  0  0  0  0  0  0  0
   52.5657    6.4701   20.6301 C   0  0  0  0  0  0  0  0  0  0  0  0
   48.1694    9.5501   18.3172 C   0  0  0  0  0  0  0  0  0  0  0  0
   48.8917   10.8720   18.1838 C   0  0  0  0  0  0  0  0  0  0  0  0
   47.4984   10.8409   18.7276 C   0  0  0  0  0  0  0  0  0  0  0  0
   52.1938    8.3067   12.7777 C   0  0  0  0  0  0  0  0  0  0  0  0
   53.2071    8.5280   11.6569 C   0  0  0  0  0  0  0  0  0  0  0  0
   54.2914    7.8868   11.7888 O   0  0  0  0  0  0  0  0  0  0  0  0
   52.8313    9.3119   10.7432 O   0  0  0  0  0  0  0  0  0  0  0  0
   52.5420    9.8632   12.6887 H   0  0  0  0  0  0  0  0  0  0  0  0
   53.4513    8.7525   14.4938 H   0  0  0  0  0  0  0  0  0  0  0  0
   50.9782    9.9980   15.8078 H   0  0  0  0  0  0  0  0  0  0  0  0
   52.3219    9.2318   16.6865 H   0  0  0  0  0  0  0  0  0  0  0  0
   51.8011    7.0853   15.3350 H   0  0  0  0  0  0  0  0  0  0  0  0
   50.5626    8.4383   13.8071 H   0  0  0  0  0  0  0  0  0  0  0  0
   49.4165    8.1005   17.0193 H   0  0  0  0  0  0  0  0  0  0  0  0
   51.4476    5.8080   17.3796 H   0  0  0  0  0  0  0  0  0  0  0  0
   46.9898    4.0867   22.0373 H   0  0  0  0  0  0  0  0  0  0  0  0
   47.1937    5.2128   24.2297 H   0  0  0  0  0  0  0  0  0  0  0  0
   48.7258    7.1538   24.4829 H   0  0  0  0  0  0  0  0  0  0  0  0
   50.0431    7.9349   22.5652 H   0  0  0  0  0  0  0  0  0  0  0  0
   49.4815    9.4767   19.6301 H   0  0  0  0  0  0  0  0  0  0  0  0
   51.0950   11.3628   19.7322 H   0  0  0  0  0  0  0  0  0  0  0  0
   54.2774    8.6311   20.6012 H   0  0  0  0  0  0  0  0  0  0  0  0
   52.6915    6.7251   20.5045 H   0  0  0  0  0  0  0  0  0  0  0  0
   49.5206    3.6282   17.2014 H   0  0  0  0  0  0  0  0  0  0  0  0
   46.5111    3.8179   17.9561 H   0  0  0  0  0  0  0  0  0  0  0  0
   47.2719    2.6644   16.7726 H   0  0  0  0  0  0  0  0  0  0  0  0
   47.3415    5.7646   16.5762 H   0  0  0  0  0  0  0  0  0  0  0  0
   48.1130    4.6110   15.4038 H   0  0  0  0  0  0  0  0  0  0  0  0
   53.7647   11.0180   15.7574 H   0  0  0  0  0  0  0  0  0  0  0  0
   52.6202   11.7175   14.5760 H   0  0  0  0  0  0  0  0  0  0  0  0
   54.2119    7.0892   13.4179 H   0  0  0  0  0  0  0  0  0  0  0  0
   53.6080    9.1739   14.1565 H   0  0  0  0  0  0  0  0  0  0  0  0
   52.6502    8.4769   16.2156 H   0  0  0  0  0  0  0  0  0  0  0  0
   51.4472    9.3861   15.2916 H   0  0  0  0  0  0  0  0  0  0  0  0
   51.4993    6.3134   15.3221 H   0  0  0  0  0  0  0  0  0  0  0  0
   50.0421    8.1027   14.0208 H   0  0  0  0  0  0  0  0  0  0  0  0
   49.6039    6.3760   16.9375 H   0  0  0  0  0  0  0  0  0  0  0  0
   51.2873    8.7362   17.9837 H   0  0  0  0  0  0  0  0  0  0  0  0
   46.4366    8.0759   22.5658 H   0  0  0  0  0  0  0  0  0  0  0  0
   46.8794    6.4998   24.4090 H   0  0  0  0  0  0  0  0  0  0  0  0
   48.8796    5.0236   24.3203 H   0  0  0  0  0  0  0  0  0  0  0  0
   50.4085    5.1577   22.4072 H   0  0  0  0  0  0  0  0  0  0  0  0
   50.4009    4.4168   18.9838 H   0  0  0  0  0  0  0  0  0  0  0  0
   52.4625    3.0408   18.8252 H   0  0  0  0  0  0  0  0  0  0  0  0
   54.6552    6.0361   20.9608 H   0  0  0  0  0  0  0  0  0  0  0  0
   52.6132    7.4323   21.1319 H   0  0  0  0  0  0  0  0  0  0  0  0
   47.8053    9.1090   17.3918 H   0  0  0  0  0  0  0  0  0  0  0  0
   49.6995   11.0962   18.8686 H   0  0  0  0  0  0  0  0  0  0  0  0
   49.0404   11.2649   17.1857 H   0  0  0  0  0  0  0  0  0  0  0  0
   47.3596   11.0383   19.7829 H   0  0  0  0  0  0  0  0  0  0  0  0
   46.6907   11.1992   18.1030 H   0  0  0  0  0  0  0  0  0  0  0  0
   51.7127    7.3414   12.5885 H   0  0  0  0  0  0  0  0  0  0  0  0
   51.4398    9.0996   12.7370 H   0  0  0  0  0  0  0  0  0  0  0  0
  2  1  1  0
  2  3  1  0
  3  4  1  0
  4  5  1  0
  4  6  1  0
  6  7  2  0
  7  8  1  0
  8  9  2  0
  9 10  1  0
 10 11  2  0
 11 12  1  0
 12 13  2  0
 13 14  1  0
 14 15  2  0
 15 16  1  0
 11 16  1  0
 16 17  2  0
  8 17  1  0
 17 18  1  0
 18 19  2  0
 19 20  1  0
 20 21  2  0
 21 22  1  0
 21 23  1  0
 23 24  2  0
 18 24  1  0
  9 25  1  0
 25 26  1  0
 26 27  1  0
 25 27  1  0
  2 28  1  0
 28 29  1  0
 29 30  2  0
 29 31  1  0
 34 33  1  0
 34 35  1  0
 35 36  1  0
 36 37  1  0
 36 38  1  0
 38 39  2  0
 39 40  1  0
 40 41  2  0
 41 42  1  0
 42 43  2  0
 43 44  1  0
 44 45  2  0
 45 46  1  0
 46 47  2  0
 47 48  1  0
 43 48  1  0
 48 49  2  0
 40 49  1  0
 49 50  1  0
 50 51  2  0
 51 52  1  0
 52 53  2  0
 53 54  1  0
 53 55  1  0
 55 56  2  0
 50 56  1  0
 41 57  1  0
 57 58  1  0
 58 59  1  0
 57 59  1  0
 34 60  1  0
 60 61  1  0
 61 62  2  0
 61 63  1  0
  1 64  1  0
  2 65  1  1
  3 66  1  0
  3 67  1  0
  4 68  1  1
  5 69  1  0
  6 70  1  0
  7 71  1  0
 12 72  1  0
 13 73  1  0
 14 74  1  0
 15 75  1  0
 19 76  1  0
 20 77  1  0
 23 78  1  0
 24 79  1  0
 25 80  1  0
 26 81  1  0
 26 82  1  0
 27 83  1  0
 27 84  1  0
 28 85  1  0
 28 86  1  0
 33 87  1  0
 34 88  1  1
 35 89  1  0
 35 90  1  0
 36 91  1  1
 37 92  1  0
 38 93  1  0
 39 94  1  0
 44 95  1  0
 45 96  1  0
 46 97  1  0
 47 98  1  0
 51 99  1  0
 52100  1  0
 55101  1  0
 56102  1  0
 57103  1  0
 58104  1  0
 58105  1  0
 59106  1  0
 59107  1  0
 60108  1  0
 60109  1  0
M  CHG  3  31  -1  32   2  63  -1
M  END
> <Uni-Dock RESULT> 
ENERGY=   -5.214  LOWER_BOUND=    3.426  UPPER_BOUND=    5.781
INTER + INTRA:          -5.214
INTER:                  -5.214
INTRA:                   0.000
UNBOUND:                 0.000

$$$$

     RDKit          3D

109114  0  0  0  0  0  0  0  0999 V2000
   53.4256    9.3827   14.2953 O   0  0  0  0  0  0  0  0  0  0  0  0
   53.3056    7.9952   14.6445 C   0  0  2  0  0  0  0  0  0  0  0  0
   52.7820    7.9169   16.0864 C   0  0  0  0  0  0  0  0  0  0  0  0
   51.4367    8.6391   16.2440 C   0  0  2  0  0  0  0  0  0  0  0  0
   51.5972   10.0479   16.1093 O   0  0  0  0  0  0  0  0  0  0  0  0
   50.8568    8.4135   17.6084 C   0  0  0  0  0  0  0  0  0  0  0  0
   49.7292    7.7198   17.8353 C   0  0  0  0  0  0  0  0  0  0  0  0
   49.1960    7.4921   19.1906 C   0  0  0  0  0  0  0  0  0  0  0  0
   48.1065    8.2528   19.6442 C   0  0  0  0  0  0  0  0  0  0  0  0
   47.5521    8.0353   20.8665 N   0  0  0  0  0  0  0  0  0  0  0  0
   48.0611    7.0963   21.6730 C   0  0  0  0  0  0  0  0  0  0  0  0
   47.4610    6.9182   22.9131 C   0  0  0  0  0  0  0  0  0  0  0  0
   47.9114    5.9587   23.8201 C   0  0  0  0  0  0  0  0  0  0  0  0
   48.9902    5.1541   23.4855 C   0  0  0  0  0  0  0  0  0  0  0  0
   49.6095    5.3156   22.2458 C   0  0  0  0  0  0  0  0  0  0  0  0
   49.1591    6.2880   21.3151 C   0  0  0  0  0  0  0  0  0  0  0  0
   49.7389    6.4945   20.0335 C   0  0  0  0  0  0  0  0  0  0  0  0
   50.8795    5.6704   19.5817 C   0  0  0  0  0  0  0  0  0  0  0  0
   52.1991    6.0454   19.8939 C   0  0  0  0  0  0  0  0  0  0  0  0
   53.2767    5.2698   19.4673 C   0  0  0  0  0  0  0  0  0  0  0  0
   53.0405    4.1177   18.7272 C   0  0  0  0  0  0  0  0  0  0  0  0
   54.0732    3.3633   18.3347 F   0  0  0  0  0  0  0  0  0  0  0  0
   51.7476    3.7289   18.3995 C   0  0  0  0  0  0  0  0  0  0  0  0
   50.6690    4.5047   18.8264 C   0  0  0  0  0  0  0  0  0  0  0  0
   47.4776    9.3400   18.7889 C   0  0  0  0  0  0  0  0  0  0  0  0
   46.8818   10.5749   19.4307 C   0  0  0  0  0  0  0  0  0  0  0  0
   48.1619   10.6815   18.6589 C   0  0  0  0  0  0  0  0  0  0  0  0
   54.6595    7.3015   14.5120 C   0  0  0  0  0  0  0  0  0  0  0  0
   54.9693    7.1749   13.0220 C   0  0  0  0  0  0  0  0  0  0  0  0
   54.7802    8.2319   12.3496 O   0  0  0  0  0  0  0  0  0  0  0  0
   55.3665    6.0391   12.6498 O   0  0  0  0  0  0  0  0  0  0  0  0
   50.6948    7.2545   18.3156 Mg  0  0  0  0  0 15  0  0  0  0  0  0
   51.0106    7.6347   13.4171 O   0  0  0  0  0  0  0  0  0  0  0  0
   52.1797    8.2249   13.9962 C   0  0  2  0  0  0  0  0  0  0  0  0
   52.0771    8.0723   15.5219 C   0  0  0  0  0  0  0  0  0  0  0  0
   50.8602    8.7607   16.1703 C   0  0  2  0  0  0  0  0  0  0  0  0
   51.0470   10.1734   16.2962 O   0  0  0  0  0  0  0  0  0  0  0  0
   50.5333    8.3286   17.5781 C   0  0  0  0  0  0  0  0  0  0  0  0
   51.1360    7.3859   18.3188 C   0  0  0  0  0  0  0  0  0  0  0  0
   50.7654    7.1532   19.7272 C   0  0  0  0  0  0  0  0  0  0  0  0
   51.4680    7.8350   20.7358 C   0  0  0  0  0  0  0  0  0  0  0  0
   51.1513    7.6757   22.0476 N   0  0  0  0  0  0  0  0  0  0  0  0
   50.1552    6.8576   22.4009 C   0  0  0  0  0  0  0  0  0  0  0  0
   49.8676    6.7387   23.7541 C   0  0  0  0  0  0  0  0  0  0  0  0
   48.8413    5.9185   24.2248 C   0  0  0  0  0  0  0  0  0  0  0  0
   48.0810    5.1911   23.3247 C   0  0  0  0  0  0  0  0  0  0  0  0
   48.3584    5.2879   21.9612 C   0  0  0  0  0  0  0  0  0  0  0  0
   49.3959    6.1251   21.4698 C   0  0  0  0  0  0  0  0  0  0  0  0
   49.7194    6.2762   20.0930 C   0  0  0  0  0  0  0  0  0  0  0  0
   48.9776    5.5204   19.0635 C   0  0  0  0  0  0  0  0  0  0  0  0
   47.8426    6.0703   18.4449 C   0  0  0  0  0  0  0  0  0  0  0  0
   47.1297    5.3411   17.4906 C   0  0  0  0  0  0  0  0  0  0  0  0
   47.5509    4.0607   17.1574 C   0  0  0  0  0  0  0  0  0  0  0  0
   46.8576    3.3520   16.2567 F   0  0  0  0  0  0  0  0  0  0  0  0
   48.6698    3.4932   17.7540 C   0  0  0  0  0  0  0  0  0  0  0  0
   49.3846    4.2249   18.7029 C   0  0  0  0  0  0  0  0  0  0  0  0
   52.6005    8.7963   20.4128 C   0  0  0  0  0  0  0  0  0  0  0  0
   53.9541    8.2608   20.0032 C   0  0  0  0  0  0  0  0  0  0  0  0
   53.7910    8.9208   21.3357 C   0  0  0  0  0  0  0  0  0  0  0  0
   52.3333    9.6599   13.5127 C   0  0  0  0  0  0  0  0  0  0  0  0
   52.7542    9.6545   12.0448 C   0  0  0  0  0  0  0  0  0  0  0  0
   52.1422    8.8141   11.3214 O   0  0  0  0  0  0  0  0  0  0  0  0
   53.6483   10.4907   11.7418 O   0  0  0  0  0  0  0  0  0  0  0  0
   53.8982    9.3528   13.4197 H   0  0  0  0  0  0  0  0  0  0  0  0
   52.5709    7.5468   13.9637 H   0  0  0  0  0  0  0  0  0  0  0  0
   53.5164    8.3906   16.7545 H   0  0  0  0  0  0  0  0  0  0  0  0
   52.6815    6.8650   16.3795 H   0  0  0  0  0  0  0  0  0  0  0  0
   50.7374    8.3121   15.4678 H   0  0  0  0  0  0  0  0  0  0  0  0
   52.2511   10.1560   15.3795 H   0  0  0  0  0  0  0  0  0  0  0  0
   51.4044    8.8577   18.4362 H   0  0  0  0  0  0  0  0  0  0  0  0
   49.1626    7.2851   17.0177 H   0  0  0  0  0  0  0  0  0  0  0  0
   46.6114    7.5462   23.1783 H   0  0  0  0  0  0  0  0  0  0  0  0
   47.4119    5.8381   24.7776 H   0  0  0  0  0  0  0  0  0  0  0  0
   49.3518    4.4024   24.1823 H   0  0  0  0  0  0  0  0  0  0  0  0
   50.4542    4.6707   22.0060 H   0  0  0  0  0  0  0  0  0  0  0  0
   52.3859    6.9519   20.4658 H   0  0  0  0  0  0  0  0  0  0  0  0
   54.2966    5.5620   19.6987 H   0  0  0  0  0  0  0  0  0  0  0  0
   51.5900    2.8315   17.8109 H   0  0  0  0  0  0  0  0  0  0  0  0
   49.6598    4.1989   18.5607 H   0  0  0  0  0  0  0  0  0  0  0  0
   46.9606    8.9777   17.9029 H   0  0  0  0  0  0  0  0  0  0  0  0
   46.9237   10.6683   20.5112 H   0  0  0  0  0  0  0  0  0  0  0  0
   45.9852   10.9889   18.9859 H   0  0  0  0  0  0  0  0  0  0  0  0
   49.0812   10.8488   19.2090 H   0  0  0  0  0  0  0  0  0  0  0  0
   48.1414   11.1541   17.6845 H   0  0  0  0  0  0  0  0  0  0  0  0
   54.6377    6.3029   14.9679 H   0  0  0  0  0  0  0  0  0  0  0  0
   55.4584    7.8908   14.9800 H   0  0  0  0  0  0  0  0  0  0  0  0
   51.1128    7.8315   12.4487 H   0  0  0  0  0  0  0  0  0  0  0  0
   53.0427    7.6288   13.6694 H   0  0  0  0  0  0  0  0  0  0  0  0
   52.0165    6.9949   15.7160 H   0  0  0  0  0  0  0  0  0  0  0  0
   53.0047    8.4373   15.9819 H   0  0  0  0  0  0  0  0  0  0  0  0
   49.9647    8.5979   15.5602 H   0  0  0  0  0  0  0  0  0  0  0  0
   51.8683   10.4186   15.8419 H   0  0  0  0  0  0  0  0  0  0  0  0
   49.7186    8.8982   18.0209 H   0  0  0  0  0  0  0  0  0  0  0  0
   51.9629    6.7867   17.9531 H   0  0  0  0  0  0  0  0  0  0  0  0
   50.4567    7.3120   24.4659 H   0  0  0  0  0  0  0  0  0  0  0  0
   48.6461    5.8565   25.2913 H   0  0  0  0  0  0  0  0  0  0  0  0
   47.2757    4.5510   23.6772 H   0  0  0  0  0  0  0  0  0  0  0  0
   47.7457    4.7068   21.2750 H   0  0  0  0  0  0  0  0  0  0  0  0
   47.5132    7.0728   18.7027 H   0  0  0  0  0  0  0  0  0  0  0  0
   46.2544    5.7622   17.0098 H   0  0  0  0  0  0  0  0  0  0  0  0
   48.9865    2.4966   17.4706 H   0  0  0  0  0  0  0  0  0  0  0  0
   50.2642    3.7831   19.1621 H   0  0  0  0  0  0  0  0  0  0  0  0
   52.2858    9.7193   19.9304 H   0  0  0  0  0  0  0  0  0  0  0  0
   54.1063    7.1892   19.9823 H   0  0  0  0  0  0  0  0  0  0  0  0
   54.4939    8.7961   19.2321 H   0  0  0  0  0  0  0  0  0  0  0  0
   53.8267    8.2975   22.2201 H   0  0  0  0  0  0  0  0  0  0  0  0
   54.2058    9.9101   21.4777 H   0  0  0  0  0  0  0  0  0  0  0  0
   51.3884   10.2100   13.5730 H   0  0  0  0  0  0  0  0  0  0  0  0
   53.0944   10.1851   14.0990 H   0  0  0  0  0  0  0  0  0  0  0  0
  2  1  1  0
  2  3  1  0
  3  4  1  0
  4  5  1  0
  4  6  1  0
  6  7  2  0
  7  8  1  0
  8  9  2  0
  9 10  1  0
 10 11  2  0
 11 12  1  0
 12 13  2  0
 13 14  1  0
 14 15  2  0
 15 16  1  0
 11 16  1  0
 16 17  2  0
  8 17  1  0
 17 18  1  0
 18 19  2  0
 19 20  1  0
 20 21  2  0
 21 22  1  0
 21 23  1  0
 23 24  2  0
 18 24  1  0
  9 25  1  0
 25 26  1  0
 26 27  1  0
 25 27  1  0
  2 28  1  0
 28 29  1  0
 29 30  2  0
 29 31  1  0
 34 33  1  0
 34 35  1  0
 35 36  1  0
 36 37  1  0
 36 38  1  0
 38 39  2  0
 39 40  1  0
 40 41  2  0
 41 42  1  0
 42 43  2  0
 43 44  1  0
 44 45  2  0
 45 46  1  0
 46 47  2  0
 47 48  1  0
 43 48  1  0
 48 49  2  0
 40 49  1  0
 49 50  1  0
 50 51  2  0
 51 52  1  0
 52 53  2  0
 53 54  1  0
 53 55  1  0
 55 56  2  0
 50 56  1  0
 41 57  1  0
 57 58  1  0
 58 59  1  0
 57 59  1  0
 34 60  1  0
 60 61  1  0
 61 62  2  0
 61 63  1  0
  1 64  1  0
  2 65  1  1
  3 66  1  0
  3 67  1  0
  4 68  1  1
  5 69  1  0
  6 70  1  0
  7 71  1  0
 12 72  1  0
 13 73  1  0
 14 74  1  0
 15 75  1  0
 19 76  1  0
 20 77  1  0
 23 78  1  0
 24 79  1  0
 25 80  1  0
 26 81  1  0
 26 82  1  0
 27 83  1  0
 27 84  1  0
 28 85  1  0
 28 86  1  0
 33 87  1  0
 34 88  1  1
 35 89  1  0
 35 90  1  0
 36 91  1  1
 37 92  1  0
 38 93  1  0
 39 94  1  0
 44 95  1  0
 45 96  1  0
 46 97  1  0
 47 98  1  0
 51 99  1  0
 52100  1  0
 55101  1  0
 56102  1  0
 57103  1  0
 58104  1  0
 58105  1  0
 59106  1  0
 59107  1  0
 60108  1  0
 60109  1  0
M  CHG  3  31  -1  32   2  63  -1
M  END
> <Uni-Dock RESULT> 
ENERGY=   -5.137  LOWER_BOUND=    3.275  UPPER_BOUND=    6.665
INTER + INTRA:          -5.137
INTER:                  -5.137
INTRA:                   0.000
UNBOUND:                 0.000

$$$$

     RDKit          3D

109114  0  0  0  0  0  0  0  0999 V2000
   54.2221   12.6416   16.2224 O   0  0  0  0  0  0  0  0  0  0  0  0
   52.8083   12.4948   16.0195 C   0  0  2  0  0  0  0  0  0  0  0  0
   52.3385   11.2855   16.8417 C   0  0  0  0  0  0  0  0  0  0  0  0
   52.6630   11.4496   18.3330 C   0  0  2  0  0  0  0  0  0  0  0  0
   54.0676   11.3783   18.5583 O   0  0  0  0  0  0  0  0  0  0  0  0
   52.0534   10.3461   19.1451 C   0  0  0  0  0  0  0  0  0  0  0  0
   51.0724   10.5342   20.0433 C   0  0  0  0  0  0  0  0  0  0  0  0
   50.4740    9.4261   20.8095 C   0  0  0  0  0  0  0  0  0  0  0  0
   50.8441    9.2301   22.1496 C   0  0  0  0  0  0  0  0  0  0  0  0
   50.2746    8.2535   22.9049 N   0  0  0  0  0  0  0  0  0  0  0  0
   49.3590    7.4402   22.3650 C   0  0  0  0  0  0  0  0  0  0  0  0
   48.8124    6.4558   23.1785 C   0  0  0  0  0  0  0  0  0  0  0  0
   47.8443    5.5663   22.7121 C   0  0  0  0  0  0  0  0  0  0  0  0
   47.4079    5.6570   21.3989 C   0  0  0  0  0  0  0  0  0  0  0  0
   47.9434    6.6373   20.5629 C   0  0  0  0  0  0  0  0  0  0  0  0
   48.9282    7.5479   21.0272 C   0  0  0  0  0  0  0  0  0  0  0  0
   49.5043    8.5746   20.2304 C   0  0  0  0  0  0  0  0  0  0  0  0
   49.0863    8.7608   18.8251 C   0  0  0  0  0  0  0  0  0  0  0  0
   49.7124    8.0390   17.7924 C   0  0  0  0  0  0  0  0  0  0  0  0
   49.3202    8.2144   16.4657 C   0  0  0  0  0  0  0  0  0  0  0  0
   48.3023    9.1113   16.1655 C   0  0  0  0  0  0  0  0  0  0  0  0
   47.9129    9.2651   14.8949 F   0  0  0  0  0  0  0  0  0  0  0  0
   47.6725    9.8416   17.1656 C   0  0  0  0  0  0  0  0  0  0  0  0
   48.0646    9.6662   18.4934 C   0  0  0  0  0  0  0  0  0  0  0  0
   51.8800   10.1086   22.8309 C   0  0  0  0  0  0  0  0  0  0  0  0
   52.7887    9.5386   23.8992 C   0  0  0  0  0  0  0  0  0  0  0  0
   53.3494    9.8876   22.5539 C   0  0  0  0  0  0  0  0  0  0  0  0
   52.5083   12.3013   14.5349 C   0  0  0  0  0  0  0  0  0  0  0  0
   52.7392   13.6409   13.8390 C   0  0  0  0  0  0  0  0  0  0  0  0
   53.8216   14.2207   14.1509 O   0  0  0  0  0  0  0  0  0  0  0  0
   51.8258   14.0018   13.0503 O   0  0  0  0  0  0  0  0  0  0  0  0
   50.7805    9.8467   19.1368 Mg  0  0  0  0  0 15  0  0  0  0  0  0
   52.1230   14.3692   17.7285 O   0  0  0  0  0  0  0  0  0  0  0  0
   52.8673   13.4143   16.9639 C   0  0  2  0  0  0  0  0  0  0  0  0
   52.4156   12.0106   17.3966 C   0  0  0  0  0  0  0  0  0  0  0  0
   52.6494   11.6745   18.8823 C   0  0  2  0  0  0  0  0  0  0  0  0
   54.0162   11.3475   19.1498 O   0  0  0  0  0  0  0  0  0  0  0  0
   51.8981   10.4784   19.4120 C   0  0  0  0  0  0  0  0  0  0  0  0
   51.0142    9.7008   18.7679 C   0  0  0  0  0  0  0  0  0  0  0  0
   50.4416    8.4954   19.3957 C   0  0  0  0  0  0  0  0  0  0  0  0
   51.0783    7.2582   19.1962 C   0  0  0  0  0  0  0  0  0  0  0  0
   50.6066    6.1209   19.7712 N   0  0  0  0  0  0  0  0  0  0  0  0
   49.5166    6.1640   20.5435 C   0  0  0  0  0  0  0  0  0  0  0  0
   49.0830    4.9745   21.1136 C   0  0  0  0  0  0  0  0  0  0  0  0
   47.9619    4.9149   21.9426 C   0  0  0  0  0  0  0  0  0  0  0  0
   47.2475    6.0707   22.2094 C   0  0  0  0  0  0  0  0  0  0  0  0
   47.6595    7.2754   21.6397 C   0  0  0  0  0  0  0  0  0  0  0  0
   48.8033    7.3494   20.8001 C   0  0  0  0  0  0  0  0  0  0  0  0
   49.2809    8.5475   20.2002 C   0  0  0  0  0  0  0  0  0  0  0  0
   48.5680    9.8239   20.4093 C   0  0  0  0  0  0  0  0  0  0  0  0
   48.9239   10.6831   21.4621 C   0  0  0  0  0  0  0  0  0  0  0  0
   48.2295   11.8768   21.6709 C   0  0  0  0  0  0  0  0  0  0  0  0
   47.1774   12.2093   20.8282 C   0  0  0  0  0  0  0  0  0  0  0  0
   46.4975   13.3441   21.0383 F   0  0  0  0  0  0  0  0  0  0  0  0
   46.8049   11.3776   19.7796 C   0  0  0  0  0  0  0  0  0  0  0  0
   47.5030   10.1882   19.5683 C   0  0  0  0  0  0  0  0  0  0  0  0
   52.3327    7.1311   18.3469 C   0  0  0  0  0  0  0  0  0  0  0  0
   52.2341    7.1839   16.8389 C   0  0  0  0  0  0  0  0  0  0  0  0
   52.5760    5.8935   17.5140 C   0  0  0  0  0  0  0  0  0  0  0  0
   54.3593   13.6737   17.1159 C   0  0  0  0  0  0  0  0  0  0  0  0
   54.7289   14.9468   16.3579 C   0  0  0  0  0  0  0  0  0  0  0  0
   53.9113   15.9037   16.4993 O   0  0  0  0  0  0  0  0  0  0  0  0
   55.8016   14.8838   15.6977 O   0  0  0  0  0  0  0  0  0  0  0  0
   54.4720   13.3394   15.5579 H   0  0  0  0  0  0  0  0  0  0  0  0
   52.3252   13.4045   16.3982 H   0  0  0  0  0  0  0  0  0  0  0  0
   52.8478   10.3852   16.4674 H   0  0  0  0  0  0  0  0  0  0  0  0
   51.2590   11.1499   16.7038 H   0  0  0  0  0  0  0  0  0  0  0  0
   52.3218   12.4264   18.6903 H   0  0  0  0  0  0  0  0  0  0  0  0
   54.4668   11.8697   17.8027 H   0  0  0  0  0  0  0  0  0  0  0  0
   52.4590    9.3517   18.9749 H   0  0  0  0  0  0  0  0  0  0  0  0
   50.6693   11.5234   20.2364 H   0  0  0  0  0  0  0  0  0  0  0  0
   49.1505    6.3832   24.2116 H   0  0  0  0  0  0  0  0  0  0  0  0
   47.4294    4.8148   23.3784 H   0  0  0  0  0  0  0  0  0  0  0  0
   46.6541    4.9707   21.0218 H   0  0  0  0  0  0  0  0  0  0  0  0
   47.5834    6.6888   19.5360 H   0  0  0  0  0  0  0  0  0  0  0  0
   50.5154    7.3429   18.0251 H   0  0  0  0  0  0  0  0  0  0  0  0
   49.8082    7.6656   15.6658 H   0  0  0  0  0  0  0  0  0  0  0  0
   46.8884   10.5441   16.9044 H   0  0  0  0  0  0  0  0  0  0  0  0
   47.5727   10.2460   19.2710 H   0  0  0  0  0  0  0  0  0  0  0  0
   51.5706   11.1406   22.9820 H   0  0  0  0  0  0  0  0  0  0  0  0
   52.6888    8.4893   24.1579 H   0  0  0  0  0  0  0  0  0  0  0  0
   53.0423   10.1778   24.7359 H   0  0  0  0  0  0  0  0  0  0  0  0
   53.6349    9.0788   21.8906 H   0  0  0  0  0  0  0  0  0  0  0  0
   53.9734   10.7685   22.4656 H   0  0  0  0  0  0  0  0  0  0  0  0
   51.4691   11.9824   14.3804 H   0  0  0  0  0  0  0  0  0  0  0  0
   53.1804   11.5599   14.0842 H   0  0  0  0  0  0  0  0  0  0  0  0
   52.5140   15.2386   17.4486 H   0  0  0  0  0  0  0  0  0  0  0  0
   52.5743   13.5379   15.9123 H   0  0  0  0  0  0  0  0  0  0  0  0
   51.3401   11.9603   17.1896 H   0  0  0  0  0  0  0  0  0  0  0  0
   52.9078   11.2635   16.7602 H   0  0  0  0  0  0  0  0  0  0  0  0
   52.3852   12.5329   19.5099 H   0  0  0  0  0  0  0  0  0  0  0  0
   54.5366   11.5134   18.3481 H   0  0  0  0  0  0  0  0  0  0  0  0
   52.1564   10.2333   20.4402 H   0  0  0  0  0  0  0  0  0  0  0  0
   50.7166    9.8722   17.7391 H   0  0  0  0  0  0  0  0  0  0  0  0
   49.6430    4.0643   20.9133 H   0  0  0  0  0  0  0  0  0  0  0  0
   47.6580    3.9649   22.3720 H   0  0  0  0  0  0  0  0  0  0  0  0
   46.3742    6.0397   22.8566 H   0  0  0  0  0  0  0  0  0  0  0  0
   47.0815    8.1690   21.8659 H   0  0  0  0  0  0  0  0  0  0  0  0
   49.7483   10.4255   22.1209 H   0  0  0  0  0  0  0  0  0  0  0  0
   48.5017   12.5433   22.4811 H   0  0  0  0  0  0  0  0  0  0  0  0
   45.9876   11.6625   19.1280 H   0  0  0  0  0  0  0  0  0  0  0  0
   47.2161    9.5433   18.7428 H   0  0  0  0  0  0  0  0  0  0  0  0
   53.2215    7.5814   18.7838 H   0  0  0  0  0  0  0  0  0  0  0  0
   51.2565    7.2754   16.3831 H   0  0  0  0  0  0  0  0  0  0  0  0
   53.0191    7.7015   16.3018 H   0  0  0  0  0  0  0  0  0  0  0  0
   51.8290    5.1100   17.5222 H   0  0  0  0  0  0  0  0  0  0  0  0
   53.5936    5.5307   17.4523 H   0  0  0  0  0  0  0  0  0  0  0  0
   54.6374   13.8323   18.1631 H   0  0  0  0  0  0  0  0  0  0  0  0
   54.9394   12.8379   16.7113 H   0  0  0  0  0  0  0  0  0  0  0  0
  2  1  1  0
  2  3  1  0
  3  4  1  0
  4  5  1  0
  4  6  1  0
  6  7  2  0
  7  8  1  0
  8  9  2  0
  9 10  1  0
 10 11  2  0
 11 12  1  0
 12 13  2  0
 13 14  1  0
 14 15  2  0
 15 16  1  0
 11 16  1  0
 16 17  2  0
  8 17  1  0
 17 18  1  0
 18 19  2  0
 19 20  1  0
 20 21  2  0
 21 22  1  0
 21 23  1  0
 23 24  2  0
 18 24  1  0
  9 25  1  0
 25 26  1  0
 26 27  1  0
 25 27  1  0
  2 28  1  0
 28 29  1  0
 29 30  2  0
 29 31  1  0
 34 33  1  0
 34 35  1  0
 35 36  1  0
 36 37  1  0
 36 38  1  0
 38 39  2  0
 39 40  1  0
 40 41  2  0
 41 42  1  0
 42 43  2  0
 43 44  1  0
 44 45  2  0
 45 46  1  0
 46 47  2  0
 47 48  1  0
 43 48  1  0
 48 49  2  0
 40 49  1  0
 49 50  1  0
 50 51  2  0
 51 52  1  0
 52 53  2  0
 53 54  1  0
 53 55  1  0
 55 56  2  0
 50 56  1  0
 41 57  1  0
 57 58  1  0
 58 59  1  0
 57 59  1  0
 34 60  1  0
 60 61  1  0
 61 62  2  0
 61 63  1  0
  1 64  1  0
  2 65  1  1
  3 66  1  0
  3 67  1  0
  4 68  1  1
  5 69  1  0
  6 70  1  0
  7 71  1  0
 12 72  1  0
 13 73  1  0
 14 74  1  0
 15 75  1  0
 19 76  1  0
 20 77  1  0
 23 78  1  0
 24 79  1  0
 25 80  1  0
 26 81  1  0
 26 82  1  0
 27 83  1  0
 27 84  1  0
 28 85  1  0
 28 86  1  0
 33 87  1  0
 34 88  1  1
 35 89  1  0
 35 90  1  0
 36 91  1  1
 37 92  1  0
 38 93  1  0
 39 94  1  0
 44 95  1  0
 45 96  1  0
 46 97  1  0
 47 98  1  0
 51 99  1  0
 52100  1  0
 55101  1  0
 56102  1  0
 57103  1  0
 58104  1  0
 58105  1  0
 59106  1  0
 59107  1  0
 60108  1  0
 60109  1  0
M  CHG  3  31  -1  32   2  63  -1
M  END
> <Uni-Dock RESULT> 
ENERGY=   -5.110  LOWER_BOUND=    2.802  UPPER_BOUND=    4.976
INTER + INTRA:          -5.110
INTER:                  -5.110
INTRA:                   0.000
UNBOUND:                 0.000

$$$$
