
     RDKit          3D

109114  0  0  0  0  0  0  0  0999 V2000
   46.2061    9.7917   19.8957 O   0  0  0  0  0  0  0  0  0  0  0  0
   47.4356   10.3737   19.4303 C   0  0  2  0  0  0  0  0  0  0  0  0
   48.4188    9.2205   19.1793 C   0  0  0  0  0  0  0  0  0  0  0  0
   49.6484    9.6625   18.3827 C   0  0  2  0  0  0  0  0  0  0  0  0
   49.2576    9.9753   17.0491 O   0  0  0  0  0  0  0  0  0  0  0  0
   50.7073    8.5972   18.3584 C   0  0  0  0  0  0  0  0  0  0  0  0
   50.9870    7.7945   17.3158 C   0  0  0  0  0  0  0  0  0  0  0  0
   52.0628    6.7877   17.3371 C   0  0  0  0  0  0  0  0  0  0  0  0
   53.1933    6.9880   16.5238 C   0  0  0  0  0  0  0  0  0  0  0  0
   54.2305    6.1096   16.5207 N   0  0  0  0  0  0  0  0  0  0  0  0
   54.1738    5.0102   17.2812 C   0  0  0  0  0  0  0  0  0  0  0  0
   55.2578    4.1422   17.2402 C   0  0  0  0  0  0  0  0  0  0  0  0
   55.2986    2.9701   17.9963 C   0  0  0  0  0  0  0  0  0  0  0  0
   54.2267    2.6500   18.8135 C   0  0  0  0  0  0  0  0  0  0  0  0
   53.1267    3.5045   18.8726 C   0  0  0  0  0  0  0  0  0  0  0  0
   53.0801    4.7052   18.1163 C   0  0  0  0  0  0  0  0  0  0  0  0
   51.9983    5.6294   18.1496 C   0  0  0  0  0  0  0  0  0  0  0  0
   50.8214    5.3754   19.0125 C   0  0  0  0  0  0  0  0  0  0  0  0
   49.6315    4.8574   18.4714 C   0  0  0  0  0  0  0  0  0  0  0  0
   48.5232    4.6186   19.2853 C   0  0  0  0  0  0  0  0  0  0  0  0
   48.5988    4.8947   20.6425 C   0  0  0  0  0  0  0  0  0  0  0  0
   47.5412    4.6460   21.4241 F   0  0  0  0  0  0  0  0  0  0  0  0
   49.7574    5.4121   21.2012 C   0  0  0  0  0  0  0  0  0  0  0  0
   50.8679    5.6470   20.3906 C   0  0  0  0  0  0  0  0  0  0  0  0
   53.3364    8.2102   15.6351 C   0  0  0  0  0  0  0  0  0  0  0  0
   54.0617    8.1237   14.3139 C   0  0  0  0  0  0  0  0  0  0  0  0
   52.5672    8.2950   14.3363 C   0  0  0  0  0  0  0  0  0  0  0  0
   47.9422   11.3490   20.4908 C   0  0  0  0  0  0  0  0  0  0  0  0
   47.0756   12.6050   20.4768 C   0  0  0  0  0  0  0  0  0  0  0  0
   47.7079   13.6830   20.6546 O   0  0  0  0  0  0  0  0  0  0  0  0
   45.8380   12.4057   20.2924 O   0  0  0  0  0  0  0  0  0  0  0  0
   50.8444    7.3562   18.3084 Mg  0  0  0  0  0 15  0  0  0  0  0  0
   47.6038   11.2990   18.4460 O   0  0  0  0  0  0  0  0  0  0  0  0
   48.4268   11.1251   19.6234 C   0  0  2  0  0  0  0  0  0  0  0  0
   49.3231    9.8961   19.3965 C   0  0  0  0  0  0  0  0  0  0  0  0
   50.2413   10.0493   18.1751 C   0  0  2  0  0  0  0  0  0  0  0  0
   49.4735   10.1192   16.9722 O   0  0  0  0  0  0  0  0  0  0  0  0
   51.1965    8.8846   18.1101 C   0  0  0  0  0  0  0  0  0  0  0  0
   51.2749    7.9804   17.1219 C   0  0  0  0  0  0  0  0  0  0  0  0
   52.1356    6.7903   17.2274 C   0  0  0  0  0  0  0  0  0  0  0  0
   53.4890    6.8492   16.8638 C   0  0  0  0  0  0  0  0  0  0  0  0
   54.2773    5.7445   16.9252 N   0  0  0  0  0  0  0  0  0  0  0  0
   53.7763    4.5842   17.3704 C   0  0  0  0  0  0  0  0  0  0  0  0
   54.6267    3.4888   17.4203 C   0  0  0  0  0  0  0  0  0  0  0  0
   54.1991    2.2374   17.8699 C   0  0  0  0  0  0  0  0  0  0  0  0
   52.8877    2.0689   18.2822 C   0  0  0  0  0  0  0  0  0  0  0  0
   52.0148    3.1527   18.2377 C   0  0  0  0  0  0  0  0  0  0  0  0
   52.4398    4.4268   17.7781 C   0  0  0  0  0  0  0  0  0  0  0  0
   51.5955    5.5644   17.6930 C   0  0  0  0  0  0  0  0  0  0  0  0
   50.1647    5.4721   18.0671 C   0  0  0  0  0  0  0  0  0  0  0  0
   49.7296    5.8691   19.3447 C   0  0  0  0  0  0  0  0  0  0  0  0
   48.3784    5.7993   19.6916 C   0  0  0  0  0  0  0  0  0  0  0  0
   47.4600    5.3271   18.7634 C   0  0  0  0  0  0  0  0  0  0  0  0
   46.1593    5.2698   19.0846 F   0  0  0  0  0  0  0  0  0  0  0  0
   47.8642    4.9207   17.4972 C   0  0  0  0  0  0  0  0  0  0  0  0
   49.2137    4.9940   17.1473 C   0  0  0  0  0  0  0  0  0  0  0  0
   54.1381    8.1219   16.3499 C   0  0  0  0  0  0  0  0  0  0  0  0
   55.6118    8.3759   16.5818 C   0  0  0  0  0  0  0  0  0  0  0  0
   54.5951    9.1788   17.3325 C   0  0  0  0  0  0  0  0  0  0  0  0
   47.5303   10.9752   20.8502 C   0  0  0  0  0  0  0  0  0  0  0  0
   48.4008   10.9407   22.0937 C   0  0  0  0  0  0  0  0  0  0  0  0
   48.4672    9.8156   22.6616 O   0  0  0  0  0  0  0  0  0  0  0  0
   48.9561   12.0349   22.3902 O   0  0  0  0  0  0  0  0  0  0  0  0
   45.6444   10.5896   20.0869 H   0  0  0  0  0  0  0  0  0  0  0  0
   47.2081   10.8856   18.4863 H   0  0  0  0  0  0  0  0  0  0  0  0
   47.8866    8.4319   18.6308 H   0  0  0  0  0  0  0  0  0  0  0  0
   48.7110    8.7707   20.1364 H   0  0  0  0  0  0  0  0  0  0  0  0
   50.0965   10.5583   18.8176 H   0  0  0  0  0  0  0  0  0  0  0  0
   49.6935   10.8186   16.8274 H   0  0  0  0  0  0  0  0  0  0  0  0
   51.2784    8.5015   19.2762 H   0  0  0  0  0  0  0  0  0  0  0  0
   50.4188    7.8666   16.3886 H   0  0  0  0  0  0  0  0  0  0  0  0
   56.0991    4.3934   16.5969 H   0  0  0  0  0  0  0  0  0  0  0  0
   56.1639    2.3168   17.9368 H   0  0  0  0  0  0  0  0  0  0  0  0
   54.2423    1.7421   19.4092 H   0  0  0  0  0  0  0  0  0  0  0  0
   52.2964    3.2293   19.5211 H   0  0  0  0  0  0  0  0  0  0  0  0
   49.5640    4.6470   17.4051 H   0  0  0  0  0  0  0  0  0  0  0  0
   47.6031    4.2283   18.8668 H   0  0  0  0  0  0  0  0  0  0  0  0
   49.7894    5.6298   22.2619 H   0  0  0  0  0  0  0  0  0  0  0  0
   51.7755    6.0507   20.8356 H   0  0  0  0  0  0  0  0  0  0  0  0
   53.4631    9.1462   16.1769 H   0  0  0  0  0  0  0  0  0  0  0  0
   54.4480    7.1630   13.9973 H   0  0  0  0  0  0  0  0  0  0  0  0
   54.6633    8.9739   14.0156 H   0  0  0  0  0  0  0  0  0  0  0  0
   51.9591    7.4480   14.0293 H   0  0  0  0  0  0  0  0  0  0  0  0
   52.1549    9.2591   14.0556 H   0  0  0  0  0  0  0  0  0  0  0  0
   48.9804   11.6425   20.3139 H   0  0  0  0  0  0  0  0  0  0  0  0
   47.8782   10.9076   21.4934 H   0  0  0  0  0  0  0  0  0  0  0  0
   46.6830   11.1499   18.7325 H   0  0  0  0  0  0  0  0  0  0  0  0
   49.0504   12.0261   19.7113 H   0  0  0  0  0  0  0  0  0  0  0  0
   48.6765    9.0206   19.2383 H   0  0  0  0  0  0  0  0  0  0  0  0
   49.9337    9.7100   20.2886 H   0  0  0  0  0  0  0  0  0  0  0  0
   50.8195   10.9739   18.2532 H   0  0  0  0  0  0  0  0  0  0  0  0
   48.6801   10.6446   17.2127 H   0  0  0  0  0  0  0  0  0  0  0  0
   51.8341    8.7763   18.9839 H   0  0  0  0  0  0  0  0  0  0  0  0
   50.6315    8.0432   16.2493 H   0  0  0  0  0  0  0  0  0  0  0  0
   55.6570    3.6168   17.0969 H   0  0  0  0  0  0  0  0  0  0  0  0
   54.8941    1.4036   17.8897 H   0  0  0  0  0  0  0  0  0  0  0  0
   52.5431    1.1055   18.6499 H   0  0  0  0  0  0  0  0  0  0  0  0
   50.9899    3.0000   18.5677 H   0  0  0  0  0  0  0  0  0  0  0  0
   50.4405    6.2713   20.0676 H   0  0  0  0  0  0  0  0  0  0  0  0
   48.0423    6.1406   20.6686 H   0  0  0  0  0  0  0  0  0  0  0  0
   47.1279    4.5628   16.7864 H   0  0  0  0  0  0  0  0  0  0  0  0
   49.5268    4.6866   16.1510 H   0  0  0  0  0  0  0  0  0  0  0  0
   53.7328    8.4851   15.4078 H   0  0  0  0  0  0  0  0  0  0  0  0
   56.1643    8.8574   15.7845 H   0  0  0  0  0  0  0  0  0  0  0  0
   56.1826    7.6443   17.1385 H   0  0  0  0  0  0  0  0  0  0  0  0
   54.4367   10.2130   17.0537 H   0  0  0  0  0  0  0  0  0  0  0  0
   54.4753    8.9881   18.3937 H   0  0  0  0  0  0  0  0  0  0  0  0
   46.9022   10.0791   20.7765 H   0  0  0  0  0  0  0  0  0  0  0  0
   46.8414   11.8245   20.9193 H   0  0  0  0  0  0  0  0  0  0  0  0
  2  1  1  0
  2  3  1  0
  3  4  1  0
  4  5  1  0
  4  6  1  0
  6  7  2  0
  7  8  1  0
  8  9  2  0
  9 10  1  0
 10 11  2  0
 11 12  1  0
 12 13  2  0
 13 14  1  0
 14 15  2  0
 15 16  1  0
 11 16  1  0
 16 17  2  0
  8 17  1  0
 17 18  1  0
 18 19  2  0
 19 20  1  0
 20 21  2  0
 21 22  1  0
 21 23  1  0
 23 24  2  0
 18 24  1  0
  9 25  1  0
 25 26  1  0
 26 27  1  0
 25 27  1  0
  2 28  1  0
 28 29  1  0
 29 30  2  0
 29 31  1  0
 34 33  1  0
 34 35  1  0
 35 36  1  0
 36 37  1  0
 36 38  1  0
 38 39  2  0
 39 40  1  0
 40 41  2  0
 41 42  1  0
 42 43  2  0
 43 44  1  0
 44 45  2  0
 45 46  1  0
 46 47  2  0
 47 48  1  0
 43 48  1  0
 48 49  2  0
 40 49  1  0
 49 50  1  0
 50 51  2  0
 51 52  1  0
 52 53  2  0
 53 54  1  0
 53 55  1  0
 55 56  2  0
 50 56  1  0
 41 57  1  0
 57 58  1  0
 58 59  1  0
 57 59  1  0
 34 60  1  0
 60 61  1  0
 61 62  2  0
 61 63  1  0
  1 64  1  0
  2 65  1  6
  3 66  1  0
  3 67  1  0
  4 68  1  1
  5 69  1  0
  6 70  1  0
  7 71  1  0
 12 72  1  0
 13 73  1  0
 14 74  1  0
 15 75  1  0
 19 76  1  0
 20 77  1  0
 23 78  1  0
 24 79  1  0
 25 80  1  0
 26 81  1  0
 26 82  1  0
 27 83  1  0
 27 84  1  0
 28 85  1  0
 28 86  1  0
 33 87  1  0
 34 88  1  1
 35 89  1  0
 35 90  1  0
 36 91  1  1
 37 92  1  0
 38 93  1  0
 39 94  1  0
 44 95  1  0
 45 96  1  0
 46 97  1  0
 47 98  1  0
 51 99  1  0
 52100  1  0
 55101  1  0
 56102  1  0
 57103  1  0
 58104  1  0
 58105  1  0
 59106  1  0
 59107  1  0
 60108  1  0
 60109  1  0
M  CHG  3  31  -1  32   2  63  -1
M  END
> <Uni-Dock RESULT> 
ENERGY=   -7.032  LOWER_BOUND=    0.000  UPPER_BOUND=    0.000
INTER + INTRA:          -7.032
INTER:                  -7.032
INTRA:                   0.000
UNBOUND:                 0.000

$$$$

     RDKit          3D

109114  0  0  0  0  0  0  0  0999 V2000
   50.5869   13.3860   20.6829 O   0  0  0  0  0  0  0  0  0  0  0  0
   51.7331   12.5188   20.6522 C   0  0  2  0  0  0  0  0  0  0  0  0
   51.2590   11.1558   20.1258 C   0  0  0  0  0  0  0  0  0  0  0  0
   52.4227   10.2405   19.7391 C   0  0  2  0  0  0  0  0  0  0  0  0
   53.0686   10.7635   18.5824 O   0  0  0  0  0  0  0  0  0  0  0  0
   51.9593    8.8382   19.4642 C   0  0  0  0  0  0  0  0  0  0  0  0
   51.8225    8.2831   18.2465 C   0  0  0  0  0  0  0  0  0  0  0  0
   51.3957    6.8882   18.0378 C   0  0  0  0  0  0  0  0  0  0  0  0
   52.3275    5.9642   17.5304 C   0  0  0  0  0  0  0  0  0  0  0  0
   52.0021    4.6580   17.3425 N   0  0  0  0  0  0  0  0  0  0  0  0
   50.7619    4.2354   17.6138 C   0  0  0  0  0  0  0  0  0  0  0  0
   50.4785    2.8919   17.4018 C   0  0  0  0  0  0  0  0  0  0  0  0
   49.2176    2.3507   17.6555 C   0  0  0  0  0  0  0  0  0  0  0  0
   48.2076    3.1721   18.1295 C   0  0  0  0  0  0  0  0  0  0  0  0
   48.4662    4.5241   18.3507 C   0  0  0  0  0  0  0  0  0  0  0  0
   49.7488    5.0823   18.1067 C   0  0  0  0  0  0  0  0  0  0  0  0
   50.0827    6.4471   18.3333 C   0  0  0  0  0  0  0  0  0  0  0  0
   49.0684    7.3899   18.8592 C   0  0  0  0  0  0  0  0  0  0  0  0
   48.3964    8.2763   17.9991 C   0  0  0  0  0  0  0  0  0  0  0  0
   47.4411    9.1643   18.4957 C   0  0  0  0  0  0  0  0  0  0  0  0
   47.1519    9.1699   19.8523 C   0  0  0  0  0  0  0  0  0  0  0  0
   46.2210   10.0086   20.3227 F   0  0  0  0  0  0  0  0  0  0  0  0
   47.8042    8.3113   20.7238 C   0  0  0  0  0  0  0  0  0  0  0  0
   48.7558    7.4196   20.2291 C   0  0  0  0  0  0  0  0  0  0  0  0
   53.7547    6.3622   17.2005 C   0  0  0  0  0  0  0  0  0  0  0  0
   54.4966    5.7039   16.0624 C   0  0  0  0  0  0  0  0  0  0  0  0
   54.0509    7.1352   15.9354 C   0  0  0  0  0  0  0  0  0  0  0  0
   52.3103   12.4281   22.0632 C   0  0  0  0  0  0  0  0  0  0  0  0
   53.0218   13.7347   22.4027 C   0  0  0  0  0  0  0  0  0  0  0  0
   54.0887   13.5971   23.0632 O   0  0  0  0  0  0  0  0  0  0  0  0
   52.4517   14.7854   21.9827 O   0  0  0  0  0  0  0  0  0  0  0  0
   51.0036    8.2042   18.9683 Mg  0  0  0  0  0 15  0  0  0  0  0  0
   52.9624   12.7746   20.1260 O   0  0  0  0  0  0  0  0  0  0  0  0
   52.6621   11.9194   21.2541 C   0  0  2  0  0  0  0  0  0  0  0  0
   52.0816   10.6037   20.7086 C   0  0  0  0  0  0  0  0  0  0  0  0
   53.0568    9.8654   19.7800 C   0  0  2  0  0  0  0  0  0  0  0  0
   53.3025   10.6283   18.5971 O   0  0  0  0  0  0  0  0  0  0  0  0
   52.4872    8.5180   19.4154 C   0  0  0  0  0  0  0  0  0  0  0  0
   52.1663    8.1029   18.1805 C   0  0  0  0  0  0  0  0  0  0  0  0
   51.4703    6.8261   17.9488 C   0  0  0  0  0  0  0  0  0  0  0  0
   52.1898    5.6279   17.8308 C   0  0  0  0  0  0  0  0  0  0  0  0
   51.5543    4.4535   17.5809 N   0  0  0  0  0  0  0  0  0  0  0  0
   50.2188    4.4197   17.4777 C   0  0  0  0  0  0  0  0  0  0  0  0
   49.6197    3.1929   17.2295 C   0  0  0  0  0  0  0  0  0  0  0  0
   48.2353    3.0546   17.1063 C   0  0  0  0  0  0  0  0  0  0  0  0
   47.4216    4.1680   17.2333 C   0  0  0  0  0  0  0  0  0  0  0  0
   48.0001    5.4104   17.4788 C   0  0  0  0  0  0  0  0  0  0  0  0
   49.4064    5.5607   17.6012 C   0  0  0  0  0  0  0  0  0  0  0  0
   50.0570    6.8003   17.8339 C   0  0  0  0  0  0  0  0  0  0  0  0
   49.2756    8.0551   17.9379 C   0  0  0  0  0  0  0  0  0  0  0  0
   48.9211    8.5781   19.1948 C   0  0  0  0  0  0  0  0  0  0  0  0
   48.2001    9.7703   19.2936 C   0  0  0  0  0  0  0  0  0  0  0  0
   47.8273   10.4393   18.1355 C   0  0  0  0  0  0  0  0  0  0  0  0
   47.1467   11.5914   18.2227 F   0  0  0  0  0  0  0  0  0  0  0  0
   48.1575    9.9403   16.8809 C   0  0  0  0  0  0  0  0  0  0  0  0
   48.8819    8.7511   16.7805 C   0  0  0  0  0  0  0  0  0  0  0  0
   53.7036    5.5750   17.9348 C   0  0  0  0  0  0  0  0  0  0  0  0
   54.3913    4.3304   18.4524 C   0  0  0  0  0  0  0  0  0  0  0  0
   54.3606    5.5653   19.2985 C   0  0  0  0  0  0  0  0  0  0  0  0
   51.6959   12.6391   22.1919 C   0  0  0  0  0  0  0  0  0  0  0  0
   51.5029   11.7962   23.4400 C   0  0  0  0  0  0  0  0  0  0  0  0
   50.3668   11.2565   23.5430 O   0  0  0  0  0  0  0  0  0  0  0  0
   52.5056   11.7320   24.2042 O   0  0  0  0  0  0  0  0  0  0  0  0
   50.9538   14.2205   21.0799 H   0  0  0  0  0  0  0  0  0  0  0  0
   52.4502   12.9638   19.9501 H   0  0  0  0  0  0  0  0  0  0  0  0
   50.6202   11.3320   19.2500 H   0  0  0  0  0  0  0  0  0  0  0  0
   50.6132   10.6770   20.8724 H   0  0  0  0  0  0  0  0  0  0  0  0
   53.1636   10.1883   20.5397 H   0  0  0  0  0  0  0  0  0  0  0  0
   54.0260   10.7198   18.7607 H   0  0  0  0  0  0  0  0  0  0  0  0
   51.7310    8.2522   20.3486 H   0  0  0  0  0  0  0  0  0  0  0  0
   52.0362    8.8570   17.3450 H   0  0  0  0  0  0  0  0  0  0  0  0
   51.2719    2.2474   17.0281 H   0  0  0  0  0  0  0  0  0  0  0  0
   49.0349    1.2954   17.4767 H   0  0  0  0  0  0  0  0  0  0  0  0
   47.2206    2.7672   18.3329 H   0  0  0  0  0  0  0  0  0  0  0  0
   47.6550    5.1486   18.7216 H   0  0  0  0  0  0  0  0  0  0  0  0
   48.6259    8.2819   16.9346 H   0  0  0  0  0  0  0  0  0  0  0  0
   46.9300    9.8538   17.8345 H   0  0  0  0  0  0  0  0  0  0  0  0
   47.5694    8.3413   21.7808 H   0  0  0  0  0  0  0  0  0  0  0  0
   49.2625    6.7461   20.9179 H   0  0  0  0  0  0  0  0  0  0  0  0
   54.3613    6.6164   18.0684 H   0  0  0  0  0  0  0  0  0  0  0  0
   53.9773    4.9657   15.4641 H   0  0  0  0  0  0  0  0  0  0  0  0
   55.5548    5.5142   16.1969 H   0  0  0  0  0  0  0  0  0  0  0  0
   53.2370    7.3495   15.2476 H   0  0  0  0  0  0  0  0  0  0  0  0
   54.8038    7.9155   15.9850 H   0  0  0  0  0  0  0  0  0  0  0  0
   53.0270   11.6081   22.1600 H   0  0  0  0  0  0  0  0  0  0  0  0
   51.5152   12.2759   22.8041 H   0  0  0  0  0  0  0  0  0  0  0  0
   52.3667   13.5438   20.2008 H   0  0  0  0  0  0  0  0  0  0  0  0
   53.6151   11.7196   21.7640 H   0  0  0  0  0  0  0  0  0  0  0  0
   51.1692   10.8371   20.1407 H   0  0  0  0  0  0  0  0  0  0  0  0
   51.8040    9.9452   21.5409 H   0  0  0  0  0  0  0  0  0  0  0  0
   54.0157    9.7169   20.2836 H   0  0  0  0  0  0  0  0  0  0  0  0
   53.3339   11.5602   18.9032 H   0  0  0  0  0  0  0  0  0  0  0  0
   52.2918    7.8674   20.2642 H   0  0  0  0  0  0  0  0  0  0  0  0
   52.3212    8.7399   17.3147 H   0  0  0  0  0  0  0  0  0  0  0  0
   50.2552    2.3162   17.1286 H   0  0  0  0  0  0  0  0  0  0  0  0
   47.8051    2.0778   16.9076 H   0  0  0  0  0  0  0  0  0  0  0  0
   46.3411    4.0751   17.1560 H   0  0  0  0  0  0  0  0  0  0  0  0
   47.3436    6.2718   17.5772 H   0  0  0  0  0  0  0  0  0  0  0  0
   49.2383    8.0752   20.1092 H   0  0  0  0  0  0  0  0  0  0  0  0
   47.9589   10.1888   20.2686 H   0  0  0  0  0  0  0  0  0  0  0  0
   47.8623   10.4842   15.9908 H   0  0  0  0  0  0  0  0  0  0  0  0
   49.1501    8.3680   15.7973 H   0  0  0  0  0  0  0  0  0  0  0  0
   54.2278    6.1208   17.1530 H   0  0  0  0  0  0  0  0  0  0  0  0
   55.3260    4.0480   17.9839 H   0  0  0  0  0  0  0  0  0  0  0  0
   53.7813    3.4933   18.7658 H   0  0  0  0  0  0  0  0  0  0  0  0
   55.2692    6.1432   19.4124 H   0  0  0  0  0  0  0  0  0  0  0  0
   53.7282    5.5654   20.1799 H   0  0  0  0  0  0  0  0  0  0  0  0
   50.7395   12.8447   21.6961 H   0  0  0  0  0  0  0  0  0  0  0  0
   52.1055   13.6143   22.4787 H   0  0  0  0  0  0  0  0  0  0  0  0
  2  1  1  0
  2  3  1  0
  3  4  1  0
  4  5  1  0
  4  6  1  0
  6  7  2  0
  7  8  1  0
  8  9  2  0
  9 10  1  0
 10 11  2  0
 11 12  1  0
 12 13  2  0
 13 14  1  0
 14 15  2  0
 15 16  1  0
 11 16  1  0
 16 17  2  0
  8 17  1  0
 17 18  1  0
 18 19  2  0
 19 20  1  0
 20 21  2  0
 21 22  1  0
 21 23  1  0
 23 24  2  0
 18 24  1  0
  9 25  1  0
 25 26  1  0
 26 27  1  0
 25 27  1  0
  2 28  1  0
 28 29  1  0
 29 30  2  0
 29 31  1  0
 34 33  1  0
 34 35  1  0
 35 36  1  0
 36 37  1  0
 36 38  1  0
 38 39  2  0
 39 40  1  0
 40 41  2  0
 41 42  1  0
 42 43  2  0
 43 44  1  0
 44 45  2  0
 45 46  1  0
 46 47  2  0
 47 48  1  0
 43 48  1  0
 48 49  2  0
 40 49  1  0
 49 50  1  0
 50 51  2  0
 51 52  1  0
 52 53  2  0
 53 54  1  0
 53 55  1  0
 55 56  2  0
 50 56  1  0
 41 57  1  0
 57 58  1  0
 58 59  1  0
 57 59  1  0
 34 60  1  0
 60 61  1  0
 61 62  2  0
 61 63  1  0
  1 64  1  0
  2 65  1  6
  3 66  1  0
  3 67  1  0
  4 68  1  1
  5 69  1  0
  6 70  1  0
  7 71  1  0
 12 72  1  0
 13 73  1  0
 14 74  1  0
 15 75  1  0
 19 76  1  0
 20 77  1  0
 23 78  1  0
 24 79  1  0
 25 80  1  0
 26 81  1  0
 26 82  1  0
 27 83  1  0
 27 84  1  0
 28 85  1  0
 28 86  1  0
 33 87  1  0
 34 88  1  1
 35 89  1  0
 35 90  1  0
 36 91  1  1
 37 92  1  0
 38 93  1  0
 39 94  1  0
 44 95  1  0
 45 96  1  0
 46 97  1  0
 47 98  1  0
 51 99  1  0
 52100  1  0
 55101  1  0
 56102  1  0
 57103  1  0
 58104  1  0
 58105  1  0
 59106  1  0
 59107  1  0
 60108  1  0
 60109  1  0
M  CHG  3  31  -1  32   2  63  -1
M  END
> <Uni-Dock RESULT> 
ENERGY=   -6.148  LOWER_BOUND=    2.608  UPPER_BOUND=    4.115
INTER + INTRA:          -6.148
INTER:                  -6.148
INTRA:                   0.000
UNBOUND:                 0.000

$$$$

     RDKit          3D

109114  0  0  0  0  0  0  0  0999 V2000
   52.8633   15.8333   12.6248 O   0  0  0  0  0  0  0  0  0  0  0  0
   52.9105   14.3988   12.5410 C   0  0  2  0  0  0  0  0  0  0  0  0
   51.9878   13.8480   13.6386 C   0  0  0  0  0  0  0  0  0  0  0  0
   51.6923   12.3570   13.4614 C   0  0  2  0  0  0  0  0  0  0  0  0
   50.8759   12.1729   12.3089 O   0  0  0  0  0  0  0  0  0  0  0  0
   51.0004   11.7807   14.6638 C   0  0  0  0  0  0  0  0  0  0  0  0
   49.6916   11.4805   14.7454 C   0  0  0  0  0  0  0  0  0  0  0  0
   49.0727   10.8835   15.9419 C   0  0  0  0  0  0  0  0  0  0  0  0
   48.6057    9.5581   15.8724 C   0  0  0  0  0  0  0  0  0  0  0  0
   48.0509    8.9433   16.9502 N   0  0  0  0  0  0  0  0  0  0  0  0
   47.9126    9.6129   18.1003 C   0  0  0  0  0  0  0  0  0  0  0  0
   47.3367    8.9411   19.1714 C   0  0  0  0  0  0  0  0  0  0  0  0
   47.1496    9.5482   20.4138 C   0  0  0  0  0  0  0  0  0  0  0  0
   47.5428   10.8644   20.5940 C   0  0  0  0  0  0  0  0  0  0  0  0
   48.1233   11.5607   19.5349 C   0  0  0  0  0  0  0  0  0  0  0  0
   48.3288   10.9488   18.2702 C   0  0  0  0  0  0  0  0  0  0  0  0
   48.9354   11.5968   17.1578 C   0  0  0  0  0  0  0  0  0  0  0  0
   49.4043   12.9974   17.2702 C   0  0  0  0  0  0  0  0  0  0  0  0
   48.6350   14.0566   16.7570 C   0  0  0  0  0  0  0  0  0  0  0  0
   49.0779   15.3758   16.8632 C   0  0  0  0  0  0  0  0  0  0  0  0
   50.2896   15.6429   17.4832 C   0  0  0  0  0  0  0  0  0  0  0  0
   50.7024   16.9106   17.6015 F   0  0  0  0  0  0  0  0  0  0  0  0
   51.0713   14.6173   17.9921 C   0  0  0  0  0  0  0  0  0  0  0  0
   50.6285   13.2985   17.8914 C   0  0  0  0  0  0  0  0  0  0  0  0
   48.7279    8.7293   14.6068 C   0  0  0  0  0  0  0  0  0  0  0  0
   47.6813    7.7003   14.2533 C   0  0  0  0  0  0  0  0  0  0  0  0
   47.7827    8.9692   13.4515 C   0  0  0  0  0  0  0  0  0  0  0  0
   54.3593   13.9502   12.7203 C   0  0  0  0  0  0  0  0  0  0  0  0
   55.1496   14.2786   11.4570 C   0  0  0  0  0  0  0  0  0  0  0  0
   55.9971   13.4043   11.1238 O   0  0  0  0  0  0  0  0  0  0  0  0
   54.8576   15.3828   10.9085 O   0  0  0  0  0  0  0  0  0  0  0  0
   50.1580   12.0716   15.5396 Mg  0  0  0  0  0 15  0  0  0  0  0  0
   52.7676   13.6198   11.4337 O   0  0  0  0  0  0  0  0  0  0  0  0
   53.5637   13.3247   12.6054 C   0  0  2  0  0  0  0  0  0  0  0  0
   52.6084   12.8845   13.7275 C   0  0  0  0  0  0  0  0  0  0  0  0
   51.7969   11.6339   13.3587 C   0  0  2  0  0  0  0  0  0  0  0  0
   50.9148   11.9081   12.2686 O   0  0  0  0  0  0  0  0  0  0  0  0
   51.0075   11.1707   14.5567 C   0  0  0  0  0  0  0  0  0  0  0  0
   49.6704   11.1007   14.6438 C   0  0  0  0  0  0  0  0  0  0  0  0
   48.9923   10.7836   15.9119 C   0  0  0  0  0  0  0  0  0  0  0  0
   48.7789    9.4522   16.2980 C   0  0  0  0  0  0  0  0  0  0  0  0
   48.1216    9.1557   17.4492 N   0  0  0  0  0  0  0  0  0  0  0  0
   47.6962   10.1393   18.2536 C   0  0  0  0  0  0  0  0  0  0  0  0
   47.0372    9.7812   19.4211 C   0  0  0  0  0  0  0  0  0  0  0  0
   46.5572   10.7327   20.3240 C   0  0  0  0  0  0  0  0  0  0  0  0
   46.7371   12.0802   20.0594 C   0  0  0  0  0  0  0  0  0  0  0  0
   47.3922   12.4639   18.8924 C   0  0  0  0  0  0  0  0  0  0  0  0
   47.8794   11.5037   17.9672 C   0  0  0  0  0  0  0  0  0  0  0  0
   48.5391   11.8308   16.7540 C   0  0  0  0  0  0  0  0  0  0  0  0
   48.7374   13.2455   16.3603 C   0  0  0  0  0  0  0  0  0  0  0  0
   49.9580   13.8972   16.6144 C   0  0  0  0  0  0  0  0  0  0  0  0
   50.1516   15.2252   16.2272 C   0  0  0  0  0  0  0  0  0  0  0  0
   49.1229   15.9062   15.5899 C   0  0  0  0  0  0  0  0  0  0  0  0
   49.3060   17.1771   15.2032 F   0  0  0  0  0  0  0  0  0  0  0  0
   47.9042   15.2887   15.3342 C   0  0  0  0  0  0  0  0  0  0  0  0
   47.7106   13.9600   15.7165 C   0  0  0  0  0  0  0  0  0  0  0  0
   49.2280    8.2772   15.4476 C   0  0  0  0  0  0  0  0  0  0  0  0
   49.5959    6.9605   16.0963 C   0  0  0  0  0  0  0  0  0  0  0  0
   50.6698    7.8196   15.5043 C   0  0  0  0  0  0  0  0  0  0  0  0
   54.3817   14.5567   12.9852 C   0  0  0  0  0  0  0  0  0  0  0  0
   55.3196   14.1924   14.1224 C   0  0  0  0  0  0  0  0  0  0  0  0
   55.0205   14.7012   15.2379 O   0  0  0  0  0  0  0  0  0  0  0  0
   56.2663   13.4181   13.8097 O   0  0  0  0  0  0  0  0  0  0  0  0
   53.5171   16.1151   11.9308 H   0  0  0  0  0  0  0  0  0  0  0  0
   52.5222   14.1248   11.5515 H   0  0  0  0  0  0  0  0  0  0  0  0
   51.0488   14.4169   13.6120 H   0  0  0  0  0  0  0  0  0  0  0  0
   52.4275   14.0475   14.6239 H   0  0  0  0  0  0  0  0  0  0  0  0
   52.6133   11.7896   13.3116 H   0  0  0  0  0  0  0  0  0  0  0  0
   51.2637   11.4267   11.8157 H   0  0  0  0  0  0  0  0  0  0  0  0
   51.6457   11.5991   15.5173 H   0  0  0  0  0  0  0  0  0  0  0  0
   49.0240   11.6647   13.9038 H   0  0  0  0  0  0  0  0  0  0  0  0
   47.0267    7.9075   19.0290 H   0  0  0  0  0  0  0  0  0  0  0  0
   46.6952    8.9900   21.2268 H   0  0  0  0  0  0  0  0  0  0  0  0
   47.4051   11.3520   21.5545 H   0  0  0  0  0  0  0  0  0  0  0  0
   48.4218   12.5945   19.7017 H   0  0  0  0  0  0  0  0  0  0  0  0
   47.6871   13.8516   16.2617 H   0  0  0  0  0  0  0  0  0  0  0  0
   48.4896   16.1912   16.4595 H   0  0  0  0  0  0  0  0  0  0  0  0
   52.0191   14.8493   18.4626 H   0  0  0  0  0  0  0  0  0  0  0  0
   51.2454   12.4979   18.2953 H   0  0  0  0  0  0  0  0  0  0  0  0
   49.7504    8.4660   14.3402 H   0  0  0  0  0  0  0  0  0  0  0  0
   46.8232    7.5900   14.9044 H   0  0  0  0  0  0  0  0  0  0  0  0
   48.0185    6.7811   13.7894 H   0  0  0  0  0  0  0  0  0  0  0  0
   46.9878    9.7016   13.5661 H   0  0  0  0  0  0  0  0  0  0  0  0
   48.1889    8.9124   12.4465 H   0  0  0  0  0  0  0  0  0  0  0  0
   54.4345   12.8754   12.9064 H   0  0  0  0  0  0  0  0  0  0  0  0
   54.8326   14.4759   13.5592 H   0  0  0  0  0  0  0  0  0  0  0  0
   52.8716   14.5757   11.2670 H   0  0  0  0  0  0  0  0  0  0  0  0
   54.2275   12.4908   12.3369 H   0  0  0  0  0  0  0  0  0  0  0  0
   51.9073   13.7078   13.9280 H   0  0  0  0  0  0  0  0  0  0  0  0
   53.1760   12.6911   14.6460 H   0  0  0  0  0  0  0  0  0  0  0  0
   52.4679   10.8289   13.0474 H   0  0  0  0  0  0  0  0  0  0  0  0
   51.4248   12.5042   11.6788 H   0  0  0  0  0  0  0  0  0  0  0  0
   51.6123   10.9208   15.4249 H   0  0  0  0  0  0  0  0  0  0  0  0
   49.0369   11.3717   13.8045 H   0  0  0  0  0  0  0  0  0  0  0  0
   46.8935    8.7242   19.6323 H   0  0  0  0  0  0  0  0  0  0  0  0
   46.0427   10.4121   21.2247 H   0  0  0  0  0  0  0  0  0  0  0  0
   46.3837   12.8332   20.7596 H   0  0  0  0  0  0  0  0  0  0  0  0
   47.5250   13.5268   18.7043 H   0  0  0  0  0  0  0  0  0  0  0  0
   50.7814   13.3588   17.0853 H   0  0  0  0  0  0  0  0  0  0  0  0
   51.1094   15.7135   16.3943 H   0  0  0  0  0  0  0  0  0  0  0  0
   47.1184   15.8381   14.8283 H   0  0  0  0  0  0  0  0  0  0  0  0
   46.7597   13.4742   15.5047 H   0  0  0  0  0  0  0  0  0  0  0  0
   48.7413    8.2123   14.4767 H   0  0  0  0  0  0  0  0  0  0  0  0
   49.3134    6.0540   15.5754 H   0  0  0  0  0  0  0  0  0  0  0  0
   49.5534    6.8842   17.1750 H   0  0  0  0  0  0  0  0  0  0  0  0
   51.1276    7.5149   14.5715 H   0  0  0  0  0  0  0  0  0  0  0  0
   51.3496    8.3268   16.1806 H   0  0  0  0  0  0  0  0  0  0  0  0
   53.7317   15.3974   13.2564 H   0  0  0  0  0  0  0  0  0  0  0  0
   54.9740   14.8946   12.1274 H   0  0  0  0  0  0  0  0  0  0  0  0
  2  1  1  0
  2  3  1  0
  3  4  1  0
  4  5  1  0
  4  6  1  0
  6  7  2  0
  7  8  1  0
  8  9  2  0
  9 10  1  0
 10 11  2  0
 11 12  1  0
 12 13  2  0
 13 14  1  0
 14 15  2  0
 15 16  1  0
 11 16  1  0
 16 17  2  0
  8 17  1  0
 17 18  1  0
 18 19  2  0
 19 20  1  0
 20 21  2  0
 21 22  1  0
 21 23  1  0
 23 24  2  0
 18 24  1  0
  9 25  1  0
 25 26  1  0
 26 27  1  0
 25 27  1  0
  2 28  1  0
 28 29  1  0
 29 30  2  0
 29 31  1  0
 34 33  1  0
 34 35  1  0
 35 36  1  0
 36 37  1  0
 36 38  1  0
 38 39  2  0
 39 40  1  0
 40 41  2  0
 41 42  1  0
 42 43  2  0
 43 44  1  0
 44 45  2  0
 45 46  1  0
 46 47  2  0
 47 48  1  0
 43 48  1  0
 48 49  2  0
 40 49  1  0
 49 50  1  0
 50 51  2  0
 51 52  1  0
 52 53  2  0
 53 54  1  0
 53 55  1  0
 55 56  2  0
 50 56  1  0
 41 57  1  0
 57 58  1  0
 58 59  1  0
 57 59  1  0
 34 60  1  0
 60 61  1  0
 61 62  2  0
 61 63  1  0
  1 64  1  0
  2 65  1  6
  3 66  1  0
  3 67  1  0
  4 68  1  1
  5 69  1  0
  6 70  1  0
  7 71  1  0
 12 72  1  0
 13 73  1  0
 14 74  1  0
 15 75  1  0
 19 76  1  0
 20 77  1  0
 23 78  1  0
 24 79  1  0
 25 80  1  0
 26 81  1  0
 26 82  1  0
 27 83  1  0
 27 84  1  0
 28 85  1  0
 28 86  1  0
 33 87  1  0
 34 88  1  1
 35 89  1  0
 35 90  1  0
 36 91  1  1
 37 92  1  0
 38 93  1  0
 39 94  1  0
 44 95  1  0
 45 96  1  0
 46 97  1  0
 47 98  1  0
 51 99  1  0
 52100  1  0
 55101  1  0
 56102  1  0
 57103  1  0
 58104  1  0
 58105  1  0
 59106  1  0
 59107  1  0
 60108  1  0
 60109  1  0
M  CHG  3  31  -1  32   2  63  -1
M  END
> <Uni-Dock RESULT> 
ENERGY=   -6.105  LOWER_BOUND=    5.308  UPPER_BOUND=    8.850
INTER + INTRA:          -6.105
INTER:                  -6.105
INTRA:                   0.000
UNBOUND:                 0.000

$$$$

     RDKit          3D

109114  0  0  0  0  0  0  0  0999 V2000
   55.5625   12.1932    9.5392 O   0  0  0  0  0  0  0  0  0  0  0  0
   54.3018   12.7812    9.1765 C   0  0  2  0  0  0  0  0  0  0  0  0
   53.1987   11.9211    9.8113 C   0  0  0  0  0  0  0  0  0  0  0  0
   51.8305   12.6055    9.7779 C   0  0  2  0  0  0  0  0  0  0  0  0
   51.8410   13.7219   10.6625 O   0  0  0  0  0  0  0  0  0  0  0  0
   50.7281   11.6638   10.1715 C   0  0  0  0  0  0  0  0  0  0  0  0
   50.0943   11.6522   11.3579 C   0  0  0  0  0  0  0  0  0  0  0  0
   48.9938   10.7257   11.6770 C   0  0  0  0  0  0  0  0  0  0  0  0
   47.6958   11.2452   11.8342 C   0  0  0  0  0  0  0  0  0  0  0  0
   46.6354   10.4381   12.1013 N   0  0  0  0  0  0  0  0  0  0  0  0
   46.8220    9.1215   12.2504 C   0  0  0  0  0  0  0  0  0  0  0  0
   45.7067    8.3401   12.5258 C   0  0  0  0  0  0  0  0  0  0  0  0
   45.7933    6.9579   12.6967 C   0  0  0  0  0  0  0  0  0  0  0  0
   47.0270    6.3358   12.5955 C   0  0  0  0  0  0  0  0  0  0  0  0
   48.1617    7.0975   12.3198 C   0  0  0  0  0  0  0  0  0  0  0  0
   48.0829    8.5028   12.1327 C   0  0  0  0  0  0  0  0  0  0  0  0
   49.1983    9.3323   11.8272 C   0  0  0  0  0  0  0  0  0  0  0  0
   50.5507    8.7460   11.6801 C   0  0  0  0  0  0  0  0  0  0  0  0
   51.4866    8.8260   12.7264 C   0  0  0  0  0  0  0  0  0  0  0  0
   52.7606    8.2735   12.5866 C   0  0  0  0  0  0  0  0  0  0  0  0
   53.1047    7.6380   11.4027 C   0  0  0  0  0  0  0  0  0  0  0  0
   54.3202    7.0915   11.2789 F   0  0  0  0  0  0  0  0  0  0  0  0
   52.2038    7.5506   10.3526 C   0  0  0  0  0  0  0  0  0  0  0  0
   50.9283    8.0977   10.4917 C   0  0  0  0  0  0  0  0  0  0  0  0
   47.3994   12.7257   11.6781 C   0  0  0  0  0  0  0  0  0  0  0  0
   46.3172   13.3872   12.4969 C   0  0  0  0  0  0  0  0  0  0  0  0
   47.7625   13.6903   12.7841 C   0  0  0  0  0  0  0  0  0  0  0  0
   54.2049   12.8187    7.6528 C   0  0  0  0  0  0  0  0  0  0  0  0
   55.1280   13.9083    7.1148 C   0  0  0  0  0  0  0  0  0  0  0  0
   54.6632   14.5564    6.1362 O   0  0  0  0  0  0  0  0  0  0  0  0
   56.2385   14.0204    7.7144 O   0  0  0  0  0  0  0  0  0  0  0  0
   50.4833   10.7154   10.9472 Mg  0  0  0  0  0 15  0  0  0  0  0  0
   53.9298   14.0876    9.2690 O   0  0  0  0  0  0  0  0  0  0  0  0
   53.4730   13.1223    8.2926 C   0  0  2  0  0  0  0  0  0  0  0  0
   52.4537   12.1991    8.9813 C   0  0  0  0  0  0  0  0  0  0  0  0
   51.2358   12.9610    9.5241 C   0  0  2  0  0  0  0  0  0  0  0  0
   51.6243   13.8545   10.5692 O   0  0  0  0  0  0  0  0  0  0  0  0
   50.2127   11.9802   10.0383 C   0  0  0  0  0  0  0  0  0  0  0  0
   49.7784   11.8810   11.3039 C   0  0  0  0  0  0  0  0  0  0  0  0
   48.8928   10.7866   11.7354 C   0  0  0  0  0  0  0  0  0  0  0  0
   47.5014   10.8906   11.5918 C   0  0  0  0  0  0  0  0  0  0  0  0
   46.6789    9.8987   12.0219 N   0  0  0  0  0  0  0  0  0  0  0  0
   47.1927    8.7849   12.5613 C   0  0  0  0  0  0  0  0  0  0  0  0
   46.3084    7.7996   12.9770 C   0  0  0  0  0  0  0  0  0  0  0  0
   46.7462    6.6034   13.5500 C   0  0  0  0  0  0  0  0  0  0  0  0
   48.1029    6.3791   13.7151 C   0  0  0  0  0  0  0  0  0  0  0  0
   49.0093    7.3547   13.3090 C   0  0  0  0  0  0  0  0  0  0  0  0
   48.5729    8.5751   12.7297 C   0  0  0  0  0  0  0  0  0  0  0  0
   49.4445    9.6141   12.3117 C   0  0  0  0  0  0  0  0  0  0  0  0
   50.9101    9.4873   12.4898 C   0  0  0  0  0  0  0  0  0  0  0  0
   51.7279    9.0578   11.4287 C   0  0  0  0  0  0  0  0  0  0  0  0
   53.1114    8.9555   11.5907 C   0  0  0  0  0  0  0  0  0  0  0  0
   53.6797    9.2770   12.8162 C   0  0  0  0  0  0  0  0  0  0  0  0
   55.0086    9.1941   12.9753 F   0  0  0  0  0  0  0  0  0  0  0  0
   52.8940    9.6959   13.8834 C   0  0  0  0  0  0  0  0  0  0  0  0
   51.5115    9.8031   13.7218 C   0  0  0  0  0  0  0  0  0  0  0  0
   46.8354   12.1159   10.9914 C   0  0  0  0  0  0  0  0  0  0  0  0
   45.5179   11.9877   10.2581 C   0  0  0  0  0  0  0  0  0  0  0  0
   46.7698   12.2709    9.4871 C   0  0  0  0  0  0  0  0  0  0  0  0
   54.6720   12.3570    7.7378 C   0  0  0  0  0  0  0  0  0  0  0  0
   54.2002   11.4531    6.6127 C   0  0  0  0  0  0  0  0  0  0  0  0
   54.2116   10.2208    6.8845 O   0  0  0  0  0  0  0  0  0  0  0  0
   53.8447   12.0498    5.5586 O   0  0  0  0  0  0  0  0  0  0  0  0
   56.2177   12.7629    9.0546 H   0  0  0  0  0  0  0  0  0  0  0  0
   54.2856   13.7907    9.6073 H   0  0  0  0  0  0  0  0  0  0  0  0
   53.4837   11.7146   10.8516 H   0  0  0  0  0  0  0  0  0  0  0  0
   53.1619   10.9436    9.3143 H   0  0  0  0  0  0  0  0  0  0  0  0
   51.6014   12.9758    8.7764 H   0  0  0  0  0  0  0  0  0  0  0  0
   51.4286   14.4595   10.1764 H   0  0  0  0  0  0  0  0  0  0  0  0
   50.4425   10.9510    9.4047 H   0  0  0  0  0  0  0  0  0  0  0  0
   50.3727   12.3522   12.1455 H   0  0  0  0  0  0  0  0  0  0  0  0
   44.7379    8.8295   12.6066 H   0  0  0  0  0  0  0  0  0  0  0  0
   44.8985    6.3814   12.9114 H   0  0  0  0  0  0  0  0  0  0  0  0
   47.1123    5.2610   12.7251 H   0  0  0  0  0  0  0  0  0  0  0  0
   49.1196    6.5849   12.2473 H   0  0  0  0  0  0  0  0  0  0  0  0
   51.2245    9.3312   13.6547 H   0  0  0  0  0  0  0  0  0  0  0  0
   53.4850    8.3432   13.3893 H   0  0  0  0  0  0  0  0  0  0  0  0
   52.4987    7.0589    9.4336 H   0  0  0  0  0  0  0  0  0  0  0  0
   50.2245    8.0235    9.6647 H   0  0  0  0  0  0  0  0  0  0  0  0
   47.5111   13.1006   10.6619 H   0  0  0  0  0  0  0  0  0  0  0  0
   45.7798   12.7904   13.2232 H   0  0  0  0  0  0  0  0  0  0  0  0
   45.7252   14.1571   12.0168 H   0  0  0  0  0  0  0  0  0  0  0  0
   48.1852   13.2984   13.7056 H   0  0  0  0  0  0  0  0  0  0  0  0
   48.1515   14.6626   12.4987 H   0  0  0  0  0  0  0  0  0  0  0  0
   53.1871   13.0279    7.3127 H   0  0  0  0  0  0  0  0  0  0  0  0
   54.5216   11.8635    7.2151 H   0  0  0  0  0  0  0  0  0  0  0  0
   54.8790   13.9080    9.4065 H   0  0  0  0  0  0  0  0  0  0  0  0
   52.9762   13.6898    7.4930 H   0  0  0  0  0  0  0  0  0  0  0  0
   52.9541   11.6977    9.8226 H   0  0  0  0  0  0  0  0  0  0  0  0
   52.1156   11.4272    8.2790 H   0  0  0  0  0  0  0  0  0  0  0  0
   50.7815   13.5584    8.7293 H   0  0  0  0  0  0  0  0  0  0  0  0
   52.4928   14.2109   10.2828 H   0  0  0  0  0  0  0  0  0  0  0  0
   49.8497   11.2766    9.2932 H   0  0  0  0  0  0  0  0  0  0  0  0
   50.1435   12.5493   12.0781 H   0  0  0  0  0  0  0  0  0  0  0  0
   45.2424    7.9721   12.8496 H   0  0  0  0  0  0  0  0  0  0  0  0
   46.0223    5.8588   13.8665 H   0  0  0  0  0  0  0  0  0  0  0  0
   48.4609    5.4468   14.1448 H   0  0  0  0  0  0  0  0  0  0  0  0
   50.0701    7.1583   13.4456 H   0  0  0  0  0  0  0  0  0  0  0  0
   51.2922    8.8347   10.4540 H   0  0  0  0  0  0  0  0  0  0  0  0
   53.7430    8.6567   10.7566 H   0  0  0  0  0  0  0  0  0  0  0  0
   53.3609    9.9491   14.8285 H   0  0  0  0  0  0  0  0  0  0  0  0
   50.8989   10.1429   14.5551 H   0  0  0  0  0  0  0  0  0  0  0  0
   46.9775   13.0308   11.5628 H   0  0  0  0  0  0  0  0  0  0  0  0
   44.7982   12.7866   10.3865 H   0  0  0  0  0  0  0  0  0  0  0  0
   45.0765   11.0053   10.1530 H   0  0  0  0  0  0  0  0  0  0  0  0
   46.9229   13.2652    9.0865 H   0  0  0  0  0  0  0  0  0  0  0  0
   47.1769   11.4808    8.8651 H   0  0  0  0  0  0  0  0  0  0  0  0
   55.1776   11.7850    8.5253 H   0  0  0  0  0  0  0  0  0  0  0  0
   55.4172   13.0579    7.3450 H   0  0  0  0  0  0  0  0  0  0  0  0
  2  1  1  0
  2  3  1  0
  3  4  1  0
  4  5  1  0
  4  6  1  0
  6  7  2  0
  7  8  1  0
  8  9  2  0
  9 10  1  0
 10 11  2  0
 11 12  1  0
 12 13  2  0
 13 14  1  0
 14 15  2  0
 15 16  1  0
 11 16  1  0
 16 17  2  0
  8 17  1  0
 17 18  1  0
 18 19  2  0
 19 20  1  0
 20 21  2  0
 21 22  1  0
 21 23  1  0
 23 24  2  0
 18 24  1  0
  9 25  1  0
 25 26  1  0
 26 27  1  0
 25 27  1  0
  2 28  1  0
 28 29  1  0
 29 30  2  0
 29 31  1  0
 34 33  1  0
 34 35  1  0
 35 36  1  0
 36 37  1  0
 36 38  1  0
 38 39  2  0
 39 40  1  0
 40 41  2  0
 41 42  1  0
 42 43  2  0
 43 44  1  0
 44 45  2  0
 45 46  1  0
 46 47  2  0
 47 48  1  0
 43 48  1  0
 48 49  2  0
 40 49  1  0
 49 50  1  0
 50 51  2  0
 51 52  1  0
 52 53  2  0
 53 54  1  0
 53 55  1  0
 55 56  2  0
 50 56  1  0
 41 57  1  0
 57 58  1  0
 58 59  1  0
 57 59  1  0
 34 60  1  0
 60 61  1  0
 61 62  2  0
 61 63  1  0
  1 64  1  0
  2 65  1  6
  3 66  1  0
  3 67  1  0
  4 68  1  1
  5 69  1  0
  6 70  1  0
  7 71  1  0
 12 72  1  0
 13 73  1  0
 14 74  1  0
 15 75  1  0
 19 76  1  0
 20 77  1  0
 23 78  1  0
 24 79  1  0
 25 80  1  0
 26 81  1  0
 26 82  1  0
 27 83  1  0
 27 84  1  0
 28 85  1  0
 28 86  1  0
 33 87  1  0
 34 88  1  1
 35 89  1  0
 35 90  1  0
 36 91  1  1
 37 92  1  0
 38 93  1  0
 39 94  1  0
 44 95  1  0
 45 96  1  0
 46 97  1  0
 47 98  1  0
 51 99  1  0
 52100  1  0
 55101  1  0
 56102  1  0
 57103  1  0
 58104  1  0
 58105  1  0
 59106  1  0
 59107  1  0
 60108  1  0
 60109  1  0
M  CHG  3  31  -1  32   2  63  -1
M  END
> <Uni-Dock RESULT> 
ENERGY=   -5.981  LOWER_BOUND=    7.156  UPPER_BOUND=   10.585
INTER + INTRA:          -5.981
INTER:                  -5.981
INTRA:                   0.000
UNBOUND:                 0.000

$$$$

     RDKit          3D

109114  0  0  0  0  0  0  0  0999 V2000
   56.9299   10.3929    8.0842 O   0  0  0  0  0  0  0  0  0  0  0  0
   55.7804   11.1774    7.7233 C   0  0  2  0  0  0  0  0  0  0  0  0
   54.6063   10.6874    8.5842 C   0  0  0  0  0  0  0  0  0  0  0  0
   53.4092   11.6395    8.5379 C   0  0  2  0  0  0  0  0  0  0  0  0
   53.7449   12.8505    9.2085 O   0  0  0  0  0  0  0  0  0  0  0  0
   52.1919   11.0333    9.1763 C   0  0  0  0  0  0  0  0  0  0  0  0
   51.7078   11.3446   10.3922 C   0  0  0  0  0  0  0  0  0  0  0  0
   50.4870   10.7410   10.9546 C   0  0  0  0  0  0  0  0  0  0  0  0
   49.3466   11.5486   11.1190 C   0  0  0  0  0  0  0  0  0  0  0  0
   48.1828   11.0432   11.6062 N   0  0  0  0  0  0  0  0  0  0  0  0
   48.1162    9.7572   11.9698 C   0  0  0  0  0  0  0  0  0  0  0  0
   46.9052    9.2898   12.4650 C   0  0  0  0  0  0  0  0  0  0  0  0
   46.7305    7.9658   12.8693 C   0  0  0  0  0  0  0  0  0  0  0  0
   47.7940    7.0821   12.7830 C   0  0  0  0  0  0  0  0  0  0  0  0
   49.0199    7.5262   12.2895 C   0  0  0  0  0  0  0  0  0  0  0  0
   49.2049    8.8683   11.8646 C   0  0  0  0  0  0  0  0  0  0  0  0
   50.4224    9.3772   11.3313 C   0  0  0  0  0  0  0  0  0  0  0  0
   51.6033    8.4951   11.1844 C   0  0  0  0  0  0  0  0  0  0  0  0
   52.6490    8.5312   12.1237 C   0  0  0  0  0  0  0  0  0  0  0  0
   53.7612    7.6999   11.9841 C   0  0  0  0  0  0  0  0  0  0  0  0
   53.8334    6.8285   10.9074 C   0  0  0  0  0  0  0  0  0  0  0  0
   54.8918    6.0181   10.7869 F   0  0  0  0  0  0  0  0  0  0  0  0
   52.8198    6.7770    9.9629 C   0  0  0  0  0  0  0  0  0  0  0  0
   51.7049    7.6034   10.1029 C   0  0  0  0  0  0  0  0  0  0  0  0
   49.3386   13.0153   10.7283 C   0  0  0  0  0  0  0  0  0  0  0  0
   48.5122   14.0156   11.5000 C   0  0  0  0  0  0  0  0  0  0  0  0
   50.0120   14.0378   11.6153 C   0  0  0  0  0  0  0  0  0  0  0  0
   55.5204   10.9975    6.2292 C   0  0  0  0  0  0  0  0  0  0  0  0
   56.5767   11.7628    5.4372 C   0  0  0  0  0  0  0  0  0  0  0  0
   56.1437   12.3362    4.3992 O   0  0  0  0  0  0  0  0  0  0  0  0
   57.7479   11.7224    5.9188 O   0  0  0  0  0  0  0  0  0  0  0  0
   51.8510   10.2934   10.1237 Mg  0  0  0  0  0 15  0  0  0  0  0  0
   55.6921   12.5315    7.6132 O   0  0  0  0  0  0  0  0  0  0  0  0
   54.9423   11.5489    6.8608 C   0  0  2  0  0  0  0  0  0  0  0  0
   53.8431   10.9884    7.7790 C   0  0  0  0  0  0  0  0  0  0  0  0
   52.8734   12.0720    8.2729 C   0  0  2  0  0  0  0  0  0  0  0  0
   53.5502   13.0109    9.1106 O   0  0  0  0  0  0  0  0  0  0  0  0
   51.7390   11.4296    9.0302 C   0  0  0  0  0  0  0  0  0  0  0  0
   51.4405   11.6254   10.3236 C   0  0  0  0  0  0  0  0  0  0  0  0
   50.4076   10.8308   11.0091 C   0  0  0  0  0  0  0  0  0  0  0  0
   49.0585   11.2115   10.9588 C   0  0  0  0  0  0  0  0  0  0  0  0
   48.1075   10.5016   11.6199 N   0  0  0  0  0  0  0  0  0  0  0  0
   48.4445    9.4005   12.3051 C   0  0  0  0  0  0  0  0  0  0  0  0
   47.4330    8.7083   12.9558 C   0  0  0  0  0  0  0  0  0  0  0  0
   47.6833    7.5496   13.6944 C   0  0  0  0  0  0  0  0  0  0  0  0
   48.9767    7.0638   13.7898 C   0  0  0  0  0  0  0  0  0  0  0  0
   50.0088    7.7434   13.1485 C   0  0  0  0  0  0  0  0  0  0  0  0
   49.7641    8.9242   12.3993 C   0  0  0  0  0  0  0  0  0  0  0  0
   50.7738    9.6706   11.7379 C   0  0  0  0  0  0  0  0  0  0  0  0
   52.1944    9.2571   11.8202 C   0  0  0  0  0  0  0  0  0  0  0  0
   52.7828    8.5003   10.7906 C   0  0  0  0  0  0  0  0  0  0  0  0
   54.1266    8.1258   10.8593 C   0  0  0  0  0  0  0  0  0  0  0  0
   54.8836    8.5026   11.9606 C   0  0  0  0  0  0  0  0  0  0  0  0
   56.1780    8.1581   12.0273 F   0  0  0  0  0  0  0  0  0  0  0  0
   54.3250    9.2432   12.9956 C   0  0  0  0  0  0  0  0  0  0  0  0
   52.9832    9.6222   12.9264 C   0  0  0  0  0  0  0  0  0  0  0  0
   48.5890   12.4436   10.2060 C   0  0  0  0  0  0  0  0  0  0  0  0
   47.1980   12.4928    9.6121 C   0  0  0  0  0  0  0  0  0  0  0  0
   48.3853   12.3733    8.7077 C   0  0  0  0  0  0  0  0  0  0  0  0
   55.8915   10.4643    6.3573 C   0  0  0  0  0  0  0  0  0  0  0  0
   55.1225    9.5209    5.4495 C   0  0  0  0  0  0  0  0  0  0  0  0
   54.9163    8.3733    5.9324 O   0  0  0  0  0  0  0  0  0  0  0  0
   54.7769   10.0092    4.3379 O   0  0  0  0  0  0  0  0  0  0  0  0
   57.6269   10.7238    7.4570 H   0  0  0  0  0  0  0  0  0  0  0  0
   56.0170   12.2207    7.9696 H   0  0  0  0  0  0  0  0  0  0  0  0
   54.9604   10.5883    9.6190 H   0  0  0  0  0  0  0  0  0  0  0  0
   54.3171    9.6763    8.2715 H   0  0  0  0  0  0  0  0  0  0  0  0
   53.1469   11.8904    7.5080 H   0  0  0  0  0  0  0  0  0  0  0  0
   53.4369   13.5754    8.6339 H   0  0  0  0  0  0  0  0  0  0  0  0
   51.6832   10.2893    8.5717 H   0  0  0  0  0  0  0  0  0  0  0  0
   52.2093   12.0811   11.0199 H   0  0  0  0  0  0  0  0  0  0  0  0
   46.0703    9.9848   12.5339 H   0  0  0  0  0  0  0  0  0  0  0  0
   45.7683    7.6384   13.2515 H   0  0  0  0  0  0  0  0  0  0  0  0
   47.6752    6.0480   13.0928 H   0  0  0  0  0  0  0  0  0  0  0  0
   49.8404    6.8125   12.2336 H   0  0  0  0  0  0  0  0  0  0  0  0
   52.6013    9.2196   12.9661 H   0  0  0  0  0  0  0  0  0  0  0  0
   54.5714    7.7343   12.7028 H   0  0  0  0  0  0  0  0  0  0  0  0
   52.9032    6.0960    9.1246 H   0  0  0  0  0  0  0  0  0  0  0  0
   50.9112    7.5564    9.3596 H   0  0  0  0  0  0  0  0  0  0  0  0
   49.4072   13.1941    9.6563 H   0  0  0  0  0  0  0  0  0  0  0  0
   47.9518   13.6705   12.3598 H   0  0  0  0  0  0  0  0  0  0  0  0
   48.0366   14.8116   10.9396 H   0  0  0  0  0  0  0  0  0  0  0  0
   50.4492   13.7116   12.5554 H   0  0  0  0  0  0  0  0  0  0  0  0
   50.5538   14.8456   11.1335 H   0  0  0  0  0  0  0  0  0  0  0  0
   54.5336   11.3677    5.9383 H   0  0  0  0  0  0  0  0  0  0  0  0
   55.5864    9.9401    5.9432 H   0  0  0  0  0  0  0  0  0  0  0  0
   56.5951   12.1732    7.7054 H   0  0  0  0  0  0  0  0  0  0  0  0
   54.4823   12.0795    6.0152 H   0  0  0  0  0  0  0  0  0  0  0  0
   54.3246   10.5272    8.6537 H   0  0  0  0  0  0  0  0  0  0  0  0
   53.2788   10.2089    7.2524 H   0  0  0  0  0  0  0  0  0  0  0  0
   52.4612   12.6228    7.4233 H   0  0  0  0  0  0  0  0  0  0  0  0
   54.4343   13.1207    8.6988 H   0  0  0  0  0  0  0  0  0  0  0  0
   51.1594   10.7147    8.4515 H   0  0  0  0  0  0  0  0  0  0  0  0
   52.0184   12.3103   10.9370 H   0  0  0  0  0  0  0  0  0  0  0  0
   46.4161    9.0867   12.8838 H   0  0  0  0  0  0  0  0  0  0  0  0
   46.8651    7.0388   14.1928 H   0  0  0  0  0  0  0  0  0  0  0  0
   49.1862    6.1544   14.3476 H   0  0  0  0  0  0  0  0  0  0  0  0
   51.0169    7.3446   13.2340 H   0  0  0  0  0  0  0  0  0  0  0  0
   52.2030    8.2284    9.9076 H   0  0  0  0  0  0  0  0  0  0  0  0
   54.5860    7.5707   10.0440 H   0  0  0  0  0  0  0  0  0  0  0  0
   54.9378    9.5326   13.8418 H   0  0  0  0  0  0  0  0  0  0  0  0
   52.5505   10.2126   13.7322 H   0  0  0  0  0  0  0  0  0  0  0  0
   48.9765   13.3831   10.5945 H   0  0  0  0  0  0  0  0  0  0  0  0
   46.6733   13.4392    9.6538 H   0  0  0  0  0  0  0  0  0  0  0  0
   46.5588   11.6259    9.7166 H   0  0  0  0  0  0  0  0  0  0  0  0
   48.6889   13.2357    8.1276 H   0  0  0  0  0  0  0  0  0  0  0  0
   48.5514   11.4266    8.2046 H   0  0  0  0  0  0  0  0  0  0  0  0
   56.3578    9.9256    7.1913 H   0  0  0  0  0  0  0  0  0  0  0  0
   56.7130   10.9163    5.7901 H   0  0  0  0  0  0  0  0  0  0  0  0
  2  1  1  0
  2  3  1  0
  3  4  1  0
  4  5  1  0
  4  6  1  0
  6  7  2  0
  7  8  1  0
  8  9  2  0
  9 10  1  0
 10 11  2  0
 11 12  1  0
 12 13  2  0
 13 14  1  0
 14 15  2  0
 15 16  1  0
 11 16  1  0
 16 17  2  0
  8 17  1  0
 17 18  1  0
 18 19  2  0
 19 20  1  0
 20 21  2  0
 21 22  1  0
 21 23  1  0
 23 24  2  0
 18 24  1  0
  9 25  1  0
 25 26  1  0
 26 27  1  0
 25 27  1  0
  2 28  1  0
 28 29  1  0
 29 30  2  0
 29 31  1  0
 34 33  1  0
 34 35  1  0
 35 36  1  0
 36 37  1  0
 36 38  1  0
 38 39  2  0
 39 40  1  0
 40 41  2  0
 41 42  1  0
 42 43  2  0
 43 44  1  0
 44 45  2  0
 45 46  1  0
 46 47  2  0
 47 48  1  0
 43 48  1  0
 48 49  2  0
 40 49  1  0
 49 50  1  0
 50 51  2  0
 51 52  1  0
 52 53  2  0
 53 54  1  0
 53 55  1  0
 55 56  2  0
 50 56  1  0
 41 57  1  0
 57 58  1  0
 58 59  1  0
 57 59  1  0
 34 60  1  0
 60 61  1  0
 61 62  2  0
 61 63  1  0
  1 64  1  0
  2 65  1  6
  3 66  1  0
  3 67  1  0
  4 68  1  1
  5 69  1  0
  6 70  1  0
  7 71  1  0
 12 72  1  0
 13 73  1  0
 14 74  1  0
 15 75  1  0
 19 76  1  0
 20 77  1  0
 23 78  1  0
 24 79  1  0
 25 80  1  0
 26 81  1  0
 26 82  1  0
 27 83  1  0
 27 84  1  0
 28 85  1  0
 28 86  1  0
 33 87  1  0
 34 88  1  1
 35 89  1  0
 35 90  1  0
 36 91  1  1
 37 92  1  0
 38 93  1  0
 39 94  1  0
 44 95  1  0
 45 96  1  0
 46 97  1  0
 47 98  1  0
 51 99  1  0
 52100  1  0
 55101  1  0
 56102  1  0
 57103  1  0
 58104  1  0
 58105  1  0
 59106  1  0
 59107  1  0
 60108  1  0
 60109  1  0
M  CHG  3  31  -1  32   2  63  -1
M  END
> <Uni-Dock RESULT> 
ENERGY=   -5.939  LOWER_BOUND=    7.571  UPPER_BOUND=   11.280
INTER + INTRA:          -5.939
INTER:                  -5.939
INTRA:                   0.000
UNBOUND:                 0.000

$$$$

     RDKit          3D

109114  0  0  0  0  0  0  0  0999 V2000
   49.8706   17.4169    8.7065 O   0  0  0  0  0  0  0  0  0  0  0  0
   48.5927   16.9080    8.2883 C   0  0  2  0  0  0  0  0  0  0  0  0
   48.3426   15.6086    9.0684 C   0  0  0  0  0  0  0  0  0  0  0  0
   46.8919   15.1330    8.9639 C   0  0  2  0  0  0  0  0  0  0  0  0
   46.0483   16.0362    9.6720 O   0  0  0  0  0  0  0  0  0  0  0  0
   46.7201   13.7471    9.5176 C   0  0  0  0  0  0  0  0  0  0  0  0
   46.1696   13.4412   10.7063 C   0  0  0  0  0  0  0  0  0  0  0  0
   45.9953   12.0583   11.1840 C   0  0  0  0  0  0  0  0  0  0  0  0
   44.6922   11.5385   11.2910 C   0  0  0  0  0  0  0  0  0  0  0  0
   44.4684   10.2614   11.6987 N   0  0  0  0  0  0  0  0  0  0  0  0
   45.5006    9.4805   12.0378 C   0  0  0  0  0  0  0  0  0  0  0  0
   45.2189    8.1843   12.4511 C   0  0  0  0  0  0  0  0  0  0  0  0
   46.2230    7.2898   12.8239 C   0  0  0  0  0  0  0  0  0  0  0  0
   47.5461    7.6992   12.7890 C   0  0  0  0  0  0  0  0  0  0  0  0
   47.8553    8.9950   12.3780 C   0  0  0  0  0  0  0  0  0  0  0  0
   46.8422    9.9091   11.9856 C   0  0  0  0  0  0  0  0  0  0  0  0
   47.0934   11.2357   11.5353 C   0  0  0  0  0  0  0  0  0  0  0  0
   48.4806   11.7475   11.4472 C   0  0  0  0  0  0  0  0  0  0  0  0
   49.0031   12.5846   12.4488 C   0  0  0  0  0  0  0  0  0  0  0  0
   50.3102   13.0664   12.3647 C   0  0  0  0  0  0  0  0  0  0  0  0
   51.1011   12.7136   11.2811 C   0  0  0  0  0  0  0  0  0  0  0  0
   52.3607   13.1609   11.2131 F   0  0  0  0  0  0  0  0  0  0  0  0
   50.6091   11.8953   10.2760 C   0  0  0  0  0  0  0  0  0  0  0  0
   49.3047   11.4085   10.3604 C   0  0  0  0  0  0  0  0  0  0  0  0
   43.4685   12.3577   10.9229 C   0  0  0  0  0  0  0  0  0  0  0  0
   42.1634   12.1694   11.6580 C   0  0  0  0  0  0  0  0  0  0  0  0
   42.9630   13.4268   11.8647 C   0  0  0  0  0  0  0  0  0  0  0  0
   48.6318   16.6811    6.7785 C   0  0  0  0  0  0  0  0  0  0  0  0
   48.5855   18.0288    6.0641 C   0  0  0  0  0  0  0  0  0  0  0  0
   47.8902   18.0426    5.0105 O   0  0  0  0  0  0  0  0  0  0  0  0
   49.2502   18.9559    6.6155 O   0  0  0  0  0  0  0  0  0  0  0  0
   47.1332   13.0013   10.4311 Mg  0  0  0  0  0 15  0  0  0  0  0  0
   47.4136   17.5819    8.1937 O   0  0  0  0  0  0  0  0  0  0  0  0
   47.8410   16.4628    7.3821 C   0  0  2  0  0  0  0  0  0  0  0  0
   47.6898   15.1839    8.2230 C   0  0  0  0  0  0  0  0  0  0  0  0
   46.2423   14.9380    8.6733 C   0  0  2  0  0  0  0  0  0  0  0  0
   45.8096   15.9673    9.5649 O   0  0  0  0  0  0  0  0  0  0  0  0
   46.1436   13.5945    9.3502 C   0  0  0  0  0  0  0  0  0  0  0  0
   45.7898   13.3758   10.6259 C   0  0  0  0  0  0  0  0  0  0  0  0
   45.8756   12.0379   11.2350 C   0  0  0  0  0  0  0  0  0  0  0  0
   44.8199   11.1230   11.1084 C   0  0  0  0  0  0  0  0  0  0  0  0
   44.8801    9.9013   11.6995 N   0  0  0  0  0  0  0  0  0  0  0  0
   45.9717    9.5394   12.3871 C   0  0  0  0  0  0  0  0  0  0  0  0
   45.9842    8.2776   12.9643 C   0  0  0  0  0  0  0  0  0  0  0  0
   47.0755    7.8085   13.6991 C   0  0  0  0  0  0  0  0  0  0  0  0
   48.1877    8.6169   13.8656 C   0  0  0  0  0  0  0  0  0  0  0  0
   48.1968    9.8885   13.2988 C   0  0  0  0  0  0  0  0  0  0  0  0
   47.0903   10.3748   12.5542 C   0  0  0  0  0  0  0  0  0  0  0  0
   47.0318   11.6655   11.9670 C   0  0  0  0  0  0  0  0  0  0  0  0
   48.1532   12.6203   12.1294 C   0  0  0  0  0  0  0  0  0  0  0  0
   49.1297   12.7584   11.1261 C   0  0  0  0  0  0  0  0  0  0  0  0
   50.1769   13.6712   11.2708 C   0  0  0  0  0  0  0  0  0  0  0  0
   50.2531   14.4441   12.4218 C   0  0  0  0  0  0  0  0  0  0  0  0
   51.2480   15.3322   12.5620 F   0  0  0  0  0  0  0  0  0  0  0  0
   49.3063   14.3217   13.4321 C   0  0  0  0  0  0  0  0  0  0  0  0
   48.2565   13.4130   13.2870 C   0  0  0  0  0  0  0  0  0  0  0  0
   43.5475   11.4500   10.3473 C   0  0  0  0  0  0  0  0  0  0  0  0
   42.7576   10.3509    9.6706 C   0  0  0  0  0  0  0  0  0  0  0  0
   43.5258   11.3302    8.8385 C   0  0  0  0  0  0  0  0  0  0  0  0
   49.2784   16.6915    6.9209 C   0  0  0  0  0  0  0  0  0  0  0  0
   49.6658   15.5871    5.9536 C   0  0  0  0  0  0  0  0  0  0  0  0
   50.5034   14.7583    6.4055 O   0  0  0  0  0  0  0  0  0  0  0  0
   49.0910   15.6317    4.8306 O   0  0  0  0  0  0  0  0  0  0  0  0
   49.9880   18.2171    8.1280 H   0  0  0  0  0  0  0  0  0  0  0  0
   47.8440   17.6619    8.5644 H   0  0  0  0  0  0  0  0  0  0  0  0
   48.5979   15.7885   10.1213 H   0  0  0  0  0  0  0  0  0  0  0  0
   49.0370   14.8324    8.7234 H   0  0  0  0  0  0  0  0  0  0  0  0
   46.5597   15.1124    7.9238 H   0  0  0  0  0  0  0  0  0  0  0  0
   45.2852   16.2099    9.0909 H   0  0  0  0  0  0  0  0  0  0  0  0
   47.0767   12.9511    8.8719 H   0  0  0  0  0  0  0  0  0  0  0  0
   45.8148   14.2256   11.3746 H   0  0  0  0  0  0  0  0  0  0  0  0
   44.1791    7.8636   12.4797 H   0  0  0  0  0  0  0  0  0  0  0  0
   45.9626    6.2847   13.1417 H   0  0  0  0  0  0  0  0  0  0  0  0
   48.3400    7.0157   13.0752 H   0  0  0  0  0  0  0  0  0  0  0  0
   48.9026    9.2927   12.3612 H   0  0  0  0  0  0  0  0  0  0  0  0
   48.3837   12.8715   13.2973 H   0  0  0  0  0  0  0  0  0  0  0  0
   50.7099   13.7190   13.1318 H   0  0  0  0  0  0  0  0  0  0  0  0
   51.2419   11.6419    9.4341 H   0  0  0  0  0  0  0  0  0  0  0  0
   48.9251   10.7642    9.5695 H   0  0  0  0  0  0  0  0  0  0  0  0
   43.3784   12.5764    9.8600 H   0  0  0  0  0  0  0  0  0  0  0  0
   42.1278   11.4617   12.4767 H   0  0  0  0  0  0  0  0  0  0  0  0
   41.2486   12.2412   11.0819 H   0  0  0  0  0  0  0  0  0  0  0  0
   43.4557   13.5575   12.8247 H   0  0  0  0  0  0  0  0  0  0  0  0
   42.5933   14.3498   11.4292 H   0  0  0  0  0  0  0  0  0  0  0  0
   47.7881   16.0771    6.4338 H   0  0  0  0  0  0  0  0  0  0  0  0
   49.5586   16.1745    6.4810 H   0  0  0  0  0  0  0  0  0  0  0  0
   48.2054   18.1342    8.3352 H   0  0  0  0  0  0  0  0  0  0  0  0
   47.1628   16.4193    6.5182 H   0  0  0  0  0  0  0  0  0  0  0  0
   48.3211   15.2816    9.1182 H   0  0  0  0  0  0  0  0  0  0  0  0
   48.0442   14.3174    7.6511 H   0  0  0  0  0  0  0  0  0  0  0  0
   45.5734   14.9458    7.8087 H   0  0  0  0  0  0  0  0  0  0  0  0
   46.2099   16.7899    9.2095 H   0  0  0  0  0  0  0  0  0  0  0  0
   46.4367   12.7537    8.7264 H   0  0  0  0  0  0  0  0  0  0  0  0
   45.5202   14.1966   11.2837 H   0  0  0  0  0  0  0  0  0  0  0  0
   45.1127    7.6399   12.8363 H   0  0  0  0  0  0  0  0  0  0  0  0
   47.0450    6.8164   14.1388 H   0  0  0  0  0  0  0  0  0  0  0  0
   49.0518    8.2610   14.4212 H   0  0  0  0  0  0  0  0  0  0  0  0
   49.0804   10.5067   13.4395 H   0  0  0  0  0  0  0  0  0  0  0  0
   49.0582   12.1780   10.2054 H   0  0  0  0  0  0  0  0  0  0  0  0
   50.9095   13.7993   10.4766 H   0  0  0  0  0  0  0  0  0  0  0  0
   49.3820   14.9415   14.3183 H   0  0  0  0  0  0  0  0  0  0  0  0
   47.5091   13.3271   14.0739 H   0  0  0  0  0  0  0  0  0  0  0  0
   42.9653   12.2646   10.7729 H   0  0  0  0  0  0  0  0  0  0  0  0
   41.6777   10.4283    9.6946 H   0  0  0  0  0  0  0  0  0  0  0  0
   43.1312    9.3365    9.7227 H   0  0  0  0  0  0  0  0  0  0  0  0
   42.9822   12.0901    8.2911 H   0  0  0  0  0  0  0  0  0  0  0  0
   44.4193   10.9807    8.3321 H   0  0  0  0  0  0  0  0  0  0  0  0
   49.9671   16.7365    7.7734 H   0  0  0  0  0  0  0  0  0  0  0  0
   49.3612   17.6583    6.4118 H   0  0  0  0  0  0  0  0  0  0  0  0
  2  1  1  0
  2  3  1  0
  3  4  1  0
  4  5  1  0
  4  6  1  0
  6  7  2  0
  7  8  1  0
  8  9  2  0
  9 10  1  0
 10 11  2  0
 11 12  1  0
 12 13  2  0
 13 14  1  0
 14 15  2  0
 15 16  1  0
 11 16  1  0
 16 17  2  0
  8 17  1  0
 17 18  1  0
 18 19  2  0
 19 20  1  0
 20 21  2  0
 21 22  1  0
 21 23  1  0
 23 24  2  0
 18 24  1  0
  9 25  1  0
 25 26  1  0
 26 27  1  0
 25 27  1  0
  2 28  1  0
 28 29  1  0
 29 30  2  0
 29 31  1  0
 34 33  1  0
 34 35  1  0
 35 36  1  0
 36 37  1  0
 36 38  1  0
 38 39  2  0
 39 40  1  0
 40 41  2  0
 41 42  1  0
 42 43  2  0
 43 44  1  0
 44 45  2  0
 45 46  1  0
 46 47  2  0
 47 48  1  0
 43 48  1  0
 48 49  2  0
 40 49  1  0
 49 50  1  0
 50 51  2  0
 51 52  1  0
 52 53  2  0
 53 54  1  0
 53 55  1  0
 55 56  2  0
 50 56  1  0
 41 57  1  0
 57 58  1  0
 58 59  1  0
 57 59  1  0
 34 60  1  0
 60 61  1  0
 61 62  2  0
 61 63  1  0
  1 64  1  0
  2 65  1  6
  3 66  1  0
  3 67  1  0
  4 68  1  1
  5 69  1  0
  6 70  1  0
  7 71  1  0
 12 72  1  0
 13 73  1  0
 14 74  1  0
 15 75  1  0
 19 76  1  0
 20 77  1  0
 23 78  1  0
 24 79  1  0
 25 80  1  0
 26 81  1  0
 26 82  1  0
 27 83  1  0
 27 84  1  0
 28 85  1  0
 28 86  1  0
 33 87  1  0
 34 88  1  1
 35 89  1  0
 35 90  1  0
 36 91  1  1
 37 92  1  0
 38 93  1  0
 39 94  1  0
 44 95  1  0
 45 96  1  0
 46 97  1  0
 47 98  1  0
 51 99  1  0
 52100  1  0
 55101  1  0
 56102  1  0
 57103  1  0
 58104  1  0
 58105  1  0
 59106  1  0
 59107  1  0
 60108  1  0
 60109  1  0
M  CHG  3  31  -1  32   2  63  -1
M  END
> <Uni-Dock RESULT> 
ENERGY=   -5.814  LOWER_BOUND=    9.226  UPPER_BOUND=   12.020
INTER + INTRA:          -5.814
INTER:                  -5.814
INTRA:                   0.000
UNBOUND:                 0.000

$$$$

     RDKit          3D

109114  0  0  0  0  0  0  0  0999 V2000
   49.0424   11.7969    8.9035 O   0  0  0  0  0  0  0  0  0  0  0  0
   48.7633   12.7477    9.9451 C   0  0  2  0  0  0  0  0  0  0  0  0
   48.7315   11.9739   11.2716 C   0  0  0  0  0  0  0  0  0  0  0  0
   48.7644   12.8991   12.4900 C   0  0  2  0  0  0  0  0  0  0  0  0
   50.0431   13.5211   12.5742 O   0  0  0  0  0  0  0  0  0  0  0  0
   48.4851   12.1519   13.7630 C   0  0  0  0  0  0  0  0  0  0  0  0
   49.4027   11.7971   14.6804 C   0  0  0  0  0  0  0  0  0  0  0  0
   49.0654   11.0934   15.9303 C   0  0  0  0  0  0  0  0  0  0  0  0
   49.2033   11.7789   17.1513 C   0  0  0  0  0  0  0  0  0  0  0  0
   48.8816   11.1931   18.3348 N   0  0  0  0  0  0  0  0  0  0  0  0
   48.4518    9.9262   18.3552 C   0  0  0  0  0  0  0  0  0  0  0  0
   48.1391    9.3720   19.5903 C   0  0  0  0  0  0  0  0  0  0  0  0
   47.6807    8.0605   19.7203 C   0  0  0  0  0  0  0  0  0  0  0  0
   47.5340    7.2757   18.5880 C   0  0  0  0  0  0  0  0  0  0  0  0
   47.8411    7.8082   17.3367 C   0  0  0  0  0  0  0  0  0  0  0  0
   48.2971    9.1450   17.1923 C   0  0  0  0  0  0  0  0  0  0  0  0
   48.6051    9.7540   15.9433 C   0  0  0  0  0  0  0  0  0  0  0  0
   48.4559    8.9932   14.6811 C   0  0  0  0  0  0  0  0  0  0  0  0
   49.5751    8.4253   14.0473 C   0  0  0  0  0  0  0  0  0  0  0  0
   49.4334    7.7089   12.8581 C   0  0  0  0  0  0  0  0  0  0  0  0
   48.1739    7.5554   12.2976 C   0  0  0  0  0  0  0  0  0  0  0  0
   48.0382    6.8509   11.1678 F   0  0  0  0  0  0  0  0  0  0  0  0
   47.0542    8.1105   12.8979 C   0  0  0  0  0  0  0  0  0  0  0  0
   47.1927    8.8228   14.0891 C   0  0  0  0  0  0  0  0  0  0  0  0
   49.6811   13.2182   17.2142 C   0  0  0  0  0  0  0  0  0  0  0  0
   50.5002   13.7096   18.3833 C   0  0  0  0  0  0  0  0  0  0  0  0
   51.1484   13.5363   17.0368 C   0  0  0  0  0  0  0  0  0  0  0  0
   47.4308   13.4273    9.6366 C   0  0  0  0  0  0  0  0  0  0  0  0
   47.6184   14.4046    8.4797 C   0  0  0  0  0  0  0  0  0  0  0  0
   46.9715   15.4830    8.5912 O   0  0  0  0  0  0  0  0  0  0  0  0
   48.3932   14.0093    7.5584 O   0  0  0  0  0  0  0  0  0  0  0  0
   48.6913   11.0500   14.3150 Mg  0  0  0  0  0 15  0  0  0  0  0  0
   49.3664   13.9481   10.1663 O   0  0  0  0  0  0  0  0  0  0  0  0
   47.9951   13.5973   10.4672 C   0  0  2  0  0  0  0  0  0  0  0  0
   47.9971   12.7269   11.7352 C   0  0  0  0  0  0  0  0  0  0  0  0
   48.5958   13.4505   12.9503 C   0  0  2  0  0  0  0  0  0  0  0  0
   49.9823   13.7251   12.7413 O   0  0  0  0  0  0  0  0  0  0  0  0
   48.4184   12.6016   14.1835 C   0  0  0  0  0  0  0  0  0  0  0  0
   49.4018   12.0922   14.9410 C   0  0  0  0  0  0  0  0  0  0  0  0
   49.1258   11.1459   16.0349 C   0  0  0  0  0  0  0  0  0  0  0  0
   48.7964   11.6083   17.3176 C   0  0  0  0  0  0  0  0  0  0  0  0
   48.5768   10.7390   18.3382 N   0  0  0  0  0  0  0  0  0  0  0  0
   48.6385    9.4181   18.1221 C   0  0  0  0  0  0  0  0  0  0  0  0
   48.3982    8.5744   19.1973 C   0  0  0  0  0  0  0  0  0  0  0  0
   48.4385    7.1838   19.0728 C   0  0  0  0  0  0  0  0  0  0  0  0
   48.7261    6.6140   17.8437 C   0  0  0  0  0  0  0  0  0  0  0  0
   48.9744    7.4402   16.7510 C   0  0  0  0  0  0  0  0  0  0  0  0
   48.9399    8.8545   16.8696 C   0  0  0  0  0  0  0  0  0  0  0  0
   49.2002    9.7494   15.7993 C   0  0  0  0  0  0  0  0  0  0  0  0
   49.5628    9.2361   14.4574 C   0  0  0  0  0  0  0  0  0  0  0  0
   48.5889    9.1084   13.4502 C   0  0  0  0  0  0  0  0  0  0  0  0
   48.9337    8.6417   12.1797 C   0  0  0  0  0  0  0  0  0  0  0  0
   50.2523    8.2963   11.9152 C   0  0  0  0  0  0  0  0  0  0  0  0
   50.5935    7.8602   10.6938 F   0  0  0  0  0  0  0  0  0  0  0  0
   51.2326    8.4050   12.8946 C   0  0  0  0  0  0  0  0  0  0  0  0
   50.8905    8.8756   14.1636 C   0  0  0  0  0  0  0  0  0  0  0  0
   48.7042   13.0869   17.6499 C   0  0  0  0  0  0  0  0  0  0  0  0
   47.7679   13.5692   18.7365 C   0  0  0  0  0  0  0  0  0  0  0  0
   47.4473   13.8555   17.3023 C   0  0  0  0  0  0  0  0  0  0  0  0
   47.3811   12.8797    9.2676 C   0  0  0  0  0  0  0  0  0  0  0  0
   45.9049   12.6475    9.5367 C   0  0  0  0  0  0  0  0  0  0  0  0
   45.5888   11.4439    9.7467 O   0  0  0  0  0  0  0  0  0  0  0  0
   45.1885   13.6868    9.5302 O   0  0  0  0  0  0  0  0  0  0  0  0
   48.9938   12.3526    8.0805 H   0  0  0  0  0  0  0  0  0  0  0  0
   49.5923   13.4673    9.9497 H   0  0  0  0  0  0  0  0  0  0  0  0
   49.5991   11.3010   11.2946 H   0  0  0  0  0  0  0  0  0  0  0  0
   47.8496   11.3217   11.2965 H   0  0  0  0  0  0  0  0  0  0  0  0
   48.0148   13.6884   12.4037 H   0  0  0  0  0  0  0  0  0  0  0  0
   49.8765   14.4649   12.7528 H   0  0  0  0  0  0  0  0  0  0  0  0
   47.4418   11.9000   13.9239 H   0  0  0  0  0  0  0  0  0  0  0  0
   50.4571   12.0307   14.5335 H   0  0  0  0  0  0  0  0  0  0  0  0
   48.2559    9.9885   20.4797 H   0  0  0  0  0  0  0  0  0  0  0  0
   47.4471    7.6631   20.7034 H   0  0  0  0  0  0  0  0  0  0  0  0
   47.1779    6.2532   18.6710 H   0  0  0  0  0  0  0  0  0  0  0  0
   47.7190    7.1703   16.4627 H   0  0  0  0  0  0  0  0  0  0  0  0
   50.5673    8.5501   14.4785 H   0  0  0  0  0  0  0  0  0  0  0  0
   50.2971    7.2792   12.3646 H   0  0  0  0  0  0  0  0  0  0  0  0
   46.0822    7.9865   12.4360 H   0  0  0  0  0  0  0  0  0  0  0  0
   46.3095    9.2538   14.5569 H   0  0  0  0  0  0  0  0  0  0  0  0
   48.9820   13.9414   16.7970 H   0  0  0  0  0  0  0  0  0  0  0  0
   50.7691   13.0045   19.1598 H   0  0  0  0  0  0  0  0  0  0  0  0
   50.3211   14.7198   18.7316 H   0  0  0  0  0  0  0  0  0  0  0  0
   51.8534   12.7173   16.9195 H   0  0  0  0  0  0  0  0  0  0  0  0
   51.4076   14.4259   16.4715 H   0  0  0  0  0  0  0  0  0  0  0  0
   47.0445   13.9796   10.4975 H   0  0  0  0  0  0  0  0  0  0  0  0
   46.6745   12.6914    9.3357 H   0  0  0  0  0  0  0  0  0  0  0  0
   49.5766   13.5204    9.3148 H   0  0  0  0  0  0  0  0  0  0  0  0
   47.4626   14.5382   10.6658 H   0  0  0  0  0  0  0  0  0  0  0  0
   48.5965   11.8265   11.5361 H   0  0  0  0  0  0  0  0  0  0  0  0
   46.9742   12.4080   11.9703 H   0  0  0  0  0  0  0  0  0  0  0  0
   48.0885   14.4064   13.1058 H   0  0  0  0  0  0  0  0  0  0  0  0
   50.0492   13.9631   11.7915 H   0  0  0  0  0  0  0  0  0  0  0  0
   47.3844   12.3663   14.4230 H   0  0  0  0  0  0  0  0  0  0  0  0
   50.4457   12.2839   14.7114 H   0  0  0  0  0  0  0  0  0  0  0  0
   48.1724    9.0179   20.1642 H   0  0  0  0  0  0  0  0  0  0  0  0
   48.2488    6.5577   19.9393 H   0  0  0  0  0  0  0  0  0  0  0  0
   48.7457    5.5333   17.7262 H   0  0  0  0  0  0  0  0  0  0  0  0
   49.1964    6.9731   15.7944 H   0  0  0  0  0  0  0  0  0  0  0  0
   47.5577    9.4083   13.6410 H   0  0  0  0  0  0  0  0  0  0  0  0
   48.1836    8.5782   11.3940 H   0  0  0  0  0  0  0  0  0  0  0  0
   52.2570    8.1368   12.6625 H   0  0  0  0  0  0  0  0  0  0  0  0
   51.6618    8.9714   14.9259 H   0  0  0  0  0  0  0  0  0  0  0  0
   49.6419   13.6297   17.5511 H   0  0  0  0  0  0  0  0  0  0  0  0
   48.1108   14.3841   19.3620 H   0  0  0  0  0  0  0  0  0  0  0  0
   47.1535   12.8425   19.2517 H   0  0  0  0  0  0  0  0  0  0  0  0
   47.5732   14.8646   16.9302 H   0  0  0  0  0  0  0  0  0  0  0  0
   46.6206   13.3208   16.8467 H   0  0  0  0  0  0  0  0  0  0  0  0
   47.9026   11.9379    9.0581 H   0  0  0  0  0  0  0  0  0  0  0  0
   47.4881   13.4936    8.3662 H   0  0  0  0  0  0  0  0  0  0  0  0
  2  1  1  0
  2  3  1  0
  3  4  1  0
  4  5  1  0
  4  6  1  0
  6  7  2  0
  7  8  1  0
  8  9  2  0
  9 10  1  0
 10 11  2  0
 11 12  1  0
 12 13  2  0
 13 14  1  0
 14 15  2  0
 15 16  1  0
 11 16  1  0
 16 17  2  0
  8 17  1  0
 17 18  1  0
 18 19  2  0
 19 20  1  0
 20 21  2  0
 21 22  1  0
 21 23  1  0
 23 24  2  0
 18 24  1  0
  9 25  1  0
 25 26  1  0
 26 27  1  0
 25 27  1  0
  2 28  1  0
 28 29  1  0
 29 30  2  0
 29 31  1  0
 34 33  1  0
 34 35  1  0
 35 36  1  0
 36 37  1  0
 36 38  1  0
 38 39  2  0
 39 40  1  0
 40 41  2  0
 41 42  1  0
 42 43  2  0
 43 44  1  0
 44 45  2  0
 45 46  1  0
 46 47  2  0
 47 48  1  0
 43 48  1  0
 48 49  2  0
 40 49  1  0
 49 50  1  0
 50 51  2  0
 51 52  1  0
 52 53  2  0
 53 54  1  0
 53 55  1  0
 55 56  2  0
 50 56  1  0
 41 57  1  0
 57 58  1  0
 58 59  1  0
 57 59  1  0
 34 60  1  0
 60 61  1  0
 61 62  2  0
 61 63  1  0
  1 64  1  0
  2 65  1  6
  3 66  1  0
  3 67  1  0
  4 68  1  1
  5 69  1  0
  6 70  1  0
  7 71  1  0
 12 72  1  0
 13 73  1  0
 14 74  1  0
 15 75  1  0
 19 76  1  0
 20 77  1  0
 23 78  1  0
 24 79  1  0
 25 80  1  0
 26 81  1  0
 26 82  1  0
 27 83  1  0
 27 84  1  0
 28 85  1  0
 28 86  1  0
 33 87  1  0
 34 88  1  1
 35 89  1  0
 35 90  1  0
 36 91  1  1
 37 92  1  0
 38 93  1  0
 39 94  1  0
 44 95  1  0
 45 96  1  0
 46 97  1  0
 47 98  1  0
 51 99  1  0
 52100  1  0
 55101  1  0
 56102  1  0
 57103  1  0
 58104  1  0
 58105  1  0
 59106  1  0
 59107  1  0
 60108  1  0
 60109  1  0
M  CHG  3  31  -1  32   2  63  -1
M  END
> <Uni-Dock RESULT> 
ENERGY=   -5.714  LOWER_BOUND=    5.467  UPPER_BOUND=    8.239
INTER + INTRA:          -5.714
INTER:                  -5.714
INTRA:                   0.000
UNBOUND:                 0.000

$$$$

     RDKit          3D

109114  0  0  0  0  0  0  0  0999 V2000
   52.3516   11.6452   14.2446 O   0  0  0  0  0  0  0  0  0  0  0  0
   52.3757   10.2097   14.1692 C   0  0  2  0  0  0  0  0  0  0  0  0
   51.6294    9.6764   15.4013 C   0  0  0  0  0  0  0  0  0  0  0  0
   51.3002    8.1864   15.2869 C   0  0  2  0  0  0  0  0  0  0  0  0
   50.3147    7.9985   14.2758 O   0  0  0  0  0  0  0  0  0  0  0  0
   50.7978    7.6266   16.5873 C   0  0  0  0  0  0  0  0  0  0  0  0
   49.5153    7.3380   16.8725 C   0  0  0  0  0  0  0  0  0  0  0  0
   49.0840    6.7570   18.1561 C   0  0  0  0  0  0  0  0  0  0  0  0
   48.6030    5.4349   18.1729 C   0  0  0  0  0  0  0  0  0  0  0  0
   48.2168    4.8344   19.3294 N   0  0  0  0  0  0  0  0  0  0  0  0
   48.2617    5.5155   20.4802 C   0  0  0  0  0  0  0  0  0  0  0  0
   47.8531    4.8582   21.6340 C   0  0  0  0  0  0  0  0  0  0  0  0
   47.8637    5.4780   22.8841 C   0  0  0  0  0  0  0  0  0  0  0  0
   48.2888    6.7925   22.9882 C   0  0  0  0  0  0  0  0  0  0  0  0
   48.7039    7.4744   21.8452 C   0  0  0  0  0  0  0  0  0  0  0  0
   48.7080    6.8494   20.5704 C   0  0  0  0  0  0  0  0  0  0  0  0
   49.1404    7.4823   19.3712 C   0  0  0  0  0  0  0  0  0  0  0  0
   49.6305    8.8800   19.3958 C   0  0  0  0  0  0  0  0  0  0  0  0
   48.7984    9.9407   18.9963 C   0  0  0  0  0  0  0  0  0  0  0  0
   49.2612   11.2571   19.0197 C   0  0  0  0  0  0  0  0  0  0  0  0
   50.5557   11.5200   19.4430 C   0  0  0  0  0  0  0  0  0  0  0  0
   50.9902   12.7852   19.4833 F   0  0  0  0  0  0  0  0  0  0  0  0
   51.3996   10.4926   19.8359 C   0  0  0  0  0  0  0  0  0  0  0  0
   50.9377    9.1766   19.8181 C   0  0  0  0  0  0  0  0  0  0  0  0
   48.5233    4.5936   16.9120 C   0  0  0  0  0  0  0  0  0  0  0  0
   47.4278    3.5701   16.7344 C   0  0  0  0  0  0  0  0  0  0  0  0
   47.4130    4.8308   15.9136 C   0  0  0  0  0  0  0  0  0  0  0  0
   53.8318    9.7508   14.1279 C   0  0  0  0  0  0  0  0  0  0  0  0
   54.4203   10.0613   12.7546 C   0  0  0  0  0  0  0  0  0  0  0  0
   55.2004    9.1771   12.3039 O   0  0  0  0  0  0  0  0  0  0  0  0
   54.0546   11.1629   12.2464 O   0  0  0  0  0  0  0  0  0  0  0  0
   50.1024    7.9323   17.5794 Mg  0  0  0  0  0 15  0  0  0  0  0  0
   52.0587    9.4219   13.1050 O   0  0  0  0  0  0  0  0  0  0  0  0
   53.0238    9.1309   14.1432 C   0  0  2  0  0  0  0  0  0  0  0  0
   52.2498    8.7087   15.4034 C   0  0  0  0  0  0  0  0  0  0  0  0
   51.3828    7.4615   15.1767 C   0  0  2  0  0  0  0  0  0  0  0  0
   50.3453    7.7331   14.2327 O   0  0  0  0  0  0  0  0  0  0  0  0
   50.7843    7.0157   16.4867 C   0  0  0  0  0  0  0  0  0  0  0  0
   49.4761    6.9574   16.7793 C   0  0  0  0  0  0  0  0  0  0  0  0
   48.9993    6.6574   18.1398 C   0  0  0  0  0  0  0  0  0  0  0  0
   48.8390    5.3313   18.5677 C   0  0  0  0  0  0  0  0  0  0  0  0
   48.3648    5.0507   19.8094 N   0  0  0  0  0  0  0  0  0  0  0  0
   48.0750    6.0450   20.6596 C   0  0  0  0  0  0  0  0  0  0  0  0
   47.6013    5.7029   21.9182 C   0  0  0  0  0  0  0  0  0  0  0  0
   47.2726    6.6664   22.8745 C   0  0  0  0  0  0  0  0  0  0  0  0
   47.4186    8.0099   22.5716 C   0  0  0  0  0  0  0  0  0  0  0  0
   47.8887    8.3777   21.3138 C   0  0  0  0  0  0  0  0  0  0  0  0
   48.2210    7.4052   20.3345 C   0  0  0  0  0  0  0  0  0  0  0  0
   48.6882    7.7159   19.0309 C   0  0  0  0  0  0  0  0  0  0  0  0
   48.8330    9.1253   18.5969 C   0  0  0  0  0  0  0  0  0  0  0  0
   50.0825    9.7692   18.6534 C   0  0  0  0  0  0  0  0  0  0  0  0
   50.2231   11.0920   18.2275 C   0  0  0  0  0  0  0  0  0  0  0  0
   49.1131   11.7756   17.7493 C   0  0  0  0  0  0  0  0  0  0  0  0
   49.2430   13.0414   17.3260 F   0  0  0  0  0  0  0  0  0  0  0  0
   47.8655   11.1658   17.6906 C   0  0  0  0  0  0  0  0  0  0  0  0
   47.7242    9.8423   18.1117 C   0  0  0  0  0  0  0  0  0  0  0  0
   49.1438    4.1451   17.6704 C   0  0  0  0  0  0  0  0  0  0  0  0
   49.5985    2.8313   18.2681 C   0  0  0  0  0  0  0  0  0  0  0  0
   50.5741    3.6762   17.5091 C   0  0  0  0  0  0  0  0  0  0  0  0
   53.8988   10.3595   14.3799 C   0  0  0  0  0  0  0  0  0  0  0  0
   54.9981    9.9978   15.3628 C   0  0  0  0  0  0  0  0  0  0  0  0
   54.8779   10.5192   16.5058 O   0  0  0  0  0  0  0  0  0  0  0  0
   55.8802    9.2131   14.9161 O   0  0  0  0  0  0  0  0  0  0  0  0
   52.8926   11.9153   13.4553 H   0  0  0  0  0  0  0  0  0  0  0  0
   51.8378    9.9299   13.2540 H   0  0  0  0  0  0  0  0  0  0  0  0
   50.7014   10.2527   15.5137 H   0  0  0  0  0  0  0  0  0  0  0  0
   52.2169    9.8812   16.3050 H   0  0  0  0  0  0  0  0  0  0  0  0
   52.1833    7.6101   15.0029 H   0  0  0  0  0  0  0  0  0  0  0  0
   50.6169    7.2448   13.7364 H   0  0  0  0  0  0  0  0  0  0  0  0
   51.5656    7.4476   17.3331 H   0  0  0  0  0  0  0  0  0  0  0  0
   48.7272    7.5200   16.1419 H   0  0  0  0  0  0  0  0  0  0  0  0
   47.5180    3.8259   21.5515 H   0  0  0  0  0  0  0  0  0  0  0  0
   47.5363    4.9309   23.7630 H   0  0  0  0  0  0  0  0  0  0  0  0
   48.3040    7.2899   23.9534 H   0  0  0  0  0  0  0  0  0  0  0  0
   49.0315    8.5072   21.9535 H   0  0  0  0  0  0  0  0  0  0  0  0
   47.7841    9.7391   18.6551 H   0  0  0  0  0  0  0  0  0  0  0  0
   48.6232   12.0737   18.7030 H   0  0  0  0  0  0  0  0  0  0  0  0
   52.4100   10.7211   20.1525 H   0  0  0  0  0  0  0  0  0  0  0  0
   51.6041    8.3746   20.1303 H   0  0  0  0  0  0  0  0  0  0  0  0
   49.4907    4.3195   16.4939 H   0  0  0  0  0  0  0  0  0  0  0  0
   46.6796    3.4727   17.5109 H   0  0  0  0  0  0  0  0  0  0  0  0
   47.6834    2.6440   16.2335 H   0  0  0  0  0  0  0  0  0  0  0  0
   46.6502    5.5706   16.1417 H   0  0  0  0  0  0  0  0  0  0  0  0
   47.6592    4.7616   14.8587 H   0  0  0  0  0  0  0  0  0  0  0  0
   53.9275    8.6772   14.3112 H   0  0  0  0  0  0  0  0  0  0  0  0
   54.4322   10.2802   14.8785 H   0  0  0  0  0  0  0  0  0  0  0  0
   52.1422   10.3753   12.9146 H   0  0  0  0  0  0  0  0  0  0  0  0
   53.6327    8.2892   13.7842 H   0  0  0  0  0  0  0  0  0  0  0  0
   51.5935    9.5395   15.7011 H   0  0  0  0  0  0  0  0  0  0  0  0
   52.9508    8.5190   16.2256 H   0  0  0  0  0  0  0  0  0  0  0  0
   51.9925    6.6483   14.7741 H   0  0  0  0  0  0  0  0  0  0  0  0
   50.7622    8.3196   13.5654 H   0  0  0  0  0  0  0  0  0  0  0  0
   51.5139    6.7687   17.2539 H   0  0  0  0  0  0  0  0  0  0  0  0
   48.7227    7.2260   16.0448 H   0  0  0  0  0  0  0  0  0  0  0  0
   47.4848    4.6490   22.1598 H   0  0  0  0  0  0  0  0  0  0  0  0
   46.9008    6.3583   23.8469 H   0  0  0  0  0  0  0  0  0  0  0  0
   47.1823    8.7721   23.3101 H   0  0  0  0  0  0  0  0  0  0  0  0
   47.9981    9.4377   21.0966 H   0  0  0  0  0  0  0  0  0  0  0  0
   50.9650    9.2284   18.9974 H   0  0  0  0  0  0  0  0  0  0  0  0
   51.1985   11.5740   18.2402 H   0  0  0  0  0  0  0  0  0  0  0  0
   47.0148   11.7170   17.3061 H   0  0  0  0  0  0  0  0  0  0  0  0
   46.7487    9.3624   18.0537 H   0  0  0  0  0  0  0  0  0  0  0  0
   48.5130    4.0753   16.7867 H   0  0  0  0  0  0  0  0  0  0  0  0
   49.2330    1.9225   17.8063 H   0  0  0  0  0  0  0  0  0  0  0  0
   49.7220    2.7651   19.3412 H   0  0  0  0  0  0  0  0  0  0  0  0
   50.8807    3.3593   16.5201 H   0  0  0  0  0  0  0  0  0  0  0  0
   51.3534    4.1839   18.0675 H   0  0  0  0  0  0  0  0  0  0  0  0
   53.3040   11.2080   14.7394 H   0  0  0  0  0  0  0  0  0  0  0  0
   54.3541   10.6848   13.4378 H   0  0  0  0  0  0  0  0  0  0  0  0
  2  1  1  0
  2  3  1  0
  3  4  1  0
  4  5  1  0
  4  6  1  0
  6  7  2  0
  7  8  1  0
  8  9  2  0
  9 10  1  0
 10 11  2  0
 11 12  1  0
 12 13  2  0
 13 14  1  0
 14 15  2  0
 15 16  1  0
 11 16  1  0
 16 17  2  0
  8 17  1  0
 17 18  1  0
 18 19  2  0
 19 20  1  0
 20 21  2  0
 21 22  1  0
 21 23  1  0
 23 24  2  0
 18 24  1  0
  9 25  1  0
 25 26  1  0
 26 27  1  0
 25 27  1  0
  2 28  1  0
 28 29  1  0
 29 30  2  0
 29 31  1  0
 34 33  1  0
 34 35  1  0
 35 36  1  0
 36 37  1  0
 36 38  1  0
 38 39  2  0
 39 40  1  0
 40 41  2  0
 41 42  1  0
 42 43  2  0
 43 44  1  0
 44 45  2  0
 45 46  1  0
 46 47  2  0
 47 48  1  0
 43 48  1  0
 48 49  2  0
 40 49  1  0
 49 50  1  0
 50 51  2  0
 51 52  1  0
 52 53  2  0
 53 54  1  0
 53 55  1  0
 55 56  2  0
 50 56  1  0
 41 57  1  0
 57 58  1  0
 58 59  1  0
 57 59  1  0
 34 60  1  0
 60 61  1  0
 61 62  2  0
 61 63  1  0
  1 64  1  0
  2 65  1  6
  3 66  1  0
  3 67  1  0
  4 68  1  1
  5 69  1  0
  6 70  1  0
  7 71  1  0
 12 72  1  0
 13 73  1  0
 14 74  1  0
 15 75  1  0
 19 76  1  0
 20 77  1  0
 23 78  1  0
 24 79  1  0
 25 80  1  0
 26 81  1  0
 26 82  1  0
 27 83  1  0
 27 84  1  0
 28 85  1  0
 28 86  1  0
 33 87  1  0
 34 88  1  1
 35 89  1  0
 35 90  1  0
 36 91  1  1
 37 92  1  0
 38 93  1  0
 39 94  1  0
 44 95  1  0
 45 96  1  0
 46 97  1  0
 47 98  1  0
 51 99  1  0
 52100  1  0
 55101  1  0
 56102  1  0
 57103  1  0
 58104  1  0
 58105  1  0
 59106  1  0
 59107  1  0
 60108  1  0
 60109  1  0
M  CHG  3  31  -1  32   2  63  -1
M  END
> <Uni-Dock RESULT> 
ENERGY=   -5.713  LOWER_BOUND=    3.791  UPPER_BOUND=    6.833
INTER + INTRA:          -5.713
INTER:                  -5.713
INTRA:                   0.000
UNBOUND:                 0.000

$$$$

     RDKit          3D

109114  0  0  0  0  0  0  0  0999 V2000
   49.8280   15.7726   18.5990 O   0  0  0  0  0  0  0  0  0  0  0  0
   50.4490   14.7898   17.7532 C   0  0  2  0  0  0  0  0  0  0  0  0
   50.0587   13.4078   18.2985 C   0  0  0  0  0  0  0  0  0  0  0  0
   50.3804   12.2789   17.3169 C   0  0  2  0  0  0  0  0  0  0  0  0
   49.5156   12.3750   16.1893 O   0  0  0  0  0  0  0  0  0  0  0  0
   50.2257   10.9273   17.9542 C   0  0  0  0  0  0  0  0  0  0  0  0
   49.1991   10.0808   17.7562 C   0  0  0  0  0  0  0  0  0  0  0  0
   49.1169    8.7499   18.3831 C   0  0  0  0  0  0  0  0  0  0  0  0
   49.2372    7.6093   17.5680 C   0  0  0  0  0  0  0  0  0  0  0  0
   49.1976    6.3554   18.0910 N   0  0  0  0  0  0  0  0  0  0  0  0
   49.0101    6.1881   19.4052 C   0  0  0  0  0  0  0  0  0  0  0  0
   48.9739    4.8866   19.8899 C   0  0  0  0  0  0  0  0  0  0  0  0
   48.7860    4.6040   21.2435 C   0  0  0  0  0  0  0  0  0  0  0  0
   48.6243    5.6476   22.1402 C   0  0  0  0  0  0  0  0  0  0  0  0
   48.6566    6.9629   21.6791 C   0  0  0  0  0  0  0  0  0  0  0  0
   48.8587    7.2616   20.3059 C   0  0  0  0  0  0  0  0  0  0  0  0
   48.9244    8.5809   19.7760 C   0  0  0  0  0  0  0  0  0  0  0  0
   48.7827    9.7550   20.6680 C   0  0  0  0  0  0  0  0  0  0  0  0
   47.5631   10.4495   20.7539 C   0  0  0  0  0  0  0  0  0  0  0  0
   47.4307   11.5557   21.5944 C   0  0  0  0  0  0  0  0  0  0  0  0
   48.5146   11.9721   22.3533 C   0  0  0  0  0  0  0  0  0  0  0  0
   48.3789   13.0210   23.1735 F   0  0  0  0  0  0  0  0  0  0  0  0
   49.7305   11.3098   22.2829 C   0  0  0  0  0  0  0  0  0  0  0  0
   49.8638   10.2010   21.4472 C   0  0  0  0  0  0  0  0  0  0  0  0
   49.4549    7.7130   16.0694 C   0  0  0  0  0  0  0  0  0  0  0  0
   48.8833    6.6765   15.1324 C   0  0  0  0  0  0  0  0  0  0  0  0
   48.2991    8.0626   15.1598 C   0  0  0  0  0  0  0  0  0  0  0  0
   51.9590   15.0173   17.7734 C   0  0  0  0  0  0  0  0  0  0  0  0
   52.2928   16.2634   16.9583 C   0  0  0  0  0  0  0  0  0  0  0  0
   53.3485   16.1762   16.2716 O   0  0  0  0  0  0  0  0  0  0  0  0
   51.4733   17.2224   17.0769 O   0  0  0  0  0  0  0  0  0  0  0  0
   49.5170   10.3104   18.7779 Mg  0  0  0  0  0 15  0  0  0  0  0  0
   50.4392   14.7295   16.3931 O   0  0  0  0  0  0  0  0  0  0  0  0
   51.4880   14.2644   17.2749 C   0  0  2  0  0  0  0  0  0  0  0  0
   51.0273   12.9360   17.8982 C   0  0  0  0  0  0  0  0  0  0  0  0
   50.7542   11.8508   16.8464 C   0  0  2  0  0  0  0  0  0  0  0  0
   49.6526   12.2199   16.0149 O   0  0  0  0  0  0  0  0  0  0  0  0
   50.4650   10.5405   17.5338 C   0  0  0  0  0  0  0  0  0  0  0  0
   49.3188    9.8465   17.4633 C   0  0  0  0  0  0  0  0  0  0  0  0
   49.0811    8.6565   18.2973 C   0  0  0  0  0  0  0  0  0  0  0  0
   49.5144    7.3895   17.8797 C   0  0  0  0  0  0  0  0  0  0  0  0
   49.2650    6.2842   18.6290 N   0  0  0  0  0  0  0  0  0  0  0  0
   48.6275    6.3964   19.8023 C   0  0  0  0  0  0  0  0  0  0  0  0
   48.4052    5.2369   20.5315 C   0  0  0  0  0  0  0  0  0  0  0  0
   47.7507    5.2503   21.7653 C   0  0  0  0  0  0  0  0  0  0  0  0
   47.3035    6.4513   22.2906 C   0  0  0  0  0  0  0  0  0  0  0  0
   47.5118    7.6275   21.5754 C   0  0  0  0  0  0  0  0  0  0  0  0
   48.1722    7.6224   20.3187 C   0  0  0  0  0  0  0  0  0  0  0  0
   48.3994    8.7832   19.5345 C   0  0  0  0  0  0  0  0  0  0  0  0
   47.9168   10.1082   19.9897 C   0  0  0  0  0  0  0  0  0  0  0  0
   48.7814   10.9984   20.6524 C   0  0  0  0  0  0  0  0  0  0  0  0
   48.3318   12.2545   21.0656 C   0  0  0  0  0  0  0  0  0  0  0  0
   47.0149   12.6211   20.8220 C   0  0  0  0  0  0  0  0  0  0  0  0
   46.5797   13.8307   21.2038 F   0  0  0  0  0  0  0  0  0  0  0  0
   46.1376   11.7575   20.1767 C   0  0  0  0  0  0  0  0  0  0  0  0
   46.5866   10.5034   19.7590 C   0  0  0  0  0  0  0  0  0  0  0  0
   50.2437    7.1719   16.5659 C   0  0  0  0  0  0  0  0  0  0  0  0
   51.2375    6.0399   16.4216 C   0  0  0  0  0  0  0  0  0  0  0  0
   51.7285    7.4532   16.4783 C   0  0  0  0  0  0  0  0  0  0  0  0
   51.7768   15.3333   18.3261 C   0  0  0  0  0  0  0  0  0  0  0  0
   52.9742   14.8990   19.1526 C   0  0  0  0  0  0  0  0  0  0  0  0
   52.7037   14.5603   20.3378 O   0  0  0  0  0  0  0  0  0  0  0  0
   54.0807   14.9186   18.5451 O   0  0  0  0  0  0  0  0  0  0  0  0
   50.1651   16.6294   18.2236 H   0  0  0  0  0  0  0  0  0  0  0  0
   50.0330   14.9276   16.7467 H   0  0  0  0  0  0  0  0  0  0  0  0
   48.9813   13.4171   18.5114 H   0  0  0  0  0  0  0  0  0  0  0  0
   50.5504   13.2409   19.2650 H   0  0  0  0  0  0  0  0  0  0  0  0
   51.4084   12.3538   16.9561 H   0  0  0  0  0  0  0  0  0  0  0  0
   50.0789   12.2585   15.4022 H   0  0  0  0  0  0  0  0  0  0  0  0
   51.0341   10.6422   18.6197 H   0  0  0  0  0  0  0  0  0  0  0  0
   48.3719   10.3517   17.1003 H   0  0  0  0  0  0  0  0  0  0  0  0
   49.0996    4.0670   19.1848 H   0  0  0  0  0  0  0  0  0  0  0  0
   48.7633    3.5732   21.5838 H   0  0  0  0  0  0  0  0  0  0  0  0
   48.4776    5.4457   23.1971 H   0  0  0  0  0  0  0  0  0  0  0  0
   48.5251    7.7649   22.4038 H   0  0  0  0  0  0  0  0  0  0  0  0
   46.7116   10.1320   20.1539 H   0  0  0  0  0  0  0  0  0  0  0  0
   46.4937   12.0966   21.6537 H   0  0  0  0  0  0  0  0  0  0  0  0
   50.5660   11.6599   22.8769 H   0  0  0  0  0  0  0  0  0  0  0  0
   50.8202    9.6837   21.3984 H   0  0  0  0  0  0  0  0  0  0  0  0
   50.4257    8.1156   15.7842 H   0  0  0  0  0  0  0  0  0  0  0  0
   48.2852    5.8758   15.5490 H   0  0  0  0  0  0  0  0  0  0  0  0
   49.4786    6.3960   14.2718 H   0  0  0  0  0  0  0  0  0  0  0  0
   47.3086    8.1826   15.5908 H   0  0  0  0  0  0  0  0  0  0  0  0
   48.4982    8.7221   14.3209 H   0  0  0  0  0  0  0  0  0  0  0  0
   52.5060   14.1701   17.3509 H   0  0  0  0  0  0  0  0  0  0  0  0
   52.3185   15.1793   18.7976 H   0  0  0  0  0  0  0  0  0  0  0  0
   50.1048   15.5599   16.7815 H   0  0  0  0  0  0  0  0  0  0  0  0
   52.3753   14.0912   16.6496 H   0  0  0  0  0  0  0  0  0  0  0  0
   50.0987   13.1199   18.4579 H   0  0  0  0  0  0  0  0  0  0  0  0
   51.7836   12.5739   18.6055 H   0  0  0  0  0  0  0  0  0  0  0  0
   51.6280   11.7239   16.2018 H   0  0  0  0  0  0  0  0  0  0  0  0
   49.7505   13.1879   15.8860 H   0  0  0  0  0  0  0  0  0  0  0  0
   51.2684   10.1798   18.1713 H   0  0  0  0  0  0  0  0  0  0  0  0
   48.4864   10.1949   16.8591 H   0  0  0  0  0  0  0  0  0  0  0  0
   48.7544    4.2918   20.1223 H   0  0  0  0  0  0  0  0  0  0  0  0
   47.5921    4.3208   22.3034 H   0  0  0  0  0  0  0  0  0  0  0  0
   46.8063    6.4812   23.2570 H   0  0  0  0  0  0  0  0  0  0  0  0
   47.1548    8.5600   22.0061 H   0  0  0  0  0  0  0  0  0  0  0  0
   49.8256   10.7301   20.8183 H   0  0  0  0  0  0  0  0  0  0  0  0
   49.0139   12.9529   21.5462 H   0  0  0  0  0  0  0  0  0  0  0  0
   45.1159   12.0687   19.9905 H   0  0  0  0  0  0  0  0  0  0  0  0
   45.9013    9.8330   19.2431 H   0  0  0  0  0  0  0  0  0  0  0  0
   49.6570    7.4087   15.6809 H   0  0  0  0  0  0  0  0  0  0  0  0
   51.2649    5.5210   15.4715 H   0  0  0  0  0  0  0  0  0  0  0  0
   51.4312    5.4078   17.2783 H   0  0  0  0  0  0  0  0  0  0  0  0
   52.0898    7.9176   15.5692 H   0  0  0  0  0  0  0  0  0  0  0  0
   52.2495    7.7780   17.3727 H   0  0  0  0  0  0  0  0  0  0  0  0
   50.8995   15.5163   18.9584 H   0  0  0  0  0  0  0  0  0  0  0  0
   52.0054   16.2882   17.8395 H   0  0  0  0  0  0  0  0  0  0  0  0
  2  1  1  0
  2  3  1  0
  3  4  1  0
  4  5  1  0
  4  6  1  0
  6  7  2  0
  7  8  1  0
  8  9  2  0
  9 10  1  0
 10 11  2  0
 11 12  1  0
 12 13  2  0
 13 14  1  0
 14 15  2  0
 15 16  1  0
 11 16  1  0
 16 17  2  0
  8 17  1  0
 17 18  1  0
 18 19  2  0
 19 20  1  0
 20 21  2  0
 21 22  1  0
 21 23  1  0
 23 24  2  0
 18 24  1  0
  9 25  1  0
 25 26  1  0
 26 27  1  0
 25 27  1  0
  2 28  1  0
 28 29  1  0
 29 30  2  0
 29 31  1  0
 34 33  1  0
 34 35  1  0
 35 36  1  0
 36 37  1  0
 36 38  1  0
 38 39  2  0
 39 40  1  0
 40 41  2  0
 41 42  1  0
 42 43  2  0
 43 44  1  0
 44 45  2  0
 45 46  1  0
 46 47  2  0
 47 48  1  0
 43 48  1  0
 48 49  2  0
 40 49  1  0
 49 50  1  0
 50 51  2  0
 51 52  1  0
 52 53  2  0
 53 54  1  0
 53 55  1  0
 55 56  2  0
 50 56  1  0
 41 57  1  0
 57 58  1  0
 58 59  1  0
 57 59  1  0
 34 60  1  0
 60 61  1  0
 61 62  2  0
 61 63  1  0
  1 64  1  0
  2 65  1  6
  3 66  1  0
  3 67  1  0
  4 68  1  1
  5 69  1  0
  6 70  1  0
  7 71  1  0
 12 72  1  0
 13 73  1  0
 14 74  1  0
 15 75  1  0
 19 76  1  0
 20 77  1  0
 23 78  1  0
 24 79  1  0
 25 80  1  0
 26 81  1  0
 26 82  1  0
 27 83  1  0
 27 84  1  0
 28 85  1  0
 28 86  1  0
 33 87  1  0
 34 88  1  1
 35 89  1  0
 35 90  1  0
 36 91  1  1
 37 92  1  0
 38 93  1  0
 39 94  1  0
 44 95  1  0
 45 96  1  0
 46 97  1  0
 47 98  1  0
 51 99  1  0
 52100  1  0
 55101  1  0
 56102  1  0
 57103  1  0
 58104  1  0
 58105  1  0
 59106  1  0
 59107  1  0
 60108  1  0
 60109  1  0
M  CHG  3  31  -1  32   2  63  -1
M  END
> <Uni-Dock RESULT> 
ENERGY=   -5.555  LOWER_BOUND=    3.379  UPPER_BOUND=    5.790
INTER + INTRA:          -5.555
INTER:                  -5.555
INTRA:                   0.000
UNBOUND:                 0.000

$$$$
