
     RDKit          3D

109114  0  0  0  0  0  0  0  0999 V2000
   52.6550   10.4116   16.8432 O   0  0  0  0  0  0  0  0  0  0  0  0
   53.6688   10.3658   15.8413 C   0  0  2  0  0  0  0  0  0  0  0  0
   53.6117    9.0078   15.1312 C   0  0  0  0  0  0  0  0  0  0  0  0
   53.9176    7.7740   15.9956 C   0  0  2  0  0  0  0  0  0  0  0  0
   54.2236    6.6742   15.1216 O   0  0  0  0  0  0  0  0  0  0  0  0
   52.7921    7.2905   16.8624 C   0  0  0  0  0  0  0  0  0  0  0  0
   52.7926    7.3749   18.2053 C   0  0  0  0  0  0  0  0  0  0  0  0
   51.7567    6.7524   19.0511 C   0  0  0  0  0  0  0  0  0  0  0  0
   52.1136    5.6236   19.8168 C   0  0  0  0  0  0  0  0  0  0  0  0
   51.2184    5.0043   20.6314 N   0  0  0  0  0  0  0  0  0  0  0  0
   49.9650    5.4669   20.7131 C   0  0  0  0  0  0  0  0  0  0  0  0
   49.0894    4.7988   21.5600 C   0  0  0  0  0  0  0  0  0  0  0  0
   47.7655    5.2079   21.7326 C   0  0  0  0  0  0  0  0  0  0  0  0
   47.2985    6.3176   21.0438 C   0  0  0  0  0  0  0  0  0  0  0  0
   48.1600    6.9991   20.1841 C   0  0  0  0  0  0  0  0  0  0  0  0
   49.5080    6.5918   19.9996 C   0  0  0  0  0  0  0  0  0  0  0  0
   50.4388    7.2582   19.1498 C   0  0  0  0  0  0  0  0  0  0  0  0
   50.0195    8.4642   18.3994 C   0  0  0  0  0  0  0  0  0  0  0  0
   49.3652    8.3436   17.1591 C   0  0  0  0  0  0  0  0  0  0  0  0
   48.9326    9.4788   16.4686 C   0  0  0  0  0  0  0  0  0  0  0  0
   49.1496   10.7392   17.0134 C   0  0  0  0  0  0  0  0  0  0  0  0
   48.7157   11.8259   16.3601 F   0  0  0  0  0  0  0  0  0  0  0  0
   49.7898   10.8854   18.2368 C   0  0  0  0  0  0  0  0  0  0  0  0
   50.2301    9.7511   18.9251 C   0  0  0  0  0  0  0  0  0  0  0  0
   53.5243    5.0509   19.8004 C   0  0  0  0  0  0  0  0  0  0  0  0
   53.7563    3.5637   19.9651 C   0  0  0  0  0  0  0  0  0  0  0  0
   53.9644    4.2052   18.6245 C   0  0  0  0  0  0  0  0  0  0  0  0
   55.0269   10.6652   16.4694 C   0  0  0  0  0  0  0  0  0  0  0  0
   55.0763   12.1514   16.8277 C   0  0  0  0  0  0  0  0  0  0  0  0
   56.1369   12.7510   16.4969 O   0  0  0  0  0  0  0  0  0  0  0  0
   54.0389   12.5943   17.4082 O   0  0  0  0  0  0  0  0  0  0  0  0
   51.7735    7.8013   18.1432 Mg  0  0  0  0  0 15  0  0  0  0  0  0
   56.8793   10.1203   18.6563 O   0  0  0  0  0  0  0  0  0  0  0  0
   55.5696   10.6207   19.0074 C   0  0  2  0  0  0  0  0  0  0  0  0
   54.5862    9.4708   18.7545 C   0  0  0  0  0  0  0  0  0  0  0  0
   53.1187    9.7445   19.1147 C   0  0  2  0  0  0  0  0  0  0  0  0
   53.0280   10.1612   20.4730 O   0  0  0  0  0  0  0  0  0  0  0  0
   52.2369    8.5260   18.9844 C   0  0  0  0  0  0  0  0  0  0  0  0
   52.2234    7.7143   17.9132 C   0  0  0  0  0  0  0  0  0  0  0  0
   51.4107    6.4875   17.8297 C   0  0  0  0  0  0  0  0  0  0  0  0
   52.0757    5.2474   17.8331 C   0  0  0  0  0  0  0  0  0  0  0  0
   51.3891    4.0775   17.7411 N   0  0  0  0  0  0  0  0  0  0  0  0
   50.0568    4.0908   17.6185 C   0  0  0  0  0  0  0  0  0  0  0  0
   49.4135    2.8653   17.5069 C   0  0  0  0  0  0  0  0  0  0  0  0
   48.0283    2.7681   17.3675 C   0  0  0  0  0  0  0  0  0  0  0  0
   47.2632    3.9233   17.3439 C   0  0  0  0  0  0  0  0  0  0  0  0
   47.8890    5.1653   17.4530 C   0  0  0  0  0  0  0  0  0  0  0  0
   49.2977    5.2771   17.5965 C   0  0  0  0  0  0  0  0  0  0  0  0
   50.0004    6.5115   17.7194 C   0  0  0  0  0  0  0  0  0  0  0  0
   49.2594    7.7915   17.7365 C   0  0  0  0  0  0  0  0  0  0  0  0
   48.5739    8.2013   18.8962 C   0  0  0  0  0  0  0  0  0  0  0  0
   47.8704    9.4072   18.9221 C   0  0  0  0  0  0  0  0  0  0  0  0
   47.8559   10.2120   17.7903 C   0  0  0  0  0  0  0  0  0  0  0  0
   47.1727   11.3650   17.8147 F   0  0  0  0  0  0  0  0  0  0  0  0
   48.5284    9.8361   16.6341 C   0  0  0  0  0  0  0  0  0  0  0  0
   49.2279    8.6272   16.6069 C   0  0  0  0  0  0  0  0  0  0  0  0
   53.5904    5.1535   17.9721 C   0  0  0  0  0  0  0  0  0  0  0  0
   54.4595    5.2988   16.7403 C   0  0  0  0  0  0  0  0  0  0  0  0
   54.3546    3.9724   17.4224 C   0  0  0  0  0  0  0  0  0  0  0  0
   55.3084   11.8666   18.1651 C   0  0  0  0  0  0  0  0  0  0  0  0
   54.2800   12.8398   18.7346 C   0  0  0  0  0  0  0  0  0  0  0  0
   53.9952   13.8076   17.9750 O   0  0  0  0  0  0  0  0  0  0  0  0
   53.8223   12.5563   19.8790 O   0  0  0  0  0  0  0  0  0  0  0  0
   52.7966   11.2916   17.2782 H   0  0  0  0  0  0  0  0  0  0  0  0
   53.4184   11.1369   15.1012 H   0  0  0  0  0  0  0  0  0  0  0  0
   52.6154    8.8803   14.6864 H   0  0  0  0  0  0  0  0  0  0  0  0
   54.3130    9.0226   14.2869 H   0  0  0  0  0  0  0  0  0  0  0  0
   54.8209    7.9318   16.5938 H   0  0  0  0  0  0  0  0  0  0  0  0
   53.4981    6.6174   14.4746 H   0  0  0  0  0  0  0  0  0  0  0  0
   51.9617    6.8020   16.3559 H   0  0  0  0  0  0  0  0  0  0  0  0
   53.6149    7.8560   18.7315 H   0  0  0  0  0  0  0  0  0  0  0  0
   49.4573    3.9331   22.1062 H   0  0  0  0  0  0  0  0  0  0  0  0
   47.1107    4.6645   22.4092 H   0  0  0  0  0  0  0  0  0  0  0  0
   46.2738    6.6539   21.1719 H   0  0  0  0  0  0  0  0  0  0  0  0
   47.7693    7.8660   19.6538 H   0  0  0  0  0  0  0  0  0  0  0  0
   49.1983    7.3628   16.7193 H   0  0  0  0  0  0  0  0  0  0  0  0
   48.4371    9.3946   15.5082 H   0  0  0  0  0  0  0  0  0  0  0  0
   49.9811   11.8770   18.6342 H   0  0  0  0  0  0  0  0  0  0  0  0
   50.7595    9.8728   19.8670 H   0  0  0  0  0  0  0  0  0  0  0  0
   54.2835    5.6998   20.2364 H   0  0  0  0  0  0  0  0  0  0  0  0
   54.6302    3.2440   20.5188 H   0  0  0  0  0  0  0  0  0  0  0  0
   52.8938    2.9146   20.0848 H   0  0  0  0  0  0  0  0  0  0  0  0
   53.2418    3.9937   17.8427 H   0  0  0  0  0  0  0  0  0  0  0  0
   54.9778    4.3379   18.2627 H   0  0  0  0  0  0  0  0  0  0  0  0
   55.1728   10.0968   17.3941 H   0  0  0  0  0  0  0  0  0  0  0  0
   55.8405   10.4290   15.7751 H   0  0  0  0  0  0  0  0  0  0  0  0
   57.5008   10.8419   18.8641 H   0  0  0  0  0  0  0  0  0  0  0  0
   55.6091   10.8487   20.0775 H   0  0  0  0  0  0  0  0  0  0  0  0
   54.9432    8.6024   19.3323 H   0  0  0  0  0  0  0  0  0  0  0  0
   54.6715    9.1664   17.7039 H   0  0  0  0  0  0  0  0  0  0  0  0
   52.6922   10.5289   18.4827 H   0  0  0  0  0  0  0  0  0  0  0  0
   53.2502   11.1317   20.4454 H   0  0  0  0  0  0  0  0  0  0  0  0
   51.5892    8.3226   19.8363 H   0  0  0  0  0  0  0  0  0  0  0  0
   52.8664    7.8971   17.0509 H   0  0  0  0  0  0  0  0  0  0  0  0
   50.0173    1.9591   17.5264 H   0  0  0  0  0  0  0  0  0  0  0  0
   47.5615    1.7928   17.2772 H   0  0  0  0  0  0  0  0  0  0  0  0
   46.1845    3.8658   17.2308 H   0  0  0  0  0  0  0  0  0  0  0  0
   47.2648    6.0563   17.4217 H   0  0  0  0  0  0  0  0  0  0  0  0
   48.6074    7.5899   19.7950 H   0  0  0  0  0  0  0  0  0  0  0  0
   47.3540    9.7292   19.8211 H   0  0  0  0  0  0  0  0  0  0  0  0
   48.5208   10.4959   15.7706 H   0  0  0  0  0  0  0  0  0  0  0  0
   49.7671    8.3480   15.7039 H   0  0  0  0  0  0  0  0  0  0  0  0
   53.9873    5.5836   18.8930 H   0  0  0  0  0  0  0  0  0  0  0  0
   53.9815    5.4032   15.7748 H   0  0  0  0  0  0  0  0  0  0  0  0
   55.3799    5.8637   16.8404 H   0  0  0  0  0  0  0  0  0  0  0  0
   53.8026    3.1834   16.9253 H   0  0  0  0  0  0  0  0  0  0  0  0
   55.2034    3.6230   17.9959 H   0  0  0  0  0  0  0  0  0  0  0  0
   55.0048   11.5824   17.1488 H   0  0  0  0  0  0  0  0  0  0  0  0
   56.2417   12.4312   18.0571 H   0  0  0  0  0  0  0  0  0  0  0  0
  2  1  1  0
  2  3  1  0
  3  4  1  0
  4  5  1  0
  4  6  1  0
  6  7  2  0
  7  8  1  0
  8  9  2  0
  9 10  1  0
 10 11  2  0
 11 12  1  0
 12 13  2  0
 13 14  1  0
 14 15  2  0
 15 16  1  0
 11 16  1  0
 16 17  2  0
  8 17  1  0
 17 18  1  0
 18 19  2  0
 19 20  1  0
 20 21  2  0
 21 22  1  0
 21 23  1  0
 23 24  2  0
 18 24  1  0
  9 25  1  0
 25 26  1  0
 26 27  1  0
 25 27  1  0
  2 28  1  0
 28 29  1  0
 29 30  2  0
 29 31  1  0
 34 33  1  0
 34 35  1  0
 35 36  1  0
 36 37  1  0
 36 38  1  0
 38 39  2  0
 39 40  1  0
 40 41  2  0
 41 42  1  0
 42 43  2  0
 43 44  1  0
 44 45  2  0
 45 46  1  0
 46 47  2  0
 47 48  1  0
 43 48  1  0
 48 49  2  0
 40 49  1  0
 49 50  1  0
 50 51  2  0
 51 52  1  0
 52 53  2  0
 53 54  1  0
 53 55  1  0
 55 56  2  0
 50 56  1  0
 41 57  1  0
 57 58  1  0
 58 59  1  0
 57 59  1  0
 34 60  1  0
 60 61  1  0
 61 62  2  0
 61 63  1  0
  1 64  1  0
  2 65  1  6
  3 66  1  0
  3 67  1  0
  4 68  1  1
  5 69  1  0
  6 70  1  0
  7 71  1  0
 12 72  1  0
 13 73  1  0
 14 74  1  0
 15 75  1  0
 19 76  1  0
 20 77  1  0
 23 78  1  0
 24 79  1  0
 25 80  1  0
 26 81  1  0
 26 82  1  0
 27 83  1  0
 27 84  1  0
 28 85  1  0
 28 86  1  0
 33 87  1  0
 34 88  1  1
 35 89  1  0
 35 90  1  0
 36 91  1  6
 37 92  1  0
 38 93  1  0
 39 94  1  0
 44 95  1  0
 45 96  1  0
 46 97  1  0
 47 98  1  0
 51 99  1  0
 52100  1  0
 55101  1  0
 56102  1  0
 57103  1  0
 58104  1  0
 58105  1  0
 59106  1  0
 59107  1  0
 60108  1  0
 60109  1  0
M  CHG  3  31  -1  32   2  63  -1
M  END
> <Uni-Dock RESULT> 
ENERGY=   -5.700  LOWER_BOUND=    0.000  UPPER_BOUND=    0.000
INTER + INTRA:          -5.700
INTER:                  -5.700
INTRA:                   0.000
UNBOUND:                 0.000

$$$$

     RDKit          3D

109114  0  0  0  0  0  0  0  0999 V2000
   48.1771    8.6209   16.6813 O   0  0  0  0  0  0  0  0  0  0  0  0
   47.9243    9.5139   17.7640 C   0  0  2  0  0  0  0  0  0  0  0  0
   48.5068   10.8914   17.4250 C   0  0  0  0  0  0  0  0  0  0  0  0
   50.0335   10.9634   17.2609 C   0  0  2  0  0  0  0  0  0  0  0  0
   50.4346   12.3405   17.3605 O   0  0  0  0  0  0  0  0  0  0  0  0
   50.5702   10.4885   15.9425 C   0  0  0  0  0  0  0  0  0  0  0  0
   51.2990    9.3675   15.7914 C   0  0  0  0  0  0  0  0  0  0  0  0
   51.9544    8.9987   14.5223 C   0  0  0  0  0  0  0  0  0  0  0  0
   53.3594    9.0897   14.4488 C   0  0  0  0  0  0  0  0  0  0  0  0
   54.0362    8.7531   13.3186 N   0  0  0  0  0  0  0  0  0  0  0  0
   53.3619    8.3274   12.2435 C   0  0  0  0  0  0  0  0  0  0  0  0
   54.1001    7.9957   11.1142 C   0  0  0  0  0  0  0  0  0  0  0  0
   53.4985    7.5250    9.9453 C   0  0  0  0  0  0  0  0  0  0  0  0
   52.1201    7.3769    9.8988 C   0  0  0  0  0  0  0  0  0  0  0  0
   51.3601    7.7099   11.0200 C   0  0  0  0  0  0  0  0  0  0  0  0
   51.9605    8.1905   12.2139 C   0  0  0  0  0  0  0  0  0  0  0  0
   51.2384    8.5292   13.3956 C   0  0  0  0  0  0  0  0  0  0  0  0
   49.7658    8.3756   13.4293 C   0  0  0  0  0  0  0  0  0  0  0  0
   48.9288    9.3932   12.9346 C   0  0  0  0  0  0  0  0  0  0  0  0
   47.5406    9.2335   12.9281 C   0  0  0  0  0  0  0  0  0  0  0  0
   46.9817    8.0569   13.4137 C   0  0  0  0  0  0  0  0  0  0  0  0
   45.6514    7.8965   13.3877 F   0  0  0  0  0  0  0  0  0  0  0  0
   47.7853    7.0364   13.9042 C   0  0  0  0  0  0  0  0  0  0  0  0
   49.1738    7.1979   13.9186 C   0  0  0  0  0  0  0  0  0  0  0  0
   54.2019    9.5399   15.6345 C   0  0  0  0  0  0  0  0  0  0  0  0
   55.4838   10.3168   15.4208 C   0  0  0  0  0  0  0  0  0  0  0  0
   54.2744   11.0138   15.9717 C   0  0  0  0  0  0  0  0  0  0  0  0
   48.4770    8.9233   19.0579 C   0  0  0  0  0  0  0  0  0  0  0  0
   47.5886    7.7488   19.4710 C   0  0  0  0  0  0  0  0  0  0  0  0
   47.2615    7.7226   20.6902 O   0  0  0  0  0  0  0  0  0  0  0  0
   47.2880    6.9517   18.5310 O   0  0  0  0  0  0  0  0  0  0  0  0
   50.6373    9.0937   14.9479 Mg  0  0  0  0  0 15  0  0  0  0  0  0
   50.7304    7.6299   20.3847 O   0  0  0  0  0  0  0  0  0  0  0  0
   50.1699    6.9632   19.2315 C   0  0  2  0  0  0  0  0  0  0  0  0
   50.5884    7.7900   18.0091 C   0  0  0  0  0  0  0  0  0  0  0  0
   50.1560    7.2417   16.6414 C   0  0  2  0  0  0  0  0  0  0  0  0
   50.6174    5.9030   16.4938 O   0  0  0  0  0  0  0  0  0  0  0  0
   50.7288    8.0188   15.4807 C   0  0  0  0  0  0  0  0  0  0  0  0
   50.7017    9.3590   15.3820 C   0  0  0  0  0  0  0  0  0  0  0  0
   51.3291   10.1083   14.2786 C   0  0  0  0  0  0  0  0  0  0  0  0
   52.4603   10.8940   14.5667 C   0  0  0  0  0  0  0  0  0  0  0  0
   53.0777   11.6244   13.6002 N   0  0  0  0  0  0  0  0  0  0  0  0
   52.5963   11.6260   12.3518 C   0  0  0  0  0  0  0  0  0  0  0  0
   53.2569   12.4082   11.4137 C   0  0  0  0  0  0  0  0  0  0  0  0
   52.8325   12.4861   10.0865 C   0  0  0  0  0  0  0  0  0  0  0  0
   51.7230   11.7608    9.6822 C   0  0  0  0  0  0  0  0  0  0  0  0
   51.0435   10.9696   10.6085 C   0  0  0  0  0  0  0  0  0  0  0  0
   51.4662   10.8812   11.9617 C   0  0  0  0  0  0  0  0  0  0  0  0
   50.8235   10.0886   12.9574 C   0  0  0  0  0  0  0  0  0  0  0  0
   49.6517    9.2575   12.6053 C   0  0  0  0  0  0  0  0  0  0  0  0
   49.8230    8.0419   11.9156 C   0  0  0  0  0  0  0  0  0  0  0  0
   48.7231    7.2508   11.5776 C   0  0  0  0  0  0  0  0  0  0  0  0
   47.4477    7.6688   11.9347 C   0  0  0  0  0  0  0  0  0  0  0  0
   46.3927    6.9119   11.6016 F   0  0  0  0  0  0  0  0  0  0  0  0
   47.2492    8.8603   12.6211 C   0  0  0  0  0  0  0  0  0  0  0  0
   48.3493    9.6540   12.9546 C   0  0  0  0  0  0  0  0  0  0  0  0
   53.0665   10.9398   15.9641 C   0  0  0  0  0  0  0  0  0  0  0  0
   52.4913   11.8917   16.9922 C   0  0  0  0  0  0  0  0  0  0  0  0
   53.8569   12.1375   16.4350 C   0  0  0  0  0  0  0  0  0  0  0  0
   48.6604    6.8692   19.4387 C   0  0  0  0  0  0  0  0  0  0  0  0
   47.9584    5.7630   18.6559 C   0  0  0  0  0  0  0  0  0  0  0  0
   46.6992    5.7686   18.7526 O   0  0  0  0  0  0  0  0  0  0  0  0
   48.7088    4.9910   17.9925 O   0  0  0  0  0  0  0  0  0  0  0  0
   47.8161    7.7553   17.0038 H   0  0  0  0  0  0  0  0  0  0  0  0
   46.8345    9.6243   17.8362 H   0  0  0  0  0  0  0  0  0  0  0  0
   48.0416   11.2565   16.4993 H   0  0  0  0  0  0  0  0  0  0  0  0
   48.2079   11.6017   18.2066 H   0  0  0  0  0  0  0  0  0  0  0  0
   50.5386   10.4516   18.0865 H   0  0  0  0  0  0  0  0  0  0  0  0
   49.8783   12.8422   16.7385 H   0  0  0  0  0  0  0  0  0  0  0  0
   50.3891   11.1305   15.0824 H   0  0  0  0  0  0  0  0  0  0  0  0
   51.4949    8.7137   16.6391 H   0  0  0  0  0  0  0  0  0  0  0  0
   55.1817    8.1045   11.1528 H   0  0  0  0  0  0  0  0  0  0  0  0
   54.1089    7.2688    9.0830 H   0  0  0  0  0  0  0  0  0  0  0  0
   51.6365    7.0052    9.0001 H   0  0  0  0  0  0  0  0  0  0  0  0
   50.2802    7.5862   10.9580 H   0  0  0  0  0  0  0  0  0  0  0  0
   49.3550   10.3216   12.5606 H   0  0  0  0  0  0  0  0  0  0  0  0
   46.8889   10.0167   12.5582 H   0  0  0  0  0  0  0  0  0  0  0  0
   47.3334    6.1370   14.3100 H   0  0  0  0  0  0  0  0  0  0  0  0
   49.7967    6.4091   14.3336 H   0  0  0  0  0  0  0  0  0  0  0  0
   54.1998    8.8530   16.4806 H   0  0  0  0  0  0  0  0  0  0  0  0
   56.3120   10.1251   16.0917 H   0  0  0  0  0  0  0  0  0  0  0  0
   55.7828   10.5540   14.4040 H   0  0  0  0  0  0  0  0  0  0  0  0
   53.7555   11.7162   15.3270 H   0  0  0  0  0  0  0  0  0  0  0  0
   54.2651   11.2895   17.0203 H   0  0  0  0  0  0  0  0  0  0  0  0
   49.4924    8.5372   18.9185 H   0  0  0  0  0  0  0  0  0  0  0  0
   48.4884    9.6723   19.8572 H   0  0  0  0  0  0  0  0  0  0  0  0
   50.4979    7.0722   21.1496 H   0  0  0  0  0  0  0  0  0  0  0  0
   50.6417    5.9760   19.1929 H   0  0  0  0  0  0  0  0  0  0  0  0
   51.6874    7.8745   18.0324 H   0  0  0  0  0  0  0  0  0  0  0  0
   50.2226    8.8158   18.1426 H   0  0  0  0  0  0  0  0  0  0  0  0
   49.0672    7.2463   16.5356 H   0  0  0  0  0  0  0  0  0  0  0  0
   49.9399    5.3570   16.9785 H   0  0  0  0  0  0  0  0  0  0  0  0
   51.1897    7.4191   14.6968 H   0  0  0  0  0  0  0  0  0  0  0  0
   50.2487    9.9789   16.1570 H   0  0  0  0  0  0  0  0  0  0  0  0
   54.1288   12.9766   11.7342 H   0  0  0  0  0  0  0  0  0  0  0  0
   53.3709   13.1127    9.3831 H   0  0  0  0  0  0  0  0  0  0  0  0
   51.3764   11.8142    8.6543 H   0  0  0  0  0  0  0  0  0  0  0  0
   50.1698   10.4183   10.2660 H   0  0  0  0  0  0  0  0  0  0  0  0
   50.8216    7.6949   11.6606 H   0  0  0  0  0  0  0  0  0  0  0  0
   48.8571    6.3069   11.0584 H   0  0  0  0  0  0  0  0  0  0  0  0
   46.2428    9.1519   12.9095 H   0  0  0  0  0  0  0  0  0  0  0  0
   48.1876   10.5769   13.5079 H   0  0  0  0  0  0  0  0  0  0  0  0
   53.4059    9.9739   16.3414 H   0  0  0  0  0  0  0  0  0  0  0  0
   51.7004   12.5669   16.6920 H   0  0  0  0  0  0  0  0  0  0  0  0
   52.4025   11.5336   18.0121 H   0  0  0  0  0  0  0  0  0  0  0  0
   53.9902   12.9709   15.7553 H   0  0  0  0  0  0  0  0  0  0  0  0
   54.7115   11.9462   17.0712 H   0  0  0  0  0  0  0  0  0  0  0  0
   48.1832    7.8297   19.2031 H   0  0  0  0  0  0  0  0  0  0  0  0
   48.4529    6.6780   20.4978 H   0  0  0  0  0  0  0  0  0  0  0  0
  2  1  1  0
  2  3  1  0
  3  4  1  0
  4  5  1  0
  4  6  1  0
  6  7  2  0
  7  8  1  0
  8  9  2  0
  9 10  1  0
 10 11  2  0
 11 12  1  0
 12 13  2  0
 13 14  1  0
 14 15  2  0
 15 16  1  0
 11 16  1  0
 16 17  2  0
  8 17  1  0
 17 18  1  0
 18 19  2  0
 19 20  1  0
 20 21  2  0
 21 22  1  0
 21 23  1  0
 23 24  2  0
 18 24  1  0
  9 25  1  0
 25 26  1  0
 26 27  1  0
 25 27  1  0
  2 28  1  0
 28 29  1  0
 29 30  2  0
 29 31  1  0
 34 33  1  0
 34 35  1  0
 35 36  1  0
 36 37  1  0
 36 38  1  0
 38 39  2  0
 39 40  1  0
 40 41  2  0
 41 42  1  0
 42 43  2  0
 43 44  1  0
 44 45  2  0
 45 46  1  0
 46 47  2  0
 47 48  1  0
 43 48  1  0
 48 49  2  0
 40 49  1  0
 49 50  1  0
 50 51  2  0
 51 52  1  0
 52 53  2  0
 53 54  1  0
 53 55  1  0
 55 56  2  0
 50 56  1  0
 41 57  1  0
 57 58  1  0
 58 59  1  0
 57 59  1  0
 34 60  1  0
 60 61  1  0
 61 62  2  0
 61 63  1  0
  1 64  1  0
  2 65  1  6
  3 66  1  0
  3 67  1  0
  4 68  1  1
  5 69  1  0
  6 70  1  0
  7 71  1  0
 12 72  1  0
 13 73  1  0
 14 74  1  0
 15 75  1  0
 19 76  1  0
 20 77  1  0
 23 78  1  0
 24 79  1  0
 25 80  1  0
 26 81  1  0
 26 82  1  0
 27 83  1  0
 27 84  1  0
 28 85  1  0
 28 86  1  0
 33 87  1  0
 34 88  1  1
 35 89  1  0
 35 90  1  0
 36 91  1  6
 37 92  1  0
 38 93  1  0
 39 94  1  0
 44 95  1  0
 45 96  1  0
 46 97  1  0
 47 98  1  0
 51 99  1  0
 52100  1  0
 55101  1  0
 56102  1  0
 57103  1  0
 58104  1  0
 58105  1  0
 59106  1  0
 59107  1  0
 60108  1  0
 60109  1  0
M  CHG  3  31  -1  32   2  63  -1
M  END
> <Uni-Dock RESULT> 
ENERGY=   -5.595  LOWER_BOUND=    4.040  UPPER_BOUND=    7.637
INTER + INTRA:          -5.595
INTER:                  -5.595
INTRA:                   0.000
UNBOUND:                 0.000

$$$$

     RDKit          3D

109114  0  0  0  0  0  0  0  0999 V2000
   54.3968    5.1769   18.7248 O   0  0  0  0  0  0  0  0  0  0  0  0
   54.5058    3.7620   18.8648 C   0  0  2  0  0  0  0  0  0  0  0  0
   53.5089    3.0854   17.9160 C   0  0  0  0  0  0  0  0  0  0  0  0
   52.0199    3.3508   18.1907 C   0  0  2  0  0  0  0  0  0  0  0  0
   51.2482    2.3499   17.5053 O   0  0  0  0  0  0  0  0  0  0  0  0
   51.4908    4.6657   17.6979 C   0  0  0  0  0  0  0  0  0  0  0  0
   51.1096    5.6699   18.5084 C   0  0  0  0  0  0  0  0  0  0  0  0
   50.4428    6.8909   18.0180 C   0  0  0  0  0  0  0  0  0  0  0  0
   49.0745    7.0644   18.3108 C   0  0  0  0  0  0  0  0  0  0  0  0
   48.3948    8.1702   17.9058 N   0  0  0  0  0  0  0  0  0  0  0  0
   49.0293    9.1209   17.2092 C   0  0  0  0  0  0  0  0  0  0  0  0
   48.2899   10.2307   16.8195 C   0  0  0  0  0  0  0  0  0  0  0  0
   48.8573   11.2877   16.1048 C   0  0  0  0  0  0  0  0  0  0  0  0
   50.2024   11.2408   15.7695 C   0  0  0  0  0  0  0  0  0  0  0  0
   50.9611   10.1327   16.1464 C   0  0  0  0  0  0  0  0  0  0  0  0
   50.3950    9.0514   16.8724 C   0  0  0  0  0  0  0  0  0  0  0  0
   51.1233    7.9028   17.3000 C   0  0  0  0  0  0  0  0  0  0  0  0
   52.5692    7.7924   16.9989 C   0  0  0  0  0  0  0  0  0  0  0  0
   53.0054    7.2899   15.7586 C   0  0  0  0  0  0  0  0  0  0  0  0
   54.3681    7.2227   15.4567 C   0  0  0  0  0  0  0  0  0  0  0  0
   55.3014    7.6581   16.3904 C   0  0  0  0  0  0  0  0  0  0  0  0
   56.6070    7.6125   16.0914 F   0  0  0  0  0  0  0  0  0  0  0  0
   54.8972    8.1610   17.6199 C   0  0  0  0  0  0  0  0  0  0  0  0
   53.5347    8.2216   17.9265 C   0  0  0  0  0  0  0  0  0  0  0  0
   48.2868    6.0430   19.1197 C   0  0  0  0  0  0  0  0  0  0  0  0
   46.8176    5.8046   18.8420 C   0  0  0  0  0  0  0  0  0  0  0  0
   47.8270    4.7659   18.4494 C   0  0  0  0  0  0  0  0  0  0  0  0
   54.3107    3.3731   20.3275 C   0  0  0  0  0  0  0  0  0  0  0  0
   55.5472    3.8125   21.1132 C   0  0  0  0  0  0  0  0  0  0  0  0
   56.0123    2.9527   21.9121 O   0  0  0  0  0  0  0  0  0  0  0  0
   55.9523    4.9869   20.8561 O   0  0  0  0  0  0  0  0  0  0  0  0
   51.7156    6.3549   17.8857 Mg  0  0  0  0  0 15  0  0  0  0  0  0
   52.7123    3.6932   22.7469 O   0  0  0  0  0  0  0  0  0  0  0  0
   53.3000    4.8853   22.1795 C   0  0  2  0  0  0  0  0  0  0  0  0
   52.5133    5.1862   20.8974 C   0  0  0  0  0  0  0  0  0  0  0  0
   52.9189    6.4575   20.1376 C   0  0  2  0  0  0  0  0  0  0  0  0
   52.8555    7.5794   21.0117 O   0  0  0  0  0  0  0  0  0  0  0  0
   52.0079    6.7724   18.9756 C   0  0  0  0  0  0  0  0  0  0  0  0
   51.6292    5.8763   18.0481 C   0  0  0  0  0  0  0  0  0  0  0  0
   50.6815    6.1791   16.9606 C   0  0  0  0  0  0  0  0  0  0  0  0
   49.4132    5.5707   16.9947 C   0  0  0  0  0  0  0  0  0  0  0  0
   48.4970    5.7920   16.0148 N   0  0  0  0  0  0  0  0  0  0  0  0
   48.8024    6.5811   14.9783 C   0  0  0  0  0  0  0  0  0  0  0  0
   47.8336    6.7517   13.9984 C   0  0  0  0  0  0  0  0  0  0  0  0
   48.0530    7.5478   12.8733 C   0  0  0  0  0  0  0  0  0  0  0  0
   49.2690    8.1955   12.7236 C   0  0  0  0  0  0  0  0  0  0  0  0
   50.2571    8.0369   13.6955 C   0  0  0  0  0  0  0  0  0  0  0  0
   50.0454    7.2304   14.8453 C   0  0  0  0  0  0  0  0  0  0  0  0
   51.0073    7.0302   15.8784 C   0  0  0  0  0  0  0  0  0  0  0  0
   52.3197    7.7095   15.8153 C   0  0  0  0  0  0  0  0  0  0  0  0
   52.4300    9.0755   16.1387 C   0  0  0  0  0  0  0  0  0  0  0  0
   53.6641    9.7263   16.0811 C   0  0  0  0  0  0  0  0  0  0  0  0
   54.7945    9.0114   15.7070 C   0  0  0  0  0  0  0  0  0  0  0  0
   55.9766    9.6403   15.6441 F   0  0  0  0  0  0  0  0  0  0  0  0
   54.7167    7.6612   15.3887 C   0  0  0  0  0  0  0  0  0  0  0  0
   53.4810    7.0117   15.4415 C   0  0  0  0  0  0  0  0  0  0  0  0
   48.9935    4.6622   18.1441 C   0  0  0  0  0  0  0  0  0  0  0  0
   49.3844    3.1993   18.1151 C   0  0  0  0  0  0  0  0  0  0  0  0
   47.9498    3.5878   17.9509 C   0  0  0  0  0  0  0  0  0  0  0  0
   54.7842    4.6084   21.9546 C   0  0  0  0  0  0  0  0  0  0  0  0
   55.6796    5.8427   21.8911 C   0  0  0  0  0  0  0  0  0  0  0  0
   56.8840    5.6037   21.5957 O   0  0  0  0  0  0  0  0  0  0  0  0
   55.1139    6.9507   22.1186 O   0  0  0  0  0  0  0  0  0  0  0  0
   55.0317    5.5278   19.4012 H   0  0  0  0  0  0  0  0  0  0  0  0
   55.5158    3.4873   18.5341 H   0  0  0  0  0  0  0  0  0  0  0  0
   53.7314    3.3954   16.8859 H   0  0  0  0  0  0  0  0  0  0  0  0
   53.6788    2.0013   17.9421 H   0  0  0  0  0  0  0  0  0  0  0  0
   51.7904    3.2198   19.2531 H   0  0  0  0  0  0  0  0  0  0  0  0
   51.5538    2.3418   16.5808 H   0  0  0  0  0  0  0  0  0  0  0  0
   51.3707    4.7705   16.6212 H   0  0  0  0  0  0  0  0  0  0  0  0
   51.2176    5.5841   19.5879 H   0  0  0  0  0  0  0  0  0  0  0  0
   47.2368   10.2714   17.0888 H   0  0  0  0  0  0  0  0  0  0  0  0
   48.2493   12.1435   15.8225 H   0  0  0  0  0  0  0  0  0  0  0  0
   50.6615   12.0576   15.2203 H   0  0  0  0  0  0  0  0  0  0  0  0
   52.0142   10.1190   15.8702 H   0  0  0  0  0  0  0  0  0  0  0  0
   52.2841    6.9381   15.0242 H   0  0  0  0  0  0  0  0  0  0  0  0
   54.7122    6.8276   14.5078 H   0  0  0  0  0  0  0  0  0  0  0  0
   55.6383    8.4669   18.3513 H   0  0  0  0  0  0  0  0  0  0  0  0
   53.2250    8.5860   18.9030 H   0  0  0  0  0  0  0  0  0  0  0  0
   48.5920    5.9554   20.1621 H   0  0  0  0  0  0  0  0  0  0  0  0
   46.1692    5.5935   19.6832 H   0  0  0  0  0  0  0  0  0  0  0  0
   46.3417    6.3710   18.0468 H   0  0  0  0  0  0  0  0  0  0  0  0
   48.0357    4.6347   17.3923 H   0  0  0  0  0  0  0  0  0  0  0  0
   47.8817    3.8492   19.0258 H   0  0  0  0  0  0  0  0  0  0  0  0
   53.4438    3.8812   20.7632 H   0  0  0  0  0  0  0  0  0  0  0  0
   54.1770    2.2908   20.4309 H   0  0  0  0  0  0  0  0  0  0  0  0
   53.1884    3.5377   23.5831 H   0  0  0  0  0  0  0  0  0  0  0  0
   53.1369    5.6821   22.9123 H   0  0  0  0  0  0  0  0  0  0  0  0
   51.4490    5.2569   21.1761 H   0  0  0  0  0  0  0  0  0  0  0  0
   52.5759    4.3108   20.2387 H   0  0  0  0  0  0  0  0  0  0  0  0
   53.9375    6.3807   19.7461 H   0  0  0  0  0  0  0  0  0  0  0  0
   53.7166    7.5478   21.5113 H   0  0  0  0  0  0  0  0  0  0  0  0
   51.6517    7.8005   18.9242 H   0  0  0  0  0  0  0  0  0  0  0  0
   51.9709    4.8407   18.0825 H   0  0  0  0  0  0  0  0  0  0  0  0
   46.8787    6.2420   14.1190 H   0  0  0  0  0  0  0  0  0  0  0  0
   47.2739    7.6528   12.1254 H   0  0  0  0  0  0  0  0  0  0  0  0
   49.4581    8.8146   11.8516 H   0  0  0  0  0  0  0  0  0  0  0  0
   51.2058    8.5493   13.5476 H   0  0  0  0  0  0  0  0  0  0  0  0
   51.5537    9.6326   16.4618 H   0  0  0  0  0  0  0  0  0  0  0  0
   53.7508   10.7759   16.3441 H   0  0  0  0  0  0  0  0  0  0  0  0
   55.6206    7.1199   15.1225 H   0  0  0  0  0  0  0  0  0  0  0  0
   53.4309    5.9500   15.2083 H   0  0  0  0  0  0  0  0  0  0  0  0
   49.0000    5.1414   19.1244 H   0  0  0  0  0  0  0  0  0  0  0  0
   49.9005    2.8151   17.2447 H   0  0  0  0  0  0  0  0  0  0  0  0
   49.6966    2.7455   19.0494 H   0  0  0  0  0  0  0  0  0  0  0  0
   47.4974    3.4741   16.9729 H   0  0  0  0  0  0  0  0  0  0  0  0
   47.2721    3.4038   18.7746 H   0  0  0  0  0  0  0  0  0  0  0  0
   54.9271    4.0177   21.0401 H   0  0  0  0  0  0  0  0  0  0  0  0
   55.1649    3.9923   22.7774 H   0  0  0  0  0  0  0  0  0  0  0  0
  2  1  1  0
  2  3  1  0
  3  4  1  0
  4  5  1  0
  4  6  1  0
  6  7  2  0
  7  8  1  0
  8  9  2  0
  9 10  1  0
 10 11  2  0
 11 12  1  0
 12 13  2  0
 13 14  1  0
 14 15  2  0
 15 16  1  0
 11 16  1  0
 16 17  2  0
  8 17  1  0
 17 18  1  0
 18 19  2  0
 19 20  1  0
 20 21  2  0
 21 22  1  0
 21 23  1  0
 23 24  2  0
 18 24  1  0
  9 25  1  0
 25 26  1  0
 26 27  1  0
 25 27  1  0
  2 28  1  0
 28 29  1  0
 29 30  2  0
 29 31  1  0
 34 33  1  0
 34 35  1  0
 35 36  1  0
 36 37  1  0
 36 38  1  0
 38 39  2  0
 39 40  1  0
 40 41  2  0
 41 42  1  0
 42 43  2  0
 43 44  1  0
 44 45  2  0
 45 46  1  0
 46 47  2  0
 47 48  1  0
 43 48  1  0
 48 49  2  0
 40 49  1  0
 49 50  1  0
 50 51  2  0
 51 52  1  0
 52 53  2  0
 53 54  1  0
 53 55  1  0
 55 56  2  0
 50 56  1  0
 41 57  1  0
 57 58  1  0
 58 59  1  0
 57 59  1  0
 34 60  1  0
 60 61  1  0
 61 62  2  0
 61 63  1  0
  1 64  1  0
  2 65  1  6
  3 66  1  0
  3 67  1  0
  4 68  1  1
  5 69  1  0
  6 70  1  0
  7 71  1  0
 12 72  1  0
 13 73  1  0
 14 74  1  0
 15 75  1  0
 19 76  1  0
 20 77  1  0
 23 78  1  0
 24 79  1  0
 25 80  1  0
 26 81  1  0
 26 82  1  0
 27 83  1  0
 27 84  1  0
 28 85  1  0
 28 86  1  0
 33 87  1  0
 34 88  1  1
 35 89  1  0
 35 90  1  0
 36 91  1  6
 37 92  1  0
 38 93  1  0
 39 94  1  0
 44 95  1  0
 45 96  1  0
 46 97  1  0
 47 98  1  0
 51 99  1  0
 52100  1  0
 55101  1  0
 56102  1  0
 57103  1  0
 58104  1  0
 58105  1  0
 59106  1  0
 59107  1  0
 60108  1  0
 60109  1  0
M  CHG  3  31  -1  32   2  63  -1
M  END
> <Uni-Dock RESULT> 
ENERGY=   -5.585  LOWER_BOUND=    3.019  UPPER_BOUND=    5.961
INTER + INTRA:          -5.585
INTER:                  -5.585
INTRA:                   0.000
UNBOUND:                 0.000

$$$$

     RDKit          3D

109114  0  0  0  0  0  0  0  0999 V2000
   49.2470   12.6942   12.5468 O   0  0  0  0  0  0  0  0  0  0  0  0
   48.4872   12.0916   11.5013 C   0  0  2  0  0  0  0  0  0  0  0  0
   47.4590   11.1340   12.1158 C   0  0  0  0  0  0  0  0  0  0  0  0
   48.0251    9.9255   12.8787 C   0  0  2  0  0  0  0  0  0  0  0  0
   46.9791    8.9491   13.0192 O   0  0  0  0  0  0  0  0  0  0  0  0
   48.5006   10.2009   14.2750 C   0  0  0  0  0  0  0  0  0  0  0  0
   49.7937   10.1660   14.6455 C   0  0  0  0  0  0  0  0  0  0  0  0
   50.2318   10.2793   16.0496 C   0  0  0  0  0  0  0  0  0  0  0  0
   50.7410    9.1266   16.6821 C   0  0  0  0  0  0  0  0  0  0  0  0
   51.1782    9.1556   17.9692 N   0  0  0  0  0  0  0  0  0  0  0  0
   51.1251   10.2995   18.6624 C   0  0  0  0  0  0  0  0  0  0  0  0
   51.5843   10.2760   19.9734 C   0  0  0  0  0  0  0  0  0  0  0  0
   51.5898   11.4165   20.7791 C   0  0  0  0  0  0  0  0  0  0  0  0
   51.1266   12.6183   20.2642 C   0  0  0  0  0  0  0  0  0  0  0  0
   50.6559   12.6619   18.9520 C   0  0  0  0  0  0  0  0  0  0  0  0
   50.6445   11.5086   18.1234 C   0  0  0  0  0  0  0  0  0  0  0  0
   50.1929   11.4960   16.7712 C   0  0  0  0  0  0  0  0  0  0  0  0
   49.7054   12.7464   16.1450 C   0  0  0  0  0  0  0  0  0  0  0  0
   48.3710   13.1597   16.3171 C   0  0  0  0  0  0  0  0  0  0  0  0
   47.9196   14.3595   15.7611 C   0  0  0  0  0  0  0  0  0  0  0  0
   48.7981   15.1530   15.0322 C   0  0  0  0  0  0  0  0  0  0  0  0
   48.3693   16.3135   14.5171 F   0  0  0  0  0  0  0  0  0  0  0  0
   50.1201   14.7696   14.8504 C   0  0  0  0  0  0  0  0  0  0  0  0
   50.5712   13.5657   15.3995 C   0  0  0  0  0  0  0  0  0  0  0  0
   50.8592    7.7936   15.9560 C   0  0  0  0  0  0  0  0  0  0  0  0
   50.6838    6.4885   16.7034 C   0  0  0  0  0  0  0  0  0  0  0  0
   49.6183    6.9506   15.7530 C   0  0  0  0  0  0  0  0  0  0  0  0
   49.4264   11.4160   10.5063 C   0  0  0  0  0  0  0  0  0  0  0  0
   50.1525   12.5034    9.7125 C   0  0  0  0  0  0  0  0  0  0  0  0
   50.2010   12.3187    8.4645 O   0  0  0  0  0  0  0  0  0  0  0  0
   50.6093   13.4583   10.4116 O   0  0  0  0  0  0  0  0  0  0  0  0
   49.6414   11.1443   15.1396 Mg  0  0  0  0  0 15  0  0  0  0  0  0
   51.7253    9.6612   10.1229 O   0  0  0  0  0  0  0  0  0  0  0  0
   51.9256   10.8497   10.9204 C   0  0  2  0  0  0  0  0  0  0  0  0
   51.2001   10.6050   12.2496 C   0  0  0  0  0  0  0  0  0  0  0  0
   51.3203   11.7180   13.3006 C   0  0  2  0  0  0  0  0  0  0  0  0
   52.6942   11.9957   13.5500 O   0  0  0  0  0  0  0  0  0  0  0  0
   50.7135   11.3469   14.6323 C   0  0  0  0  0  0  0  0  0  0  0  0
   49.4906   10.8095   14.7818 C   0  0  0  0  0  0  0  0  0  0  0  0
   48.9396   10.3848   16.0813 C   0  0  0  0  0  0  0  0  0  0  0  0
   48.7598    9.0080   16.3096 C   0  0  0  0  0  0  0  0  0  0  0  0
   48.2402    8.5479   17.4788 N   0  0  0  0  0  0  0  0  0  0  0  0
   47.8640    9.4106   18.4298 C   0  0  0  0  0  0  0  0  0  0  0  0
   47.3203    8.8818   19.5929 C   0  0  0  0  0  0  0  0  0  0  0  0
   46.8897    9.6941   20.6429 C   0  0  0  0  0  0  0  0  0  0  0  0
   47.0090   11.0703   20.5327 C   0  0  0  0  0  0  0  0  0  0  0  0
   47.5512   11.6231   19.3723 C   0  0  0  0  0  0  0  0  0  0  0  0
   47.9939   10.8070   18.2975 C   0  0  0  0  0  0  0  0  0  0  0  0
   48.5624   11.3042   17.0882 C   0  0  0  0  0  0  0  0  0  0  0  0
   48.7567   12.7583   16.8998 C   0  0  0  0  0  0  0  0  0  0  0  0
   49.8232   13.4219   17.5362 C   0  0  0  0  0  0  0  0  0  0  0  0
   50.0145   14.7946   17.3657 C   0  0  0  0  0  0  0  0  0  0  0  0
   49.1441   15.5080   16.5519 C   0  0  0  0  0  0  0  0  0  0  0  0
   49.3246   16.8271   16.3967 F   0  0  0  0  0  0  0  0  0  0  0  0
   48.0870   14.8784   15.9065 C   0  0  0  0  0  0  0  0  0  0  0  0
   47.8929   13.5061   16.0813 C   0  0  0  0  0  0  0  0  0  0  0  0
   49.1671    7.9665   15.2744 C   0  0  0  0  0  0  0  0  0  0  0  0
   48.2095    7.6198   14.1534 C   0  0  0  0  0  0  0  0  0  0  0  0
   48.4981    6.6135   15.2209 C   0  0  0  0  0  0  0  0  0  0  0  0
   51.3924   12.0377   10.1238 C   0  0  0  0  0  0  0  0  0  0  0  0
   51.9752   13.3964   10.5027 C   0  0  0  0  0  0  0  0  0  0  0  0
   51.4451   14.3788    9.9123 O   0  0  0  0  0  0  0  0  0  0  0  0
   52.8963   13.3827   11.3692 O   0  0  0  0  0  0  0  0  0  0  0  0
   49.9101   13.2505   12.0624 H   0  0  0  0  0  0  0  0  0  0  0  0
   47.9325   12.8992   11.0063 H   0  0  0  0  0  0  0  0  0  0  0  0
   46.8086   11.6994   12.7969 H   0  0  0  0  0  0  0  0  0  0  0  0
   46.8021   10.7642   11.3180 H   0  0  0  0  0  0  0  0  0  0  0  0
   48.8101    9.4308   12.2976 H   0  0  0  0  0  0  0  0  0  0  0  0
   46.2086    9.4126   13.3930 H   0  0  0  0  0  0  0  0  0  0  0  0
   47.7329   10.3878   15.0237 H   0  0  0  0  0  0  0  0  0  0  0  0
   50.5765    9.9772   13.9135 H   0  0  0  0  0  0  0  0  0  0  0  0
   51.9546    9.3354   20.3751 H   0  0  0  0  0  0  0  0  0  0  0  0
   51.9630   11.3620   21.7986 H   0  0  0  0  0  0  0  0  0  0  0  0
   51.1306   13.5166   20.8747 H   0  0  0  0  0  0  0  0  0  0  0  0
   50.2964   13.6167   18.5716 H   0  0  0  0  0  0  0  0  0  0  0  0
   47.6728   12.5421   16.8779 H   0  0  0  0  0  0  0  0  0  0  0  0
   46.8909   14.6796   15.8806 H   0  0  0  0  0  0  0  0  0  0  0  0
   50.7858   15.3831   14.2519 H   0  0  0  0  0  0  0  0  0  0  0  0
   51.5986   13.2545   15.2269 H   0  0  0  0  0  0  0  0  0  0  0  0
   51.5867    7.7806   15.1447 H   0  0  0  0  0  0  0  0  0  0  0  0
   51.2998    5.6479   16.4095 H   0  0  0  0  0  0  0  0  0  0  0  0
   50.4619    6.5254   17.7660 H   0  0  0  0  0  0  0  0  0  0  0  0
   48.6814    7.3031   16.1729 H   0  0  0  0  0  0  0  0  0  0  0  0
   49.5098    6.4383   14.8037 H   0  0  0  0  0  0  0  0  0  0  0  0
   50.1867   10.8170   11.0188 H   0  0  0  0  0  0  0  0  0  0  0  0
   48.8700   10.7705    9.8181 H   0  0  0  0  0  0  0  0  0  0  0  0
   52.2279    9.8084    9.3007 H   0  0  0  0  0  0  0  0  0  0  0  0
   53.0045   10.9211   11.0924 H   0  0  0  0  0  0  0  0  0  0  0  0
   51.5974    9.6669   12.6709 H   0  0  0  0  0  0  0  0  0  0  0  0
   50.1449   10.3944   12.0349 H   0  0  0  0  0  0  0  0  0  0  0  0
   50.8365   12.6394   12.9635 H   0  0  0  0  0  0  0  0  0  0  0  0
   52.9582   12.6049   12.8076 H   0  0  0  0  0  0  0  0  0  0  0  0
   51.3405   11.5369   15.5026 H   0  0  0  0  0  0  0  0  0  0  0  0
   48.8476   10.6074   13.9238 H   0  0  0  0  0  0  0  0  0  0  0  0
   47.2283    7.7998   19.6769 H   0  0  0  0  0  0  0  0  0  0  0  0
   46.4645    9.2447   21.5343 H   0  0  0  0  0  0  0  0  0  0  0  0
   46.6741   11.7172   21.3383 H   0  0  0  0  0  0  0  0  0  0  0  0
   47.6241   12.7071   19.3088 H   0  0  0  0  0  0  0  0  0  0  0  0
   50.5258   12.8629   18.1498 H   0  0  0  0  0  0  0  0  0  0  0  0
   50.8453   15.3029   17.8454 H   0  0  0  0  0  0  0  0  0  0  0  0
   47.4352   15.4558   15.2562 H   0  0  0  0  0  0  0  0  0  0  0  0
   47.0737   13.0167   15.5583 H   0  0  0  0  0  0  0  0  0  0  0  0
   50.2266    7.9783   15.0140 H   0  0  0  0  0  0  0  0  0  0  0  0
   47.2273    8.0745   14.1479 H   0  0  0  0  0  0  0  0  0  0  0  0
   48.6296    7.4650   13.1655 H   0  0  0  0  0  0  0  0  0  0  0  0
   47.7182    6.3918   15.9398 H   0  0  0  0  0  0  0  0  0  0  0  0
   49.1205    5.7644   14.9694 H   0  0  0  0  0  0  0  0  0  0  0  0
   50.2980   12.0864   10.1992 H   0  0  0  0  0  0  0  0  0  0  0  0
   51.6180   11.8900    9.0613 H   0  0  0  0  0  0  0  0  0  0  0  0
  2  1  1  0
  2  3  1  0
  3  4  1  0
  4  5  1  0
  4  6  1  0
  6  7  2  0
  7  8  1  0
  8  9  2  0
  9 10  1  0
 10 11  2  0
 11 12  1  0
 12 13  2  0
 13 14  1  0
 14 15  2  0
 15 16  1  0
 11 16  1  0
 16 17  2  0
  8 17  1  0
 17 18  1  0
 18 19  2  0
 19 20  1  0
 20 21  2  0
 21 22  1  0
 21 23  1  0
 23 24  2  0
 18 24  1  0
  9 25  1  0
 25 26  1  0
 26 27  1  0
 25 27  1  0
  2 28  1  0
 28 29  1  0
 29 30  2  0
 29 31  1  0
 34 33  1  0
 34 35  1  0
 35 36  1  0
 36 37  1  0
 36 38  1  0
 38 39  2  0
 39 40  1  0
 40 41  2  0
 41 42  1  0
 42 43  2  0
 43 44  1  0
 44 45  2  0
 45 46  1  0
 46 47  2  0
 47 48  1  0
 43 48  1  0
 48 49  2  0
 40 49  1  0
 49 50  1  0
 50 51  2  0
 51 52  1  0
 52 53  2  0
 53 54  1  0
 53 55  1  0
 55 56  2  0
 50 56  1  0
 41 57  1  0
 57 58  1  0
 58 59  1  0
 57 59  1  0
 34 60  1  0
 60 61  1  0
 61 62  2  0
 61 63  1  0
  1 64  1  0
  2 65  1  6
  3 66  1  0
  3 67  1  0
  4 68  1  1
  5 69  1  0
  6 70  1  0
  7 71  1  0
 12 72  1  0
 13 73  1  0
 14 74  1  0
 15 75  1  0
 19 76  1  0
 20 77  1  0
 23 78  1  0
 24 79  1  0
 25 80  1  0
 26 81  1  0
 26 82  1  0
 27 83  1  0
 27 84  1  0
 28 85  1  0
 28 86  1  0
 33 87  1  0
 34 88  1  1
 35 89  1  0
 35 90  1  0
 36 91  1  6
 37 92  1  0
 38 93  1  0
 39 94  1  0
 44 95  1  0
 45 96  1  0
 46 97  1  0
 47 98  1  0
 51 99  1  0
 52100  1  0
 55101  1  0
 56102  1  0
 57103  1  0
 58104  1  0
 58105  1  0
 59106  1  0
 59107  1  0
 60108  1  0
 60109  1  0
M  CHG  3  31  -1  32   2  63  -1
M  END
> <Uni-Dock RESULT> 
ENERGY=   -5.247  LOWER_BOUND=    4.113  UPPER_BOUND=    6.495
INTER + INTRA:          -5.247
INTER:                  -5.247
INTRA:                   0.000
UNBOUND:                 0.000

$$$$

     RDKit          3D

109114  0  0  0  0  0  0  0  0999 V2000
   48.4468    9.1385   18.6970 O   0  0  0  0  0  0  0  0  0  0  0  0
   48.1142    9.7690   17.4619 C   0  0  2  0  0  0  0  0  0  0  0  0
   48.9036    9.1019   16.3291 C   0  0  0  0  0  0  0  0  0  0  0  0
   50.4334    9.2401   16.3921 C   0  0  2  0  0  0  0  0  0  0  0  0
   50.9686    8.9374   15.0925 O   0  0  0  0  0  0  0  0  0  0  0  0
   51.1335    8.3074   17.3363 C   0  0  0  0  0  0  0  0  0  0  0  0
   51.7417    8.7064   18.4683 C   0  0  0  0  0  0  0  0  0  0  0  0
   52.5616    7.8065   19.3015 C   0  0  0  0  0  0  0  0  0  0  0  0
   53.9587    7.9961   19.3083 C   0  0  0  0  0  0  0  0  0  0  0  0
   54.7790    7.2166   20.0621 N   0  0  0  0  0  0  0  0  0  0  0  0
   54.2584    6.2411   20.8165 C   0  0  0  0  0  0  0  0  0  0  0  0
   55.1391    5.4734   21.5683 C   0  0  0  0  0  0  0  0  0  0  0  0
   54.7008    4.4425   22.4019 C   0  0  0  0  0  0  0  0  0  0  0  0
   53.3442    4.1682   22.4929 C   0  0  0  0  0  0  0  0  0  0  0  0
   52.4437    4.9235   21.7418 C   0  0  0  0  0  0  0  0  0  0  0  0
   52.8776    5.9737   20.8899 C   0  0  0  0  0  0  0  0  0  0  0  0
   52.0043    6.7903   20.1134 C   0  0  0  0  0  0  0  0  0  0  0  0
   50.5408    6.5720   20.1761 C   0  0  0  0  0  0  0  0  0  0  0  0
   49.9278    5.5953   19.3691 C   0  0  0  0  0  0  0  0  0  0  0  0
   48.5532    5.3597   19.4560 C   0  0  0  0  0  0  0  0  0  0  0  0
   47.7845    6.0965   20.3498 C   0  0  0  0  0  0  0  0  0  0  0  0
   46.4699    5.8550   20.4470 F   0  0  0  0  0  0  0  0  0  0  0  0
   48.3652    7.0634   21.1594 C   0  0  0  0  0  0  0  0  0  0  0  0
   49.7390    7.3058   21.0681 C   0  0  0  0  0  0  0  0  0  0  0  0
   54.6272    9.0989   18.4989 C   0  0  0  0  0  0  0  0  0  0  0  0
   56.0084    8.8978   17.9122 C   0  0  0  0  0  0  0  0  0  0  0  0
   54.8110    8.9128   17.0079 C   0  0  0  0  0  0  0  0  0  0  0  0
   48.3590   11.2714   17.5689 C   0  0  0  0  0  0  0  0  0  0  0  0
   47.2812   11.8735   18.4718 C   0  0  0  0  0  0  0  0  0  0  0  0
   46.7448   12.9316   18.0397 O   0  0  0  0  0  0  0  0  0  0  0  0
   47.0589   11.2268   19.5403 O   0  0  0  0  0  0  0  0  0  0  0  0
   51.2106    7.8929   18.9980 Mg  0  0  0  0  0 15  0  0  0  0  0  0
   50.1788   13.3960   18.3969 O   0  0  0  0  0  0  0  0  0  0  0  0
   49.7550   12.4557   19.4093 C   0  0  2  0  0  0  0  0  0  0  0  0
   50.4747   11.1365   19.1013 C   0  0  0  0  0  0  0  0  0  0  0  0
   50.2275    9.9851   20.0870 C   0  0  2  0  0  0  0  0  0  0  0  0
   50.5483   10.4077   21.4081 O   0  0  0  0  0  0  0  0  0  0  0  0
   51.0814    8.7713   19.8102 C   0  0  0  0  0  0  0  0  0  0  0  0
   51.2285    8.2118   18.5969 C   0  0  0  0  0  0  0  0  0  0  0  0
   52.1224    7.0712   18.3277 C   0  0  0  0  0  0  0  0  0  0  0  0
   53.2695    7.2955   17.5442 C   0  0  0  0  0  0  0  0  0  0  0  0
   54.1276    6.2848   17.2427 N   0  0  0  0  0  0  0  0  0  0  0  0
   53.8757    5.0424   17.6708 C   0  0  0  0  0  0  0  0  0  0  0  0
   54.7770    4.0486   17.3127 C   0  0  0  0  0  0  0  0  0  0  0  0
   54.6037    2.7194   17.7011 C   0  0  0  0  0  0  0  0  0  0  0  0
   53.5052    2.3723   18.4714 C   0  0  0  0  0  0  0  0  0  0  0  0
   52.5864    3.3546   18.8413 C   0  0  0  0  0  0  0  0  0  0  0  0
   52.7524    4.7108   18.4533 C   0  0  0  0  0  0  0  0  0  0  0  0
   51.8572    5.7646   18.8010 C   0  0  0  0  0  0  0  0  0  0  0  0
   50.6764    5.4891   19.6480 C   0  0  0  0  0  0  0  0  0  0  0  0
   50.8228    5.3132   21.0374 C   0  0  0  0  0  0  0  0  0  0  0  0
   49.7145    5.0516   21.8455 C   0  0  0  0  0  0  0  0  0  0  0  0
   48.4538    4.9722   21.2681 C   0  0  0  0  0  0  0  0  0  0  0  0
   47.3926    4.7124   22.0446 F   0  0  0  0  0  0  0  0  0  0  0  0
   48.2786    5.1478   19.9011 C   0  0  0  0  0  0  0  0  0  0  0  0
   49.3882    5.4045   19.0922 C   0  0  0  0  0  0  0  0  0  0  0  0
   53.6227    8.6835   17.0237 C   0  0  0  0  0  0  0  0  0  0  0  0
   52.9915    9.1775   15.7387 C   0  0  0  0  0  0  0  0  0  0  0  0
   54.4527    8.8627   15.7747 C   0  0  0  0  0  0  0  0  0  0  0  0
   48.2321   12.3680   19.3519 C   0  0  0  0  0  0  0  0  0  0  0  0
   47.5538   11.8898   20.6327 C   0  0  0  0  0  0  0  0  0  0  0  0
   46.3066   11.7180   20.5344 O   0  0  0  0  0  0  0  0  0  0  0  0
   48.3136   11.7034   21.6264 O   0  0  0  0  0  0  0  0  0  0  0  0
   47.9364    9.6590   19.3695 H   0  0  0  0  0  0  0  0  0  0  0  0
   47.0490    9.5733   17.2826 H   0  0  0  0  0  0  0  0  0  0  0  0
   48.6536    8.0325   16.3028 H   0  0  0  0  0  0  0  0  0  0  0  0
   48.5574    9.5105   15.3710 H   0  0  0  0  0  0  0  0  0  0  0  0
   50.7228   10.2767   16.5929 H   0  0  0  0  0  0  0  0  0  0  0  0
   50.5922    8.0802   14.8248 H   0  0  0  0  0  0  0  0  0  0  0  0
   51.1819    7.2608   17.0416 H   0  0  0  0  0  0  0  0  0  0  0  0
   51.7085    9.7487   18.7793 H   0  0  0  0  0  0  0  0  0  0  0  0
   56.2025    5.6931   21.5030 H   0  0  0  0  0  0  0  0  0  0  0  0
   55.4187    3.8669   22.9808 H   0  0  0  0  0  0  0  0  0  0  0  0
   52.9854    3.3747   23.1419 H   0  0  0  0  0  0  0  0  0  0  0  0
   51.3843    4.6879   21.8295 H   0  0  0  0  0  0  0  0  0  0  0  0
   50.5183    5.0193   18.6599 H   0  0  0  0  0  0  0  0  0  0  0  0
   48.0722    4.6164   18.8306 H   0  0  0  0  0  0  0  0  0  0  0  0
   47.7475    7.6532   21.8290 H   0  0  0  0  0  0  0  0  0  0  0  0
   50.1833    8.0863   21.6810 H   0  0  0  0  0  0  0  0  0  0  0  0
   54.3969   10.1107   18.8320 H   0  0  0  0  0  0  0  0  0  0  0  0
   56.6782    9.7482   17.8860 H   0  0  0  0  0  0  0  0  0  0  0  0
   56.5065    7.9461   18.0732 H   0  0  0  0  0  0  0  0  0  0  0  0
   54.4985    7.9732   16.5633 H   0  0  0  0  0  0  0  0  0  0  0  0
   54.6504    9.7756   16.3712 H   0  0  0  0  0  0  0  0  0  0  0  0
   49.3311   11.4857   18.0258 H   0  0  0  0  0  0  0  0  0  0  0  0
   48.3176   11.7466   16.5828 H   0  0  0  0  0  0  0  0  0  0  0  0
   49.7525   14.2415   18.6284 H   0  0  0  0  0  0  0  0  0  0  0  0
   50.1079   12.8586   20.3641 H   0  0  0  0  0  0  0  0  0  0  0  0
   51.5548   11.3542   19.0650 H   0  0  0  0  0  0  0  0  0  0  0  0
   50.2133   10.8289   18.0810 H   0  0  0  0  0  0  0  0  0  0  0  0
   49.1821    9.6632   20.0706 H   0  0  0  0  0  0  0  0  0  0  0  0
   49.7374   10.9012   21.7097 H   0  0  0  0  0  0  0  0  0  0  0  0
   51.5993    8.3555   20.6736 H   0  0  0  0  0  0  0  0  0  0  0  0
   50.7222    8.6141   17.7182 H   0  0  0  0  0  0  0  0  0  0  0  0
   55.6396    4.3244   16.7078 H   0  0  0  0  0  0  0  0  0  0  0  0
   55.3263    1.9691   17.3972 H   0  0  0  0  0  0  0  0  0  0  0  0
   53.3526    1.3416   18.7778 H   0  0  0  0  0  0  0  0  0  0  0  0
   51.7280    3.0523   19.4382 H   0  0  0  0  0  0  0  0  0  0  0  0
   51.8032    5.4048   21.4990 H   0  0  0  0  0  0  0  0  0  0  0  0
   49.8263    4.9301   22.9184 H   0  0  0  0  0  0  0  0  0  0  0  0
   47.2783    5.1045   19.4787 H   0  0  0  0  0  0  0  0  0  0  0  0
   49.2409    5.5588   18.0252 H   0  0  0  0  0  0  0  0  0  0  0  0
   53.7759    9.4326   17.8021 H   0  0  0  0  0  0  0  0  0  0  0  0
   52.3496    8.5069   15.1821 H   0  0  0  0  0  0  0  0  0  0  0  0
   52.6843   10.2169   15.6987 H   0  0  0  0  0  0  0  0  0  0  0  0
   54.7992    7.9796   15.2510 H   0  0  0  0  0  0  0  0  0  0  0  0
   55.1545    9.6868   15.7620 H   0  0  0  0  0  0  0  0  0  0  0  0
   47.9188   11.7222   18.5209 H   0  0  0  0  0  0  0  0  0  0  0  0
   47.8214   13.3613   19.1369 H   0  0  0  0  0  0  0  0  0  0  0  0
  2  1  1  0
  2  3  1  0
  3  4  1  0
  4  5  1  0
  4  6  1  0
  6  7  2  0
  7  8  1  0
  8  9  2  0
  9 10  1  0
 10 11  2  0
 11 12  1  0
 12 13  2  0
 13 14  1  0
 14 15  2  0
 15 16  1  0
 11 16  1  0
 16 17  2  0
  8 17  1  0
 17 18  1  0
 18 19  2  0
 19 20  1  0
 20 21  2  0
 21 22  1  0
 21 23  1  0
 23 24  2  0
 18 24  1  0
  9 25  1  0
 25 26  1  0
 26 27  1  0
 25 27  1  0
  2 28  1  0
 28 29  1  0
 29 30  2  0
 29 31  1  0
 34 33  1  0
 34 35  1  0
 35 36  1  0
 36 37  1  0
 36 38  1  0
 38 39  2  0
 39 40  1  0
 40 41  2  0
 41 42  1  0
 42 43  2  0
 43 44  1  0
 44 45  2  0
 45 46  1  0
 46 47  2  0
 47 48  1  0
 43 48  1  0
 48 49  2  0
 40 49  1  0
 49 50  1  0
 50 51  2  0
 51 52  1  0
 52 53  2  0
 53 54  1  0
 53 55  1  0
 55 56  2  0
 50 56  1  0
 41 57  1  0
 57 58  1  0
 58 59  1  0
 57 59  1  0
 34 60  1  0
 60 61  1  0
 61 62  2  0
 61 63  1  0
  1 64  1  0
  2 65  1  6
  3 66  1  0
  3 67  1  0
  4 68  1  1
  5 69  1  0
  6 70  1  0
  7 71  1  0
 12 72  1  0
 13 73  1  0
 14 74  1  0
 15 75  1  0
 19 76  1  0
 20 77  1  0
 23 78  1  0
 24 79  1  0
 25 80  1  0
 26 81  1  0
 26 82  1  0
 27 83  1  0
 27 84  1  0
 28 85  1  0
 28 86  1  0
 33 87  1  0
 34 88  1  1
 35 89  1  0
 35 90  1  0
 36 91  1  6
 37 92  1  0
 38 93  1  0
 39 94  1  0
 44 95  1  0
 45 96  1  0
 46 97  1  0
 47 98  1  0
 51 99  1  0
 52100  1  0
 55101  1  0
 56102  1  0
 57103  1  0
 58104  1  0
 58105  1  0
 59106  1  0
 59107  1  0
 60108  1  0
 60109  1  0
M  CHG  3  31  -1  32   2  63  -1
M  END
> <Uni-Dock RESULT> 
ENERGY=   -5.152  LOWER_BOUND=    2.665  UPPER_BOUND=    5.123
INTER + INTRA:          -5.152
INTER:                  -5.152
INTRA:                   0.000
UNBOUND:                 0.000

$$$$

     RDKit          3D

109114  0  0  0  0  0  0  0  0999 V2000
   49.0118   10.4803   15.9644 O   0  0  0  0  0  0  0  0  0  0  0  0
   48.5815    9.7793   14.7995 C   0  0  2  0  0  0  0  0  0  0  0  0
   47.9434    8.4500   15.2208 C   0  0  0  0  0  0  0  0  0  0  0  0
   48.8705    7.4394   15.9152 C   0  0  2  0  0  0  0  0  0  0  0  0
   48.2478    6.1446   15.8632 O   0  0  0  0  0  0  0  0  0  0  0  0
   49.1375    7.6930   17.3699 C   0  0  0  0  0  0  0  0  0  0  0  0
   50.3322    8.0770   17.8554 C   0  0  0  0  0  0  0  0  0  0  0  0
   50.6234    8.1660   19.2988 C   0  0  0  0  0  0  0  0  0  0  0  0
   51.4842    7.2029   19.8639 C   0  0  0  0  0  0  0  0  0  0  0  0
   51.8115    7.2280   21.1834 N   0  0  0  0  0  0  0  0  0  0  0  0
   51.3072    8.1831   21.9741 C   0  0  0  0  0  0  0  0  0  0  0  0
   51.6729    8.1644   23.3143 C   0  0  0  0  0  0  0  0  0  0  0  0
   51.2183    9.1235   24.2217 C   0  0  0  0  0  0  0  0  0  0  0  0
   50.3761   10.1342   23.7821 C   0  0  0  0  0  0  0  0  0  0  0  0
   49.9924   10.1675   22.4415 C   0  0  0  0  0  0  0  0  0  0  0  0
   50.4474    9.1971   21.5097 C   0  0  0  0  0  0  0  0  0  0  0  0
   50.1042    9.1902   20.1259 C   0  0  0  0  0  0  0  0  0  0  0  0
   49.2274   10.2507   19.5784 C   0  0  0  0  0  0  0  0  0  0  0  0
   47.8272   10.1358   19.6627 C   0  0  0  0  0  0  0  0  0  0  0  0
   46.9987   11.1538   19.1833 C   0  0  0  0  0  0  0  0  0  0  0  0
   47.5639   12.2917   18.6190 C   0  0  0  0  0  0  0  0  0  0  0  0
   46.7686   13.2763   18.1786 F   0  0  0  0  0  0  0  0  0  0  0  0
   48.9422   12.4311   18.5268 C   0  0  0  0  0  0  0  0  0  0  0  0
   49.7722   11.4101   18.9989 C   0  0  0  0  0  0  0  0  0  0  0  0
   52.1198    6.0999   19.0287 C   0  0  0  0  0  0  0  0  0  0  0  0
   52.3941    4.7371   19.6289 C   0  0  0  0  0  0  0  0  0  0  0  0
   51.2855    4.9011   18.6307 C   0  0  0  0  0  0  0  0  0  0  0  0
   49.7541    9.6113   13.8376 C   0  0  0  0  0  0  0  0  0  0  0  0
   50.0737   10.9748   13.2226 C   0  0  0  0  0  0  0  0  0  0  0  0
   50.2526   10.9743   11.9729 O   0  0  0  0  0  0  0  0  0  0  0  0
   50.1120   11.9364   14.0492 O   0  0  0  0  0  0  0  0  0  0  0  0
   49.8070    8.8678   18.4237 Mg  0  0  0  0  0 15  0  0  0  0  0  0
   52.5522    8.8545   13.5070 O   0  0  0  0  0  0  0  0  0  0  0  0
   52.2616    9.9287   14.4292 C   0  0  2  0  0  0  0  0  0  0  0  0
   51.6061    9.2797   15.6550 C   0  0  0  0  0  0  0  0  0  0  0  0
   51.2552   10.2244   16.8137 C   0  0  2  0  0  0  0  0  0  0  0  0
   52.4172   10.9415   17.2165 O   0  0  0  0  0  0  0  0  0  0  0  0
   50.7562    9.5005   18.0411 C   0  0  0  0  0  0  0  0  0  0  0  0
   49.8082    8.5479   18.0230 C   0  0  0  0  0  0  0  0  0  0  0  0
   49.3823    7.7983   19.2187 C   0  0  0  0  0  0  0  0  0  0  0  0
   49.7063    6.4313   19.2972 C   0  0  0  0  0  0  0  0  0  0  0  0
   49.3293    5.6762   20.3632 N   0  0  0  0  0  0  0  0  0  0  0  0
   48.6139    6.2239   21.3523 C   0  0  0  0  0  0  0  0  0  0  0  0
   48.2401    5.3973   22.4035 C   0  0  0  0  0  0  0  0  0  0  0  0
   47.4873    5.8668   23.4808 C   0  0  0  0  0  0  0  0  0  0  0  0
   47.1010    7.1973   23.5137 C   0  0  0  0  0  0  0  0  0  0  0  0
   47.4645    8.0452   22.4672 C   0  0  0  0  0  0  0  0  0  0  0  0
   48.2314    7.5795   21.3661 C   0  0  0  0  0  0  0  0  0  0  0  0
   48.6422    8.3914   20.2685 C   0  0  0  0  0  0  0  0  0  0  0  0
   48.3014    9.8304   20.2383 C   0  0  0  0  0  0  0  0  0  0  0  0
   49.0161   10.7476   21.0324 C   0  0  0  0  0  0  0  0  0  0  0  0
   48.7013   12.1079   21.0120 C   0  0  0  0  0  0  0  0  0  0  0  0
   47.6749   12.5574   20.1914 C   0  0  0  0  0  0  0  0  0  0  0  0
   47.3688   13.8624   20.1800 F   0  0  0  0  0  0  0  0  0  0  0  0
   46.9570   11.6762   19.3924 C   0  0  0  0  0  0  0  0  0  0  0  0
   47.2688   10.3147   19.4169 C   0  0  0  0  0  0  0  0  0  0  0  0
   50.5204    5.7394   18.2105 C   0  0  0  0  0  0  0  0  0  0  0  0
   49.8168    5.2140   16.9766 C   0  0  0  0  0  0  0  0  0  0  0  0
   50.3961    4.2542   17.9660 C   0  0  0  0  0  0  0  0  0  0  0  0
   51.3743   10.9360   13.7026 C   0  0  0  0  0  0  0  0  0  0  0  0
   51.3992   12.3557   14.2621 C   0  0  0  0  0  0  0  0  0  0  0  0
   50.5789   13.1485   13.7205 O   0  0  0  0  0  0  0  0  0  0  0  0
   52.2141   12.5656   15.2061 O   0  0  0  0  0  0  0  0  0  0  0  0
   49.4505   11.2916   15.5996 H   0  0  0  0  0  0  0  0  0  0  0  0
   47.7972   10.3898   14.3336 H   0  0  0  0  0  0  0  0  0  0  0  0
   47.0960    8.6577   15.8883 H   0  0  0  0  0  0  0  0  0  0  0  0
   47.5104    7.9708   14.3332 H   0  0  0  0  0  0  0  0  0  0  0  0
   49.8117    7.3331   15.3661 H   0  0  0  0  0  0  0  0  0  0  0  0
   47.3425    6.2527   16.2052 H   0  0  0  0  0  0  0  0  0  0  0  0
   48.3161    7.4999   18.0573 H   0  0  0  0  0  0  0  0  0  0  0  0
   51.1677    8.2716   17.1857 H   0  0  0  0  0  0  0  0  0  0  0  0
   52.3395    7.3765   23.6578 H   0  0  0  0  0  0  0  0  0  0  0  0
   51.5309    9.0812   25.2620 H   0  0  0  0  0  0  0  0  0  0  0  0
   50.0191   10.8924   24.4729 H   0  0  0  0  0  0  0  0  0  0  0  0
   49.3296   10.9698   22.1215 H   0  0  0  0  0  0  0  0  0  0  0  0
   47.3742    9.2457   20.0941 H   0  0  0  0  0  0  0  0  0  0  0  0
   45.9194   11.0681   19.2354 H   0  0  0  0  0  0  0  0  0  0  0  0
   49.3684   13.3104   18.0545 H   0  0  0  0  0  0  0  0  0  0  0  0
   50.8500   11.5100   18.8949 H   0  0  0  0  0  0  0  0  0  0  0  0
   52.8438    6.4473   18.2920 H   0  0  0  0  0  0  0  0  0  0  0  0
   53.2895    4.2148   19.3156 H   0  0  0  0  0  0  0  0  0  0  0  0
   52.1180    4.5617   20.6645 H   0  0  0  0  0  0  0  0  0  0  0  0
   50.2638    4.8413   18.9922 H   0  0  0  0  0  0  0  0  0  0  0  0
   51.4225    4.5045   17.6310 H   0  0  0  0  0  0  0  0  0  0  0  0
   50.6523    9.2652   14.3601 H   0  0  0  0  0  0  0  0  0  0  0  0
   49.5096    8.8993   13.0419 H   0  0  0  0  0  0  0  0  0  0  0  0
   53.0092    9.2712   12.7536 H   0  0  0  0  0  0  0  0  0  0  0  0
   53.2290   10.3589   14.7080 H   0  0  0  0  0  0  0  0  0  0  0  0
   52.2959    8.5014   16.0207 H   0  0  0  0  0  0  0  0  0  0  0  0
   50.7139    8.7342   15.3229 H   0  0  0  0  0  0  0  0  0  0  0  0
   50.4868   10.9461   16.5217 H   0  0  0  0  0  0  0  0  0  0  0  0
   52.4794   11.6911   16.5635 H   0  0  0  0  0  0  0  0  0  0  0  0
   51.2231    9.7936   18.9806 H   0  0  0  0  0  0  0  0  0  0  0  0
   49.3302    8.2364   17.0931 H   0  0  0  0  0  0  0  0  0  0  0  0
   48.5456    4.3523   22.3753 H   0  0  0  0  0  0  0  0  0  0  0  0
   47.2090    5.1894   24.2815 H   0  0  0  0  0  0  0  0  0  0  0  0
   46.5105    7.5777   24.3420 H   0  0  0  0  0  0  0  0  0  0  0  0
   47.1395    9.0828   22.5142 H   0  0  0  0  0  0  0  0  0  0  0  0
   49.8407   10.4056   21.6535 H   0  0  0  0  0  0  0  0  0  0  0  0
   49.2620   12.8163   21.6138 H   0  0  0  0  0  0  0  0  0  0  0  0
   46.1748   12.0578   18.7416 H   0  0  0  0  0  0  0  0  0  0  0  0
   46.7142    9.6332   18.7751 H   0  0  0  0  0  0  0  0  0  0  0  0
   51.5146    6.1607   18.0533 H   0  0  0  0  0  0  0  0  0  0  0  0
   48.7381    5.2848   16.9220 H   0  0  0  0  0  0  0  0  0  0  0  0
   50.3163    5.3419   16.0224 H   0  0  0  0  0  0  0  0  0  0  0  0
   49.7141    3.6821   18.5839 H   0  0  0  0  0  0  0  0  0  0  0  0
   51.2981    3.7211   17.6945 H   0  0  0  0  0  0  0  0  0  0  0  0
   50.3355   10.5810   13.6790 H   0  0  0  0  0  0  0  0  0  0  0  0
   51.6943   11.0102   12.6568 H   0  0  0  0  0  0  0  0  0  0  0  0
  2  1  1  0
  2  3  1  0
  3  4  1  0
  4  5  1  0
  4  6  1  0
  6  7  2  0
  7  8  1  0
  8  9  2  0
  9 10  1  0
 10 11  2  0
 11 12  1  0
 12 13  2  0
 13 14  1  0
 14 15  2  0
 15 16  1  0
 11 16  1  0
 16 17  2  0
  8 17  1  0
 17 18  1  0
 18 19  2  0
 19 20  1  0
 20 21  2  0
 21 22  1  0
 21 23  1  0
 23 24  2  0
 18 24  1  0
  9 25  1  0
 25 26  1  0
 26 27  1  0
 25 27  1  0
  2 28  1  0
 28 29  1  0
 29 30  2  0
 29 31  1  0
 34 33  1  0
 34 35  1  0
 35 36  1  0
 36 37  1  0
 36 38  1  0
 38 39  2  0
 39 40  1  0
 40 41  2  0
 41 42  1  0
 42 43  2  0
 43 44  1  0
 44 45  2  0
 45 46  1  0
 46 47  2  0
 47 48  1  0
 43 48  1  0
 48 49  2  0
 40 49  1  0
 49 50  1  0
 50 51  2  0
 51 52  1  0
 52 53  2  0
 53 54  1  0
 53 55  1  0
 55 56  2  0
 50 56  1  0
 41 57  1  0
 57 58  1  0
 58 59  1  0
 57 59  1  0
 34 60  1  0
 60 61  1  0
 61 62  2  0
 61 63  1  0
  1 64  1  0
  2 65  1  6
  3 66  1  0
  3 67  1  0
  4 68  1  1
  5 69  1  0
  6 70  1  0
  7 71  1  0
 12 72  1  0
 13 73  1  0
 14 74  1  0
 15 75  1  0
 19 76  1  0
 20 77  1  0
 23 78  1  0
 24 79  1  0
 25 80  1  0
 26 81  1  0
 26 82  1  0
 27 83  1  0
 27 84  1  0
 28 85  1  0
 28 86  1  0
 33 87  1  0
 34 88  1  1
 35 89  1  0
 35 90  1  0
 36 91  1  6
 37 92  1  0
 38 93  1  0
 39 94  1  0
 44 95  1  0
 45 96  1  0
 46 97  1  0
 47 98  1  0
 51 99  1  0
 52100  1  0
 55101  1  0
 56102  1  0
 57103  1  0
 58104  1  0
 58105  1  0
 59106  1  0
 59107  1  0
 60108  1  0
 60109  1  0
M  CHG  3  31  -1  32   2  63  -1
M  END
> <Uni-Dock RESULT> 
ENERGY=   -5.083  LOWER_BOUND=    2.567  UPPER_BOUND=    4.290
INTER + INTRA:          -5.083
INTER:                  -5.083
INTRA:                   0.000
UNBOUND:                 0.000

$$$$

     RDKit          3D

109114  0  0  0  0  0  0  0  0999 V2000
   49.0707   14.7053   14.0468 O   0  0  0  0  0  0  0  0  0  0  0  0
   48.9107   14.9184   15.4477 C   0  0  2  0  0  0  0  0  0  0  0  0
   47.5593   14.3455   15.8915 C   0  0  0  0  0  0  0  0  0  0  0  0
   46.3087   15.0081   15.2914 C   0  0  2  0  0  0  0  0  0  0  0  0
   45.1748   14.6486   16.0990 O   0  0  0  0  0  0  0  0  0  0  0  0
   45.9525   14.5841   13.8967 C   0  0  0  0  0  0  0  0  0  0  0  0
   46.0492   15.3887   12.8225 C   0  0  0  0  0  0  0  0  0  0  0  0
   45.5453   15.0133   11.4879 C   0  0  0  0  0  0  0  0  0  0  0  0
   44.3929   15.6662   11.0046 C   0  0  0  0  0  0  0  0  0  0  0  0
   43.8773   15.3851    9.7783 N   0  0  0  0  0  0  0  0  0  0  0  0
   44.4680   14.4659    9.0050 C   0  0  0  0  0  0  0  0  0  0  0  0
   43.9022   14.2160    7.7610 C   0  0  0  0  0  0  0  0  0  0  0  0
   44.4477   13.2902    6.8692 C   0  0  0  0  0  0  0  0  0  0  0  0
   45.5932   12.5933    7.2245 C   0  0  0  0  0  0  0  0  0  0  0  0
   46.1736   12.8254    8.4715 C   0  0  0  0  0  0  0  0  0  0  0  0
   45.6273   13.7636    9.3870 C   0  0  0  0  0  0  0  0  0  0  0  0
   46.1857   14.0559   10.6658 C   0  0  0  0  0  0  0  0  0  0  0  0
   47.4214   13.3681   11.1055 C   0  0  0  0  0  0  0  0  0  0  0  0
   47.3574   12.0981   11.7088 C   0  0  0  0  0  0  0  0  0  0  0  0
   48.5247   11.4297   12.0875 C   0  0  0  0  0  0  0  0  0  0  0  0
   49.7610   12.0250   11.8643 C   0  0  0  0  0  0  0  0  0  0  0  0
   50.8805   11.3738   12.2089 F   0  0  0  0  0  0  0  0  0  0  0  0
   49.8518   13.2755   11.2680 C   0  0  0  0  0  0  0  0  0  0  0  0
   48.6846   13.9489   10.8957 C   0  0  0  0  0  0  0  0  0  0  0  0
   43.6772   16.7416   11.8105 C   0  0  0  0  0  0  0  0  0  0  0  0
   42.1756   16.9097   11.7122 C   0  0  0  0  0  0  0  0  0  0  0  0
   42.7794   16.3299   12.9577 C   0  0  0  0  0  0  0  0  0  0  0  0
   49.0740   16.4022   15.7645 C   0  0  0  0  0  0  0  0  0  0  0  0
   50.5504   16.7700   15.6080 C   0  0  0  0  0  0  0  0  0  0  0  0
   51.0339   17.4693   16.5413 O   0  0  0  0  0  0  0  0  0  0  0  0
   51.1038   16.3185   14.5596 O   0  0  0  0  0  0  0  0  0  0  0  0
   46.5781   14.5689   12.3006 Mg  0  0  0  0  0 15  0  0  0  0  0  0
   48.3610   19.1421   15.0605 O   0  0  0  0  0  0  0  0  0  0  0  0
   48.9976   18.3409   14.0399 C   0  0  2  0  0  0  0  0  0  0  0  0
   47.9533   17.3139   13.5837 C   0  0  0  0  0  0  0  0  0  0  0  0
   48.3808   16.3740   12.4470 C   0  0  2  0  0  0  0  0  0  0  0  0
   48.8175   17.1405   11.3296 O   0  0  0  0  0  0  0  0  0  0  0  0
   47.2589   15.4960   11.9474 C   0  0  0  0  0  0  0  0  0  0  0  0
   46.4429   14.7858   12.7451 C   0  0  0  0  0  0  0  0  0  0  0  0
   45.3060   13.9902   12.2480 C   0  0  0  0  0  0  0  0  0  0  0  0
   44.0039   14.4284   12.5519 C   0  0  0  0  0  0  0  0  0  0  0  0
   42.9105   13.7331   12.1400 N   0  0  0  0  0  0  0  0  0  0  0  0
   43.0604   12.5945   11.4535 C   0  0  0  0  0  0  0  0  0  0  0  0
   41.9071   11.9180   11.0791 C   0  0  0  0  0  0  0  0  0  0  0  0
   41.9525   10.7184   10.3673 C   0  0  0  0  0  0  0  0  0  0  0  0
   43.1804   10.1814   10.0146 C   0  0  0  0  0  0  0  0  0  0  0  0
   44.3519   10.8438   10.3819 C   0  0  0  0  0  0  0  0  0  0  0  0
   44.3187   12.0657   11.1053 C   0  0  0  0  0  0  0  0  0  0  0  0
   45.4748   12.7973   11.5064 C   0  0  0  0  0  0  0  0  0  0  0  0
   46.8247   12.3134   11.1438 C   0  0  0  0  0  0  0  0  0  0  0  0
   47.3142   12.4852    9.8347 C   0  0  0  0  0  0  0  0  0  0  0  0
   48.5867   12.0309    9.4821 C   0  0  0  0  0  0  0  0  0  0  0  0
   49.3779   11.4095   10.4396 C   0  0  0  0  0  0  0  0  0  0  0  0
   50.5956   10.9665   10.0965 F   0  0  0  0  0  0  0  0  0  0  0  0
   48.9234   11.2321   11.7405 C   0  0  0  0  0  0  0  0  0  0  0  0
   47.6484   11.6822   12.0916 C   0  0  0  0  0  0  0  0  0  0  0  0
   43.7550   15.7165   13.3273 C   0  0  0  0  0  0  0  0  0  0  0  0
   43.7979   15.6921   14.8410 C   0  0  0  0  0  0  0  0  0  0  0  0
   42.4960   15.9102   14.1388 C   0  0  0  0  0  0  0  0  0  0  0  0
   50.2558   17.7281   14.6495 C   0  0  0  0  0  0  0  0  0  0  0  0
   51.3356   17.3185   13.6518 C   0  0  0  0  0  0  0  0  0  0  0  0
   52.3204   16.7144   14.1617 O   0  0  0  0  0  0  0  0  0  0  0  0
   51.1119   17.6097   12.4416 O   0  0  0  0  0  0  0  0  0  0  0  0
   49.9355   15.1454   13.8412 H   0  0  0  0  0  0  0  0  0  0  0  0
   49.6965   14.3382   15.9486 H   0  0  0  0  0  0  0  0  0  0  0  0
   47.5314   13.2736   15.6526 H   0  0  0  0  0  0  0  0  0  0  0  0
   47.4934   14.4067   16.9854 H   0  0  0  0  0  0  0  0  0  0  0  0
   46.3778   16.0989   15.3541 H   0  0  0  0  0  0  0  0  0  0  0  0
   45.1873   13.6789   16.1875 H   0  0  0  0  0  0  0  0  0  0  0  0
   45.5478   13.5805   13.7804 H   0  0  0  0  0  0  0  0  0  0  0  0
   46.4476   16.3970   12.9176 H   0  0  0  0  0  0  0  0  0  0  0  0
   43.0082   14.7678    7.4789 H   0  0  0  0  0  0  0  0  0  0  0  0
   43.9814   13.1255    5.9012 H   0  0  0  0  0  0  0  0  0  0  0  0
   46.0349   11.8750    6.5401 H   0  0  0  0  0  0  0  0  0  0  0  0
   47.0713   12.2649    8.7274 H   0  0  0  0  0  0  0  0  0  0  0  0
   46.3950   11.6271   11.8963 H   0  0  0  0  0  0  0  0  0  0  0  0
   48.4831   10.4560   12.5619 H   0  0  0  0  0  0  0  0  0  0  0  0
   50.8219   13.7418   11.1297 H   0  0  0  0  0  0  0  0  0  0  0  0
   48.7597   14.9417   10.4587 H   0  0  0  0  0  0  0  0  0  0  0  0
   44.2481   17.6589   11.9526 H   0  0  0  0  0  0  0  0  0  0  0  0
   41.7725   17.9136   11.7602 H   0  0  0  0  0  0  0  0  0  0  0  0
   41.6204   16.2398   11.0621 H   0  0  0  0  0  0  0  0  0  0  0  0
   42.6363   15.2704   13.1456 H   0  0  0  0  0  0  0  0  0  0  0  0
   42.8031   16.9368   13.8558 H   0  0  0  0  0  0  0  0  0  0  0  0
   48.5023   17.0242   15.0674 H   0  0  0  0  0  0  0  0  0  0  0  0
   48.7482   16.6230   16.7867 H   0  0  0  0  0  0  0  0  0  0  0  0
   49.0164   19.8192   15.3099 H   0  0  0  0  0  0  0  0  0  0  0  0
   49.2305   19.0257   13.2181 H   0  0  0  0  0  0  0  0  0  0  0  0
   47.0582   17.8755   13.2696 H   0  0  0  0  0  0  0  0  0  0  0  0
   47.6318   16.7345   14.4582 H   0  0  0  0  0  0  0  0  0  0  0  0
   49.1991   15.7179   12.7580 H   0  0  0  0  0  0  0  0  0  0  0  0
   49.7595   17.3774   11.5499 H   0  0  0  0  0  0  0  0  0  0  0  0
   47.1318   15.4675   10.8659 H   0  0  0  0  0  0  0  0  0  0  0  0
   46.5499   14.8027   13.8307 H   0  0  0  0  0  0  0  0  0  0  0  0
   40.9435   12.3427   11.3570 H   0  0  0  0  0  0  0  0  0  0  0  0
   41.0299   10.2153   10.0970 H   0  0  0  0  0  0  0  0  0  0  0  0
   43.2337    9.2461    9.4652 H   0  0  0  0  0  0  0  0  0  0  0  0
   45.3023   10.3946   10.1003 H   0  0  0  0  0  0  0  0  0  0  0  0
   46.7113   12.9984    9.0893 H   0  0  0  0  0  0  0  0  0  0  0  0
   48.9689   12.1763    8.4765 H   0  0  0  0  0  0  0  0  0  0  0  0
   49.5722   10.7643   12.4762 H   0  0  0  0  0  0  0  0  0  0  0  0
   47.3064   11.5559   13.1169 H   0  0  0  0  0  0  0  0  0  0  0  0
   44.1504   16.6147   12.8505 H   0  0  0  0  0  0  0  0  0  0  0  0
   43.9420   14.7440   15.3430 H   0  0  0  0  0  0  0  0  0  0  0  0
   44.2654   16.5325   15.3426 H   0  0  0  0  0  0  0  0  0  0  0  0
   41.7637   15.1117   14.1586 H   0  0  0  0  0  0  0  0  0  0  0  0
   42.0661   16.9035   14.1541 H   0  0  0  0  0  0  0  0  0  0  0  0
   49.9949   16.8593   15.2682 H   0  0  0  0  0  0  0  0  0  0  0  0
   50.7197   18.4552   15.3260 H   0  0  0  0  0  0  0  0  0  0  0  0
  2  1  1  0
  2  3  1  0
  3  4  1  0
  4  5  1  0
  4  6  1  0
  6  7  2  0
  7  8  1  0
  8  9  2  0
  9 10  1  0
 10 11  2  0
 11 12  1  0
 12 13  2  0
 13 14  1  0
 14 15  2  0
 15 16  1  0
 11 16  1  0
 16 17  2  0
  8 17  1  0
 17 18  1  0
 18 19  2  0
 19 20  1  0
 20 21  2  0
 21 22  1  0
 21 23  1  0
 23 24  2  0
 18 24  1  0
  9 25  1  0
 25 26  1  0
 26 27  1  0
 25 27  1  0
  2 28  1  0
 28 29  1  0
 29 30  2  0
 29 31  1  0
 34 33  1  0
 34 35  1  0
 35 36  1  0
 36 37  1  0
 36 38  1  0
 38 39  2  0
 39 40  1  0
 40 41  2  0
 41 42  1  0
 42 43  2  0
 43 44  1  0
 44 45  2  0
 45 46  1  0
 46 47  2  0
 47 48  1  0
 43 48  1  0
 48 49  2  0
 40 49  1  0
 49 50  1  0
 50 51  2  0
 51 52  1  0
 52 53  2  0
 53 54  1  0
 53 55  1  0
 55 56  2  0
 50 56  1  0
 41 57  1  0
 57 58  1  0
 58 59  1  0
 57 59  1  0
 34 60  1  0
 60 61  1  0
 61 62  2  0
 61 63  1  0
  1 64  1  0
  2 65  1  6
  3 66  1  0
  3 67  1  0
  4 68  1  1
  5 69  1  0
  6 70  1  0
  7 71  1  0
 12 72  1  0
 13 73  1  0
 14 74  1  0
 15 75  1  0
 19 76  1  0
 20 77  1  0
 23 78  1  0
 24 79  1  0
 25 80  1  0
 26 81  1  0
 26 82  1  0
 27 83  1  0
 27 84  1  0
 28 85  1  0
 28 86  1  0
 33 87  1  0
 34 88  1  1
 35 89  1  0
 35 90  1  0
 36 91  1  6
 37 92  1  0
 38 93  1  0
 39 94  1  0
 44 95  1  0
 45 96  1  0
 46 97  1  0
 47 98  1  0
 51 99  1  0
 52100  1  0
 55101  1  0
 56102  1  0
 57103  1  0
 58104  1  0
 58105  1  0
 59106  1  0
 59107  1  0
 60108  1  0
 60109  1  0
M  CHG  3  31  -1  32   2  63  -1
M  END
> <Uni-Dock RESULT> 
ENERGY=   -4.926  LOWER_BOUND=    8.387  UPPER_BOUND=   11.480
INTER + INTRA:          -4.926
INTER:                  -4.926
INTRA:                   0.000
UNBOUND:                 0.000

$$$$

     RDKit          3D

109114  0  0  0  0  0  0  0  0999 V2000
   48.9673   14.0593   17.4867 O   0  0  0  0  0  0  0  0  0  0  0  0
   48.5567   14.6246   16.2436 C   0  0  2  0  0  0  0  0  0  0  0  0
   47.9804   13.5162   15.3542 C   0  0  0  0  0  0  0  0  0  0  0  0
   48.9567   12.4074   14.9293 C   0  0  2  0  0  0  0  0  0  0  0  0
   48.3899   11.7119   13.8058 O   0  0  0  0  0  0  0  0  0  0  0  0
   49.2261   11.3477   15.9569 C   0  0  0  0  0  0  0  0  0  0  0  0
   50.4077   11.1953   16.5824 C   0  0  0  0  0  0  0  0  0  0  0  0
   50.7083   10.0543   17.4678 C   0  0  0  0  0  0  0  0  0  0  0  0
   51.6151    9.0773   17.0085 C   0  0  0  0  0  0  0  0  0  0  0  0
   51.9534    8.0050   17.7729 N   0  0  0  0  0  0  0  0  0  0  0  0
   51.4158    7.8621   18.9905 C   0  0  0  0  0  0  0  0  0  0  0  0
   51.7946    6.7496   19.7314 C   0  0  0  0  0  0  0  0  0  0  0  0
   51.3076    6.5135   21.0187 C   0  0  0  0  0  0  0  0  0  0  0  0
   50.4185    7.4132   21.5879 C   0  0  0  0  0  0  0  0  0  0  0  0
   50.0212    8.5337   20.8584 C   0  0  0  0  0  0  0  0  0  0  0  0
   50.5088    8.7838   19.5482 C   0  0  0  0  0  0  0  0  0  0  0  0
   50.1533    9.9191   18.7625 C   0  0  0  0  0  0  0  0  0  0  0  0
   49.2266   10.9352   19.3121 C   0  0  0  0  0  0  0  0  0  0  0  0
   47.8334   10.7568   19.2207 C   0  0  0  0  0  0  0  0  0  0  0  0
   46.9574   11.6942   19.7743 C   0  0  0  0  0  0  0  0  0  0  0  0
   47.4677   12.8129   20.4230 C   0  0  0  0  0  0  0  0  0  0  0  0
   46.6267   13.7004   20.9716 F   0  0  0  0  0  0  0  0  0  0  0  0
   48.8378   13.0107   20.5297 C   0  0  0  0  0  0  0  0  0  0  0  0
   49.7155   12.0778   19.9696 C   0  0  0  0  0  0  0  0  0  0  0  0
   52.2897    9.1792   15.6473 C   0  0  0  0  0  0  0  0  0  0  0  0
   52.6280    7.9324   14.8575 C   0  0  0  0  0  0  0  0  0  0  0  0
   51.5041    8.8179   14.4048 C   0  0  0  0  0  0  0  0  0  0  0  0
   49.7264   15.3680   15.6050 C   0  0  0  0  0  0  0  0  0  0  0  0
   49.9812   16.6463   16.4053 C   0  0  0  0  0  0  0  0  0  0  0  0
   50.1482   17.6904   15.7154 O   0  0  0  0  0  0  0  0  0  0  0  0
   49.9858   16.4944   17.6648 O   0  0  0  0  0  0  0  0  0  0  0  0
   49.8543   11.1453   17.5392 Mg  0  0  0  0  0 15  0  0  0  0  0  0
   52.5512   15.3113   14.8781 O   0  0  0  0  0  0  0  0  0  0  0  0
   52.2234   15.1321   16.2742 C   0  0  2  0  0  0  0  0  0  0  0  0
   51.6080   13.7323   16.3968 C   0  0  0  0  0  0  0  0  0  0  0  0
   51.2276   13.2826   17.8150 C   0  0  2  0  0  0  0  0  0  0  0  0
   52.3613   13.3829   18.6701 O   0  0  0  0  0  0  0  0  0  0  0  0
   50.7717   11.8448   17.8810 C   0  0  0  0  0  0  0  0  0  0  0  0
   49.8655   11.3008   17.0507 C   0  0  0  0  0  0  0  0  0  0  0  0
   49.4835    9.8774   17.0799 C   0  0  0  0  0  0  0  0  0  0  0  0
   49.8668    9.0634   15.9980 C   0  0  0  0  0  0  0  0  0  0  0  0
   49.5327    7.7462   15.9521 N   0  0  0  0  0  0  0  0  0  0  0  0
   48.8037    7.2056   16.9351 C   0  0  0  0  0  0  0  0  0  0  0  0
   48.4757    5.8611   16.8216 C   0  0  0  0  0  0  0  0  0  0  0  0
   47.7135    5.2026   17.7876 C   0  0  0  0  0  0  0  0  0  0  0  0
   47.2706    5.9017   18.8992 C   0  0  0  0  0  0  0  0  0  0  0  0
   47.5874    7.2537   19.0327 C   0  0  0  0  0  0  0  0  0  0  0  0
   48.3633    7.9346   18.0571 C   0  0  0  0  0  0  0  0  0  0  0  0
   48.7284    9.3107   18.1336 C   0  0  0  0  0  0  0  0  0  0  0  0
   48.3257   10.1239   19.3016 C   0  0  0  0  0  0  0  0  0  0  0  0
   49.0077    9.9959   20.5269 C   0  0  0  0  0  0  0  0  0  0  0  0
   48.6344   10.7581   21.6357 C   0  0  0  0  0  0  0  0  0  0  0  0
   47.5820   11.6571   21.5214 C   0  0  0  0  0  0  0  0  0  0  0  0
   47.2199   12.3814   22.5896 F   0  0  0  0  0  0  0  0  0  0  0  0
   46.8952   11.8091   20.3233 C   0  0  0  0  0  0  0  0  0  0  0  0
   47.2656   11.0427   19.2156 C   0  0  0  0  0  0  0  0  0  0  0  0
   50.6997    9.6082   14.8440 C   0  0  0  0  0  0  0  0  0  0  0  0
   50.0079   10.3197   13.7000 C   0  0  0  0  0  0  0  0  0  0  0  0
   50.6372    8.9829   13.4706 C   0  0  0  0  0  0  0  0  0  0  0  0
   51.2867   16.2672   16.6797 C   0  0  0  0  0  0  0  0  0  0  0  0
   51.2556   16.5912   18.1708 C   0  0  0  0  0  0  0  0  0  0  0  0
   50.3969   17.4554   18.5031 O   0  0  0  0  0  0  0  0  0  0  0  0
   52.0696   15.9490   18.8950 O   0  0  0  0  0  0  0  0  0  0  0  0
   49.3672   14.8269   17.9712 H   0  0  0  0  0  0  0  0  0  0  0  0
   47.7425   15.3259   16.4675 H   0  0  0  0  0  0  0  0  0  0  0  0
   47.1312   13.0499   15.8719 H   0  0  0  0  0  0  0  0  0  0  0  0
   47.5602   13.9741   14.4494 H   0  0  0  0  0  0  0  0  0  0  0  0
   49.8964   12.8346   14.5644 H   0  0  0  0  0  0  0  0  0  0  0  0
   47.4840   11.4590   14.0582 H   0  0  0  0  0  0  0  0  0  0  0  0
   48.4203   10.6431   16.1537 H   0  0  0  0  0  0  0  0  0  0  0  0
   51.2277   11.8865   16.3971 H   0  0  0  0  0  0  0  0  0  0  0  0
   52.4976    6.0477   19.2883 H   0  0  0  0  0  0  0  0  0  0  0  0
   51.6315    5.6353   21.5716 H   0  0  0  0  0  0  0  0  0  0  0  0
   50.0357    7.2487   22.5909 H   0  0  0  0  0  0  0  0  0  0  0  0
   49.3215    9.2241   21.3266 H   0  0  0  0  0  0  0  0  0  0  0  0
   47.4233    9.8898   18.7075 H   0  0  0  0  0  0  0  0  0  0  0  0
   45.8833   11.5690   19.6991 H   0  0  0  0  0  0  0  0  0  0  0  0
   49.2214   13.9049   21.0104 H   0  0  0  0  0  0  0  0  0  0  0  0
   50.7869   12.2539   20.0277 H   0  0  0  0  0  0  0  0  0  0  0  0
   52.9911   10.0073   15.5484 H   0  0  0  0  0  0  0  0  0  0  0  0
   53.5421    7.9312   14.2769 H   0  0  0  0  0  0  0  0  0  0  0  0
   52.3695    6.9655   15.2792 H   0  0  0  0  0  0  0  0  0  0  0  0
   50.4894    8.4518   14.5249 H   0  0  0  0  0  0  0  0  0  0  0  0
   51.6486    9.4328   13.5236 H   0  0  0  0  0  0  0  0  0  0  0  0
   50.6436   14.7701   15.6355 H   0  0  0  0  0  0  0  0  0  0  0  0
   49.5053   15.6262   14.5637 H   0  0  0  0  0  0  0  0  0  0  0  0
   52.9828   16.1834   14.8193 H   0  0  0  0  0  0  0  0  0  0  0  0
   53.1738   15.1700   16.8162 H   0  0  0  0  0  0  0  0  0  0  0  0
   52.3340   13.0180   15.9747 H   0  0  0  0  0  0  0  0  0  0  0  0
   50.7370   13.6771   15.7318 H   0  0  0  0  0  0  0  0  0  0  0  0
   50.4260   13.9016   18.2285 H   0  0  0  0  0  0  0  0  0  0  0  0
   52.3850   14.3437   18.9315 H   0  0  0  0  0  0  0  0  0  0  0  0
   51.2343   11.2415   18.6611 H   0  0  0  0  0  0  0  0  0  0  0  0
   49.3926   11.8855   16.2602 H   0  0  0  0  0  0  0  0  0  0  0  0
   48.8256    5.3141   15.9473 H   0  0  0  0  0  0  0  0  0  0  0  0
   47.4722    4.1522   17.6617 H   0  0  0  0  0  0  0  0  0  0  0  0
   46.6721    5.4058   19.6577 H   0  0  0  0  0  0  0  0  0  0  0  0
   47.2185    7.7805   19.9107 H   0  0  0  0  0  0  0  0  0  0  0  0
   49.8520    9.3160   20.6133 H   0  0  0  0  0  0  0  0  0  0  0  0
   49.1697   10.6691   22.5759 H   0  0  0  0  0  0  0  0  0  0  0  0
   46.0912   12.5370   20.2544 H   0  0  0  0  0  0  0  0  0  0  0  0
   46.7348   11.1801   18.2757 H   0  0  0  0  0  0  0  0  0  0  0  0
   51.6733   10.0044   15.1369 H   0  0  0  0  0  0  0  0  0  0  0  0
   48.9267   10.3702   13.6955 H   0  0  0  0  0  0  0  0  0  0  0  0
   50.4924   11.1996   13.2909 H   0  0  0  0  0  0  0  0  0  0  0  0
   49.9863    8.1300   13.3182 H   0  0  0  0  0  0  0  0  0  0  0  0
   51.5588    8.9412   12.9045 H   0  0  0  0  0  0  0  0  0  0  0  0
   50.2639   16.0567   16.3400 H   0  0  0  0  0  0  0  0  0  0  0  0
   51.5934   17.1876   16.1697 H   0  0  0  0  0  0  0  0  0  0  0  0
  2  1  1  0
  2  3  1  0
  3  4  1  0
  4  5  1  0
  4  6  1  0
  6  7  2  0
  7  8  1  0
  8  9  2  0
  9 10  1  0
 10 11  2  0
 11 12  1  0
 12 13  2  0
 13 14  1  0
 14 15  2  0
 15 16  1  0
 11 16  1  0
 16 17  2  0
  8 17  1  0
 17 18  1  0
 18 19  2  0
 19 20  1  0
 20 21  2  0
 21 22  1  0
 21 23  1  0
 23 24  2  0
 18 24  1  0
  9 25  1  0
 25 26  1  0
 26 27  1  0
 25 27  1  0
  2 28  1  0
 28 29  1  0
 29 30  2  0
 29 31  1  0
 34 33  1  0
 34 35  1  0
 35 36  1  0
 36 37  1  0
 36 38  1  0
 38 39  2  0
 39 40  1  0
 40 41  2  0
 41 42  1  0
 42 43  2  0
 43 44  1  0
 44 45  2  0
 45 46  1  0
 46 47  2  0
 47 48  1  0
 43 48  1  0
 48 49  2  0
 40 49  1  0
 49 50  1  0
 50 51  2  0
 51 52  1  0
 52 53  2  0
 53 54  1  0
 53 55  1  0
 55 56  2  0
 50 56  1  0
 41 57  1  0
 57 58  1  0
 58 59  1  0
 57 59  1  0
 34 60  1  0
 60 61  1  0
 61 62  2  0
 61 63  1  0
  1 64  1  0
  2 65  1  6
  3 66  1  0
  3 67  1  0
  4 68  1  1
  5 69  1  0
  6 70  1  0
  7 71  1  0
 12 72  1  0
 13 73  1  0
 14 74  1  0
 15 75  1  0
 19 76  1  0
 20 77  1  0
 23 78  1  0
 24 79  1  0
 25 80  1  0
 26 81  1  0
 26 82  1  0
 27 83  1  0
 27 84  1  0
 28 85  1  0
 28 86  1  0
 33 87  1  0
 34 88  1  1
 35 89  1  0
 35 90  1  0
 36 91  1  6
 37 92  1  0
 38 93  1  0
 39 94  1  0
 44 95  1  0
 45 96  1  0
 46 97  1  0
 47 98  1  0
 51 99  1  0
 52100  1  0
 55101  1  0
 56102  1  0
 57103  1  0
 58104  1  0
 58105  1  0
 59106  1  0
 59107  1  0
 60108  1  0
 60109  1  0
M  CHG  3  31  -1  32   2  63  -1
M  END
> <Uni-Dock RESULT> 
ENERGY=   -4.900  LOWER_BOUND=    3.055  UPPER_BOUND=    4.899
INTER + INTRA:          -4.900
INTER:                  -4.900
INTRA:                   0.000
UNBOUND:                 0.000

$$$$

     RDKit          3D

109114  0  0  0  0  0  0  0  0999 V2000
   47.7532   12.2204   12.0618 O   0  0  0  0  0  0  0  0  0  0  0  0
   47.0074   12.8672   11.0327 C   0  0  2  0  0  0  0  0  0  0  0  0
   47.5033   12.3742    9.6679 C   0  0  0  0  0  0  0  0  0  0  0  0
   48.9597   12.7117    9.3100 C   0  0  2  0  0  0  0  0  0  0  0  0
   49.1247   12.5545    7.8905 O   0  0  0  0  0  0  0  0  0  0  0  0
   50.0040   11.8308    9.9306 C   0  0  0  0  0  0  0  0  0  0  0  0
   50.8662   12.2451   10.8769 C   0  0  0  0  0  0  0  0  0  0  0  0
   51.9884   11.4187   11.3606 C   0  0  0  0  0  0  0  0  0  0  0  0
   53.2967   11.7925   10.9911 C   0  0  0  0  0  0  0  0  0  0  0  0
   54.3826   11.0896   11.4098 N   0  0  0  0  0  0  0  0  0  0  0  0
   54.2166   10.0136   12.1886 C   0  0  0  0  0  0  0  0  0  0  0  0
   55.3581    9.3306   12.5894 C   0  0  0  0  0  0  0  0  0  0  0  0
   55.2995    8.2065   13.4157 C   0  0  0  0  0  0  0  0  0  0  0  0
   54.0676    7.7490   13.8595 C   0  0  0  0  0  0  0  0  0  0  0  0
   52.9089    8.4172   13.4639 C   0  0  0  0  0  0  0  0  0  0  0  0
   52.9559    9.5607   12.6231 C   0  0  0  0  0  0  0  0  0  0  0  0
   51.8087   10.2945   12.2010 C   0  0  0  0  0  0  0  0  0  0  0  0
   50.4608    9.8797   12.6531 C   0  0  0  0  0  0  0  0  0  0  0  0
   49.7533    8.8753   11.9662 C   0  0  0  0  0  0  0  0  0  0  0  0
   48.4988    8.4539   12.4147 C   0  0  0  0  0  0  0  0  0  0  0  0
   47.9454    9.0317   13.5516 C   0  0  0  0  0  0  0  0  0  0  0  0
   46.7515    8.6120   13.9926 F   0  0  0  0  0  0  0  0  0  0  0  0
   48.6240   10.0220   14.2492 C   0  0  0  0  0  0  0  0  0  0  0  0
   49.8757   10.4501   13.7972 C   0  0  0  0  0  0  0  0  0  0  0  0
   53.5729   13.0172   10.1296 C   0  0  0  0  0  0  0  0  0  0  0  0
   54.7376   13.0344    9.1622 C   0  0  0  0  0  0  0  0  0  0  0  0
   53.3352   12.9388    8.6367 C   0  0  0  0  0  0  0  0  0  0  0  0
   47.1026   14.3808   11.2020 C   0  0  0  0  0  0  0  0  0  0  0  0
   46.2732   14.7835   12.4224 C   0  0  0  0  0  0  0  0  0  0  0  0
   45.5193   15.7825   12.2565 O   0  0  0  0  0  0  0  0  0  0  0  0
   46.4451   14.0557   13.4472 O   0  0  0  0  0  0  0  0  0  0  0  0
   50.6067   11.3404   11.4588 Mg  0  0  0  0  0 15  0  0  0  0  0  0
   48.8341   16.6810   11.6733 O   0  0  0  0  0  0  0  0  0  0  0  0
   48.8311   15.6388   12.6745 C   0  0  2  0  0  0  0  0  0  0  0  0
   49.5735   14.4462   12.0583 C   0  0  0  0  0  0  0  0  0  0  0  0
   49.7542   13.2202   12.9652 C   0  0  2  0  0  0  0  0  0  0  0  0
   50.3955   13.6092   14.1753 O   0  0  0  0  0  0  0  0  0  0  0  0
   50.6214   12.1481   12.3505 C   0  0  0  0  0  0  0  0  0  0  0  0
   50.4714   11.6802   11.0994 C   0  0  0  0  0  0  0  0  0  0  0  0
   51.3706   10.6855   10.4873 C   0  0  0  0  0  0  0  0  0  0  0  0
   52.2078   11.1033    9.4364 C   0  0  0  0  0  0  0  0  0  0  0  0
   53.0489   10.2341    8.8153 N   0  0  0  0  0  0  0  0  0  0  0  0
   53.0734    8.9478    9.1826 C   0  0  0  0  0  0  0  0  0  0  0  0
   53.9373    8.1042    8.4969 C   0  0  0  0  0  0  0  0  0  0  0  0
   54.0346    6.7446    8.7963 C   0  0  0  0  0  0  0  0  0  0  0  0
   53.2536    6.2125    9.8099 C   0  0  0  0  0  0  0  0  0  0  0  0
   52.3777    7.0417   10.5108 C   0  0  0  0  0  0  0  0  0  0  0  0
   52.2705    8.4271   10.2163 C   0  0  0  0  0  0  0  0  0  0  0  0
   51.4027    9.3314   10.8958 C   0  0  0  0  0  0  0  0  0  0  0  0
   50.5576    8.8550   12.0123 C   0  0  0  0  0  0  0  0  0  0  0  0
   51.1203    8.6248   13.2824 C   0  0  0  0  0  0  0  0  0  0  0  0
   50.3312    8.1739   14.3427 C   0  0  0  0  0  0  0  0  0  0  0  0
   48.9744    7.9585   14.1387 C   0  0  0  0  0  0  0  0  0  0  0  0
   48.2208    7.5174   15.1556 F   0  0  0  0  0  0  0  0  0  0  0  0
   48.3910    8.1834   12.8980 C   0  0  0  0  0  0  0  0  0  0  0  0
   49.1816    8.6296   11.8362 C   0  0  0  0  0  0  0  0  0  0  0  0
   52.2364   12.5523    8.9654 C   0  0  0  0  0  0  0  0  0  0  0  0
   51.2077   13.0270    7.9603 C   0  0  0  0  0  0  0  0  0  0  0  0
   52.6421   12.9086    7.5549 C   0  0  0  0  0  0  0  0  0  0  0  0
   47.3771   15.3519   13.0404 C   0  0  0  0  0  0  0  0  0  0  0  0
   47.1584   14.7183   14.4115 C   0  0  0  0  0  0  0  0  0  0  0  0
   45.9639   14.3871   14.6530 O   0  0  0  0  0  0  0  0  0  0  0  0
   48.1900   14.5811   15.1301 O   0  0  0  0  0  0  0  0  0  0  0  0
   47.4052   12.6307   12.8950 H   0  0  0  0  0  0  0  0  0  0  0  0
   45.9651   12.5411   11.1434 H   0  0  0  0  0  0  0  0  0  0  0  0
   47.3781   11.2841    9.6163 H   0  0  0  0  0  0  0  0  0  0  0  0
   46.8501   12.7845    8.8871 H   0  0  0  0  0  0  0  0  0  0  0  0
   49.1769   13.7652    9.5144 H   0  0  0  0  0  0  0  0  0  0  0  0
   48.7854   11.6706    7.6630 H   0  0  0  0  0  0  0  0  0  0  0  0
   50.0819   10.8176    9.5406 H   0  0  0  0  0  0  0  0  0  0  0  0
   50.8080   13.2552   11.2777 H   0  0  0  0  0  0  0  0  0  0  0  0
   56.3250    9.6936   12.2477 H   0  0  0  0  0  0  0  0  0  0  0  0
   56.2144    7.7012   13.7146 H   0  0  0  0  0  0  0  0  0  0  0  0
   54.0043    6.8806   14.5087 H   0  0  0  0  0  0  0  0  0  0  0  0
   51.9542    8.0378   13.8245 H   0  0  0  0  0  0  0  0  0  0  0  0
   50.1730    8.4229   11.0703 H   0  0  0  0  0  0  0  0  0  0  0  0
   47.9434    7.6883   11.8853 H   0  0  0  0  0  0  0  0  0  0  0  0
   48.1654   10.4866   15.1161 H   0  0  0  0  0  0  0  0  0  0  0  0
   50.3884   11.2484   14.3284 H   0  0  0  0  0  0  0  0  0  0  0  0
   53.3374   13.9694   10.6043 H   0  0  0  0  0  0  0  0  0  0  0  0
   55.2710   13.9669    9.0257 H   0  0  0  0  0  0  0  0  0  0  0  0
   55.3644   12.1505    9.0897 H   0  0  0  0  0  0  0  0  0  0  0  0
   53.0145   11.9914    8.2149 H   0  0  0  0  0  0  0  0  0  0  0  0
   52.9008   13.8058    8.1518 H   0  0  0  0  0  0  0  0  0  0  0  0
   48.1350   14.6977   11.3843 H   0  0  0  0  0  0  0  0  0  0  0  0
   46.7234   14.8992   10.3147 H   0  0  0  0  0  0  0  0  0  0  0  0
   48.4015   17.4482   12.0910 H   0  0  0  0  0  0  0  0  0  0  0  0
   49.3986   16.0326   13.5238 H   0  0  0  0  0  0  0  0  0  0  0  0
   50.5649   14.8078   11.7394 H   0  0  0  0  0  0  0  0  0  0  0  0
   49.0632   14.1626   11.1293 H   0  0  0  0  0  0  0  0  0  0  0  0
   48.7922   12.7629   13.2146 H   0  0  0  0  0  0  0  0  0  0  0  0
   49.6572   13.9728   14.7362 H   0  0  0  0  0  0  0  0  0  0  0  0
   51.4111   11.7588   12.9919 H   0  0  0  0  0  0  0  0  0  0  0  0
   49.6898   12.0586   10.4389 H   0  0  0  0  0  0  0  0  0  0  0  0
   54.5503    8.5253    7.7013 H   0  0  0  0  0  0  0  0  0  0  0  0
   54.7171    6.1152    8.2347 H   0  0  0  0  0  0  0  0  0  0  0  0
   53.3132    5.1555   10.0522 H   0  0  0  0  0  0  0  0  0  0  0  0
   51.7694    6.5954   11.2952 H   0  0  0  0  0  0  0  0  0  0  0  0
   52.1758    8.8211   13.4558 H   0  0  0  0  0  0  0  0  0  0  0  0
   50.7629    8.0102   15.3252 H   0  0  0  0  0  0  0  0  0  0  0  0
   47.3225    8.0300   12.7720 H   0  0  0  0  0  0  0  0  0  0  0  0
   48.7142    8.8207   10.8723 H   0  0  0  0  0  0  0  0  0  0  0  0
   52.5241   13.2717    9.7338 H   0  0  0  0  0  0  0  0  0  0  0  0
   50.5113   12.3080    7.5485 H   0  0  0  0  0  0  0  0  0  0  0  0
   50.7876   14.0167    8.1027 H   0  0  0  0  0  0  0  0  0  0  0  0
   52.9182   12.1094    6.8771 H   0  0  0  0  0  0  0  0  0  0  0  0
   53.2128   13.8183    7.4199 H   0  0  0  0  0  0  0  0  0  0  0  0
   46.9104   14.7163   12.2762 H   0  0  0  0  0  0  0  0  0  0  0  0
   46.8130   16.2916   13.0405 H   0  0  0  0  0  0  0  0  0  0  0  0
  2  1  1  0
  2  3  1  0
  3  4  1  0
  4  5  1  0
  4  6  1  0
  6  7  2  0
  7  8  1  0
  8  9  2  0
  9 10  1  0
 10 11  2  0
 11 12  1  0
 12 13  2  0
 13 14  1  0
 14 15  2  0
 15 16  1  0
 11 16  1  0
 16 17  2  0
  8 17  1  0
 17 18  1  0
 18 19  2  0
 19 20  1  0
 20 21  2  0
 21 22  1  0
 21 23  1  0
 23 24  2  0
 18 24  1  0
  9 25  1  0
 25 26  1  0
 26 27  1  0
 25 27  1  0
  2 28  1  0
 28 29  1  0
 29 30  2  0
 29 31  1  0
 34 33  1  0
 34 35  1  0
 35 36  1  0
 36 37  1  0
 36 38  1  0
 38 39  2  0
 39 40  1  0
 40 41  2  0
 41 42  1  0
 42 43  2  0
 43 44  1  0
 44 45  2  0
 45 46  1  0
 46 47  2  0
 47 48  1  0
 43 48  1  0
 48 49  2  0
 40 49  1  0
 49 50  1  0
 50 51  2  0
 51 52  1  0
 52 53  2  0
 53 54  1  0
 53 55  1  0
 55 56  2  0
 50 56  1  0
 41 57  1  0
 57 58  1  0
 58 59  1  0
 57 59  1  0
 34 60  1  0
 60 61  1  0
 61 62  2  0
 61 63  1  0
  1 64  1  0
  2 65  1  6
  3 66  1  0
  3 67  1  0
  4 68  1  1
  5 69  1  0
  6 70  1  0
  7 71  1  0
 12 72  1  0
 13 73  1  0
 14 74  1  0
 15 75  1  0
 19 76  1  0
 20 77  1  0
 23 78  1  0
 24 79  1  0
 25 80  1  0
 26 81  1  0
 26 82  1  0
 27 83  1  0
 27 84  1  0
 28 85  1  0
 28 86  1  0
 33 87  1  0
 34 88  1  1
 35 89  1  0
 35 90  1  0
 36 91  1  6
 37 92  1  0
 38 93  1  0
 39 94  1  0
 44 95  1  0
 45 96  1  0
 46 97  1  0
 47 98  1  0
 51 99  1  0
 52100  1  0
 55101  1  0
 56102  1  0
 57103  1  0
 58104  1  0
 58105  1  0
 59106  1  0
 59107  1  0
 60108  1  0
 60109  1  0
M  CHG  3  31  -1  32   2  63  -1
M  END
> <Uni-Dock RESULT> 
ENERGY=   -4.785  LOWER_BOUND=    6.066  UPPER_BOUND=    9.164
INTER + INTRA:          -4.785
INTER:                  -4.785
INTRA:                   0.000
UNBOUND:                 0.000

$$$$
