
     RDKit          3D

109114  0  0  0  0  0  0  0  0999 V2000
   49.4563   10.3708   13.0707 O   0  0  0  0  0  0  0  0  0  0  0  0
   48.2233    9.7589   13.4587 C   0  0  2  0  0  0  0  0  0  0  0  0
   48.4088    8.9151   14.7349 C   0  0  0  0  0  0  0  0  0  0  0  0
   48.2297    9.7426   16.0185 C   0  0  2  0  0  0  0  0  0  0  0  0
   49.3031   10.6578   16.2034 O   0  0  0  0  0  0  0  0  0  0  0  0
   48.1088    8.8415   17.2268 C   0  0  0  0  0  0  0  0  0  0  0  0
   48.9871    8.7377   18.2357 C   0  0  0  0  0  0  0  0  0  0  0  0
   48.7305    7.8461   19.3819 C   0  0  0  0  0  0  0  0  0  0  0  0
   49.0601    6.4815   19.3005 C   0  0  0  0  0  0  0  0  0  0  0  0
   48.7979    5.6369   20.3310 N   0  0  0  0  0  0  0  0  0  0  0  0
   48.2065    6.0936   21.4431 C   0  0  0  0  0  0  0  0  0  0  0  0
   47.9426    5.1873   22.4601 C   0  0  0  0  0  0  0  0  0  0  0  0
   47.3195    5.5670   23.6506 C   0  0  0  0  0  0  0  0  0  0  0  0
   46.9780    6.8968   23.8431 C   0  0  0  0  0  0  0  0  0  0  0  0
   47.2421    7.8297   22.8403 C   0  0  0  0  0  0  0  0  0  0  0  0
   47.8494    7.4455   21.6208 C   0  0  0  0  0  0  0  0  0  0  0  0
   48.1259    8.3465   20.5582 C   0  0  0  0  0  0  0  0  0  0  0  0
   47.7910    9.7850   20.6654 C   0  0  0  0  0  0  0  0  0  0  0  0
   46.5373   10.2696   20.2478 C   0  0  0  0  0  0  0  0  0  0  0  0
   46.2338   11.6287   20.3441 C   0  0  0  0  0  0  0  0  0  0  0  0
   47.1797   12.5082   20.8559 C   0  0  0  0  0  0  0  0  0  0  0  0
   46.8880   13.8129   20.9559 F   0  0  0  0  0  0  0  0  0  0  0  0
   48.4228   12.0554   21.2814 C   0  0  0  0  0  0  0  0  0  0  0  0
   48.7312   10.6979   21.1771 C   0  0  0  0  0  0  0  0  0  0  0  0
   49.7179    5.8801   18.0686 C   0  0  0  0  0  0  0  0  0  0  0  0
   51.1933    6.1060   17.8289 C   0  0  0  0  0  0  0  0  0  0  0  0
   50.7009    4.7387   18.1938 C   0  0  0  0  0  0  0  0  0  0  0  0
   47.6550    8.9681   12.2824 C   0  0  0  0  0  0  0  0  0  0  0  0
   48.4920    7.7454   11.9187 C   0  0  0  0  0  0  0  0  0  0  0  0
   49.7477    7.9074   11.9949 O   0  0  0  0  0  0  0  0  0  0  0  0
   47.8254    6.7233   11.5889 O   0  0  0  0  0  0  0  0  0  0  0  0
   48.3901    8.4116   18.2696 Mg  0  0  0  0  0 15  0  0  0  0  0  0
   48.5195    6.9764   13.5794 O   0  0  0  0  0  0  0  0  0  0  0  0
   48.9191    8.3560   13.4327 C   0  0  2  0  0  0  0  0  0  0  0  0
   49.4282    8.8341   14.8062 C   0  0  0  0  0  0  0  0  0  0  0  0
   48.3219    9.1861   15.8104 C   0  0  2  0  0  0  0  0  0  0  0  0
   48.1018   10.5899   15.8757 O   0  0  0  0  0  0  0  0  0  0  0  0
   48.7237    8.7937   17.2071 C   0  0  0  0  0  0  0  0  0  0  0  0
   48.0002    7.9807   17.9949 C   0  0  0  0  0  0  0  0  0  0  0  0
   48.3954    7.5789   19.3546 C   0  0  0  0  0  0  0  0  0  0  0  0
   48.6651    6.2159   19.5925 C   0  0  0  0  0  0  0  0  0  0  0  0
   49.0200    5.7697   20.8254 N   0  0  0  0  0  0  0  0  0  0  0  0
   49.1168    6.6296   21.8443 C   0  0  0  0  0  0  0  0  0  0  0  0
   49.4617    6.1161   23.0879 C   0  0  0  0  0  0  0  0  0  0  0  0
   49.5676    6.9221   24.2248 C   0  0  0  0  0  0  0  0  0  0  0  0
   49.3186    8.2818   24.1188 C   0  0  0  0  0  0  0  0  0  0  0  0
   48.9616    8.8190   22.8813 C   0  0  0  0  0  0  0  0  0  0  0  0
   48.8588    8.0086   21.7182 C   0  0  0  0  0  0  0  0  0  0  0  0
   48.4907    8.4940   20.4309 C   0  0  0  0  0  0  0  0  0  0  0  0
   48.1899    9.9298   20.2440 C   0  0  0  0  0  0  0  0  0  0  0  0
   46.8589   10.3867   20.2381 C   0  0  0  0  0  0  0  0  0  0  0  0
   46.5757   11.7406   20.0660 C   0  0  0  0  0  0  0  0  0  0  0  0
   47.6158   12.6496   19.9184 C   0  0  0  0  0  0  0  0  0  0  0  0
   47.3386   13.9531   19.7782 F   0  0  0  0  0  0  0  0  0  0  0  0
   48.9387   12.2253   19.9245 C   0  0  0  0  0  0  0  0  0  0  0  0
   49.2283   10.8671   20.0815 C   0  0  0  0  0  0  0  0  0  0  0  0
   48.5729    5.1788   18.4838 C   0  0  0  0  0  0  0  0  0  0  0  0
   47.2466    4.5066   18.1948 C   0  0  0  0  0  0  0  0  0  0  0  0
   48.3638    3.7154   18.7925 C   0  0  0  0  0  0  0  0  0  0  0  0
   47.7637    9.0990   12.7714 C   0  0  0  0  0  0  0  0  0  0  0  0
   48.1246   10.5276   12.4023 C   0  0  0  0  0  0  0  0  0  0  0  0
   48.4717   11.2549   13.3729 O   0  0  0  0  0  0  0  0  0  0  0  0
   47.9890   10.8159   11.1843 O   0  0  0  0  0  0  0  0  0  0  0  0
   49.9799    9.6215   12.6851 H   0  0  0  0  0  0  0  0  0  0  0  0
   47.5252   10.5797   13.6632 H   0  0  0  0  0  0  0  0  0  0  0  0
   47.6687    8.1047   14.7425 H   0  0  0  0  0  0  0  0  0  0  0  0
   49.4076    8.4603   14.7344 H   0  0  0  0  0  0  0  0  0  0  0  0
   47.3058   10.3347   15.9465 H   0  0  0  0  0  0  0  0  0  0  0  0
   49.0192   11.2798   16.8953 H   0  0  0  0  0  0  0  0  0  0  0  0
   47.2022    8.2418   17.2531 H   0  0  0  0  0  0  0  0  0  0  0  0
   49.9153    9.2955   18.2439 H   0  0  0  0  0  0  0  0  0  0  0  0
   48.2285    4.1482   22.3125 H   0  0  0  0  0  0  0  0  0  0  0  0
   47.1175    4.8229   24.4155 H   0  0  0  0  0  0  0  0  0  0  0  0
   46.4976    7.2055   24.7661 H   0  0  0  0  0  0  0  0  0  0  0  0
   46.9608    8.8661   23.0234 H   0  0  0  0  0  0  0  0  0  0  0  0
   45.7932    9.5889   19.8311 H   0  0  0  0  0  0  0  0  0  0  0  0
   45.2711   12.0092   20.0180 H   0  0  0  0  0  0  0  0  0  0  0  0
   49.1464   12.7603   21.6794 H   0  0  0  0  0  0  0  0  0  0  0  0
   49.7101   10.3433   21.5015 H   0  0  0  0  0  0  0  0  0  0  0  0
   49.0886    5.8670   17.1802 H   0  0  0  0  0  0  0  0  0  0  0  0
   51.7535    6.6630   18.5704 H   0  0  0  0  0  0  0  0  0  0  0  0
   51.5308    6.2595   16.8087 H   0  0  0  0  0  0  0  0  0  0  0  0
   50.9214    4.3536   19.1835 H   0  0  0  0  0  0  0  0  0  0  0  0
   50.6899    3.9803   17.4160 H   0  0  0  0  0  0  0  0  0  0  0  0
   47.6123    9.6013   11.3876 H   0  0  0  0  0  0  0  0  0  0  0  0
   46.6327    8.6569   12.5200 H   0  0  0  0  0  0  0  0  0  0  0  0
   48.2784    6.6761   12.6856 H   0  0  0  0  0  0  0  0  0  0  0  0
   49.7795    8.3493   12.7522 H   0  0  0  0  0  0  0  0  0  0  0  0
   50.0514    8.0261   15.2160 H   0  0  0  0  0  0  0  0  0  0  0  0
   50.0858    9.6969   14.6597 H   0  0  0  0  0  0  0  0  0  0  0  0
   47.3728    8.7082   15.5471 H   0  0  0  0  0  0  0  0  0  0  0  0
   48.2235   10.9488   14.9575 H   0  0  0  0  0  0  0  0  0  0  0  0
   49.6525    9.2312   17.5636 H   0  0  0  0  0  0  0  0  0  0  0  0
   47.0776    7.5443   17.6208 H   0  0  0  0  0  0  0  0  0  0  0  0
   49.6500    5.0477   23.1771 H   0  0  0  0  0  0  0  0  0  0  0  0
   49.8333    6.4850   25.1821 H   0  0  0  0  0  0  0  0  0  0  0  0
   49.3892    8.9269   24.9897 H   0  0  0  0  0  0  0  0  0  0  0  0
   48.7654    9.8891   22.8297 H   0  0  0  0  0  0  0  0  0  0  0  0
   46.0397    9.6802   20.3328 H   0  0  0  0  0  0  0  0  0  0  0  0
   45.5519   12.0920   20.0375 H   0  0  0  0  0  0  0  0  0  0  0  0
   49.7370   12.9459   19.7962 H   0  0  0  0  0  0  0  0  0  0  0  0
   50.2628   10.5355   20.0810 H   0  0  0  0  0  0  0  0  0  0  0  0
   49.2080    5.3821   17.6256 H   0  0  0  0  0  0  0  0  0  0  0  0
   46.9981    4.3386   17.1570 H   0  0  0  0  0  0  0  0  0  0  0  0
   46.3984    4.7393   18.8216 H   0  0  0  0  0  0  0  0  0  0  0  0
   48.8563    2.9907   18.1635 H   0  0  0  0  0  0  0  0  0  0  0  0
   48.2962    3.4186   19.8314 H   0  0  0  0  0  0  0  0  0  0  0  0
   47.4632    8.5618   11.8612 H   0  0  0  0  0  0  0  0  0  0  0  0
   46.8657    9.1028   13.3987 H   0  0  0  0  0  0  0  0  0  0  0  0
  2  1  1  0
  2  3  1  0
  3  4  1  0
  4  5  1  0
  4  6  1  0
  6  7  2  0
  7  8  1  0
  8  9  2  0
  9 10  1  0
 10 11  2  0
 11 12  1  0
 12 13  2  0
 13 14  1  0
 14 15  2  0
 15 16  1  0
 11 16  1  0
 16 17  2  0
  8 17  1  0
 17 18  1  0
 18 19  2  0
 19 20  1  0
 20 21  2  0
 21 22  1  0
 21 23  1  0
 23 24  2  0
 18 24  1  0
  9 25  1  0
 25 26  1  0
 26 27  1  0
 25 27  1  0
  2 28  1  0
 28 29  1  0
 29 30  2  0
 29 31  1  0
 34 33  1  0
 34 35  1  0
 35 36  1  0
 36 37  1  0
 36 38  1  0
 38 39  2  0
 39 40  1  0
 40 41  2  0
 41 42  1  0
 42 43  2  0
 43 44  1  0
 44 45  2  0
 45 46  1  0
 46 47  2  0
 47 48  1  0
 43 48  1  0
 48 49  2  0
 40 49  1  0
 49 50  1  0
 50 51  2  0
 51 52  1  0
 52 53  2  0
 53 54  1  0
 53 55  1  0
 55 56  2  0
 50 56  1  0
 41 57  1  0
 57 58  1  0
 58 59  1  0
 57 59  1  0
 34 60  1  0
 60 61  1  0
 61 62  2  0
 61 63  1  0
  1 64  1  0
  2 65  1  6
  3 66  1  0
  3 67  1  0
  4 68  1  6
  5 69  1  0
  6 70  1  0
  7 71  1  0
 12 72  1  0
 13 73  1  0
 14 74  1  0
 15 75  1  0
 19 76  1  0
 20 77  1  0
 23 78  1  0
 24 79  1  0
 25 80  1  0
 26 81  1  0
 26 82  1  0
 27 83  1  0
 27 84  1  0
 28 85  1  0
 28 86  1  0
 33 87  1  0
 34 88  1  1
 35 89  1  0
 35 90  1  0
 36 91  1  1
 37 92  1  0
 38 93  1  0
 39 94  1  0
 44 95  1  0
 45 96  1  0
 46 97  1  0
 47 98  1  0
 51 99  1  0
 52100  1  0
 55101  1  0
 56102  1  0
 57103  1  0
 58104  1  0
 58105  1  0
 59106  1  0
 59107  1  0
 60108  1  0
 60109  1  0
M  CHG  3  31  -1  32   2  63  -1
M  END
> <Uni-Dock RESULT> 
ENERGY=   -9.018  LOWER_BOUND=    0.000  UPPER_BOUND=    0.000
INTER + INTRA:          -9.018
INTER:                  -9.018
INTRA:                   0.000
UNBOUND:                 0.000

$$$$

     RDKit          3D

109114  0  0  0  0  0  0  0  0999 V2000
   43.3709    3.8840   12.3082 O   0  0  0  0  0  0  0  0  0  0  0  0
   44.6826    3.4852   11.9011 C   0  0  2  0  0  0  0  0  0  0  0  0
   45.7171    4.5746   12.2447 C   0  0  0  0  0  0  0  0  0  0  0  0
   46.2762    4.4267   13.6695 C   0  0  2  0  0  0  0  0  0  0  0  0
   45.2946    4.7399   14.6504 O   0  0  0  0  0  0  0  0  0  0  0  0
   47.4938    5.3022   13.8631 C   0  0  0  0  0  0  0  0  0  0  0  0
   47.5903    6.3666   14.6740 C   0  0  0  0  0  0  0  0  0  0  0  0
   48.8541    7.1155   14.8030 C   0  0  0  0  0  0  0  0  0  0  0  0
   49.1745    8.1218   13.8743 C   0  0  0  0  0  0  0  0  0  0  0  0
   50.3498    8.7972   13.9540 N   0  0  0  0  0  0  0  0  0  0  0  0
   51.2318    8.5037   14.9190 C   0  0  0  0  0  0  0  0  0  0  0  0
   52.4265    9.2090   14.9465 C   0  0  0  0  0  0  0  0  0  0  0  0
   53.4110    8.9658   15.9063 C   0  0  0  0  0  0  0  0  0  0  0  0
   53.1825    8.0115   16.8855 C   0  0  0  0  0  0  0  0  0  0  0  0
   51.9851    7.2959   16.8862 C   0  0  0  0  0  0  0  0  0  0  0  0
   50.9947    7.5197   15.9000 C   0  0  0  0  0  0  0  0  0  0  0  0
   49.7659    6.8102   15.8397 C   0  0  0  0  0  0  0  0  0  0  0  0
   49.4331    5.7663   16.8361 C   0  0  0  0  0  0  0  0  0  0  0  0
   49.7862    4.4209   16.6206 C   0  0  0  0  0  0  0  0  0  0  0  0
   49.4603    3.4423   17.5611 C   0  0  0  0  0  0  0  0  0  0  0  0
   48.7807    3.8022   18.7182 C   0  0  0  0  0  0  0  0  0  0  0  0
   48.4727    2.8652   19.6263 F   0  0  0  0  0  0  0  0  0  0  0  0
   48.4258    5.1242   18.9589 C   0  0  0  0  0  0  0  0  0  0  0  0
   48.7428    6.1025   18.0149 C   0  0  0  0  0  0  0  0  0  0  0  0
   48.2368    8.5046   12.7403 C   0  0  0  0  0  0  0  0  0  0  0  0
   47.0245    9.3584   13.0345 C   0  0  0  0  0  0  0  0  0  0  0  0
   48.1618    9.9304   12.2441 C   0  0  0  0  0  0  0  0  0  0  0  0
   44.6638    3.1074   10.4218 C   0  0  0  0  0  0  0  0  0  0  0  0
   44.4155    4.2974    9.4998 C   0  0  0  0  0  0  0  0  0  0  0  0
   43.5709    5.1432    9.9239 O   0  0  0  0  0  0  0  0  0  0  0  0
   45.0866    4.2897    8.4286 O   0  0  0  0  0  0  0  0  0  0  0  0
   48.1426    6.1352   14.3494 Mg  0  0  0  0  0 15  0  0  0  0  0  0
   45.7603    5.3676   10.1293 O   0  0  0  0  0  0  0  0  0  0  0  0
   44.8142    4.8001   11.0605 C   0  0  2  0  0  0  0  0  0  0  0  0
   45.1286    5.3887   12.4492 C   0  0  0  0  0  0  0  0  0  0  0  0
   46.3259    4.7430   13.1606 C   0  0  2  0  0  0  0  0  0  0  0  0
   45.9069    3.7876   14.1276 O   0  0  0  0  0  0  0  0  0  0  0  0
   47.0994    5.7699   13.9436 C   0  0  0  0  0  0  0  0  0  0  0  0
   48.4125    6.0037   13.7811 C   0  0  0  0  0  0  0  0  0  0  0  0
   49.1715    7.0179   14.5305 C   0  0  0  0  0  0  0  0  0  0  0  0
   49.7288    8.0954   13.8125 C   0  0  0  0  0  0  0  0  0  0  0  0
   50.4545    9.0602   14.4350 N   0  0  0  0  0  0  0  0  0  0  0  0
   50.6545    8.9980   15.7552 C   0  0  0  0  0  0  0  0  0  0  0  0
   51.4224    9.9988   16.3367 C   0  0  0  0  0  0  0  0  0  0  0  0
   51.7129   10.0174   17.7036 C   0  0  0  0  0  0  0  0  0  0  0  0
   51.2254    9.0047   18.5153 C   0  0  0  0  0  0  0  0  0  0  0  0
   50.4591    7.9835   17.9519 C   0  0  0  0  0  0  0  0  0  0  0  0
   50.1521    7.9603   16.5644 C   0  0  0  0  0  0  0  0  0  0  0  0
   49.3844    6.9432   15.9284 C   0  0  0  0  0  0  0  0  0  0  0  0
   48.8477    5.8191   16.7256 C   0  0  0  0  0  0  0  0  0  0  0  0
   49.5192    4.5830   16.7611 C   0  0  0  0  0  0  0  0  0  0  0  0
   49.0154    3.5249   17.5157 C   0  0  0  0  0  0  0  0  0  0  0  0
   47.8517    3.6970   18.2545 C   0  0  0  0  0  0  0  0  0  0  0  0
   47.3855    2.6843   18.9979 F   0  0  0  0  0  0  0  0  0  0  0  0
   47.1716    4.9085   18.2400 C   0  0  0  0  0  0  0  0  0  0  0  0
   47.6637    5.9683   17.4732 C   0  0  0  0  0  0  0  0  0  0  0  0
   49.5462    8.2318   12.3088 C   0  0  0  0  0  0  0  0  0  0  0  0
   50.5243    7.5551   11.3705 C   0  0  0  0  0  0  0  0  0  0  0  0
   50.5044    9.0453   11.4717 C   0  0  0  0  0  0  0  0  0  0  0  0
   44.8402    3.2871   10.8740 C   0  0  0  0  0  0  0  0  0  0  0  0
   43.7601    2.5823   11.6765 C   0  0  0  0  0  0  0  0  0  0  0  0
   43.8232    2.7619   12.9236 O   0  0  0  0  0  0  0  0  0  0  0  0
   42.9680    1.8743   11.0010 O   0  0  0  0  0  0  0  0  0  0  0  0
   43.1106    4.5620   11.6323 H   0  0  0  0  0  0  0  0  0  0  0  0
   44.9139    2.5729   12.4644 H   0  0  0  0  0  0  0  0  0  0  0  0
   46.5550    4.5122   11.5386 H   0  0  0  0  0  0  0  0  0  0  0  0
   45.2583    5.5658   12.1376 H   0  0  0  0  0  0  0  0  0  0  0  0
   46.5819    3.3835   13.8363 H   0  0  0  0  0  0  0  0  0  0  0  0
   45.6430    4.4213   15.5009 H   0  0  0  0  0  0  0  0  0  0  0  0
   48.3618    5.0026   13.2807 H   0  0  0  0  0  0  0  0  0  0  0  0
   46.7476    6.7189   15.2559 H   0  0  0  0  0  0  0  0  0  0  0  0
   52.5944    9.9696   14.1871 H   0  0  0  0  0  0  0  0  0  0  0  0
   54.3387    9.5302   15.8831 H   0  0  0  0  0  0  0  0  0  0  0  0
   53.9378    7.8165   17.6400 H   0  0  0  0  0  0  0  0  0  0  0  0
   51.8374    6.5531   17.6694 H   0  0  0  0  0  0  0  0  0  0  0  0
   50.3073    4.1263   15.7083 H   0  0  0  0  0  0  0  0  0  0  0  0
   49.7244    2.4024   17.3977 H   0  0  0  0  0  0  0  0  0  0  0  0
   47.8961    5.3830   19.8706 H   0  0  0  0  0  0  0  0  0  0  0  0
   48.4559    7.1385   18.1984 H   0  0  0  0  0  0  0  0  0  0  0  0
   48.1024    7.7329   11.9840 H   0  0  0  0  0  0  0  0  0  0  0  0
   46.8790    9.7093   14.0491 H   0  0  0  0  0  0  0  0  0  0  0  0
   46.1035    9.1446   12.5013 H   0  0  0  0  0  0  0  0  0  0  0  0
   48.7980   10.6737   12.7119 H   0  0  0  0  0  0  0  0  0  0  0  0
   48.0117   10.0831   11.1790 H   0  0  0  0  0  0  0  0  0  0  0  0
   43.8634    2.3828   10.2275 H   0  0  0  0  0  0  0  0  0  0  0  0
   45.6148    2.6319   10.1610 H   0  0  0  0  0  0  0  0  0  0  0  0
   45.4919    5.0438    9.2516 H   0  0  0  0  0  0  0  0  0  0  0  0
   43.8307    5.1829   10.7610 H   0  0  0  0  0  0  0  0  0  0  0  0
   45.3227    6.4615   12.3061 H   0  0  0  0  0  0  0  0  0  0  0  0
   44.2360    5.3103   13.0779 H   0  0  0  0  0  0  0  0  0  0  0  0
   46.9893    4.2365   12.4522 H   0  0  0  0  0  0  0  0  0  0  0  0
   45.1022    3.3340   13.7622 H   0  0  0  0  0  0  0  0  0  0  0  0
   46.5247    6.3190   14.6847 H   0  0  0  0  0  0  0  0  0  0  0  0
   48.9718    5.4521   13.0298 H   0  0  0  0  0  0  0  0  0  0  0  0
   51.8140   10.7914   15.7015 H   0  0  0  0  0  0  0  0  0  0  0  0
   52.3219   10.8123   18.1224 H   0  0  0  0  0  0  0  0  0  0  0  0
   51.4429    8.9952   19.5794 H   0  0  0  0  0  0  0  0  0  0  0  0
   50.0953    7.1979   18.6127 H   0  0  0  0  0  0  0  0  0  0  0  0
   50.4183    4.4340   16.1707 H   0  0  0  0  0  0  0  0  0  0  0  0
   49.5170    2.5653   17.5264 H   0  0  0  0  0  0  0  0  0  0  0  0
   46.2592    5.0219   18.8124 H   0  0  0  0  0  0  0  0  0  0  0  0
   47.1285    6.9136   17.4583 H   0  0  0  0  0  0  0  0  0  0  0  0
   48.5096    8.2639   11.9840 H   0  0  0  0  0  0  0  0  0  0  0  0
   50.1143    7.0965   10.4825 H   0  0  0  0  0  0  0  0  0  0  0  0
   51.3692    7.0298   11.7910 H   0  0  0  0  0  0  0  0  0  0  0  0
   50.1026    9.5983   10.6373 H   0  0  0  0  0  0  0  0  0  0  0  0
   51.3219    9.5457   11.9749 H   0  0  0  0  0  0  0  0  0  0  0  0
   44.7023    3.0524    9.8095 H   0  0  0  0  0  0  0  0  0  0  0  0
   45.8165    2.8594   11.1267 H   0  0  0  0  0  0  0  0  0  0  0  0
  2  1  1  0
  2  3  1  0
  3  4  1  0
  4  5  1  0
  4  6  1  0
  6  7  2  0
  7  8  1  0
  8  9  2  0
  9 10  1  0
 10 11  2  0
 11 12  1  0
 12 13  2  0
 13 14  1  0
 14 15  2  0
 15 16  1  0
 11 16  1  0
 16 17  2  0
  8 17  1  0
 17 18  1  0
 18 19  2  0
 19 20  1  0
 20 21  2  0
 21 22  1  0
 21 23  1  0
 23 24  2  0
 18 24  1  0
  9 25  1  0
 25 26  1  0
 26 27  1  0
 25 27  1  0
  2 28  1  0
 28 29  1  0
 29 30  2  0
 29 31  1  0
 34 33  1  0
 34 35  1  0
 35 36  1  0
 36 37  1  0
 36 38  1  0
 38 39  2  0
 39 40  1  0
 40 41  2  0
 41 42  1  0
 42 43  2  0
 43 44  1  0
 44 45  2  0
 45 46  1  0
 46 47  2  0
 47 48  1  0
 43 48  1  0
 48 49  2  0
 40 49  1  0
 49 50  1  0
 50 51  2  0
 51 52  1  0
 52 53  2  0
 53 54  1  0
 53 55  1  0
 55 56  2  0
 50 56  1  0
 41 57  1  0
 57 58  1  0
 58 59  1  0
 57 59  1  0
 34 60  1  0
 60 61  1  0
 61 62  2  0
 61 63  1  0
  1 64  1  0
  2 65  1  6
  3 66  1  0
  3 67  1  0
  4 68  1  6
  5 69  1  0
  6 70  1  0
  7 71  1  0
 12 72  1  0
 13 73  1  0
 14 74  1  0
 15 75  1  0
 19 76  1  0
 20 77  1  0
 23 78  1  0
 24 79  1  0
 25 80  1  0
 26 81  1  0
 26 82  1  0
 27 83  1  0
 27 84  1  0
 28 85  1  0
 28 86  1  0
 33 87  1  0
 34 88  1  1
 35 89  1  0
 35 90  1  0
 36 91  1  1
 37 92  1  0
 38 93  1  0
 39 94  1  0
 44 95  1  0
 45 96  1  0
 46 97  1  0
 47 98  1  0
 51 99  1  0
 52100  1  0
 55101  1  0
 56102  1  0
 57103  1  0
 58104  1  0
 58105  1  0
 59106  1  0
 59107  1  0
 60108  1  0
 60109  1  0
M  CHG  3  31  -1  32   2  63  -1
M  END
> <Uni-Dock RESULT> 
ENERGY=   -7.209  LOWER_BOUND=    4.469  UPPER_BOUND=    7.236
INTER + INTRA:          -7.209
INTER:                  -7.209
INTRA:                   0.000
UNBOUND:                 0.000

$$$$

     RDKit          3D

109114  0  0  0  0  0  0  0  0999 V2000
   50.0896   15.2916   16.0027 O   0  0  0  0  0  0  0  0  0  0  0  0
   48.8020   14.7273   15.7401 C   0  0  2  0  0  0  0  0  0  0  0  0
   48.8908   13.1935   15.6200 C   0  0  0  0  0  0  0  0  0  0  0  0
   48.7575   12.4881   16.9799 C   0  0  2  0  0  0  0  0  0  0  0  0
   49.9005   12.7102   17.7972 O   0  0  0  0  0  0  0  0  0  0  0  0
   48.5375   11.0034   16.7964 C   0  0  0  0  0  0  0  0  0  0  0  0
   49.3842   10.0225   17.1441 C   0  0  0  0  0  0  0  0  0  0  0  0
   49.0310    8.6043   16.9472 C   0  0  0  0  0  0  0  0  0  0  0  0
   49.2456    7.9916   15.6998 C   0  0  0  0  0  0  0  0  0  0  0  0
   48.8931    6.6976   15.4873 N   0  0  0  0  0  0  0  0  0  0  0  0
   48.3210    5.9852   16.4673 C   0  0  0  0  0  0  0  0  0  0  0  0
   47.9618    4.6729   16.1947 C   0  0  0  0  0  0  0  0  0  0  0  0
   47.3501    3.8566   17.1483 C   0  0  0  0  0  0  0  0  0  0  0  0
   47.1185    4.3562   18.4205 C   0  0  0  0  0  0  0  0  0  0  0  0
   47.4799    5.6691   18.7232 C   0  0  0  0  0  0  0  0  0  0  0  0
   48.0761    6.5094   17.7526 C   0  0  0  0  0  0  0  0  0  0  0  0
   48.4482    7.8580   17.9974 C   0  0  0  0  0  0  0  0  0  0  0  0
   48.2340    8.4846   19.3221 C   0  0  0  0  0  0  0  0  0  0  0  0
   47.0341    9.1576   19.6192 C   0  0  0  0  0  0  0  0  0  0  0  0
   46.8447    9.7530   20.8673 C   0  0  0  0  0  0  0  0  0  0  0  0
   47.8515    9.6802   21.8221 C   0  0  0  0  0  0  0  0  0  0  0  0
   47.6692   10.2453   23.0240 F   0  0  0  0  0  0  0  0  0  0  0  0
   49.0434    9.0165   21.5570 C   0  0  0  0  0  0  0  0  0  0  0  0
   49.2379    8.4285   20.3060 C   0  0  0  0  0  0  0  0  0  0  0  0
   49.8740    8.7340   14.5311 C   0  0  0  0  0  0  0  0  0  0  0  0
   51.3676    8.9670   14.5153 C   0  0  0  0  0  0  0  0  0  0  0  0
   50.7544    8.0119   13.5370 C   0  0  0  0  0  0  0  0  0  0  0  0
   48.1918   15.4004   14.5128 C   0  0  0  0  0  0  0  0  0  0  0  0
   48.9294   15.0733   13.2178 C   0  0  0  0  0  0  0  0  0  0  0  0
   50.1925   15.0127   13.3153 O   0  0  0  0  0  0  0  0  0  0  0  0
   48.1853   14.9018   12.2105 O   0  0  0  0  0  0  0  0  0  0  0  0
   48.7612    9.8689   16.9156 Mg  0  0  0  0  0 15  0  0  0  0  0  0
   48.8597   13.2499   13.3613 O   0  0  0  0  0  0  0  0  0  0  0  0
   49.3771   14.0263   14.4631 C   0  0  2  0  0  0  0  0  0  0  0  0
   49.8982   13.0325   15.5191 C   0  0  0  0  0  0  0  0  0  0  0  0
   48.8063   12.3931   16.3882 C   0  0  2  0  0  0  0  0  0  0  0  0
   48.7044   13.0326   17.6547 O   0  0  0  0  0  0  0  0  0  0  0  0
   49.1464   10.9615   16.7057 C   0  0  0  0  0  0  0  0  0  0  0  0
   48.3417    9.9211   16.4314 C   0  0  0  0  0  0  0  0  0  0  0  0
   48.6751    8.5175   16.7230 C   0  0  0  0  0  0  0  0  0  0  0  0
   48.8241    7.6308   15.6374 C   0  0  0  0  0  0  0  0  0  0  0  0
   49.1160    6.3185   15.8309 N   0  0  0  0  0  0  0  0  0  0  0  0
   49.2654    5.8435   17.0714 C   0  0  0  0  0  0  0  0  0  0  0  0
   49.5415    4.4896   17.2123 C   0  0  0  0  0  0  0  0  0  0  0  0
   49.6932    3.8851   18.4633 C   0  0  0  0  0  0  0  0  0  0  0  0
   49.5620    4.6541   19.6094 C   0  0  0  0  0  0  0  0  0  0  0  0
   49.2757    6.0149   19.4929 C   0  0  0  0  0  0  0  0  0  0  0  0
   49.1274    6.6399   18.2251 C   0  0  0  0  0  0  0  0  0  0  0  0
   48.8265    8.0196   18.0398 C   0  0  0  0  0  0  0  0  0  0  0  0
   48.6518    8.8991   19.2158 C   0  0  0  0  0  0  0  0  0  0  0  0
   47.3646    9.2042   19.6956 C   0  0  0  0  0  0  0  0  0  0  0  0
   47.2002   10.0300   20.8064 C   0  0  0  0  0  0  0  0  0  0  0  0
   48.3160   10.5407   21.4576 C   0  0  0  0  0  0  0  0  0  0  0  0
   48.1527   11.3138   22.5399 F   0  0  0  0  0  0  0  0  0  0  0  0
   49.5980   10.2517   21.0067 C   0  0  0  0  0  0  0  0  0  0  0  0
   49.7686    9.4366   19.8843 C   0  0  0  0  0  0  0  0  0  0  0  0
   48.6660    8.0974   14.1984 C   0  0  0  0  0  0  0  0  0  0  0  0
   47.2934    8.0992   13.5575 C   0  0  0  0  0  0  0  0  0  0  0  0
   48.3280    7.1279   13.0909 C   0  0  0  0  0  0  0  0  0  0  0  0
   48.3017   15.0317   14.8591 C   0  0  0  0  0  0  0  0  0  0  0  0
   48.7891   16.0280   15.8970 C   0  0  0  0  0  0  0  0  0  0  0  0
   49.1776   15.5161   16.9827 O   0  0  0  0  0  0  0  0  0  0  0  0
   48.7019   17.2378   15.5595 O   0  0  0  0  0  0  0  0  0  0  0  0
   50.5553   15.2323   15.1287 H   0  0  0  0  0  0  0  0  0  0  0  0
   48.1719   14.9894   16.5987 H   0  0  0  0  0  0  0  0  0  0  0  0
   48.0849   12.8353   14.9668 H   0  0  0  0  0  0  0  0  0  0  0  0
   49.8474   12.9143   15.1602 H   0  0  0  0  0  0  0  0  0  0  0  0
   47.8884   12.8930   17.5186 H   0  0  0  0  0  0  0  0  0  0  0  0
   49.6569   12.4265   18.6952 H   0  0  0  0  0  0  0  0  0  0  0  0
   47.5831   10.7412   16.3461 H   0  0  0  0  0  0  0  0  0  0  0  0
   50.3559   10.2329   17.5734 H   0  0  0  0  0  0  0  0  0  0  0  0
   48.1617    4.2789   15.2007 H   0  0  0  0  0  0  0  0  0  0  0  0
   47.0712    2.8394   16.8891 H   0  0  0  0  0  0  0  0  0  0  0  0
   46.6482    3.7302   19.1720 H   0  0  0  0  0  0  0  0  0  0  0  0
   47.2837    6.0305   19.7320 H   0  0  0  0  0  0  0  0  0  0  0  0
   46.2433    9.2325   18.8711 H   0  0  0  0  0  0  0  0  0  0  0  0
   45.9241   10.2786   21.1002 H   0  0  0  0  0  0  0  0  0  0  0  0
   49.8161    8.9708   22.3184 H   0  0  0  0  0  0  0  0  0  0  0  0
   50.1770    7.9160   20.0939 H   0  0  0  0  0  0  0  0  0  0  0  0
   49.2632    9.5386   14.1248 H   0  0  0  0  0  0  0  0  0  0  0  0
   51.9584    8.5594   15.3268 H   0  0  0  0  0  0  0  0  0  0  0  0
   51.7365    9.9112   14.1271 H   0  0  0  0  0  0  0  0  0  0  0  0
   50.9224    6.9491   13.6731 H   0  0  0  0  0  0  0  0  0  0  0  0
   50.6945    8.3211   12.4973 H   0  0  0  0  0  0  0  0  0  0  0  0
   48.2201   16.4911   14.6274 H   0  0  0  0  0  0  0  0  0  0  0  0
   47.1424   15.1014   14.4243 H   0  0  0  0  0  0  0  0  0  0  0  0
   48.6113   13.8967   12.6777 H   0  0  0  0  0  0  0  0  0  0  0  0
   50.2469   14.5660   14.0685 H   0  0  0  0  0  0  0  0  0  0  0  0
   50.4428   12.2457   14.9774 H   0  0  0  0  0  0  0  0  0  0  0  0
   50.6290   13.5420   16.1551 H   0  0  0  0  0  0  0  0  0  0  0  0
   47.8255   12.4451   15.9047 H   0  0  0  0  0  0  0  0  0  0  0  0
   48.8737   14.0005   17.5090 H   0  0  0  0  0  0  0  0  0  0  0  0
   50.1018   10.8097   17.2011 H   0  0  0  0  0  0  0  0  0  0  0  0
   47.3929   10.0884   15.9280 H   0  0  0  0  0  0  0  0  0  0  0  0
   49.6372    3.8806   16.3151 H   0  0  0  0  0  0  0  0  0  0  0  0
   49.9024    2.8225   18.5354 H   0  0  0  0  0  0  0  0  0  0  0  0
   49.6701    4.2050   20.5924 H   0  0  0  0  0  0  0  0  0  0  0  0
   49.1717    6.5923   20.4105 H   0  0  0  0  0  0  0  0  0  0  0  0
   46.4870    8.8254   19.1804 H   0  0  0  0  0  0  0  0  0  0  0  0
   46.2105   10.2856   21.1637 H   0  0  0  0  0  0  0  0  0  0  0  0
   50.4567   10.6679   21.5190 H   0  0  0  0  0  0  0  0  0  0  0  0
   50.7713    9.2154   19.5293 H   0  0  0  0  0  0  0  0  0  0  0  0
   49.3325    8.9073   13.9138 H   0  0  0  0  0  0  0  0  0  0  0  0
   47.0518    8.9363   12.9190 H   0  0  0  0  0  0  0  0  0  0  0  0
   46.4560    7.7156   14.1215 H   0  0  0  0  0  0  0  0  0  0  0  0
   48.7696    7.2946   12.1210 H   0  0  0  0  0  0  0  0  0  0  0  0
   48.2155    6.0820   13.3463 H   0  0  0  0  0  0  0  0  0  0  0  0
   47.9746   15.5809   13.9654 H   0  0  0  0  0  0  0  0  0  0  0  0
   47.3953   14.5392   15.2275 H   0  0  0  0  0  0  0  0  0  0  0  0
  2  1  1  0
  2  3  1  0
  3  4  1  0
  4  5  1  0
  4  6  1  0
  6  7  2  0
  7  8  1  0
  8  9  2  0
  9 10  1  0
 10 11  2  0
 11 12  1  0
 12 13  2  0
 13 14  1  0
 14 15  2  0
 15 16  1  0
 11 16  1  0
 16 17  2  0
  8 17  1  0
 17 18  1  0
 18 19  2  0
 19 20  1  0
 20 21  2  0
 21 22  1  0
 21 23  1  0
 23 24  2  0
 18 24  1  0
  9 25  1  0
 25 26  1  0
 26 27  1  0
 25 27  1  0
  2 28  1  0
 28 29  1  0
 29 30  2  0
 29 31  1  0
 34 33  1  0
 34 35  1  0
 35 36  1  0
 36 37  1  0
 36 38  1  0
 38 39  2  0
 39 40  1  0
 40 41  2  0
 41 42  1  0
 42 43  2  0
 43 44  1  0
 44 45  2  0
 45 46  1  0
 46 47  2  0
 47 48  1  0
 43 48  1  0
 48 49  2  0
 40 49  1  0
 49 50  1  0
 50 51  2  0
 51 52  1  0
 52 53  2  0
 53 54  1  0
 53 55  1  0
 55 56  2  0
 50 56  1  0
 41 57  1  0
 57 58  1  0
 58 59  1  0
 57 59  1  0
 34 60  1  0
 60 61  1  0
 61 62  2  0
 61 63  1  0
  1 64  1  0
  2 65  1  6
  3 66  1  0
  3 67  1  0
  4 68  1  6
  5 69  1  0
  6 70  1  0
  7 71  1  0
 12 72  1  0
 13 73  1  0
 14 74  1  0
 15 75  1  0
 19 76  1  0
 20 77  1  0
 23 78  1  0
 24 79  1  0
 25 80  1  0
 26 81  1  0
 26 82  1  0
 27 83  1  0
 27 84  1  0
 28 85  1  0
 28 86  1  0
 33 87  1  0
 34 88  1  1
 35 89  1  0
 35 90  1  0
 36 91  1  1
 37 92  1  0
 38 93  1  0
 39 94  1  0
 44 95  1  0
 45 96  1  0
 46 97  1  0
 47 98  1  0
 51 99  1  0
 52100  1  0
 55101  1  0
 56102  1  0
 57103  1  0
 58104  1  0
 58105  1  0
 59106  1  0
 59107  1  0
 60108  1  0
 60109  1  0
M  CHG  3  31  -1  32   2  63  -1
M  END
> <Uni-Dock RESULT> 
ENERGY=   -6.943  LOWER_BOUND=    2.720  UPPER_BOUND=    4.652
INTER + INTRA:          -6.943
INTER:                  -6.943
INTRA:                   0.000
UNBOUND:                 0.000

$$$$

     RDKit          3D

109114  0  0  0  0  0  0  0  0999 V2000
   49.2124    5.9559   20.1541 O   0  0  0  0  0  0  0  0  0  0  0  0
   48.0857    6.8238   20.0040 C   0  0  2  0  0  0  0  0  0  0  0  0
   48.4301    8.0139   19.0874 C   0  0  0  0  0  0  0  0  0  0  0  0
   48.1965    7.6984   17.6007 C   0  0  2  0  0  0  0  0  0  0  0  0
   49.1485    6.7620   17.1102 O   0  0  0  0  0  0  0  0  0  0  0  0
   48.2419    8.9607   16.7693 C   0  0  0  0  0  0  0  0  0  0  0  0
   49.1658    9.2774   15.8496 C   0  0  0  0  0  0  0  0  0  0  0  0
   49.0731   10.5284   15.0743 C   0  0  0  0  0  0  0  0  0  0  0  0
   49.5735   11.7282   15.6107 C   0  0  0  0  0  0  0  0  0  0  0  0
   49.4645   12.8973   14.9285 N   0  0  0  0  0  0  0  0  0  0  0  0
   48.8637   12.9256   13.7312 C   0  0  0  0  0  0  0  0  0  0  0  0
   48.7605   14.1479   13.0826 C   0  0  0  0  0  0  0  0  0  0  0  0
   48.1415   14.2786   11.8378 C   0  0  0  0  0  0  0  0  0  0  0  0
   47.6382   13.1503   11.2089 C   0  0  0  0  0  0  0  0  0  0  0  0
   47.7388   11.9079   11.8352 C   0  0  0  0  0  0  0  0  0  0  0  0
   48.3416   11.7737   13.1088 C   0  0  0  0  0  0  0  0  0  0  0  0
   48.4562   10.5394   13.8020 C   0  0  0  0  0  0  0  0  0  0  0  0
   47.9419    9.2801   13.2165 C   0  0  0  0  0  0  0  0  0  0  0  0
   46.6203    8.8582   13.4535 C   0  0  0  0  0  0  0  0  0  0  0  0
   46.1471    7.6651   12.9049 C   0  0  0  0  0  0  0  0  0  0  0  0
   46.9905    6.8890   12.1196 C   0  0  0  0  0  0  0  0  0  0  0  0
   46.5362    5.7462   11.5858 F   0  0  0  0  0  0  0  0  0  0  0  0
   48.2979    7.2855   11.8645 C   0  0  0  0  0  0  0  0  0  0  0  0
   48.7754    8.4738   12.4201 C   0  0  0  0  0  0  0  0  0  0  0  0
   50.2541   11.7855   16.9691 C   0  0  0  0  0  0  0  0  0  0  0  0
   51.6769   11.2942   17.1088 C   0  0  0  0  0  0  0  0  0  0  0  0
   51.3811   12.7580   17.2313 C   0  0  0  0  0  0  0  0  0  0  0  0
   47.5784    7.2425   21.3820 C   0  0  0  0  0  0  0  0  0  0  0  0
   48.5518    8.1463   22.1327 C   0  0  0  0  0  0  0  0  0  0  0  0
   49.7778    7.8506   21.9982 O   0  0  0  0  0  0  0  0  0  0  0  0
   48.0109    9.0785   22.7931 O   0  0  0  0  0  0  0  0  0  0  0  0
   48.6180    9.6737   15.9318 Mg  0  0  0  0  0 15  0  0  0  0  0  0
   48.7452    9.4175   20.8300 O   0  0  0  0  0  0  0  0  0  0  0  0
   48.9562    8.0282   20.4987 C   0  0  2  0  0  0  0  0  0  0  0  0
   49.4534    7.9751   19.0413 C   0  0  0  0  0  0  0  0  0  0  0  0
   48.3517    8.1346   17.9842 C   0  0  2  0  0  0  0  0  0  0  0  0
   47.9541    6.8781   17.4492 O   0  0  0  0  0  0  0  0  0  0  0  0
   48.8566    8.9152   16.8002 C   0  0  0  0  0  0  0  0  0  0  0  0
   48.2767   10.0359   16.3386 C   0  0  0  0  0  0  0  0  0  0  0  0
   48.7747   10.8137   15.1926 C   0  0  0  0  0  0  0  0  0  0  0  0
   49.2283   12.1274   15.4283 C   0  0  0  0  0  0  0  0  0  0  0  0
   49.6871   12.9095   14.4169 N   0  0  0  0  0  0  0  0  0  0  0  0
   49.7121   12.4374   13.1665 C   0  0  0  0  0  0  0  0  0  0  0  0
   50.1701   13.2872   12.1678 C   0  0  0  0  0  0  0  0  0  0  0  0
   50.2159   12.9037   10.8246 C   0  0  0  0  0  0  0  0  0  0  0  0
   49.7884   11.6346   10.4658 C   0  0  0  0  0  0  0  0  0  0  0  0
   49.3155   10.7664   11.4508 C   0  0  0  0  0  0  0  0  0  0  0  0
   49.2725   11.1447   12.8201 C   0  0  0  0  0  0  0  0  0  0  0  0
   48.7933   10.3097   13.8696 C   0  0  0  0  0  0  0  0  0  0  0  0
   48.3015    8.9494   13.5614 C   0  0  0  0  0  0  0  0  0  0  0  0
   46.9234    8.7021   13.4209 C   0  0  0  0  0  0  0  0  0  0  0  0
   46.4602    7.4209   13.1265 C   0  0  0  0  0  0  0  0  0  0  0  0
   47.3667    6.3830   12.9512 C   0  0  0  0  0  0  0  0  0  0  0  0
   46.9174    5.1586   12.6438 F   0  0  0  0  0  0  0  0  0  0  0  0
   48.7328    6.6010   13.0806 C   0  0  0  0  0  0  0  0  0  0  0  0
   49.2022    7.8805   13.3906 C   0  0  0  0  0  0  0  0  0  0  0  0
   49.2273   12.7339   16.8230 C   0  0  0  0  0  0  0  0  0  0  0  0
   47.9889   13.4432   17.3310 C   0  0  0  0  0  0  0  0  0  0  0  0
   49.2223   14.2300   17.0291 C   0  0  0  0  0  0  0  0  0  0  0  0
   47.6886    7.2701   20.8770 C   0  0  0  0  0  0  0  0  0  0  0  0
   47.8460    5.7657   20.7385 C   0  0  0  0  0  0  0  0  0  0  0  0
   48.1343    5.3669   19.5769 O   0  0  0  0  0  0  0  0  0  0  0  0
   47.6256    5.1060   21.7879 O   0  0  0  0  0  0  0  0  0  0  0  0
   49.8130    6.4536   20.7672 H   0  0  0  0  0  0  0  0  0  0  0  0
   47.2957    6.2222   19.5382 H   0  0  0  0  0  0  0  0  0  0  0  0
   47.8023    8.8722   19.3592 H   0  0  0  0  0  0  0  0  0  0  0  0
   49.4786    8.3022   19.2354 H   0  0  0  0  0  0  0  0  0  0  0  0
   47.2014    7.2477   17.4740 H   0  0  0  0  0  0  0  0  0  0  0  0
   48.8142    6.4533   16.2504 H   0  0  0  0  0  0  0  0  0  0  0  0
   47.4226    9.6515   16.9534 H   0  0  0  0  0  0  0  0  0  0  0  0
   50.0134    8.6344   15.6472 H   0  0  0  0  0  0  0  0  0  0  0  0
   49.1727   15.0280   13.5713 H   0  0  0  0  0  0  0  0  0  0  0  0
   48.0685   15.2566   11.3712 H   0  0  0  0  0  0  0  0  0  0  0  0
   47.1591   13.2379   10.2390 H   0  0  0  0  0  0  0  0  0  0  0  0
   47.3329   11.0417   11.3139 H   0  0  0  0  0  0  0  0  0  0  0  0
   45.9548    9.4535   14.0806 H   0  0  0  0  0  0  0  0  0  0  0  0
   45.1309    7.3314   13.0891 H   0  0  0  0  0  0  0  0  0  0  0  0
   48.9392    6.6640   11.2469 H   0  0  0  0  0  0  0  0  0  0  0  0
   49.8043    8.7805   12.2285 H   0  0  0  0  0  0  0  0  0  0  0  0
   49.5968   11.5844   17.8135 H   0  0  0  0  0  0  0  0  0  0  0  0
   52.1892   10.9484   16.2190 H   0  0  0  0  0  0  0  0  0  0  0  0
   51.9506   10.7625   18.0147 H   0  0  0  0  0  0  0  0  0  0  0  0
   51.6890   13.4196   16.4289 H   0  0  0  0  0  0  0  0  0  0  0  0
   51.4376   13.2049   18.2199 H   0  0  0  0  0  0  0  0  0  0  0  0
   47.4182    6.3575   22.0101 H   0  0  0  0  0  0  0  0  0  0  0  0
   46.6154    7.7511   21.2703 H   0  0  0  0  0  0  0  0  0  0  0  0
   48.5095    9.4297   21.7743 H   0  0  0  0  0  0  0  0  0  0  0  0
   49.7822    7.6890   21.1358 H   0  0  0  0  0  0  0  0  0  0  0  0
   50.1920    8.7814   18.9251 H   0  0  0  0  0  0  0  0  0  0  0  0
   49.9870    7.0326   18.8829 H   0  0  0  0  0  0  0  0  0  0  0  0
   47.4629    8.6203   18.3998 H   0  0  0  0  0  0  0  0  0  0  0  0
   47.9914    6.2185   18.1909 H   0  0  0  0  0  0  0  0  0  0  0  0
   49.7342    8.5014   16.3107 H   0  0  0  0  0  0  0  0  0  0  0  0
   47.4043   10.4420   16.8442 H   0  0  0  0  0  0  0  0  0  0  0  0
   50.4989   14.2874   12.4442 H   0  0  0  0  0  0  0  0  0  0  0  0
   50.5740   13.5968   10.0700 H   0  0  0  0  0  0  0  0  0  0  0  0
   49.8095   11.3165    9.4275 H   0  0  0  0  0  0  0  0  0  0  0  0
   48.9803    9.7784   11.1385 H   0  0  0  0  0  0  0  0  0  0  0  0
   46.2072    9.5036   13.5761 H   0  0  0  0  0  0  0  0  0  0  0  0
   45.3991    7.2226   13.0409 H   0  0  0  0  0  0  0  0  0  0  0  0
   49.4250    5.7781   12.9524 H   0  0  0  0  0  0  0  0  0  0  0  0
   50.2701    8.0490   13.4966 H   0  0  0  0  0  0  0  0  0  0  0  0
   49.7958   12.1699   17.5577 H   0  0  0  0  0  0  0  0  0  0  0  0
   47.7230   13.2846   18.3659 H   0  0  0  0  0  0  0  0  0  0  0  0
   47.1434   13.5520   16.6678 H   0  0  0  0  0  0  0  0  0  0  0  0
   49.7792   14.6272   17.8632 H   0  0  0  0  0  0  0  0  0  0  0  0
   49.2354   14.8649   16.1524 H   0  0  0  0  0  0  0  0  0  0  0  0
   47.4243    7.5056   21.9172 H   0  0  0  0  0  0  0  0  0  0  0  0
   46.8235    7.5992   20.2911 H   0  0  0  0  0  0  0  0  0  0  0  0
  2  1  1  0
  2  3  1  0
  3  4  1  0
  4  5  1  0
  4  6  1  0
  6  7  2  0
  7  8  1  0
  8  9  2  0
  9 10  1  0
 10 11  2  0
 11 12  1  0
 12 13  2  0
 13 14  1  0
 14 15  2  0
 15 16  1  0
 11 16  1  0
 16 17  2  0
  8 17  1  0
 17 18  1  0
 18 19  2  0
 19 20  1  0
 20 21  2  0
 21 22  1  0
 21 23  1  0
 23 24  2  0
 18 24  1  0
  9 25  1  0
 25 26  1  0
 26 27  1  0
 25 27  1  0
  2 28  1  0
 28 29  1  0
 29 30  2  0
 29 31  1  0
 34 33  1  0
 34 35  1  0
 35 36  1  0
 36 37  1  0
 36 38  1  0
 38 39  2  0
 39 40  1  0
 40 41  2  0
 41 42  1  0
 42 43  2  0
 43 44  1  0
 44 45  2  0
 45 46  1  0
 46 47  2  0
 47 48  1  0
 43 48  1  0
 48 49  2  0
 40 49  1  0
 49 50  1  0
 50 51  2  0
 51 52  1  0
 52 53  2  0
 53 54  1  0
 53 55  1  0
 55 56  2  0
 50 56  1  0
 41 57  1  0
 57 58  1  0
 58 59  1  0
 57 59  1  0
 34 60  1  0
 60 61  1  0
 61 62  2  0
 61 63  1  0
  1 64  1  0
  2 65  1  6
  3 66  1  0
  3 67  1  0
  4 68  1  6
  5 69  1  0
  6 70  1  0
  7 71  1  0
 12 72  1  0
 13 73  1  0
 14 74  1  0
 15 75  1  0
 19 76  1  0
 20 77  1  0
 23 78  1  0
 24 79  1  0
 25 80  1  0
 26 81  1  0
 26 82  1  0
 27 83  1  0
 27 84  1  0
 28 85  1  0
 28 86  1  0
 33 87  1  0
 34 88  1  1
 35 89  1  0
 35 90  1  0
 36 91  1  1
 37 92  1  0
 38 93  1  0
 39 94  1  0
 44 95  1  0
 45 96  1  0
 46 97  1  0
 47 98  1  0
 51 99  1  0
 52100  1  0
 55101  1  0
 56102  1  0
 57103  1  0
 58104  1  0
 58105  1  0
 59106  1  0
 59107  1  0
 60108  1  0
 60109  1  0
M  CHG  3  31  -1  32   2  63  -1
M  END
> <Uni-Dock RESULT> 
ENERGY=   -6.715  LOWER_BOUND=    3.848  UPPER_BOUND=    8.835
INTER + INTRA:          -6.715
INTER:                  -6.715
INTRA:                   0.000
UNBOUND:                 0.000

$$$$

     RDKit          3D

109114  0  0  0  0  0  0  0  0999 V2000
   48.2391    9.8554   12.7284 O   0  0  0  0  0  0  0  0  0  0  0  0
   49.5228    9.7530   13.3504 C   0  0  2  0  0  0  0  0  0  0  0  0
   49.3866    9.7254   14.8852 C   0  0  0  0  0  0  0  0  0  0  0  0
   49.1741    8.3038   15.4316 C   0  0  2  0  0  0  0  0  0  0  0  0
   47.8887    7.7998   15.0888 O   0  0  0  0  0  0  0  0  0  0  0  0
   49.3552    8.2717   16.9325 C   0  0  0  0  0  0  0  0  0  0  0  0
   48.4038    8.0251   17.8457 C   0  0  0  0  0  0  0  0  0  0  0  0
   48.7208    7.9825   19.2853 C   0  0  0  0  0  0  0  0  0  0  0  0
   48.7629    9.1729   20.0328 C   0  0  0  0  0  0  0  0  0  0  0  0
   49.0890    9.1588   21.3509 N   0  0  0  0  0  0  0  0  0  0  0  0
   49.3887    8.0031   21.9588 C   0  0  0  0  0  0  0  0  0  0  0  0
   49.7339    8.0437   23.3021 C   0  0  0  0  0  0  0  0  0  0  0  0
   50.0729    6.8933   24.0173 C   0  0  0  0  0  0  0  0  0  0  0  0
   50.0362    5.6629   23.3797 C   0  0  0  0  0  0  0  0  0  0  0  0
   49.6820    5.5938   22.0322 C   0  0  0  0  0  0  0  0  0  0  0  0
   49.3632    6.7596   21.2955 C   0  0  0  0  0  0  0  0  0  0  0  0
   49.0134    6.7528   19.9190 C   0  0  0  0  0  0  0  0  0  0  0  0
   48.9542    5.4893   19.1488 C   0  0  0  0  0  0  0  0  0  0  0  0
   50.0883    4.9980   18.4754 C   0  0  0  0  0  0  0  0  0  0  0  0
   50.0207    3.8109   17.7443 C   0  0  0  0  0  0  0  0  0  0  0  0
   48.8220    3.1110   17.6817 C   0  0  0  0  0  0  0  0  0  0  0  0
   48.7564    1.9670   16.9860 F   0  0  0  0  0  0  0  0  0  0  0  0
   47.6889    3.5704   18.3425 C   0  0  0  0  0  0  0  0  0  0  0  0
   47.7526    4.7623   19.0664 C   0  0  0  0  0  0  0  0  0  0  0  0
   48.4525   10.5273   19.4155 C   0  0  0  0  0  0  0  0  0  0  0  0
   47.0146   10.9110   19.1497 C   0  0  0  0  0  0  0  0  0  0  0  0
   47.7841   11.6140   20.2261 C   0  0  0  0  0  0  0  0  0  0  0  0
   50.4272   10.8720   12.8388 C   0  0  0  0  0  0  0  0  0  0  0  0
   49.9855   12.2591   13.2955 C   0  0  0  0  0  0  0  0  0  0  0  0
   48.7315   12.4488   13.3137 O   0  0  0  0  0  0  0  0  0  0  0  0
   50.9282   13.0441   13.6003 O   0  0  0  0  0  0  0  0  0  0  0  0
   49.0538    8.0864   18.0398 Mg  0  0  0  0  0 15  0  0  0  0  0  0
   49.9296   11.9091   15.0911 O   0  0  0  0  0  0  0  0  0  0  0  0
   49.2163   11.0454   14.1802 C   0  0  2  0  0  0  0  0  0  0  0  0
   48.4213   10.0374   15.0322 C   0  0  0  0  0  0  0  0  0  0  0  0
   49.2554    8.8772   15.5931 C   0  0  2  0  0  0  0  0  0  0  0  0
   49.1007    7.6971   14.8141 O   0  0  0  0  0  0  0  0  0  0  0  0
   48.7811    8.4950   16.9698 C   0  0  0  0  0  0  0  0  0  0  0  0
   49.5739    8.4640   18.0541 C   0  0  0  0  0  0  0  0  0  0  0  0
   49.1133    8.1083   19.4060 C   0  0  0  0  0  0  0  0  0  0  0  0
   49.1690    9.0977   20.4085 C   0  0  0  0  0  0  0  0  0  0  0  0
   48.7755    8.8372   21.6822 N   0  0  0  0  0  0  0  0  0  0  0  0
   48.3264    7.6207   22.0067 C   0  0  0  0  0  0  0  0  0  0  0  0
   47.9582    7.4030   23.3281 C   0  0  0  0  0  0  0  0  0  0  0  0
   47.4980    6.1631   23.7800 C   0  0  0  0  0  0  0  0  0  0  0  0
   47.4054    5.1066   22.8870 C   0  0  0  0  0  0  0  0  0  0  0  0
   47.7785    5.2991   21.5561 C   0  0  0  0  0  0  0  0  0  0  0  0
   48.2402    6.5583   21.0858 C   0  0  0  0  0  0  0  0  0  0  0  0
   48.6439    6.8160   19.7445 C   0  0  0  0  0  0  0  0  0  0  0  0
   48.5924    5.7325   18.7394 C   0  0  0  0  0  0  0  0  0  0  0  0
   49.7518    5.0051   18.4121 C   0  0  0  0  0  0  0  0  0  0  0  0
   49.7024    3.9812   17.4677 C   0  0  0  0  0  0  0  0  0  0  0  0
   48.4955    3.6625   16.8581 C   0  0  0  0  0  0  0  0  0  0  0  0
   48.4487    2.6608   15.9693 F   0  0  0  0  0  0  0  0  0  0  0  0
   47.3354    4.3624   17.1661 C   0  0  0  0  0  0  0  0  0  0  0  0
   47.3819    5.4001   18.1011 C   0  0  0  0  0  0  0  0  0  0  0  0
   49.6709   10.5033   20.1155 C   0  0  0  0  0  0  0  0  0  0  0  0
   51.1511   10.8078   20.2211 C   0  0  0  0  0  0  0  0  0  0  0  0
   50.2012   11.3931   21.2144 C   0  0  0  0  0  0  0  0  0  0  0  0
   50.2237   10.5227   13.1621 C   0  0  0  0  0  0  0  0  0  0  0  0
   49.5651    9.7374   12.0409 C   0  0  0  0  0  0  0  0  0  0  0  0
   48.9165    8.7218   12.4143 O   0  0  0  0  0  0  0  0  0  0  0  0
   49.7867   10.1734   10.8808 O   0  0  0  0  0  0  0  0  0  0  0  0
   47.9802   10.8015   12.8771 H   0  0  0  0  0  0  0  0  0  0  0  0
   49.9552    8.8056   13.0061 H   0  0  0  0  0  0  0  0  0  0  0  0
   50.3003   10.1336   15.3360 H   0  0  0  0  0  0  0  0  0  0  0  0
   48.5457   10.3602   15.1924 H   0  0  0  0  0  0  0  0  0  0  0  0
   49.9183    7.6262   14.9883 H   0  0  0  0  0  0  0  0  0  0  0  0
   47.9088    6.8447   15.2724 H   0  0  0  0  0  0  0  0  0  0  0  0
   50.3722    8.4598   17.2680 H   0  0  0  0  0  0  0  0  0  0  0  0
   47.3721    7.8557   17.5635 H   0  0  0  0  0  0  0  0  0  0  0  0
   49.7441    9.0090   23.8035 H   0  0  0  0  0  0  0  0  0  0  0  0
   50.3518    6.9710   25.0641 H   0  0  0  0  0  0  0  0  0  0  0  0
   50.2928    4.7608   23.9258 H   0  0  0  0  0  0  0  0  0  0  0  0
   49.6633    4.6115   21.5614 H   0  0  0  0  0  0  0  0  0  0  0  0
   51.0302    5.5479   18.5067 H   0  0  0  0  0  0  0  0  0  0  0  0
   50.8901    3.4302   17.2179 H   0  0  0  0  0  0  0  0  0  0  0  0
   46.7630    3.0067   18.2810 H   0  0  0  0  0  0  0  0  0  0  0  0
   46.8612    5.1285   19.5769 H   0  0  0  0  0  0  0  0  0  0  0  0
   49.1788   10.8660   18.6784 H   0  0  0  0  0  0  0  0  0  0  0  0
   46.2362   10.2181   19.4462 H   0  0  0  0  0  0  0  0  0  0  0  0
   46.7906   11.4724   18.2480 H   0  0  0  0  0  0  0  0  0  0  0  0
   47.5368   11.4072   21.2617 H   0  0  0  0  0  0  0  0  0  0  0  0
   48.0926   12.6391   20.0408 H   0  0  0  0  0  0  0  0  0  0  0  0
   50.4284   10.8843   11.7418 H   0  0  0  0  0  0  0  0  0  0  0  0
   51.4532   10.6843   13.1715 H   0  0  0  0  0  0  0  0  0  0  0  0
   50.3579   12.5825   14.5340 H   0  0  0  0  0  0  0  0  0  0  0  0
   48.4863   11.6848   13.6688 H   0  0  0  0  0  0  0  0  0  0  0  0
   47.9743   10.6023   15.8630 H   0  0  0  0  0  0  0  0  0  0  0  0
   47.5923    9.6447   14.4350 H   0  0  0  0  0  0  0  0  0  0  0  0
   50.3214    9.1250   15.6212 H   0  0  0  0  0  0  0  0  0  0  0  0
   49.0174    7.9806   13.8658 H   0  0  0  0  0  0  0  0  0  0  0  0
   47.7322    8.2192   17.0400 H   0  0  0  0  0  0  0  0  0  0  0  0
   50.6189    8.7507   17.9693 H   0  0  0  0  0  0  0  0  0  0  0  0
   48.0371    8.2277   24.0343 H   0  0  0  0  0  0  0  0  0  0  0  0
   47.2250    6.0277   24.8217 H   0  0  0  0  0  0  0  0  0  0  0  0
   47.0560    4.1325   23.2166 H   0  0  0  0  0  0  0  0  0  0  0  0
   47.7015    4.4495   20.8791 H   0  0  0  0  0  0  0  0  0  0  0  0
   50.7030    5.2611   18.8692 H   0  0  0  0  0  0  0  0  0  0  0  0
   50.5975    3.4354   17.1966 H   0  0  0  0  0  0  0  0  0  0  0  0
   46.4053    4.1089   16.6727 H   0  0  0  0  0  0  0  0  0  0  0  0
   46.4755    5.9503   18.3376 H   0  0  0  0  0  0  0  0  0  0  0  0
   49.1273   11.0185   19.3279 H   0  0  0  0  0  0  0  0  0  0  0  0
   51.5722   11.4595   19.4696 H   0  0  0  0  0  0  0  0  0  0  0  0
   51.8193   10.0287   20.5571 H   0  0  0  0  0  0  0  0  0  0  0  0
   49.9988   12.4506   21.1504 H   0  0  0  0  0  0  0  0  0  0  0  0
   50.2006   11.0082   22.2262 H   0  0  0  0  0  0  0  0  0  0  0  0
   50.7711   11.3708   12.7281 H   0  0  0  0  0  0  0  0  0  0  0  0
   50.9977    9.9053   13.6306 H   0  0  0  0  0  0  0  0  0  0  0  0
  2  1  1  0
  2  3  1  0
  3  4  1  0
  4  5  1  0
  4  6  1  0
  6  7  2  0
  7  8  1  0
  8  9  2  0
  9 10  1  0
 10 11  2  0
 11 12  1  0
 12 13  2  0
 13 14  1  0
 14 15  2  0
 15 16  1  0
 11 16  1  0
 16 17  2  0
  8 17  1  0
 17 18  1  0
 18 19  2  0
 19 20  1  0
 20 21  2  0
 21 22  1  0
 21 23  1  0
 23 24  2  0
 18 24  1  0
  9 25  1  0
 25 26  1  0
 26 27  1  0
 25 27  1  0
  2 28  1  0
 28 29  1  0
 29 30  2  0
 29 31  1  0
 34 33  1  0
 34 35  1  0
 35 36  1  0
 36 37  1  0
 36 38  1  0
 38 39  2  0
 39 40  1  0
 40 41  2  0
 41 42  1  0
 42 43  2  0
 43 44  1  0
 44 45  2  0
 45 46  1  0
 46 47  2  0
 47 48  1  0
 43 48  1  0
 48 49  2  0
 40 49  1  0
 49 50  1  0
 50 51  2  0
 51 52  1  0
 52 53  2  0
 53 54  1  0
 53 55  1  0
 55 56  2  0
 50 56  1  0
 41 57  1  0
 57 58  1  0
 58 59  1  0
 57 59  1  0
 34 60  1  0
 60 61  1  0
 61 62  2  0
 61 63  1  0
  1 64  1  0
  2 65  1  6
  3 66  1  0
  3 67  1  0
  4 68  1  6
  5 69  1  0
  6 70  1  0
  7 71  1  0
 12 72  1  0
 13 73  1  0
 14 74  1  0
 15 75  1  0
 19 76  1  0
 20 77  1  0
 23 78  1  0
 24 79  1  0
 25 80  1  0
 26 81  1  0
 26 82  1  0
 27 83  1  0
 27 84  1  0
 28 85  1  0
 28 86  1  0
 33 87  1  0
 34 88  1  1
 35 89  1  0
 35 90  1  0
 36 91  1  1
 37 92  1  0
 38 93  1  0
 39 94  1  0
 44 95  1  0
 45 96  1  0
 46 97  1  0
 47 98  1  0
 51 99  1  0
 52100  1  0
 55101  1  0
 56102  1  0
 57103  1  0
 58104  1  0
 58105  1  0
 59106  1  0
 59107  1  0
 60108  1  0
 60109  1  0
M  CHG  3  31  -1  32   2  63  -1
M  END
> <Uni-Dock RESULT> 
ENERGY=   -6.473  LOWER_BOUND=    2.557  UPPER_BOUND=    5.126
INTER + INTRA:          -6.473
INTER:                  -6.473
INTRA:                   0.000
UNBOUND:                 0.000

$$$$

     RDKit          3D

109114  0  0  0  0  0  0  0  0999 V2000
   49.5598    8.9199   12.0179 O   0  0  0  0  0  0  0  0  0  0  0  0
   50.7634    8.7795   12.7774 C   0  0  2  0  0  0  0  0  0  0  0  0
   50.4775    8.9141   14.2858 C   0  0  0  0  0  0  0  0  0  0  0  0
   50.0894    7.5743   14.9330 C   0  0  2  0  0  0  0  0  0  0  0  0
   48.8039    7.1409   14.5045 O   0  0  0  0  0  0  0  0  0  0  0  0
   50.1209    7.6764   16.4413 C   0  0  0  0  0  0  0  0  0  0  0  0
   49.0677    7.5961   17.2685 C   0  0  0  0  0  0  0  0  0  0  0  0
   49.2390    7.6712   18.7313 C   0  0  0  0  0  0  0  0  0  0  0  0
   49.3128    8.9226   19.3686 C   0  0  0  0  0  0  0  0  0  0  0  0
   49.5073    9.0132   20.7094 N   0  0  0  0  0  0  0  0  0  0  0  0
   49.6444    7.9032   21.4472 C   0  0  0  0  0  0  0  0  0  0  0  0
   49.8603    8.0491   22.8101 C   0  0  0  0  0  0  0  0  0  0  0  0
   50.0264    6.9519   23.6577 C   0  0  0  0  0  0  0  0  0  0  0  0
   49.9438    5.6712   23.1334 C   0  0  0  0  0  0  0  0  0  0  0  0
   49.7169    5.4973   21.7681 C   0  0  0  0  0  0  0  0  0  0  0  0
   49.5743    6.6062   20.8998 C   0  0  0  0  0  0  0  0  0  0  0  0
   49.3601    6.4909   19.5006 C   0  0  0  0  0  0  0  0  0  0  0  0
   49.2651    5.1660   18.8456 C   0  0  0  0  0  0  0  0  0  0  0  0
   50.4115    4.5237   18.3416 C   0  0  0  0  0  0  0  0  0  0  0  0
   50.3111    3.2791   17.7176 C   0  0  0  0  0  0  0  0  0  0  0  0
   49.0675    2.6723   17.5934 C   0  0  0  0  0  0  0  0  0  0  0  0
   48.9694    1.4738   17.0007 F   0  0  0  0  0  0  0  0  0  0  0  0
   47.9204    3.2817   18.0879 C   0  0  0  0  0  0  0  0  0  0  0  0
   48.0180    4.5305   18.7039 C   0  0  0  0  0  0  0  0  0  0  0  0
   49.1834   10.2296   18.6025 C   0  0  0  0  0  0  0  0  0  0  0  0
   47.8172   10.6962   18.1542 C   0  0  0  0  0  0  0  0  0  0  0  0
   48.5377   11.4398   19.2374 C   0  0  0  0  0  0  0  0  0  0  0  0
   51.8076    9.7684   12.2643 C   0  0  0  0  0  0  0  0  0  0  0  0
   51.4471   11.2241   12.5453 C   0  0  0  0  0  0  0  0  0  0  0  0
   50.2188   11.5120   12.4150 O   0  0  0  0  0  0  0  0  0  0  0  0
   52.4210   11.9593   12.8749 O   0  0  0  0  0  0  0  0  0  0  0  0
   49.6988    7.6254   17.5233 Mg  0  0  0  0  0 15  0  0  0  0  0  0
   51.1873   11.0584   14.3495 O   0  0  0  0  0  0  0  0  0  0  0  0
   50.4926   10.1674   13.4506 C   0  0  2  0  0  0  0  0  0  0  0  0
   49.5336    9.3135   14.3023 C   0  0  0  0  0  0  0  0  0  0  0  0
   50.2046    8.1527   15.0498 C   0  0  2  0  0  0  0  0  0  0  0  0
   50.0231    6.9173   14.3686 O   0  0  0  0  0  0  0  0  0  0  0  0
   49.5677    7.9465   16.3981 C   0  0  0  0  0  0  0  0  0  0  0  0
   50.2461    7.9607   17.5577 C   0  0  0  0  0  0  0  0  0  0  0  0
   49.6275    7.7772   18.8806 C   0  0  0  0  0  0  0  0  0  0  0  0
   49.6725    8.8533   19.7900 C   0  0  0  0  0  0  0  0  0  0  0  0
   49.1364    8.7513   21.0338 N   0  0  0  0  0  0  0  0  0  0  0  0
   48.5531    7.6115   21.4180 C   0  0  0  0  0  0  0  0  0  0  0  0
   48.0411    7.5546   22.7079 C   0  0  0  0  0  0  0  0  0  0  0  0
   47.4325    6.4051   23.2192 C   0  0  0  0  0  0  0  0  0  0  0  0
   47.3344    5.2761   22.4205 C   0  0  0  0  0  0  0  0  0  0  0  0
   47.8499    5.3067   21.1240 C   0  0  0  0  0  0  0  0  0  0  0  0
   48.4636    6.4734   20.5928 C   0  0  0  0  0  0  0  0  0  0  0  0
   49.0161    6.5653   19.2834 C   0  0  0  0  0  0  0  0  0  0  0  0
   48.9673    5.3952   18.3803 C   0  0  0  0  0  0  0  0  0  0  0  0
   50.0846    4.5507   18.2431 C   0  0  0  0  0  0  0  0  0  0  0  0
   50.0373    3.4457   17.3950 C   0  0  0  0  0  0  0  0  0  0  0  0
   48.8717    3.1637   16.6938 C   0  0  0  0  0  0  0  0  0  0  0  0
   48.8235    2.0859   15.8990 F   0  0  0  0  0  0  0  0  0  0  0  0
   47.7532    3.9790   16.8143 C   0  0  0  0  0  0  0  0  0  0  0  0
   47.7998    5.0970   17.6516 C   0  0  0  0  0  0  0  0  0  0  0  0
   50.3216   10.1796   19.4254 C   0  0  0  0  0  0  0  0  0  0  0  0
   51.8056   10.3766   19.6574 C   0  0  0  0  0  0  0  0  0  0  0  0
   50.8191   11.1293   20.4890 C   0  0  0  0  0  0  0  0  0  0  0  0
   51.5439    9.4697   12.5948 C   0  0  0  0  0  0  0  0  0  0  0  0
   50.9306    8.6315   11.4864 C   0  0  0  0  0  0  0  0  0  0  0  0
   50.1624    7.7115   11.8800 O   0  0  0  0  0  0  0  0  0  0  0  0
   51.3007    8.9323   10.3213 O   0  0  0  0  0  0  0  0  0  0  0  0
   49.3717    9.8934   12.0527 H   0  0  0  0  0  0  0  0  0  0  0  0
   51.1423    7.7719   12.5672 H   0  0  0  0  0  0  0  0  0  0  0  0
   51.3755    9.2922   14.7910 H   0  0  0  0  0  0  0  0  0  0  0  0
   49.6697    9.6398   14.4448 H   0  0  0  0  0  0  0  0  0  0  0  0
   50.8107    6.8003   14.6330 H   0  0  0  0  0  0  0  0  0  0  0  0
   48.7224    6.2100   14.7747 H   0  0  0  0  0  0  0  0  0  0  0  0
   51.1132    7.8167   16.8631 H   0  0  0  0  0  0  0  0  0  0  0  0
   48.0572    7.4808   16.8964 H   0  0  0  0  0  0  0  0  0  0  0  0
   49.9065    9.0554   23.2206 H   0  0  0  0  0  0  0  0  0  0  0  0
   50.2085    7.1105   24.7166 H   0  0  0  0  0  0  0  0  0  0  0  0
   50.0663    4.8101   23.7826 H   0  0  0  0  0  0  0  0  0  0  0  0
   49.6578    4.4779   21.3885 H   0  0  0  0  0  0  0  0  0  0  0  0
   51.3906    4.9987   18.4215 H   0  0  0  0  0  0  0  0  0  0  0  0
   51.1906    2.7817   17.3215 H   0  0  0  0  0  0  0  0  0  0  0  0
   46.9590    2.7886   17.9810 H   0  0  0  0  0  0  0  0  0  0  0  0
   47.1170    5.0138   19.0832 H   0  0  0  0  0  0  0  0  0  0  0  0
   50.0045   10.4361   17.9179 H   0  0  0  0  0  0  0  0  0  0  0  0
   46.9561   10.0989   18.4290 H   0  0  0  0  0  0  0  0  0  0  0  0
   47.7316   11.1817   17.1871 H   0  0  0  0  0  0  0  0  0  0  0  0
   48.1741   11.3561   20.2558 H   0  0  0  0  0  0  0  0  0  0  0  0
   48.9513   12.4143   18.9936 H   0  0  0  0  0  0  0  0  0  0  0  0
   51.9160    9.6724   11.1769 H   0  0  0  0  0  0  0  0  0  0  0  0
   52.7762    9.5349   12.7181 H   0  0  0  0  0  0  0  0  0  0  0  0
   51.7249   11.6380   13.7817 H   0  0  0  0  0  0  0  0  0  0  0  0
   49.8743   10.8083   12.8100 H   0  0  0  0  0  0  0  0  0  0  0  0
   49.0596    9.9908   15.0273 H   0  0  0  0  0  0  0  0  0  0  0  0
   48.7350    8.9298   13.6595 H   0  0  0  0  0  0  0  0  0  0  0  0
   51.2805    8.3181   15.1667 H   0  0  0  0  0  0  0  0  0  0  0  0
   50.0571    7.1114   13.3950 H   0  0  0  0  0  0  0  0  0  0  0  0
   48.4968    7.7617   16.3828 H   0  0  0  0  0  0  0  0  0  0  0  0
   51.3155    8.1552   17.5571 H   0  0  0  0  0  0  0  0  0  0  0  0
   48.1233    8.4363   23.3411 H   0  0  0  0  0  0  0  0  0  0  0  0
   47.0491    6.3949   24.2346 H   0  0  0  0  0  0  0  0  0  0  0  0
   46.8707    4.3695   22.7982 H   0  0  0  0  0  0  0  0  0  0  0  0
   47.7646    4.4030   20.5222 H   0  0  0  0  0  0  0  0  0  0  0  0
   51.0059    4.7756   18.7722 H   0  0  0  0  0  0  0  0  0  0  0  0
   50.9030    2.8076   17.2694 H   0  0  0  0  0  0  0  0  0  0  0  0
   46.8565    3.7514   16.2512 H   0  0  0  0  0  0  0  0  0  0  0  0
   46.9265    5.7370   17.7412 H   0  0  0  0  0  0  0  0  0  0  0  0
   49.9040   10.6555   18.5421 H   0  0  0  0  0  0  0  0  0  0  0  0
   52.3530   10.9161   18.8983 H   0  0  0  0  0  0  0  0  0  0  0  0
   52.3673    9.5846   20.1304 H   0  0  0  0  0  0  0  0  0  0  0  0
   50.7174   12.1880   20.3090 H   0  0  0  0  0  0  0  0  0  0  0  0
   50.6869   10.8474   21.5258 H   0  0  0  0  0  0  0  0  0  0  0  0
   52.2030   10.2255   12.1457 H   0  0  0  0  0  0  0  0  0  0  0  0
   52.2119    8.8430   13.1955 H   0  0  0  0  0  0  0  0  0  0  0  0
  2  1  1  0
  2  3  1  0
  3  4  1  0
  4  5  1  0
  4  6  1  0
  6  7  2  0
  7  8  1  0
  8  9  2  0
  9 10  1  0
 10 11  2  0
 11 12  1  0
 12 13  2  0
 13 14  1  0
 14 15  2  0
 15 16  1  0
 11 16  1  0
 16 17  2  0
  8 17  1  0
 17 18  1  0
 18 19  2  0
 19 20  1  0
 20 21  2  0
 21 22  1  0
 21 23  1  0
 23 24  2  0
 18 24  1  0
  9 25  1  0
 25 26  1  0
 26 27  1  0
 25 27  1  0
  2 28  1  0
 28 29  1  0
 29 30  2  0
 29 31  1  0
 34 33  1  0
 34 35  1  0
 35 36  1  0
 36 37  1  0
 36 38  1  0
 38 39  2  0
 39 40  1  0
 40 41  2  0
 41 42  1  0
 42 43  2  0
 43 44  1  0
 44 45  2  0
 45 46  1  0
 46 47  2  0
 47 48  1  0
 43 48  1  0
 48 49  2  0
 40 49  1  0
 49 50  1  0
 50 51  2  0
 51 52  1  0
 52 53  2  0
 53 54  1  0
 53 55  1  0
 55 56  2  0
 50 56  1  0
 41 57  1  0
 57 58  1  0
 58 59  1  0
 57 59  1  0
 34 60  1  0
 60 61  1  0
 61 62  2  0
 61 63  1  0
  1 64  1  0
  2 65  1  6
  3 66  1  0
  3 67  1  0
  4 68  1  6
  5 69  1  0
  6 70  1  0
  7 71  1  0
 12 72  1  0
 13 73  1  0
 14 74  1  0
 15 75  1  0
 19 76  1  0
 20 77  1  0
 23 78  1  0
 24 79  1  0
 25 80  1  0
 26 81  1  0
 26 82  1  0
 27 83  1  0
 27 84  1  0
 28 85  1  0
 28 86  1  0
 33 87  1  0
 34 88  1  1
 35 89  1  0
 35 90  1  0
 36 91  1  1
 37 92  1  0
 38 93  1  0
 39 94  1  0
 44 95  1  0
 45 96  1  0
 46 97  1  0
 47 98  1  0
 51 99  1  0
 52100  1  0
 55101  1  0
 56102  1  0
 57103  1  0
 58104  1  0
 58105  1  0
 59106  1  0
 59107  1  0
 60108  1  0
 60109  1  0
M  CHG  3  31  -1  32   2  63  -1
M  END
> <Uni-Dock RESULT> 
ENERGY=   -6.358  LOWER_BOUND=    2.841  UPPER_BOUND=    5.358
INTER + INTRA:          -6.358
INTER:                  -6.358
INTRA:                   0.000
UNBOUND:                 0.000

$$$$

     RDKit          3D

109114  0  0  0  0  0  0  0  0999 V2000
   47.2272    5.2664   19.5315 O   0  0  0  0  0  0  0  0  0  0  0  0
   48.5949    5.6123   19.2965 C   0  0  2  0  0  0  0  0  0  0  0  0
   48.7114    6.6343   18.1489 C   0  0  0  0  0  0  0  0  0  0  0  0
   48.5837    8.0863   18.6388 C   0  0  2  0  0  0  0  0  0  0  0  0
   47.2569    8.3802   19.0596 O   0  0  0  0  0  0  0  0  0  0  0  0
   49.0076    9.0572   17.5599 C   0  0  0  0  0  0  0  0  0  0  0  0
   48.2172    9.9293   16.9160 C   0  0  0  0  0  0  0  0  0  0  0  0
   48.7651   10.8548   15.9071 C   0  0  0  0  0  0  0  0  0  0  0  0
   48.9351   10.4278   14.5780 C   0  0  0  0  0  0  0  0  0  0  0  0
   49.4723   11.2527   13.6427 N   0  0  0  0  0  0  0  0  0  0  0  0
   49.8614   12.4899   13.9787 C   0  0  0  0  0  0  0  0  0  0  0  0
   50.4220   13.2875   12.9912 C   0  0  0  0  0  0  0  0  0  0  0  0
   50.8674   14.5857   13.2485 C   0  0  0  0  0  0  0  0  0  0  0  0
   50.7204   15.1132   14.5221 C   0  0  0  0  0  0  0  0  0  0  0  0
   50.1503   14.3355   15.5301 C   0  0  0  0  0  0  0  0  0  0  0  0
   49.7213   13.0097   15.2814 C   0  0  0  0  0  0  0  0  0  0  0  0
   49.1511   12.1656   16.2711 C   0  0  0  0  0  0  0  0  0  0  0  0
   48.9601   12.6353   17.6625 C   0  0  0  0  0  0  0  0  0  0  0  0
   49.9662   12.4586   18.6308 C   0  0  0  0  0  0  0  0  0  0  0  0
   49.7738   12.8963   19.9422 C   0  0  0  0  0  0  0  0  0  0  0  0
   48.5774   13.5102   20.2919 C   0  0  0  0  0  0  0  0  0  0  0  0
   48.3929   13.9377   21.5491 F   0  0  0  0  0  0  0  0  0  0  0  0
   47.5700   13.7028   19.3540 C   0  0  0  0  0  0  0  0  0  0  0  0
   47.7575   13.2572   18.0444 C   0  0  0  0  0  0  0  0  0  0  0  0
   48.5350    9.0348   14.1183 C   0  0  0  0  0  0  0  0  0  0  0  0
   47.0750    8.7203   13.8841 C   0  0  0  0  0  0  0  0  0  0  0  0
   48.0139    8.8001   12.7190 C   0  0  0  0  0  0  0  0  0  0  0  0
   49.4091    4.3413   19.0659 C   0  0  0  0  0  0  0  0  0  0  0  0
   49.0553    3.6277   17.7646 C   0  0  0  0  0  0  0  0  0  0  0  0
   47.8222    3.6241   17.4677 O   0  0  0  0  0  0  0  0  0  0  0  0
   50.0392    3.1312   17.1455 O   0  0  0  0  0  0  0  0  0  0  0  0
   48.8905    9.9409   16.8137 Mg  0  0  0  0  0 15  0  0  0  0  0  0
   49.2921    5.0538   16.6420 O   0  0  0  0  0  0  0  0  0  0  0  0
   48.4350    5.1966   17.7950 C   0  0  2  0  0  0  0  0  0  0  0  0
   47.7847    6.5911   17.7127 C   0  0  0  0  0  0  0  0  0  0  0  0
   48.6933    7.7467   18.1549 C   0  0  2  0  0  0  0  0  0  0  0  0
   48.4072    8.1572   19.4864 O   0  0  0  0  0  0  0  0  0  0  0  0
   48.4486    8.9706   17.3134 C   0  0  0  0  0  0  0  0  0  0  0  0
   49.4078    9.6102   16.6234 C   0  0  0  0  0  0  0  0  0  0  0  0
   49.1728   10.7968   15.7849 C   0  0  0  0  0  0  0  0  0  0  0  0
   49.3968   10.6848   14.3977 C   0  0  0  0  0  0  0  0  0  0  0  0
   49.2156   11.7420   13.5643 N   0  0  0  0  0  0  0  0  0  0  0  0
   48.8193   12.9199   14.0565 C   0  0  0  0  0  0  0  0  0  0  0  0
   48.6710   13.9727   13.1627 C   0  0  0  0  0  0  0  0  0  0  0  0
   48.2845   15.2515   13.5734 C   0  0  0  0  0  0  0  0  0  0  0  0
   48.0416   15.4885   14.9176 C   0  0  0  0  0  0  0  0  0  0  0  0
   48.1930   14.4483   15.8355 C   0  0  0  0  0  0  0  0  0  0  0  0
   48.5781   13.1428   15.4263 C   0  0  0  0  0  0  0  0  0  0  0  0
   48.7583   12.0433   16.3133 C   0  0  0  0  0  0  0  0  0  0  0  0
   48.5375   12.2245   17.7644 C   0  0  0  0  0  0  0  0  0  0  0  0
   49.6239   12.4471   18.6306 C   0  0  0  0  0  0  0  0  0  0  0  0
   49.4154   12.6218   19.9976 C   0  0  0  0  0  0  0  0  0  0  0  0
   48.1234   12.5955   20.5074 C   0  0  0  0  0  0  0  0  0  0  0  0
   47.9267   12.7889   21.8187 F   0  0  0  0  0  0  0  0  0  0  0  0
   47.0330   12.3814   19.6733 C   0  0  0  0  0  0  0  0  0  0  0  0
   47.2372   12.1905   18.3039 C   0  0  0  0  0  0  0  0  0  0  0  0
   49.8513    9.3782   13.7656 C   0  0  0  0  0  0  0  0  0  0  0  0
   51.3304    9.0632   13.6769 C   0  0  0  0  0  0  0  0  0  0  0  0
   50.5588    9.3553   12.4316 C   0  0  0  0  0  0  0  0  0  0  0  0
   49.2595    4.8352   19.0255 C   0  0  0  0  0  0  0  0  0  0  0  0
   48.4223    4.7777   20.2917 C   0  0  0  0  0  0  0  0  0  0  0  0
   47.8382    5.8551   20.5910 O   0  0  0  0  0  0  0  0  0  0  0  0
   48.4534    3.6781   20.9040 O   0  0  0  0  0  0  0  0  0  0  0  0
   47.0011    4.6705   18.7712 H   0  0  0  0  0  0  0  0  0  0  0  0
   48.9602    6.0656   20.2261 H   0  0  0  0  0  0  0  0  0  0  0  0
   49.6886    6.5206   17.6623 H   0  0  0  0  0  0  0  0  0  0  0  0
   47.9354    6.4364   17.3985 H   0  0  0  0  0  0  0  0  0  0  0  0
   49.2418    8.2391   19.5065 H   0  0  0  0  0  0  0  0  0  0  0  0
   47.3018    9.2211   19.5466 H   0  0  0  0  0  0  0  0  0  0  0  0
   50.0668    9.0259   17.3160 H   0  0  0  0  0  0  0  0  0  0  0  0
   47.1523    9.9823   17.1059 H   0  0  0  0  0  0  0  0  0  0  0  0
   50.5190   12.8763   11.9889 H   0  0  0  0  0  0  0  0  0  0  0  0
   51.3141   15.1713   12.4503 H   0  0  0  0  0  0  0  0  0  0  0  0
   51.0582   16.1227   14.7337 H   0  0  0  0  0  0  0  0  0  0  0  0
   50.0497   14.7801   16.5195 H   0  0  0  0  0  0  0  0  0  0  0  0
   50.9034   11.9648   18.3694 H   0  0  0  0  0  0  0  0  0  0  0  0
   50.5434   12.7574   20.6947 H   0  0  0  0  0  0  0  0  0  0  0  0
   46.6436   14.1861   19.6491 H   0  0  0  0  0  0  0  0  0  0  0  0
   46.9635   13.3991   17.3104 H   0  0  0  0  0  0  0  0  0  0  0  0
   49.1327    8.2293   14.5418 H   0  0  0  0  0  0  0  0  0  0  0  0
   46.3520    9.5167   14.0142 H   0  0  0  0  0  0  0  0  0  0  0  0
   46.7095    7.7374   14.1646 H   0  0  0  0  0  0  0  0  0  0  0  0
   47.9381    9.6483   12.0474 H   0  0  0  0  0  0  0  0  0  0  0  0
   48.2932    7.8713   12.2295 H   0  0  0  0  0  0  0  0  0  0  0  0
   49.2310    3.6264   19.8787 H   0  0  0  0  0  0  0  0  0  0  0  0
   50.4747    4.5925   19.0700 H   0  0  0  0  0  0  0  0  0  0  0  0
   49.6270    4.1405   16.6749 H   0  0  0  0  0  0  0  0  0  0  0  0
   47.6344    4.4574   17.6682 H   0  0  0  0  0  0  0  0  0  0  0  0
   47.4826    6.7425   16.6663 H   0  0  0  0  0  0  0  0  0  0  0  0
   46.8672    6.5901   18.3095 H   0  0  0  0  0  0  0  0  0  0  0  0
   49.7508    7.4673   18.1084 H   0  0  0  0  0  0  0  0  0  0  0  0
   48.1713    7.3407   20.0007 H   0  0  0  0  0  0  0  0  0  0  0  0
   47.4239    9.3328   17.3067 H   0  0  0  0  0  0  0  0  0  0  0  0
   50.4264    9.2308   16.6334 H   0  0  0  0  0  0  0  0  0  0  0  0
   48.8687   13.7929   12.1074 H   0  0  0  0  0  0  0  0  0  0  0  0
   48.1849   16.0522   12.8474 H   0  0  0  0  0  0  0  0  0  0  0  0
   47.7457   16.4756   15.2609 H   0  0  0  0  0  0  0  0  0  0  0  0
   48.0019   14.6656   16.8854 H   0  0  0  0  0  0  0  0  0  0  0  0
   50.6384   12.4491   18.2432 H   0  0  0  0  0  0  0  0  0  0  0  0
   50.2512   12.7699   20.6700 H   0  0  0  0  0  0  0  0  0  0  0  0
   46.0334   12.3520   20.0890 H   0  0  0  0  0  0  0  0  0  0  0  0
   46.3846   12.0180   17.6533 H   0  0  0  0  0  0  0  0  0  0  0  0
   49.1889    8.5366   13.9500 H   0  0  0  0  0  0  0  0  0  0  0  0
   51.6264    8.0421   13.8685 H   0  0  0  0  0  0  0  0  0  0  0  0
   52.0405    9.8019   14.0181 H   0  0  0  0  0  0  0  0  0  0  0  0
   50.3542    8.5322   11.7651 H   0  0  0  0  0  0  0  0  0  0  0  0
   50.7218   10.2980   11.9252 H   0  0  0  0  0  0  0  0  0  0  0  0
   49.7330    3.8564   18.8677 H   0  0  0  0  0  0  0  0  0  0  0  0
   50.0965    5.5257   19.1757 H   0  0  0  0  0  0  0  0  0  0  0  0
  2  1  1  0
  2  3  1  0
  3  4  1  0
  4  5  1  0
  4  6  1  0
  6  7  2  0
  7  8  1  0
  8  9  2  0
  9 10  1  0
 10 11  2  0
 11 12  1  0
 12 13  2  0
 13 14  1  0
 14 15  2  0
 15 16  1  0
 11 16  1  0
 16 17  2  0
  8 17  1  0
 17 18  1  0
 18 19  2  0
 19 20  1  0
 20 21  2  0
 21 22  1  0
 21 23  1  0
 23 24  2  0
 18 24  1  0
  9 25  1  0
 25 26  1  0
 26 27  1  0
 25 27  1  0
  2 28  1  0
 28 29  1  0
 29 30  2  0
 29 31  1  0
 34 33  1  0
 34 35  1  0
 35 36  1  0
 36 37  1  0
 36 38  1  0
 38 39  2  0
 39 40  1  0
 40 41  2  0
 41 42  1  0
 42 43  2  0
 43 44  1  0
 44 45  2  0
 45 46  1  0
 46 47  2  0
 47 48  1  0
 43 48  1  0
 48 49  2  0
 40 49  1  0
 49 50  1  0
 50 51  2  0
 51 52  1  0
 52 53  2  0
 53 54  1  0
 53 55  1  0
 55 56  2  0
 50 56  1  0
 41 57  1  0
 57 58  1  0
 58 59  1  0
 57 59  1  0
 34 60  1  0
 60 61  1  0
 61 62  2  0
 61 63  1  0
  1 64  1  0
  2 65  1  6
  3 66  1  0
  3 67  1  0
  4 68  1  6
  5 69  1  0
  6 70  1  0
  7 71  1  0
 12 72  1  0
 13 73  1  0
 14 74  1  0
 15 75  1  0
 19 76  1  0
 20 77  1  0
 23 78  1  0
 24 79  1  0
 25 80  1  0
 26 81  1  0
 26 82  1  0
 27 83  1  0
 27 84  1  0
 28 85  1  0
 28 86  1  0
 33 87  1  0
 34 88  1  1
 35 89  1  0
 35 90  1  0
 36 91  1  1
 37 92  1  0
 38 93  1  0
 39 94  1  0
 44 95  1  0
 45 96  1  0
 46 97  1  0
 47 98  1  0
 51 99  1  0
 52100  1  0
 55101  1  0
 56102  1  0
 57103  1  0
 58104  1  0
 58105  1  0
 59106  1  0
 59107  1  0
 60108  1  0
 60109  1  0
M  CHG  3  31  -1  32   2  63  -1
M  END
> <Uni-Dock RESULT> 
ENERGY=   -6.096  LOWER_BOUND=    3.398  UPPER_BOUND=    7.137
INTER + INTRA:          -6.096
INTER:                  -6.096
INTRA:                   0.000
UNBOUND:                 0.000

$$$$

     RDKit          3D

109114  0  0  0  0  0  0  0  0999 V2000
   48.1404    4.8132   20.1337 O   0  0  0  0  0  0  0  0  0  0  0  0
   48.2466    6.2391   20.1077 C   0  0  2  0  0  0  0  0  0  0  0  0
   49.3064    6.6903   19.0838 C   0  0  0  0  0  0  0  0  0  0  0  0
   48.7251    6.8569   17.6700 C   0  0  2  0  0  0  0  0  0  0  0  0
   48.3853    5.6012   17.0942 O   0  0  0  0  0  0  0  0  0  0  0  0
   49.6970    7.5881   16.7715 C   0  0  0  0  0  0  0  0  0  0  0  0
   50.3345    7.0807   15.7057 C   0  0  0  0  0  0  0  0  0  0  0  0
   51.2307    7.9153   14.8841 C   0  0  0  0  0  0  0  0  0  0  0  0
   52.5703    8.1010   15.2696 C   0  0  0  0  0  0  0  0  0  0  0  0
   53.4014    8.8954   14.5470 N   0  0  0  0  0  0  0  0  0  0  0  0
   52.9497    9.5272   13.4553 C   0  0  0  0  0  0  0  0  0  0  0  0
   53.8327   10.3425   12.7619 C   0  0  0  0  0  0  0  0  0  0  0  0
   53.4506   11.0499   11.6202 C   0  0  0  0  0  0  0  0  0  0  0  0
   52.1573   10.9147   11.1398 C   0  0  0  0  0  0  0  0  0  0  0  0
   51.2531   10.0927   11.8126 C   0  0  0  0  0  0  0  0  0  0  0  0
   51.6274    9.3941   12.9854 C   0  0  0  0  0  0  0  0  0  0  0  0
   50.7462    8.5584   13.7217 C   0  0  0  0  0  0  0  0  0  0  0  0
   49.3430    8.3566   13.2931 C   0  0  0  0  0  0  0  0  0  0  0  0
   48.3170    9.2040   13.7516 C   0  0  0  0  0  0  0  0  0  0  0  0
   46.9959    9.0006   13.3495 C   0  0  0  0  0  0  0  0  0  0  0  0
   46.6941    7.9513   12.4903 C   0  0  0  0  0  0  0  0  0  0  0  0
   45.4270    7.7581   12.0971 F   0  0  0  0  0  0  0  0  0  0  0  0
   47.6889    7.1036   12.0176 C   0  0  0  0  0  0  0  0  0  0  0  0
   49.0092    7.3002   12.4262 C   0  0  0  0  0  0  0  0  0  0  0  0
   53.1571    7.4338   16.5035 C   0  0  0  0  0  0  0  0  0  0  0  0
   53.5223    5.9677   16.4529 C   0  0  0  0  0  0  0  0  0  0  0  0
   54.6048    7.0004   16.5361 C   0  0  0  0  0  0  0  0  0  0  0  0
   48.5056    6.7562   21.5210 C   0  0  0  0  0  0  0  0  0  0  0  0
   49.8774    6.3658   22.0628 C   0  0  0  0  0  0  0  0  0  0  0  0
   50.2656    5.1968   21.7606 O   0  0  0  0  0  0  0  0  0  0  0  0
   50.4546    7.2605   22.7441 O   0  0  0  0  0  0  0  0  0  0  0  0
   50.3849    7.7450   15.8476 Mg  0  0  0  0  0 15  0  0  0  0  0  0
   50.8743    7.0243   20.6763 O   0  0  0  0  0  0  0  0  0  0  0  0
   49.7818    6.1232   20.3957 C   0  0  2  0  0  0  0  0  0  0  0  0
   49.8130    5.8216   18.8850 C   0  0  0  0  0  0  0  0  0  0  0  0
   49.2224    6.9284   18.0002 C   0  0  2  0  0  0  0  0  0  0  0  0
   47.8902    6.6261   17.6036 O   0  0  0  0  0  0  0  0  0  0  0  0
   49.9904    7.0486   16.7111 C   0  0  0  0  0  0  0  0  0  0  0  0
   50.5588    8.1872   16.2805 C   0  0  0  0  0  0  0  0  0  0  0  0
   51.3258    8.3079   15.0301 C   0  0  0  0  0  0  0  0  0  0  0  0
   52.6967    8.6237   15.1195 C   0  0  0  0  0  0  0  0  0  0  0  0
   53.4637    8.7664   14.0077 N   0  0  0  0  0  0  0  0  0  0  0  0
   52.9199    8.6094   12.7967 C   0  0  0  0  0  0  0  0  0  0  0  0
   53.7448    8.7883   11.6937 C   0  0  0  0  0  0  0  0  0  0  0  0
   53.2741    8.6713   10.3829 C   0  0  0  0  0  0  0  0  0  0  0  0
   51.9385    8.3699   10.1654 C   0  0  0  0  0  0  0  0  0  0  0  0
   51.0884    8.1947   11.2582 C   0  0  0  0  0  0  0  0  0  0  0  0
   51.5597    8.3040   12.5946 C   0  0  0  0  0  0  0  0  0  0  0  0
   50.7424    8.1459   13.7501 C   0  0  0  0  0  0  0  0  0  0  0  0
   49.3028    7.8434   13.5976 C   0  0  0  0  0  0  0  0  0  0  0  0
   48.3437    8.8697   13.6822 C   0  0  0  0  0  0  0  0  0  0  0  0
   46.9872    8.5852   13.5344 C   0  0  0  0  0  0  0  0  0  0  0  0
   46.5792    7.2814   13.2823 C   0  0  0  0  0  0  0  0  0  0  0  0
   45.2760    7.0177   13.1163 F   0  0  0  0  0  0  0  0  0  0  0  0
   47.5060    6.2504   13.1901 C   0  0  0  0  0  0  0  0  0  0  0  0
   48.8663    6.5272   13.3525 C   0  0  0  0  0  0  0  0  0  0  0  0
   53.3845    8.8201   16.4618 C   0  0  0  0  0  0  0  0  0  0  0  0
   53.3840   10.1887   17.1111 C   0  0  0  0  0  0  0  0  0  0  0  0
   54.6597    9.6201   16.5814 C   0  0  0  0  0  0  0  0  0  0  0  0
   48.5218    6.7285   21.0043 C   0  0  0  0  0  0  0  0  0  0  0  0
   47.3294    5.7905   20.9287 C   0  0  0  0  0  0  0  0  0  0  0  0
   46.9986    5.4457   19.7611 O   0  0  0  0  0  0  0  0  0  0  0  0
   46.7966    5.5125   22.0350 O   0  0  0  0  0  0  0  0  0  0  0  0
   48.9562    4.5251   20.6193 H   0  0  0  0  0  0  0  0  0  0  0  0
   47.2623    6.6140   19.8021 H   0  0  0  0  0  0  0  0  0  0  0  0
   49.7251    7.6547   19.3989 H   0  0  0  0  0  0  0  0  0  0  0  0
   50.1251    5.9601   19.0543 H   0  0  0  0  0  0  0  0  0  0  0  0
   47.8016    7.4520   17.7216 H   0  0  0  0  0  0  0  0  0  0  0  0
   47.8374    5.7946   16.3140 H   0  0  0  0  0  0  0  0  0  0  0  0
   49.8622    8.6291   17.0386 H   0  0  0  0  0  0  0  0  0  0  0  0
   50.2219    6.0440   15.4135 H   0  0  0  0  0  0  0  0  0  0  0  0
   54.8517   10.4318   13.1318 H   0  0  0  0  0  0  0  0  0  0  0  0
   54.1692   11.6893   11.1157 H   0  0  0  0  0  0  0  0  0  0  0  0
   51.8494   11.4554   10.2505 H   0  0  0  0  0  0  0  0  0  0  0  0
   50.2449   10.0088   11.4088 H   0  0  0  0  0  0  0  0  0  0  0  0
   48.5418   10.0219   14.4380 H   0  0  0  0  0  0  0  0  0  0  0  0
   46.1995    9.6468   13.7045 H   0  0  0  0  0  0  0  0  0  0  0  0
   47.4306    6.2908   11.3457 H   0  0  0  0  0  0  0  0  0  0  0  0
   49.7888    6.6294   12.0635 H   0  0  0  0  0  0  0  0  0  0  0  0
   52.7485    7.7895   17.4479 H   0  0  0  0  0  0  0  0  0  0  0  0
   53.3904    5.4388   15.5166 H   0  0  0  0  0  0  0  0  0  0  0  0
   53.3410    5.3620   17.3353 H   0  0  0  0  0  0  0  0  0  0  0  0
   55.2179    7.1826   15.6602 H   0  0  0  0  0  0  0  0  0  0  0  0
   55.1370    7.1012   17.4778 H   0  0  0  0  0  0  0  0  0  0  0  0
   47.7616    6.3461   22.2150 H   0  0  0  0  0  0  0  0  0  0  0  0
   48.4035    7.8462   21.5283 H   0  0  0  0  0  0  0  0  0  0  0  0
   50.8816    7.1356   21.6431 H   0  0  0  0  0  0  0  0  0  0  0  0
   50.0208    5.1887   20.9180 H   0  0  0  0  0  0  0  0  0  0  0  0
   50.8656    5.6576   18.6126 H   0  0  0  0  0  0  0  0  0  0  0  0
   49.2884    4.8787   18.7009 H   0  0  0  0  0  0  0  0  0  0  0  0
   49.2091    7.8930   18.5179 H   0  0  0  0  0  0  0  0  0  0  0  0
   47.4547    6.1635   18.3671 H   0  0  0  0  0  0  0  0  0  0  0  0
   50.0481    6.1396   16.1182 H   0  0  0  0  0  0  0  0  0  0  0  0
   50.4994    9.0860   16.8890 H   0  0  0  0  0  0  0  0  0  0  0  0
   54.7924    9.0331   11.8600 H   0  0  0  0  0  0  0  0  0  0  0  0
   53.9465    8.8243    9.5447 H   0  0  0  0  0  0  0  0  0  0  0  0
   51.5488    8.2796    9.1556 H   0  0  0  0  0  0  0  0  0  0  0  0
   50.0430    7.9653   11.0568 H   0  0  0  0  0  0  0  0  0  0  0  0
   48.6527    9.8879   13.8990 H   0  0  0  0  0  0  0  0  0  0  0  0
   46.2451    9.3688   13.6224 H   0  0  0  0  0  0  0  0  0  0  0  0
   47.1698    5.2377   13.0049 H   0  0  0  0  0  0  0  0  0  0  0  0
   49.5899    5.7197   13.2854 H   0  0  0  0  0  0  0  0  0  0  0  0
   53.3109    7.9679   17.1322 H   0  0  0  0  0  0  0  0  0  0  0  0
   53.2442   10.2232   18.1817 H   0  0  0  0  0  0  0  0  0  0  0  0
   52.9385   11.0163   16.5790 H   0  0  0  0  0  0  0  0  0  0  0  0
   55.3968    9.2921   17.2974 H   0  0  0  0  0  0  0  0  0  0  0  0
   55.0839   10.0404   15.6785 H   0  0  0  0  0  0  0  0  0  0  0  0
   48.7130    6.9761   22.0576 H   0  0  0  0  0  0  0  0  0  0  0  0
   48.2602    7.6851   20.5391 H   0  0  0  0  0  0  0  0  0  0  0  0
  2  1  1  0
  2  3  1  0
  3  4  1  0
  4  5  1  0
  4  6  1  0
  6  7  2  0
  7  8  1  0
  8  9  2  0
  9 10  1  0
 10 11  2  0
 11 12  1  0
 12 13  2  0
 13 14  1  0
 14 15  2  0
 15 16  1  0
 11 16  1  0
 16 17  2  0
  8 17  1  0
 17 18  1  0
 18 19  2  0
 19 20  1  0
 20 21  2  0
 21 22  1  0
 21 23  1  0
 23 24  2  0
 18 24  1  0
  9 25  1  0
 25 26  1  0
 26 27  1  0
 25 27  1  0
  2 28  1  0
 28 29  1  0
 29 30  2  0
 29 31  1  0
 34 33  1  0
 34 35  1  0
 35 36  1  0
 36 37  1  0
 36 38  1  0
 38 39  2  0
 39 40  1  0
 40 41  2  0
 41 42  1  0
 42 43  2  0
 43 44  1  0
 44 45  2  0
 45 46  1  0
 46 47  2  0
 47 48  1  0
 43 48  1  0
 48 49  2  0
 40 49  1  0
 49 50  1  0
 50 51  2  0
 51 52  1  0
 52 53  2  0
 53 54  1  0
 53 55  1  0
 55 56  2  0
 50 56  1  0
 41 57  1  0
 57 58  1  0
 58 59  1  0
 57 59  1  0
 34 60  1  0
 60 61  1  0
 61 62  2  0
 61 63  1  0
  1 64  1  0
  2 65  1  6
  3 66  1  0
  3 67  1  0
  4 68  1  6
  5 69  1  0
  6 70  1  0
  7 71  1  0
 12 72  1  0
 13 73  1  0
 14 74  1  0
 15 75  1  0
 19 76  1  0
 20 77  1  0
 23 78  1  0
 24 79  1  0
 25 80  1  0
 26 81  1  0
 26 82  1  0
 27 83  1  0
 27 84  1  0
 28 85  1  0
 28 86  1  0
 33 87  1  0
 34 88  1  1
 35 89  1  0
 35 90  1  0
 36 91  1  1
 37 92  1  0
 38 93  1  0
 39 94  1  0
 44 95  1  0
 45 96  1  0
 46 97  1  0
 47 98  1  0
 51 99  1  0
 52100  1  0
 55101  1  0
 56102  1  0
 57103  1  0
 58104  1  0
 58105  1  0
 59106  1  0
 59107  1  0
 60108  1  0
 60109  1  0
M  CHG  3  31  -1  32   2  63  -1
M  END
> <Uni-Dock RESULT> 
ENERGY=   -6.084  LOWER_BOUND=    4.106  UPPER_BOUND=    8.621
INTER + INTRA:          -6.084
INTER:                  -6.084
INTRA:                   0.000
UNBOUND:                 0.000

$$$$

     RDKit          3D

109114  0  0  0  0  0  0  0  0999 V2000
   48.2377    9.7245   20.1880 O   0  0  0  0  0  0  0  0  0  0  0  0
   47.3644   10.5396   19.4018 C   0  0  2  0  0  0  0  0  0  0  0  0
   48.1304   11.1973   18.2374 C   0  0  0  0  0  0  0  0  0  0  0  0
   48.1796   10.3043   16.9866 C   0  0  2  0  0  0  0  0  0  0  0  0
   49.0166    9.1715   17.1869 O   0  0  0  0  0  0  0  0  0  0  0  0
   48.6551   11.0883   15.7842 C   0  0  0  0  0  0  0  0  0  0  0  0
   49.8053   10.9074   15.1178 C   0  0  0  0  0  0  0  0  0  0  0  0
   50.1341   11.7167   13.9297 C   0  0  0  0  0  0  0  0  0  0  0  0
   50.7250   12.9837   14.0819 C   0  0  0  0  0  0  0  0  0  0  0  0
   51.0014   13.7597   13.0024 N   0  0  0  0  0  0  0  0  0  0  0  0
   50.7019   13.3303   11.7691 C   0  0  0  0  0  0  0  0  0  0  0  0
   50.9867   14.1680   10.7003 C   0  0  0  0  0  0  0  0  0  0  0  0
   50.7004   13.8125    9.3807 C   0  0  0  0  0  0  0  0  0  0  0  0
   50.1414   12.5711    9.1188 C   0  0  0  0  0  0  0  0  0  0  0  0
   49.8552   11.7060   10.1750 C   0  0  0  0  0  0  0  0  0  0  0  0
   50.1189   12.0720   11.5167 C   0  0  0  0  0  0  0  0  0  0  0  0
   49.8327   11.2413   12.6325 C   0  0  0  0  0  0  0  0  0  0  0  0
   49.2280    9.9010   12.4560 C   0  0  0  0  0  0  0  0  0  0  0  0
   47.8307    9.7321   12.4501 C   0  0  0  0  0  0  0  0  0  0  0  0
   47.2699    8.4637   12.2923 C   0  0  0  0  0  0  0  0  0  0  0  0
   48.1005    7.3603   12.1411 C   0  0  0  0  0  0  0  0  0  0  0  0
   47.5642    6.1419   11.9824 F   0  0  0  0  0  0  0  0  0  0  0  0
   49.4833    7.4997   12.1369 C   0  0  0  0  0  0  0  0  0  0  0  0
   50.0457    8.7664   12.3040 C   0  0  0  0  0  0  0  0  0  0  0  0
   51.0812   13.5517   15.4466 C   0  0  0  0  0  0  0  0  0  0  0  0
   52.3129   13.0471   16.1632 C   0  0  0  0  0  0  0  0  0  0  0  0
   52.2877   14.4448   15.6238 C   0  0  0  0  0  0  0  0  0  0  0  0
   46.6522   11.5425   20.3065 C   0  0  0  0  0  0  0  0  0  0  0  0
   47.5890   12.5930   20.8954 C   0  0  0  0  0  0  0  0  0  0  0  0
   48.7324   12.1656   21.2400 O   0  0  0  0  0  0  0  0  0  0  0  0
   47.1056   13.7590   20.9631 O   0  0  0  0  0  0  0  0  0  0  0  0
   49.3409   11.3462   14.8817 Mg  0  0  0  0  0 15  0  0  0  0  0  0
   48.3133   13.1734   19.3179 O   0  0  0  0  0  0  0  0  0  0  0  0
   48.3188   11.7619   19.6210 C   0  0  2  0  0  0  0  0  0  0  0  0
   49.1103   11.0562   18.5031 C   0  0  0  0  0  0  0  0  0  0  0  0
   48.3266   10.8468   17.1999 C   0  0  2  0  0  0  0  0  0  0  0  0
   47.8226    9.5205   17.0999 O   0  0  0  0  0  0  0  0  0  0  0  0
   49.2262   11.0084   16.0038 C   0  0  0  0  0  0  0  0  0  0  0  0
   48.9941   11.8737   15.0026 C   0  0  0  0  0  0  0  0  0  0  0  0
   49.8781   12.0494   13.8390 C   0  0  0  0  0  0  0  0  0  0  0  0
   50.5140   13.2961   13.6700 C   0  0  0  0  0  0  0  0  0  0  0  0
   51.3311   13.5358   12.6118 N   0  0  0  0  0  0  0  0  0  0  0  0
   51.5438   12.5794   11.7024 C   0  0  0  0  0  0  0  0  0  0  0  0
   52.3705   12.8856   10.6291 C   0  0  0  0  0  0  0  0  0  0  0  0
   52.6410   11.9683    9.6100 C   0  0  0  0  0  0  0  0  0  0  0  0
   52.0665   10.7075    9.6611 C   0  0  0  0  0  0  0  0  0  0  0  0
   51.2250   10.3802   10.7252 C   0  0  0  0  0  0  0  0  0  0  0  0
   50.9503   11.3037   11.7700 C   0  0  0  0  0  0  0  0  0  0  0  0
   50.0948   11.0340   12.8762 C   0  0  0  0  0  0  0  0  0  0  0  0
   49.4297    9.7179   12.9885 C   0  0  0  0  0  0  0  0  0  0  0  0
   48.0971    9.5519   12.5677 C   0  0  0  0  0  0  0  0  0  0  0  0
   47.4717    8.3105   12.6700 C   0  0  0  0  0  0  0  0  0  0  0  0
   48.1747    7.2231   13.1730 C   0  0  0  0  0  0  0  0  0  0  0  0
   47.5764    6.0263   13.2458 F   0  0  0  0  0  0  0  0  0  0  0  0
   49.4925    7.3590   13.5917 C   0  0  0  0  0  0  0  0  0  0  0  0
   50.1201    8.6049   13.5058 C   0  0  0  0  0  0  0  0  0  0  0  0
   50.3180   14.4327   14.6614 C   0  0  0  0  0  0  0  0  0  0  0  0
   49.1595   15.3921   14.4823 C   0  0  0  0  0  0  0  0  0  0  0  0
   50.5580   15.8703   14.2659 C   0  0  0  0  0  0  0  0  0  0  0  0
   46.8761   11.3448   19.8838 C   0  0  0  0  0  0  0  0  0  0  0  0
   46.7648    9.9153   20.3854 C   0  0  0  0  0  0  0  0  0  0  0  0
   47.2232    9.0403   19.6006 O   0  0  0  0  0  0  0  0  0  0  0  0
   46.1905    9.7820   21.4977 O   0  0  0  0  0  0  0  0  0  0  0  0
   48.7704   10.3819   20.7061 H   0  0  0  0  0  0  0  0  0  0  0  0
   46.5975    9.8668   18.9991 H   0  0  0  0  0  0  0  0  0  0  0  0
   47.6369   12.1397   17.9675 H   0  0  0  0  0  0  0  0  0  0  0  0
   49.1545   11.4313   18.5551 H   0  0  0  0  0  0  0  0  0  0  0  0
   47.1701    9.9282   16.7654 H   0  0  0  0  0  0  0  0  0  0  0  0
   48.8302    8.5579   16.4553 H   0  0  0  0  0  0  0  0  0  0  0  0
   47.9658   11.8588   15.4471 H   0  0  0  0  0  0  0  0  0  0  0  0
   50.5350   10.1700   15.4286 H   0  0  0  0  0  0  0  0  0  0  0  0
   51.4419   15.1338   10.9085 H   0  0  0  0  0  0  0  0  0  0  0  0
   50.9256   14.5041    8.5742 H   0  0  0  0  0  0  0  0  0  0  0  0
   49.9186   12.2810    8.0970 H   0  0  0  0  0  0  0  0  0  0  0  0
   49.4162   10.7384    9.9347 H   0  0  0  0  0  0  0  0  0  0  0  0
   47.1703   10.5906   12.5826 H   0  0  0  0  0  0  0  0  0  0  0  0
   46.1933    8.3264   12.2931 H   0  0  0  0  0  0  0  0  0  0  0  0
   50.1134    6.6238   12.0160 H   0  0  0  0  0  0  0  0  0  0  0  0
   51.1308    8.8753   12.3107 H   0  0  0  0  0  0  0  0  0  0  0  0
   50.2249   13.7826   16.0784 H   0  0  0  0  0  0  0  0  0  0  0  0
   52.9345   12.3157   15.6606 H   0  0  0  0  0  0  0  0  0  0  0  0
   52.2675   12.9268   17.2411 H   0  0  0  0  0  0  0  0  0  0  0  0
   52.8905   14.6768   14.7526 H   0  0  0  0  0  0  0  0  0  0  0  0
   52.2067   15.2610   16.3363 H   0  0  0  0  0  0  0  0  0  0  0  0
   46.1860   11.0227   21.1527 H   0  0  0  0  0  0  0  0  0  0  0  0
   45.8566   12.0358   19.7387 H   0  0  0  0  0  0  0  0  0  0  0  0
   47.8788   13.6033   20.0753 H   0  0  0  0  0  0  0  0  0  0  0  0
   48.8987   11.6551   20.5461 H   0  0  0  0  0  0  0  0  0  0  0  0
   49.9985   11.6723   18.3014 H   0  0  0  0  0  0  0  0  0  0  0  0
   49.4720   10.0937   18.8783 H   0  0  0  0  0  0  0  0  0  0  0  0
   47.4791   11.5358   17.1251 H   0  0  0  0  0  0  0  0  0  0  0  0
   47.5634    9.2354   18.0155 H   0  0  0  0  0  0  0  0  0  0  0  0
   50.0936   10.3538   15.9829 H   0  0  0  0  0  0  0  0  0  0  0  0
   48.1267   12.5275   15.0421 H   0  0  0  0  0  0  0  0  0  0  0  0
   52.8171   13.8772   10.5809 H   0  0  0  0  0  0  0  0  0  0  0  0
   53.2872   12.2446    8.7828 H   0  0  0  0  0  0  0  0  0  0  0  0
   52.2577    9.9801    8.8776 H   0  0  0  0  0  0  0  0  0  0  0  0
   50.7828    9.3850   10.7353 H   0  0  0  0  0  0  0  0  0  0  0  0
   47.5344   10.4013   12.1921 H   0  0  0  0  0  0  0  0  0  0  0  0
   46.4391    8.1852   12.3689 H   0  0  0  0  0  0  0  0  0  0  0  0
   50.0222    6.5037   13.9926 H   0  0  0  0  0  0  0  0  0  0  0  0
   51.1488    8.7115   13.8381 H   0  0  0  0  0  0  0  0  0  0  0  0
   50.5863   14.1860   15.6853 H   0  0  0  0  0  0  0  0  0  0  0  0
   48.6425   15.7087   15.3764 H   0  0  0  0  0  0  0  0  0  0  0  0
   48.5221   15.2816   13.6174 H   0  0  0  0  0  0  0  0  0  0  0  0
   50.9799   16.5340   15.0041 H   0  0  0  0  0  0  0  0  0  0  0  0
   50.8907   16.0718   13.2557 H   0  0  0  0  0  0  0  0  0  0  0  0
   46.4361   12.0191   20.6315 H   0  0  0  0  0  0  0  0  0  0  0  0
   46.2455   11.4675   18.9965 H   0  0  0  0  0  0  0  0  0  0  0  0
  2  1  1  0
  2  3  1  0
  3  4  1  0
  4  5  1  0
  4  6  1  0
  6  7  2  0
  7  8  1  0
  8  9  2  0
  9 10  1  0
 10 11  2  0
 11 12  1  0
 12 13  2  0
 13 14  1  0
 14 15  2  0
 15 16  1  0
 11 16  1  0
 16 17  2  0
  8 17  1  0
 17 18  1  0
 18 19  2  0
 19 20  1  0
 20 21  2  0
 21 22  1  0
 21 23  1  0
 23 24  2  0
 18 24  1  0
  9 25  1  0
 25 26  1  0
 26 27  1  0
 25 27  1  0
  2 28  1  0
 28 29  1  0
 29 30  2  0
 29 31  1  0
 34 33  1  0
 34 35  1  0
 35 36  1  0
 36 37  1  0
 36 38  1  0
 38 39  2  0
 39 40  1  0
 40 41  2  0
 41 42  1  0
 42 43  2  0
 43 44  1  0
 44 45  2  0
 45 46  1  0
 46 47  2  0
 47 48  1  0
 43 48  1  0
 48 49  2  0
 40 49  1  0
 49 50  1  0
 50 51  2  0
 51 52  1  0
 52 53  2  0
 53 54  1  0
 53 55  1  0
 55 56  2  0
 50 56  1  0
 41 57  1  0
 57 58  1  0
 58 59  1  0
 57 59  1  0
 34 60  1  0
 60 61  1  0
 61 62  2  0
 61 63  1  0
  1 64  1  0
  2 65  1  6
  3 66  1  0
  3 67  1  0
  4 68  1  6
  5 69  1  0
  6 70  1  0
  7 71  1  0
 12 72  1  0
 13 73  1  0
 14 74  1  0
 15 75  1  0
 19 76  1  0
 20 77  1  0
 23 78  1  0
 24 79  1  0
 25 80  1  0
 26 81  1  0
 26 82  1  0
 27 83  1  0
 27 84  1  0
 28 85  1  0
 28 86  1  0
 33 87  1  0
 34 88  1  1
 35 89  1  0
 35 90  1  0
 36 91  1  1
 37 92  1  0
 38 93  1  0
 39 94  1  0
 44 95  1  0
 45 96  1  0
 46 97  1  0
 47 98  1  0
 51 99  1  0
 52100  1  0
 55101  1  0
 56102  1  0
 57103  1  0
 58104  1  0
 58105  1  0
 59106  1  0
 59107  1  0
 60108  1  0
 60109  1  0
M  CHG  3  31  -1  32   2  63  -1
M  END
> <Uni-Dock RESULT> 
ENERGY=   -6.044  LOWER_BOUND=    4.345  UPPER_BOUND=    9.571
INTER + INTRA:          -6.044
INTER:                  -6.044
INTRA:                   0.000
UNBOUND:                 0.000

$$$$
