
     RDKit          3D

109114  0  0  0  0  0  0  0  0999 V2000
   47.9742    8.6387   13.8951 O   0  0  0  0  0  0  0  0  0  0  0  0
   48.8196    7.4855   13.8504 C   0  0  2  0  0  0  0  0  0  0  0  0
   49.7219    7.4694   15.0909 C   0  0  0  0  0  0  0  0  0  0  0  0
   48.8870    7.3152   16.3729 C   0  0  2  0  0  0  0  0  0  0  0  0
   48.0756    8.4613   16.6149 O   0  0  0  0  0  0  0  0  0  0  0  0
   49.7544    7.1448   17.5851 C   0  0  0  0  0  0  0  0  0  0  0  0
   50.1147    5.9463   18.0709 C   0  0  0  0  0  0  0  0  0  0  0  0
   50.9380    5.7578   19.2808 C   0  0  0  0  0  0  0  0  0  0  0  0
   50.3647    5.1028   20.3878 C   0  0  0  0  0  0  0  0  0  0  0  0
   51.0891    4.8290   21.5062 N   0  0  0  0  0  0  0  0  0  0  0  0
   52.3721    5.2037   21.5767 C   0  0  0  0  0  0  0  0  0  0  0  0
   53.0718    4.8951   22.7360 C   0  0  0  0  0  0  0  0  0  0  0  0
   54.4147    5.2347   22.9089 C   0  0  0  0  0  0  0  0  0  0  0  0
   55.0900    5.8897   21.8937 C   0  0  0  0  0  0  0  0  0  0  0  0
   54.4081    6.2082   20.7208 C   0  0  0  0  0  0  0  0  0  0  0  0
   53.0375    5.8788   20.5360 C   0  0  0  0  0  0  0  0  0  0  0  0
   52.2920    6.1690   19.3555 C   0  0  0  0  0  0  0  0  0  0  0  0
   52.9327    6.8785   18.2255 C   0  0  0  0  0  0  0  0  0  0  0  0
   53.4136    6.1723   17.1093 C   0  0  0  0  0  0  0  0  0  0  0  0
   54.0237    6.8468   16.0485 C   0  0  0  0  0  0  0  0  0  0  0  0
   54.1603    8.2293   16.1041 C   0  0  0  0  0  0  0  0  0  0  0  0
   54.7793    8.8722   15.1062 F   0  0  0  0  0  0  0  0  0  0  0  0
   53.6869    8.9526   17.1918 C   0  0  0  0  0  0  0  0  0  0  0  0
   53.0761    8.2794   18.2521 C   0  0  0  0  0  0  0  0  0  0  0  0
   48.9126    4.6434   20.3959 C   0  0  0  0  0  0  0  0  0  0  0  0
   47.7929    5.6574   20.4584 C   0  0  0  0  0  0  0  0  0  0  0  0
   48.0761    4.7929   21.6467 C   0  0  0  0  0  0  0  0  0  0  0  0
   49.5706    7.4062   12.5269 C   0  0  0  0  0  0  0  0  0  0  0  0
   50.4776    8.6017   12.2525 C   0  0  0  0  0  0  0  0  0  0  0  0
   50.0544    9.7010   12.7143 O   0  0  0  0  0  0  0  0  0  0  0  0
   51.5150    8.3448   11.5793 O   0  0  0  0  0  0  0  0  0  0  0  0
   51.0594    6.7772   17.8742 Mg  0  0  0  0  0 15  0  0  0  0  0  0
   48.6431    7.5746   15.9133 O   0  0  0  0  0  0  0  0  0  0  0  0
   49.3007    6.9756   14.7839 C   0  0  2  0  0  0  0  0  0  0  0  0
   50.2516    8.0293   14.1947 C   0  0  0  0  0  0  0  0  0  0  0  0
   51.6003    8.1679   14.9257 C   0  0  2  0  0  0  0  0  0  0  0  0
   52.4784    7.1410   14.4610 O   0  0  0  0  0  0  0  0  0  0  0  0
   51.5377    8.1840   16.4307 C   0  0  0  0  0  0  0  0  0  0  0  0
   52.1882    7.3668   17.2748 C   0  0  0  0  0  0  0  0  0  0  0  0
   52.0011    7.4108   18.7419 C   0  0  0  0  0  0  0  0  0  0  0  0
   52.3994    8.5324   19.4934 C   0  0  0  0  0  0  0  0  0  0  0  0
   52.2050    8.5941   20.8414 N   0  0  0  0  0  0  0  0  0  0  0  0
   51.6333    7.5671   21.4828 C   0  0  0  0  0  0  0  0  0  0  0  0
   51.4488    7.6787   22.8567 C   0  0  0  0  0  0  0  0  0  0  0  0
   50.8741    6.6578   23.6143 C   0  0  0  0  0  0  0  0  0  0  0  0
   50.4657    5.4922   22.9876 C   0  0  0  0  0  0  0  0  0  0  0  0
   50.6348    5.3614   21.6101 C   0  0  0  0  0  0  0  0  0  0  0  0
   51.2270    6.3884   20.8302 C   0  0  0  0  0  0  0  0  0  0  0  0
   51.4373    6.3032   19.4232 C   0  0  0  0  0  0  0  0  0  0  0  0
   51.0969    5.0620   18.6912 C   0  0  0  0  0  0  0  0  0  0  0  0
   51.9979    3.9814   18.6647 C   0  0  0  0  0  0  0  0  0  0  0  0
   51.6811    2.8077   17.9776 C   0  0  0  0  0  0  0  0  0  0  0  0
   50.4655    2.7047   17.3142 C   0  0  0  0  0  0  0  0  0  0  0  0
   50.1659    1.5669   16.6729 F   0  0  0  0  0  0  0  0  0  0  0  0
   49.5640    3.7593   17.3158 C   0  0  0  0  0  0  0  0  0  0  0  0
   49.8771    4.9333   18.0084 C   0  0  0  0  0  0  0  0  0  0  0  0
   53.0647    9.7453   18.8591 C   0  0  0  0  0  0  0  0  0  0  0  0
   54.2500   10.3944   19.5390 C   0  0  0  0  0  0  0  0  0  0  0  0
   54.4522    9.6469   18.2585 C   0  0  0  0  0  0  0  0  0  0  0  0
   48.2381    6.5570   13.7674 C   0  0  0  0  0  0  0  0  0  0  0  0
   47.4696    5.3676   14.3363 C   0  0  0  0  0  0  0  0  0  0  0  0
   47.3446    4.3757   13.5652 O   0  0  0  0  0  0  0  0  0  0  0  0
   47.0584    5.5209   15.5255 O   0  0  0  0  0  0  0  0  0  0  0  0
   48.5483    9.3628   13.5168 H   0  0  0  0  0  0  0  0  0  0  0  0
   48.1500    6.6175   13.8990 H   0  0  0  0  0  0  0  0  0  0  0  0
   50.2812    8.4117   15.1465 H   0  0  0  0  0  0  0  0  0  0  0  0
   50.4336    6.6411   15.0107 H   0  0  0  0  0  0  0  0  0  0  0  0
   48.2067    6.4642   16.2809 H   0  0  0  0  0  0  0  0  0  0  0  0
   47.7866    8.7717   15.7262 H   0  0  0  0  0  0  0  0  0  0  0  0
   50.0763    8.0618   18.0711 H   0  0  0  0  0  0  0  0  0  0  0  0
   49.7826    5.0299   17.5876 H   0  0  0  0  0  0  0  0  0  0  0  0
   52.5505    4.3659   23.5289 H   0  0  0  0  0  0  0  0  0  0  0  0
   54.9280    4.9791   23.8310 H   0  0  0  0  0  0  0  0  0  0  0  0
   56.1402    6.1471   22.0050 H   0  0  0  0  0  0  0  0  0  0  0  0
   54.9651    6.7161   19.9356 H   0  0  0  0  0  0  0  0  0  0  0  0
   53.3058    5.0911   17.0546 H   0  0  0  0  0  0  0  0  0  0  0  0
   54.3736    6.3097   15.1707 H   0  0  0  0  0  0  0  0  0  0  0  0
   53.7841   10.0351   17.2018 H   0  0  0  0  0  0  0  0  0  0  0  0
   52.6931    8.8494   19.0960 H   0  0  0  0  0  0  0  0  0  0  0  0
   48.7169    3.7495   19.8093 H   0  0  0  0  0  0  0  0  0  0  0  0
   46.9162    5.4550   19.8567 H   0  0  0  0  0  0  0  0  0  0  0  0
   48.0398    6.7104   20.5240 H   0  0  0  0  0  0  0  0  0  0  0  0
   47.3828    3.9937   21.8828 H   0  0  0  0  0  0  0  0  0  0  0  0
   48.5256    5.2610   22.5156 H   0  0  0  0  0  0  0  0  0  0  0  0
   48.8471    7.3707   11.7019 H   0  0  0  0  0  0  0  0  0  0  0  0
   50.1625    6.4855   12.4895 H   0  0  0  0  0  0  0  0  0  0  0  0
   47.9274    6.9239   16.1346 H   0  0  0  0  0  0  0  0  0  0  0  0
   49.8609    6.1013   15.1349 H   0  0  0  0  0  0  0  0  0  0  0  0
   49.7478    9.0073   14.2051 H   0  0  0  0  0  0  0  0  0  0  0  0
   50.4671    7.7789   13.1482 H   0  0  0  0  0  0  0  0  0  0  0  0
   52.0486    9.1152   14.5981 H   0  0  0  0  0  0  0  0  0  0  0  0
   53.3488    7.3207   14.8455 H   0  0  0  0  0  0  0  0  0  0  0  0
   50.8513    8.9256   16.8364 H   0  0  0  0  0  0  0  0  0  0  0  0
   52.8226    6.5674   16.9055 H   0  0  0  0  0  0  0  0  0  0  0  0
   51.7666    8.5922   23.3528 H   0  0  0  0  0  0  0  0  0  0  0  0
   50.7417    6.7825   24.6841 H   0  0  0  0  0  0  0  0  0  0  0  0
   50.0077    4.6908   23.5597 H   0  0  0  0  0  0  0  0  0  0  0  0
   50.2884    4.4446   21.1388 H   0  0  0  0  0  0  0  0  0  0  0  0
   52.9527    4.0551   19.1812 H   0  0  0  0  0  0  0  0  0  0  0  0
   52.3722    1.9723   17.9538 H   0  0  0  0  0  0  0  0  0  0  0  0
   48.6280    3.6784   16.7664 H   0  0  0  0  0  0  0  0  0  0  0  0
   49.1626    5.7556   17.9916 H   0  0  0  0  0  0  0  0  0  0  0  0
   52.3741   10.4266   18.3709 H   0  0  0  0  0  0  0  0  0  0  0  0
   54.6248    9.9488   20.4517 H   0  0  0  0  0  0  0  0  0  0  0  0
   54.3007   11.4747   19.5230 H   0  0  0  0  0  0  0  0  0  0  0  0
   54.9764    8.7005   18.3072 H   0  0  0  0  0  0  0  0  0  0  0  0
   54.6509   10.2170   17.3586 H   0  0  0  0  0  0  0  0  0  0  0  0
   47.5247    7.3662   13.5781 H   0  0  0  0  0  0  0  0  0  0  0  0
   48.7081    6.2743   12.8177 H   0  0  0  0  0  0  0  0  0  0  0  0
  2  1  1  0
  2  3  1  0
  3  4  1  0
  4  5  1  0
  4  6  1  0
  6  7  2  0
  7  8  1  0
  8  9  2  0
  9 10  1  0
 10 11  2  0
 11 12  1  0
 12 13  2  0
 13 14  1  0
 14 15  2  0
 15 16  1  0
 11 16  1  0
 16 17  2  0
  8 17  1  0
 17 18  1  0
 18 19  2  0
 19 20  1  0
 20 21  2  0
 21 22  1  0
 21 23  1  0
 23 24  2  0
 18 24  1  0
  9 25  1  0
 25 26  1  0
 26 27  1  0
 25 27  1  0
  2 28  1  0
 28 29  1  0
 29 30  2  0
 29 31  1  0
 34 33  1  0
 34 35  1  0
 35 36  1  0
 36 37  1  0
 36 38  1  0
 38 39  2  0
 39 40  1  0
 40 41  2  0
 41 42  1  0
 42 43  2  0
 43 44  1  0
 44 45  2  0
 45 46  1  0
 46 47  2  0
 47 48  1  0
 43 48  1  0
 48 49  2  0
 40 49  1  0
 49 50  1  0
 50 51  2  0
 51 52  1  0
 52 53  2  0
 53 54  1  0
 53 55  1  0
 55 56  2  0
 50 56  1  0
 41 57  1  0
 57 58  1  0
 58 59  1  0
 57 59  1  0
 34 60  1  0
 60 61  1  0
 61 62  2  0
 61 63  1  0
  1 64  1  0
  2 65  1  1
  3 66  1  0
  3 67  1  0
  4 68  1  1
  5 69  1  0
  6 70  1  0
  7 71  1  0
 12 72  1  0
 13 73  1  0
 14 74  1  0
 15 75  1  0
 19 76  1  0
 20 77  1  0
 23 78  1  0
 24 79  1  0
 25 80  1  0
 26 81  1  0
 26 82  1  0
 27 83  1  0
 27 84  1  0
 28 85  1  0
 28 86  1  0
 33 87  1  0
 34 88  1  1
 35 89  1  0
 35 90  1  0
 36 91  1  6
 37 92  1  0
 38 93  1  0
 39 94  1  0
 44 95  1  0
 45 96  1  0
 46 97  1  0
 47 98  1  0
 51 99  1  0
 52100  1  0
 55101  1  0
 56102  1  0
 57103  1  0
 58104  1  0
 58105  1  0
 59106  1  0
 59107  1  0
 60108  1  0
 60109  1  0
M  CHG  3  31  -1  32   2  63  -1
M  END
> <Uni-Dock RESULT> 
ENERGY=   -5.856  LOWER_BOUND=    0.000  UPPER_BOUND=    0.000
INTER + INTRA:          -5.856
INTER:                  -5.856
INTRA:                   0.000
UNBOUND:                 0.000

$$$$

     RDKit          3D

109114  0  0  0  0  0  0  0  0999 V2000
   47.5135    9.9027   12.1604 O   0  0  0  0  0  0  0  0  0  0  0  0
   48.8638   10.0145   12.6193 C   0  0  2  0  0  0  0  0  0  0  0  0
   48.8913    9.8990   14.1488 C   0  0  0  0  0  0  0  0  0  0  0  0
   48.4193    8.5072   14.6010 C   0  0  2  0  0  0  0  0  0  0  0  0
   47.0388    8.2999   14.3156 O   0  0  0  0  0  0  0  0  0  0  0  0
   48.5807    8.3182   16.0806 C   0  0  0  0  0  0  0  0  0  0  0  0
   49.6697    7.7661   16.6386 C   0  0  0  0  0  0  0  0  0  0  0  0
   49.8323    7.5403   18.0876 C   0  0  0  0  0  0  0  0  0  0  0  0
   49.9480    6.2159   18.5522 C   0  0  0  0  0  0  0  0  0  0  0  0
   50.1751    5.9394   19.8645 N   0  0  0  0  0  0  0  0  0  0  0  0
   50.2729    6.9397   20.7485 C   0  0  0  0  0  0  0  0  0  0  0  0
   50.5126    6.6073   22.0754 C   0  0  0  0  0  0  0  0  0  0  0  0
   50.6379    7.5735   23.0751 C   0  0  0  0  0  0  0  0  0  0  0  0
   50.5357    8.9141   22.7462 C   0  0  0  0  0  0  0  0  0  0  0  0
   50.2966    9.2709   21.4204 C   0  0  0  0  0  0  0  0  0  0  0  0
   50.1552    8.2970   20.3944 C   0  0  0  0  0  0  0  0  0  0  0  0
   49.9211    8.6025   19.0213 C   0  0  0  0  0  0  0  0  0  0  0  0
   49.7858   10.0101   18.5841 C   0  0  0  0  0  0  0  0  0  0  0  0
   50.8682   10.6924   18.0019 C   0  0  0  0  0  0  0  0  0  0  0  0
   50.7366   12.0233   17.5973 C   0  0  0  0  0  0  0  0  0  0  0  0
   49.5235   12.6777   17.7795 C   0  0  0  0  0  0  0  0  0  0  0  0
   49.4081   13.9642   17.4277 F   0  0  0  0  0  0  0  0  0  0  0  0
   48.4353   12.0247   18.3450 C   0  0  0  0  0  0  0  0  0  0  0  0
   48.5656   10.6941   18.7489 C   0  0  0  0  0  0  0  0  0  0  0  0
   49.8476    5.0170   17.6181 C   0  0  0  0  0  0  0  0  0  0  0  0
   48.5215    4.6467   16.9933 C   0  0  0  0  0  0  0  0  0  0  0  0
   49.1087    3.7728   18.0568 C   0  0  0  0  0  0  0  0  0  0  0  0
   49.5270   11.2729   12.0729 C   0  0  0  0  0  0  0  0  0  0  0  0
   48.8362   12.5697   12.4831 C   0  0  0  0  0  0  0  0  0  0  0  0
   47.5808   12.4798   12.6122 O   0  0  0  0  0  0  0  0  0  0  0  0
   49.6006   13.5668   12.6135 O   0  0  0  0  0  0  0  0  0  0  0  0
   49.3021    8.8867   17.1188 Mg  0  0  0  0  0 15  0  0  0  0  0  0
   48.2124    8.7208   14.1014 O   0  0  0  0  0  0  0  0  0  0  0  0
   49.2638    9.5781   13.6256 C   0  0  2  0  0  0  0  0  0  0  0  0
   48.7941   11.0289   13.8155 C   0  0  0  0  0  0  0  0  0  0  0  0
   48.9652   11.5854   15.2416 C   0  0  2  0  0  0  0  0  0  0  0  0
   50.3166   12.0203   15.4022 O   0  0  0  0  0  0  0  0  0  0  0  0
   48.5574   10.6659   16.3631 C   0  0  0  0  0  0  0  0  0  0  0  0
   49.3166   10.2665   17.3963 C   0  0  0  0  0  0  0  0  0  0  0  0
   48.8490    9.2958   18.4105 C   0  0  0  0  0  0  0  0  0  0  0  0
   47.7922    9.6095   19.2859 C   0  0  0  0  0  0  0  0  0  0  0  0
   47.3355    8.7113   20.2042 N   0  0  0  0  0  0  0  0  0  0  0  0
   47.9022    7.5016   20.2964 C   0  0  0  0  0  0  0  0  0  0  0  0
   47.3976    6.6166   21.2430 C   0  0  0  0  0  0  0  0  0  0  0  0
   47.9290    5.3392   21.4232 C   0  0  0  0  0  0  0  0  0  0  0  0
   48.9912    4.9265   20.6361 C   0  0  0  0  0  0  0  0  0  0  0  0
   49.5085    5.7949   19.6762 C   0  0  0  0  0  0  0  0  0  0  0  0
   48.9833    7.1000   19.4901 C   0  0  0  0  0  0  0  0  0  0  0  0
   49.4814    8.0336   18.5355 C   0  0  0  0  0  0  0  0  0  0  0  0
   50.6618    7.6969   17.7074 C   0  0  0  0  0  0  0  0  0  0  0  0
   51.9617    7.8674   18.2185 C   0  0  0  0  0  0  0  0  0  0  0  0
   53.0785    7.5495   17.4426 C   0  0  0  0  0  0  0  0  0  0  0  0
   52.9057    7.0600   16.1546 C   0  0  0  0  0  0  0  0  0  0  0  0
   53.9847    6.7425   15.4264 F   0  0  0  0  0  0  0  0  0  0  0  0
   51.6350    6.8927   15.6232 C   0  0  0  0  0  0  0  0  0  0  0  0
   50.5154    7.2049   16.4008 C   0  0  0  0  0  0  0  0  0  0  0  0
   47.0891   10.9591   19.2656 C   0  0  0  0  0  0  0  0  0  0  0  0
   46.7543   11.6524   20.5678 C   0  0  0  0  0  0  0  0  0  0  0  0
   47.8161   12.2220   19.6804 C   0  0  0  0  0  0  0  0  0  0  0  0
   49.5168    9.2655   12.1505 C   0  0  0  0  0  0  0  0  0  0  0  0
   50.1785    7.8935   12.0556 C   0  0  0  0  0  0  0  0  0  0  0  0
   51.2196    7.8347   11.3438 O   0  0  0  0  0  0  0  0  0  0  0  0
   49.6016    6.9791   12.7172 O   0  0  0  0  0  0  0  0  0  0  0  0
   47.1561   10.8296   12.2611 H   0  0  0  0  0  0  0  0  0  0  0  0
   49.3987    9.1538   12.1983 H   0  0  0  0  0  0  0  0  0  0  0  0
   48.2247   10.6547   14.5829 H   0  0  0  0  0  0  0  0  0  0  0  0
   49.9100   10.0792   14.5077 H   0  0  0  0  0  0  0  0  0  0  0  0
   48.9697    7.7289   14.0654 H   0  0  0  0  0  0  0  0  0  0  0  0
   46.8756    8.7562   13.4584 H   0  0  0  0  0  0  0  0  0  0  0  0
   47.7470    8.6474   16.6948 H   0  0  0  0  0  0  0  0  0  0  0  0
   50.4986    7.4284   16.0200 H   0  0  0  0  0  0  0  0  0  0  0  0
   50.6106    5.5568   22.3355 H   0  0  0  0  0  0  0  0  0  0  0  0
   50.8226    7.2750   24.1026 H   0  0  0  0  0  0  0  0  0  0  0  0
   50.6470    9.6802   23.5092 H   0  0  0  0  0  0  0  0  0  0  0  0
   50.2287   10.3322   21.1882 H   0  0  0  0  0  0  0  0  0  0  0  0
   51.8194   10.1865   17.8501 H   0  0  0  0  0  0  0  0  0  0  0  0
   51.5614   12.5483   17.1223 H   0  0  0  0  0  0  0  0  0  0  0  0
   47.4903   12.5501   18.4556 H   0  0  0  0  0  0  0  0  0  0  0  0
   47.7079   10.1805   19.1781 H   0  0  0  0  0  0  0  0  0  0  0  0
   50.7298    4.8434   17.0073 H   0  0  0  0  0  0  0  0  0  0  0  0
   48.5429    4.3111   15.9645 H   0  0  0  0  0  0  0  0  0  0  0  0
   47.6423    5.2296   17.2409 H   0  0  0  0  0  0  0  0  0  0  0  0
   49.5269    2.8153   17.7679 H   0  0  0  0  0  0  0  0  0  0  0  0
   48.6308    3.7722   19.0304 H   0  0  0  0  0  0  0  0  0  0  0  0
   49.5069   11.2451   10.9755 H   0  0  0  0  0  0  0  0  0  0  0  0
   50.5763   11.3061   12.3852 H   0  0  0  0  0  0  0  0  0  0  0  0
   48.4923    7.8202   13.7926 H   0  0  0  0  0  0  0  0  0  0  0  0
   50.1641    9.3815   14.2190 H   0  0  0  0  0  0  0  0  0  0  0  0
   47.7310   11.0966   13.5406 H   0  0  0  0  0  0  0  0  0  0  0  0
   49.3542   11.6837   13.1359 H   0  0  0  0  0  0  0  0  0  0  0  0
   48.3494   12.4920   15.3099 H   0  0  0  0  0  0  0  0  0  0  0  0
   50.3671   12.4694   16.2586 H   0  0  0  0  0  0  0  0  0  0  0  0
   47.5457   10.2749   16.2680 H   0  0  0  0  0  0  0  0  0  0  0  0
   50.3532   10.5758   17.4843 H   0  0  0  0  0  0  0  0  0  0  0  0
   46.5631    6.9356   21.8623 H   0  0  0  0  0  0  0  0  0  0  0  0
   47.5059    4.6740   22.1688 H   0  0  0  0  0  0  0  0  0  0  0  0
   49.4115    3.9324   20.7557 H   0  0  0  0  0  0  0  0  0  0  0  0
   50.3298    5.4403   19.0577 H   0  0  0  0  0  0  0  0  0  0  0  0
   52.1052    8.2514   19.2264 H   0  0  0  0  0  0  0  0  0  0  0  0
   54.0824    7.6795   17.8317 H   0  0  0  0  0  0  0  0  0  0  0  0
   51.5129    6.5378   14.6016 H   0  0  0  0  0  0  0  0  0  0  0  0
   49.5250    7.0771   15.9651 H   0  0  0  0  0  0  0  0  0  0  0  0
   46.3507   11.0638   18.4761 H   0  0  0  0  0  0  0  0  0  0  0  0
   47.0638   11.1828   21.4929 H   0  0  0  0  0  0  0  0  0  0  0  0
   45.8013   12.1601   20.6288 H   0  0  0  0  0  0  0  0  0  0  0  0
   48.8433   12.1471   20.0151 H   0  0  0  0  0  0  0  0  0  0  0  0
   47.5937   13.1312   19.1343 H   0  0  0  0  0  0  0  0  0  0  0  0
   48.5812    9.2341   11.5819 H   0  0  0  0  0  0  0  0  0  0  0  0
   50.1722   10.0243   11.7060 H   0  0  0  0  0  0  0  0  0  0  0  0
  2  1  1  0
  2  3  1  0
  3  4  1  0
  4  5  1  0
  4  6  1  0
  6  7  2  0
  7  8  1  0
  8  9  2  0
  9 10  1  0
 10 11  2  0
 11 12  1  0
 12 13  2  0
 13 14  1  0
 14 15  2  0
 15 16  1  0
 11 16  1  0
 16 17  2  0
  8 17  1  0
 17 18  1  0
 18 19  2  0
 19 20  1  0
 20 21  2  0
 21 22  1  0
 21 23  1  0
 23 24  2  0
 18 24  1  0
  9 25  1  0
 25 26  1  0
 26 27  1  0
 25 27  1  0
  2 28  1  0
 28 29  1  0
 29 30  2  0
 29 31  1  0
 34 33  1  0
 34 35  1  0
 35 36  1  0
 36 37  1  0
 36 38  1  0
 38 39  2  0
 39 40  1  0
 40 41  2  0
 41 42  1  0
 42 43  2  0
 43 44  1  0
 44 45  2  0
 45 46  1  0
 46 47  2  0
 47 48  1  0
 43 48  1  0
 48 49  2  0
 40 49  1  0
 49 50  1  0
 50 51  2  0
 51 52  1  0
 52 53  2  0
 53 54  1  0
 53 55  1  0
 55 56  2  0
 50 56  1  0
 41 57  1  0
 57 58  1  0
 58 59  1  0
 57 59  1  0
 34 60  1  0
 60 61  1  0
 61 62  2  0
 61 63  1  0
  1 64  1  0
  2 65  1  1
  3 66  1  0
  3 67  1  0
  4 68  1  1
  5 69  1  0
  6 70  1  0
  7 71  1  0
 12 72  1  0
 13 73  1  0
 14 74  1  0
 15 75  1  0
 19 76  1  0
 20 77  1  0
 23 78  1  0
 24 79  1  0
 25 80  1  0
 26 81  1  0
 26 82  1  0
 27 83  1  0
 27 84  1  0
 28 85  1  0
 28 86  1  0
 33 87  1  0
 34 88  1  1
 35 89  1  0
 35 90  1  0
 36 91  1  6
 37 92  1  0
 38 93  1  0
 39 94  1  0
 44 95  1  0
 45 96  1  0
 46 97  1  0
 47 98  1  0
 51 99  1  0
 52100  1  0
 55101  1  0
 56102  1  0
 57103  1  0
 58104  1  0
 58105  1  0
 59106  1  0
 59107  1  0
 60108  1  0
 60109  1  0
M  CHG  3  31  -1  32   2  63  -1
M  END
> <Uni-Dock RESULT> 
ENERGY=   -5.217  LOWER_BOUND=    2.821  UPPER_BOUND=    4.315
INTER + INTRA:          -5.217
INTER:                  -5.217
INTRA:                   0.000
UNBOUND:                 0.000

$$$$

     RDKit          3D

109114  0  0  0  0  0  0  0  0999 V2000
   55.3434   11.8163   19.7561 O   0  0  0  0  0  0  0  0  0  0  0  0
   54.5861   11.7651   18.5436 C   0  0  2  0  0  0  0  0  0  0  0  0
   53.8204   10.4373   18.4792 C   0  0  0  0  0  0  0  0  0  0  0  0
   52.7852   10.3471   19.6125 C   0  0  2  0  0  0  0  0  0  0  0  0
   53.4087   10.2648   20.8912 O   0  0  0  0  0  0  0  0  0  0  0  0
   51.9212    9.1275   19.4815 C   0  0  0  0  0  0  0  0  0  0  0  0
   50.7378    9.1273   18.8477 C   0  0  0  0  0  0  0  0  0  0  0  0
   49.8585    7.9475   18.7382 C   0  0  0  0  0  0  0  0  0  0  0  0
   48.5893    7.9971   19.3465 C   0  0  0  0  0  0  0  0  0  0  0  0
   47.6997    6.9757   19.2212 N   0  0  0  0  0  0  0  0  0  0  0  0
   48.0338    5.8837   18.5230 C   0  0  0  0  0  0  0  0  0  0  0  0
   47.0892    4.8712   18.4172 C   0  0  0  0  0  0  0  0  0  0  0  0
   47.3338    3.6945   17.7072 C   0  0  0  0  0  0  0  0  0  0  0  0
   48.5501    3.5218   17.0694 C   0  0  0  0  0  0  0  0  0  0  0  0
   49.5126    4.5255   17.1609 C   0  0  0  0  0  0  0  0  0  0  0  0
   49.2811    5.7236   17.8904 C   0  0  0  0  0  0  0  0  0  0  0  0
   50.2226    6.7880   18.0095 C   0  0  0  0  0  0  0  0  0  0  0  0
   51.5528    6.6809   17.3694 C   0  0  0  0  0  0  0  0  0  0  0  0
   51.8112    7.2994   16.1338 C   0  0  0  0  0  0  0  0  0  0  0  0
   53.0669    7.1892   15.5310 C   0  0  0  0  0  0  0  0  0  0  0  0
   54.0662    6.4546   16.1595 C   0  0  0  0  0  0  0  0  0  0  0  0
   55.2573    6.3162   15.5643 F   0  0  0  0  0  0  0  0  0  0  0  0
   53.8401    5.8399   17.3848 C   0  0  0  0  0  0  0  0  0  0  0  0
   52.5856    5.9503   17.9885 C   0  0  0  0  0  0  0  0  0  0  0  0
   48.1264    9.1982   20.1607 C   0  0  0  0  0  0  0  0  0  0  0  0
   48.7468    9.4900   21.5083 C   0  0  0  0  0  0  0  0  0  0  0  0
   47.3371    8.9933   21.4340 C   0  0  0  0  0  0  0  0  0  0  0  0
   55.4691   12.0398   17.3326 C   0  0  0  0  0  0  0  0  0  0  0  0
   56.6114   11.0444   17.1556 C   0  0  0  0  0  0  0  0  0  0  0  0
   57.0850   10.5883   18.2365 O   0  0  0  0  0  0  0  0  0  0  0  0
   56.9526   10.8265   15.9591 O   0  0  0  0  0  0  0  0  0  0  0  0
   51.5610    8.2216   18.4960 Mg  0  0  0  0  0 15  0  0  0  0  0  0
   53.2640   10.6651   19.6998 O   0  0  0  0  0  0  0  0  0  0  0  0
   53.6249   11.1217   18.3852 C   0  0  2  0  0  0  0  0  0  0  0  0
   54.8752   10.3388   17.9547 C   0  0  0  0  0  0  0  0  0  0  0  0
   54.5996    8.9265   17.4049 C   0  0  2  0  0  0  0  0  0  0  0  0
   54.2181    9.0379   16.0325 O   0  0  0  0  0  0  0  0  0  0  0  0
   53.6041    8.0998   18.1762 C   0  0  0  0  0  0  0  0  0  0  0  0
   52.4882    7.5258   17.6978 C   0  0  0  0  0  0  0  0  0  0  0  0
   51.5288    6.7945   18.5545 C   0  0  0  0  0  0  0  0  0  0  0  0
   51.8920    5.5948   19.1950 C   0  0  0  0  0  0  0  0  0  0  0  0
   51.0244    4.9291   20.0090 N   0  0  0  0  0  0  0  0  0  0  0  0
   49.7896    5.4083   20.2056 C   0  0  0  0  0  0  0  0  0  0  0  0
   48.9425    4.6989   21.0501 C   0  0  0  0  0  0  0  0  0  0  0  0
   47.6346    5.1109   21.3075 C   0  0  0  0  0  0  0  0  0  0  0  0
   47.1547    6.2653   20.7115 C   0  0  0  0  0  0  0  0  0  0  0  0
   47.9888    6.9958   19.8667 C   0  0  0  0  0  0  0  0  0  0  0  0
   49.3175    6.5819   19.5892 C   0  0  0  0  0  0  0  0  0  0  0  0
   50.2082    7.2808   18.7237 C   0  0  0  0  0  0  0  0  0  0  0  0
   49.7479    8.4820   17.9904 C   0  0  0  0  0  0  0  0  0  0  0  0
   49.0367    8.3499   16.7834 C   0  0  0  0  0  0  0  0  0  0  0  0
   48.5984    9.4792   16.0887 C   0  0  0  0  0  0  0  0  0  0  0  0
   48.8660   10.7451   16.5931 C   0  0  0  0  0  0  0  0  0  0  0  0
   48.4253   11.8204   15.9262 F   0  0  0  0  0  0  0  0  0  0  0  0
   49.5746   10.9031   17.7755 C   0  0  0  0  0  0  0  0  0  0  0  0
   50.0091    9.7731   18.4756 C   0  0  0  0  0  0  0  0  0  0  0  0
   53.2674    4.9650   19.0286 C   0  0  0  0  0  0  0  0  0  0  0  0
   53.3914    3.4704   18.8304 C   0  0  0  0  0  0  0  0  0  0  0  0
   53.7061    4.3938   17.6956 C   0  0  0  0  0  0  0  0  0  0  0  0
   53.9059   12.6231   18.4515 C   0  0  0  0  0  0  0  0  0  0  0  0
   52.5831   13.3513   18.6726 C   0  0  0  0  0  0  0  0  0  0  0  0
   52.3511   14.3163   17.8922 O   0  0  0  0  0  0  0  0  0  0  0  0
   51.8718   12.8862   19.6130 O   0  0  0  0  0  0  0  0  0  0  0  0
   56.1786   11.3179   19.5300 H   0  0  0  0  0  0  0  0  0  0  0  0
   53.8560   12.5819   18.6082 H   0  0  0  0  0  0  0  0  0  0  0  0
   54.5272    9.6043   18.5812 H   0  0  0  0  0  0  0  0  0  0  0  0
   53.3168   10.3559   17.5103 H   0  0  0  0  0  0  0  0  0  0  0  0
   52.1606   11.2444   19.6264 H   0  0  0  0  0  0  0  0  0  0  0  0
   54.2075   10.8375   20.8320 H   0  0  0  0  0  0  0  0  0  0  0  0
   52.3035    8.2229   19.9466 H   0  0  0  0  0  0  0  0  0  0  0  0
   50.3534   10.0371   18.3916 H   0  0  0  0  0  0  0  0  0  0  0  0
   46.1266    5.0097   18.9020 H   0  0  0  0  0  0  0  0  0  0  0  0
   46.5714    2.9236   17.6490 H   0  0  0  0  0  0  0  0  0  0  0  0
   48.7512    2.6189   16.4985 H   0  0  0  0  0  0  0  0  0  0  0  0
   50.4569    4.3673   16.6433 H   0  0  0  0  0  0  0  0  0  0  0  0
   51.0371    7.8810   15.6376 H   0  0  0  0  0  0  0  0  0  0  0  0
   53.2814    7.6870   14.5889 H   0  0  0  0  0  0  0  0  0  0  0  0
   54.6441    5.2907   17.8679 H   0  0  0  0  0  0  0  0  0  0  0  0
   52.4154    5.4802   18.9549 H   0  0  0  0  0  0  0  0  0  0  0  0
   47.8385   10.0631   19.5687 H   0  0  0  0  0  0  0  0  0  0  0  0
   48.9269   10.5300   21.7483 H   0  0  0  0  0  0  0  0  0  0  0  0
   49.5038    8.8184   21.8954 H   0  0  0  0  0  0  0  0  0  0  0  0
   46.5313    9.6887   21.6399 H   0  0  0  0  0  0  0  0  0  0  0  0
   47.1416    7.9785   21.7628 H   0  0  0  0  0  0  0  0  0  0  0  0
   55.9340   13.0286   17.4406 H   0  0  0  0  0  0  0  0  0  0  0  0
   54.8588   12.0574   16.4233 H   0  0  0  0  0  0  0  0  0  0  0  0
   52.5764   11.3191   19.9899 H   0  0  0  0  0  0  0  0  0  0  0  0
   52.7877   10.9180   17.7077 H   0  0  0  0  0  0  0  0  0  0  0  0
   55.5530   10.2507   18.8168 H   0  0  0  0  0  0  0  0  0  0  0  0
   55.4038   10.9001   17.1738 H   0  0  0  0  0  0  0  0  0  0  0  0
   55.5564    8.3877   17.4063 H   0  0  0  0  0  0  0  0  0  0  0  0
   54.1654    8.1369   15.6818 H   0  0  0  0  0  0  0  0  0  0  0  0
   53.8287    8.0152   19.2383 H   0  0  0  0  0  0  0  0  0  0  0  0
   52.1923    7.6508   16.6611 H   0  0  0  0  0  0  0  0  0  0  0  0
   49.3151    3.7928   21.5212 H   0  0  0  0  0  0  0  0  0  0  0  0
   47.0040    4.5341   21.9762 H   0  0  0  0  0  0  0  0  0  0  0  0
   46.1426    6.6064   20.9076 H   0  0  0  0  0  0  0  0  0  0  0  0
   47.5949    7.9089   19.4263 H   0  0  0  0  0  0  0  0  0  0  0  0
   48.8241    7.3614   16.3813 H   0  0  0  0  0  0  0  0  0  0  0  0
   48.0503    9.3828   15.1579 H   0  0  0  0  0  0  0  0  0  0  0  0
   49.8051   11.9006   18.1447 H   0  0  0  0  0  0  0  0  0  0  0  0
   50.5727    9.9147   19.3972 H   0  0  0  0  0  0  0  0  0  0  0  0
   54.0423    5.4225   19.6367 H   0  0  0  0  0  0  0  0  0  0  0  0
   52.4832    2.8841   18.7710 H   0  0  0  0  0  0  0  0  0  0  0  0
   54.2072    2.9692   19.3334 H   0  0  0  0  0  0  0  0  0  0  0  0
   53.0139    4.4200   16.8632 H   0  0  0  0  0  0  0  0  0  0  0  0
   54.7442    4.5217   17.4123 H   0  0  0  0  0  0  0  0  0  0  0  0
   54.5748   12.8687   19.2833 H   0  0  0  0  0  0  0  0  0  0  0  0
   54.3666   12.9673   17.5176 H   0  0  0  0  0  0  0  0  0  0  0  0
  2  1  1  0
  2  3  1  0
  3  4  1  0
  4  5  1  0
  4  6  1  0
  6  7  2  0
  7  8  1  0
  8  9  2  0
  9 10  1  0
 10 11  2  0
 11 12  1  0
 12 13  2  0
 13 14  1  0
 14 15  2  0
 15 16  1  0
 11 16  1  0
 16 17  2  0
  8 17  1  0
 17 18  1  0
 18 19  2  0
 19 20  1  0
 20 21  2  0
 21 22  1  0
 21 23  1  0
 23 24  2  0
 18 24  1  0
  9 25  1  0
 25 26  1  0
 26 27  1  0
 25 27  1  0
  2 28  1  0
 28 29  1  0
 29 30  2  0
 29 31  1  0
 34 33  1  0
 34 35  1  0
 35 36  1  0
 36 37  1  0
 36 38  1  0
 38 39  2  0
 39 40  1  0
 40 41  2  0
 41 42  1  0
 42 43  2  0
 43 44  1  0
 44 45  2  0
 45 46  1  0
 46 47  2  0
 47 48  1  0
 43 48  1  0
 48 49  2  0
 40 49  1  0
 49 50  1  0
 50 51  2  0
 51 52  1  0
 52 53  2  0
 53 54  1  0
 53 55  1  0
 55 56  2  0
 50 56  1  0
 41 57  1  0
 57 58  1  0
 58 59  1  0
 57 59  1  0
 34 60  1  0
 60 61  1  0
 61 62  2  0
 61 63  1  0
  1 64  1  0
  2 65  1  1
  3 66  1  0
  3 67  1  0
  4 68  1  1
  5 69  1  0
  6 70  1  0
  7 71  1  0
 12 72  1  0
 13 73  1  0
 14 74  1  0
 15 75  1  0
 19 76  1  0
 20 77  1  0
 23 78  1  0
 24 79  1  0
 25 80  1  0
 26 81  1  0
 26 82  1  0
 27 83  1  0
 27 84  1  0
 28 85  1  0
 28 86  1  0
 33 87  1  0
 34 88  1  1
 35 89  1  0
 35 90  1  0
 36 91  1  6
 37 92  1  0
 38 93  1  0
 39 94  1  0
 44 95  1  0
 45 96  1  0
 46 97  1  0
 47 98  1  0
 51 99  1  0
 52100  1  0
 55101  1  0
 56102  1  0
 57103  1  0
 58104  1  0
 58105  1  0
 59106  1  0
 59107  1  0
 60108  1  0
 60109  1  0
M  CHG  3  31  -1  32   2  63  -1
M  END
> <Uni-Dock RESULT> 
ENERGY=   -5.064  LOWER_BOUND=    3.139  UPPER_BOUND=    5.913
INTER + INTRA:          -5.064
INTER:                  -5.064
INTRA:                   0.000
UNBOUND:                 0.000

$$$$

     RDKit          3D

109114  0  0  0  0  0  0  0  0999 V2000
   46.1593   14.4405   10.7068 O   0  0  0  0  0  0  0  0  0  0  0  0
   45.7389   13.7454   11.8843 C   0  0  2  0  0  0  0  0  0  0  0  0
   46.8454   12.7785   12.3250 C   0  0  0  0  0  0  0  0  0  0  0  0
   48.1128   13.5471   12.7340 C   0  0  2  0  0  0  0  0  0  0  0  0
   48.7178   14.1975   11.6199 O   0  0  0  0  0  0  0  0  0  0  0  0
   49.1549   12.6352   13.3113 C   0  0  0  0  0  0  0  0  0  0  0  0
   49.2765   12.3942   14.6264 C   0  0  0  0  0  0  0  0  0  0  0  0
   50.3157   11.5284   15.2160 C   0  0  0  0  0  0  0  0  0  0  0  0
   51.2606   12.1090   16.0839 C   0  0  0  0  0  0  0  0  0  0  0  0
   52.1986   11.3570   16.7204 N   0  0  0  0  0  0  0  0  0  0  0  0
   52.2480   10.0361   16.5099 C   0  0  0  0  0  0  0  0  0  0  0  0
   53.2184    9.3103   17.1884 C   0  0  0  0  0  0  0  0  0  0  0  0
   53.3518    7.9282   17.0451 C   0  0  0  0  0  0  0  0  0  0  0  0
   52.4859    7.2410   16.2122 C   0  0  0  0  0  0  0  0  0  0  0  0
   51.5034    7.9488   15.5223 C   0  0  0  0  0  0  0  0  0  0  0  0
   51.3638    9.3578   15.6499 C   0  0  0  0  0  0  0  0  0  0  0  0
   50.3723   10.1325   14.9787 C   0  0  0  0  0  0  0  0  0  0  0  0
   49.4135    9.4798   14.0593 C   0  0  0  0  0  0  0  0  0  0  0  0
   48.1129    9.1563   14.4832 C   0  0  0  0  0  0  0  0  0  0  0  0
   47.2142    8.5340   13.6129 C   0  0  0  0  0  0  0  0  0  0  0  0
   47.6160    8.2277   12.3175 C   0  0  0  0  0  0  0  0  0  0  0  0
   46.7687    7.5967   11.4954 F   0  0  0  0  0  0  0  0  0  0  0  0
   48.8930    8.5435   11.8703 C   0  0  0  0  0  0  0  0  0  0  0  0
   49.7916    9.1663   12.7392 C   0  0  0  0  0  0  0  0  0  0  0  0
   51.2799   13.6029   16.3797 C   0  0  0  0  0  0  0  0  0  0  0  0
   51.7058   14.5857   15.3125 C   0  0  0  0  0  0  0  0  0  0  0  0
   52.5967   14.3381   16.4892 C   0  0  0  0  0  0  0  0  0  0  0  0
   44.3783   13.0907   11.6792 C   0  0  0  0  0  0  0  0  0  0  0  0
   44.3444   12.0637   10.5517 C   0  0  0  0  0  0  0  0  0  0  0  0
   45.1134   12.3218    9.5808 O   0  0  0  0  0  0  0  0  0  0  0  0
   43.5366   11.1076   10.7210 O   0  0  0  0  0  0  0  0  0  0  0  0
   49.2188   11.3694   13.8728 Mg  0  0  0  0  0 15  0  0  0  0  0  0
   47.7608   13.7850   12.3372 O   0  0  0  0  0  0  0  0  0  0  0  0
   46.4596   13.2741   12.6727 C   0  0  2  0  0  0  0  0  0  0  0  0
   46.0822   12.2398   11.6007 C   0  0  0  0  0  0  0  0  0  0  0  0
   46.6990   10.8427   11.8008 C   0  0  2  0  0  0  0  0  0  0  0  0
   45.9050   10.1252   12.7475 O   0  0  0  0  0  0  0  0  0  0  0  0
   48.1553   10.8120   12.1847 C   0  0  0  0  0  0  0  0  0  0  0  0
   48.6945   10.2156   13.2604 C   0  0  0  0  0  0  0  0  0  0  0  0
   50.1329   10.3072   13.5947 C   0  0  0  0  0  0  0  0  0  0  0  0
   51.1119    9.7312   12.7633 C   0  0  0  0  0  0  0  0  0  0  0  0
   52.4412    9.8350   13.0479 N   0  0  0  0  0  0  0  0  0  0  0  0
   52.8413   10.4873   14.1467 C   0  0  0  0  0  0  0  0  0  0  0  0
   54.2075   10.5737   14.3915 C   0  0  0  0  0  0  0  0  0  0  0  0
   54.7213   11.2212   15.5155 C   0  0  0  0  0  0  0  0  0  0  0  0
   53.8518   11.8049   16.4218 C   0  0  0  0  0  0  0  0  0  0  0  0
   52.4785   11.7363   16.1928 C   0  0  0  0  0  0  0  0  0  0  0  0
   51.9433   11.0721   15.0587 C   0  0  0  0  0  0  0  0  0  0  0  0
   50.5498   10.9589   14.7824 C   0  0  0  0  0  0  0  0  0  0  0  0
   49.5531   11.4909   15.7395 C   0  0  0  0  0  0  0  0  0  0  0  0
   49.1642   10.7307   16.8580 C   0  0  0  0  0  0  0  0  0  0  0  0
   48.2262   11.2283   17.7650 C   0  0  0  0  0  0  0  0  0  0  0  0
   47.6716   12.4853   17.5624 C   0  0  0  0  0  0  0  0  0  0  0  0
   46.7855   12.9587   18.4490 F   0  0  0  0  0  0  0  0  0  0  0  0
   48.0299   13.2504   16.4619 C   0  0  0  0  0  0  0  0  0  0  0  0
   48.9736   12.7562   15.5557 C   0  0  0  0  0  0  0  0  0  0  0  0
   50.7586    8.9632   11.4978 C   0  0  0  0  0  0  0  0  0  0  0  0
   51.4742    7.6692   11.1788 C   0  0  0  0  0  0  0  0  0  0  0  0
   50.0302    7.6367   11.5699 C   0  0  0  0  0  0  0  0  0  0  0  0
   45.4695   14.4390   12.6926 C   0  0  0  0  0  0  0  0  0  0  0  0
   45.7754   15.3104   13.9076 C   0  0  0  0  0  0  0  0  0  0  0  0
   44.7867   15.6009   14.6371 O   0  0  0  0  0  0  0  0  0  0  0  0
   46.9955   15.6274   14.0398 O   0  0  0  0  0  0  0  0  0  0  0  0
   45.9327   13.8067    9.9692 H   0  0  0  0  0  0  0  0  0  0  0  0
   45.6197   14.5111   12.6613 H   0  0  0  0  0  0  0  0  0  0  0  0
   47.0941   12.1068   11.4939 H   0  0  0  0  0  0  0  0  0  0  0  0
   46.4878   12.1786   13.1684 H   0  0  0  0  0  0  0  0  0  0  0  0
   47.8639   14.3298   13.4557 H   0  0  0  0  0  0  0  0  0  0  0  0
   47.9708   14.4998   11.0539 H   0  0  0  0  0  0  0  0  0  0  0  0
   49.8322   12.1758   12.5966 H   0  0  0  0  0  0  0  0  0  0  0  0
   48.6029   12.8635   15.3403 H   0  0  0  0  0  0  0  0  0  0  0  0
   53.8896    9.8432   17.8564 H   0  0  0  0  0  0  0  0  0  0  0  0
   54.1249    7.3950   17.5901 H   0  0  0  0  0  0  0  0  0  0  0  0
   52.5651    6.1626   16.1016 H   0  0  0  0  0  0  0  0  0  0  0  0
   50.8308    7.3826   14.8805 H   0  0  0  0  0  0  0  0  0  0  0  0
   47.7879    9.3975   15.4931 H   0  0  0  0  0  0  0  0  0  0  0  0
   46.1988    8.3054   13.9260 H   0  0  0  0  0  0  0  0  0  0  0  0
   49.1762    8.3154   10.8460 H   0  0  0  0  0  0  0  0  0  0  0  0
   50.7861    9.4257   12.3822 H   0  0  0  0  0  0  0  0  0  0  0  0
   50.5005   13.9406   17.0579 H   0  0  0  0  0  0  0  0  0  0  0  0
   51.1539   15.5151   15.2559 H   0  0  0  0  0  0  0  0  0  0  0  0
   52.0213   14.2094   14.3467 H   0  0  0  0  0  0  0  0  0  0  0  0
   52.6777   15.1077   17.2484 H   0  0  0  0  0  0  0  0  0  0  0  0
   53.5133   13.7837   16.3204 H   0  0  0  0  0  0  0  0  0  0  0  0
   43.6416   13.8617   11.4180 H   0  0  0  0  0  0  0  0  0  0  0  0
   44.0485   12.6181   12.6106 H   0  0  0  0  0  0  0  0  0  0  0  0
   47.8685   14.5597   12.9479 H   0  0  0  0  0  0  0  0  0  0  0  0
   46.5181   12.8040   13.6611 H   0  0  0  0  0  0  0  0  0  0  0  0
   46.3930   12.6199   10.6161 H   0  0  0  0  0  0  0  0  0  0  0  0
   44.9916   12.1198   11.5801 H   0  0  0  0  0  0  0  0  0  0  0  0
   46.5907   10.3034   10.8504 H   0  0  0  0  0  0  0  0  0  0  0  0
   46.2427    9.2179   12.7667 H   0  0  0  0  0  0  0  0  0  0  0  0
   48.8008   11.3776   11.5146 H   0  0  0  0  0  0  0  0  0  0  0  0
   48.0736    9.7062   13.9904 H   0  0  0  0  0  0  0  0  0  0  0  0
   54.8940   10.1181   13.6824 H   0  0  0  0  0  0  0  0  0  0  0  0
   55.7940   11.2727   15.6710 H   0  0  0  0  0  0  0  0  0  0  0  0
   54.2339   12.3213   17.2972 H   0  0  0  0  0  0  0  0  0  0  0  0
   51.8175   12.2191   16.9089 H   0  0  0  0  0  0  0  0  0  0  0  0
   49.5934    9.7446   17.0228 H   0  0  0  0  0  0  0  0  0  0  0  0
   47.9228   10.6463   18.6283 H   0  0  0  0  0  0  0  0  0  0  0  0
   47.5655   14.2208   16.2970 H   0  0  0  0  0  0  0  0  0  0  0  0
   49.2367   13.3655   14.6917 H   0  0  0  0  0  0  0  0  0  0  0  0
   50.5296    9.5943   10.6441 H   0  0  0  0  0  0  0  0  0  0  0  0
   52.2013    7.2968   11.8893 H   0  0  0  0  0  0  0  0  0  0  0  0
   51.7362    7.4889   10.1450 H   0  0  0  0  0  0  0  0  0  0  0  0
   49.7826    7.2292   12.5423 H   0  0  0  0  0  0  0  0  0  0  0  0
   49.2960    7.4250   10.8015 H   0  0  0  0  0  0  0  0  0  0  0  0
   45.5632   15.0592   11.7947 H   0  0  0  0  0  0  0  0  0  0  0  0
   44.4404   14.0649   12.7548 H   0  0  0  0  0  0  0  0  0  0  0  0
  2  1  1  0
  2  3  1  0
  3  4  1  0
  4  5  1  0
  4  6  1  0
  6  7  2  0
  7  8  1  0
  8  9  2  0
  9 10  1  0
 10 11  2  0
 11 12  1  0
 12 13  2  0
 13 14  1  0
 14 15  2  0
 15 16  1  0
 11 16  1  0
 16 17  2  0
  8 17  1  0
 17 18  1  0
 18 19  2  0
 19 20  1  0
 20 21  2  0
 21 22  1  0
 21 23  1  0
 23 24  2  0
 18 24  1  0
  9 25  1  0
 25 26  1  0
 26 27  1  0
 25 27  1  0
  2 28  1  0
 28 29  1  0
 29 30  2  0
 29 31  1  0
 34 33  1  0
 34 35  1  0
 35 36  1  0
 36 37  1  0
 36 38  1  0
 38 39  2  0
 39 40  1  0
 40 41  2  0
 41 42  1  0
 42 43  2  0
 43 44  1  0
 44 45  2  0
 45 46  1  0
 46 47  2  0
 47 48  1  0
 43 48  1  0
 48 49  2  0
 40 49  1  0
 49 50  1  0
 50 51  2  0
 51 52  1  0
 52 53  2  0
 53 54  1  0
 53 55  1  0
 55 56  2  0
 50 56  1  0
 41 57  1  0
 57 58  1  0
 58 59  1  0
 57 59  1  0
 34 60  1  0
 60 61  1  0
 61 62  2  0
 61 63  1  0
  1 64  1  0
  2 65  1  1
  3 66  1  0
  3 67  1  0
  4 68  1  1
  5 69  1  0
  6 70  1  0
  7 71  1  0
 12 72  1  0
 13 73  1  0
 14 74  1  0
 15 75  1  0
 19 76  1  0
 20 77  1  0
 23 78  1  0
 24 79  1  0
 25 80  1  0
 26 81  1  0
 26 82  1  0
 27 83  1  0
 27 84  1  0
 28 85  1  0
 28 86  1  0
 33 87  1  0
 34 88  1  1
 35 89  1  0
 35 90  1  0
 36 91  1  6
 37 92  1  0
 38 93  1  0
 39 94  1  0
 44 95  1  0
 45 96  1  0
 46 97  1  0
 47 98  1  0
 51 99  1  0
 52100  1  0
 55101  1  0
 56102  1  0
 57103  1  0
 58104  1  0
 58105  1  0
 59106  1  0
 59107  1  0
 60108  1  0
 60109  1  0
M  CHG  3  31  -1  32   2  63  -1
M  END
> <Uni-Dock RESULT> 
ENERGY=   -4.959  LOWER_BOUND=    4.752  UPPER_BOUND=    8.012
INTER + INTRA:          -4.959
INTER:                  -4.959
INTRA:                   0.000
UNBOUND:                 0.000

$$$$

     RDKit          3D

109114  0  0  0  0  0  0  0  0999 V2000
   48.7371    3.0328   18.9354 O   0  0  0  0  0  0  0  0  0  0  0  0
   49.4833    3.3349   17.7529 C   0  0  2  0  0  0  0  0  0  0  0  0
   49.8512    4.8242   17.7516 C   0  0  0  0  0  0  0  0  0  0  0  0
   50.7892    5.1572   18.9236 C   0  0  2  0  0  0  0  0  0  0  0  0
   50.1327    5.0180   20.1806 O   0  0  0  0  0  0  0  0  0  0  0  0
   51.2834    6.5722   18.8565 C   0  0  0  0  0  0  0  0  0  0  0  0
   52.4370    6.9227   18.2661 C   0  0  0  0  0  0  0  0  0  0  0  0
   52.9565    8.3029   18.2200 C   0  0  0  0  0  0  0  0  0  0  0  0
   54.1723    8.5851   18.8722 C   0  0  0  0  0  0  0  0  0  0  0  0
   54.7460    9.8167   18.8064 N   0  0  0  0  0  0  0  0  0  0  0  0
   54.1409   10.7976   18.1259 C   0  0  0  0  0  0  0  0  0  0  0  0
   54.7694   12.0352   18.0815 C   0  0  0  0  0  0  0  0  0  0  0  0
   54.2269   13.1227   17.3946 C   0  0  0  0  0  0  0  0  0  0  0  0
   53.0285   12.9745   16.7181 C   0  0  0  0  0  0  0  0  0  0  0  0
   52.3807   11.7409   16.7479 C   0  0  0  0  0  0  0  0  0  0  0  0
   52.9160   10.6285   17.4531 C   0  0  0  0  0  0  0  0  0  0  0  0
   52.3046    9.3415   17.5097 C   0  0  0  0  0  0  0  0  0  0  0  0
   51.0150    9.0987   16.8250 C   0  0  0  0  0  0  0  0  0  0  0  0
   50.9725    8.4774   15.5649 C   0  0  0  0  0  0  0  0  0  0  0  0
   49.7527    8.2570   14.9202 C   0  0  0  0  0  0  0  0  0  0  0  0
   48.5718    8.6632   15.5315 C   0  0  0  0  0  0  0  0  0  0  0  0
   47.4059    8.4875   14.8975 F   0  0  0  0  0  0  0  0  0  0  0  0
   48.5845    9.2724   16.7801 C   0  0  0  0  0  0  0  0  0  0  0  0
   49.8033    9.4923   17.4257 C   0  0  0  0  0  0  0  0  0  0  0  0
   54.9283    7.5309   19.6704 C   0  0  0  0  0  0  0  0  0  0  0  0
   54.3769    7.0309   20.9864 C   0  0  0  0  0  0  0  0  0  0  0  0
   55.5945    7.9009   20.9764 C   0  0  0  0  0  0  0  0  0  0  0  0
   48.7449    2.8698   16.5038 C   0  0  0  0  0  0  0  0  0  0  0  0
   47.3762    3.5156   16.3122 C   0  0  0  0  0  0  0  0  0  0  0  0
   46.7651    3.7839   17.3870 O   0  0  0  0  0  0  0  0  0  0  0  0
   47.0208    3.6730   15.1103 O   0  0  0  0  0  0  0  0  0  0  0  0
   51.4045    7.5769   17.9092 Mg  0  0  0  0  0 15  0  0  0  0  0  0
   50.4154    4.7161   18.9850 O   0  0  0  0  0  0  0  0  0  0  0  0
   50.2318    4.2246   17.6466 C   0  0  2  0  0  0  0  0  0  0  0  0
   48.8254    4.6455   17.1921 C   0  0  0  0  0  0  0  0  0  0  0  0
   48.7126    6.0975   16.6905 C   0  0  2  0  0  0  0  0  0  0  0  0
   49.1473    6.1450   15.3303 O   0  0  0  0  0  0  0  0  0  0  0  0
   49.4176    7.1395   17.5190 C   0  0  0  0  0  0  0  0  0  0  0  0
   50.3426    8.0167   17.0967 C   0  0  0  0  0  0  0  0  0  0  0  0
   51.0372    8.9541   18.0068 C   0  0  0  0  0  0  0  0  0  0  0  0
   50.3375    9.9827   18.6654 C   0  0  0  0  0  0  0  0  0  0  0  0
   50.9633   10.8332   19.5278 N   0  0  0  0  0  0  0  0  0  0  0  0
   52.2768   10.7079   19.7561 C   0  0  0  0  0  0  0  0  0  0  0  0
   52.8699   11.5936   20.6493 C   0  0  0  0  0  0  0  0  0  0  0  0
   54.2332   11.5510   20.9427 C   0  0  0  0  0  0  0  0  0  0  0  0
   55.0312   10.5966   20.3339 C   0  0  0  0  0  0  0  0  0  0  0  0
   54.4564    9.6943   19.4403 C   0  0  0  0  0  0  0  0  0  0  0  0
   53.0732    9.7337   19.1261 C   0  0  0  0  0  0  0  0  0  0  0  0
   52.4358    8.8468   18.2106 C   0  0  0  0  0  0  0  0  0  0  0  0
   53.2317    7.8470   17.4627 C   0  0  0  0  0  0  0  0  0  0  0  0
   53.9109    8.2138   16.2861 C   0  0  0  0  0  0  0  0  0  0  0  0
   54.6646    7.2755   15.5779 C   0  0  0  0  0  0  0  0  0  0  0  0
   54.7456    5.9679   16.0384 C   0  0  0  0  0  0  0  0  0  0  0  0
   55.4859    5.0811   15.3594 F   0  0  0  0  0  0  0  0  0  0  0  0
   54.0768    5.5778   17.1897 C   0  0  0  0  0  0  0  0  0  0  0  0
   53.3264    6.5176   17.9035 C   0  0  0  0  0  0  0  0  0  0  0  0
   48.8463   10.2125   18.4663 C   0  0  0  0  0  0  0  0  0  0  0  0
   48.3173   11.6204   18.3036 C   0  0  0  0  0  0  0  0  0  0  0  0
   48.3028   10.6870   17.1340 C   0  0  0  0  0  0  0  0  0  0  0  0
   50.3773    2.7027   17.6626 C   0  0  0  0  0  0  0  0  0  0  0  0
   51.8439    2.3618   17.9119 C   0  0  0  0  0  0  0  0  0  0  0  0
   52.3562    1.5273   17.1150 O   0  0  0  0  0  0  0  0  0  0  0  0
   52.3719    2.9720   18.8895 O   0  0  0  0  0  0  0  0  0  0  0  0
   47.8029    3.2882   18.6925 H   0  0  0  0  0  0  0  0  0  0  0  0
   50.4095    2.7505   17.8220 H   0  0  0  0  0  0  0  0  0  0  0  0
   48.9382    5.4248   17.8502 H   0  0  0  0  0  0  0  0  0  0  0  0
   50.3387    5.0764   16.8041 H   0  0  0  0  0  0  0  0  0  0  0  0
   51.6380    4.4680   18.9361 H   0  0  0  0  0  0  0  0  0  0  0  0
   49.5264    4.2489   20.0773 H   0  0  0  0  0  0  0  0  0  0  0  0
   50.6523    7.3183   19.3314 H   0  0  0  0  0  0  0  0  0  0  0  0
   53.0715    6.1717   17.8002 H   0  0  0  0  0  0  0  0  0  0  0  0
   55.7189   12.1515   18.5969 H   0  0  0  0  0  0  0  0  0  0  0  0
   54.7463   14.0761   17.3846 H   0  0  0  0  0  0  0  0  0  0  0  0
   52.6000   13.8061   16.1646 H   0  0  0  0  0  0  0  0  0  0  0  0
   51.4441   11.6497   16.2009 H   0  0  0  0  0  0  0  0  0  0  0  0
   51.8910    8.1509   15.0817 H   0  0  0  0  0  0  0  0  0  0  0  0
   49.7108    7.7531   13.9580 H   0  0  0  0  0  0  0  0  0  0  0  0
   47.6467    9.5599   17.2483 H   0  0  0  0  0  0  0  0  0  0  0  0
   49.8096    9.9564   18.4097 H   0  0  0  0  0  0  0  0  0  0  0  0
   55.4613    6.8012   19.0663 H   0  0  0  0  0  0  0  0  0  0  0  0
   54.4864    5.9738   21.1919 H   0  0  0  0  0  0  0  0  0  0  0  0
   53.4527    7.4523   21.3636 H   0  0  0  0  0  0  0  0  0  0  0  0
   56.5558    7.4489   21.1927 H   0  0  0  0  0  0  0  0  0  0  0  0
   55.4911    8.9178   21.3390 H   0  0  0  0  0  0  0  0  0  0  0  0
   48.5703    1.7878   16.5686 H   0  0  0  0  0  0  0  0  0  0  0  0
   49.3607    3.0543   15.6170 H   0  0  0  0  0  0  0  0  0  0  0  0
   51.2495    4.2682   19.2823 H   0  0  0  0  0  0  0  0  0  0  0  0
   50.9975    4.6762   17.0054 H   0  0  0  0  0  0  0  0  0  0  0  0
   48.1265    4.5116   18.0311 H   0  0  0  0  0  0  0  0  0  0  0  0
   48.4952    3.9879   16.3779 H   0  0  0  0  0  0  0  0  0  0  0  0
   47.6441    6.3499   16.6716 H   0  0  0  0  0  0  0  0  0  0  0  0
   48.9572    7.0373   15.0058 H   0  0  0  0  0  0  0  0  0  0  0  0
   49.1493    7.1207   18.5741 H   0  0  0  0  0  0  0  0  0  0  0  0
   50.6898    8.0156   16.0685 H   0  0  0  0  0  0  0  0  0  0  0  0
   52.2474   12.3437   21.1305 H   0  0  0  0  0  0  0  0  0  0  0  0
   54.6601   12.2557   21.6489 H   0  0  0  0  0  0  0  0  0  0  0  0
   56.0924   10.5424   20.5574 H   0  0  0  0  0  0  0  0  0  0  0  0
   55.1004    8.9423   18.9903 H   0  0  0  0  0  0  0  0  0  0  0  0
   53.8513    9.2361   15.9185 H   0  0  0  0  0  0  0  0  0  0  0  0
   55.1896    7.5530   14.6704 H   0  0  0  0  0  0  0  0  0  0  0  0
   54.1226    4.5430   17.5237 H   0  0  0  0  0  0  0  0  0  0  0  0
   52.7994    6.1927   18.8001 H   0  0  0  0  0  0  0  0  0  0  0  0
   48.2127    9.5369   19.0335 H   0  0  0  0  0  0  0  0  0  0  0  0
   49.0280   12.4370   18.2928 H   0  0  0  0  0  0  0  0  0  0  0  0
   47.3809   11.8578   18.7899 H   0  0  0  0  0  0  0  0  0  0  0  0
   48.9975   10.8832   16.3267 H   0  0  0  0  0  0  0  0  0  0  0  0
   47.3493   10.2868   16.8099 H   0  0  0  0  0  0  0  0  0  0  0  0
   49.7806    2.2520   18.4629 H   0  0  0  0  0  0  0  0  0  0  0  0
   50.0562    2.2779   16.7038 H   0  0  0  0  0  0  0  0  0  0  0  0
  2  1  1  0
  2  3  1  0
  3  4  1  0
  4  5  1  0
  4  6  1  0
  6  7  2  0
  7  8  1  0
  8  9  2  0
  9 10  1  0
 10 11  2  0
 11 12  1  0
 12 13  2  0
 13 14  1  0
 14 15  2  0
 15 16  1  0
 11 16  1  0
 16 17  2  0
  8 17  1  0
 17 18  1  0
 18 19  2  0
 19 20  1  0
 20 21  2  0
 21 22  1  0
 21 23  1  0
 23 24  2  0
 18 24  1  0
  9 25  1  0
 25 26  1  0
 26 27  1  0
 25 27  1  0
  2 28  1  0
 28 29  1  0
 29 30  2  0
 29 31  1  0
 34 33  1  0
 34 35  1  0
 35 36  1  0
 36 37  1  0
 36 38  1  0
 38 39  2  0
 39 40  1  0
 40 41  2  0
 41 42  1  0
 42 43  2  0
 43 44  1  0
 44 45  2  0
 45 46  1  0
 46 47  2  0
 47 48  1  0
 43 48  1  0
 48 49  2  0
 40 49  1  0
 49 50  1  0
 50 51  2  0
 51 52  1  0
 52 53  2  0
 53 54  1  0
 53 55  1  0
 55 56  2  0
 50 56  1  0
 41 57  1  0
 57 58  1  0
 58 59  1  0
 57 59  1  0
 34 60  1  0
 60 61  1  0
 61 62  2  0
 61 63  1  0
  1 64  1  0
  2 65  1  1
  3 66  1  0
  3 67  1  0
  4 68  1  1
  5 69  1  0
  6 70  1  0
  7 71  1  0
 12 72  1  0
 13 73  1  0
 14 74  1  0
 15 75  1  0
 19 76  1  0
 20 77  1  0
 23 78  1  0
 24 79  1  0
 25 80  1  0
 26 81  1  0
 26 82  1  0
 27 83  1  0
 27 84  1  0
 28 85  1  0
 28 86  1  0
 33 87  1  0
 34 88  1  1
 35 89  1  0
 35 90  1  0
 36 91  1  6
 37 92  1  0
 38 93  1  0
 39 94  1  0
 44 95  1  0
 45 96  1  0
 46 97  1  0
 47 98  1  0
 51 99  1  0
 52100  1  0
 55101  1  0
 56102  1  0
 57103  1  0
 58104  1  0
 58105  1  0
 59106  1  0
 59107  1  0
 60108  1  0
 60109  1  0
M  CHG  3  31  -1  32   2  63  -1
M  END
> <Uni-Dock RESULT> 
ENERGY=   -4.880  LOWER_BOUND=    2.542  UPPER_BOUND=    5.552
INTER + INTRA:          -4.880
INTER:                  -4.880
INTRA:                   0.000
UNBOUND:                 0.000

$$$$

     RDKit          3D

109114  0  0  0  0  0  0  0  0999 V2000
   46.3607   12.7601   19.7467 O   0  0  0  0  0  0  0  0  0  0  0  0
   47.7091   12.2878   19.8184 C   0  0  2  0  0  0  0  0  0  0  0  0
   48.1254   11.7316   18.4507 C   0  0  0  0  0  0  0  0  0  0  0  0
   48.1371   12.8433   17.3885 C   0  0  2  0  0  0  0  0  0  0  0  0
   46.8252   13.3306   17.1203 O   0  0  0  0  0  0  0  0  0  0  0  0
   48.6857   12.3569   16.0795 C   0  0  0  0  0  0  0  0  0  0  0  0
   49.9782   12.4695   15.7346 C   0  0  0  0  0  0  0  0  0  0  0  0
   50.5300   12.0288   14.4391 C   0  0  0  0  0  0  0  0  0  0  0  0
   51.0795   12.9986   13.5783 C   0  0  0  0  0  0  0  0  0  0  0  0
   51.6722   12.6535   12.4036 N   0  0  0  0  0  0  0  0  0  0  0  0
   51.7229   11.3675   12.0360 C   0  0  0  0  0  0  0  0  0  0  0  0
   52.3449   11.0645   10.8319 C   0  0  0  0  0  0  0  0  0  0  0  0
   52.4574    9.7557   10.3594 C   0  0  0  0  0  0  0  0  0  0  0  0
   51.9485    8.7116   11.1122 C   0  0  0  0  0  0  0  0  0  0  0  0
   51.3212    8.9922   12.3247 C   0  0  0  0  0  0  0  0  0  0  0  0
   51.1894   10.3212   12.8121 C   0  0  0  0  0  0  0  0  0  0  0  0
   50.5686   10.6673   14.0483 C   0  0  0  0  0  0  0  0  0  0  0  0
   49.9862    9.6140   14.9098 C   0  0  0  0  0  0  0  0  0  0  0  0
   50.6943    9.1129   16.0159 C   0  0  0  0  0  0  0  0  0  0  0  0
   50.1424    8.1138   16.8217 C   0  0  0  0  0  0  0  0  0  0  0  0
   48.8828    7.6083   16.5197 C   0  0  0  0  0  0  0  0  0  0  0  0
   48.3696    6.6241   17.2681 F   0  0  0  0  0  0  0  0  0  0  0  0
   48.1580    8.0912   15.4372 C   0  0  0  0  0  0  0  0  0  0  0  0
   48.7086    9.0906   14.6317 C   0  0  0  0  0  0  0  0  0  0  0  0
   51.0642   14.4840   13.9149 C   0  0  0  0  0  0  0  0  0  0  0  0
   49.7639   15.2554   13.8995 C   0  0  0  0  0  0  0  0  0  0  0  0
   50.7852   15.5042   12.8343 C   0  0  0  0  0  0  0  0  0  0  0  0
   47.8880   11.3109   20.9740 C   0  0  0  0  0  0  0  0  0  0  0  0
   47.0121   10.0655   20.8786 C   0  0  0  0  0  0  0  0  0  0  0  0
   45.8864   10.2537   20.3327 O   0  0  0  0  0  0  0  0  0  0  0  0
   47.5114    9.0188   21.3792 O   0  0  0  0  0  0  0  0  0  0  0  0
   49.4665   11.3096   15.6155 Mg  0  0  0  0  0 15  0  0  0  0  0  0
   47.7714   12.8935   17.8375 O   0  0  0  0  0  0  0  0  0  0  0  0
   48.4316   12.1943   18.9062 C   0  0  2  0  0  0  0  0  0  0  0  0
   47.6729   10.8770   19.1305 C   0  0  0  0  0  0  0  0  0  0  0  0
   48.0316    9.7458   18.1484 C   0  0  2  0  0  0  0  0  0  0  0  0
   49.2297    9.1123   18.6007 O   0  0  0  0  0  0  0  0  0  0  0  0
   48.1438   10.1399   16.6988 C   0  0  0  0  0  0  0  0  0  0  0  0
   49.2007    9.9552   15.8913 C   0  0  0  0  0  0  0  0  0  0  0  0
   49.2441   10.4489   14.4971 C   0  0  0  0  0  0  0  0  0  0  0  0
   48.3805    9.9305   13.5138 C   0  0  0  0  0  0  0  0  0  0  0  0
   48.3933   10.3990   12.2336 N   0  0  0  0  0  0  0  0  0  0  0  0
   49.2497   11.3672   11.8839 C   0  0  0  0  0  0  0  0  0  0  0  0
   49.2209   11.8182   10.5687 C   0  0  0  0  0  0  0  0  0  0  0  0
   50.0819   12.8138   10.1059 C   0  0  0  0  0  0  0  0  0  0  0  0
   50.9963   13.3822   10.9771 C   0  0  0  0  0  0  0  0  0  0  0  0
   51.0380   12.9501   12.3017 C   0  0  0  0  0  0  0  0  0  0  0  0
   50.1745   11.9315   12.7819 C   0  0  0  0  0  0  0  0  0  0  0  0
   50.1831   11.4414   14.1201 C   0  0  0  0  0  0  0  0  0  0  0  0
   51.1798   11.9440   15.0930 C   0  0  0  0  0  0  0  0  0  0  0  0
   52.4785   11.4034   15.1250 C   0  0  0  0  0  0  0  0  0  0  0  0
   53.4231   11.8750   16.0390 C   0  0  0  0  0  0  0  0  0  0  0  0
   53.0786   12.8874   16.9249 C   0  0  0  0  0  0  0  0  0  0  0  0
   53.9990   13.3432   17.7855 F   0  0  0  0  0  0  0  0  0  0  0  0
   51.8018   13.4301   16.9213 C   0  0  0  0  0  0  0  0  0  0  0  0
   50.8563   12.9632   16.0026 C   0  0  0  0  0  0  0  0  0  0  0  0
   47.3781    8.8241   13.8093 C   0  0  0  0  0  0  0  0  0  0  0  0
   47.1984    7.6895   12.8251 C   0  0  0  0  0  0  0  0  0  0  0  0
   47.8431    7.4227   14.1490 C   0  0  0  0  0  0  0  0  0  0  0  0
   48.3986   13.0735   20.1566 C   0  0  0  0  0  0  0  0  0  0  0  0
   49.3404   14.2546   19.9400 C   0  0  0  0  0  0  0  0  0  0  0  0
   50.1643   14.4770   20.8704 O   0  0  0  0  0  0  0  0  0  0  0  0
   49.1838   14.8634   18.8393 O   0  0  0  0  0  0  0  0  0  0  0  0
   45.8172   11.9348   19.8898 H   0  0  0  0  0  0  0  0  0  0  0  0
   48.3270   13.1682   20.0358 H   0  0  0  0  0  0  0  0  0  0  0  0
   47.4132   10.9566   18.1408 H   0  0  0  0  0  0  0  0  0  0  0  0
   49.1216   11.2841   18.5293 H   0  0  0  0  0  0  0  0  0  0  0  0
   48.7218   13.6972   17.7413 H   0  0  0  0  0  0  0  0  0  0  0  0
   46.3553   13.3114   17.9855 H   0  0  0  0  0  0  0  0  0  0  0  0
   47.9659   11.9076   15.4008 H   0  0  0  0  0  0  0  0  0  0  0  0
   50.6946   12.9288   16.4125 H   0  0  0  0  0  0  0  0  0  0  0  0
   52.7610   11.8793   10.2457 H   0  0  0  0  0  0  0  0  0  0  0  0
   52.9483    9.5579    9.4114 H   0  0  0  0  0  0  0  0  0  0  0  0
   52.0419    7.6851   10.7673 H   0  0  0  0  0  0  0  0  0  0  0  0
   50.9373    8.1518   12.9002 H   0  0  0  0  0  0  0  0  0  0  0  0
   51.6780    9.5066   16.2632 H   0  0  0  0  0  0  0  0  0  0  0  0
   50.6732    7.7409   17.6939 H   0  0  0  0  0  0  0  0  0  0  0  0
   47.1655    7.6970   15.2350 H   0  0  0  0  0  0  0  0  0  0  0  0
   48.1331    9.4773   13.7932 H   0  0  0  0  0  0  0  0  0  0  0  0
   51.7914   14.7864   14.6640 H   0  0  0  0  0  0  0  0  0  0  0  0
   49.6246   15.9938   14.6786 H   0  0  0  0  0  0  0  0  0  0  0  0
   48.8512   14.7424   13.6203 H   0  0  0  0  0  0  0  0  0  0  0  0
   51.3489   16.4298   12.8633 H   0  0  0  0  0  0  0  0  0  0  0  0
   50.5668   15.1494   11.8330 H   0  0  0  0  0  0  0  0  0  0  0  0
   47.6166   11.8089   21.9141 H   0  0  0  0  0  0  0  0  0  0  0  0
   48.9387   11.0108   21.0484 H   0  0  0  0  0  0  0  0  0  0  0  0
   48.1862   13.7946   17.8611 H   0  0  0  0  0  0  0  0  0  0  0  0
   49.4665   11.9986   18.6025 H   0  0  0  0  0  0  0  0  0  0  0  0
   46.5927   11.0727   19.0566 H   0  0  0  0  0  0  0  0  0  0  0  0
   47.8744   10.5103   20.1449 H   0  0  0  0  0  0  0  0  0  0  0  0
   47.2429    8.9861   18.2299 H   0  0  0  0  0  0  0  0  0  0  0  0
   49.3674    8.3371   18.0371 H   0  0  0  0  0  0  0  0  0  0  0  0
   47.2691   10.6619   16.3140 H   0  0  0  0  0  0  0  0  0  0  0  0
   50.1175    9.5062   16.2598 H   0  0  0  0  0  0  0  0  0  0  0  0
   48.5041   11.3760    9.8815 H   0  0  0  0  0  0  0  0  0  0  0  0
   50.0272   13.1438    9.0736 H   0  0  0  0  0  0  0  0  0  0  0  0
   51.6677   14.1648   10.6370 H   0  0  0  0  0  0  0  0  0  0  0  0
   51.7515   13.4255   12.9708 H   0  0  0  0  0  0  0  0  0  0  0  0
   52.7555   10.6092   14.4347 H   0  0  0  0  0  0  0  0  0  0  0  0
   54.4252   11.4614   16.0679 H   0  0  0  0  0  0  0  0  0  0  0  0
   51.5343   14.2014   17.6411 H   0  0  0  0  0  0  0  0  0  0  0  0
   49.8554   13.3931   16.0195 H   0  0  0  0  0  0  0  0  0  0  0  0
   46.4719    9.1650   14.3014 H   0  0  0  0  0  0  0  0  0  0  0  0
   47.8251    7.6723   11.9424 H   0  0  0  0  0  0  0  0  0  0  0  0
   46.1910    7.3333   12.6571 H   0  0  0  0  0  0  0  0  0  0  0  0
   48.9054    7.2125   14.1566 H   0  0  0  0  0  0  0  0  0  0  0  0
   47.2778    6.8730   14.8923 H   0  0  0  0  0  0  0  0  0  0  0  0
   47.3936   13.4670   20.3427 H   0  0  0  0  0  0  0  0  0  0  0  0
   48.7192   12.5005   21.0352 H   0  0  0  0  0  0  0  0  0  0  0  0
  2  1  1  0
  2  3  1  0
  3  4  1  0
  4  5  1  0
  4  6  1  0
  6  7  2  0
  7  8  1  0
  8  9  2  0
  9 10  1  0
 10 11  2  0
 11 12  1  0
 12 13  2  0
 13 14  1  0
 14 15  2  0
 15 16  1  0
 11 16  1  0
 16 17  2  0
  8 17  1  0
 17 18  1  0
 18 19  2  0
 19 20  1  0
 20 21  2  0
 21 22  1  0
 21 23  1  0
 23 24  2  0
 18 24  1  0
  9 25  1  0
 25 26  1  0
 26 27  1  0
 25 27  1  0
  2 28  1  0
 28 29  1  0
 29 30  2  0
 29 31  1  0
 34 33  1  0
 34 35  1  0
 35 36  1  0
 36 37  1  0
 36 38  1  0
 38 39  2  0
 39 40  1  0
 40 41  2  0
 41 42  1  0
 42 43  2  0
 43 44  1  0
 44 45  2  0
 45 46  1  0
 46 47  2  0
 47 48  1  0
 43 48  1  0
 48 49  2  0
 40 49  1  0
 49 50  1  0
 50 51  2  0
 51 52  1  0
 52 53  2  0
 53 54  1  0
 53 55  1  0
 55 56  2  0
 50 56  1  0
 41 57  1  0
 57 58  1  0
 58 59  1  0
 57 59  1  0
 34 60  1  0
 60 61  1  0
 61 62  2  0
 61 63  1  0
  1 64  1  0
  2 65  1  1
  3 66  1  0
  3 67  1  0
  4 68  1  1
  5 69  1  0
  6 70  1  0
  7 71  1  0
 12 72  1  0
 13 73  1  0
 14 74  1  0
 15 75  1  0
 19 76  1  0
 20 77  1  0
 23 78  1  0
 24 79  1  0
 25 80  1  0
 26 81  1  0
 26 82  1  0
 27 83  1  0
 27 84  1  0
 28 85  1  0
 28 86  1  0
 33 87  1  0
 34 88  1  1
 35 89  1  0
 35 90  1  0
 36 91  1  6
 37 92  1  0
 38 93  1  0
 39 94  1  0
 44 95  1  0
 45 96  1  0
 46 97  1  0
 47 98  1  0
 51 99  1  0
 52100  1  0
 55101  1  0
 56102  1  0
 57103  1  0
 58104  1  0
 58105  1  0
 59106  1  0
 59107  1  0
 60108  1  0
 60109  1  0
M  CHG  3  31  -1  32   2  63  -1
M  END
> <Uni-Dock RESULT> 
ENERGY=   -4.559  LOWER_BOUND=    4.741  UPPER_BOUND=    9.145
INTER + INTRA:          -4.559
INTER:                  -4.559
INTRA:                   0.000
UNBOUND:                 0.000

$$$$

     RDKit          3D

109114  0  0  0  0  0  0  0  0999 V2000
   55.4949    9.7529   13.4665 O   0  0  0  0  0  0  0  0  0  0  0  0
   54.3237    8.9456   13.3143 C   0  0  2  0  0  0  0  0  0  0  0  0
   53.4458    9.0842   14.5647 C   0  0  0  0  0  0  0  0  0  0  0  0
   52.9325   10.5257   14.7159 C   0  0  2  0  0  0  0  0  0  0  0  0
   53.9918   11.4359   14.9986 O   0  0  0  0  0  0  0  0  0  0  0  0
   51.9513   10.6517   15.8439 C   0  0  0  0  0  0  0  0  0  0  0  0
   50.6229   10.5474   15.6803 C   0  0  0  0  0  0  0  0  0  0  0  0
   49.6407   10.7025   16.7704 C   0  0  0  0  0  0  0  0  0  0  0  0
   48.7248   11.7702   16.7022 C   0  0  0  0  0  0  0  0  0  0  0  0
   47.7454   11.9280   17.6329 N   0  0  0  0  0  0  0  0  0  0  0  0
   47.6516   11.0670   18.6534 C   0  0  0  0  0  0  0  0  0  0  0  0
   46.6305   11.2656   19.5736 C   0  0  0  0  0  0  0  0  0  0  0  0
   46.4406   10.4226   20.6699 C   0  0  0  0  0  0  0  0  0  0  0  0
   47.2824    9.3391   20.8525 C   0  0  0  0  0  0  0  0  0  0  0  0
   48.3132    9.1197   19.9406 C   0  0  0  0  0  0  0  0  0  0  0  0
   48.5252    9.9769   18.8264 C   0  0  0  0  0  0  0  0  0  0  0  0
   49.5546    9.7962   17.8562 C   0  0  0  0  0  0  0  0  0  0  0  0
   50.5072    8.6703   17.9819 C   0  0  0  0  0  0  0  0  0  0  0  0
   50.3321    7.4902   17.2384 C   0  0  0  0  0  0  0  0  0  0  0  0
   51.2308    6.4280   17.3662 C   0  0  0  0  0  0  0  0  0  0  0  0
   52.3040    6.5406   18.2430 C   0  0  0  0  0  0  0  0  0  0  0  0
   53.1434    5.5089   18.3950 F   0  0  0  0  0  0  0  0  0  0  0  0
   52.5050    7.6986   18.9840 C   0  0  0  0  0  0  0  0  0  0  0  0
   51.6077    8.7613   18.8561 C   0  0  0  0  0  0  0  0  0  0  0  0
   48.7589   12.7976   15.5784 C   0  0  0  0  0  0  0  0  0  0  0  0
   49.8855   13.8028   15.4988 C   0  0  0  0  0  0  0  0  0  0  0  0
   48.5116   14.2589   15.8782 C   0  0  0  0  0  0  0  0  0  0  0  0
   54.6890    7.5094   12.9598 C   0  0  0  0  0  0  0  0  0  0  0  0
   55.5480    6.8082   14.0074 C   0  0  0  0  0  0  0  0  0  0  0  0
   56.3500    7.5672   14.6249 O   0  0  0  0  0  0  0  0  0  0  0  0
   55.3672    5.5617   14.1026 O   0  0  0  0  0  0  0  0  0  0  0  0
   51.1327    9.8221   16.5944 Mg  0  0  0  0  0 15  0  0  0  0  0  0
   53.4406   10.4397   14.4469 O   0  0  0  0  0  0  0  0  0  0  0  0
   53.3096    9.1331   13.8615 C   0  0  2  0  0  0  0  0  0  0  0  0
   54.1928    8.1748   14.6757 C   0  0  0  0  0  0  0  0  0  0  0  0
   53.5632    7.6672   15.9867 C   0  0  2  0  0  0  0  0  0  0  0  0
   52.6917    6.5768   15.6816 O   0  0  0  0  0  0  0  0  0  0  0  0
   52.8597    8.7016   16.8259 C   0  0  0  0  0  0  0  0  0  0  0  0
   51.5874    8.6648   17.2541 C   0  0  0  0  0  0  0  0  0  0  0  0
   50.9612    9.7707   18.0118 C   0  0  0  0  0  0  0  0  0  0  0  0
   51.4044   10.1107   19.3039 C   0  0  0  0  0  0  0  0  0  0  0  0
   50.8529   11.1463   19.9982 N   0  0  0  0  0  0  0  0  0  0  0  0
   49.8573   11.8599   19.4573 C   0  0  0  0  0  0  0  0  0  0  0  0
   49.3315   12.9114   20.2001 C   0  0  0  0  0  0  0  0  0  0  0  0
   48.2851   13.7042   19.7277 C   0  0  0  0  0  0  0  0  0  0  0  0
   47.7475   13.4478   18.4774 C   0  0  0  0  0  0  0  0  0  0  0  0
   48.2638   12.4029   17.7126 C   0  0  0  0  0  0  0  0  0  0  0  0
   49.3211   11.5833   18.1860 C   0  0  0  0  0  0  0  0  0  0  0  0
   49.8773   10.4942   17.4542 C   0  0  0  0  0  0  0  0  0  0  0  0
   49.3094   10.1085   16.1423 C   0  0  0  0  0  0  0  0  0  0  0  0
   48.1732    9.2811   16.0742 C   0  0  0  0  0  0  0  0  0  0  0  0
   47.6322    8.9159   14.8397 C   0  0  0  0  0  0  0  0  0  0  0  0
   48.2199    9.3733   13.6676 C   0  0  0  0  0  0  0  0  0  0  0  0
   47.6812    9.0299   12.4898 F   0  0  0  0  0  0  0  0  0  0  0  0
   49.3471   10.1814   13.7069 C   0  0  0  0  0  0  0  0  0  0  0  0
   49.8867   10.5530   14.9424 C   0  0  0  0  0  0  0  0  0  0  0  0
   52.5228    9.3560   20.0078 C   0  0  0  0  0  0  0  0  0  0  0  0
   52.3858    9.0022   21.4723 C   0  0  0  0  0  0  0  0  0  0  0  0
   52.3368    7.9167   20.4433 C   0  0  0  0  0  0  0  0  0  0  0  0
   53.7658    9.2048   12.4040 C   0  0  0  0  0  0  0  0  0  0  0  0
   52.7282    9.9966   11.6130 C   0  0  0  0  0  0  0  0  0  0  0  0
   52.3230    9.4569   10.5460 O   0  0  0  0  0  0  0  0  0  0  0  0
   52.3920   11.1013   12.1357 O   0  0  0  0  0  0  0  0  0  0  0  0
   56.1117    9.1708   13.9937 H   0  0  0  0  0  0  0  0  0  0  0  0
   53.7766    9.3643   12.4601 H   0  0  0  0  0  0  0  0  0  0  0  0
   54.0349    8.8254   15.4535 H   0  0  0  0  0  0  0  0  0  0  0  0
   52.5981    8.3951   14.4905 H   0  0  0  0  0  0  0  0  0  0  0  0
   52.4712   10.8625   13.7836 H   0  0  0  0  0  0  0  0  0  0  0  0
   54.7644   11.1090   14.4830 H   0  0  0  0  0  0  0  0  0  0  0  0
   52.3775   10.8484   16.8239 H   0  0  0  0  0  0  0  0  0  0  0  0
   50.1989   10.3602   14.6961 H   0  0  0  0  0  0  0  0  0  0  0  0
   45.9568   12.1050   19.4249 H   0  0  0  0  0  0  0  0  0  0  0  0
   45.6325   10.6114   21.3701 H   0  0  0  0  0  0  0  0  0  0  0  0
   47.1388    8.6632   21.6915 H   0  0  0  0  0  0  0  0  0  0  0  0
   48.9553    8.2560   20.1035 H   0  0  0  0  0  0  0  0  0  0  0  0
   49.4986    7.3955   16.5456 H   0  0  0  0  0  0  0  0  0  0  0  0
   51.1163    5.5234   16.7746 H   0  0  0  0  0  0  0  0  0  0  0  0
   53.3644    7.7721   19.6452 H   0  0  0  0  0  0  0  0  0  0  0  0
   51.7754    9.6725   19.4265 H   0  0  0  0  0  0  0  0  0  0  0  0
   48.3647   12.4440   14.6291 H   0  0  0  0  0  0  0  0  0  0  0  0
   50.2639   14.0355   14.5118 H   0  0  0  0  0  0  0  0  0  0  0  0
   50.6504   13.7974   16.2662 H   0  0  0  0  0  0  0  0  0  0  0  0
   47.9365   14.8269   15.1558 H   0  0  0  0  0  0  0  0  0  0  0  0
   48.3442   14.5536   16.9084 H   0  0  0  0  0  0  0  0  0  0  0  0
   55.2701    7.5033   12.0283 H   0  0  0  0  0  0  0  0  0  0  0  0
   53.7785    6.9256   12.7872 H   0  0  0  0  0  0  0  0  0  0  0  0
   53.0016   11.0338   13.7844 H   0  0  0  0  0  0  0  0  0  0  0  0
   52.2569    8.8334   13.9194 H   0  0  0  0  0  0  0  0  0  0  0  0
   55.1384    8.6827   14.9174 H   0  0  0  0  0  0  0  0  0  0  0  0
   54.4356    7.2967   14.0639 H   0  0  0  0  0  0  0  0  0  0  0  0
   54.3753    7.2407   16.5903 H   0  0  0  0  0  0  0  0  0  0  0  0
   52.4024    6.2036   16.5269 H   0  0  0  0  0  0  0  0  0  0  0  0
   53.4699    9.5738   17.0552 H   0  0  0  0  0  0  0  0  0  0  0  0
   50.9267    7.8477   16.9826 H   0  0  0  0  0  0  0  0  0  0  0  0
   49.7510   13.1173   21.1816 H   0  0  0  0  0  0  0  0  0  0  0  0
   47.9037   14.5195   20.3338 H   0  0  0  0  0  0  0  0  0  0  0  0
   46.9392   14.0604   18.0894 H   0  0  0  0  0  0  0  0  0  0  0  0
   47.8376   12.2341   16.7264 H   0  0  0  0  0  0  0  0  0  0  0  0
   47.7078    8.9179   16.9882 H   0  0  0  0  0  0  0  0  0  0  0  0
   46.7569    8.2782   14.7818 H   0  0  0  0  0  0  0  0  0  0  0  0
   49.8172   10.5082   12.7813 H   0  0  0  0  0  0  0  0  0  0  0  0
   50.7777   11.1799   14.9556 H   0  0  0  0  0  0  0  0  0  0  0  0
   53.5208    9.6381   19.6857 H   0  0  0  0  0  0  0  0  0  0  0  0
   51.4654    9.2636   21.9789 H   0  0  0  0  0  0  0  0  0  0  0  0
   53.2694    9.0930   22.0894 H   0  0  0  0  0  0  0  0  0  0  0  0
   51.3825    7.4366   20.2654 H   0  0  0  0  0  0  0  0  0  0  0  0
   53.1890    7.2528   20.3584 H   0  0  0  0  0  0  0  0  0  0  0  0
   54.7299    9.7161   12.3111 H   0  0  0  0  0  0  0  0  0  0  0  0
   53.8615    8.1963   11.9835 H   0  0  0  0  0  0  0  0  0  0  0  0
  2  1  1  0
  2  3  1  0
  3  4  1  0
  4  5  1  0
  4  6  1  0
  6  7  2  0
  7  8  1  0
  8  9  2  0
  9 10  1  0
 10 11  2  0
 11 12  1  0
 12 13  2  0
 13 14  1  0
 14 15  2  0
 15 16  1  0
 11 16  1  0
 16 17  2  0
  8 17  1  0
 17 18  1  0
 18 19  2  0
 19 20  1  0
 20 21  2  0
 21 22  1  0
 21 23  1  0
 23 24  2  0
 18 24  1  0
  9 25  1  0
 25 26  1  0
 26 27  1  0
 25 27  1  0
  2 28  1  0
 28 29  1  0
 29 30  2  0
 29 31  1  0
 34 33  1  0
 34 35  1  0
 35 36  1  0
 36 37  1  0
 36 38  1  0
 38 39  2  0
 39 40  1  0
 40 41  2  0
 41 42  1  0
 42 43  2  0
 43 44  1  0
 44 45  2  0
 45 46  1  0
 46 47  2  0
 47 48  1  0
 43 48  1  0
 48 49  2  0
 40 49  1  0
 49 50  1  0
 50 51  2  0
 51 52  1  0
 52 53  2  0
 53 54  1  0
 53 55  1  0
 55 56  2  0
 50 56  1  0
 41 57  1  0
 57 58  1  0
 58 59  1  0
 57 59  1  0
 34 60  1  0
 60 61  1  0
 61 62  2  0
 61 63  1  0
  1 64  1  0
  2 65  1  1
  3 66  1  0
  3 67  1  0
  4 68  1  1
  5 69  1  0
  6 70  1  0
  7 71  1  0
 12 72  1  0
 13 73  1  0
 14 74  1  0
 15 75  1  0
 19 76  1  0
 20 77  1  0
 23 78  1  0
 24 79  1  0
 25 80  1  0
 26 81  1  0
 26 82  1  0
 27 83  1  0
 27 84  1  0
 28 85  1  0
 28 86  1  0
 33 87  1  0
 34 88  1  1
 35 89  1  0
 35 90  1  0
 36 91  1  6
 37 92  1  0
 38 93  1  0
 39 94  1  0
 44 95  1  0
 45 96  1  0
 46 97  1  0
 47 98  1  0
 51 99  1  0
 52100  1  0
 55101  1  0
 56102  1  0
 57103  1  0
 58104  1  0
 58105  1  0
 59106  1  0
 59107  1  0
 60108  1  0
 60109  1  0
M  CHG  3  31  -1  32   2  63  -1
M  END
> <Uni-Dock RESULT> 
ENERGY=   -4.472  LOWER_BOUND=    3.558  UPPER_BOUND=    6.251
INTER + INTRA:          -4.472
INTER:                  -4.472
INTRA:                   0.000
UNBOUND:                 0.000

$$$$

     RDKit          3D

109114  0  0  0  0  0  0  0  0999 V2000
   42.5177   12.6988    8.3110 O   0  0  0  0  0  0  0  0  0  0  0  0
   43.5843   11.7455    8.3178 C   0  0  2  0  0  0  0  0  0  0  0  0
   44.9175   12.4772    8.5193 C   0  0  0  0  0  0  0  0  0  0  0  0
   44.9664   13.1558    9.8982 C   0  0  2  0  0  0  0  0  0  0  0  0
   44.0280   14.2238    9.9940 O   0  0  0  0  0  0  0  0  0  0  0  0
   46.3155   13.7488   10.1794 C   0  0  0  0  0  0  0  0  0  0  0  0
   47.2865   13.0935   10.8351 C   0  0  0  0  0  0  0  0  0  0  0  0
   48.6067   13.6716   11.1512 C   0  0  0  0  0  0  0  0  0  0  0  0
   48.9584   13.8428   12.5041 C   0  0  0  0  0  0  0  0  0  0  0  0
   50.1871   14.2992   12.8677 N   0  0  0  0  0  0  0  0  0  0  0  0
   51.0850   14.6157   11.9269 C   0  0  0  0  0  0  0  0  0  0  0  0
   52.3280   15.0702   12.3478 C   0  0  0  0  0  0  0  0  0  0  0  0
   53.3371   15.4208   11.4493 C   0  0  0  0  0  0  0  0  0  0  0  0
   53.1112   15.3041   10.0887 C   0  0  0  0  0  0  0  0  0  0  0  0
   51.8715   14.8488    9.6435 C   0  0  0  0  0  0  0  0  0  0  0  0
   50.8311   14.4995   10.5472 C   0  0  0  0  0  0  0  0  0  0  0  0
   49.5485   14.0183   10.1508 C   0  0  0  0  0  0  0  0  0  0  0  0
   49.2178   13.8750    8.7153 C   0  0  0  0  0  0  0  0  0  0  0  0
   49.2957   12.6245    8.0779 C   0  0  0  0  0  0  0  0  0  0  0  0
   48.9889   12.4965    6.7208 C   0  0  0  0  0  0  0  0  0  0  0  0
   48.6091   13.6203    5.9956 C   0  0  0  0  0  0  0  0  0  0  0  0
   48.3524   13.5056    4.6867 F   0  0  0  0  0  0  0  0  0  0  0  0
   48.5163   14.8666    6.6025 C   0  0  0  0  0  0  0  0  0  0  0  0
   48.8219   14.9954    7.9591 C   0  0  0  0  0  0  0  0  0  0  0  0
   47.9995   13.5104   13.6398 C   0  0  0  0  0  0  0  0  0  0  0  0
   46.7793   14.3694   13.8829 C   0  0  0  0  0  0  0  0  0  0  0  0
   47.9184   14.4099   14.8526 C   0  0  0  0  0  0  0  0  0  0  0  0
   43.5360   10.8585    7.0798 C   0  0  0  0  0  0  0  0  0  0  0  0
   43.6618   11.6187    5.7632 C   0  0  0  0  0  0  0  0  0  0  0  0
   43.1543   12.7776    5.7735 O   0  0  0  0  0  0  0  0  0  0  0  0
   44.2296   10.9849    4.8298 O   0  0  0  0  0  0  0  0  0  0  0  0
   47.6163   13.6126    9.7201 Mg  0  0  0  0  0 15  0  0  0  0  0  0
   44.4488   13.0833    9.6436 O   0  0  0  0  0  0  0  0  0  0  0  0
   44.6183   11.9064    8.8356 C   0  0  2  0  0  0  0  0  0  0  0  0
   44.6731   12.3608    7.3687 C   0  0  0  0  0  0  0  0  0  0  0  0
   46.0416   12.8946    6.9050 C   0  0  2  0  0  0  0  0  0  0  0  0
   46.8760   11.7832    6.5736 O   0  0  0  0  0  0  0  0  0  0  0  0
   46.7420   13.8309    7.8548 C   0  0  0  0  0  0  0  0  0  0  0  0
   47.9776   13.6911    8.3620 C   0  0  0  0  0  0  0  0  0  0  0  0
   48.5515   14.6284    9.3527 C   0  0  0  0  0  0  0  0  0  0  0  0
   48.8225   15.9680    9.0160 C   0  0  0  0  0  0  0  0  0  0  0  0
   49.3243   16.8463    9.9300 N   0  0  0  0  0  0  0  0  0  0  0  0
   49.5818   16.4382   11.1790 C   0  0  0  0  0  0  0  0  0  0  0  0
   50.0858   17.3716   12.0782 C   0  0  0  0  0  0  0  0  0  0  0  0
   50.3971   17.0396   13.3971 C   0  0  0  0  0  0  0  0  0  0  0  0
   50.1972   15.7419   13.8379 C   0  0  0  0  0  0  0  0  0  0  0  0
   49.6865   14.7914   12.9553 C   0  0  0  0  0  0  0  0  0  0  0  0
   49.3755   15.1143   11.6089 C   0  0  0  0  0  0  0  0  0  0  0  0
   48.8653   14.1809   10.6605 C   0  0  0  0  0  0  0  0  0  0  0  0
   48.6937   12.7577   11.0313 C   0  0  0  0  0  0  0  0  0  0  0  0
   49.7859   11.8720   10.9791 C   0  0  0  0  0  0  0  0  0  0  0  0
   49.6303   10.5293   11.3297 C   0  0  0  0  0  0  0  0  0  0  0  0
   48.3864   10.0627   11.7342 C   0  0  0  0  0  0  0  0  0  0  0  0
   48.2539    8.7762   12.0845 F   0  0  0  0  0  0  0  0  0  0  0  0
   47.2911   10.9128   11.7841 C   0  0  0  0  0  0  0  0  0  0  0  0
   47.4464   12.2591   11.4391 C   0  0  0  0  0  0  0  0  0  0  0  0
   48.5725   16.5257    7.6222 C   0  0  0  0  0  0  0  0  0  0  0  0
   49.5978   17.4342    6.9805 C   0  0  0  0  0  0  0  0  0  0  0  0
   49.3910   16.0554    6.4371 C   0  0  0  0  0  0  0  0  0  0  0  0
   43.4341   10.9715    9.0829 C   0  0  0  0  0  0  0  0  0  0  0  0
   43.5620   10.3940   10.4898 C   0  0  0  0  0  0  0  0  0  0  0  0
   43.4463    9.1400   10.5806 O   0  0  0  0  0  0  0  0  0  0  0  0
   43.7807   11.2512   11.3976 O   0  0  0  0  0  0  0  0  0  0  0  0
   42.5068   13.0289    7.3686 H   0  0  0  0  0  0  0  0  0  0  0  0
   43.4089   11.1014    9.1887 H   0  0  0  0  0  0  0  0  0  0  0  0
   45.0316   13.2458    7.7447 H   0  0  0  0  0  0  0  0  0  0  0  0
   45.7411   11.7611    8.4297 H   0  0  0  0  0  0  0  0  0  0  0  0
   44.7056   12.4392   10.6817 H   0  0  0  0  0  0  0  0  0  0  0  0
   43.2407   13.9294    9.4808 H   0  0  0  0  0  0  0  0  0  0  0  0
   46.4697   14.7654    9.8280 H   0  0  0  0  0  0  0  0  0  0  0  0
   47.1255   12.0792   11.1942 H   0  0  0  0  0  0  0  0  0  0  0  0
   52.5158   15.1472   13.4153 H   0  0  0  0  0  0  0  0  0  0  0  0
   54.2958   15.7749   11.8161 H   0  0  0  0  0  0  0  0  0  0  0  0
   53.8914   15.5571    9.3754 H   0  0  0  0  0  0  0  0  0  0  0  0
   51.7235   14.7589    8.5689 H   0  0  0  0  0  0  0  0  0  0  0  0
   49.5863   11.7387    8.6389 H   0  0  0  0  0  0  0  0  0  0  0  0
   49.0213   11.5280    6.2284 H   0  0  0  0  0  0  0  0  0  0  0  0
   48.1945   15.7262    6.0202 H   0  0  0  0  0  0  0  0  0  0  0  0
   48.7345   15.9697    8.4355 H   0  0  0  0  0  0  0  0  0  0  0  0
   47.8847   12.4481   13.8396 H   0  0  0  0  0  0  0  0  0  0  0  0
   45.8680   13.8562   14.1618 H   0  0  0  0  0  0  0  0  0  0  0  0
   46.6134   15.2371   13.2555 H   0  0  0  0  0  0  0  0  0  0  0  0
   47.7929   13.9354   15.8191 H   0  0  0  0  0  0  0  0  0  0  0  0
   48.5314   15.3042   14.8740 H   0  0  0  0  0  0  0  0  0  0  0  0
   42.5702   10.3376    7.0454 H   0  0  0  0  0  0  0  0  0  0  0  0
   44.3219   10.0978    7.1361 H   0  0  0  0  0  0  0  0  0  0  0  0
   44.2431   12.7175   10.5428 H   0  0  0  0  0  0  0  0  0  0  0  0
   45.5571   11.4210    9.1262 H   0  0  0  0  0  0  0  0  0  0  0  0
   43.9211   13.1487    7.2130 H   0  0  0  0  0  0  0  0  0  0  0  0
   44.4092   11.5179    6.7174 H   0  0  0  0  0  0  0  0  0  0  0  0
   45.8748   13.4343    5.9633 H   0  0  0  0  0  0  0  0  0  0  0  0
   47.6817   12.1454    6.1771 H   0  0  0  0  0  0  0  0  0  0  0  0
   46.1338   14.6774    8.1695 H   0  0  0  0  0  0  0  0  0  0  0  0
   48.5851   12.8221    8.1301 H   0  0  0  0  0  0  0  0  0  0  0  0
   50.2432   18.3918   11.7373 H   0  0  0  0  0  0  0  0  0  0  0  0
   50.7842   17.7962   14.0719 H   0  0  0  0  0  0  0  0  0  0  0  0
   50.4248   15.4676   14.8635 H   0  0  0  0  0  0  0  0  0  0  0  0
   49.5205   13.7844   13.3309 H   0  0  0  0  0  0  0  0  0  0  0  0
   50.7633   12.2299   10.6622 H   0  0  0  0  0  0  0  0  0  0  0  0
   50.4688    9.8426   11.2908 H   0  0  0  0  0  0  0  0  0  0  0  0
   46.3145   10.5286   12.0728 H   0  0  0  0  0  0  0  0  0  0  0  0
   46.5742   12.9110   11.4742 H   0  0  0  0  0  0  0  0  0  0  0  0
   47.5348   16.7768    7.4234 H   0  0  0  0  0  0  0  0  0  0  0  0
   50.5143   17.6351    7.5207 H   0  0  0  0  0  0  0  0  0  0  0  0
   49.2275   18.2770    6.4126 H   0  0  0  0  0  0  0  0  0  0  0  0
   50.1768   15.3284    6.6009 H   0  0  0  0  0  0  0  0  0  0  0  0
   48.8824   15.9507    5.4860 H   0  0  0  0  0  0  0  0  0  0  0  0
   42.4809   11.5072    9.0184 H   0  0  0  0  0  0  0  0  0  0  0  0
   43.4296   10.1577    8.3476 H   0  0  0  0  0  0  0  0  0  0  0  0
  2  1  1  0
  2  3  1  0
  3  4  1  0
  4  5  1  0
  4  6  1  0
  6  7  2  0
  7  8  1  0
  8  9  2  0
  9 10  1  0
 10 11  2  0
 11 12  1  0
 12 13  2  0
 13 14  1  0
 14 15  2  0
 15 16  1  0
 11 16  1  0
 16 17  2  0
  8 17  1  0
 17 18  1  0
 18 19  2  0
 19 20  1  0
 20 21  2  0
 21 22  1  0
 21 23  1  0
 23 24  2  0
 18 24  1  0
  9 25  1  0
 25 26  1  0
 26 27  1  0
 25 27  1  0
  2 28  1  0
 28 29  1  0
 29 30  2  0
 29 31  1  0
 34 33  1  0
 34 35  1  0
 35 36  1  0
 36 37  1  0
 36 38  1  0
 38 39  2  0
 39 40  1  0
 40 41  2  0
 41 42  1  0
 42 43  2  0
 43 44  1  0
 44 45  2  0
 45 46  1  0
 46 47  2  0
 47 48  1  0
 43 48  1  0
 48 49  2  0
 40 49  1  0
 49 50  1  0
 50 51  2  0
 51 52  1  0
 52 53  2  0
 53 54  1  0
 53 55  1  0
 55 56  2  0
 50 56  1  0
 41 57  1  0
 57 58  1  0
 58 59  1  0
 57 59  1  0
 34 60  1  0
 60 61  1  0
 61 62  2  0
 61 63  1  0
  1 64  1  0
  2 65  1  1
  3 66  1  0
  3 67  1  0
  4 68  1  1
  5 69  1  0
  6 70  1  0
  7 71  1  0
 12 72  1  0
 13 73  1  0
 14 74  1  0
 15 75  1  0
 19 76  1  0
 20 77  1  0
 23 78  1  0
 24 79  1  0
 25 80  1  0
 26 81  1  0
 26 82  1  0
 27 83  1  0
 27 84  1  0
 28 85  1  0
 28 86  1  0
 33 87  1  0
 34 88  1  1
 35 89  1  0
 35 90  1  0
 36 91  1  6
 37 92  1  0
 38 93  1  0
 39 94  1  0
 44 95  1  0
 45 96  1  0
 46 97  1  0
 47 98  1  0
 51 99  1  0
 52100  1  0
 55101  1  0
 56102  1  0
 57103  1  0
 58104  1  0
 58105  1  0
 59106  1  0
 59107  1  0
 60108  1  0
 60109  1  0
M  CHG  3  31  -1  32   2  63  -1
M  END
> <Uni-Dock RESULT> 
ENERGY=   -4.324  LOWER_BOUND=    8.812  UPPER_BOUND=   11.708
INTER + INTRA:          -4.324
INTER:                  -4.324
INTRA:                   0.000
UNBOUND:                 0.000

$$$$

     RDKit          3D

109114  0  0  0  0  0  0  0  0999 V2000
   38.8256   14.9806   12.0115 O   0  0  0  0  0  0  0  0  0  0  0  0
   39.8278   14.3614   12.8231 C   0  0  2  0  0  0  0  0  0  0  0  0
   41.0739   14.0888   11.9710 C   0  0  0  0  0  0  0  0  0  0  0  0
   41.7000   15.4048   11.4805 C   0  0  2  0  0  0  0  0  0  0  0  0
   40.8527   16.0790   10.5543 O   0  0  0  0  0  0  0  0  0  0  0  0
   43.0026   15.1720   10.7734 C   0  0  0  0  0  0  0  0  0  0  0  0
   44.1944   15.2197   11.3895 C   0  0  0  0  0  0  0  0  0  0  0  0
   45.4875   15.0278   10.7052 C   0  0  0  0  0  0  0  0  0  0  0  0
   46.3971   16.1025   10.6745 C   0  0  0  0  0  0  0  0  0  0  0  0
   47.6354   15.9713   10.1272 N   0  0  0  0  0  0  0  0  0  0  0  0
   48.0029   14.8046    9.5836 C   0  0  0  0  0  0  0  0  0  0  0  0
   49.2797   14.7176    9.0442 C   0  0  0  0  0  0  0  0  0  0  0  0
   49.7638   13.5461    8.4595 C   0  0  0  0  0  0  0  0  0  0  0  0
   48.9605   12.4196    8.4206 C   0  0  0  0  0  0  0  0  0  0  0  0
   47.6759   12.4835    8.9572 C   0  0  0  0  0  0  0  0  0  0  0  0
   47.1660   13.6733    9.5451 C   0  0  0  0  0  0  0  0  0  0  0  0
   45.8662   13.7946   10.1189 C   0  0  0  0  0  0  0  0  0  0  0  0
   44.9371   12.6424   10.1087 C   0  0  0  0  0  0  0  0  0  0  0  0
   44.7826   11.8297   11.2452 C   0  0  0  0  0  0  0  0  0  0  0  0
   43.9091   10.7393   11.2275 C   0  0  0  0  0  0  0  0  0  0  0  0
   43.1921   10.4548   10.0707 C   0  0  0  0  0  0  0  0  0  0  0  0
   42.3844    9.3877   10.0403 F   0  0  0  0  0  0  0  0  0  0  0  0
   43.3199   11.2464    8.9360 C   0  0  0  0  0  0  0  0  0  0  0  0
   44.1921   12.3371    8.9530 C   0  0  0  0  0  0  0  0  0  0  0  0
   46.0627   17.4653   11.2668 C   0  0  0  0  0  0  0  0  0  0  0  0
   45.0394   18.3559   10.5993 C   0  0  0  0  0  0  0  0  0  0  0  0
   46.4881   18.7284   10.5525 C   0  0  0  0  0  0  0  0  0  0  0  0
   39.2750   13.1341   13.5372 C   0  0  0  0  0  0  0  0  0  0  0  0
   38.7634   12.0451   12.5994 C   0  0  0  0  0  0  0  0  0  0  0  0
   38.2587   12.4729   11.5210 O   0  0  0  0  0  0  0  0  0  0  0  0
   38.8850   10.8644   13.0313 O   0  0  0  0  0  0  0  0  0  0  0  0
   43.9668   14.1794   10.6913 Mg  0  0  0  0  0 15  0  0  0  0  0  0
   41.1274   15.3909   11.5798 O   0  0  0  0  0  0  0  0  0  0  0  0
   40.9750   14.4001   12.6103 C   0  0  2  0  0  0  0  0  0  0  0  0
   40.3477   13.1561   11.9618 C   0  0  0  0  0  0  0  0  0  0  0  0
   41.3382   12.2456   11.2117 C   0  0  2  0  0  0  0  0  0  0  0  0
   41.9895   11.4003   12.1618 O   0  0  0  0  0  0  0  0  0  0  0  0
   42.3428   12.9442   10.3331 C   0  0  0  0  0  0  0  0  0  0  0  0
   43.6801   12.8346   10.3906 C   0  0  0  0  0  0  0  0  0  0  0  0
   44.5898   13.6244    9.5315 C   0  0  0  0  0  0  0  0  0  0  0  0
   44.6173   13.4394    8.1363 C   0  0  0  0  0  0  0  0  0  0  0  0
   45.4312   14.1822    7.3337 N   0  0  0  0  0  0  0  0  0  0  0  0
   46.2382   15.1062    7.8704 C   0  0  0  0  0  0  0  0  0  0  0  0
   47.0449   15.8445    7.0113 C   0  0  0  0  0  0  0  0  0  0  0  0
   47.9274   16.8201    7.4760 C   0  0  0  0  0  0  0  0  0  0  0  0
   48.0078   17.0736    8.8352 C   0  0  0  0  0  0  0  0  0  0  0  0
   47.2035   16.3500    9.7141 C   0  0  0  0  0  0  0  0  0  0  0  0
   46.3093   15.3484    9.2548 C   0  0  0  0  0  0  0  0  0  0  0  0
   45.4751   14.5692   10.1081 C   0  0  0  0  0  0  0  0  0  0  0  0
   45.5557   14.7270   11.5781 C   0  0  0  0  0  0  0  0  0  0  0  0
   46.5512   14.0561   12.3124 C   0  0  0  0  0  0  0  0  0  0  0  0
   46.6331   14.2029   13.6987 C   0  0  0  0  0  0  0  0  0  0  0  0
   45.7244   15.0187   14.3598 C   0  0  0  0  0  0  0  0  0  0  0  0
   45.8241   15.1649   15.6880 F   0  0  0  0  0  0  0  0  0  0  0  0
   44.7268   15.6828   13.6607 C   0  0  0  0  0  0  0  0  0  0  0  0
   44.6469   15.5416   12.2716 C   0  0  0  0  0  0  0  0  0  0  0  0
   43.7453   12.4098    7.4324 C   0  0  0  0  0  0  0  0  0  0  0  0
   44.3315   11.5545    6.3309 C   0  0  0  0  0  0  0  0  0  0  0  0
   43.9707   10.9260    7.6401 C   0  0  0  0  0  0  0  0  0  0  0  0
   40.0720   14.9705   13.7043 C   0  0  0  0  0  0  0  0  0  0  0  0
   40.8417   16.0611   14.4440 C   0  0  0  0  0  0  0  0  0  0  0  0
   40.8393   15.9760   15.7037 O   0  0  0  0  0  0  0  0  0  0  0  0
   41.4010   16.9173   13.6950 O   0  0  0  0  0  0  0  0  0  0  0  0
   38.3796   14.2080   11.5628 H   0  0  0  0  0  0  0  0  0  0  0  0
   40.0905   15.0974   13.5935 H   0  0  0  0  0  0  0  0  0  0  0  0
   40.7933   13.4860   11.0982 H   0  0  0  0  0  0  0  0  0  0  0  0
   41.8044   13.5301   12.5654 H   0  0  0  0  0  0  0  0  0  0  0  0
   41.8510   16.0879   12.3208 H   0  0  0  0  0  0  0  0  0  0  0  0
   39.9344   15.9147   10.8697 H   0  0  0  0  0  0  0  0  0  0  0  0
   42.9347   14.9691    9.7081 H   0  0  0  0  0  0  0  0  0  0  0  0
   44.2595   15.4328   12.4544 H   0  0  0  0  0  0  0  0  0  0  0  0
   49.9200   15.5944    9.0877 H   0  0  0  0  0  0  0  0  0  0  0  0
   50.7671   13.5170    8.0454 H   0  0  0  0  0  0  0  0  0  0  0  0
   49.3274   11.4943    7.9838 H   0  0  0  0  0  0  0  0  0  0  0  0
   47.0686   11.5810    8.9206 H   0  0  0  0  0  0  0  0  0  0  0  0
   45.3352   12.0482   12.1565 H   0  0  0  0  0  0  0  0  0  0  0  0
   43.7650   10.1229   12.1111 H   0  0  0  0  0  0  0  0  0  0  0  0
   42.7313   11.0180    8.0514 H   0  0  0  0  0  0  0  0  0  0  0  0
   44.2796   12.9640    8.0681 H   0  0  0  0  0  0  0  0  0  0  0  0
   46.1004   17.5092   12.3522 H   0  0  0  0  0  0  0  0  0  0  0  0
   44.3741   18.9087   11.2501 H   0  0  0  0  0  0  0  0  0  0  0  0
   44.5695   18.0215    9.6820 H   0  0  0  0  0  0  0  0  0  0  0  0
   46.8299   19.5566   11.1627 H   0  0  0  0  0  0  0  0  0  0  0  0
   47.0024   18.6360    9.6022 H   0  0  0  0  0  0  0  0  0  0  0  0
   38.4216   13.4319   14.1604 H   0  0  0  0  0  0  0  0  0  0  0  0
   40.0391   12.7132   14.1995 H   0  0  0  0  0  0  0  0  0  0  0  0
   41.3623   16.2128   12.0836 H   0  0  0  0  0  0  0  0  0  0  0  0
   41.9670   14.1678   13.0145 H   0  0  0  0  0  0  0  0  0  0  0  0
   39.5683   13.4791   11.2556 H   0  0  0  0  0  0  0  0  0  0  0  0
   39.8619   12.5490   12.7361 H   0  0  0  0  0  0  0  0  0  0  0  0
   40.7431   11.5770   10.5755 H   0  0  0  0  0  0  0  0  0  0  0  0
   42.5152   10.7631   11.6566 H   0  0  0  0  0  0  0  0  0  0  0  0
   41.8989   13.6313    9.6145 H   0  0  0  0  0  0  0  0  0  0  0  0
   44.1613   12.2172   11.1424 H   0  0  0  0  0  0  0  0  0  0  0  0
   46.9843   15.6501    5.9435 H   0  0  0  0  0  0  0  0  0  0  0  0
   48.5380   17.3799    6.7750 H   0  0  0  0  0  0  0  0  0  0  0  0
   48.6820   17.8357    9.2142 H   0  0  0  0  0  0  0  0  0  0  0  0
   47.2711   16.5811   10.7747 H   0  0  0  0  0  0  0  0  0  0  0  0
   47.2660   13.4143   11.8015 H   0  0  0  0  0  0  0  0  0  0  0  0
   47.3981   13.6877   14.2692 H   0  0  0  0  0  0  0  0  0  0  0  0
   44.0014   16.2947   14.1935 H   0  0  0  0  0  0  0  0  0  0  0  0
   43.8517   16.0621   11.7389 H   0  0  0  0  0  0  0  0  0  0  0  0
   42.7171   12.7259    7.2827 H   0  0  0  0  0  0  0  0  0  0  0  0
   45.3819   11.6707    6.0957 H   0  0  0  0  0  0  0  0  0  0  0  0
   43.7067   11.3569    5.4704 H   0  0  0  0  0  0  0  0  0  0  0  0
   44.7810   10.6061    8.2834 H   0  0  0  0  0  0  0  0  0  0  0  0
   43.0969   10.2862    7.6774 H   0  0  0  0  0  0  0  0  0  0  0  0
   39.1657   15.4178   13.2823 H   0  0  0  0  0  0  0  0  0  0  0  0
   39.7791   14.1817   14.4079 H   0  0  0  0  0  0  0  0  0  0  0  0
  2  1  1  0
  2  3  1  0
  3  4  1  0
  4  5  1  0
  4  6  1  0
  6  7  2  0
  7  8  1  0
  8  9  2  0
  9 10  1  0
 10 11  2  0
 11 12  1  0
 12 13  2  0
 13 14  1  0
 14 15  2  0
 15 16  1  0
 11 16  1  0
 16 17  2  0
  8 17  1  0
 17 18  1  0
 18 19  2  0
 19 20  1  0
 20 21  2  0
 21 22  1  0
 21 23  1  0
 23 24  2  0
 18 24  1  0
  9 25  1  0
 25 26  1  0
 26 27  1  0
 25 27  1  0
  2 28  1  0
 28 29  1  0
 29 30  2  0
 29 31  1  0
 34 33  1  0
 34 35  1  0
 35 36  1  0
 36 37  1  0
 36 38  1  0
 38 39  2  0
 39 40  1  0
 40 41  2  0
 41 42  1  0
 42 43  2  0
 43 44  1  0
 44 45  2  0
 45 46  1  0
 46 47  2  0
 47 48  1  0
 43 48  1  0
 48 49  2  0
 40 49  1  0
 49 50  1  0
 50 51  2  0
 51 52  1  0
 52 53  2  0
 53 54  1  0
 53 55  1  0
 55 56  2  0
 50 56  1  0
 41 57  1  0
 57 58  1  0
 58 59  1  0
 57 59  1  0
 34 60  1  0
 60 61  1  0
 61 62  2  0
 61 63  1  0
  1 64  1  0
  2 65  1  1
  3 66  1  0
  3 67  1  0
  4 68  1  1
  5 69  1  0
  6 70  1  0
  7 71  1  0
 12 72  1  0
 13 73  1  0
 14 74  1  0
 15 75  1  0
 19 76  1  0
 20 77  1  0
 23 78  1  0
 24 79  1  0
 25 80  1  0
 26 81  1  0
 26 82  1  0
 27 83  1  0
 27 84  1  0
 28 85  1  0
 28 86  1  0
 33 87  1  0
 34 88  1  1
 35 89  1  0
 35 90  1  0
 36 91  1  6
 37 92  1  0
 38 93  1  0
 39 94  1  0
 44 95  1  0
 45 96  1  0
 46 97  1  0
 47 98  1  0
 51 99  1  0
 52100  1  0
 55101  1  0
 56102  1  0
 57103  1  0
 58104  1  0
 58105  1  0
 59106  1  0
 59107  1  0
 60108  1  0
 60109  1  0
M  CHG  3  31  -1  32   2  63  -1
M  END
> <Uni-Dock RESULT> 
ENERGY=   -4.306  LOWER_BOUND=   10.781  UPPER_BOUND=   14.047
INTER + INTRA:          -4.306
INTER:                  -4.306
INTRA:                   0.000
UNBOUND:                 0.000

$$$$
