
     RDKit          3D

109114  0  0  0  0  0  0  0  0999 V2000
   48.8193   10.1616   13.5341 O   0  0  0  0  0  0  0  0  0  0  0  0
   50.0700    9.5110   13.8172 C   0  0  2  0  0  0  0  0  0  0  0  0
   50.0205    9.0632   15.2839 C   0  0  0  0  0  0  0  0  0  0  0  0
   49.1595    7.8043   15.4761 C   0  0  2  0  0  0  0  0  0  0  0  0
   47.8003    8.0224   15.0866 O   0  0  0  0  0  0  0  0  0  0  0  0
   49.1168    7.3032   16.8970 C   0  0  0  0  0  0  0  0  0  0  0  0
   50.1586    7.2925   17.7462 C   0  0  0  0  0  0  0  0  0  0  0  0
   50.0981    6.7949   19.1333 C   0  0  0  0  0  0  0  0  0  0  0  0
   50.6869    5.5558   19.4529 C   0  0  0  0  0  0  0  0  0  0  0  0
   50.7024    5.0844   20.7296 N   0  0  0  0  0  0  0  0  0  0  0  0
   50.1642    5.8111   21.7167 C   0  0  0  0  0  0  0  0  0  0  0  0
   50.2546    5.3065   23.0084 C   0  0  0  0  0  0  0  0  0  0  0  0
   49.7522    5.9987   24.1117 C   0  0  0  0  0  0  0  0  0  0  0  0
   49.1196    7.2137   23.9114 C   0  0  0  0  0  0  0  0  0  0  0  0
   48.9929    7.7293   22.6204 C   0  0  0  0  0  0  0  0  0  0  0  0
   49.5347    7.0512   21.5022 C   0  0  0  0  0  0  0  0  0  0  0  0
   49.5068    7.5528   20.1675 C   0  0  0  0  0  0  0  0  0  0  0  0
   48.9050    8.8753   19.8722 C   0  0  0  0  0  0  0  0  0  0  0  0
   49.6887   10.0353   19.7957 C   0  0  0  0  0  0  0  0  0  0  0  0
   49.0897   11.2764   19.5547 C   0  0  0  0  0  0  0  0  0  0  0  0
   47.7132   11.3484   19.3592 C   0  0  0  0  0  0  0  0  0  0  0  0
   47.1362   12.5385   19.1472 F   0  0  0  0  0  0  0  0  0  0  0  0
   46.9245   10.2043   19.3801 C   0  0  0  0  0  0  0  0  0  0  0  0
   47.5179    8.9756   19.6585 C   0  0  0  0  0  0  0  0  0  0  0  0
   51.3534    4.6930   18.3875 C   0  0  0  0  0  0  0  0  0  0  0  0
   50.4897    3.7985   17.5250 C   0  0  0  0  0  0  0  0  0  0  0  0
   51.4143    3.1926   18.5342 C   0  0  0  0  0  0  0  0  0  0  0  0
   51.2318   10.4520   13.5288 C   0  0  0  0  0  0  0  0  0  0  0  0
   52.5841    9.7219   13.5743 C   0  0  0  0  0  0  0  0  0  0  0  0
   52.5392    8.4613   13.4998 O   0  0  0  0  0  0  0  0  0  0  0  0
   53.5980   10.4746   13.6746 O   0  0  0  0  0  0  0  0  0  0  0  0
   49.8052    7.8304   18.1747 Mg  0  0  0  0  0 15  0  0  0  0  0  0
   48.5872    7.2537   12.8643 O   0  0  0  0  0  0  0  0  0  0  0  0
   49.8336    7.6863   13.4444 C   0  0  2  0  0  0  0  0  0  0  0  0
   49.5523    7.9517   14.9275 C   0  0  0  0  0  0  0  0  0  0  0  0
   50.7828    8.2962   15.7668 C   0  0  2  0  0  0  0  0  0  0  0  0
   51.7077    7.2178   15.7519 O   0  0  0  0  0  0  0  0  0  0  0  0
   50.3887    8.6129   17.1825 C   0  0  0  0  0  0  0  0  0  0  0  0
   50.6481    7.8685   18.2685 C   0  0  0  0  0  0  0  0  0  0  0  0
   50.1502    8.2410   19.6069 C   0  0  0  0  0  0  0  0  0  0  0  0
   50.6207    9.3883   20.2654 C   0  0  0  0  0  0  0  0  0  0  0  0
   50.1006    9.7686   21.4673 N   0  0  0  0  0  0  0  0  0  0  0  0
   49.1454    9.0332   22.0527 C   0  0  0  0  0  0  0  0  0  0  0  0
   48.6495    9.4688   23.2724 C   0  0  0  0  0  0  0  0  0  0  0  0
   47.6410    8.7918   23.9576 C   0  0  0  0  0  0  0  0  0  0  0  0
   47.1175    7.6309   23.4180 C   0  0  0  0  0  0  0  0  0  0  0  0
   47.6127    7.1581   22.2056 C   0  0  0  0  0  0  0  0  0  0  0  0
   48.6305    7.8524   21.4960 C   0  0  0  0  0  0  0  0  0  0  0  0
   49.1634    7.4452   20.2417 C   0  0  0  0  0  0  0  0  0  0  0  0
   48.7003    6.1983   19.5972 C   0  0  0  0  0  0  0  0  0  0  0  0
   47.6813    6.2112   18.6324 C   0  0  0  0  0  0  0  0  0  0  0  0
   47.2700    5.0258   18.0169 C   0  0  0  0  0  0  0  0  0  0  0  0
   47.8741    3.8265   18.3669 C   0  0  0  0  0  0  0  0  0  0  0  0
   47.4709    2.6912   17.7824 F   0  0  0  0  0  0  0  0  0  0  0  0
   48.8885    3.7883   19.3145 C   0  0  0  0  0  0  0  0  0  0  0  0
   49.3091    4.9717   19.9192 C   0  0  0  0  0  0  0  0  0  0  0  0
   51.7397   10.2565   19.6889 C   0  0  0  0  0  0  0  0  0  0  0  0
   52.7576   10.8909   20.6135 C   0  0  0  0  0  0  0  0  0  0  0  0
   53.1704    9.7503   19.7287 C   0  0  0  0  0  0  0  0  0  0  0  0
   50.3109    8.9210   12.6948 C   0  0  0  0  0  0  0  0  0  0  0  0
   50.8497    8.4888   11.3364 C   0  0  0  0  0  0  0  0  0  0  0  0
   51.9295    9.0364   10.9775 O   0  0  0  0  0  0  0  0  0  0  0  0
   50.1528    7.6053   10.7487 O   0  0  0  0  0  0  0  0  0  0  0  0
   48.9194   10.5345   12.6437 H   0  0  0  0  0  0  0  0  0  0  0  0
   50.1152    8.6428   13.1590 H   0  0  0  0  0  0  0  0  0  0  0  0
   51.0301    8.8885   15.6661 H   0  0  0  0  0  0  0  0  0  0  0  0
   49.5716    9.8598   15.8837 H   0  0  0  0  0  0  0  0  0  0  0  0
   49.5337    6.9862   14.8479 H   0  0  0  0  0  0  0  0  0  0  0  0
   47.7817    8.8960   14.6160 H   0  0  0  0  0  0  0  0  0  0  0  0
   48.1617    6.8985   17.2351 H   0  0  0  0  0  0  0  0  0  0  0  0
   51.1428    7.6221   17.4378 H   0  0  0  0  0  0  0  0  0  0  0  0
   50.7582    4.3517   23.1485 H   0  0  0  0  0  0  0  0  0  0  0  0
   49.8860    5.6005   25.1131 H   0  0  0  0  0  0  0  0  0  0  0  0
   48.7343    7.7781   24.7599 H   0  0  0  0  0  0  0  0  0  0  0  0
   48.4840    8.6860   22.5042 H   0  0  0  0  0  0  0  0  0  0  0  0
   50.7680    9.9829   19.9109 H   0  0  0  0  0  0  0  0  0  0  0  0
   49.6814   12.1861   19.5116 H   0  0  0  0  0  0  0  0  0  0  0  0
   45.8581   10.2743   19.1743 H   0  0  0  0  0  0  0  0  0  0  0  0
   46.9033    8.0846   19.6825 H   0  0  0  0  0  0  0  0  0  0  0  0
   52.2083    5.1534   17.8945 H   0  0  0  0  0  0  0  0  0  0  0  0
   49.4294    3.7787   17.7361 H   0  0  0  0  0  0  0  0  0  0  0  0
   50.7403    3.7165   16.4724 H   0  0  0  0  0  0  0  0  0  0  0  0
   52.3133    2.7071   18.1782 H   0  0  0  0  0  0  0  0  0  0  0  0
   50.9800    2.7347   19.4089 H   0  0  0  0  0  0  0  0  0  0  0  0
   51.1193   10.8885   12.5227 H   0  0  0  0  0  0  0  0  0  0  0  0
   51.2196   11.2876   14.2400 H   0  0  0  0  0  0  0  0  0  0  0  0
   48.8156    7.1628   11.9023 H   0  0  0  0  0  0  0  0  0  0  0  0
   50.5376    6.8549   13.3439 H   0  0  0  0  0  0  0  0  0  0  0  0
   49.0685    7.0582   15.3500 H   0  0  0  0  0  0  0  0  0  0  0  0
   48.8042    8.7509   15.0107 H   0  0  0  0  0  0  0  0  0  0  0  0
   51.2855    9.1886   15.3807 H   0  0  0  0  0  0  0  0  0  0  0  0
   52.5766    7.5969   15.5033 H   0  0  0  0  0  0  0  0  0  0  0  0
   49.8212    9.5337   17.3016 H   0  0  0  0  0  0  0  0  0  0  0  0
   51.1667    6.9276   18.1908 H   0  0  0  0  0  0  0  0  0  0  0  0
   49.0576   10.3759   23.7104 H   0  0  0  0  0  0  0  0  0  0  0  0
   47.2760    9.1708   24.9088 H   0  0  0  0  0  0  0  0  0  0  0  0
   46.3467    7.0784   23.9382 H   0  0  0  0  0  0  0  0  0  0  0  0
   47.1948    6.2361   21.8058 H   0  0  0  0  0  0  0  0  0  0  0  0
   47.2294    7.1550   18.3352 H   0  0  0  0  0  0  0  0  0  0  0  0
   46.4944    5.0431   17.2535 H   0  0  0  0  0  0  0  0  0  0  0  0
   49.3593    2.8386   19.5565 H   0  0  0  0  0  0  0  0  0  0  0  0
   50.1351    4.9387   20.6298 H   0  0  0  0  0  0  0  0  0  0  0  0
   51.4484   10.8613   18.8300 H   0  0  0  0  0  0  0  0  0  0  0  0
   52.6737   10.6934   21.6771 H   0  0  0  0  0  0  0  0  0  0  0  0
   53.1482   11.8725   20.3481 H   0  0  0  0  0  0  0  0  0  0  0  0
   53.8225    9.9855   18.8968 H   0  0  0  0  0  0  0  0  0  0  0  0
   53.3581    8.7787   20.1837 H   0  0  0  0  0  0  0  0  0  0  0  0
   51.0947    9.4582   13.2326 H   0  0  0  0  0  0  0  0  0  0  0  0
   49.4801    9.6090   12.5219 H   0  0  0  0  0  0  0  0  0  0  0  0
  2  1  1  0
  2  3  1  0
  3  4  1  0
  4  5  1  0
  4  6  1  0
  6  7  2  0
  7  8  1  0
  8  9  2  0
  9 10  1  0
 10 11  2  0
 11 12  1  0
 12 13  2  0
 13 14  1  0
 14 15  2  0
 15 16  1  0
 11 16  1  0
 16 17  2  0
  8 17  1  0
 17 18  1  0
 18 19  2  0
 19 20  1  0
 20 21  2  0
 21 22  1  0
 21 23  1  0
 23 24  2  0
 18 24  1  0
  9 25  1  0
 25 26  1  0
 26 27  1  0
 25 27  1  0
  2 28  1  0
 28 29  1  0
 29 30  2  0
 29 31  1  0
 34 33  1  0
 34 35  1  0
 35 36  1  0
 36 37  1  0
 36 38  1  0
 38 39  2  0
 39 40  1  0
 40 41  2  0
 41 42  1  0
 42 43  2  0
 43 44  1  0
 44 45  2  0
 45 46  1  0
 46 47  2  0
 47 48  1  0
 43 48  1  0
 48 49  2  0
 40 49  1  0
 49 50  1  0
 50 51  2  0
 51 52  1  0
 52 53  2  0
 53 54  1  0
 53 55  1  0
 55 56  2  0
 50 56  1  0
 41 57  1  0
 57 58  1  0
 58 59  1  0
 57 59  1  0
 34 60  1  0
 60 61  1  0
 61 62  2  0
 61 63  1  0
  1 64  1  0
  2 65  1  6
  3 66  1  0
  3 67  1  0
  4 68  1  6
  5 69  1  0
  6 70  1  0
  7 71  1  0
 12 72  1  0
 13 73  1  0
 14 74  1  0
 15 75  1  0
 19 76  1  0
 20 77  1  0
 23 78  1  0
 24 79  1  0
 25 80  1  0
 26 81  1  0
 26 82  1  0
 27 83  1  0
 27 84  1  0
 28 85  1  0
 28 86  1  0
 33 87  1  0
 34 88  1  6
 35 89  1  0
 35 90  1  0
 36 91  1  1
 37 92  1  0
 38 93  1  0
 39 94  1  0
 44 95  1  0
 45 96  1  0
 46 97  1  0
 47 98  1  0
 51 99  1  0
 52100  1  0
 55101  1  0
 56102  1  0
 57103  1  0
 58104  1  0
 58105  1  0
 59106  1  0
 59107  1  0
 60108  1  0
 60109  1  0
M  CHG  3  31  -1  32   2  63  -1
M  END
> <Uni-Dock RESULT> 
ENERGY=   -5.528  LOWER_BOUND=    0.000  UPPER_BOUND=    0.000
INTER + INTRA:          -5.528
INTER:                  -5.528
INTRA:                   0.000
UNBOUND:                 0.000

$$$$

     RDKit          3D

109114  0  0  0  0  0  0  0  0999 V2000
   48.5804   10.3153   13.6970 O   0  0  0  0  0  0  0  0  0  0  0  0
   49.8510    9.6928   13.9532 C   0  0  2  0  0  0  0  0  0  0  0  0
   49.8382    9.2335   15.4171 C   0  0  0  0  0  0  0  0  0  0  0  0
   49.0108    7.9530   15.6148 C   0  0  2  0  0  0  0  0  0  0  0  0
   47.6401    8.1413   15.2509 O   0  0  0  0  0  0  0  0  0  0  0  0
   49.0052    7.4409   17.0325 C   0  0  0  0  0  0  0  0  0  0  0  0
   50.0618    7.4491   17.8632 C   0  0  0  0  0  0  0  0  0  0  0  0
   50.0377    6.9403   19.2474 C   0  0  0  0  0  0  0  0  0  0  0  0
   50.6614    5.7133   19.5472 C   0  0  0  0  0  0  0  0  0  0  0  0
   50.7107    5.2334   20.8199 N   0  0  0  0  0  0  0  0  0  0  0  0
   50.1729    5.9400   21.8217 C   0  0  0  0  0  0  0  0  0  0  0  0
   50.2981    5.4285   23.1078 C   0  0  0  0  0  0  0  0  0  0  0  0
   49.7990    6.1006   24.2249 C   0  0  0  0  0  0  0  0  0  0  0  0
   49.1342    7.3016   24.0449 C   0  0  0  0  0  0  0  0  0  0  0  0
   48.9725    7.8231   22.7603 C   0  0  0  0  0  0  0  0  0  0  0  0
   49.5104    7.1662   21.6277 C   0  0  0  0  0  0  0  0  0  0  0  0
   49.4470    7.6765   20.2974 C   0  0  0  0  0  0  0  0  0  0  0  0
   48.8088    8.9863   20.0227 C   0  0  0  0  0  0  0  0  0  0  0  0
   49.5632   10.1652   19.9412 C   0  0  0  0  0  0  0  0  0  0  0  0
   48.9307   11.3933   19.7202 C   0  0  0  0  0  0  0  0  0  0  0  0
   47.5496   11.4338   19.5493 C   0  0  0  0  0  0  0  0  0  0  0  0
   46.9408   12.6112   19.3565 F   0  0  0  0  0  0  0  0  0  0  0  0
   46.7888   10.2710   19.5754 C   0  0  0  0  0  0  0  0  0  0  0  0
   47.4161    9.0549   19.8341 C   0  0  0  0  0  0  0  0  0  0  0  0
   51.3292    4.8743   18.4639 C   0  0  0  0  0  0  0  0  0  0  0  0
   50.4719    3.9657   17.6099 C   0  0  0  0  0  0  0  0  0  0  0  0
   51.4284    3.3749   18.5981 C   0  0  0  0  0  0  0  0  0  0  0  0
   50.9848   10.6633   13.6516 C   0  0  0  0  0  0  0  0  0  0  0  0
   52.3547    9.9655   13.6679 C   0  0  0  0  0  0  0  0  0  0  0  0
   52.3385    8.7046   13.5847 O   0  0  0  0  0  0  0  0  0  0  0  0
   53.3520   10.7414   13.7561 O   0  0  0  0  0  0  0  0  0  0  0  0
   49.7034    7.9753   18.3019 Mg  0  0  0  0  0 15  0  0  0  0  0  0
   48.4057    7.4075   13.0094 O   0  0  0  0  0  0  0  0  0  0  0  0
   49.6515    7.8656   13.5709 C   0  0  2  0  0  0  0  0  0  0  0  0
   49.3903    8.1136   15.0606 C   0  0  0  0  0  0  0  0  0  0  0  0
   50.6269    8.4815   15.8808 C   0  0  2  0  0  0  0  0  0  0  0  0
   51.5768    7.4256   15.8416 O   0  0  0  0  0  0  0  0  0  0  0  0
   50.2505    8.7786   17.3056 C   0  0  0  0  0  0  0  0  0  0  0  0
   50.5466    8.0329   18.3812 C   0  0  0  0  0  0  0  0  0  0  0  0
   50.0638    8.3838   19.7309 C   0  0  0  0  0  0  0  0  0  0  0  0
   50.5184    9.5373   20.3897 C   0  0  0  0  0  0  0  0  0  0  0  0
   50.0108    9.8966   21.6033 N   0  0  0  0  0  0  0  0  0  0  0  0
   49.0839    9.1343   22.1998 C   0  0  0  0  0  0  0  0  0  0  0  0
   48.5994    9.5492   23.4312 C   0  0  0  0  0  0  0  0  0  0  0  0
   47.6196    8.8435   24.1289 C   0  0  0  0  0  0  0  0  0  0  0  0
   47.1144    7.6743   23.5898 C   0  0  0  0  0  0  0  0  0  0  0  0
   47.5991    7.2221   22.3654 C   0  0  0  0  0  0  0  0  0  0  0  0
   48.5874    7.9455   21.6433 C   0  0  0  0  0  0  0  0  0  0  0  0
   49.1076    7.5602   20.3769 C   0  0  0  0  0  0  0  0  0  0  0  0
   48.6629    6.3072   19.7312 C   0  0  0  0  0  0  0  0  0  0  0  0
   47.6270    6.3026   18.7845 C   0  0  0  0  0  0  0  0  0  0  0  0
   47.2332    5.1121   18.1674 C   0  0  0  0  0  0  0  0  0  0  0  0
   47.8717    3.9251   18.4976 C   0  0  0  0  0  0  0  0  0  0  0  0
   47.4854    2.7847   17.9118 F   0  0  0  0  0  0  0  0  0  0  0  0
   48.9034    3.9044   19.4270 C   0  0  0  0  0  0  0  0  0  0  0  0
   49.3063    5.0933   20.0332 C   0  0  0  0  0  0  0  0  0  0  0  0
   51.6062   10.4361   19.8002 C   0  0  0  0  0  0  0  0  0  0  0  0
   52.6248   11.0881   20.7116 C   0  0  0  0  0  0  0  0  0  0  0  0
   53.0489    9.9640   19.8111 C   0  0  0  0  0  0  0  0  0  0  0  0
   50.0860    9.1167   12.8223 C   0  0  0  0  0  0  0  0  0  0  0  0
   50.6108    8.7072   11.4515 C   0  0  0  0  0  0  0  0  0  0  0  0
   51.6708    9.2830   11.0778 O   0  0  0  0  0  0  0  0  0  0  0  0
   49.9248    7.8114   10.8694 O   0  0  0  0  0  0  0  0  0  0  0  0
   48.6558   10.6968   12.8078 H   0  0  0  0  0  0  0  0  0  0  0  0
   49.9052    8.8306   13.2878 H   0  0  0  0  0  0  0  0  0  0  0  0
   50.8582    9.0802   15.7803 H   0  0  0  0  0  0  0  0  0  0  0  0
   49.3811   10.0148   16.0307 H   0  0  0  0  0  0  0  0  0  0  0  0
   49.3932    7.1486   14.9740 H   0  0  0  0  0  0  0  0  0  0  0  0
   47.5925    9.0176   14.7873 H   0  0  0  0  0  0  0  0  0  0  0  0
   48.0662    7.0111   17.3842 H   0  0  0  0  0  0  0  0  0  0  0  0
   51.0323    7.8043   17.5401 H   0  0  0  0  0  0  0  0  0  0  0  0
   50.8266    4.4850   23.2319 H   0  0  0  0  0  0  0  0  0  0  0  0
   49.9599    5.6986   25.2208 H   0  0  0  0  0  0  0  0  0  0  0  0
   48.7506    7.8505   24.9042 H   0  0  0  0  0  0  0  0  0  0  0  0
   48.4390    8.7682   22.6602 H   0  0  0  0  0  0  0  0  0  0  0  0
   50.6453   10.1378   20.0371 H   0  0  0  0  0  0  0  0  0  0  0  0
   49.4997   12.3172   19.6735 H   0  0  0  0  0  0  0  0  0  0  0  0
   45.7176   10.3170   19.3889 H   0  0  0  0  0  0  0  0  0  0  0  0
   46.8233    8.1493   19.8622 H   0  0  0  0  0  0  0  0  0  0  0  0
   52.1641    5.3586   17.9594 H   0  0  0  0  0  0  0  0  0  0  0  0
   49.4163    3.9190   17.8394 H   0  0  0  0  0  0  0  0  0  0  0  0
   50.7058    3.8972   16.5525 H   0  0  0  0  0  0  0  0  0  0  0  0
   52.3323    2.9135   18.2228 H   0  0  0  0  0  0  0  0  0  0  0  0
   51.0207    2.9005   19.4769 H   0  0  0  0  0  0  0  0  0  0  0  0
   50.8442   11.1041   12.6509 H   0  0  0  0  0  0  0  0  0  0  0  0
   50.9653   11.4933   14.3692 H   0  0  0  0  0  0  0  0  0  0  0  0
   48.6191    7.3289   12.0430 H   0  0  0  0  0  0  0  0  0  0  0  0
   50.3732    7.0520   13.4518 H   0  0  0  0  0  0  0  0  0  0  0  0
   48.9354    7.2059   15.4848 H   0  0  0  0  0  0  0  0  0  0  0  0
   48.6249    8.8941   15.1630 H   0  0  0  0  0  0  0  0  0  0  0  0
   51.1013    9.3884   15.4927 H   0  0  0  0  0  0  0  0  0  0  0  0
   52.4318    7.8272   15.5807 H   0  0  0  0  0  0  0  0  0  0  0  0
   49.6635    9.6847   17.4415 H   0  0  0  0  0  0  0  0  0  0  0  0
   51.0861    7.1053   18.2873 H   0  0  0  0  0  0  0  0  0  0  0  0
   48.9935   10.4627   23.8688 H   0  0  0  0  0  0  0  0  0  0  0  0
   47.2626    9.2069   25.0892 H   0  0  0  0  0  0  0  0  0  0  0  0
   46.3663    7.0998   24.1192 H   0  0  0  0  0  0  0  0  0  0  0  0
   47.1962    6.2932   21.9660 H   0  0  0  0  0  0  0  0  0  0  0  0
   47.1476    7.2374   18.5024 H   0  0  0  0  0  0  0  0  0  0  0  0
   46.4440    5.1163   17.4179 H   0  0  0  0  0  0  0  0  0  0  0  0
   49.4008    2.9646   19.6536 H   0  0  0  0  0  0  0  0  0  0  0  0
   50.1454    5.0749   20.7289 H   0  0  0  0  0  0  0  0  0  0  0  0
   51.2854   11.0399   18.9512 H   0  0  0  0  0  0  0  0  0  0  0  0
   52.5645   10.8811   21.7750 H   0  0  0  0  0  0  0  0  0  0  0  0
   52.9872   12.0806   20.4468 H   0  0  0  0  0  0  0  0  0  0  0  0
   53.6805   10.2206   18.9698 H   0  0  0  0  0  0  0  0  0  0  0  0
   53.2677    8.9939   20.2554 H   0  0  0  0  0  0  0  0  0  0  0  0
   50.8662    9.6686   13.3504 H   0  0  0  0  0  0  0  0  0  0  0  0
   49.2361    9.7858   12.6692 H   0  0  0  0  0  0  0  0  0  0  0  0
  2  1  1  0
  2  3  1  0
  3  4  1  0
  4  5  1  0
  4  6  1  0
  6  7  2  0
  7  8  1  0
  8  9  2  0
  9 10  1  0
 10 11  2  0
 11 12  1  0
 12 13  2  0
 13 14  1  0
 14 15  2  0
 15 16  1  0
 11 16  1  0
 16 17  2  0
  8 17  1  0
 17 18  1  0
 18 19  2  0
 19 20  1  0
 20 21  2  0
 21 22  1  0
 21 23  1  0
 23 24  2  0
 18 24  1  0
  9 25  1  0
 25 26  1  0
 26 27  1  0
 25 27  1  0
  2 28  1  0
 28 29  1  0
 29 30  2  0
 29 31  1  0
 34 33  1  0
 34 35  1  0
 35 36  1  0
 36 37  1  0
 36 38  1  0
 38 39  2  0
 39 40  1  0
 40 41  2  0
 41 42  1  0
 42 43  2  0
 43 44  1  0
 44 45  2  0
 45 46  1  0
 46 47  2  0
 47 48  1  0
 43 48  1  0
 48 49  2  0
 40 49  1  0
 49 50  1  0
 50 51  2  0
 51 52  1  0
 52 53  2  0
 53 54  1  0
 53 55  1  0
 55 56  2  0
 50 56  1  0
 41 57  1  0
 57 58  1  0
 58 59  1  0
 57 59  1  0
 34 60  1  0
 60 61  1  0
 61 62  2  0
 61 63  1  0
  1 64  1  0
  2 65  1  6
  3 66  1  0
  3 67  1  0
  4 68  1  6
  5 69  1  0
  6 70  1  0
  7 71  1  0
 12 72  1  0
 13 73  1  0
 14 74  1  0
 15 75  1  0
 19 76  1  0
 20 77  1  0
 23 78  1  0
 24 79  1  0
 25 80  1  0
 26 81  1  0
 26 82  1  0
 27 83  1  0
 27 84  1  0
 28 85  1  0
 28 86  1  0
 33 87  1  0
 34 88  1  6
 35 89  1  0
 35 90  1  0
 36 91  1  1
 37 92  1  0
 38 93  1  0
 39 94  1  0
 44 95  1  0
 45 96  1  0
 46 97  1  0
 47 98  1  0
 51 99  1  0
 52100  1  0
 55101  1  0
 56102  1  0
 57103  1  0
 58104  1  0
 58105  1  0
 59106  1  0
 59107  1  0
 60108  1  0
 60109  1  0
M  CHG  3  31  -1  32   2  63  -1
M  END
> <Uni-Dock RESULT> 
ENERGY=   -5.505  LOWER_BOUND=    0.239  UPPER_BOUND=    0.239
INTER + INTRA:          -5.505
INTER:                  -5.505
INTRA:                   0.000
UNBOUND:                 0.000

$$$$

     RDKit          3D

109114  0  0  0  0  0  0  0  0999 V2000
   51.1611    9.4208   13.1130 O   0  0  0  0  0  0  0  0  0  0  0  0
   49.7691    9.2725   13.4418 C   0  0  2  0  0  0  0  0  0  0  0  0
   49.7003    8.8126   14.9040 C   0  0  0  0  0  0  0  0  0  0  0  0
   49.9556    9.9669   15.8865 C   0  0  2  0  0  0  0  0  0  0  0  0
   51.2569   10.5361   15.7153 O   0  0  0  0  0  0  0  0  0  0  0  0
   49.8557    9.5693   17.3370 C   0  0  0  0  0  0  0  0  0  0  0  0
   48.9532    8.7125   17.8449 C   0  0  0  0  0  0  0  0  0  0  0  0
   48.8692    8.3377   19.2690 C   0  0  0  0  0  0  0  0  0  0  0  0
   47.8283    8.8570   20.0635 C   0  0  0  0  0  0  0  0  0  0  0  0
   47.6809    8.4949   21.3672 N   0  0  0  0  0  0  0  0  0  0  0  0
   48.5268    7.6142   21.9157 C   0  0  0  0  0  0  0  0  0  0  0  0
   48.2984    7.2401   23.2345 C   0  0  0  0  0  0  0  0  0  0  0  0
   49.1032    6.3071   23.8906 C   0  0  0  0  0  0  0  0  0  0  0  0
   50.1797    5.7564   23.2164 C   0  0  0  0  0  0  0  0  0  0  0  0
   50.4457    6.1358   21.8996 C   0  0  0  0  0  0  0  0  0  0  0  0
   49.6103    7.0515   21.2161 C   0  0  0  0  0  0  0  0  0  0  0  0
   49.7787    7.4279   19.8508 C   0  0  0  0  0  0  0  0  0  0  0  0
   50.8679    6.8383   19.0357 C   0  0  0  0  0  0  0  0  0  0  0  0
   50.6467    5.7227   18.2159 C   0  0  0  0  0  0  0  0  0  0  0  0
   51.7016    5.1624   17.4877 C   0  0  0  0  0  0  0  0  0  0  0  0
   52.9668    5.7393   17.5571 C   0  0  0  0  0  0  0  0  0  0  0  0
   53.9818    5.1924   16.8752 F   0  0  0  0  0  0  0  0  0  0  0  0
   53.1965    6.8757   18.3234 C   0  0  0  0  0  0  0  0  0  0  0  0
   52.1537    7.4082   19.0773 C   0  0  0  0  0  0  0  0  0  0  0  0
   46.8047    9.8333   19.4955 C   0  0  0  0  0  0  0  0  0  0  0  0
   47.1620   11.3014   19.4120 C   0  0  0  0  0  0  0  0  0  0  0  0
   46.1216   10.8422   20.3852 C   0  0  0  0  0  0  0  0  0  0  0  0
   49.1022    8.2932   12.4855 C   0  0  0  0  0  0  0  0  0  0  0  0
   47.5723    8.2967   12.6382 C   0  0  0  0  0  0  0  0  0  0  0  0
   47.0749    9.2901   13.2402 O   0  0  0  0  0  0  0  0  0  0  0  0
   46.9795    7.2982   12.1321 O   0  0  0  0  0  0  0  0  0  0  0  0
   49.5229    8.2105   17.9909 Mg  0  0  0  0  0 15  0  0  0  0  0  0
   50.1041   12.0365   14.1127 O   0  0  0  0  0  0  0  0  0  0  0  0
   49.1905   10.9221   14.1264 C   0  0  2  0  0  0  0  0  0  0  0  0
   49.6343   10.0119   15.2769 C   0  0  0  0  0  0  0  0  0  0  0  0
   48.7111    8.8255   15.5550 C   0  0  2  0  0  0  0  0  0  0  0  0
   47.4170    9.2829   15.9221 O   0  0  0  0  0  0  0  0  0  0  0  0
   49.2752    7.9573   16.6450 C   0  0  0  0  0  0  0  0  0  0  0  0
   48.7817    7.8107   17.8841 C   0  0  0  0  0  0  0  0  0  0  0  0
   49.4593    6.9833   18.9011 C   0  0  0  0  0  0  0  0  0  0  0  0
   49.5542    5.5895   18.7604 C   0  0  0  0  0  0  0  0  0  0  0  0
   50.2480    4.8401   19.6640 N   0  0  0  0  0  0  0  0  0  0  0  0
   50.8307    5.4245   20.7200 C   0  0  0  0  0  0  0  0  0  0  0  0
   51.5270    4.6150   21.6050 C   0  0  0  0  0  0  0  0  0  0  0  0
   52.1878    5.1210   22.7241 C   0  0  0  0  0  0  0  0  0  0  0  0
   52.1414    6.4792   22.9811 C   0  0  0  0  0  0  0  0  0  0  0  0
   51.4303    7.3124   22.1216 C   0  0  0  0  0  0  0  0  0  0  0  0
   50.7671    6.8036   20.9715 C   0  0  0  0  0  0  0  0  0  0  0  0
   50.0475    7.5970   20.0357 C   0  0  0  0  0  0  0  0  0  0  0  0
   49.9046    9.0541   20.2384 C   0  0  0  0  0  0  0  0  0  0  0  0
   50.7814    9.9645   19.6287 C   0  0  0  0  0  0  0  0  0  0  0  0
   50.6191   11.3403   19.8134 C   0  0  0  0  0  0  0  0  0  0  0  0
   49.5829   11.8073   20.6094 C   0  0  0  0  0  0  0  0  0  0  0  0
   49.4362   13.1257   20.7923 F   0  0  0  0  0  0  0  0  0  0  0  0
   48.6986   10.9270   21.2189 C   0  0  0  0  0  0  0  0  0  0  0  0
   48.8511    9.5551   21.0245 C   0  0  0  0  0  0  0  0  0  0  0  0
   48.8800    4.8396   17.6107 C   0  0  0  0  0  0  0  0  0  0  0  0
   48.2764    3.4716   17.8508 C   0  0  0  0  0  0  0  0  0  0  0  0
   47.3739    4.6505   17.6269 C   0  0  0  0  0  0  0  0  0  0  0  0
   49.2430   10.2394   12.7679 C   0  0  0  0  0  0  0  0  0  0  0  0
   48.5020   11.1067   11.7574 C   0  0  0  0  0  0  0  0  0  0  0  0
   47.7389   10.4893   10.9630 O   0  0  0  0  0  0  0  0  0  0  0  0
   48.7274   12.3516   11.8642 O   0  0  0  0  0  0  0  0  0  0  0  0
   51.1823    9.5985   12.1592 H   0  0  0  0  0  0  0  0  0  0  0  0
   49.3262   10.2634   13.3368 H   0  0  0  0  0  0  0  0  0  0  0  0
   48.7332    8.3479   15.1151 H   0  0  0  0  0  0  0  0  0  0  0  0
   50.4749    8.0603   15.0767 H   0  0  0  0  0  0  0  0  0  0  0  0
   49.2380   10.7793   15.7161 H   0  0  0  0  0  0  0  0  0  0  0  0
   51.6194   10.1552   14.8735 H   0  0  0  0  0  0  0  0  0  0  0  0
   50.5655   10.0449   18.0154 H   0  0  0  0  0  0  0  0  0  0  0  0
   48.1868    8.2651   17.2246 H   0  0  0  0  0  0  0  0  0  0  0  0
   47.4457    7.6799   23.7487 H   0  0  0  0  0  0  0  0  0  0  0  0
   48.8656    5.9981   24.9042 H   0  0  0  0  0  0  0  0  0  0  0  0
   50.8114    5.0148   23.7041 H   0  0  0  0  0  0  0  0  0  0  0  0
   51.3052    5.6833   21.4054 H   0  0  0  0  0  0  0  0  0  0  0  0
   49.6544    5.2885   18.1277 H   0  0  0  0  0  0  0  0  0  0  0  0
   51.5497    4.2869   16.8632 H   0  0  0  0  0  0  0  0  0  0  0  0
   54.1797    7.3421   18.3246 H   0  0  0  0  0  0  0  0  0  0  0  0
   52.3333    8.2892   19.6807 H   0  0  0  0  0  0  0  0  0  0  0  0
   46.2010    9.4400   18.6788 H   0  0  0  0  0  0  0  0  0  0  0  0
   48.1234   11.6016   19.8054 H   0  0  0  0  0  0  0  0  0  0  0  0
   46.8459   11.8491   18.5302 H   0  0  0  0  0  0  0  0  0  0  0  0
   45.0843   11.0582   20.1656 H   0  0  0  0  0  0  0  0  0  0  0  0
   46.3657   10.8630   21.4357 H   0  0  0  0  0  0  0  0  0  0  0  0
   49.3366    8.5683   11.4440 H   0  0  0  0  0  0  0  0  0  0  0  0
   49.5042    7.2847   12.6451 H   0  0  0  0  0  0  0  0  0  0  0  0
   49.8092   12.5492   13.3152 H   0  0  0  0  0  0  0  0  0  0  0  0
   48.1963   11.3274   14.3371 H   0  0  0  0  0  0  0  0  0  0  0  0
   49.7152   10.6247   16.1873 H   0  0  0  0  0  0  0  0  0  0  0  0
   50.6538    9.6567   15.0771 H   0  0  0  0  0  0  0  0  0  0  0  0
   48.6145    8.1862   14.6718 H   0  0  0  0  0  0  0  0  0  0  0  0
   46.7790    8.8095   15.3483 H   0  0  0  0  0  0  0  0  0  0  0  0
   50.1847    7.4236   16.3764 H   0  0  0  0  0  0  0  0  0  0  0  0
   47.9100    8.3550   18.2070 H   0  0  0  0  0  0  0  0  0  0  0  0
   51.5651    3.5451   21.4179 H   0  0  0  0  0  0  0  0  0  0  0  0
   52.7279    4.4523   23.3896 H   0  0  0  0  0  0  0  0  0  0  0  0
   52.6313    6.8939   23.8517 H   0  0  0  0  0  0  0  0  0  0  0  0
   51.3968    8.3760   22.3501 H   0  0  0  0  0  0  0  0  0  0  0  0
   51.5745    9.6000   18.9795 H   0  0  0  0  0  0  0  0  0  0  0  0
   51.2882   12.0437   19.3214 H   0  0  0  0  0  0  0  0  0  0  0  0
   47.8831   11.3191   21.8216 H   0  0  0  0  0  0  0  0  0  0  0  0
   48.1270    8.8734   21.4709 H   0  0  0  0  0  0  0  0  0  0  0  0
   49.3551    4.9763   16.6392 H   0  0  0  0  0  0  0  0  0  0  0  0
   48.3238    3.0619   18.8543 H   0  0  0  0  0  0  0  0  0  0  0  0
   48.3253    2.7420   17.0434 H   0  0  0  0  0  0  0  0  0  0  0  0
   46.8405    4.6886   16.6852 H   0  0  0  0  0  0  0  0  0  0  0  0
   46.8161    5.0486   18.4735 H   0  0  0  0  0  0  0  0  0  0  0  0
   48.7897    9.2462   12.7825 H   0  0  0  0  0  0  0  0  0  0  0  0
   50.2768   10.1398   12.4292 H   0  0  0  0  0  0  0  0  0  0  0  0
  2  1  1  0
  2  3  1  0
  3  4  1  0
  4  5  1  0
  4  6  1  0
  6  7  2  0
  7  8  1  0
  8  9  2  0
  9 10  1  0
 10 11  2  0
 11 12  1  0
 12 13  2  0
 13 14  1  0
 14 15  2  0
 15 16  1  0
 11 16  1  0
 16 17  2  0
  8 17  1  0
 17 18  1  0
 18 19  2  0
 19 20  1  0
 20 21  2  0
 21 22  1  0
 21 23  1  0
 23 24  2  0
 18 24  1  0
  9 25  1  0
 25 26  1  0
 26 27  1  0
 25 27  1  0
  2 28  1  0
 28 29  1  0
 29 30  2  0
 29 31  1  0
 34 33  1  0
 34 35  1  0
 35 36  1  0
 36 37  1  0
 36 38  1  0
 38 39  2  0
 39 40  1  0
 40 41  2  0
 41 42  1  0
 42 43  2  0
 43 44  1  0
 44 45  2  0
 45 46  1  0
 46 47  2  0
 47 48  1  0
 43 48  1  0
 48 49  2  0
 40 49  1  0
 49 50  1  0
 50 51  2  0
 51 52  1  0
 52 53  2  0
 53 54  1  0
 53 55  1  0
 55 56  2  0
 50 56  1  0
 41 57  1  0
 57 58  1  0
 58 59  1  0
 57 59  1  0
 34 60  1  0
 60 61  1  0
 61 62  2  0
 61 63  1  0
  1 64  1  0
  2 65  1  6
  3 66  1  0
  3 67  1  0
  4 68  1  6
  5 69  1  0
  6 70  1  0
  7 71  1  0
 12 72  1  0
 13 73  1  0
 14 74  1  0
 15 75  1  0
 19 76  1  0
 20 77  1  0
 23 78  1  0
 24 79  1  0
 25 80  1  0
 26 81  1  0
 26 82  1  0
 27 83  1  0
 27 84  1  0
 28 85  1  0
 28 86  1  0
 33 87  1  0
 34 88  1  6
 35 89  1  0
 35 90  1  0
 36 91  1  1
 37 92  1  0
 38 93  1  0
 39 94  1  0
 44 95  1  0
 45 96  1  0
 46 97  1  0
 47 98  1  0
 51 99  1  0
 52100  1  0
 55101  1  0
 56102  1  0
 57103  1  0
 58104  1  0
 58105  1  0
 59106  1  0
 59107  1  0
 60108  1  0
 60109  1  0
M  CHG  3  31  -1  32   2  63  -1
M  END
> <Uni-Dock RESULT> 
ENERGY=   -4.976  LOWER_BOUND=    1.789  UPPER_BOUND=    5.094
INTER + INTRA:          -4.976
INTER:                  -4.976
INTRA:                   0.000
UNBOUND:                 0.000

$$$$

     RDKit          3D

109114  0  0  0  0  0  0  0  0999 V2000
   50.4031   12.3219    7.4652 O   0  0  0  0  0  0  0  0  0  0  0  0
   49.1992   12.8207    8.0731 C   0  0  2  0  0  0  0  0  0  0  0  0
   49.1673   12.2844    9.5104 C   0  0  0  0  0  0  0  0  0  0  0  0
   50.1229   13.0539   10.4367 C   0  0  2  0  0  0  0  0  0  0  0  0
   51.4837   12.9467   10.0083 O   0  0  0  0  0  0  0  0  0  0  0  0
   50.0930   12.5881   11.8699 C   0  0  0  0  0  0  0  0  0  0  0  0
   48.9894   12.2153   12.5404 C   0  0  0  0  0  0  0  0  0  0  0  0
   48.9798   11.7649   13.9449 C   0  0  0  0  0  0  0  0  0  0  0  0
   48.4844   12.6231   14.9460 C   0  0  0  0  0  0  0  0  0  0  0  0
   48.4061   12.2280   16.2461 N   0  0  0  0  0  0  0  0  0  0  0  0
   48.7897   10.9933   16.5933 C   0  0  0  0  0  0  0  0  0  0  0  0
   48.6390   10.6247   17.9247 C   0  0  0  0  0  0  0  0  0  0  0  0
   48.9805    9.3518   18.3849 C   0  0  0  0  0  0  0  0  0  0  0  0
   49.5116    8.4352   17.4936 C   0  0  0  0  0  0  0  0  0  0  0  0
   49.6973    8.7902   16.1564 C   0  0  0  0  0  0  0  0  0  0  0  0
   49.3165   10.0659   15.6754 C   0  0  0  0  0  0  0  0  0  0  0  0
   49.4091   10.4706   14.3110 C   0  0  0  0  0  0  0  0  0  0  0  0
   49.9076    9.5304   13.2786 C   0  0  0  0  0  0  0  0  0  0  0  0
   49.0284    8.7596   12.5050 C   0  0  0  0  0  0  0  0  0  0  0  0
   49.5270    7.8513   11.5652 C   0  0  0  0  0  0  0  0  0  0  0  0
   50.9024    7.7403   11.3797 C   0  0  0  0  0  0  0  0  0  0  0  0
   51.3816    6.8574   10.4937 F   0  0  0  0  0  0  0  0  0  0  0  0
   51.7898    8.5314   12.0996 C   0  0  0  0  0  0  0  0  0  0  0  0
   51.2924    9.4067   13.0616 C   0  0  0  0  0  0  0  0  0  0  0  0
   47.9927   14.0282   14.6180 C   0  0  0  0  0  0  0  0  0  0  0  0
   49.0052   15.1450   14.4854 C   0  0  0  0  0  0  0  0  0  0  0  0
   48.0599   15.1306   15.6458 C   0  0  0  0  0  0  0  0  0  0  0  0
   47.9830   12.3974    7.2607 C   0  0  0  0  0  0  0  0  0  0  0  0
   46.7056   13.1146    7.7273 C   0  0  0  0  0  0  0  0  0  0  0  0
   46.8739   14.1480    8.4350 O   0  0  0  0  0  0  0  0  0  0  0  0
   45.6211   12.5874    7.3395 O   0  0  0  0  0  0  0  0  0  0  0  0
   49.2540   11.4889   12.5571 Mg  0  0  0  0  0 15  0  0  0  0  0  0
   50.9605   14.9893    8.7033 O   0  0  0  0  0  0  0  0  0  0  0  0
   49.6351   14.4545    8.8887 C   0  0  2  0  0  0  0  0  0  0  0  0
   49.7653   13.3170    9.9077 C   0  0  0  0  0  0  0  0  0  0  0  0
   48.4422   12.6937   10.3525 C   0  0  2  0  0  0  0  0  0  0  0  0
   47.6263   13.6686   10.9871 O   0  0  0  0  0  0  0  0  0  0  0  0
   48.6852   11.5422   11.2880 C   0  0  0  0  0  0  0  0  0  0  0  0
   48.4064   11.5077   12.6001 C   0  0  0  0  0  0  0  0  0  0  0  0
   48.7536   10.3459   13.4413 C   0  0  0  0  0  0  0  0  0  0  0  0
   48.1248    9.1034   13.2621 C   0  0  0  0  0  0  0  0  0  0  0  0
   48.5046    8.0148   13.9903 N   0  0  0  0  0  0  0  0  0  0  0  0
   49.4719    8.1230   14.9116 C   0  0  0  0  0  0  0  0  0  0  0  0
   49.8212    6.9831   15.6201 C   0  0  0  0  0  0  0  0  0  0  0  0
   50.8276    6.9783   16.5856 C   0  0  0  0  0  0  0  0  0  0  0  0
   51.5004    8.1533   16.8679 C   0  0  0  0  0  0  0  0  0  0  0  0
   51.1546    9.3180   16.1878 C   0  0  0  0  0  0  0  0  0  0  0  0
   50.1395    9.3250   15.1924 C   0  0  0  0  0  0  0  0  0  0  0  0
   49.7537   10.4679   14.4388 C   0  0  0  0  0  0  0  0  0  0  0  0
   50.3834   11.7814   14.6896 C   0  0  0  0  0  0  0  0  0  0  0  0
   51.4739   12.2249   13.9257 C   0  0  0  0  0  0  0  0  0  0  0  0
   52.0439   13.4789   14.1616 C   0  0  0  0  0  0  0  0  0  0  0  0
   51.5271   14.2893   15.1625 C   0  0  0  0  0  0  0  0  0  0  0  0
   52.0819   15.4862   15.3925 F   0  0  0  0  0  0  0  0  0  0  0  0
   50.4450   13.8756   15.9282 C   0  0  0  0  0  0  0  0  0  0  0  0
   49.8668   12.6307   15.6848 C   0  0  0  0  0  0  0  0  0  0  0  0
   46.9818    8.9057   12.2656 C   0  0  0  0  0  0  0  0  0  0  0  0
   45.8354    7.9758   12.6041 C   0  0  0  0  0  0  0  0  0  0  0  0
   45.6063    9.4596   12.5908 C   0  0  0  0  0  0  0  0  0  0  0  0
   49.1092   13.9919    7.5383 C   0  0  0  0  0  0  0  0  0  0  0  0
   48.7286   15.2179    6.7172 C   0  0  0  0  0  0  0  0  0  0  0  0
   47.6362   15.1371    6.0887 O   0  0  0  0  0  0  0  0  0  0  0  0
   49.5516   16.1815    6.7944 O   0  0  0  0  0  0  0  0  0  0  0  0
   50.3435   12.5765    6.5306 H   0  0  0  0  0  0  0  0  0  0  0  0
   49.2904   13.9073    8.0779 H   0  0  0  0  0  0  0  0  0  0  0  0
   48.1501   12.3181    9.9101 H   0  0  0  0  0  0  0  0  0  0  0  0
   49.4882   11.2391    9.5068 H   0  0  0  0  0  0  0  0  0  0  0  0
   49.8805   14.1240   10.4315 H   0  0  0  0  0  0  0  0  0  0  0  0
   51.4600   12.5388    9.1037 H   0  0  0  0  0  0  0  0  0  0  0  0
   51.0500   12.5844   12.3937 H   0  0  0  0  0  0  0  0  0  0  0  0
   48.0080   12.2640   12.0855 H   0  0  0  0  0  0  0  0  0  0  0  0
   48.2167   11.3561   18.6115 H   0  0  0  0  0  0  0  0  0  0  0  0
   48.8011    9.0794   19.4208 H   0  0  0  0  0  0  0  0  0  0  0  0
   49.7703    7.4312   17.8280 H   0  0  0  0  0  0  0  0  0  0  0  0
   50.1227    8.0423   15.4876 H   0  0  0  0  0  0  0  0  0  0  0  0
   47.9528    8.8664   12.6177 H   0  0  0  0  0  0  0  0  0  0  0  0
   48.8588    7.2338   10.9721 H   0  0  0  0  0  0  0  0  0  0  0  0
   52.8585    8.4669   11.9041 H   0  0  0  0  0  0  0  0  0  0  0  0
   51.9832   10.0181   13.6284 H   0  0  0  0  0  0  0  0  0  0  0  0
   47.1429   14.0688   13.9382 H   0  0  0  0  0  0  0  0  0  0  0  0
   50.0413   14.9011   14.6754 H   0  0  0  0  0  0  0  0  0  0  0  0
   48.8523   15.8748   13.6970 H   0  0  0  0  0  0  0  0  0  0  0  0
   47.2430   15.8401   15.6495 H   0  0  0  0  0  0  0  0  0  0  0  0
   48.4603   14.9107   16.6230 H   0  0  0  0  0  0  0  0  0  0  0  0
   48.1381   12.6450    6.1977 H   0  0  0  0  0  0  0  0  0  0  0  0
   47.8577   11.3088    7.3176 H   0  0  0  0  0  0  0  0  0  0  0  0
   50.8229   15.6687    7.9925 H   0  0  0  0  0  0  0  0  0  0  0  0
   49.0226   15.2586    9.3073 H   0  0  0  0  0  0  0  0  0  0  0  0
   50.2933   13.7067   10.7910 H   0  0  0  0  0  0  0  0  0  0  0  0
   50.4261   12.5433    9.4953 H   0  0  0  0  0  0  0  0  0  0  0  0
   47.8925   12.2852    9.4986 H   0  0  0  0  0  0  0  0  0  0  0  0
   46.7498   13.6278   10.5507 H   0  0  0  0  0  0  0  0  0  0  0  0
   49.1523   10.6736   10.8283 H   0  0  0  0  0  0  0  0  0  0  0  0
   47.9860   12.3612   13.1053 H   0  0  0  0  0  0  0  0  0  0  0  0
   49.2951    6.0550   15.4124 H   0  0  0  0  0  0  0  0  0  0  0  0
   51.0748    6.0611   17.1140 H   0  0  0  0  0  0  0  0  0  0  0  0
   52.2730    8.1795   17.6244 H   0  0  0  0  0  0  0  0  0  0  0  0
   51.6887   10.2336   16.4350 H   0  0  0  0  0  0  0  0  0  0  0  0
   51.8590   11.6032   13.1205 H   0  0  0  0  0  0  0  0  0  0  0  0
   52.8757   13.8281   13.5526 H   0  0  0  0  0  0  0  0  0  0  0  0
   50.0462   14.5374   16.6930 H   0  0  0  0  0  0  0  0  0  0  0  0
   48.9908   12.3321   16.2609 H   0  0  0  0  0  0  0  0  0  0  0  0
   47.2863    8.9095   11.2189 H   0  0  0  0  0  0  0  0  0  0  0  0
   45.8481    7.4806   13.5694 H   0  0  0  0  0  0  0  0  0  0  0  0
   45.3786    7.4103   11.7928 H   0  0  0  0  0  0  0  0  0  0  0  0
   45.0070    9.8565   11.7810 H   0  0  0  0  0  0  0  0  0  0  0  0
   45.4726    9.9752   13.5408 H   0  0  0  0  0  0  0  0  0  0  0  0
   48.2364   13.3423    7.6310 H   0  0  0  0  0  0  0  0  0  0  0  0
   49.8837   13.4497    6.9910 H   0  0  0  0  0  0  0  0  0  0  0  0
  2  1  1  0
  2  3  1  0
  3  4  1  0
  4  5  1  0
  4  6  1  0
  6  7  2  0
  7  8  1  0
  8  9  2  0
  9 10  1  0
 10 11  2  0
 11 12  1  0
 12 13  2  0
 13 14  1  0
 14 15  2  0
 15 16  1  0
 11 16  1  0
 16 17  2  0
  8 17  1  0
 17 18  1  0
 18 19  2  0
 19 20  1  0
 20 21  2  0
 21 22  1  0
 21 23  1  0
 23 24  2  0
 18 24  1  0
  9 25  1  0
 25 26  1  0
 26 27  1  0
 25 27  1  0
  2 28  1  0
 28 29  1  0
 29 30  2  0
 29 31  1  0
 34 33  1  0
 34 35  1  0
 35 36  1  0
 36 37  1  0
 36 38  1  0
 38 39  2  0
 39 40  1  0
 40 41  2  0
 41 42  1  0
 42 43  2  0
 43 44  1  0
 44 45  2  0
 45 46  1  0
 46 47  2  0
 47 48  1  0
 43 48  1  0
 48 49  2  0
 40 49  1  0
 49 50  1  0
 50 51  2  0
 51 52  1  0
 52 53  2  0
 53 54  1  0
 53 55  1  0
 55 56  2  0
 50 56  1  0
 41 57  1  0
 57 58  1  0
 58 59  1  0
 57 59  1  0
 34 60  1  0
 60 61  1  0
 61 62  2  0
 61 63  1  0
  1 64  1  0
  2 65  1  6
  3 66  1  0
  3 67  1  0
  4 68  1  6
  5 69  1  0
  6 70  1  0
  7 71  1  0
 12 72  1  0
 13 73  1  0
 14 74  1  0
 15 75  1  0
 19 76  1  0
 20 77  1  0
 23 78  1  0
 24 79  1  0
 25 80  1  0
 26 81  1  0
 26 82  1  0
 27 83  1  0
 27 84  1  0
 28 85  1  0
 28 86  1  0
 33 87  1  0
 34 88  1  6
 35 89  1  0
 35 90  1  0
 36 91  1  1
 37 92  1  0
 38 93  1  0
 39 94  1  0
 44 95  1  0
 45 96  1  0
 46 97  1  0
 47 98  1  0
 51 99  1  0
 52100  1  0
 55101  1  0
 56102  1  0
 57103  1  0
 58104  1  0
 58105  1  0
 59106  1  0
 59107  1  0
 60108  1  0
 60109  1  0
M  CHG  3  31  -1  32   2  63  -1
M  END
> <Uni-Dock RESULT> 
ENERGY=   -4.686  LOWER_BOUND=    4.523  UPPER_BOUND=    8.500
INTER + INTRA:          -4.686
INTER:                  -4.686
INTRA:                   0.000
UNBOUND:                 0.000

$$$$

     RDKit          3D

109114  0  0  0  0  0  0  0  0999 V2000
   54.1221   10.0884   23.0527 O   0  0  0  0  0  0  0  0  0  0  0  0
   54.4918   10.4123   21.7014 C   0  0  2  0  0  0  0  0  0  0  0  0
   53.5596    9.6164   20.7785 C   0  0  0  0  0  0  0  0  0  0  0  0
   52.1571   10.2401   20.6948 C   0  0  2  0  0  0  0  0  0  0  0  0
   51.5106   10.2739   21.9706 O   0  0  0  0  0  0  0  0  0  0  0  0
   51.2191    9.5142   19.7647 C   0  0  0  0  0  0  0  0  0  0  0  0
   51.5635    8.9753   18.5825 C   0  0  0  0  0  0  0  0  0  0  0  0
   50.6299    8.2707   17.6840 C   0  0  0  0  0  0  0  0  0  0  0  0
   50.1876    8.9047   16.5064 C   0  0  0  0  0  0  0  0  0  0  0  0
   49.3700    8.2709   15.6221 N   0  0  0  0  0  0  0  0  0  0  0  0
   48.9823    7.0109   15.8552 C   0  0  0  0  0  0  0  0  0  0  0  0
   48.1910    6.3941   14.8937 C   0  0  0  0  0  0  0  0  0  0  0  0
   47.7576    5.0737   15.0257 C   0  0  0  0  0  0  0  0  0  0  0  0
   48.1036    4.3635   16.1626 C   0  0  0  0  0  0  0  0  0  0  0  0
   48.8758    4.9696   17.1551 C   0  0  0  0  0  0  0  0  0  0  0  0
   49.3511    6.2949   17.0091 C   0  0  0  0  0  0  0  0  0  0  0  0
   50.2029    6.9507   17.9463 C   0  0  0  0  0  0  0  0  0  0  0  0
   50.6734    6.2422   19.1608 C   0  0  0  0  0  0  0  0  0  0  0  0
   51.9150    5.5920   19.1939 C   0  0  0  0  0  0  0  0  0  0  0  0
   52.3170    4.8975   20.3398 C   0  0  0  0  0  0  0  0  0  0  0  0
   51.4900    4.8828   21.4597 C   0  0  0  0  0  0  0  0  0  0  0  0
   51.8654    4.2024   22.5507 F   0  0  0  0  0  0  0  0  0  0  0  0
   50.2783    5.5633   21.4660 C   0  0  0  0  0  0  0  0  0  0  0  0
   49.8632    6.2214   20.3110 C   0  0  0  0  0  0  0  0  0  0  0  0
   50.6203   10.3237   16.1559 C   0  0  0  0  0  0  0  0  0  0  0  0
   49.8859   11.4884   16.7836 C   0  0  0  0  0  0  0  0  0  0  0  0
   49.7380   11.2167   15.3191 C   0  0  0  0  0  0  0  0  0  0  0  0
   55.9624   10.0958   21.4661 C   0  0  0  0  0  0  0  0  0  0  0  0
   56.4608   10.6572   20.1244 C   0  0  0  0  0  0  0  0  0  0  0  0
   55.7394   11.5467   19.5903 O   0  0  0  0  0  0  0  0  0  0  0  0
   57.5511   10.1651   19.7077 O   0  0  0  0  0  0  0  0  0  0  0  0
   51.4399    8.2708   18.8761 Mg  0  0  0  0  0 15  0  0  0  0  0  0
   52.5864   12.4995   22.1655 O   0  0  0  0  0  0  0  0  0  0  0  0
   53.4445   11.8826   21.1856 C   0  0  2  0  0  0  0  0  0  0  0  0
   52.7535   10.5816   20.7621 C   0  0  0  0  0  0  0  0  0  0  0  0
   53.4368    9.8295   19.6200 C   0  0  2  0  0  0  0  0  0  0  0  0
   53.4658   10.6325   18.4482 O   0  0  0  0  0  0  0  0  0  0  0  0
   52.7265    8.5353   19.3361 C   0  0  0  0  0  0  0  0  0  0  0  0
   52.0047    8.2444   18.2429 C   0  0  0  0  0  0  0  0  0  0  0  0
   51.2883    6.9622   18.0993 C   0  0  0  0  0  0  0  0  0  0  0  0
   51.9843    5.7489   17.9780 C   0  0  0  0  0  0  0  0  0  0  0  0
   51.3168    4.5610   17.9233 N   0  0  0  0  0  0  0  0  0  0  0  0
   49.9773    4.5372   17.9584 C   0  0  0  0  0  0  0  0  0  0  0  0
   49.3504    3.3014   17.9038 C   0  0  0  0  0  0  0  0  0  0  0  0
   47.9639    3.1601   17.9545 C   0  0  0  0  0  0  0  0  0  0  0  0
   47.1713    4.2898   18.0471 C   0  0  0  0  0  0  0  0  0  0  0  0
   47.7732    5.5449   18.0806 C   0  0  0  0  0  0  0  0  0  0  0  0
   49.1867    5.6935   18.0439 C   0  0  0  0  0  0  0  0  0  0  0  0
   49.8707    6.9391   18.1032 C   0  0  0  0  0  0  0  0  0  0  0  0
   49.1165    8.2088   18.1644 C   0  0  0  0  0  0  0  0  0  0  0  0
   48.8396    8.8340   19.3899 C   0  0  0  0  0  0  0  0  0  0  0  0
   48.1439   10.0454   19.4288 C   0  0  0  0  0  0  0  0  0  0  0  0
   47.7217   10.6316   18.2440 C   0  0  0  0  0  0  0  0  0  0  0  0
   47.0468   11.7874   18.2853 F   0  0  0  0  0  0  0  0  0  0  0  0
   47.9885   10.0357   17.0183 C   0  0  0  0  0  0  0  0  0  0  0  0
   48.6942    8.8342   16.9773 C   0  0  0  0  0  0  0  0  0  0  0  0
   53.5096    5.6913   17.8845 C   0  0  0  0  0  0  0  0  0  0  0  0
   54.1745    4.6657   16.9903 C   0  0  0  0  0  0  0  0  0  0  0  0
   54.1932    6.1146   16.5969 C   0  0  0  0  0  0  0  0  0  0  0  0
   54.8109   11.6577   21.8153 C   0  0  0  0  0  0  0  0  0  0  0  0
   55.5302   12.9978   21.9111 C   0  0  0  0  0  0  0  0  0  0  0  0
   56.7493   12.9885   21.5818 O   0  0  0  0  0  0  0  0  0  0  0  0
   54.7975   13.9648   22.2851 O   0  0  0  0  0  0  0  0  0  0  0  0
   54.7944   10.5102   23.6111 H   0  0  0  0  0  0  0  0  0  0  0  0
   54.3129   11.4819   21.5868 H   0  0  0  0  0  0  0  0  0  0  0  0
   53.9918    9.5308   19.7777 H   0  0  0  0  0  0  0  0  0  0  0  0
   53.4432    8.6050   21.1775 H   0  0  0  0  0  0  0  0  0  0  0  0
   52.2218   11.2809   20.3533 H   0  0  0  0  0  0  0  0  0  0  0  0
   52.2045   10.0414   22.6411 H   0  0  0  0  0  0  0  0  0  0  0  0
   50.1774    9.4543   20.0836 H   0  0  0  0  0  0  0  0  0  0  0  0
   52.5692    9.0655   18.1917 H   0  0  0  0  0  0  0  0  0  0  0  0
   47.9311    6.9655   14.0044 H   0  0  0  0  0  0  0  0  0  0  0  0
   47.1842    4.6053   14.2312 H   0  0  0  0  0  0  0  0  0  0  0  0
   47.7894    3.3269   16.2788 H   0  0  0  0  0  0  0  0  0  0  0  0
   49.1226    4.3787   18.0370 H   0  0  0  0  0  0  0  0  0  0  0  0
   52.5824    5.6291   18.3371 H   0  0  0  0  0  0  0  0  0  0  0  0
   53.2676    4.3731   20.3736 H   0  0  0  0  0  0  0  0  0  0  0  0
   49.6695    5.5829   22.3679 H   0  0  0  0  0  0  0  0  0  0  0  0
   48.9158    6.7456   20.3123 H   0  0  0  0  0  0  0  0  0  0  0  0
   51.6922   10.4535   16.0140 H   0  0  0  0  0  0  0  0  0  0  0  0
   49.0476   11.2585   17.4267 H   0  0  0  0  0  0  0  0  0  0  0  0
   50.4726   12.3452   17.0985 H   0  0  0  0  0  0  0  0  0  0  0  0
   50.2381   11.8770   14.6229 H   0  0  0  0  0  0  0  0  0  0  0  0
   48.7921   10.8359   14.9672 H   0  0  0  0  0  0  0  0  0  0  0  0
   56.5746   10.5439   22.2660 H   0  0  0  0  0  0  0  0  0  0  0  0
   56.1223    9.0113   21.5145 H   0  0  0  0  0  0  0  0  0  0  0  0
   53.1130   13.2930   22.4462 H   0  0  0  0  0  0  0  0  0  0  0  0
   53.4994   12.5671   20.3339 H   0  0  0  0  0  0  0  0  0  0  0  0
   51.7212   10.8222   20.4664 H   0  0  0  0  0  0  0  0  0  0  0  0
   52.6571    9.9278   21.6388 H   0  0  0  0  0  0  0  0  0  0  0  0
   54.4656    9.5641   19.8831 H   0  0  0  0  0  0  0  0  0  0  0  0
   54.3938   10.6359   18.1334 H   0  0  0  0  0  0  0  0  0  0  0  0
   52.8094    7.7888   20.1234 H   0  0  0  0  0  0  0  0  0  0  0  0
   51.8585    8.9696   17.4600 H   0  0  0  0  0  0  0  0  0  0  0  0
   49.9619    2.4064   17.8240 H   0  0  0  0  0  0  0  0  0  0  0  0
   47.5126    2.1720   17.9152 H   0  0  0  0  0  0  0  0  0  0  0  0
   46.0930    4.2078   18.0708 H   0  0  0  0  0  0  0  0  0  0  0  0
   47.1297    6.4205   18.1411 H   0  0  0  0  0  0  0  0  0  0  0  0
   49.1977    8.3907   20.3165 H   0  0  0  0  0  0  0  0  0  0  0  0
   47.9501   10.5378   20.3799 H   0  0  0  0  0  0  0  0  0  0  0  0
   47.6643   10.5253   16.1033 H   0  0  0  0  0  0  0  0  0  0  0  0
   48.9370    8.3957   16.0093 H   0  0  0  0  0  0  0  0  0  0  0  0
   54.0300    5.9036   18.8186 H   0  0  0  0  0  0  0  0  0  0  0  0
   53.5383    4.0001   16.4165 H   0  0  0  0  0  0  0  0  0  0  0  0
   55.1241    4.2424   17.3154 H   0  0  0  0  0  0  0  0  0  0  0  0
   55.1436    6.6293   16.6642 H   0  0  0  0  0  0  0  0  0  0  0  0
   53.5672    6.4376   15.7661 H   0  0  0  0  0  0  0  0  0  0  0  0
   55.4270   10.9651   21.2383 H   0  0  0  0  0  0  0  0  0  0  0  0
   54.7054   11.2613   22.8278 H   0  0  0  0  0  0  0  0  0  0  0  0
  2  1  1  0
  2  3  1  0
  3  4  1  0
  4  5  1  0
  4  6  1  0
  6  7  2  0
  7  8  1  0
  8  9  2  0
  9 10  1  0
 10 11  2  0
 11 12  1  0
 12 13  2  0
 13 14  1  0
 14 15  2  0
 15 16  1  0
 11 16  1  0
 16 17  2  0
  8 17  1  0
 17 18  1  0
 18 19  2  0
 19 20  1  0
 20 21  2  0
 21 22  1  0
 21 23  1  0
 23 24  2  0
 18 24  1  0
  9 25  1  0
 25 26  1  0
 26 27  1  0
 25 27  1  0
  2 28  1  0
 28 29  1  0
 29 30  2  0
 29 31  1  0
 34 33  1  0
 34 35  1  0
 35 36  1  0
 36 37  1  0
 36 38  1  0
 38 39  2  0
 39 40  1  0
 40 41  2  0
 41 42  1  0
 42 43  2  0
 43 44  1  0
 44 45  2  0
 45 46  1  0
 46 47  2  0
 47 48  1  0
 43 48  1  0
 48 49  2  0
 40 49  1  0
 49 50  1  0
 50 51  2  0
 51 52  1  0
 52 53  2  0
 53 54  1  0
 53 55  1  0
 55 56  2  0
 50 56  1  0
 41 57  1  0
 57 58  1  0
 58 59  1  0
 57 59  1  0
 34 60  1  0
 60 61  1  0
 61 62  2  0
 61 63  1  0
  1 64  1  0
  2 65  1  6
  3 66  1  0
  3 67  1  0
  4 68  1  6
  5 69  1  0
  6 70  1  0
  7 71  1  0
 12 72  1  0
 13 73  1  0
 14 74  1  0
 15 75  1  0
 19 76  1  0
 20 77  1  0
 23 78  1  0
 24 79  1  0
 25 80  1  0
 26 81  1  0
 26 82  1  0
 27 83  1  0
 27 84  1  0
 28 85  1  0
 28 86  1  0
 33 87  1  0
 34 88  1  6
 35 89  1  0
 35 90  1  0
 36 91  1  1
 37 92  1  0
 38 93  1  0
 39 94  1  0
 44 95  1  0
 45 96  1  0
 46 97  1  0
 47 98  1  0
 51 99  1  0
 52100  1  0
 55101  1  0
 56102  1  0
 57103  1  0
 58104  1  0
 58105  1  0
 59106  1  0
 59107  1  0
 60108  1  0
 60109  1  0
M  CHG  3  31  -1  32   2  63  -1
M  END
> <Uni-Dock RESULT> 
ENERGY=   -4.475  LOWER_BOUND=    3.388  UPPER_BOUND=    7.027
INTER + INTRA:          -4.475
INTER:                  -4.475
INTRA:                   0.000
UNBOUND:                 0.000

$$$$

     RDKit          3D

109114  0  0  0  0  0  0  0  0999 V2000
   46.9645    5.8515   20.1482 O   0  0  0  0  0  0  0  0  0  0  0  0
   48.2481    6.2353   20.6703 C   0  0  2  0  0  0  0  0  0  0  0  0
   48.8615    7.2240   19.6700 C   0  0  0  0  0  0  0  0  0  0  0  0
   48.2379    8.6245   19.7839 C   0  0  2  0  0  0  0  0  0  0  0  0
   46.8342    8.6081   19.5083 O   0  0  0  0  0  0  0  0  0  0  0  0
   48.8405    9.6406   18.8478 C   0  0  0  0  0  0  0  0  0  0  0  0
   50.1458    9.7325   18.5405 C   0  0  0  0  0  0  0  0  0  0  0  0
   50.7176   10.7365   17.6237 C   0  0  0  0  0  0  0  0  0  0  0  0
   51.4532   11.8171   18.1487 C   0  0  0  0  0  0  0  0  0  0  0  0
   52.0442   12.7357   17.3368 N   0  0  0  0  0  0  0  0  0  0  0  0
   51.9465   12.6134   16.0073 C   0  0  0  0  0  0  0  0  0  0  0  0
   52.6133   13.5491   15.2256 C   0  0  0  0  0  0  0  0  0  0  0  0
   52.6000   13.4946   13.8307 C   0  0  0  0  0  0  0  0  0  0  0  0
   51.8778   12.4932   13.2044 C   0  0  0  0  0  0  0  0  0  0  0  0
   51.1780   11.5569   13.9673 C   0  0  0  0  0  0  0  0  0  0  0  0
   51.2197   11.5834   15.3820 C   0  0  0  0  0  0  0  0  0  0  0  0
   50.5907   10.6181   16.2225 C   0  0  0  0  0  0  0  0  0  0  0  0
   49.8494    9.4764   15.6348 C   0  0  0  0  0  0  0  0  0  0  0  0
   50.4587    8.2281   15.4448 C   0  0  0  0  0  0  0  0  0  0  0  0
   49.7479    7.1794   14.8516 C   0  0  0  0  0  0  0  0  0  0  0  0
   48.4202    7.3732   14.4799 C   0  0  0  0  0  0  0  0  0  0  0  0
   47.7445    6.3757   13.8946 F   0  0  0  0  0  0  0  0  0  0  0  0
   47.7815    8.5866   14.7058 C   0  0  0  0  0  0  0  0  0  0  0  0
   48.5029    9.6406   15.2609 C   0  0  0  0  0  0  0  0  0  0  0  0
   51.6399   11.9977   19.6507 C   0  0  0  0  0  0  0  0  0  0  0  0
   50.5385   12.6589   20.4505 C   0  0  0  0  0  0  0  0  0  0  0  0
   51.8398   13.3697   20.2457 C   0  0  0  0  0  0  0  0  0  0  0  0
   49.1182    5.0052   20.8895 C   0  0  0  0  0  0  0  0  0  0  0  0
   50.3950    5.3408   21.6775 C   0  0  0  0  0  0  0  0  0  0  0  0
   50.3912    6.4388   22.3030 O   0  0  0  0  0  0  0  0  0  0  0  0
   51.3102    4.4672   21.6152 O   0  0  0  0  0  0  0  0  0  0  0  0
   49.9835    9.5115   17.8175 Mg  0  0  0  0  0 15  0  0  0  0  0  0
   46.6246    8.2185   21.9482 O   0  0  0  0  0  0  0  0  0  0  0  0
   47.9736    7.7615   21.7285 C   0  0  2  0  0  0  0  0  0  0  0  0
   48.3466    8.1815   20.3024 C   0  0  0  0  0  0  0  0  0  0  0  0
   49.7981    7.9089   19.9075 C   0  0  2  0  0  0  0  0  0  0  0  0
   50.6831    8.6330   20.7508 O   0  0  0  0  0  0  0  0  0  0  0  0
   50.0376    8.2842   18.4716 C   0  0  0  0  0  0  0  0  0  0  0  0
   50.7807    9.3098   18.0283 C   0  0  0  0  0  0  0  0  0  0  0  0
   50.8904    9.6304   16.5919 C   0  0  0  0  0  0  0  0  0  0  0  0
   51.5359    8.7602   15.6989 C   0  0  0  0  0  0  0  0  0  0  0  0
   51.5662    9.0251   14.3615 N   0  0  0  0  0  0  0  0  0  0  0  0
   50.9991   10.1404   13.8813 C   0  0  0  0  0  0  0  0  0  0  0  0
   51.0558   10.3576   12.5128 C   0  0  0  0  0  0  0  0  0  0  0  0
   50.4807   11.4736   11.9054 C   0  0  0  0  0  0  0  0  0  0  0  0
   49.8396   12.4157   12.6891 C   0  0  0  0  0  0  0  0  0  0  0  0
   49.7874   12.2345   14.0686 C   0  0  0  0  0  0  0  0  0  0  0  0
   50.3593   11.0914   14.6912 C   0  0  0  0  0  0  0  0  0  0  0  0
   50.3195   10.8263   16.0880 C   0  0  0  0  0  0  0  0  0  0  0  0
   49.6920   11.7884   17.0182 C   0  0  0  0  0  0  0  0  0  0  0  0
   48.3572   11.6434   17.4264 C   0  0  0  0  0  0  0  0  0  0  0  0
   47.7857   12.5499   18.3234 C   0  0  0  0  0  0  0  0  0  0  0  0
   48.5460   13.6035   18.8109 C   0  0  0  0  0  0  0  0  0  0  0  0
   47.9923   14.4759   19.6626 F   0  0  0  0  0  0  0  0  0  0  0  0
   49.8706   13.7653   18.4266 C   0  0  0  0  0  0  0  0  0  0  0  0
   50.4460   12.8540   17.5425 C   0  0  0  0  0  0  0  0  0  0  0  0
   52.2470    7.4910   16.1699 C   0  0  0  0  0  0  0  0  0  0  0  0
   53.5282    7.0471   15.4953 C   0  0  0  0  0  0  0  0  0  0  0  0
   53.5797    7.6069   16.8876 C   0  0  0  0  0  0  0  0  0  0  0  0
   48.0123    6.2554   21.9391 C   0  0  0  0  0  0  0  0  0  0  0  0
   47.9342    5.9699   23.4339 C   0  0  0  0  0  0  0  0  0  0  0  0
   48.7214    5.0802   23.8622 O   0  0  0  0  0  0  0  0  0  0  0  0
   47.1010    6.6896   24.0662 O   0  0  0  0  0  0  0  0  0  0  0  0
   46.6497    5.1448   20.7341 H   0  0  0  0  0  0  0  0  0  0  0  0
   48.0518    6.7330   21.6204 H   0  0  0  0  0  0  0  0  0  0  0  0
   49.9450    7.2843   19.8052 H   0  0  0  0  0  0  0  0  0  0  0  0
   48.6731    6.8650   18.6544 H   0  0  0  0  0  0  0  0  0  0  0  0
   48.3479    9.0096   20.8054 H   0  0  0  0  0  0  0  0  0  0  0  0
   46.5666    7.6527   19.4802 H   0  0  0  0  0  0  0  0  0  0  0  0
   48.1488   10.3652   18.4156 H   0  0  0  0  0  0  0  0  0  0  0  0
   50.8807    9.0792   18.9938 H   0  0  0  0  0  0  0  0  0  0  0  0
   53.1792   14.3276   15.7341 H   0  0  0  0  0  0  0  0  0  0  0  0
   53.1746   14.2108   13.2509 H   0  0  0  0  0  0  0  0  0  0  0  0
   51.8666   12.4227   12.1173 H   0  0  0  0  0  0  0  0  0  0  0  0
   50.6176   10.7874   13.4367 H   0  0  0  0  0  0  0  0  0  0  0  0
   51.4830    8.0575   15.7652 H   0  0  0  0  0  0  0  0  0  0  0  0
   50.2124    6.2126   14.6807 H   0  0  0  0  0  0  0  0  0  0  0  0
   46.7288    8.7027   14.4553 H   0  0  0  0  0  0  0  0  0  0  0  0
   48.0085   10.5888   15.4304 H   0  0  0  0  0  0  0  0  0  0  0  0
   52.1716   11.1869   20.1467 H   0  0  0  0  0  0  0  0  0  0  0  0
   49.6762   13.0179   19.9057 H   0  0  0  0  0  0  0  0  0  0  0  0
   50.3140   12.2543   21.4319 H   0  0  0  0  0  0  0  0  0  0  0  0
   52.5218   13.4402   21.0827 H   0  0  0  0  0  0  0  0  0  0  0  0
   51.8516   14.2269   19.5910 H   0  0  0  0  0  0  0  0  0  0  0  0
   48.5586    4.2481   21.4632 H   0  0  0  0  0  0  0  0  0  0  0  0
   49.3690    4.5494   19.9234 H   0  0  0  0  0  0  0  0  0  0  0  0
   46.4196    7.8630   22.8523 H   0  0  0  0  0  0  0  0  0  0  0  0
   48.6092    8.2869   22.4475 H   0  0  0  0  0  0  0  0  0  0  0  0
   48.1422    9.2576   20.1972 H   0  0  0  0  0  0  0  0  0  0  0  0
   47.6655    7.6885   19.5963 H   0  0  0  0  0  0  0  0  0  0  0  0
   50.0353    6.8435   19.9904 H   0  0  0  0  0  0  0  0  0  0  0  0
   51.3372    7.9875   21.0911 H   0  0  0  0  0  0  0  0  0  0  0  0
   49.5280    7.6537   17.7456 H   0  0  0  0  0  0  0  0  0  0  0  0
   51.2653    9.9862   18.7123 H   0  0  0  0  0  0  0  0  0  0  0  0
   51.5630    9.6282   11.8868 H   0  0  0  0  0  0  0  0  0  0  0  0
   50.5424   11.6029   10.8279 H   0  0  0  0  0  0  0  0  0  0  0  0
   49.4004   13.2983   12.2440 H   0  0  0  0  0  0  0  0  0  0  0  0
   49.2887   12.9947   14.6670 H   0  0  0  0  0  0  0  0  0  0  0  0
   47.7707   10.7999   17.0689 H   0  0  0  0  0  0  0  0  0  0  0  0
   46.7567   12.4214   18.6542 H   0  0  0  0  0  0  0  0  0  0  0  0
   50.4507   14.5875   18.8383 H   0  0  0  0  0  0  0  0  0  0  0  0
   51.4984   12.9633   17.2801 H   0  0  0  0  0  0  0  0  0  0  0  0
   51.5809    6.6865   16.4820 H   0  0  0  0  0  0  0  0  0  0  0  0
   53.9228    7.6630   14.6940 H   0  0  0  0  0  0  0  0  0  0  0  0
   53.7118    5.9777   15.3989 H   0  0  0  0  0  0  0  0  0  0  0  0
   53.7947    6.9110   17.6889 H   0  0  0  0  0  0  0  0  0  0  0  0
   53.9981    8.6017   17.0346 H   0  0  0  0  0  0  0  0  0  0  0  0
   48.9210    5.8016   21.5384 H   0  0  0  0  0  0  0  0  0  0  0  0
   47.1523    5.7799   21.4620 H   0  0  0  0  0  0  0  0  0  0  0  0
  2  1  1  0
  2  3  1  0
  3  4  1  0
  4  5  1  0
  4  6  1  0
  6  7  2  0
  7  8  1  0
  8  9  2  0
  9 10  1  0
 10 11  2  0
 11 12  1  0
 12 13  2  0
 13 14  1  0
 14 15  2  0
 15 16  1  0
 11 16  1  0
 16 17  2  0
  8 17  1  0
 17 18  1  0
 18 19  2  0
 19 20  1  0
 20 21  2  0
 21 22  1  0
 21 23  1  0
 23 24  2  0
 18 24  1  0
  9 25  1  0
 25 26  1  0
 26 27  1  0
 25 27  1  0
  2 28  1  0
 28 29  1  0
 29 30  2  0
 29 31  1  0
 34 33  1  0
 34 35  1  0
 35 36  1  0
 36 37  1  0
 36 38  1  0
 38 39  2  0
 39 40  1  0
 40 41  2  0
 41 42  1  0
 42 43  2  0
 43 44  1  0
 44 45  2  0
 45 46  1  0
 46 47  2  0
 47 48  1  0
 43 48  1  0
 48 49  2  0
 40 49  1  0
 49 50  1  0
 50 51  2  0
 51 52  1  0
 52 53  2  0
 53 54  1  0
 53 55  1  0
 55 56  2  0
 50 56  1  0
 41 57  1  0
 57 58  1  0
 58 59  1  0
 57 59  1  0
 34 60  1  0
 60 61  1  0
 61 62  2  0
 61 63  1  0
  1 64  1  0
  2 65  1  6
  3 66  1  0
  3 67  1  0
  4 68  1  6
  5 69  1  0
  6 70  1  0
  7 71  1  0
 12 72  1  0
 13 73  1  0
 14 74  1  0
 15 75  1  0
 19 76  1  0
 20 77  1  0
 23 78  1  0
 24 79  1  0
 25 80  1  0
 26 81  1  0
 26 82  1  0
 27 83  1  0
 27 84  1  0
 28 85  1  0
 28 86  1  0
 33 87  1  0
 34 88  1  6
 35 89  1  0
 35 90  1  0
 36 91  1  1
 37 92  1  0
 38 93  1  0
 39 94  1  0
 44 95  1  0
 45 96  1  0
 46 97  1  0
 47 98  1  0
 51 99  1  0
 52100  1  0
 55101  1  0
 56102  1  0
 57103  1  0
 58104  1  0
 58105  1  0
 59106  1  0
 59107  1  0
 60108  1  0
 60109  1  0
M  CHG  3  31  -1  32   2  63  -1
M  END
> <Uni-Dock RESULT> 
ENERGY=   -4.310  LOWER_BOUND=    3.406  UPPER_BOUND=    8.139
INTER + INTRA:          -4.310
INTER:                  -4.310
INTRA:                   0.000
UNBOUND:                 0.000

$$$$

     RDKit          3D

109114  0  0  0  0  0  0  0  0999 V2000
   52.5289   13.9434   14.9496 O   0  0  0  0  0  0  0  0  0  0  0  0
   51.0961   13.8311   14.9028 C   0  0  2  0  0  0  0  0  0  0  0  0
   50.7277   12.5063   15.5835 C   0  0  0  0  0  0  0  0  0  0  0  0
   50.8122   12.5997   17.1156 C   0  0  2  0  0  0  0  0  0  0  0  0
   52.1355   12.9138   17.5593 O   0  0  0  0  0  0  0  0  0  0  0  0
   50.4172   11.3318   17.8286 C   0  0  0  0  0  0  0  0  0  0  0  0
   49.4108   10.5191   17.4635 C   0  0  0  0  0  0  0  0  0  0  0  0
   49.0371    9.2831   18.1764 C   0  0  0  0  0  0  0  0  0  0  0  0
   47.8729    9.2637   18.9691 C   0  0  0  0  0  0  0  0  0  0  0  0
   47.4613    8.1299   19.5997 N   0  0  0  0  0  0  0  0  0  0  0  0
   48.1594    6.9964   19.4594 C   0  0  0  0  0  0  0  0  0  0  0  0
   47.6651    5.8565   20.0819 C   0  0  0  0  0  0  0  0  0  0  0  0
   48.3005    4.6181   19.9743 C   0  0  0  0  0  0  0  0  0  0  0  0
   49.4750    4.5266   19.2471 C   0  0  0  0  0  0  0  0  0  0  0  0
   50.0058    5.6629   18.6342 C   0  0  0  0  0  0  0  0  0  0  0  0
   49.3456    6.9129   18.7069 C   0  0  0  0  0  0  0  0  0  0  0  0
   49.7903    8.0960   18.0463 C   0  0  0  0  0  0  0  0  0  0  0  0
   51.0042    8.0726   17.1952 C   0  0  0  0  0  0  0  0  0  0  0  0
   50.9218    7.8886   15.8078 C   0  0  0  0  0  0  0  0  0  0  0  0
   52.0856    7.8310   15.0337 C   0  0  0  0  0  0  0  0  0  0  0  0
   53.3261    7.9899   15.6455 C   0  0  0  0  0  0  0  0  0  0  0  0
   54.4419    7.9161   14.9082 F   0  0  0  0  0  0  0  0  0  0  0  0
   53.4279    8.2242   17.0116 C   0  0  0  0  0  0  0  0  0  0  0  0
   52.2702    8.2425   17.7854 C   0  0  0  0  0  0  0  0  0  0  0  0
   47.0068   10.5061   19.1420 C   0  0  0  0  0  0  0  0  0  0  0  0
   47.4103   11.5419   20.1688 C   0  0  0  0  0  0  0  0  0  0  0  0
   46.1866   10.7093   20.3918 C   0  0  0  0  0  0  0  0  0  0  0  0
   50.6074   13.9078   13.4627 C   0  0  0  0  0  0  0  0  0  0  0  0
   49.0781   14.0461   13.3843 C   0  0  0  0  0  0  0  0  0  0  0  0
   48.4964   14.4081   14.4461 O   0  0  0  0  0  0  0  0  0  0  0  0
   48.5724   13.7863   12.2524 O   0  0  0  0  0  0  0  0  0  0  0  0
   49.9276    9.9746   17.2785 Mg  0  0  0  0  0 15  0  0  0  0  0  0
   51.3609   15.2617   17.3696 O   0  0  0  0  0  0  0  0  0  0  0  0
   50.4349   14.6111   16.4772 C   0  0  2  0  0  0  0  0  0  0  0  0
   50.6192   13.1038   16.6849 C   0  0  0  0  0  0  0  0  0  0  0  0
   49.6298   12.2212   15.9239 C   0  0  2  0  0  0  0  0  0  0  0  0
   48.3005   12.4938   16.3451 O   0  0  0  0  0  0  0  0  0  0  0  0
   49.9450   10.7663   16.1340 C   0  0  0  0  0  0  0  0  0  0  0  0
   49.2124    9.8837   16.8303 C   0  0  0  0  0  0  0  0  0  0  0  0
   49.6542    8.4902   17.0325 C   0  0  0  0  0  0  0  0  0  0  0  0
   49.7401    7.5904   15.9581 C   0  0  0  0  0  0  0  0  0  0  0  0
   50.2223    6.3277   16.1388 N   0  0  0  0  0  0  0  0  0  0  0  0
   50.5988    5.9170   17.3577 C   0  0  0  0  0  0  0  0  0  0  0  0
   51.0856    4.6245   17.4833 C   0  0  0  0  0  0  0  0  0  0  0  0
   51.5243    4.1026   18.6999 C   0  0  0  0  0  0  0  0  0  0  0  0
   51.4619    4.8891   19.8359 C   0  0  0  0  0  0  0  0  0  0  0  0
   50.9562    6.1831   19.7430 C   0  0  0  0  0  0  0  0  0  0  0  0
   50.5213    6.7249   18.5026 C   0  0  0  0  0  0  0  0  0  0  0  0
   50.0214    8.0449   18.3275 C   0  0  0  0  0  0  0  0  0  0  0  0
   49.8777    8.9539   19.4840 C   0  0  0  0  0  0  0  0  0  0  0  0
   50.8805    9.8788   19.8134 C   0  0  0  0  0  0  0  0  0  0  0  0
   50.7194   10.7460   20.8974 C   0  0  0  0  0  0  0  0  0  0  0  0
   49.5581   10.6880   21.6548 C   0  0  0  0  0  0  0  0  0  0  0  0
   49.4112   11.5136   22.6988 F   0  0  0  0  0  0  0  0  0  0  0  0
   48.5488    9.7856   21.3457 C   0  0  0  0  0  0  0  0  0  0  0  0
   48.7023    8.9293   20.2565 C   0  0  0  0  0  0  0  0  0  0  0  0
   49.2883    7.9638   14.5456 C   0  0  0  0  0  0  0  0  0  0  0  0
   48.6150    6.9290   13.6684 C   0  0  0  0  0  0  0  0  0  0  0  0
   47.8045    8.0570   14.2387 C   0  0  0  0  0  0  0  0  0  0  0  0
   50.7382   15.0617   15.0562 C   0  0  0  0  0  0  0  0  0  0  0  0
   50.2340   16.4887   14.8790 C   0  0  0  0  0  0  0  0  0  0  0  0
   49.6280   16.7237   13.7963 O   0  0  0  0  0  0  0  0  0  0  0  0
   50.4649   17.2565   15.8634 O   0  0  0  0  0  0  0  0  0  0  0  0
   52.7429   14.7251   14.4159 H   0  0  0  0  0  0  0  0  0  0  0  0
   50.7077   14.6718   15.4784 H   0  0  0  0  0  0  0  0  0  0  0  0
   49.7266   12.1855   15.2825 H   0  0  0  0  0  0  0  0  0  0  0  0
   51.4336   11.7345   15.2646 H   0  0  0  0  0  0  0  0  0  0  0  0
   50.1632   13.4033   17.4856 H   0  0  0  0  0  0  0  0  0  0  0  0
   52.6478   13.1706   16.7489 H   0  0  0  0  0  0  0  0  0  0  0  0
   50.9903   11.0856   18.7237 H   0  0  0  0  0  0  0  0  0  0  0  0
   48.7714   10.7540   16.6219 H   0  0  0  0  0  0  0  0  0  0  0  0
   46.7388    5.9452   20.6468 H   0  0  0  0  0  0  0  0  0  0  0  0
   47.8592    3.7367   20.4300 H   0  0  0  0  0  0  0  0  0  0  0  0
   49.9788    3.5670   19.1370 H   0  0  0  0  0  0  0  0  0  0  0  0
   50.9345    5.5504   18.0751 H   0  0  0  0  0  0  0  0  0  0  0  0
   49.9561    7.8002   15.3174 H   0  0  0  0  0  0  0  0  0  0  0  0
   52.0385    7.6701   13.9606 H   0  0  0  0  0  0  0  0  0  0  0  0
   54.4028    8.3969   17.4633 H   0  0  0  0  0  0  0  0  0  0  0  0
   52.3488    8.4174   18.8510 H   0  0  0  0  0  0  0  0  0  0  0  0
   46.5671   10.8892   18.2223 H   0  0  0  0  0  0  0  0  0  0  0  0
   48.2820   11.3296   20.7722 H   0  0  0  0  0  0  0  0  0  0  0  0
   47.2889   12.5877   19.9063 H   0  0  0  0  0  0  0  0  0  0  0  0
   45.2191   11.1771   20.2658 H   0  0  0  0  0  0  0  0  0  0  0  0
   46.2184    9.9587   21.1659 H   0  0  0  0  0  0  0  0  0  0  0  0
   51.0501   14.7852   12.9632 H   0  0  0  0  0  0  0  0  0  0  0  0
   50.9443   13.0233   12.9075 H   0  0  0  0  0  0  0  0  0  0  0  0
   51.2426   16.2212   17.1433 H   0  0  0  0  0  0  0  0  0  0  0  0
   49.4292   14.9079   16.7895 H   0  0  0  0  0  0  0  0  0  0  0  0
   50.5336   12.8930   17.7615 H   0  0  0  0  0  0  0  0  0  0  0  0
   51.6488   12.8309   16.4189 H   0  0  0  0  0  0  0  0  0  0  0  0
   49.6940   12.3969   14.8454 H   0  0  0  0  0  0  0  0  0  0  0  0
   47.7771   12.6578   15.5330 H   0  0  0  0  0  0  0  0  0  0  0  0
   50.8760   10.4325   15.6802 H   0  0  0  0  0  0  0  0  0  0  0  0
   48.3079   10.1813   17.3340 H   0  0  0  0  0  0  0  0  0  0  0  0
   51.1331    3.9940   16.5993 H   0  0  0  0  0  0  0  0  0  0  0  0
   51.9049    3.0858   18.7539 H   0  0  0  0  0  0  0  0  0  0  0  0
   51.7801    4.5017   20.7943 H   0  0  0  0  0  0  0  0  0  0  0  0
   50.9048    6.7797   20.6519 H   0  0  0  0  0  0  0  0  0  0  0  0
   51.7769    9.9460   19.2009 H   0  0  0  0  0  0  0  0  0  0  0  0
   51.4900   11.4765   21.1363 H   0  0  0  0  0  0  0  0  0  0  0  0
   47.6402    9.7737   21.9426 H   0  0  0  0  0  0  0  0  0  0  0  0
   47.8873    8.2545   19.9946 H   0  0  0  0  0  0  0  0  0  0  0  0
   49.9496    8.6572   14.0259 H   0  0  0  0  0  0  0  0  0  0  0  0
   48.4525    5.9386   14.0805 H   0  0  0  0  0  0  0  0  0  0  0  0
   48.8044    6.9657   12.5963 H   0  0  0  0  0  0  0  0  0  0  0  0
   47.4693    8.8194   13.5466 H   0  0  0  0  0  0  0  0  0  0  0  0
   47.1003    7.8398   15.0407 H   0  0  0  0  0  0  0  0  0  0  0  0
   50.2662   14.4232   14.3066 H   0  0  0  0  0  0  0  0  0  0  0  0
   51.8158   15.0626   14.8766 H   0  0  0  0  0  0  0  0  0  0  0  0
  2  1  1  0
  2  3  1  0
  3  4  1  0
  4  5  1  0
  4  6  1  0
  6  7  2  0
  7  8  1  0
  8  9  2  0
  9 10  1  0
 10 11  2  0
 11 12  1  0
 12 13  2  0
 13 14  1  0
 14 15  2  0
 15 16  1  0
 11 16  1  0
 16 17  2  0
  8 17  1  0
 17 18  1  0
 18 19  2  0
 19 20  1  0
 20 21  2  0
 21 22  1  0
 21 23  1  0
 23 24  2  0
 18 24  1  0
  9 25  1  0
 25 26  1  0
 26 27  1  0
 25 27  1  0
  2 28  1  0
 28 29  1  0
 29 30  2  0
 29 31  1  0
 34 33  1  0
 34 35  1  0
 35 36  1  0
 36 37  1  0
 36 38  1  0
 38 39  2  0
 39 40  1  0
 40 41  2  0
 41 42  1  0
 42 43  2  0
 43 44  1  0
 44 45  2  0
 45 46  1  0
 46 47  2  0
 47 48  1  0
 43 48  1  0
 48 49  2  0
 40 49  1  0
 49 50  1  0
 50 51  2  0
 51 52  1  0
 52 53  2  0
 53 54  1  0
 53 55  1  0
 55 56  2  0
 50 56  1  0
 41 57  1  0
 57 58  1  0
 58 59  1  0
 57 59  1  0
 34 60  1  0
 60 61  1  0
 61 62  2  0
 61 63  1  0
  1 64  1  0
  2 65  1  6
  3 66  1  0
  3 67  1  0
  4 68  1  6
  5 69  1  0
  6 70  1  0
  7 71  1  0
 12 72  1  0
 13 73  1  0
 14 74  1  0
 15 75  1  0
 19 76  1  0
 20 77  1  0
 23 78  1  0
 24 79  1  0
 25 80  1  0
 26 81  1  0
 26 82  1  0
 27 83  1  0
 27 84  1  0
 28 85  1  0
 28 86  1  0
 33 87  1  0
 34 88  1  6
 35 89  1  0
 35 90  1  0
 36 91  1  1
 37 92  1  0
 38 93  1  0
 39 94  1  0
 44 95  1  0
 45 96  1  0
 46 97  1  0
 47 98  1  0
 51 99  1  0
 52100  1  0
 55101  1  0
 56102  1  0
 57103  1  0
 58104  1  0
 58105  1  0
 59106  1  0
 59107  1  0
 60108  1  0
 60109  1  0
M  CHG  3  31  -1  32   2  63  -1
M  END
> <Uni-Dock RESULT> 
ENERGY=   -4.211  LOWER_BOUND=    3.133  UPPER_BOUND=    6.111
INTER + INTRA:          -4.211
INTER:                  -4.211
INTRA:                   0.000
UNBOUND:                 0.000

$$$$

     RDKit          3D

109114  0  0  0  0  0  0  0  0999 V2000
   47.2421   16.8584   13.9263 O   0  0  0  0  0  0  0  0  0  0  0  0
   46.4593   15.9913   13.0878 C   0  0  2  0  0  0  0  0  0  0  0  0
   47.3636   14.8178   12.6883 C   0  0  0  0  0  0  0  0  0  0  0  0
   47.5291   13.8003   13.8285 C   0  0  2  0  0  0  0  0  0  0  0  0
   48.1355   14.3868   14.9839 O   0  0  0  0  0  0  0  0  0  0  0  0
   48.3764   12.6075   13.4660 C   0  0  0  0  0  0  0  0  0  0  0  0
   48.3637   11.9809   12.2770 C   0  0  0  0  0  0  0  0  0  0  0  0
   49.1988   10.8123   11.9417 C   0  0  0  0  0  0  0  0  0  0  0  0
   48.6082    9.5357   11.8655 C   0  0  0  0  0  0  0  0  0  0  0  0
   49.3297    8.4391   11.5060 N   0  0  0  0  0  0  0  0  0  0  0  0
   50.6269    8.5638   11.1995 C   0  0  0  0  0  0  0  0  0  0  0  0
   51.3023    7.4211   10.7881 C   0  0  0  0  0  0  0  0  0  0  0  0
   52.6481    7.4481   10.4179 C   0  0  0  0  0  0  0  0  0  0  0  0
   53.3403    8.6450   10.4880 C   0  0  0  0  0  0  0  0  0  0  0  0
   52.6909    9.8014   10.9232 C   0  0  0  0  0  0  0  0  0  0  0  0
   51.3167    9.7887   11.2624 C   0  0  0  0  0  0  0  0  0  0  0  0
   50.5726   10.9441   11.6438 C   0  0  0  0  0  0  0  0  0  0  0  0
   51.2198   12.2775   11.6843 C   0  0  0  0  0  0  0  0  0  0  0  0
   51.1447   13.1607   10.5981 C   0  0  0  0  0  0  0  0  0  0  0  0
   51.7980   14.3967   10.6478 C   0  0  0  0  0  0  0  0  0  0  0  0
   52.4972   14.7585   11.7961 C   0  0  0  0  0  0  0  0  0  0  0  0
   53.1389   15.9335   11.8376 F   0  0  0  0  0  0  0  0  0  0  0  0
   52.5418   13.9198   12.9034 C   0  0  0  0  0  0  0  0  0  0  0  0
   51.9232   12.6739   12.8367 C   0  0  0  0  0  0  0  0  0  0  0  0
   47.1279    9.3246   12.1618 C   0  0  0  0  0  0  0  0  0  0  0  0
   46.6819    9.1911   13.6016 C   0  0  0  0  0  0  0  0  0  0  0  0
   46.6259    8.0042   12.6914 C   0  0  0  0  0  0  0  0  0  0  0  0
   45.9270   16.7591   11.8855 C   0  0  0  0  0  0  0  0  0  0  0  0
   44.8848   15.9442   11.1021 C   0  0  0  0  0  0  0  0  0  0  0  0
   44.3787   14.9578   11.7085 O   0  0  0  0  0  0  0  0  0  0  0  0
   44.6451   16.3628    9.9309 O   0  0  0  0  0  0  0  0  0  0  0  0
   49.0820   12.2344   12.1441 Mg  0  0  0  0  0 15  0  0  0  0  0  0
   45.7954   14.8773   15.6413 O   0  0  0  0  0  0  0  0  0  0  0  0
   45.6389   14.7347   14.2157 C   0  0  2  0  0  0  0  0  0  0  0  0
   46.9627   14.1698   13.6888 C   0  0  0  0  0  0  0  0  0  0  0  0
   46.9668   13.8135   12.2021 C   0  0  2  0  0  0  0  0  0  0  0  0
   46.0009   12.8067   11.9336 O   0  0  0  0  0  0  0  0  0  0  0  0
   48.3286   13.3439   11.7719 C   0  0  0  0  0  0  0  0  0  0  0  0
   48.6666   12.0948   11.4171 C   0  0  0  0  0  0  0  0  0  0  0  0
   50.0556   11.7285   11.0789 C   0  0  0  0  0  0  0  0  0  0  0  0
   50.6841   12.2380    9.9314 C   0  0  0  0  0  0  0  0  0  0  0  0
   51.9919   11.9571    9.6661 N   0  0  0  0  0  0  0  0  0  0  0  0
   52.6923   11.1641   10.4887 C   0  0  0  0  0  0  0  0  0  0  0  0
   54.0196   10.9152   10.1729 C   0  0  0  0  0  0  0  0  0  0  0  0
   54.8449   10.1223   10.9700 C   0  0  0  0  0  0  0  0  0  0  0  0
   54.3272    9.5432   12.1144 C   0  0  0  0  0  0  0  0  0  0  0  0
   52.9914    9.7577   12.4434 C   0  0  0  0  0  0  0  0  0  0  0  0
   52.1499   10.5769   11.6421 C   0  0  0  0  0  0  0  0  0  0  0  0
   50.7870   10.8631   11.9311 C   0  0  0  0  0  0  0  0  0  0  0  0
   50.1263   10.2630   13.1092 C   0  0  0  0  0  0  0  0  0  0  0  0
   50.0440   10.9523   14.3289 C   0  0  0  0  0  0  0  0  0  0  0  0
   49.3968   10.3793   15.4270 C   0  0  0  0  0  0  0  0  0  0  0  0
   48.8340    9.1164   15.3086 C   0  0  0  0  0  0  0  0  0  0  0  0
   48.2233    8.5661   16.3656 F   0  0  0  0  0  0  0  0  0  0  0  0
   48.8971    8.4165   14.1108 C   0  0  0  0  0  0  0  0  0  0  0  0
   49.5304    8.9926   13.0107 C   0  0  0  0  0  0  0  0  0  0  0  0
   49.9439   13.1119    8.9180 C   0  0  0  0  0  0  0  0  0  0  0  0
   50.2444   12.9760    7.4399 C   0  0  0  0  0  0  0  0  0  0  0  0
   48.9366   12.4727    7.9791 C   0  0  0  0  0  0  0  0  0  0  0  0
   45.2930   16.0956   13.6305 C   0  0  0  0  0  0  0  0  0  0  0  0
   43.8429   16.4181   13.9703 C   0  0  0  0  0  0  0  0  0  0  0  0
   43.1589   16.9139   13.0316 O   0  0  0  0  0  0  0  0  0  0  0  0
   43.4986   16.1176   15.1548 O   0  0  0  0  0  0  0  0  0  0  0  0
   46.6903   17.6437   14.0699 H   0  0  0  0  0  0  0  0  0  0  0  0
   45.6334   15.6377   13.7056 H   0  0  0  0  0  0  0  0  0  0  0  0
   46.9746   14.3202   11.7956 H   0  0  0  0  0  0  0  0  0  0  0  0
   48.3586   15.2020   12.4472 H   0  0  0  0  0  0  0  0  0  0  0  0
   46.5497   13.4247   14.1504 H   0  0  0  0  0  0  0  0  0  0  0  0
   48.1433   15.3669   14.8276 H   0  0  0  0  0  0  0  0  0  0  0  0
   49.0263   12.2229   14.2534 H   0  0  0  0  0  0  0  0  0  0  0  0
   47.6893   12.2833   11.4858 H   0  0  0  0  0  0  0  0  0  0  0  0
   50.7423    6.4892   10.7353 H   0  0  0  0  0  0  0  0  0  0  0  0
   53.1315    6.5474   10.0513 H   0  0  0  0  0  0  0  0  0  0  0  0
   54.3868    8.6919   10.1888 H   0  0  0  0  0  0  0  0  0  0  0  0
   53.2719   10.7224   10.9692 H   0  0  0  0  0  0  0  0  0  0  0  0
   50.5708   12.9015    9.7124 H   0  0  0  0  0  0  0  0  0  0  0  0
   51.7646   15.0833    9.8069 H   0  0  0  0  0  0  0  0  0  0  0  0
   53.0502   14.2417   13.8101 H   0  0  0  0  0  0  0  0  0  0  0  0
   51.9636   12.0165   13.6960 H   0  0  0  0  0  0  0  0  0  0  0  0
   46.4478    9.8550   11.4968 H   0  0  0  0  0  0  0  0  0  0  0  0
   47.4497    9.2074   14.3628 H   0  0  0  0  0  0  0  0  0  0  0  0
   45.7528    9.6720   13.8896 H   0  0  0  0  0  0  0  0  0  0  0  0
   45.6576    7.6764   12.3367 H   0  0  0  0  0  0  0  0  0  0  0  0
   47.3311    7.2049   12.8567 H   0  0  0  0  0  0  0  0  0  0  0  0
   45.4423   17.6907   12.2207 H   0  0  0  0  0  0  0  0  0  0  0  0
   46.7589   17.0518   11.2325 H   0  0  0  0  0  0  0  0  0  0  0  0
   44.9406   15.3039   15.9118 H   0  0  0  0  0  0  0  0  0  0  0  0
   44.8361   14.0091   14.0542 H   0  0  0  0  0  0  0  0  0  0  0  0
   47.2091   13.2710   14.2739 H   0  0  0  0  0  0  0  0  0  0  0  0
   47.7669   14.8848   13.9066 H   0  0  0  0  0  0  0  0  0  0  0  0
   46.7348   14.6885   11.5868 H   0  0  0  0  0  0  0  0  0  0  0  0
   45.4559   13.1328   11.1872 H   0  0  0  0  0  0  0  0  0  0  0  0
   49.0981   14.1133   11.7787 H   0  0  0  0  0  0  0  0  0  0  0  0
   47.9477   11.2929   11.4399 H   0  0  0  0  0  0  0  0  0  0  0  0
   54.4363   11.3588    9.2725 H   0  0  0  0  0  0  0  0  0  0  0  0
   55.8821    9.9574   10.6897 H   0  0  0  0  0  0  0  0  0  0  0  0
   54.9420    8.9104   12.7401 H   0  0  0  0  0  0  0  0  0  0  0  0
   52.6020    9.2821   13.3417 H   0  0  0  0  0  0  0  0  0  0  0  0
   50.4575   11.9550   14.4127 H   0  0  0  0  0  0  0  0  0  0  0  0
   49.3164   10.9261   16.3646 H   0  0  0  0  0  0  0  0  0  0  0  0
   48.4309    7.4370   14.0381 H   0  0  0  0  0  0  0  0  0  0  0  0
   49.5374    8.4550   12.0624 H   0  0  0  0  0  0  0  0  0  0  0  0
   49.7335   14.1252    9.2603 H   0  0  0  0  0  0  0  0  0  0  0  0
   50.9768   12.2362    7.1340 H   0  0  0  0  0  0  0  0  0  0  0  0
   50.1984   13.8731    6.8238 H   0  0  0  0  0  0  0  0  0  0  0  0
   48.0488   13.0348    7.7173 H   0  0  0  0  0  0  0  0  0  0  0  0
   48.7807   11.3971    8.0495 H   0  0  0  0  0  0  0  0  0  0  0  0
   45.4187   16.1275   12.5464 H   0  0  0  0  0  0  0  0  0  0  0  0
   45.9211   16.8730   14.0717 H   0  0  0  0  0  0  0  0  0  0  0  0
  2  1  1  0
  2  3  1  0
  3  4  1  0
  4  5  1  0
  4  6  1  0
  6  7  2  0
  7  8  1  0
  8  9  2  0
  9 10  1  0
 10 11  2  0
 11 12  1  0
 12 13  2  0
 13 14  1  0
 14 15  2  0
 15 16  1  0
 11 16  1  0
 16 17  2  0
  8 17  1  0
 17 18  1  0
 18 19  2  0
 19 20  1  0
 20 21  2  0
 21 22  1  0
 21 23  1  0
 23 24  2  0
 18 24  1  0
  9 25  1  0
 25 26  1  0
 26 27  1  0
 25 27  1  0
  2 28  1  0
 28 29  1  0
 29 30  2  0
 29 31  1  0
 34 33  1  0
 34 35  1  0
 35 36  1  0
 36 37  1  0
 36 38  1  0
 38 39  2  0
 39 40  1  0
 40 41  2  0
 41 42  1  0
 42 43  2  0
 43 44  1  0
 44 45  2  0
 45 46  1  0
 46 47  2  0
 47 48  1  0
 43 48  1  0
 48 49  2  0
 40 49  1  0
 49 50  1  0
 50 51  2  0
 51 52  1  0
 52 53  2  0
 53 54  1  0
 53 55  1  0
 55 56  2  0
 50 56  1  0
 41 57  1  0
 57 58  1  0
 58 59  1  0
 57 59  1  0
 34 60  1  0
 60 61  1  0
 61 62  2  0
 61 63  1  0
  1 64  1  0
  2 65  1  6
  3 66  1  0
  3 67  1  0
  4 68  1  6
  5 69  1  0
  6 70  1  0
  7 71  1  0
 12 72  1  0
 13 73  1  0
 14 74  1  0
 15 75  1  0
 19 76  1  0
 20 77  1  0
 23 78  1  0
 24 79  1  0
 25 80  1  0
 26 81  1  0
 26 82  1  0
 27 83  1  0
 27 84  1  0
 28 85  1  0
 28 86  1  0
 33 87  1  0
 34 88  1  6
 35 89  1  0
 35 90  1  0
 36 91  1  1
 37 92  1  0
 38 93  1  0
 39 94  1  0
 44 95  1  0
 45 96  1  0
 46 97  1  0
 47 98  1  0
 51 99  1  0
 52100  1  0
 55101  1  0
 56102  1  0
 57103  1  0
 58104  1  0
 58105  1  0
 59106  1  0
 59107  1  0
 60108  1  0
 60109  1  0
M  CHG  3  31  -1  32   2  63  -1
M  END
> <Uni-Dock RESULT> 
ENERGY=   -4.207  LOWER_BOUND=    5.853  UPPER_BOUND=    9.838
INTER + INTRA:          -4.207
INTER:                  -4.207
INTRA:                   0.000
UNBOUND:                 0.000

$$$$

     RDKit          3D

109114  0  0  0  0  0  0  0  0999 V2000
   54.9677    9.9320   12.7435 O   0  0  0  0  0  0  0  0  0  0  0  0
   53.9246   10.7873   12.2452 C   0  0  2  0  0  0  0  0  0  0  0  0
   52.8259   10.8247   13.3155 C   0  0  0  0  0  0  0  0  0  0  0  0
   53.2004   11.7326   14.4981 C   0  0  2  0  0  0  0  0  0  0  0  0
   54.3825   11.2804   15.1652 O   0  0  0  0  0  0  0  0  0  0  0  0
   52.1307   11.8330   15.5552 C   0  0  0  0  0  0  0  0  0  0  0  0
   50.8094   11.8954   15.3167 C   0  0  0  0  0  0  0  0  0  0  0  0
   49.7770   11.9965   16.3653 C   0  0  0  0  0  0  0  0  0  0  0  0
   49.1175   13.2235   16.5744 C   0  0  0  0  0  0  0  0  0  0  0  0
   48.1209   13.3471   17.4931 N   0  0  0  0  0  0  0  0  0  0  0  0
   47.7372   12.2836   18.2098 C   0  0  0  0  0  0  0  0  0  0  0  0
   46.6798   12.4536   19.0954 C   0  0  0  0  0  0  0  0  0  0  0  0
   46.1833   11.4022   19.8680 C   0  0  0  0  0  0  0  0  0  0  0  0
   46.7796   10.1566   19.7701 C   0  0  0  0  0  0  0  0  0  0  0  0
   47.8603    9.9670   18.9072 C   0  0  0  0  0  0  0  0  0  0  0  0
   48.3429   11.0189   18.0922 C   0  0  0  0  0  0  0  0  0  0  0  0
   49.3926   10.8784   17.1371 C   0  0  0  0  0  0  0  0  0  0  0  0
   50.0445    9.5642   16.9220 C   0  0  0  0  0  0  0  0  0  0  0  0
   49.6290    8.6998   15.8993 C   0  0  0  0  0  0  0  0  0  0  0  0
   50.2352    7.4488   15.7437 C   0  0  0  0  0  0  0  0  0  0  0  0
   51.2765    7.0798   16.5910 C   0  0  0  0  0  0  0  0  0  0  0  0
   51.8450    5.8746   16.4550 F   0  0  0  0  0  0  0  0  0  0  0  0
   51.7381    7.9419   17.5785 C   0  0  0  0  0  0  0  0  0  0  0  0
   51.1072    9.1706   17.7561 C   0  0  0  0  0  0  0  0  0  0  0  0
   49.4741   14.4664   15.7673 C   0  0  0  0  0  0  0  0  0  0  0  0
   50.6646   15.2981   16.1925 C   0  0  0  0  0  0  0  0  0  0  0  0
   49.2803   15.8462   16.3459 C   0  0  0  0  0  0  0  0  0  0  0  0
   53.4200   10.2770   10.9023 C   0  0  0  0  0  0  0  0  0  0  0  0
   52.4900   11.2920   10.2176 C   0  0  0  0  0  0  0  0  0  0  0  0
   52.5400   12.4765   10.6549 O   0  0  0  0  0  0  0  0  0  0  0  0
   51.7793   10.8224    9.2801 O   0  0  0  0  0  0  0  0  0  0  0  0
   50.7266   11.1954   15.6346 Mg  0  0  0  0  0 15  0  0  0  0  0  0
   55.5457   12.7566   13.5476 O   0  0  0  0  0  0  0  0  0  0  0  0
   54.3098   12.5246   12.8434 C   0  0  2  0  0  0  0  0  0  0  0  0
   53.3687   11.8328   13.8358 C   0  0  0  0  0  0  0  0  0  0  0  0
   51.9431   11.6140   13.3291 C   0  0  2  0  0  0  0  0  0  0  0  0
   51.3257   12.8605   13.0397 O   0  0  0  0  0  0  0  0  0  0  0  0
   51.1278   10.8625   14.3442 C   0  0  0  0  0  0  0  0  0  0  0  0
   50.1111   11.3511   15.0710 C   0  0  0  0  0  0  0  0  0  0  0  0
   49.4235   10.5405   16.0947 C   0  0  0  0  0  0  0  0  0  0  0  0
   48.6499    9.4237   15.7403 C   0  0  0  0  0  0  0  0  0  0  0  0
   48.0808    8.6343   16.6956 N   0  0  0  0  0  0  0  0  0  0  0  0
   48.2314    8.9307   17.9939 C   0  0  0  0  0  0  0  0  0  0  0  0
   47.6348    8.0914   18.9227 C   0  0  0  0  0  0  0  0  0  0  0  0
   47.7453    8.2946   20.2981 C   0  0  0  0  0  0  0  0  0  0  0  0
   48.4622    9.3807   20.7664 C   0  0  0  0  0  0  0  0  0  0  0  0
   49.0527   10.2527   19.8556 C   0  0  0  0  0  0  0  0  0  0  0  0
   48.9552   10.0419   18.4530 C   0  0  0  0  0  0  0  0  0  0  0  0
   49.5551   10.8728   17.4667 C   0  0  0  0  0  0  0  0  0  0  0  0
   50.3104   12.0809   17.8597 C   0  0  0  0  0  0  0  0  0  0  0  0
   51.7052   12.0514   18.0121 C   0  0  0  0  0  0  0  0  0  0  0  0
   52.4065   13.2081   18.3632 C   0  0  0  0  0  0  0  0  0  0  0  0
   51.7151   14.3941   18.5653 C   0  0  0  0  0  0  0  0  0  0  0  0
   52.3891   15.4982   18.9113 F   0  0  0  0  0  0  0  0  0  0  0  0
   50.3357   14.4504   18.4150 C   0  0  0  0  0  0  0  0  0  0  0  0
   49.6364   13.3006   18.0515 C   0  0  0  0  0  0  0  0  0  0  0  0
   48.3903    9.0428   14.2821 C   0  0  0  0  0  0  0  0  0  0  0  0
   47.0454    8.4776   13.8758 C   0  0  0  0  0  0  0  0  0  0  0  0
   47.4205    9.8701   13.4578 C   0  0  0  0  0  0  0  0  0  0  0  0
   54.6076   11.6814   11.6127 C   0  0  0  0  0  0  0  0  0  0  0  0
   55.2823   12.5632   10.5690 C   0  0  0  0  0  0  0  0  0  0  0  0
   54.8732   12.4172    9.3832 O   0  0  0  0  0  0  0  0  0  0  0  0
   56.1559   13.3583   11.0344 O   0  0  0  0  0  0  0  0  0  0  0  0
   55.5922    9.8329   12.0073 H   0  0  0  0  0  0  0  0  0  0  0  0
   54.3724   11.7748   12.1296 H   0  0  0  0  0  0  0  0  0  0  0  0
   51.8768   11.1492   12.8800 H   0  0  0  0  0  0  0  0  0  0  0  0
   52.6816    9.8159   13.7121 H   0  0  0  0  0  0  0  0  0  0  0  0
   53.4141   12.7496   14.1460 H   0  0  0  0  0  0  0  0  0  0  0  0
   54.7780   10.5779   14.5862 H   0  0  0  0  0  0  0  0  0  0  0  0
   52.4791   11.8828   16.5879 H   0  0  0  0  0  0  0  0  0  0  0  0
   50.4174   11.9158   14.3076 H   0  0  0  0  0  0  0  0  0  0  0  0
   46.2202   13.4384   19.1574 H   0  0  0  0  0  0  0  0  0  0  0  0
   45.3221   11.5568   20.5114 H   0  0  0  0  0  0  0  0  0  0  0  0
   46.3981    9.3185   20.3522 H   0  0  0  0  0  0  0  0  0  0  0  0
   48.3051    8.9731   18.8626 H   0  0  0  0  0  0  0  0  0  0  0  0
   48.8417    8.9949   15.2108 H   0  0  0  0  0  0  0  0  0  0  0  0
   49.9114    6.7608   14.9681 H   0  0  0  0  0  0  0  0  0  0  0  0
   52.5865    7.6565   18.1974 H   0  0  0  0  0  0  0  0  0  0  0  0
   51.4610    9.8401   18.5300 H   0  0  0  0  0  0  0  0  0  0  0  0
   49.3101   14.3781   14.6943 H   0  0  0  0  0  0  0  0  0  0  0  0
   51.1888   14.9934   17.0879 H   0  0  0  0  0  0  0  0  0  0  0  0
   51.3025   15.7027   15.4136 H   0  0  0  0  0  0  0  0  0  0  0  0
   48.9564   16.6181   15.6603 H   0  0  0  0  0  0  0  0  0  0  0  0
   48.8813   15.9436   17.3434 H   0  0  0  0  0  0  0  0  0  0  0  0
   54.2720   10.0933   10.2273 H   0  0  0  0  0  0  0  0  0  0  0  0
   52.9095    9.3151   11.0374 H   0  0  0  0  0  0  0  0  0  0  0  0
   56.1287   13.1411   12.8419 H   0  0  0  0  0  0  0  0  0  0  0  0
   53.9076   13.5057   12.5737 H   0  0  0  0  0  0  0  0  0  0  0  0
   53.3342   12.4378   14.7543 H   0  0  0  0  0  0  0  0  0  0  0  0
   53.8118   10.8749   14.1384 H   0  0  0  0  0  0  0  0  0  0  0  0
   51.9377   11.0057   12.4191 H   0  0  0  0  0  0  0  0  0  0  0  0
   50.9641   12.7903   12.1316 H   0  0  0  0  0  0  0  0  0  0  0  0
   51.4302    9.8281   14.4948 H   0  0  0  0  0  0  0  0  0  0  0  0
   49.8082   12.3814   14.9873 H   0  0  0  0  0  0  0  0  0  0  0  0
   47.0628    7.2383   18.5672 H   0  0  0  0  0  0  0  0  0  0  0  0
   47.2671    7.6089   20.9928 H   0  0  0  0  0  0  0  0  0  0  0  0
   48.5484    9.5697   21.8279 H   0  0  0  0  0  0  0  0  0  0  0  0
   49.6015   11.1076   20.2463 H   0  0  0  0  0  0  0  0  0  0  0  0
   52.2507   11.1295   17.8231 H   0  0  0  0  0  0  0  0  0  0  0  0
   53.4905   13.1858   18.4592 H   0  0  0  0  0  0  0  0  0  0  0  0
   49.8198   15.3965   18.5596 H   0  0  0  0  0  0  0  0  0  0  0  0
   48.5597   13.3637   17.8933 H   0  0  0  0  0  0  0  0  0  0  0  0
   49.2506    8.6193   13.7635 H   0  0  0  0  0  0  0  0  0  0  0  0
   46.2833    8.3737   14.6411 H   0  0  0  0  0  0  0  0  0  0  0  0
   47.0230    7.7271   13.0866 H   0  0  0  0  0  0  0  0  0  0  0  0
   47.6396   10.0255   12.4088 H   0  0  0  0  0  0  0  0  0  0  0  0
   46.9247   10.7111   13.9408 H   0  0  0  0  0  0  0  0  0  0  0  0
   53.7061   11.2445   11.1785 H   0  0  0  0  0  0  0  0  0  0  0  0
   55.2962   10.8706   11.8616 H   0  0  0  0  0  0  0  0  0  0  0  0
  2  1  1  0
  2  3  1  0
  3  4  1  0
  4  5  1  0
  4  6  1  0
  6  7  2  0
  7  8  1  0
  8  9  2  0
  9 10  1  0
 10 11  2  0
 11 12  1  0
 12 13  2  0
 13 14  1  0
 14 15  2  0
 15 16  1  0
 11 16  1  0
 16 17  2  0
  8 17  1  0
 17 18  1  0
 18 19  2  0
 19 20  1  0
 20 21  2  0
 21 22  1  0
 21 23  1  0
 23 24  2  0
 18 24  1  0
  9 25  1  0
 25 26  1  0
 26 27  1  0
 25 27  1  0
  2 28  1  0
 28 29  1  0
 29 30  2  0
 29 31  1  0
 34 33  1  0
 34 35  1  0
 35 36  1  0
 36 37  1  0
 36 38  1  0
 38 39  2  0
 39 40  1  0
 40 41  2  0
 41 42  1  0
 42 43  2  0
 43 44  1  0
 44 45  2  0
 45 46  1  0
 46 47  2  0
 47 48  1  0
 43 48  1  0
 48 49  2  0
 40 49  1  0
 49 50  1  0
 50 51  2  0
 51 52  1  0
 52 53  2  0
 53 54  1  0
 53 55  1  0
 55 56  2  0
 50 56  1  0
 41 57  1  0
 57 58  1  0
 58 59  1  0
 57 59  1  0
 34 60  1  0
 60 61  1  0
 61 62  2  0
 61 63  1  0
  1 64  1  0
  2 65  1  6
  3 66  1  0
  3 67  1  0
  4 68  1  6
  5 69  1  0
  6 70  1  0
  7 71  1  0
 12 72  1  0
 13 73  1  0
 14 74  1  0
 15 75  1  0
 19 76  1  0
 20 77  1  0
 23 78  1  0
 24 79  1  0
 25 80  1  0
 26 81  1  0
 26 82  1  0
 27 83  1  0
 27 84  1  0
 28 85  1  0
 28 86  1  0
 33 87  1  0
 34 88  1  6
 35 89  1  0
 35 90  1  0
 36 91  1  1
 37 92  1  0
 38 93  1  0
 39 94  1  0
 44 95  1  0
 45 96  1  0
 46 97  1  0
 47 98  1  0
 51 99  1  0
 52100  1  0
 55101  1  0
 56102  1  0
 57103  1  0
 58104  1  0
 58105  1  0
 59106  1  0
 59107  1  0
 60108  1  0
 60109  1  0
M  CHG  3  31  -1  32   2  63  -1
M  END
> <Uni-Dock RESULT> 
ENERGY=   -4.204  LOWER_BOUND=    3.170  UPPER_BOUND=    6.790
INTER + INTRA:          -4.204
INTER:                  -4.204
INTRA:                   0.000
UNBOUND:                 0.000

$$$$
