
     RDKit          3D

109114  0  0  0  0  0  0  0  0999 V2000
   50.2397    6.7315   12.7120 O   0  0  0  0  0  0  0  0  0  0  0  0
   50.0280    7.9204   13.4880 C   0  0  2  0  0  0  0  0  0  0  0  0
   49.7031    7.4493   14.9134 C   0  0  0  0  0  0  0  0  0  0  0  0
   49.3752    8.5641   15.9088 C   0  0  2  0  0  0  0  0  0  0  0  0
   50.4530    9.4874   16.0271 O   0  0  0  0  0  0  0  0  0  0  0  0
   49.1556    8.0052   17.2833 C   0  0  0  0  0  0  0  0  0  0  0  0
   47.9577    7.9492   17.8851 C   0  0  0  0  0  0  0  0  0  0  0  0
   47.8006    7.4480   19.2632 C   0  0  0  0  0  0  0  0  0  0  0  0
   47.8265    6.0687   19.5324 C   0  0  0  0  0  0  0  0  0  0  0  0
   47.6635    5.5999   20.7998 N   0  0  0  0  0  0  0  0  0  0  0  0
   47.4966    6.4504   21.8192 C   0  0  0  0  0  0  0  0  0  0  0  0
   47.3538    5.9144   23.0915 C   0  0  0  0  0  0  0  0  0  0  0  0
   47.1987    6.7179   24.2237 C   0  0  0  0  0  0  0  0  0  0  0  0
   47.1732    8.0967   24.0817 C   0  0  0  0  0  0  0  0  0  0  0  0
   47.3005    8.6558   22.8111 C   0  0  0  0  0  0  0  0  0  0  0  0
   47.4618    7.8474   21.6560 C   0  0  0  0  0  0  0  0  0  0  0  0
   47.6036    8.3569   20.3347 C   0  0  0  0  0  0  0  0  0  0  0  0
   47.5357    9.8142   20.0753 C   0  0  0  0  0  0  0  0  0  0  0  0
   46.2917   10.4615   19.9784 C   0  0  0  0  0  0  0  0  0  0  0  0
   46.2225   11.8298   19.7097 C   0  0  0  0  0  0  0  0  0  0  0  0
   47.3970   12.5524   19.5371 C   0  0  0  0  0  0  0  0  0  0  0  0
   47.3292   13.8659   19.2782 F   0  0  0  0  0  0  0  0  0  0  0  0
   48.6387   11.9387   19.6260 C   0  0  0  0  0  0  0  0  0  0  0  0
   48.7068   10.5708   19.8961 C   0  0  0  0  0  0  0  0  0  0  0  0
   47.9919    5.0329   18.4320 C   0  0  0  0  0  0  0  0  0  0  0  0
   48.5275    3.6517   18.7366 C   0  0  0  0  0  0  0  0  0  0  0  0
   49.3803    4.6244   17.9839 C   0  0  0  0  0  0  0  0  0  0  0  0
   48.9145    8.7459   12.8555 C   0  0  0  0  0  0  0  0  0  0  0  0
   49.4777    9.3716   11.5833 C   0  0  0  0  0  0  0  0  0  0  0  0
   49.9446    8.5372   10.7539 O   0  0  0  0  0  0  0  0  0  0  0  0
   49.4196   10.6302   11.5347 O   0  0  0  0  0  0  0  0  0  0  0  0
   48.3984    8.0743   18.1409 Mg  0  0  0  0  0 15  0  0  0  0  0  0
   48.8090    7.9301   12.1727 O   0  0  0  0  0  0  0  0  0  0  0  0
   48.6037    8.9291   13.1829 C   0  0  2  0  0  0  0  0  0  0  0  0
   48.3819    8.2219   14.5296 C   0  0  0  0  0  0  0  0  0  0  0  0
   48.1396    9.1668   15.7081 C   0  0  2  0  0  0  0  0  0  0  0  0
   49.2872    9.9944   15.9170 O   0  0  0  0  0  0  0  0  0  0  0  0
   47.8604    8.3839   16.9625 C   0  0  0  0  0  0  0  0  0  0  0  0
   48.7378    8.1537   17.9518 C   0  0  0  0  0  0  0  0  0  0  0  0
   48.4061    7.3960   19.1726 C   0  0  0  0  0  0  0  0  0  0  0  0
   47.9717    6.0583   19.1139 C   0  0  0  0  0  0  0  0  0  0  0  0
   47.6619    5.3666   20.2445 N   0  0  0  0  0  0  0  0  0  0  0  0
   47.7833    5.9482   21.4423 C   0  0  0  0  0  0  0  0  0  0  0  0
   47.4465    5.1951   22.5586 C   0  0  0  0  0  0  0  0  0  0  0  0
   47.5414    5.7051   23.8550 C   0  0  0  0  0  0  0  0  0  0  0  0
   47.9854    7.0035   24.0447 C   0  0  0  0  0  0  0  0  0  0  0  0
   48.3269    7.7783   22.9367 C   0  0  0  0  0  0  0  0  0  0  0  0
   48.2332    7.2691   21.6149 C   0  0  0  0  0  0  0  0  0  0  0  0
   48.5596    8.0088   20.4435 C   0  0  0  0  0  0  0  0  0  0  0  0
   49.0522    9.4005   20.5601 C   0  0  0  0  0  0  0  0  0  0  0  0
   50.4082    9.6553   20.8354 C   0  0  0  0  0  0  0  0  0  0  0  0
   50.8757   10.9648   20.9515 C   0  0  0  0  0  0  0  0  0  0  0  0
   49.9884   12.0237   20.7975 C   0  0  0  0  0  0  0  0  0  0  0  0
   50.4369   13.2792   20.9168 F   0  0  0  0  0  0  0  0  0  0  0  0
   48.6449   11.7999   20.5236 C   0  0  0  0  0  0  0  0  0  0  0  0
   48.1779   10.4899   20.4062 C   0  0  0  0  0  0  0  0  0  0  0  0
   47.8111    5.2958   17.8109 C   0  0  0  0  0  0  0  0  0  0  0  0
   48.2900    3.8621   17.7106 C   0  0  0  0  0  0  0  0  0  0  0  0
   49.0178    4.9450   16.9726 C   0  0  0  0  0  0  0  0  0  0  0  0
   47.4990    9.8849   12.7413 C   0  0  0  0  0  0  0  0  0  0  0  0
   46.1445    9.1865   12.7287 C   0  0  0  0  0  0  0  0  0  0  0  0
   46.1385    8.0454   12.1765 O   0  0  0  0  0  0  0  0  0  0  0  0
   45.2135    9.8212   13.2895 O   0  0  0  0  0  0  0  0  0  0  0  0
   50.2927    7.0599   11.7779 H   0  0  0  0  0  0  0  0  0  0  0  0
   50.9735    8.4700   13.4912 H   0  0  0  0  0  0  0  0  0  0  0  0
   50.5689    6.8823   15.2746 H   0  0  0  0  0  0  0  0  0  0  0  0
   48.8788    6.7256   14.8699 H   0  0  0  0  0  0  0  0  0  0  0  0
   48.4799    9.1170   15.6019 H   0  0  0  0  0  0  0  0  0  0  0  0
   50.4374   10.0382   15.2282 H   0  0  0  0  0  0  0  0  0  0  0  0
   50.0469    7.6416   17.7852 H   0  0  0  0  0  0  0  0  0  0  0  0
   47.0628    8.3235   17.3996 H   0  0  0  0  0  0  0  0  0  0  0  0
   47.3732    4.8323   23.2016 H   0  0  0  0  0  0  0  0  0  0  0  0
   47.1000    6.2563   25.2013 H   0  0  0  0  0  0  0  0  0  0  0  0
   47.0557    8.7368   24.9531 H   0  0  0  0  0  0  0  0  0  0  0  0
   47.2826    9.7407   22.7274 H   0  0  0  0  0  0  0  0  0  0  0  0
   45.3723    9.8892   20.1120 H   0  0  0  0  0  0  0  0  0  0  0  0
   45.2614   12.3232   19.6237 H   0  0  0  0  0  0  0  0  0  0  0  0
   49.5467   12.5117   19.4698 H   0  0  0  0  0  0  0  0  0  0  0  0
   49.6789   10.0887   19.9457 H   0  0  0  0  0  0  0  0  0  0  0  0
   47.2245    5.0678   17.6631 H   0  0  0  0  0  0  0  0  0  0  0  0
   48.1012    2.8194   18.1930 H   0  0  0  0  0  0  0  0  0  0  0  0
   48.8145    3.4124   19.7523 H   0  0  0  0  0  0  0  0  0  0  0  0
   49.5372    4.4617   16.9227 H   0  0  0  0  0  0  0  0  0  0  0  0
   50.2379    5.0459   18.5001 H   0  0  0  0  0  0  0  0  0  0  0  0
   48.5665    9.5539   13.5125 H   0  0  0  0  0  0  0  0  0  0  0  0
   48.0518    8.1247   12.5923 H   0  0  0  0  0  0  0  0  0  0  0  0
   47.8944    7.6107   11.9586 H   0  0  0  0  0  0  0  0  0  0  0  0
   49.5435    9.4957   13.2322 H   0  0  0  0  0  0  0  0  0  0  0  0
   49.2767    7.6149   14.7304 H   0  0  0  0  0  0  0  0  0  0  0  0
   47.5599    7.4988   14.4430 H   0  0  0  0  0  0  0  0  0  0  0  0
   47.2790    9.8214   15.5259 H   0  0  0  0  0  0  0  0  0  0  0  0
   49.2317   10.7028   15.2526 H   0  0  0  0  0  0  0  0  0  0  0  0
   46.8481    7.9963   17.0312 H   0  0  0  0  0  0  0  0  0  0  0  0
   49.7453    8.5564   17.8929 H   0  0  0  0  0  0  0  0  0  0  0  0
   47.0987    4.1753   22.4102 H   0  0  0  0  0  0  0  0  0  0  0  0
   47.2653    5.0862   24.7030 H   0  0  0  0  0  0  0  0  0  0  0  0
   48.0637    7.4202   25.0458 H   0  0  0  0  0  0  0  0  0  0  0  0
   48.6708    8.7963   23.1123 H   0  0  0  0  0  0  0  0  0  0  0  0
   51.1060    8.8282   20.9474 H   0  0  0  0  0  0  0  0  0  0  0  0
   51.9230   11.1587   21.1566 H   0  0  0  0  0  0  0  0  0  0  0  0
   47.9709   12.6404   20.3974 H   0  0  0  0  0  0  0  0  0  0  0  0
   47.1289   10.3152   20.1828 H   0  0  0  0  0  0  0  0  0  0  0  0
   46.8954    5.5128   17.2652 H   0  0  0  0  0  0  0  0  0  0  0  0
   47.6805    3.1659   17.1438 H   0  0  0  0  0  0  0  0  0  0  0  0
   48.7808    3.4157   18.5666 H   0  0  0  0  0  0  0  0  0  0  0  0
   48.9040    4.9980   15.8960 H   0  0  0  0  0  0  0  0  0  0  0  0
   49.9998    5.2336   17.3297 H   0  0  0  0  0  0  0  0  0  0  0  0
   47.6863   10.2383   11.7192 H   0  0  0  0  0  0  0  0  0  0  0  0
   47.4664   10.7671   13.3892 H   0  0  0  0  0  0  0  0  0  0  0  0
  2  1  1  0
  2  3  1  0
  3  4  1  0
  4  5  1  0
  4  6  1  0
  6  7  2  0
  7  8  1  0
  8  9  2  0
  9 10  1  0
 10 11  2  0
 11 12  1  0
 12 13  2  0
 13 14  1  0
 14 15  2  0
 15 16  1  0
 11 16  1  0
 16 17  2  0
  8 17  1  0
 17 18  1  0
 18 19  2  0
 19 20  1  0
 20 21  2  0
 21 22  1  0
 21 23  1  0
 23 24  2  0
 18 24  1  0
  9 25  1  0
 25 26  1  0
 26 27  1  0
 25 27  1  0
  2 28  1  0
 28 29  1  0
 29 30  2  0
 29 31  1  0
 34 33  1  0
 34 35  1  0
 35 36  1  0
 36 37  1  0
 36 38  1  0
 38 39  2  0
 39 40  1  0
 40 41  2  0
 41 42  1  0
 42 43  2  0
 43 44  1  0
 44 45  2  0
 45 46  1  0
 46 47  2  0
 47 48  1  0
 43 48  1  0
 48 49  2  0
 40 49  1  0
 49 50  1  0
 50 51  2  0
 51 52  1  0
 52 53  2  0
 53 54  1  0
 53 55  1  0
 55 56  2  0
 50 56  1  0
 41 57  1  0
 57 58  1  0
 58 59  1  0
 57 59  1  0
 34 60  1  0
 60 61  1  0
 61 62  2  0
 61 63  1  0
  1 64  1  0
  2 65  1  1
  3 66  1  0
  3 67  1  0
  4 68  1  6
  5 69  1  0
  6 70  1  0
  7 71  1  0
 12 72  1  0
 13 73  1  0
 14 74  1  0
 15 75  1  0
 19 76  1  0
 20 77  1  0
 23 78  1  0
 24 79  1  0
 25 80  1  0
 26 81  1  0
 26 82  1  0
 27 83  1  0
 27 84  1  0
 28 85  1  0
 28 86  1  0
 33 87  1  0
 34 88  1  1
 35 89  1  0
 35 90  1  0
 36 91  1  6
 37 92  1  0
 38 93  1  0
 39 94  1  0
 44 95  1  0
 45 96  1  0
 46 97  1  0
 47 98  1  0
 51 99  1  0
 52100  1  0
 55101  1  0
 56102  1  0
 57103  1  0
 58104  1  0
 58105  1  0
 59106  1  0
 59107  1  0
 60108  1  0
 60109  1  0
M  CHG  3  31  -1  32   2  63  -1
M  END
> <Uni-Dock RESULT> 
ENERGY=   -8.222  LOWER_BOUND=    0.000  UPPER_BOUND=    0.000
INTER + INTRA:          -8.222
INTER:                  -8.222
INTRA:                   0.000
UNBOUND:                 0.000

$$$$

     RDKit          3D

109114  0  0  0  0  0  0  0  0999 V2000
   46.3960   15.6661    9.1759 O   0  0  0  0  0  0  0  0  0  0  0  0
   47.4696   15.0414    9.8953 C   0  0  2  0  0  0  0  0  0  0  0  0
   46.9869   13.6246   10.2401 C   0  0  0  0  0  0  0  0  0  0  0  0
   47.9612   12.7894   11.0733 C   0  0  2  0  0  0  0  0  0  0  0  0
   49.2122   12.6370   10.4101 O   0  0  0  0  0  0  0  0  0  0  0  0
   47.4314   11.4019   11.2827 C   0  0  0  0  0  0  0  0  0  0  0  0
   46.9836   10.9424   12.4612 C   0  0  0  0  0  0  0  0  0  0  0  0
   46.5301    9.5496   12.6331 C   0  0  0  0  0  0  0  0  0  0  0  0
   45.2658    9.1445   12.1714 C   0  0  0  0  0  0  0  0  0  0  0  0
   44.8348    7.8651   12.3440 N   0  0  0  0  0  0  0  0  0  0  0  0
   45.6210    6.9612   12.9402 C   0  0  0  0  0  0  0  0  0  0  0  0
   45.1347    5.6679   13.0715 C   0  0  0  0  0  0  0  0  0  0  0  0
   45.8870    4.6466   13.6568 C   0  0  0  0  0  0  0  0  0  0  0  0
   47.1573    4.9259   14.1363 C   0  0  0  0  0  0  0  0  0  0  0  0
   47.6597    6.2216   14.0276 C   0  0  0  0  0  0  0  0  0  0  0  0
   46.9040    7.2643   13.4316 C   0  0  0  0  0  0  0  0  0  0  0  0
   47.3627    8.6036   13.2848 C   0  0  0  0  0  0  0  0  0  0  0  0
   48.6853    9.0117   13.8138 C   0  0  0  0  0  0  0  0  0  0  0  0
   48.8419    9.3174   15.1769 C   0  0  0  0  0  0  0  0  0  0  0  0
   50.0806    9.7260   15.6749 C   0  0  0  0  0  0  0  0  0  0  0  0
   51.1639    9.8298   14.8107 C   0  0  0  0  0  0  0  0  0  0  0  0
   52.3524   10.2232   15.2899 F   0  0  0  0  0  0  0  0  0  0  0  0
   51.0374    9.5356   13.4602 C   0  0  0  0  0  0  0  0  0  0  0  0
   49.7989    9.1257   12.9635 C   0  0  0  0  0  0  0  0  0  0  0  0
   44.3021   10.1103   11.5009 C   0  0  0  0  0  0  0  0  0  0  0  0
   43.2192    9.6102   10.5711 C   0  0  0  0  0  0  0  0  0  0  0  0
   44.3919   10.3497   10.0076 C   0  0  0  0  0  0  0  0  0  0  0  0
   47.8117   15.8786   11.1214 C   0  0  0  0  0  0  0  0  0  0  0  0
   48.5312   17.1313   10.6312 C   0  0  0  0  0  0  0  0  0  0  0  0
   47.8764   17.8137    9.7900 O   0  0  0  0  0  0  0  0  0  0  0  0
   49.6827   17.3103   11.1130 O   0  0  0  0  0  0  0  0  0  0  0  0
   47.2702   10.6501   12.1328 Mg  0  0  0  0  0 15  0  0  0  0  0  0
   46.9781   16.4852   10.8384 O   0  0  0  0  0  0  0  0  0  0  0  0
   47.8887   15.6097   11.5202 C   0  0  2  0  0  0  0  0  0  0  0  0
   47.2184   14.2353   11.6765 C   0  0  0  0  0  0  0  0  0  0  0  0
   48.0739   13.1924   12.3982 C   0  0  2  0  0  0  0  0  0  0  0  0
   49.2650   12.9327   11.6503 O   0  0  0  0  0  0  0  0  0  0  0  0
   47.3078   11.9084   12.5680 C   0  0  0  0  0  0  0  0  0  0  0  0
   47.4553   10.8050   11.8182 C   0  0  0  0  0  0  0  0  0  0  0  0
   46.6924    9.5629   12.0406 C   0  0  0  0  0  0  0  0  0  0  0  0
   45.2865    9.5400   11.9727 C   0  0  0  0  0  0  0  0  0  0  0  0
   44.5883    8.3910   12.1845 N   0  0  0  0  0  0  0  0  0  0  0  0
   45.2351    7.2504   12.4463 C   0  0  0  0  0  0  0  0  0  0  0  0
   44.4693    6.1127   12.6599 C   0  0  0  0  0  0  0  0  0  0  0  0
   45.0449    4.8708   12.9358 C   0  0  0  0  0  0  0  0  0  0  0  0
   46.4242    4.7592   13.0002 C   0  0  0  0  0  0  0  0  0  0  0  0
   47.2123    5.8903   12.7909 C   0  0  0  0  0  0  0  0  0  0  0  0
   46.6366    7.1573   12.5106 C   0  0  0  0  0  0  0  0  0  0  0  0
   47.3835    8.3494   12.2940 C   0  0  0  0  0  0  0  0  0  0  0  0
   48.8633    8.3136   12.3349 C   0  0  0  0  0  0  0  0  0  0  0  0
   49.5975    7.9074   11.2056 C   0  0  0  0  0  0  0  0  0  0  0  0
   50.9917    7.8668   11.2414 C   0  0  0  0  0  0  0  0  0  0  0  0
   51.6564    8.2277   12.4077 C   0  0  0  0  0  0  0  0  0  0  0  0
   52.9937    8.1810   12.4429 F   0  0  0  0  0  0  0  0  0  0  0  0
   50.9557    8.6342   13.5364 C   0  0  0  0  0  0  0  0  0  0  0  0
   49.5611    8.6759   13.4998 C   0  0  0  0  0  0  0  0  0  0  0  0
   44.4515   10.7713   11.6695 C   0  0  0  0  0  0  0  0  0  0  0  0
   43.2788   10.6727   10.7156 C   0  0  0  0  0  0  0  0  0  0  0  0
   44.5108   11.4232   10.3082 C   0  0  0  0  0  0  0  0  0  0  0  0
   48.3653   16.2702   12.8108 C   0  0  0  0  0  0  0  0  0  0  0  0
   47.2311   16.3729   13.8236 C   0  0  0  0  0  0  0  0  0  0  0  0
   46.1359   16.8066   13.3549 O   0  0  0  0  0  0  0  0  0  0  0  0
   47.5208   15.9907   14.9872 O   0  0  0  0  0  0  0  0  0  0  0  0
   46.6737   16.6153    9.1050 H   0  0  0  0  0  0  0  0  0  0  0  0
   48.3190   14.9813    9.2090 H   0  0  0  0  0  0  0  0  0  0  0  0
   46.7841   13.1100    9.2937 H   0  0  0  0  0  0  0  0  0  0  0  0
   46.0161   13.6930   10.7480 H   0  0  0  0  0  0  0  0  0  0  0  0
   48.1431   13.2524   12.0501 H   0  0  0  0  0  0  0  0  0  0  0  0
   49.6801   13.4825   10.4993 H   0  0  0  0  0  0  0  0  0  0  0  0
   47.4346   10.7653   10.4034 H   0  0  0  0  0  0  0  0  0  0  0  0
   46.9899   11.5642   13.3499 H   0  0  0  0  0  0  0  0  0  0  0  0
   44.1373    5.4501   12.6956 H   0  0  0  0  0  0  0  0  0  0  0  0
   45.4707    3.6466   13.7303 H   0  0  0  0  0  0  0  0  0  0  0  0
   47.7572    4.1417   14.5926 H   0  0  0  0  0  0  0  0  0  0  0  0
   48.6615    6.4134   14.4070 H   0  0  0  0  0  0  0  0  0  0  0  0
   47.9876    9.2370   15.8509 H   0  0  0  0  0  0  0  0  0  0  0  0
   50.1947    9.9726   16.7241 H   0  0  0  0  0  0  0  0  0  0  0  0
   51.8872    9.6397   12.7937 H   0  0  0  0  0  0  0  0  0  0  0  0
   49.6973    8.9149   11.9028 H   0  0  0  0  0  0  0  0  0  0  0  0
   44.0226   10.9638   12.1132 H   0  0  0  0  0  0  0  0  0  0  0  0
   42.2632   10.1153   10.6002 H   0  0  0  0  0  0  0  0  0  0  0  0
   43.1495    8.5492   10.3694 H   0  0  0  0  0  0  0  0  0  0  0  0
   44.2419   11.3639    9.6523 H   0  0  0  0  0  0  0  0  0  0  0  0
   45.1166    9.7804    9.4328 H   0  0  0  0  0  0  0  0  0  0  0  0
   48.4753   15.3500   11.8183 H   0  0  0  0  0  0  0  0  0  0  0  0
   46.9117   16.1788   11.6685 H   0  0  0  0  0  0  0  0  0  0  0  0
   46.3439   16.7728   11.5451 H   0  0  0  0  0  0  0  0  0  0  0  0
   48.7543   15.5064   10.8518 H   0  0  0  0  0  0  0  0  0  0  0  0
   46.9804   13.8718   10.6661 H   0  0  0  0  0  0  0  0  0  0  0  0
   46.2467   14.3461   12.1762 H   0  0  0  0  0  0  0  0  0  0  0  0
   48.3694   13.5381   13.3958 H   0  0  0  0  0  0  0  0  0  0  0  0
   49.8726   13.6657   11.8504 H   0  0  0  0  0  0  0  0  0  0  0  0
   46.5895   11.9212   13.3827 H   0  0  0  0  0  0  0  0  0  0  0  0
   48.1866   10.7845   11.0146 H   0  0  0  0  0  0  0  0  0  0  0  0
   43.3863    6.1996   12.6085 H   0  0  0  0  0  0  0  0  0  0  0  0
   44.4122    4.0042   13.1006 H   0  0  0  0  0  0  0  0  0  0  0  0
   46.8918    3.8018   13.2165 H   0  0  0  0  0  0  0  0  0  0  0  0
   48.2936    5.7768   12.8492 H   0  0  0  0  0  0  0  0  0  0  0  0
   49.0795    7.6331   10.2890 H   0  0  0  0  0  0  0  0  0  0  0  0
   51.5557    7.5602   10.3671 H   0  0  0  0  0  0  0  0  0  0  0  0
   51.4939    8.9210   14.4335 H   0  0  0  0  0  0  0  0  0  0  0  0
   49.0136    9.0027   14.3797 H   0  0  0  0  0  0  0  0  0  0  0  0
   44.3005   11.4395   12.5145 H   0  0  0  0  0  0  0  0  0  0  0  0
   42.3835   11.2357   10.9581 H   0  0  0  0  0  0  0  0  0  0  0  0
   43.0803    9.7251   10.2302 H   0  0  0  0  0  0  0  0  0  0  0  0
   44.4650   12.5057   10.2761 H   0  0  0  0  0  0  0  0  0  0  0  0
   45.1476   10.9834    9.5491 H   0  0  0  0  0  0  0  0  0  0  0  0
   48.7097   17.2930   12.6114 H   0  0  0  0  0  0  0  0  0  0  0  0
   49.2099   15.7208   13.2397 H   0  0  0  0  0  0  0  0  0  0  0  0
  2  1  1  0
  2  3  1  0
  3  4  1  0
  4  5  1  0
  4  6  1  0
  6  7  2  0
  7  8  1  0
  8  9  2  0
  9 10  1  0
 10 11  2  0
 11 12  1  0
 12 13  2  0
 13 14  1  0
 14 15  2  0
 15 16  1  0
 11 16  1  0
 16 17  2  0
  8 17  1  0
 17 18  1  0
 18 19  2  0
 19 20  1  0
 20 21  2  0
 21 22  1  0
 21 23  1  0
 23 24  2  0
 18 24  1  0
  9 25  1  0
 25 26  1  0
 26 27  1  0
 25 27  1  0
  2 28  1  0
 28 29  1  0
 29 30  2  0
 29 31  1  0
 34 33  1  0
 34 35  1  0
 35 36  1  0
 36 37  1  0
 36 38  1  0
 38 39  2  0
 39 40  1  0
 40 41  2  0
 41 42  1  0
 42 43  2  0
 43 44  1  0
 44 45  2  0
 45 46  1  0
 46 47  2  0
 47 48  1  0
 43 48  1  0
 48 49  2  0
 40 49  1  0
 49 50  1  0
 50 51  2  0
 51 52  1  0
 52 53  2  0
 53 54  1  0
 53 55  1  0
 55 56  2  0
 50 56  1  0
 41 57  1  0
 57 58  1  0
 58 59  1  0
 57 59  1  0
 34 60  1  0
 60 61  1  0
 61 62  2  0
 61 63  1  0
  1 64  1  0
  2 65  1  1
  3 66  1  0
  3 67  1  0
  4 68  1  6
  5 69  1  0
  6 70  1  0
  7 71  1  0
 12 72  1  0
 13 73  1  0
 14 74  1  0
 15 75  1  0
 19 76  1  0
 20 77  1  0
 23 78  1  0
 24 79  1  0
 25 80  1  0
 26 81  1  0
 26 82  1  0
 27 83  1  0
 27 84  1  0
 28 85  1  0
 28 86  1  0
 33 87  1  0
 34 88  1  1
 35 89  1  0
 35 90  1  0
 36 91  1  6
 37 92  1  0
 38 93  1  0
 39 94  1  0
 44 95  1  0
 45 96  1  0
 46 97  1  0
 47 98  1  0
 51 99  1  0
 52100  1  0
 55101  1  0
 56102  1  0
 57103  1  0
 58104  1  0
 58105  1  0
 59106  1  0
 59107  1  0
 60108  1  0
 60109  1  0
M  CHG  3  31  -1  32   2  63  -1
M  END
> <Uni-Dock RESULT> 
ENERGY=   -7.668  LOWER_BOUND=    5.573  UPPER_BOUND=    8.469
INTER + INTRA:          -7.668
INTER:                  -7.668
INTRA:                   0.000
UNBOUND:                 0.000

$$$$

     RDKit          3D

109114  0  0  0  0  0  0  0  0999 V2000
   48.6506   12.3395   14.0450 O   0  0  0  0  0  0  0  0  0  0  0  0
   49.0474   10.9687   14.1996 C   0  0  2  0  0  0  0  0  0  0  0  0
   48.6745   10.5743   15.6364 C   0  0  0  0  0  0  0  0  0  0  0  0
   49.0701    9.1540   16.0453 C   0  0  2  0  0  0  0  0  0  0  0  0
   48.4699    8.1829   15.1939 O   0  0  0  0  0  0  0  0  0  0  0  0
   48.5887    8.8436   17.4316 C   0  0  0  0  0  0  0  0  0  0  0  0
   49.3985    8.7209   18.4944 C   0  0  0  0  0  0  0  0  0  0  0  0
   48.8850    8.3528   19.8270 C   0  0  0  0  0  0  0  0  0  0  0  0
   48.2307    9.3019   20.6312 C   0  0  0  0  0  0  0  0  0  0  0  0
   47.7713    8.9726   21.8693 N   0  0  0  0  0  0  0  0  0  0  0  0
   47.9166    7.7266   22.3352 C   0  0  0  0  0  0  0  0  0  0  0  0
   47.4117    7.4454   23.5971 C   0  0  0  0  0  0  0  0  0  0  0  0
   47.4915    6.1705   24.1626 C   0  0  0  0  0  0  0  0  0  0  0  0
   48.1036    5.1484   23.4537 C   0  0  0  0  0  0  0  0  0  0  0  0
   48.6303    5.4124   22.1905 C   0  0  0  0  0  0  0  0  0  0  0  0
   48.5509    6.7035   21.6069 C   0  0  0  0  0  0  0  0  0  0  0  0
   49.0622    7.0345   20.3206 C   0  0  0  0  0  0  0  0  0  0  0  0
   49.7800    6.0233   19.5096 C   0  0  0  0  0  0  0  0  0  0  0  0
   51.1354    5.7450   19.7580 C   0  0  0  0  0  0  0  0  0  0  0  0
   51.8223    4.8108   18.9803 C   0  0  0  0  0  0  0  0  0  0  0  0
   51.1551    4.1542   17.9532 C   0  0  0  0  0  0  0  0  0  0  0  0
   51.8160    3.2583   17.2066 F   0  0  0  0  0  0  0  0  0  0  0  0
   49.8176    4.4105   17.6850 C   0  0  0  0  0  0  0  0  0  0  0  0
   49.1313    5.3436   18.4640 C   0  0  0  0  0  0  0  0  0  0  0  0
   48.0401   10.7436   20.1880 C   0  0  0  0  0  0  0  0  0  0  0  0
   46.9358   11.5977   20.7697 C   0  0  0  0  0  0  0  0  0  0  0  0
   46.8333   11.1226   19.3542 C   0  0  0  0  0  0  0  0  0  0  0  0
   50.5361   10.8365   13.9034 C   0  0  0  0  0  0  0  0  0  0  0  0
   50.7153   10.9828   12.3955 C   0  0  0  0  0  0  0  0  0  0  0  0
   50.2566   12.0614   11.9178 O   0  0  0  0  0  0  0  0  0  0  0  0
   51.2775   10.0082   11.8262 O   0  0  0  0  0  0  0  0  0  0  0  0
   48.9857    8.4070   18.4142 Mg  0  0  0  0  0 15  0  0  0  0  0  0
   50.5282   11.9012   13.8077 O   0  0  0  0  0  0  0  0  0  0  0  0
   50.7681   10.5470   14.2192 C   0  0  2  0  0  0  0  0  0  0  0  0
   50.2393   10.3722   15.6519 C   0  0  0  0  0  0  0  0  0  0  0  0
   50.4346    8.9700   16.2318 C   0  0  2  0  0  0  0  0  0  0  0  0
   49.7071    8.0133   15.4567 O   0  0  0  0  0  0  0  0  0  0  0  0
   49.9552    8.9178   17.6572 C   0  0  0  0  0  0  0  0  0  0  0  0
   48.7874    8.4015   18.0708 C   0  0  0  0  0  0  0  0  0  0  0  0
   48.3741    8.3563   19.4856 C   0  0  0  0  0  0  0  0  0  0  0  0
   48.2388    9.5298   20.2513 C   0  0  0  0  0  0  0  0  0  0  0  0
   47.8623    9.4802   21.5582 N   0  0  0  0  0  0  0  0  0  0  0  0
   47.5956    8.3045   22.1364 C   0  0  0  0  0  0  0  0  0  0  0  0
   47.2228    8.3166   23.4734 C   0  0  0  0  0  0  0  0  0  0  0  0
   46.9184    7.1455   24.1703 C   0  0  0  0  0  0  0  0  0  0  0  0
   46.9871    5.9266   23.5156 C   0  0  0  0  0  0  0  0  0  0  0  0
   47.3618    5.8916   22.1729 C   0  0  0  0  0  0  0  0  0  0  0  0
   47.6738    7.0765   21.4560 C   0  0  0  0  0  0  0  0  0  0  0  0
   48.0683    7.1085   20.0888 C   0  0  0  0  0  0  0  0  0  0  0  0
   48.1560    5.8496   19.3140 C   0  0  0  0  0  0  0  0  0  0  0  0
   47.0019    5.2835   18.7420 C   0  0  0  0  0  0  0  0  0  0  0  0
   47.0789    4.0947   18.0158 C   0  0  0  0  0  0  0  0  0  0  0  0
   48.3089    3.4653   17.8629 C   0  0  0  0  0  0  0  0  0  0  0  0
   48.3798    2.3208   17.1725 F   0  0  0  0  0  0  0  0  0  0  0  0
   49.4639    4.0037   18.4160 C   0  0  0  0  0  0  0  0  0  0  0  0
   49.3868    5.1938   19.1413 C   0  0  0  0  0  0  0  0  0  0  0  0
   48.5023   10.9174   19.6942 C   0  0  0  0  0  0  0  0  0  0  0  0
   47.5584   12.0555   20.0239 C   0  0  0  0  0  0  0  0  0  0  0  0
   47.6018   11.5020   18.6315 C   0  0  0  0  0  0  0  0  0  0  0  0
   52.2383   10.1988   14.0035 C   0  0  0  0  0  0  0  0  0  0  0  0
   53.1302   10.9696   14.9694 C   0  0  0  0  0  0  0  0  0  0  0  0
   52.8659   12.2055   15.0678 O   0  0  0  0  0  0  0  0  0  0  0  0
   53.9965   10.2755   15.5625 O   0  0  0  0  0  0  0  0  0  0  0  0
   49.0401   12.6061   13.1730 H   0  0  0  0  0  0  0  0  0  0  0  0
   48.4512   10.3840   13.4935 H   0  0  0  0  0  0  0  0  0  0  0  0
   47.5892   10.6923   15.7356 H   0  0  0  0  0  0  0  0  0  0  0  0
   49.1112   11.3040   16.3307 H   0  0  0  0  0  0  0  0  0  0  0  0
   50.1574    9.0204   16.0077 H   0  0  0  0  0  0  0  0  0  0  0  0
   48.9619    8.2030   14.3576 H   0  0  0  0  0  0  0  0  0  0  0  0
   47.5157    8.7133   17.5329 H   0  0  0  0  0  0  0  0  0  0  0  0
   50.4734    8.8337   18.4024 H   0  0  0  0  0  0  0  0  0  0  0  0
   46.9323    8.2484   24.1527 H   0  0  0  0  0  0  0  0  0  0  0  0
   47.0744    5.9927   25.1490 H   0  0  0  0  0  0  0  0  0  0  0  0
   48.1719    4.1494   23.8784 H   0  0  0  0  0  0  0  0  0  0  0  0
   49.1010    4.5917   21.6527 H   0  0  0  0  0  0  0  0  0  0  0  0
   51.6555    6.2652   20.5639 H   0  0  0  0  0  0  0  0  0  0  0  0
   52.8703    4.6076   19.1669 H   0  0  0  0  0  0  0  0  0  0  0  0
   49.3149    3.9043   16.8674 H   0  0  0  0  0  0  0  0  0  0  0  0
   48.0901    5.5571   18.2398 H   0  0  0  0  0  0  0  0  0  0  0  0
   48.9644   11.2734   19.9726 H   0  0  0  0  0  0  0  0  0  0  0  0
   47.1515   12.6434   20.9428 H   0  0  0  0  0  0  0  0  0  0  0  0
   46.2628   11.1618   21.4965 H   0  0  0  0  0  0  0  0  0  0  0  0
   46.9814   11.8415   18.5551 H   0  0  0  0  0  0  0  0  0  0  0  0
   46.0942   10.3582   19.1325 H   0  0  0  0  0  0  0  0  0  0  0  0
   50.9387    9.8606   14.2056 H   0  0  0  0  0  0  0  0  0  0  0  0
   51.1181   11.6162   14.4061 H   0  0  0  0  0  0  0  0  0  0  0  0
   51.2578   12.4178   14.2380 H   0  0  0  0  0  0  0  0  0  0  0  0
   50.1684    9.9229   13.5428 H   0  0  0  0  0  0  0  0  0  0  0  0
   49.1657   10.6104   15.6345 H   0  0  0  0  0  0  0  0  0  0  0  0
   50.6884   11.1260   16.3124 H   0  0  0  0  0  0  0  0  0  0  0  0
   51.4913    8.6778   16.2251 H   0  0  0  0  0  0  0  0  0  0  0  0
   50.2515    7.8353   14.6703 H   0  0  0  0  0  0  0  0  0  0  0  0
   50.6493    9.3410   18.3777 H   0  0  0  0  0  0  0  0  0  0  0  0
   48.1003    7.9613   17.3533 H   0  0  0  0  0  0  0  0  0  0  0  0
   47.1678    9.2734   23.9876 H   0  0  0  0  0  0  0  0  0  0  0  0
   46.6340    7.1953   25.2167 H   0  0  0  0  0  0  0  0  0  0  0  0
   46.7567    5.0032   24.0411 H   0  0  0  0  0  0  0  0  0  0  0  0
   47.4105    4.9211   21.6818 H   0  0  0  0  0  0  0  0  0  0  0  0
   46.0398    5.7792   18.8528 H   0  0  0  0  0  0  0  0  0  0  0  0
   46.1889    3.6641   17.5696 H   0  0  0  0  0  0  0  0  0  0  0  0
   50.4156    3.5019   18.2769 H   0  0  0  0  0  0  0  0  0  0  0  0
   50.2918    5.6196   19.5660 H   0  0  0  0  0  0  0  0  0  0  0  0
   49.5526   11.1944   19.6375 H   0  0  0  0  0  0  0  0  0  0  0  0
   47.9926   13.0326   20.2087 H   0  0  0  0  0  0  0  0  0  0  0  0
   46.6808   11.8475   20.6236 H   0  0  0  0  0  0  0  0  0  0  0  0
   48.0725   12.0969   17.8573 H   0  0  0  0  0  0  0  0  0  0  0  0
   46.7555   10.9175   18.2890 H   0  0  0  0  0  0  0  0  0  0  0  0
   52.5511   10.4759   12.9887 H   0  0  0  0  0  0  0  0  0  0  0  0
   52.4023    9.1214   14.1112 H   0  0  0  0  0  0  0  0  0  0  0  0
  2  1  1  0
  2  3  1  0
  3  4  1  0
  4  5  1  0
  4  6  1  0
  6  7  2  0
  7  8  1  0
  8  9  2  0
  9 10  1  0
 10 11  2  0
 11 12  1  0
 12 13  2  0
 13 14  1  0
 14 15  2  0
 15 16  1  0
 11 16  1  0
 16 17  2  0
  8 17  1  0
 17 18  1  0
 18 19  2  0
 19 20  1  0
 20 21  2  0
 21 22  1  0
 21 23  1  0
 23 24  2  0
 18 24  1  0
  9 25  1  0
 25 26  1  0
 26 27  1  0
 25 27  1  0
  2 28  1  0
 28 29  1  0
 29 30  2  0
 29 31  1  0
 34 33  1  0
 34 35  1  0
 35 36  1  0
 36 37  1  0
 36 38  1  0
 38 39  2  0
 39 40  1  0
 40 41  2  0
 41 42  1  0
 42 43  2  0
 43 44  1  0
 44 45  2  0
 45 46  1  0
 46 47  2  0
 47 48  1  0
 43 48  1  0
 48 49  2  0
 40 49  1  0
 49 50  1  0
 50 51  2  0
 51 52  1  0
 52 53  2  0
 53 54  1  0
 53 55  1  0
 55 56  2  0
 50 56  1  0
 41 57  1  0
 57 58  1  0
 58 59  1  0
 57 59  1  0
 34 60  1  0
 60 61  1  0
 61 62  2  0
 61 63  1  0
  1 64  1  0
  2 65  1  1
  3 66  1  0
  3 67  1  0
  4 68  1  6
  5 69  1  0
  6 70  1  0
  7 71  1  0
 12 72  1  0
 13 73  1  0
 14 74  1  0
 15 75  1  0
 19 76  1  0
 20 77  1  0
 23 78  1  0
 24 79  1  0
 25 80  1  0
 26 81  1  0
 26 82  1  0
 27 83  1  0
 27 84  1  0
 28 85  1  0
 28 86  1  0
 33 87  1  0
 34 88  1  1
 35 89  1  0
 35 90  1  0
 36 91  1  6
 37 92  1  0
 38 93  1  0
 39 94  1  0
 44 95  1  0
 45 96  1  0
 46 97  1  0
 47 98  1  0
 51 99  1  0
 52100  1  0
 55101  1  0
 56102  1  0
 57103  1  0
 58104  1  0
 58105  1  0
 59106  1  0
 59107  1  0
 60108  1  0
 60109  1  0
M  CHG  3  31  -1  32   2  63  -1
M  END
> <Uni-Dock RESULT> 
ENERGY=   -7.464  LOWER_BOUND=    2.691  UPPER_BOUND=    5.234
INTER + INTRA:          -7.464
INTER:                  -7.464
INTRA:                   0.000
UNBOUND:                 0.000

$$$$

     RDKit          3D

109114  0  0  0  0  0  0  0  0999 V2000
   46.4876    9.7279   18.7676 O   0  0  0  0  0  0  0  0  0  0  0  0
   47.8270    9.7383   19.2836 C   0  0  2  0  0  0  0  0  0  0  0  0
   48.4449    8.3858   18.8986 C   0  0  0  0  0  0  0  0  0  0  0  0
   49.8681    8.1512   19.4090 C   0  0  2  0  0  0  0  0  0  0  0  0
   50.7621    9.1515   18.9312 O   0  0  0  0  0  0  0  0  0  0  0  0
   50.4054    6.8427   18.9102 C   0  0  0  0  0  0  0  0  0  0  0  0
   50.6015    5.7687   19.6903 C   0  0  0  0  0  0  0  0  0  0  0  0
   51.1914    4.5225   19.1666 C   0  0  0  0  0  0  0  0  0  0  0  0
   50.4214    3.6310   18.3999 C   0  0  0  0  0  0  0  0  0  0  0  0
   50.9554    2.4707   17.9298 N   0  0  0  0  0  0  0  0  0  0  0  0
   52.2359    2.1683   18.1731 C   0  0  0  0  0  0  0  0  0  0  0  0
   52.7297    0.9801   17.6525 C   0  0  0  0  0  0  0  0  0  0  0  0
   54.0581    0.5860   17.8297 C   0  0  0  0  0  0  0  0  0  0  0  0
   54.9168    1.3948   18.5579 C   0  0  0  0  0  0  0  0  0  0  0  0
   54.4380    2.5855   19.1019 C   0  0  0  0  0  0  0  0  0  0  0  0
   53.0911    2.9954   18.9241 C   0  0  0  0  0  0  0  0  0  0  0  0
   52.5444    4.2008   19.4473 C   0  0  0  0  0  0  0  0  0  0  0  0
   53.3692    5.1043   20.2833 C   0  0  0  0  0  0  0  0  0  0  0  0
   53.5604    4.8316   21.6490 C   0  0  0  0  0  0  0  0  0  0  0  0
   54.3164    5.6933   22.4459 C   0  0  0  0  0  0  0  0  0  0  0  0
   54.8819    6.8289   21.8784 C   0  0  0  0  0  0  0  0  0  0  0  0
   55.6067    7.6560   22.6449 F   0  0  0  0  0  0  0  0  0  0  0  0
   54.7083    7.1233   20.5332 C   0  0  0  0  0  0  0  0  0  0  0  0
   53.9534    6.2603   19.7369 C   0  0  0  0  0  0  0  0  0  0  0  0
   48.9546    3.8871   18.0927 C   0  0  0  0  0  0  0  0  0  0  0  0
   48.2870    3.2497   16.8947 C   0  0  0  0  0  0  0  0  0  0  0  0
   48.5714    4.7190   16.8859 C   0  0  0  0  0  0  0  0  0  0  0  0
   47.7880    9.9791   20.7875 C   0  0  0  0  0  0  0  0  0  0  0  0
   47.4221   11.4440   21.0051 C   0  0  0  0  0  0  0  0  0  0  0  0
   46.3322   11.7952   20.4658 O   0  0  0  0  0  0  0  0  0  0  0  0
   48.2573   12.1107   21.6742 O   0  0  0  0  0  0  0  0  0  0  0  0
   50.9361    5.9093   19.3112 Mg  0  0  0  0  0 15  0  0  0  0  0  0
   46.7249    9.9327   20.6848 O   0  0  0  0  0  0  0  0  0  0  0  0
   48.0967    9.6940   21.0341 C   0  0  2  0  0  0  0  0  0  0  0  0
   48.5108    8.3237   20.4739 C   0  0  0  0  0  0  0  0  0  0  0  0
   49.9568    7.9268   20.7773 C   0  0  2  0  0  0  0  0  0  0  0  0
   50.8581    8.8556   20.1687 O   0  0  0  0  0  0  0  0  0  0  0  0
   50.2446    6.5451   20.2553 C   0  0  0  0  0  0  0  0  0  0  0  0
   50.9118    6.2593   19.1264 C   0  0  0  0  0  0  0  0  0  0  0  0
   51.1856    4.8841   18.6699 C   0  0  0  0  0  0  0  0  0  0  0  0
   50.1439    3.9765   18.4002 C   0  0  0  0  0  0  0  0  0  0  0  0
   50.4040    2.7069   17.9844 N   0  0  0  0  0  0  0  0  0  0  0  0
   51.6663    2.3033   17.8073 C   0  0  0  0  0  0  0  0  0  0  0  0
   51.8694    0.9956   17.3884 C   0  0  0  0  0  0  0  0  0  0  0  0
   53.1467    0.4757   17.1692 C   0  0  0  0  0  0  0  0  0  0  0  0
   54.2541    1.2826   17.3729 C   0  0  0  0  0  0  0  0  0  0  0  0
   54.0727    2.5990   17.7959 C   0  0  0  0  0  0  0  0  0  0  0  0
   52.7784    3.1365   18.0221 C   0  0  0  0  0  0  0  0  0  0  0  0
   52.5259    4.4672   18.4596 C   0  0  0  0  0  0  0  0  0  0  0  0
   53.6547    5.3975   18.6900 C   0  0  0  0  0  0  0  0  0  0  0  0
   54.2352    6.0934   17.6138 C   0  0  0  0  0  0  0  0  0  0  0  0
   55.3025    6.9667   17.8254 C   0  0  0  0  0  0  0  0  0  0  0  0
   55.7962    7.1438   19.1129 C   0  0  0  0  0  0  0  0  0  0  0  0
   56.8250    7.9762   19.3131 F   0  0  0  0  0  0  0  0  0  0  0  0
   55.2402    6.4703   20.1933 C   0  0  0  0  0  0  0  0  0  0  0  0
   54.1716    5.5977   19.9814 C   0  0  0  0  0  0  0  0  0  0  0  0
   48.6756    4.3311   18.5538 C   0  0  0  0  0  0  0  0  0  0  0  0
   47.6794    3.8979   17.4980 C   0  0  0  0  0  0  0  0  0  0  0  0
   48.0316    5.3478   17.6410 C   0  0  0  0  0  0  0  0  0  0  0  0
   48.2835    9.8845   22.5367 C   0  0  0  0  0  0  0  0  0  0  0  0
   47.5775    8.7839   23.3194 C   0  0  0  0  0  0  0  0  0  0  0  0
   46.3942    8.5346   22.9390 O   0  0  0  0  0  0  0  0  0  0  0  0
   48.2683    8.2482   24.2248 O   0  0  0  0  0  0  0  0  0  0  0  0
   46.0716   10.5374   19.1611 H   0  0  0  0  0  0  0  0  0  0  0  0
   48.3592   10.5432   18.7688 H   0  0  0  0  0  0  0  0  0  0  0  0
   48.4361    8.3231   17.8043 H   0  0  0  0  0  0  0  0  0  0  0  0
   47.7818    7.5810   19.2416 H   0  0  0  0  0  0  0  0  0  0  0  0
   49.9005    8.1550   20.5047 H   0  0  0  0  0  0  0  0  0  0  0  0
   50.5853    9.9536   19.4480 H   0  0  0  0  0  0  0  0  0  0  0  0
   50.6409    6.8102   17.8509 H   0  0  0  0  0  0  0  0  0  0  0  0
   50.3845    5.7942   20.7527 H   0  0  0  0  0  0  0  0  0  0  0  0
   52.0547    0.3458   17.0819 H   0  0  0  0  0  0  0  0  0  0  0  0
   54.4045   -0.3473   17.3967 H   0  0  0  0  0  0  0  0  0  0  0  0
   55.9547    1.1039   18.7032 H   0  0  0  0  0  0  0  0  0  0  0  0
   55.1337    3.2049   19.6647 H   0  0  0  0  0  0  0  0  0  0  0  0
   53.1120    3.9401   22.0904 H   0  0  0  0  0  0  0  0  0  0  0  0
   54.4516    5.4862   23.5011 H   0  0  0  0  0  0  0  0  0  0  0  0
   55.1396    8.0236   20.1082 H   0  0  0  0  0  0  0  0  0  0  0  0
   53.8023    6.5030   18.6890 H   0  0  0  0  0  0  0  0  0  0  0  0
   48.3223    3.9864   18.9711 H   0  0  0  0  0  0  0  0  0  0  0  0
   47.2600    2.9292   17.0068 H   0  0  0  0  0  0  0  0  0  0  0  0
   48.8749    2.6198   16.2397 H   0  0  0  0  0  0  0  0  0  0  0  0
   47.7399    5.4076   16.9949 H   0  0  0  0  0  0  0  0  0  0  0  0
   49.3594    5.0749   16.2287 H   0  0  0  0  0  0  0  0  0  0  0  0
   48.7574    9.7906   21.2677 H   0  0  0  0  0  0  0  0  0  0  0  0
   47.0368    9.3503   21.2771 H   0  0  0  0  0  0  0  0  0  0  0  0
   46.2106    9.4036   21.3481 H   0  0  0  0  0  0  0  0  0  0  0  0
   48.6722   10.4748   20.5185 H   0  0  0  0  0  0  0  0  0  0  0  0
   48.3664    8.3598   19.3842 H   0  0  0  0  0  0  0  0  0  0  0  0
   47.8182    7.5484   20.8282 H   0  0  0  0  0  0  0  0  0  0  0  0
   50.1527    7.9226   21.8561 H   0  0  0  0  0  0  0  0  0  0  0  0
   50.8791    9.6322   20.7544 H   0  0  0  0  0  0  0  0  0  0  0  0
   49.8653    5.7429   20.8818 H   0  0  0  0  0  0  0  0  0  0  0  0
   51.3078    7.0605   18.5082 H   0  0  0  0  0  0  0  0  0  0  0  0
   51.0002    0.3620   17.2275 H   0  0  0  0  0  0  0  0  0  0  0  0
   53.2652   -0.5535   16.8450 H   0  0  0  0  0  0  0  0  0  0  0  0
   55.2571    0.8960   17.2105 H   0  0  0  0  0  0  0  0  0  0  0  0
   54.9591    3.2119   17.9511 H   0  0  0  0  0  0  0  0  0  0  0  0
   53.8446    5.9630   16.6068 H   0  0  0  0  0  0  0  0  0  0  0  0
   55.7436    7.5076   16.9951 H   0  0  0  0  0  0  0  0  0  0  0  0
   55.6339    6.6299   21.1914 H   0  0  0  0  0  0  0  0  0  0  0  0
   53.7309    5.0780   20.8279 H   0  0  0  0  0  0  0  0  0  0  0  0
   48.3035    4.3010   19.5755 H   0  0  0  0  0  0  0  0  0  0  0  0
   46.7028    3.5646   17.8335 H   0  0  0  0  0  0  0  0  0  0  0  0
   48.0426    3.3732   16.6230 H   0  0  0  0  0  0  0  0  0  0  0  0
   47.2979    6.0131   18.0816 H   0  0  0  0  0  0  0  0  0  0  0  0
   48.6349    5.8045   16.8647 H   0  0  0  0  0  0  0  0  0  0  0  0
   47.8442   10.8377   22.8579 H   0  0  0  0  0  0  0  0  0  0  0  0
   49.3471    9.9134   22.7955 H   0  0  0  0  0  0  0  0  0  0  0  0
  2  1  1  0
  2  3  1  0
  3  4  1  0
  4  5  1  0
  4  6  1  0
  6  7  2  0
  7  8  1  0
  8  9  2  0
  9 10  1  0
 10 11  2  0
 11 12  1  0
 12 13  2  0
 13 14  1  0
 14 15  2  0
 15 16  1  0
 11 16  1  0
 16 17  2  0
  8 17  1  0
 17 18  1  0
 18 19  2  0
 19 20  1  0
 20 21  2  0
 21 22  1  0
 21 23  1  0
 23 24  2  0
 18 24  1  0
  9 25  1  0
 25 26  1  0
 26 27  1  0
 25 27  1  0
  2 28  1  0
 28 29  1  0
 29 30  2  0
 29 31  1  0
 34 33  1  0
 34 35  1  0
 35 36  1  0
 36 37  1  0
 36 38  1  0
 38 39  2  0
 39 40  1  0
 40 41  2  0
 41 42  1  0
 42 43  2  0
 43 44  1  0
 44 45  2  0
 45 46  1  0
 46 47  2  0
 47 48  1  0
 43 48  1  0
 48 49  2  0
 40 49  1  0
 49 50  1  0
 50 51  2  0
 51 52  1  0
 52 53  2  0
 53 54  1  0
 53 55  1  0
 55 56  2  0
 50 56  1  0
 41 57  1  0
 57 58  1  0
 58 59  1  0
 57 59  1  0
 34 60  1  0
 60 61  1  0
 61 62  2  0
 61 63  1  0
  1 64  1  0
  2 65  1  1
  3 66  1  0
  3 67  1  0
  4 68  1  6
  5 69  1  0
  6 70  1  0
  7 71  1  0
 12 72  1  0
 13 73  1  0
 14 74  1  0
 15 75  1  0
 19 76  1  0
 20 77  1  0
 23 78  1  0
 24 79  1  0
 25 80  1  0
 26 81  1  0
 26 82  1  0
 27 83  1  0
 27 84  1  0
 28 85  1  0
 28 86  1  0
 33 87  1  0
 34 88  1  1
 35 89  1  0
 35 90  1  0
 36 91  1  6
 37 92  1  0
 38 93  1  0
 39 94  1  0
 44 95  1  0
 45 96  1  0
 46 97  1  0
 47 98  1  0
 51 99  1  0
 52100  1  0
 55101  1  0
 56102  1  0
 57103  1  0
 58104  1  0
 58105  1  0
 59106  1  0
 59107  1  0
 60108  1  0
 60109  1  0
M  CHG  3  31  -1  32   2  63  -1
M  END
> <Uni-Dock RESULT> 
ENERGY=   -6.986  LOWER_BOUND=    4.349  UPPER_BOUND=    7.411
INTER + INTRA:          -6.986
INTER:                  -6.986
INTRA:                   0.000
UNBOUND:                 0.000

$$$$

     RDKit          3D

109114  0  0  0  0  0  0  0  0999 V2000
   50.7414   13.2966   12.6153 O   0  0  0  0  0  0  0  0  0  0  0  0
   50.7298   13.0809   14.0343 C   0  0  2  0  0  0  0  0  0  0  0  0
   50.3330   11.6115   14.2409 C   0  0  0  0  0  0  0  0  0  0  0  0
   50.1948   11.1734   15.7004 C   0  0  2  0  0  0  0  0  0  0  0  0
   51.4104   11.3654   16.4170 O   0  0  0  0  0  0  0  0  0  0  0  0
   49.8873    9.7081   15.7913 C   0  0  0  0  0  0  0  0  0  0  0  0
   48.6972    9.2157   16.1675 C   0  0  0  0  0  0  0  0  0  0  0  0
   48.4609    7.7661   16.3023 C   0  0  0  0  0  0  0  0  0  0  0  0
   48.2590    6.9634   15.1664 C   0  0  0  0  0  0  0  0  0  0  0  0
   48.0221    5.6284   15.2861 N   0  0  0  0  0  0  0  0  0  0  0  0
   47.9990    5.0513   16.4931 C   0  0  0  0  0  0  0  0  0  0  0  0
   47.7710    3.6834   16.5513 C   0  0  0  0  0  0  0  0  0  0  0  0
   47.7519    2.9836   17.7602 C   0  0  0  0  0  0  0  0  0  0  0  0
   47.9543    3.6700   18.9475 C   0  0  0  0  0  0  0  0  0  0  0  0
   48.1708    5.0466   18.9131 C   0  0  0  0  0  0  0  0  0  0  0  0
   48.1952    5.7650   17.6896 C   0  0  0  0  0  0  0  0  0  0  0  0
   48.4179    7.1670   17.5877 C   0  0  0  0  0  0  0  0  0  0  0  0
   48.5913    7.9951   18.8041 C   0  0  0  0  0  0  0  0  0  0  0  0
   47.4711    8.4268   19.5355 C   0  0  0  0  0  0  0  0  0  0  0  0
   47.6286    9.2276   20.6683 C   0  0  0  0  0  0  0  0  0  0  0  0
   48.9061    9.5980   21.0709 C   0  0  0  0  0  0  0  0  0  0  0  0
   49.0559   10.3677   22.1581 F   0  0  0  0  0  0  0  0  0  0  0  0
   50.0295    9.1873   20.3669 C   0  0  0  0  0  0  0  0  0  0  0  0
   49.8711    8.3854   19.2352 C   0  0  0  0  0  0  0  0  0  0  0  0
   48.2499    7.5400   13.7598 C   0  0  0  0  0  0  0  0  0  0  0  0
   48.5504    6.6703   12.5595 C   0  0  0  0  0  0  0  0  0  0  0  0
   49.5513    7.6923   12.9992 C   0  0  0  0  0  0  0  0  0  0  0  0
   49.7672   14.0647   14.6878 C   0  0  0  0  0  0  0  0  0  0  0  0
   50.4247   15.4406   14.6468 C   0  0  0  0  0  0  0  0  0  0  0  0
   50.7465   15.8308   13.4866 O   0  0  0  0  0  0  0  0  0  0  0  0
   50.5753   15.9956   15.7690 O   0  0  0  0  0  0  0  0  0  0  0  0
   49.1528    9.0032   16.3179 Mg  0  0  0  0  0 15  0  0  0  0  0  0
   49.5278   14.3665   13.6906 O   0  0  0  0  0  0  0  0  0  0  0  0
   49.4913   13.8602   15.0333 C   0  0  2  0  0  0  0  0  0  0  0  0
   49.1571   12.3607   14.9797 C   0  0  0  0  0  0  0  0  0  0  0  0
   49.0754   11.6813   16.3480 C   0  0  2  0  0  0  0  0  0  0  0  0
   50.3442   11.7475   17.0048 O   0  0  0  0  0  0  0  0  0  0  0  0
   48.6721   10.2395   16.1971 C   0  0  0  0  0  0  0  0  0  0  0  0
   49.5004    9.1853   16.2609 C   0  0  0  0  0  0  0  0  0  0  0  0
   49.0494    7.7878   16.1270 C   0  0  0  0  0  0  0  0  0  0  0  0
   48.4000    7.3316   14.9643 C   0  0  0  0  0  0  0  0  0  0  0  0
   47.9814    6.0416   14.8498 N   0  0  0  0  0  0  0  0  0  0  0  0
   48.1984    5.1741   15.8438 C   0  0  0  0  0  0  0  0  0  0  0  0
   47.7430    3.8742   15.6722 C   0  0  0  0  0  0  0  0  0  0  0  0
   47.9222    2.8896   16.6460 C   0  0  0  0  0  0  0  0  0  0  0  0
   48.5747    3.2097   17.8253 C   0  0  0  0  0  0  0  0  0  0  0  0
   49.0383    4.5104   18.0192 C   0  0  0  0  0  0  0  0  0  0  0  0
   48.8604    5.5184   17.0355 C   0  0  0  0  0  0  0  0  0  0  0  0
   49.3034    6.8640   17.1742 C   0  0  0  0  0  0  0  0  0  0  0  0
   50.0192    7.2851   18.4002 C   0  0  0  0  0  0  0  0  0  0  0  0
   51.3989    7.0462   18.5370 C   0  0  0  0  0  0  0  0  0  0  0  0
   52.0763    7.4363   19.6927 C   0  0  0  0  0  0  0  0  0  0  0  0
   51.3759    8.0622   20.7174 C   0  0  0  0  0  0  0  0  0  0  0  0
   52.0257    8.4290   21.8286 F   0  0  0  0  0  0  0  0  0  0  0  0
   50.0137    8.3115   20.6072 C   0  0  0  0  0  0  0  0  0  0  0  0
   49.3365    7.9223   19.4504 C   0  0  0  0  0  0  0  0  0  0  0  0
   48.1143    8.2249   13.7704 C   0  0  0  0  0  0  0  0  0  0  0  0
   48.3498    7.7074   12.3662 C   0  0  0  0  0  0  0  0  0  0  0  0
   49.2456    8.7687   12.9301 C   0  0  0  0  0  0  0  0  0  0  0  0
   48.5591   14.7216   15.8807 C   0  0  0  0  0  0  0  0  0  0  0  0
   47.1079   14.5419   15.4515 C   0  0  0  0  0  0  0  0  0  0  0  0
   46.9129   14.5870   14.1997 O   0  0  0  0  0  0  0  0  0  0  0  0
   46.2951   14.3474   16.3926 O   0  0  0  0  0  0  0  0  0  0  0  0
   50.8470   14.2781   12.5217 H   0  0  0  0  0  0  0  0  0  0  0  0
   51.7530   13.2364   14.3875 H   0  0  0  0  0  0  0  0  0  0  0  0
   51.0936   10.9959   13.7469 H   0  0  0  0  0  0  0  0  0  0  0  0
   49.4004   11.4146   13.6962 H   0  0  0  0  0  0  0  0  0  0  0  0
   49.4027   11.7356   16.2083 H   0  0  0  0  0  0  0  0  0  0  0  0
   51.4851   12.3176   16.5893 H   0  0  0  0  0  0  0  0  0  0  0  0
   50.7068    9.0442   15.5339 H   0  0  0  0  0  0  0  0  0  0  0  0
   47.8759    9.8691   16.4417 H   0  0  0  0  0  0  0  0  0  0  0  0
   47.6115    3.1459   15.6190 H   0  0  0  0  0  0  0  0  0  0  0  0
   47.5793    1.9117   17.7584 H   0  0  0  0  0  0  0  0  0  0  0  0
   47.9450    3.1400   19.8971 H   0  0  0  0  0  0  0  0  0  0  0  0
   48.3322    5.5610   19.8585 H   0  0  0  0  0  0  0  0  0  0  0  0
   46.4700    8.1355   19.2138 H   0  0  0  0  0  0  0  0  0  0  0  0
   46.7621    9.5686   21.2227 H   0  0  0  0  0  0  0  0  0  0  0  0
   51.0195    9.5002   20.6818 H   0  0  0  0  0  0  0  0  0  0  0  0
   50.7503    8.0814   18.6744 H   0  0  0  0  0  0  0  0  0  0  0  0
   47.4980    8.3071   13.5935 H   0  0  0  0  0  0  0  0  0  0  0  0
   47.9919    6.8598   11.6529 H   0  0  0  0  0  0  0  0  0  0  0  0
   48.7949    5.6275   12.7152 H   0  0  0  0  0  0  0  0  0  0  0  0
   49.6781    8.5853   12.3960 H   0  0  0  0  0  0  0  0  0  0  0  0
   50.4673    7.3338   13.4598 H   0  0  0  0  0  0  0  0  0  0  0  0
   49.5581   13.8133   15.7360 H   0  0  0  0  0  0  0  0  0  0  0  0
   48.8136   14.1122   14.1515 H   0  0  0  0  0  0  0  0  0  0  0  0
   48.5728   14.4942   13.4540 H   0  0  0  0  0  0  0  0  0  0  0  0
   50.5118   13.9808   15.4216 H   0  0  0  0  0  0  0  0  0  0  0  0
   49.9397   11.8735   14.3798 H   0  0  0  0  0  0  0  0  0  0  0  0
   48.2269   12.2033   14.4175 H   0  0  0  0  0  0  0  0  0  0  0  0
   48.3346   12.1684   16.9930 H   0  0  0  0  0  0  0  0  0  0  0  0
   50.4057   12.6430   17.3799 H   0  0  0  0  0  0  0  0  0  0  0  0
   47.6097   10.0879   16.0293 H   0  0  0  0  0  0  0  0  0  0  0  0
   50.5606    9.3342   16.4471 H   0  0  0  0  0  0  0  0  0  0  0  0
   47.2314    3.6221   14.7460 H   0  0  0  0  0  0  0  0  0  0  0  0
   47.5486    1.8846   16.4765 H   0  0  0  0  0  0  0  0  0  0  0  0
   48.7218    2.4583   18.5971 H   0  0  0  0  0  0  0  0  0  0  0  0
   49.5458    4.7371   18.9554 H   0  0  0  0  0  0  0  0  0  0  0  0
   51.9506    6.5646   17.7325 H   0  0  0  0  0  0  0  0  0  0  0  0
   53.1415    7.2576   19.7927 H   0  0  0  0  0  0  0  0  0  0  0  0
   49.4875    8.8100   21.4144 H   0  0  0  0  0  0  0  0  0  0  0  0
   48.2729    8.1256   19.3606 H   0  0  0  0  0  0  0  0  0  0  0  0
   47.2465    8.8713   13.8815 H   0  0  0  0  0  0  0  0  0  0  0  0
   47.6331    7.9851   11.6003 H   0  0  0  0  0  0  0  0  0  0  0  0
   48.7610    6.7136   12.2394 H   0  0  0  0  0  0  0  0  0  0  0  0
   49.1411    9.7806   12.5556 H   0  0  0  0  0  0  0  0  0  0  0  0
   50.2622    8.4937   13.1872 H   0  0  0  0  0  0  0  0  0  0  0  0
   48.8012   15.7845   15.7535 H   0  0  0  0  0  0  0  0  0  0  0  0
   48.6733   14.4874   16.9443 H   0  0  0  0  0  0  0  0  0  0  0  0
  2  1  1  0
  2  3  1  0
  3  4  1  0
  4  5  1  0
  4  6  1  0
  6  7  2  0
  7  8  1  0
  8  9  2  0
  9 10  1  0
 10 11  2  0
 11 12  1  0
 12 13  2  0
 13 14  1  0
 14 15  2  0
 15 16  1  0
 11 16  1  0
 16 17  2  0
  8 17  1  0
 17 18  1  0
 18 19  2  0
 19 20  1  0
 20 21  2  0
 21 22  1  0
 21 23  1  0
 23 24  2  0
 18 24  1  0
  9 25  1  0
 25 26  1  0
 26 27  1  0
 25 27  1  0
  2 28  1  0
 28 29  1  0
 29 30  2  0
 29 31  1  0
 34 33  1  0
 34 35  1  0
 35 36  1  0
 36 37  1  0
 36 38  1  0
 38 39  2  0
 39 40  1  0
 40 41  2  0
 41 42  1  0
 42 43  2  0
 43 44  1  0
 44 45  2  0
 45 46  1  0
 46 47  2  0
 47 48  1  0
 43 48  1  0
 48 49  2  0
 40 49  1  0
 49 50  1  0
 50 51  2  0
 51 52  1  0
 52 53  2  0
 53 54  1  0
 53 55  1  0
 55 56  2  0
 50 56  1  0
 41 57  1  0
 57 58  1  0
 58 59  1  0
 57 59  1  0
 34 60  1  0
 60 61  1  0
 61 62  2  0
 61 63  1  0
  1 64  1  0
  2 65  1  1
  3 66  1  0
  3 67  1  0
  4 68  1  6
  5 69  1  0
  6 70  1  0
  7 71  1  0
 12 72  1  0
 13 73  1  0
 14 74  1  0
 15 75  1  0
 19 76  1  0
 20 77  1  0
 23 78  1  0
 24 79  1  0
 25 80  1  0
 26 81  1  0
 26 82  1  0
 27 83  1  0
 27 84  1  0
 28 85  1  0
 28 86  1  0
 33 87  1  0
 34 88  1  1
 35 89  1  0
 35 90  1  0
 36 91  1  6
 37 92  1  0
 38 93  1  0
 39 94  1  0
 44 95  1  0
 45 96  1  0
 46 97  1  0
 47 98  1  0
 51 99  1  0
 52100  1  0
 55101  1  0
 56102  1  0
 57103  1  0
 58104  1  0
 58105  1  0
 59106  1  0
 59107  1  0
 60108  1  0
 60109  1  0
M  CHG  3  31  -1  32   2  63  -1
M  END
> <Uni-Dock RESULT> 
ENERGY=   -6.613  LOWER_BOUND=    2.868  UPPER_BOUND=    5.015
INTER + INTRA:          -6.613
INTER:                  -6.613
INTRA:                   0.000
UNBOUND:                 0.000

$$$$

     RDKit          3D

109114  0  0  0  0  0  0  0  0999 V2000
   39.8657    9.2638   11.4185 O   0  0  0  0  0  0  0  0  0  0  0  0
   40.4075   10.4994   10.9286 C   0  0  2  0  0  0  0  0  0  0  0  0
   41.9351   10.3536   10.9952 C   0  0  0  0  0  0  0  0  0  0  0  0
   42.7266   11.5935   10.5742 C   0  0  2  0  0  0  0  0  0  0  0  0
   42.4179   11.9770    9.2379 O   0  0  0  0  0  0  0  0  0  0  0  0
   44.2011   11.3188   10.5963 C   0  0  0  0  0  0  0  0  0  0  0  0
   45.0447   11.8371   11.5019 C   0  0  0  0  0  0  0  0  0  0  0  0
   46.4973   11.5881   11.4457 C   0  0  0  0  0  0  0  0  0  0  0  0
   47.0324   10.3626   11.8787 C   0  0  0  0  0  0  0  0  0  0  0  0
   48.3739   10.1344   11.8464 N   0  0  0  0  0  0  0  0  0  0  0  0
   49.2080   11.0705   11.3791 C   0  0  0  0  0  0  0  0  0  0  0  0
   50.5637   10.7737   11.3535 C   0  0  0  0  0  0  0  0  0  0  0  0
   51.5126   11.6734   10.8622 C   0  0  0  0  0  0  0  0  0  0  0  0
   51.0989   12.9107   10.3935 C   0  0  0  0  0  0  0  0  0  0  0  0
   49.7436   13.2350   10.4232 C   0  0  0  0  0  0  0  0  0  0  0  0
   48.7724   12.3260   10.9174 C   0  0  0  0  0  0  0  0  0  0  0  0
   47.3756   12.5946   10.9677 C   0  0  0  0  0  0  0  0  0  0  0  0
   46.8428   13.9090   10.5389 C   0  0  0  0  0  0  0  0  0  0  0  0
   46.8847   15.0113   11.4103 C   0  0  0  0  0  0  0  0  0  0  0  0
   46.3616   16.2454   11.0195 C   0  0  0  0  0  0  0  0  0  0  0  0
   45.7957   16.3787    9.7572 C   0  0  0  0  0  0  0  0  0  0  0  0
   45.2929   17.5638    9.3836 F   0  0  0  0  0  0  0  0  0  0  0  0
   45.7398   15.3069    8.8773 C   0  0  0  0  0  0  0  0  0  0  0  0
   46.2644   14.0738    9.2684 C   0  0  0  0  0  0  0  0  0  0  0  0
   46.1593    9.2526   12.4415 C   0  0  0  0  0  0  0  0  0  0  0  0
   46.6190    7.8120   12.4172 C   0  0  0  0  0  0  0  0  0  0  0  0
   45.5170    8.2504   11.5044 C   0  0  0  0  0  0  0  0  0  0  0  0
   39.8733   11.6540   11.7671 C   0  0  0  0  0  0  0  0  0  0  0  0
   38.4089   11.8525   11.3885 C   0  0  0  0  0  0  0  0  0  0  0  0
   37.6884   10.8220   11.5326 O   0  0  0  0  0  0  0  0  0  0  0  0
   38.1162   13.0048   10.9683 O   0  0  0  0  0  0  0  0  0  0  0  0
   45.1685   11.7872   10.9943 Mg  0  0  0  0  0 15  0  0  0  0  0  0
   39.4120   10.8980   12.3659 O   0  0  0  0  0  0  0  0  0  0  0  0
   40.2151   11.9831   11.8777 C   0  0  2  0  0  0  0  0  0  0  0  0
   41.6939   11.5733   11.9668 C   0  0  0  0  0  0  0  0  0  0  0  0
   42.6768   12.6419   11.4846 C   0  0  2  0  0  0  0  0  0  0  0  0
   42.4592   12.9184   10.0983 O   0  0  0  0  0  0  0  0  0  0  0  0
   44.0954   12.1792   11.6791 C   0  0  0  0  0  0  0  0  0  0  0  0
   44.8986   11.6957   10.7186 C   0  0  0  0  0  0  0  0  0  0  0  0
   46.2912   11.2748   10.9590 C   0  0  0  0  0  0  0  0  0  0  0  0
   46.6038   10.2505   11.8727 C   0  0  0  0  0  0  0  0  0  0  0  0
   47.8920    9.8708   12.0937 N   0  0  0  0  0  0  0  0  0  0  0  0
   48.8899   10.4597   11.4264 C   0  0  0  0  0  0  0  0  0  0  0  0
   50.1829   10.0349   11.6990 C   0  0  0  0  0  0  0  0  0  0  0  0
   51.2953   10.5803   11.0548 C   0  0  0  0  0  0  0  0  0  0  0  0
   51.1139   11.5780   10.1110 C   0  0  0  0  0  0  0  0  0  0  0  0
   49.8233   12.0212    9.8237 C   0  0  0  0  0  0  0  0  0  0  0  0
   48.6862   11.4735   10.4736 C   0  0  0  0  0  0  0  0  0  0  0  0
   47.3455   11.8853   10.2309 C   0  0  0  0  0  0  0  0  0  0  0  0
   47.0646   12.9390    9.2290 C   0  0  0  0  0  0  0  0  0  0  0  0
   46.9835   12.6182    7.8616 C   0  0  0  0  0  0  0  0  0  0  0  0
   46.7245   13.6086    6.9136 C   0  0  0  0  0  0  0  0  0  0  0  0
   46.5505   14.9238    7.3289 C   0  0  0  0  0  0  0  0  0  0  0  0
   46.3097   15.8740    6.4175 F   0  0  0  0  0  0  0  0  0  0  0  0
   46.6239   15.2673    8.6730 C   0  0  0  0  0  0  0  0  0  0  0  0
   46.8817   14.2760    9.6212 C   0  0  0  0  0  0  0  0  0  0  0  0
   45.5512    9.5052   12.6737 C   0  0  0  0  0  0  0  0  0  0  0  0
   45.6473    8.0019   12.8332 C   0  0  0  0  0  0  0  0  0  0  0  0
   44.5636    8.5940   11.9837 C   0  0  0  0  0  0  0  0  0  0  0  0
   39.8344   13.2698   12.6047 C   0  0  0  0  0  0  0  0  0  0  0  0
   40.2573   13.2167   14.0679 C   0  0  0  0  0  0  0  0  0  0  0  0
   39.9662   12.1386   14.6679 O   0  0  0  0  0  0  0  0  0  0  0  0
   40.8623   14.2389   14.4841 O   0  0  0  0  0  0  0  0  0  0  0  0
   38.8950    9.4451   11.5079 H   0  0  0  0  0  0  0  0  0  0  0  0
   40.0942   10.5918    9.8849 H   0  0  0  0  0  0  0  0  0  0  0  0
   42.2104    9.5104   10.3511 H   0  0  0  0  0  0  0  0  0  0  0  0
   42.2198   10.0490   12.0107 H   0  0  0  0  0  0  0  0  0  0  0  0
   42.5125   12.4419   11.2345 H   0  0  0  0  0  0  0  0  0  0  0  0
   41.5453   12.4009    9.2639 H   0  0  0  0  0  0  0  0  0  0  0  0
   44.5634   10.6616    9.8119 H   0  0  0  0  0  0  0  0  0  0  0  0
   44.6966   12.5072   12.2806 H   0  0  0  0  0  0  0  0  0  0  0  0
   50.8872    9.8027   11.7225 H   0  0  0  0  0  0  0  0  0  0  0  0
   52.5622   11.3959   10.8522 H   0  0  0  0  0  0  0  0  0  0  0  0
   51.8245   13.6220   10.0053 H   0  0  0  0  0  0  0  0  0  0  0  0
   49.4444   14.2105   10.0446 H   0  0  0  0  0  0  0  0  0  0  0  0
   47.3277   14.9008   12.4014 H   0  0  0  0  0  0  0  0  0  0  0  0
   46.3847   17.0898   11.6985 H   0  0  0  0  0  0  0  0  0  0  0  0
   45.2775   15.4207    7.9022 H   0  0  0  0  0  0  0  0  0  0  0  0
   46.2018   13.2312    8.5857 H   0  0  0  0  0  0  0  0  0  0  0  0
   45.5831    9.5353   13.3186 H   0  0  0  0  0  0  0  0  0  0  0  0
   46.3629    7.1915   13.2652 H   0  0  0  0  0  0  0  0  0  0  0  0
   47.5762    7.5741   11.9717 H   0  0  0  0  0  0  0  0  0  0  0  0
   44.5036    7.9332   11.7273 H   0  0  0  0  0  0  0  0  0  0  0  0
   45.7387    8.3152   10.4431 H   0  0  0  0  0  0  0  0  0  0  0  0
   40.4092   12.5933   11.5771 H   0  0  0  0  0  0  0  0  0  0  0  0
   39.9353   11.4365   12.8386 H   0  0  0  0  0  0  0  0  0  0  0  0
   39.4699   10.9790   13.3530 H   0  0  0  0  0  0  0  0  0  0  0  0
   39.9436   12.0978   10.8195 H   0  0  0  0  0  0  0  0  0  0  0  0
   41.8181   10.6660   11.3575 H   0  0  0  0  0  0  0  0  0  0  0  0
   41.9367   11.2640   12.9922 H   0  0  0  0  0  0  0  0  0  0  0  0
   42.5532   13.5791   12.0400 H   0  0  0  0  0  0  0  0  0  0  0  0
   41.6911   13.5143   10.0609 H   0  0  0  0  0  0  0  0  0  0  0  0
   44.4585   12.2681   12.6990 H   0  0  0  0  0  0  0  0  0  0  0  0
   44.5429   11.6234    9.6943 H   0  0  0  0  0  0  0  0  0  0  0  0
   50.3258    9.2509   12.4392 H   0  0  0  0  0  0  0  0  0  0  0  0
   52.2915   10.2241   11.2976 H   0  0  0  0  0  0  0  0  0  0  0  0
   51.9671   12.0176    9.6004 H   0  0  0  0  0  0  0  0  0  0  0  0
   49.7076   12.8078    9.0799 H   0  0  0  0  0  0  0  0  0  0  0  0
   47.1106   11.5881    7.5353 H   0  0  0  0  0  0  0  0  0  0  0  0
   46.6552   13.3575    5.8606 H   0  0  0  0  0  0  0  0  0  0  0  0
   46.4755   16.2980    8.9772 H   0  0  0  0  0  0  0  0  0  0  0  0
   46.9299   14.5434   10.6734 H   0  0  0  0  0  0  0  0  0  0  0  0
   45.1825   10.0367   13.5483 H   0  0  0  0  0  0  0  0  0  0  0  0
   45.3805    7.5794   13.7964 H   0  0  0  0  0  0  0  0  0  0  0  0
   46.4508    7.4752   12.3332 H   0  0  0  0  0  0  0  0  0  0  0  0
   43.5492    8.5846   12.3658 H   0  0  0  0  0  0  0  0  0  0  0  0
   44.6340    8.4708   10.9089 H   0  0  0  0  0  0  0  0  0  0  0  0
   38.7457   13.4079   12.5911 H   0  0  0  0  0  0  0  0  0  0  0  0
   40.2785   14.1408   12.1115 H   0  0  0  0  0  0  0  0  0  0  0  0
  2  1  1  0
  2  3  1  0
  3  4  1  0
  4  5  1  0
  4  6  1  0
  6  7  2  0
  7  8  1  0
  8  9  2  0
  9 10  1  0
 10 11  2  0
 11 12  1  0
 12 13  2  0
 13 14  1  0
 14 15  2  0
 15 16  1  0
 11 16  1  0
 16 17  2  0
  8 17  1  0
 17 18  1  0
 18 19  2  0
 19 20  1  0
 20 21  2  0
 21 22  1  0
 21 23  1  0
 23 24  2  0
 18 24  1  0
  9 25  1  0
 25 26  1  0
 26 27  1  0
 25 27  1  0
  2 28  1  0
 28 29  1  0
 29 30  2  0
 29 31  1  0
 34 33  1  0
 34 35  1  0
 35 36  1  0
 36 37  1  0
 36 38  1  0
 38 39  2  0
 39 40  1  0
 40 41  2  0
 41 42  1  0
 42 43  2  0
 43 44  1  0
 44 45  2  0
 45 46  1  0
 46 47  2  0
 47 48  1  0
 43 48  1  0
 48 49  2  0
 40 49  1  0
 49 50  1  0
 50 51  2  0
 51 52  1  0
 52 53  2  0
 53 54  1  0
 53 55  1  0
 55 56  2  0
 50 56  1  0
 41 57  1  0
 57 58  1  0
 58 59  1  0
 57 59  1  0
 34 60  1  0
 60 61  1  0
 61 62  2  0
 61 63  1  0
  1 64  1  0
  2 65  1  1
  3 66  1  0
  3 67  1  0
  4 68  1  6
  5 69  1  0
  6 70  1  0
  7 71  1  0
 12 72  1  0
 13 73  1  0
 14 74  1  0
 15 75  1  0
 19 76  1  0
 20 77  1  0
 23 78  1  0
 24 79  1  0
 25 80  1  0
 26 81  1  0
 26 82  1  0
 27 83  1  0
 27 84  1  0
 28 85  1  0
 28 86  1  0
 33 87  1  0
 34 88  1  1
 35 89  1  0
 35 90  1  0
 36 91  1  6
 37 92  1  0
 38 93  1  0
 39 94  1  0
 44 95  1  0
 45 96  1  0
 46 97  1  0
 47 98  1  0
 51 99  1  0
 52100  1  0
 55101  1  0
 56102  1  0
 57103  1  0
 58104  1  0
 58105  1  0
 59106  1  0
 59107  1  0
 60108  1  0
 60109  1  0
M  CHG  3  31  -1  32   2  63  -1
M  END
> <Uni-Dock RESULT> 
ENERGY=   -6.551  LOWER_BOUND=    7.990  UPPER_BOUND=   10.714
INTER + INTRA:          -6.551
INTER:                  -6.551
INTRA:                   0.000
UNBOUND:                 0.000

$$$$

     RDKit          3D

109114  0  0  0  0  0  0  0  0999 V2000
   41.4682   15.6085    7.8535 O   0  0  0  0  0  0  0  0  0  0  0  0
   42.7931   15.8790    8.3349 C   0  0  2  0  0  0  0  0  0  0  0  0
   43.2969   14.5700    8.9611 C   0  0  0  0  0  0  0  0  0  0  0  0
   44.6838   14.6466    9.6028 C   0  0  2  0  0  0  0  0  0  0  0  0
   45.6714   15.0455    8.6574 O   0  0  0  0  0  0  0  0  0  0  0  0
   45.1135   13.3013   10.1082 C   0  0  0  0  0  0  0  0  0  0  0  0
   45.1992   12.9838   11.4091 C   0  0  0  0  0  0  0  0  0  0  0  0
   45.6871   11.6667   11.8591 C   0  0  0  0  0  0  0  0  0  0  0  0
   44.8566   10.5346   11.7976 C   0  0  0  0  0  0  0  0  0  0  0  0
   45.2953    9.3205   12.2289 N   0  0  0  0  0  0  0  0  0  0  0  0
   46.5394    9.1798   12.7012 C   0  0  0  0  0  0  0  0  0  0  0  0
   46.9366    7.9140   13.1092 C   0  0  0  0  0  0  0  0  0  0  0  0
   48.2216    7.6582   13.5940 C   0  0  0  0  0  0  0  0  0  0  0  0
   49.1339    8.6979   13.6861 C   0  0  0  0  0  0  0  0  0  0  0  0
   48.7513    9.9801   13.2952 C   0  0  0  0  0  0  0  0  0  0  0  0
   47.4494   10.2483   12.7985 C   0  0  0  0  0  0  0  0  0  0  0  0
   47.0009   11.5319   12.3775 C   0  0  0  0  0  0  0  0  0  0  0  0
   47.8857   12.7152   12.4878 C   0  0  0  0  0  0  0  0  0  0  0  0
   48.0257   13.3859   13.7153 C   0  0  0  0  0  0  0  0  0  0  0  0
   48.8391   14.5160   13.8179 C   0  0  0  0  0  0  0  0  0  0  0  0
   49.5132   14.9770   12.6935 C   0  0  0  0  0  0  0  0  0  0  0  0
   50.2931   16.0628   12.7932 F   0  0  0  0  0  0  0  0  0  0  0  0
   49.3922   14.3352   11.4689 C   0  0  0  0  0  0  0  0  0  0  0  0
   48.5798   13.2045   11.3675 C   0  0  0  0  0  0  0  0  0  0  0  0
   43.4243   10.6087   11.2934 C   0  0  0  0  0  0  0  0  0  0  0  0
   42.7263    9.3831   10.7474 C   0  0  0  0  0  0  0  0  0  0  0  0
   43.1391   10.4755    9.8114 C   0  0  0  0  0  0  0  0  0  0  0  0
   42.7465   17.0412    9.3190 C   0  0  0  0  0  0  0  0  0  0  0  0
   42.5067   18.3128    8.5111 C   0  0  0  0  0  0  0  0  0  0  0  0
   41.4626   18.2877    7.7961 O   0  0  0  0  0  0  0  0  0  0  0  0
   43.3843   19.2078    8.6485 O   0  0  0  0  0  0  0  0  0  0  0  0
   45.5521   12.8257   11.0543 Mg  0  0  0  0  0 15  0  0  0  0  0  0
   41.6856   16.9971    9.1946 O   0  0  0  0  0  0  0  0  0  0  0  0
   43.0240   16.9686    9.7128 C   0  0  2  0  0  0  0  0  0  0  0  0
   43.3266   15.5434   10.2027 C   0  0  0  0  0  0  0  0  0  0  0  0
   44.7260   15.3612   10.7936 C   0  0  2  0  0  0  0  0  0  0  0  0
   45.7171   15.6205    9.7956 O   0  0  0  0  0  0  0  0  0  0  0  0
   44.9011   13.9590   11.3108 C   0  0  0  0  0  0  0  0  0  0  0  0
   45.5623   12.9722   10.6859 C   0  0  0  0  0  0  0  0  0  0  0  0
   45.7227   11.6183   11.2476 C   0  0  0  0  0  0  0  0  0  0  0  0
   44.6106   10.8117   11.5547 C   0  0  0  0  0  0  0  0  0  0  0  0
   44.7660    9.5650   12.0781 N   0  0  0  0  0  0  0  0  0  0  0  0
   45.9911    9.0753   12.2951 C   0  0  0  0  0  0  0  0  0  0  0  0
   46.0863    7.8009   12.8367 C   0  0  0  0  0  0  0  0  0  0  0  0
   47.3169    7.1948   13.0980 C   0  0  0  0  0  0  0  0  0  0  0  0
   48.4869    7.8786   12.8108 C   0  0  0  0  0  0  0  0  0  0  0  0
   48.4139    9.1611   12.2682 C   0  0  0  0  0  0  0  0  0  0  0  0
   47.1678    9.7860   11.9997 C   0  0  0  0  0  0  0  0  0  0  0  0
   47.0249   11.0927   11.4537 C   0  0  0  0  0  0  0  0  0  0  0  0
   48.2266   11.8862   11.1085 C   0  0  0  0  0  0  0  0  0  0  0  0
   48.8868   11.6825    9.8829 C   0  0  0  0  0  0  0  0  0  0  0  0
   50.0225   12.4240    9.5558 C   0  0  0  0  0  0  0  0  0  0  0  0
   50.5049   13.3682   10.4548 C   0  0  0  0  0  0  0  0  0  0  0  0
   51.5989   14.0734   10.1428 F   0  0  0  0  0  0  0  0  0  0  0  0
   49.8710   13.5903   11.6709 C   0  0  0  0  0  0  0  0  0  0  0  0
   48.7341   12.8493   11.9972 C   0  0  0  0  0  0  0  0  0  0  0  0
   43.1765   11.2601   11.3366 C   0  0  0  0  0  0  0  0  0  0  0  0
   42.1666   10.2996   10.7431 C   0  0  0  0  0  0  0  0  0  0  0  0
   42.6423   11.4723    9.9397 C   0  0  0  0  0  0  0  0  0  0  0  0
   43.1978   18.0797   10.7444 C   0  0  0  0  0  0  0  0  0  0  0  0
   42.3827   17.7927   11.9998 C   0  0  0  0  0  0  0  0  0  0  0  0
   41.1896   17.4207   11.7869 O   0  0  0  0  0  0  0  0  0  0  0  0
   43.0061   17.9377   13.0834 O   0  0  0  0  0  0  0  0  0  0  0  0
   41.1175   16.5004    7.5993 H   0  0  0  0  0  0  0  0  0  0  0  0
   43.4040   16.1255    7.4619 H   0  0  0  0  0  0  0  0  0  0  0  0
   43.3037   13.8116    8.1697 H   0  0  0  0  0  0  0  0  0  0  0  0
   42.5591   14.2190    9.6943 H   0  0  0  0  0  0  0  0  0  0  0  0
   44.6953   15.3600   10.4349 H   0  0  0  0  0  0  0  0  0  0  0  0
   45.5559   15.9991    8.5189 H   0  0  0  0  0  0  0  0  0  0  0  0
   45.3656   12.5753    9.3414 H   0  0  0  0  0  0  0  0  0  0  0  0
   44.9648   13.7056   12.1841 H   0  0  0  0  0  0  0  0  0  0  0  0
   46.2196    7.0990   13.0373 H   0  0  0  0  0  0  0  0  0  0  0  0
   48.4928    6.6505   13.8932 H   0  0  0  0  0  0  0  0  0  0  0  0
   50.1392    8.5155   14.0590 H   0  0  0  0  0  0  0  0  0  0  0  0
   49.4878   10.7776   13.3724 H   0  0  0  0  0  0  0  0  0  0  0  0
   47.4922   13.0216   14.5946 H   0  0  0  0  0  0  0  0  0  0  0  0
   48.9351   15.0377   14.7631 H   0  0  0  0  0  0  0  0  0  0  0  0
   49.9092   14.7179   10.5950 H   0  0  0  0  0  0  0  0  0  0  0  0
   48.4709   12.7154   10.4038 H   0  0  0  0  0  0  0  0  0  0  0  0
   42.7863   11.2893   11.8511 H   0  0  0  0  0  0  0  0  0  0  0  0
   41.6732    9.2689   10.9659 H   0  0  0  0  0  0  0  0  0  0  0  0
   43.2691    8.4479   10.6992 H   0  0  0  0  0  0  0  0  0  0  0  0
   42.3695   11.1135    9.3894 H   0  0  0  0  0  0  0  0  0  0  0  0
   43.9679   10.2753    9.1387 H   0  0  0  0  0  0  0  0  0  0  0  0
   43.6860   17.1578    9.8752 H   0  0  0  0  0  0  0  0  0  0  0  0
   41.9335   16.9238   10.0434 H   0  0  0  0  0  0  0  0  0  0  0  0
   41.1140   17.0553   10.0035 H   0  0  0  0  0  0  0  0  0  0  0  0
   43.6759   17.1940    8.8578 H   0  0  0  0  0  0  0  0  0  0  0  0
   43.2071   14.8702    9.3412 H   0  0  0  0  0  0  0  0  0  0  0  0
   42.5619   15.2237   10.9231 H   0  0  0  0  0  0  0  0  0  0  0  0
   44.8999   16.0486   11.6299 H   0  0  0  0  0  0  0  0  0  0  0  0
   45.7951   16.5887    9.7401 H   0  0  0  0  0  0  0  0  0  0  0  0
   44.4407   13.7788   12.2780 H   0  0  0  0  0  0  0  0  0  0  0  0
   46.0391   13.1561    9.7269 H   0  0  0  0  0  0  0  0  0  0  0  0
   45.1680    7.2632   13.0616 H   0  0  0  0  0  0  0  0  0  0  0  0
   47.3506    6.1976   13.5256 H   0  0  0  0  0  0  0  0  0  0  0  0
   49.4549    7.4255   13.0094 H   0  0  0  0  0  0  0  0  0  0  0  0
   49.3476    9.6784   12.0536 H   0  0  0  0  0  0  0  0  0  0  0  0
   48.5057   10.9503    9.1741 H   0  0  0  0  0  0  0  0  0  0  0  0
   50.5255   12.2702    8.6071 H   0  0  0  0  0  0  0  0  0  0  0  0
   50.2579   14.3387   12.3543 H   0  0  0  0  0  0  0  0  0  0  0  0
   48.2331   13.0296   12.9445 H   0  0  0  0  0  0  0  0  0  0  0  0
   42.7835   11.9217   12.1055 H   0  0  0  0  0  0  0  0  0  0  0  0
   41.1582   10.3182   11.1432 H   0  0  0  0  0  0  0  0  0  0  0  0
   42.4991    9.3133   10.4436 H   0  0  0  0  0  0  0  0  0  0  0  0
   41.9616   12.3028    9.7918 H   0  0  0  0  0  0  0  0  0  0  0  0
   43.2983   11.2810    9.0982 H   0  0  0  0  0  0  0  0  0  0  0  0
   42.8380   19.0348   10.3408 H   0  0  0  0  0  0  0  0  0  0  0  0
   44.2546   18.2120   10.9988 H   0  0  0  0  0  0  0  0  0  0  0  0
  2  1  1  0
  2  3  1  0
  3  4  1  0
  4  5  1  0
  4  6  1  0
  6  7  2  0
  7  8  1  0
  8  9  2  0
  9 10  1  0
 10 11  2  0
 11 12  1  0
 12 13  2  0
 13 14  1  0
 14 15  2  0
 15 16  1  0
 11 16  1  0
 16 17  2  0
  8 17  1  0
 17 18  1  0
 18 19  2  0
 19 20  1  0
 20 21  2  0
 21 22  1  0
 21 23  1  0
 23 24  2  0
 18 24  1  0
  9 25  1  0
 25 26  1  0
 26 27  1  0
 25 27  1  0
  2 28  1  0
 28 29  1  0
 29 30  2  0
 29 31  1  0
 34 33  1  0
 34 35  1  0
 35 36  1  0
 36 37  1  0
 36 38  1  0
 38 39  2  0
 39 40  1  0
 40 41  2  0
 41 42  1  0
 42 43  2  0
 43 44  1  0
 44 45  2  0
 45 46  1  0
 46 47  2  0
 47 48  1  0
 43 48  1  0
 48 49  2  0
 40 49  1  0
 49 50  1  0
 50 51  2  0
 51 52  1  0
 52 53  2  0
 53 54  1  0
 53 55  1  0
 55 56  2  0
 50 56  1  0
 41 57  1  0
 57 58  1  0
 58 59  1  0
 57 59  1  0
 34 60  1  0
 60 61  1  0
 61 62  2  0
 61 63  1  0
  1 64  1  0
  2 65  1  1
  3 66  1  0
  3 67  1  0
  4 68  1  6
  5 69  1  0
  6 70  1  0
  7 71  1  0
 12 72  1  0
 13 73  1  0
 14 74  1  0
 15 75  1  0
 19 76  1  0
 20 77  1  0
 23 78  1  0
 24 79  1  0
 25 80  1  0
 26 81  1  0
 26 82  1  0
 27 83  1  0
 27 84  1  0
 28 85  1  0
 28 86  1  0
 33 87  1  0
 34 88  1  1
 35 89  1  0
 35 90  1  0
 36 91  1  6
 37 92  1  0
 38 93  1  0
 39 94  1  0
 44 95  1  0
 45 96  1  0
 46 97  1  0
 47 98  1  0
 51 99  1  0
 52100  1  0
 55101  1  0
 56102  1  0
 57103  1  0
 58104  1  0
 58105  1  0
 59106  1  0
 59107  1  0
 60108  1  0
 60109  1  0
M  CHG  3  31  -1  32   2  63  -1
M  END
> <Uni-Dock RESULT> 
ENERGY=   -6.381  LOWER_BOUND=    6.995  UPPER_BOUND=   10.036
INTER + INTRA:          -6.381
INTER:                  -6.381
INTRA:                   0.000
UNBOUND:                 0.000

$$$$

     RDKit          3D

109114  0  0  0  0  0  0  0  0999 V2000
   51.5327   12.2408    6.9396 O   0  0  0  0  0  0  0  0  0  0  0  0
   52.0505   12.3243    8.2758 C   0  0  2  0  0  0  0  0  0  0  0  0
   52.6448   10.9437    8.5919 C   0  0  0  0  0  0  0  0  0  0  0  0
   53.2041   10.7840   10.0071 C   0  0  2  0  0  0  0  0  0  0  0  0
   54.2330   11.7334   10.2685 O   0  0  0  0  0  0  0  0  0  0  0  0
   53.8319    9.4333   10.1840 C   0  0  0  0  0  0  0  0  0  0  0  0
   53.3051    8.4569   10.9386 C   0  0  0  0  0  0  0  0  0  0  0  0
   53.9912    7.1659   11.1328 C   0  0  0  0  0  0  0  0  0  0  0  0
   53.9724    6.1849   10.1264 C   0  0  0  0  0  0  0  0  0  0  0  0
   54.5881    4.9846   10.3075 N   0  0  0  0  0  0  0  0  0  0  0  0
   55.2437    4.7258   11.4449 C   0  0  0  0  0  0  0  0  0  0  0  0
   55.8676    3.4917   11.5649 C   0  0  0  0  0  0  0  0  0  0  0  0
   56.5970    3.1348   12.7016 C   0  0  0  0  0  0  0  0  0  0  0  0
   56.6973    4.0303   13.7551 C   0  0  0  0  0  0  0  0  0  0  0  0
   56.0664    5.2697   13.6614 C   0  0  0  0  0  0  0  0  0  0  0  0
   55.3263    5.6420   12.5094 C   0  0  0  0  0  0  0  0  0  0  0  0
   54.6663    6.8929   12.3504 C   0  0  0  0  0  0  0  0  0  0  0  0
   54.6716    7.8944   13.4425 C   0  0  0  0  0  0  0  0  0  0  0  0
   53.7708    7.7803   14.5156 C   0  0  0  0  0  0  0  0  0  0  0  0
   53.7557    8.7351   15.5342 C   0  0  0  0  0  0  0  0  0  0  0  0
   54.6409    9.8051   15.4809 C   0  0  0  0  0  0  0  0  0  0  0  0
   54.6246   10.7216   16.4589 F   0  0  0  0  0  0  0  0  0  0  0  0
   55.5399    9.9432   14.4326 C   0  0  0  0  0  0  0  0  0  0  0  0
   55.5553    8.9873   13.4153 C   0  0  0  0  0  0  0  0  0  0  0  0
   53.2356    6.3885    8.8123 C   0  0  0  0  0  0  0  0  0  0  0  0
   53.6233    5.6121    7.5736 C   0  0  0  0  0  0  0  0  0  0  0  0
   53.9333    7.0739    7.6553 C   0  0  0  0  0  0  0  0  0  0  0  0
   50.9328   12.7336    9.2270 C   0  0  0  0  0  0  0  0  0  0  0  0
   50.6396   14.2096    8.9770 C   0  0  0  0  0  0  0  0  0  0  0  0
   50.3340   14.4854    7.7801 O   0  0  0  0  0  0  0  0  0  0  0  0
   50.7568   14.9570    9.9857 O   0  0  0  0  0  0  0  0  0  0  0  0
   53.8200    8.5573   10.9230 Mg  0  0  0  0  0 15  0  0  0  0  0  0
   50.2924   12.6642    8.3738 O   0  0  0  0  0  0  0  0  0  0  0  0
   50.9359   12.4817    9.6439 C   0  0  2  0  0  0  0  0  0  0  0  0
   51.5215   11.0613    9.6938 C   0  0  0  0  0  0  0  0  0  0  0  0
   52.2364   10.7172   11.0018 C   0  0  2  0  0  0  0  0  0  0  0  0
   53.3612   11.5808   11.1877 O   0  0  0  0  0  0  0  0  0  0  0  0
   52.7084    9.2885   10.9844 C   0  0  0  0  0  0  0  0  0  0  0  0
   53.9669    8.8838   10.7526 C   0  0  0  0  0  0  0  0  0  0  0  0
   54.3817    7.4688   10.7677 C   0  0  0  0  0  0  0  0  0  0  0  0
   53.8127    6.5251    9.8917 C   0  0  0  0  0  0  0  0  0  0  0  0
   54.1964    5.2195    9.9149 N   0  0  0  0  0  0  0  0  0  0  0  0
   55.1423    4.8122   10.7676 C   0  0  0  0  0  0  0  0  0  0  0  0
   55.4870    3.4678   10.7496 C   0  0  0  0  0  0  0  0  0  0  0  0
   56.4651    2.9404   11.5952 C   0  0  0  0  0  0  0  0  0  0  0  0
   57.1191    3.7772   12.4846 C   0  0  0  0  0  0  0  0  0  0  0  0
   56.7865    5.1310   12.5206 C   0  0  0  0  0  0  0  0  0  0  0  0
   55.7932    5.6765   11.6656 C   0  0  0  0  0  0  0  0  0  0  0  0
   55.4033    7.0454   11.6573 C   0  0  0  0  0  0  0  0  0  0  0  0
   56.0615    8.0081   12.5699 C   0  0  0  0  0  0  0  0  0  0  0  0
   57.2984    8.5838   12.2264 C   0  0  0  0  0  0  0  0  0  0  0  0
   57.9248    9.4871   13.0856 C   0  0  0  0  0  0  0  0  0  0  0  0
   57.3191    9.8144   14.2933 C   0  0  0  0  0  0  0  0  0  0  0  0
   57.9249   10.6753   15.1199 F   0  0  0  0  0  0  0  0  0  0  0  0
   56.0972    9.2617   14.6560 C   0  0  0  0  0  0  0  0  0  0  0  0
   55.4702    8.3590   13.7956 C   0  0  0  0  0  0  0  0  0  0  0  0
   52.7424    6.8788    8.8746 C   0  0  0  0  0  0  0  0  0  0  0  0
   52.8205    6.3178    7.4696 C   0  0  0  0  0  0  0  0  0  0  0  0
   53.0626    7.7784    7.7042 C   0  0  0  0  0  0  0  0  0  0  0  0
   49.9667   12.8434   10.7659 C   0  0  0  0  0  0  0  0  0  0  0  0
   48.8311   11.8309   10.8552 C   0  0  0  0  0  0  0  0  0  0  0  0
   48.2996   11.5272    9.7452 O   0  0  0  0  0  0  0  0  0  0  0  0
   48.5848   11.4089   12.0151 O   0  0  0  0  0  0  0  0  0  0  0  0
   51.0256   13.0851    6.8246 H   0  0  0  0  0  0  0  0  0  0  0  0
   52.8490   13.0714    8.2606 H   0  0  0  0  0  0  0  0  0  0  0  0
   53.4418   10.7572    7.8627 H   0  0  0  0  0  0  0  0  0  0  0  0
   51.8854   10.1757    8.3957 H   0  0  0  0  0  0  0  0  0  0  0  0
   52.4175   10.9124   10.7596 H   0  0  0  0  0  0  0  0  0  0  0  0
   53.7946   12.5869   10.4136 H   0  0  0  0  0  0  0  0  0  0  0  0
   54.7691    9.2836    9.6569 H   0  0  0  0  0  0  0  0  0  0  0  0
   52.3774    8.6004   11.4821 H   0  0  0  0  0  0  0  0  0  0  0  0
   55.7875    2.7895   10.7378 H   0  0  0  0  0  0  0  0  0  0  0  0
   57.0771    2.1622   12.7490 H   0  0  0  0  0  0  0  0  0  0  0  0
   57.2635    3.7691   14.6462 H   0  0  0  0  0  0  0  0  0  0  0  0
   56.1649    5.9565   14.4999 H   0  0  0  0  0  0  0  0  0  0  0  0
   53.0759    6.9398   14.5515 H   0  0  0  0  0  0  0  0  0  0  0  0
   53.0515    8.6505   16.3537 H   0  0  0  0  0  0  0  0  0  0  0  0
   56.2120   10.7942   14.3942 H   0  0  0  0  0  0  0  0  0  0  0  0
   56.2461    9.1079   12.5859 H   0  0  0  0  0  0  0  0  0  0  0  0
   52.1710    6.5798    8.9190 H   0  0  0  0  0  0  0  0  0  0  0  0
   52.8275    5.2951    6.9132 H   0  0  0  0  0  0  0  0  0  0  0  0
   54.4523    4.9184    7.6272 H   0  0  0  0  0  0  0  0  0  0  0  0
   53.3484    7.7613    7.0530 H   0  0  0  0  0  0  0  0  0  0  0  0
   54.9740    7.3616    7.7730 H   0  0  0  0  0  0  0  0  0  0  0  0
   51.2138   12.6114   10.2814 H   0  0  0  0  0  0  0  0  0  0  0  0
   50.0196   12.1562    9.0481 H   0  0  0  0  0  0  0  0  0  0  0  0
   49.4175   12.2082    8.4778 H   0  0  0  0  0  0  0  0  0  0  0  0
   51.7622   13.2052    9.6624 H   0  0  0  0  0  0  0  0  0  0  0  0
   52.2318   10.9720    8.8588 H   0  0  0  0  0  0  0  0  0  0  0  0
   50.7363   10.3237    9.4807 H   0  0  0  0  0  0  0  0  0  0  0  0
   51.5712   10.8374   11.8651 H   0  0  0  0  0  0  0  0  0  0  0  0
   53.0027   12.4189   11.5276 H   0  0  0  0  0  0  0  0  0  0  0  0
   51.9302    8.5584   11.1871 H   0  0  0  0  0  0  0  0  0  0  0  0
   54.7502    9.6140   10.5679 H   0  0  0  0  0  0  0  0  0  0  0  0
   54.9745    2.8105   10.0509 H   0  0  0  0  0  0  0  0  0  0  0  0
   56.7046    1.8824   11.5540 H   0  0  0  0  0  0  0  0  0  0  0  0
   57.8816    3.3856   13.1533 H   0  0  0  0  0  0  0  0  0  0  0  0
   57.3132    5.7672   13.2300 H   0  0  0  0  0  0  0  0  0  0  0  0
   57.7698    8.3358   11.2777 H   0  0  0  0  0  0  0  0  0  0  0  0
   58.8749    9.9351   12.8151 H   0  0  0  0  0  0  0  0  0  0  0  0
   55.6367    9.5377   15.5986 H   0  0  0  0  0  0  0  0  0  0  0  0
   54.5101    7.9339   14.0753 H   0  0  0  0  0  0  0  0  0  0  0  0
   51.7365    6.9607    9.2806 H   0  0  0  0  0  0  0  0  0  0  0  0
   51.8926    6.0141    6.9962 H   0  0  0  0  0  0  0  0  0  0  0  0
   53.6695    5.7013    7.2012 H   0  0  0  0  0  0  0  0  0  0  0  0
   52.2967    8.4812    7.3969 H   0  0  0  0  0  0  0  0  0  0  0  0
   54.0750    8.1507    7.5971 H   0  0  0  0  0  0  0  0  0  0  0  0
   49.5084   13.8220   10.5736 H   0  0  0  0  0  0  0  0  0  0  0  0
   50.4908   12.9130   11.7249 H   0  0  0  0  0  0  0  0  0  0  0  0
  2  1  1  0
  2  3  1  0
  3  4  1  0
  4  5  1  0
  4  6  1  0
  6  7  2  0
  7  8  1  0
  8  9  2  0
  9 10  1  0
 10 11  2  0
 11 12  1  0
 12 13  2  0
 13 14  1  0
 14 15  2  0
 15 16  1  0
 11 16  1  0
 16 17  2  0
  8 17  1  0
 17 18  1  0
 18 19  2  0
 19 20  1  0
 20 21  2  0
 21 22  1  0
 21 23  1  0
 23 24  2  0
 18 24  1  0
  9 25  1  0
 25 26  1  0
 26 27  1  0
 25 27  1  0
  2 28  1  0
 28 29  1  0
 29 30  2  0
 29 31  1  0
 34 33  1  0
 34 35  1  0
 35 36  1  0
 36 37  1  0
 36 38  1  0
 38 39  2  0
 39 40  1  0
 40 41  2  0
 41 42  1  0
 42 43  2  0
 43 44  1  0
 44 45  2  0
 45 46  1  0
 46 47  2  0
 47 48  1  0
 43 48  1  0
 48 49  2  0
 40 49  1  0
 49 50  1  0
 50 51  2  0
 51 52  1  0
 52 53  2  0
 53 54  1  0
 53 55  1  0
 55 56  2  0
 50 56  1  0
 41 57  1  0
 57 58  1  0
 58 59  1  0
 57 59  1  0
 34 60  1  0
 60 61  1  0
 61 62  2  0
 61 63  1  0
  1 64  1  0
  2 65  1  1
  3 66  1  0
  3 67  1  0
  4 68  1  6
  5 69  1  0
  6 70  1  0
  7 71  1  0
 12 72  1  0
 13 73  1  0
 14 74  1  0
 15 75  1  0
 19 76  1  0
 20 77  1  0
 23 78  1  0
 24 79  1  0
 25 80  1  0
 26 81  1  0
 26 82  1  0
 27 83  1  0
 27 84  1  0
 28 85  1  0
 28 86  1  0
 33 87  1  0
 34 88  1  1
 35 89  1  0
 35 90  1  0
 36 91  1  6
 37 92  1  0
 38 93  1  0
 39 94  1  0
 44 95  1  0
 45 96  1  0
 46 97  1  0
 47 98  1  0
 51 99  1  0
 52100  1  0
 55101  1  0
 56102  1  0
 57103  1  0
 58104  1  0
 58105  1  0
 59106  1  0
 59107  1  0
 60108  1  0
 60109  1  0
M  CHG  3  31  -1  32   2  63  -1
M  END
> <Uni-Dock RESULT> 
ENERGY=   -6.355  LOWER_BOUND=    7.358  UPPER_BOUND=   10.157
INTER + INTRA:          -6.355
INTER:                  -6.355
INTRA:                   0.000
UNBOUND:                 0.000

$$$$

     RDKit          3D

109114  0  0  0  0  0  0  0  0999 V2000
   56.8400    6.9951   20.0780 O   0  0  0  0  0  0  0  0  0  0  0  0
   55.4521    7.1031   20.4278 C   0  0  2  0  0  0  0  0  0  0  0  0
   54.6795    7.1629   19.1016 C   0  0  0  0  0  0  0  0  0  0  0  0
   53.1664    7.3451   19.2371 C   0  0  2  0  0  0  0  0  0  0  0  0
   52.5826    6.2898   19.9945 O   0  0  0  0  0  0  0  0  0  0  0  0
   52.5014    7.3076   17.8931 C   0  0  0  0  0  0  0  0  0  0  0  0
   51.9630    8.3812   17.2950 C   0  0  0  0  0  0  0  0  0  0  0  0
   51.2638    8.2830   16.0001 C   0  0  0  0  0  0  0  0  0  0  0  0
   51.9877    8.1717   14.8004 C   0  0  0  0  0  0  0  0  0  0  0  0
   51.3480    8.0995   13.6012 N   0  0  0  0  0  0  0  0  0  0  0  0
   50.0111    8.1116   13.5462 C   0  0  0  0  0  0  0  0  0  0  0  0
   49.4147    8.0167   12.2964 C   0  0  0  0  0  0  0  0  0  0  0  0
   48.0273    7.9964   12.1343 C   0  0  0  0  0  0  0  0  0  0  0  0
   47.2101    8.0853   13.2506 C   0  0  0  0  0  0  0  0  0  0  0  0
   47.7881    8.1957   14.5142 C   0  0  0  0  0  0  0  0  0  0  0  0
   49.1963    8.2139   14.6885 C   0  0  0  0  0  0  0  0  0  0  0  0
   49.8463    8.3174   15.9505 C   0  0  0  0  0  0  0  0  0  0  0  0
   49.0586    8.4706   17.1961 C   0  0  0  0  0  0  0  0  0  0  0  0
   48.5612    9.7305   17.5719 C   0  0  0  0  0  0  0  0  0  0  0  0
   47.8396    9.8840   18.7572 C   0  0  0  0  0  0  0  0  0  0  0  0
   47.6146    8.7782   19.5682 C   0  0  0  0  0  0  0  0  0  0  0  0
   46.9225    8.9271   20.7064 F   0  0  0  0  0  0  0  0  0  0  0  0
   48.0953    7.5229   19.2223 C   0  0  0  0  0  0  0  0  0  0  0  0
   48.8155    7.3701   18.0363 C   0  0  0  0  0  0  0  0  0  0  0  0
   53.5077    8.1699   14.7702 C   0  0  0  0  0  0  0  0  0  0  0  0
   54.2630    7.5506   13.6155 C   0  0  0  0  0  0  0  0  0  0  0  0
   54.2635    6.8690   14.9479 C   0  0  0  0  0  0  0  0  0  0  0  0
   55.2452    8.3323   21.3040 C   0  0  0  0  0  0  0  0  0  0  0  0
   55.8281    8.0158   22.6778 C   0  0  0  0  0  0  0  0  0  0  0  0
   57.0472    7.6759   22.6616 O   0  0  0  0  0  0  0  0  0  0  0  0
   55.0184    8.1171   23.6390 O   0  0  0  0  0  0  0  0  0  0  0  0
   51.7396    7.9066   17.2812 Mg  0  0  0  0  0 15  0  0  0  0  0  0
   56.2807    8.5311   21.1278 O   0  0  0  0  0  0  0  0  0  0  0  0
   54.8474    8.5868   21.1842 C   0  0  2  0  0  0  0  0  0  0  0  0
   54.3016    8.5520   19.7476 C   0  0  0  0  0  0  0  0  0  0  0  0
   52.7762    8.6135   19.6486 C   0  0  2  0  0  0  0  0  0  0  0  0
   52.1972    7.4710   20.2851 O   0  0  0  0  0  0  0  0  0  0  0  0
   52.3426    8.6489   18.2081 C   0  0  0  0  0  0  0  0  0  0  0  0
   51.8636    7.6074   17.5101 C   0  0  0  0  0  0  0  0  0  0  0  0
   51.4321    7.7011   16.1032 C   0  0  0  0  0  0  0  0  0  0  0  0
   52.3192    8.1010   15.0858 C   0  0  0  0  0  0  0  0  0  0  0  0
   51.9127    8.1906   13.7900 N   0  0  0  0  0  0  0  0  0  0  0  0
   50.6553    7.8803   13.4573 C   0  0  0  0  0  0  0  0  0  0  0  0
   50.2973    7.9973   12.1214 C   0  0  0  0  0  0  0  0  0  0  0  0
   49.0121    7.6940   11.6675 C   0  0  0  0  0  0  0  0  0  0  0  0
   48.0557    7.2610   12.5712 C   0  0  0  0  0  0  0  0  0  0  0  0
   48.3937    7.1386   13.9185 C   0  0  0  0  0  0  0  0  0  0  0  0
   49.6972    7.4451   14.3898 C   0  0  0  0  0  0  0  0  0  0  0  0
   50.1036    7.3475   15.7504 C   0  0  0  0  0  0  0  0  0  0  0  0
   49.1443    6.8819   16.7780 C   0  0  0  0  0  0  0  0  0  0  0  0
   48.9211    5.5066   16.9729 C   0  0  0  0  0  0  0  0  0  0  0  0
   48.0141    5.0634   17.9361 C   0  0  0  0  0  0  0  0  0  0  0  0
   47.3239    5.9938   18.7045 C   0  0  0  0  0  0  0  0  0  0  0  0
   46.4485    5.5673   19.6229 F   0  0  0  0  0  0  0  0  0  0  0  0
   47.5268    7.3574   18.5335 C   0  0  0  0  0  0  0  0  0  0  0  0
   48.4351    7.8003   17.5708 C   0  0  0  0  0  0  0  0  0  0  0  0
   53.7704    8.4629   15.3471 C   0  0  0  0  0  0  0  0  0  0  0  0
   54.8529    7.9680   14.4100 C   0  0  0  0  0  0  0  0  0  0  0  0
   54.7552    7.4100   15.7978 C   0  0  0  0  0  0  0  0  0  0  0  0
   54.4139    9.7780   22.0339 C   0  0  0  0  0  0  0  0  0  0  0  0
   54.7393   11.0939   21.3373 C   0  0  0  0  0  0  0  0  0  0  0  0
   55.9064   11.1629   20.8472 O   0  0  0  0  0  0  0  0  0  0  0  0
   53.8001   11.9314   21.3169 O   0  0  0  0  0  0  0  0  0  0  0  0
   57.3156    7.1140   20.9399 H   0  0  0  0  0  0  0  0  0  0  0  0
   55.1877    6.1873   20.9640 H   0  0  0  0  0  0  0  0  0  0  0  0
   54.8867    6.2319   18.5614 H   0  0  0  0  0  0  0  0  0  0  0  0
   55.1030    7.9614   18.4785 H   0  0  0  0  0  0  0  0  0  0  0  0
   52.9252    8.2954   19.7273 H   0  0  0  0  0  0  0  0  0  0  0  0
   52.8026    6.4591   20.9244 H   0  0  0  0  0  0  0  0  0  0  0  0
   52.4722    6.3329   17.4159 H   0  0  0  0  0  0  0  0  0  0  0  0
   51.9726    9.3568   17.7689 H   0  0  0  0  0  0  0  0  0  0  0  0
   50.0570    7.9479   11.4211 H   0  0  0  0  0  0  0  0  0  0  0  0
   47.6035    7.9112   11.1385 H   0  0  0  0  0  0  0  0  0  0  0  0
   46.1280    8.0684   13.1422 H   0  0  0  0  0  0  0  0  0  0  0  0
   47.1246    8.2587   15.3745 H   0  0  0  0  0  0  0  0  0  0  0  0
   48.7428   10.5963   16.9330 H   0  0  0  0  0  0  0  0  0  0  0  0
   47.4680   10.8592   19.0498 H   0  0  0  0  0  0  0  0  0  0  0  0
   47.9285    6.6723   19.8749 H   0  0  0  0  0  0  0  0  0  0  0  0
   49.2076    6.3908   17.7773 H   0  0  0  0  0  0  0  0  0  0  0  0
   53.9666    9.0594   15.1939 H   0  0  0  0  0  0  0  0  0  0  0  0
   55.1714    8.0407   13.2925 H   0  0  0  0  0  0  0  0  0  0  0  0
   53.7054    7.0855   12.8130 H   0  0  0  0  0  0  0  0  0  0  0  0
   55.1716    6.8935   15.5412 H   0  0  0  0  0  0  0  0  0  0  0  0
   53.6966    5.9473   15.0417 H   0  0  0  0  0  0  0  0  0  0  0  0
   54.1838    8.5842   21.4292 H   0  0  0  0  0  0  0  0  0  0  0  0
   55.7582    9.2095   20.8956 H   0  0  0  0  0  0  0  0  0  0  0  0
   56.5505    9.4595   20.9052 H   0  0  0  0  0  0  0  0  0  0  0  0
   54.5370    7.6692   21.7021 H   0  0  0  0  0  0  0  0  0  0  0  0
   54.6569    7.6190   19.2863 H   0  0  0  0  0  0  0  0  0  0  0  0
   54.7568    9.3557   19.1535 H   0  0  0  0  0  0  0  0  0  0  0  0
   52.3792    9.5108   20.1379 H   0  0  0  0  0  0  0  0  0  0  0  0
   52.2085    7.6609   21.2391 H   0  0  0  0  0  0  0  0  0  0  0  0
   52.4386    9.6227   17.7365 H   0  0  0  0  0  0  0  0  0  0  0  0
   51.7496    6.6371   17.9859 H   0  0  0  0  0  0  0  0  0  0  0  0
   51.0482    8.3364   11.4113 H   0  0  0  0  0  0  0  0  0  0  0  0
   48.7691    7.8014   10.6149 H   0  0  0  0  0  0  0  0  0  0  0  0
   47.0486    7.0225   12.2384 H   0  0  0  0  0  0  0  0  0  0  0  0
   47.6235    6.7985   14.6090 H   0  0  0  0  0  0  0  0  0  0  0  0
   49.4669    4.7766   16.3787 H   0  0  0  0  0  0  0  0  0  0  0  0
   47.8492    4.0024   18.0894 H   0  0  0  0  0  0  0  0  0  0  0  0
   46.9851    8.0668   19.1501 H   0  0  0  0  0  0  0  0  0  0  0  0
   48.6005    8.8668   17.4435 H   0  0  0  0  0  0  0  0  0  0  0  0
   53.9269    9.4649   15.7403 H   0  0  0  0  0  0  0  0  0  0  0  0
   55.6675    8.6463   14.1785 H   0  0  0  0  0  0  0  0  0  0  0  0
   54.5736    7.3240   13.5853 H   0  0  0  0  0  0  0  0  0  0  0  0
   55.5011    7.7098   16.5250 H   0  0  0  0  0  0  0  0  0  0  0  0
   54.4079    6.3896   15.9134 H   0  0  0  0  0  0  0  0  0  0  0  0
   54.9525    9.7806   22.9903 H   0  0  0  0  0  0  0  0  0  0  0  0
   53.3446    9.7231   22.2634 H   0  0  0  0  0  0  0  0  0  0  0  0
  2  1  1  0
  2  3  1  0
  3  4  1  0
  4  5  1  0
  4  6  1  0
  6  7  2  0
  7  8  1  0
  8  9  2  0
  9 10  1  0
 10 11  2  0
 11 12  1  0
 12 13  2  0
 13 14  1  0
 14 15  2  0
 15 16  1  0
 11 16  1  0
 16 17  2  0
  8 17  1  0
 17 18  1  0
 18 19  2  0
 19 20  1  0
 20 21  2  0
 21 22  1  0
 21 23  1  0
 23 24  2  0
 18 24  1  0
  9 25  1  0
 25 26  1  0
 26 27  1  0
 25 27  1  0
  2 28  1  0
 28 29  1  0
 29 30  2  0
 29 31  1  0
 34 33  1  0
 34 35  1  0
 35 36  1  0
 36 37  1  0
 36 38  1  0
 38 39  2  0
 39 40  1  0
 40 41  2  0
 41 42  1  0
 42 43  2  0
 43 44  1  0
 44 45  2  0
 45 46  1  0
 46 47  2  0
 47 48  1  0
 43 48  1  0
 48 49  2  0
 40 49  1  0
 49 50  1  0
 50 51  2  0
 51 52  1  0
 52 53  2  0
 53 54  1  0
 53 55  1  0
 55 56  2  0
 50 56  1  0
 41 57  1  0
 57 58  1  0
 58 59  1  0
 57 59  1  0
 34 60  1  0
 60 61  1  0
 61 62  2  0
 61 63  1  0
  1 64  1  0
  2 65  1  1
  3 66  1  0
  3 67  1  0
  4 68  1  6
  5 69  1  0
  6 70  1  0
  7 71  1  0
 12 72  1  0
 13 73  1  0
 14 74  1  0
 15 75  1  0
 19 76  1  0
 20 77  1  0
 23 78  1  0
 24 79  1  0
 25 80  1  0
 26 81  1  0
 26 82  1  0
 27 83  1  0
 27 84  1  0
 28 85  1  0
 28 86  1  0
 33 87  1  0
 34 88  1  1
 35 89  1  0
 35 90  1  0
 36 91  1  6
 37 92  1  0
 38 93  1  0
 39 94  1  0
 44 95  1  0
 45 96  1  0
 46 97  1  0
 47 98  1  0
 51 99  1  0
 52100  1  0
 55101  1  0
 56102  1  0
 57103  1  0
 58104  1  0
 58105  1  0
 59106  1  0
 59107  1  0
 60108  1  0
 60109  1  0
M  CHG  3  31  -1  32   2  63  -1
M  END
> <Uni-Dock RESULT> 
ENERGY=   -6.203  LOWER_BOUND=    4.207  UPPER_BOUND=    8.182
INTER + INTRA:          -6.203
INTER:                  -6.203
INTRA:                   0.000
UNBOUND:                 0.000

$$$$
