
     RDKit          3D

109114  0  0  0  0  0  0  0  0999 V2000
   46.4951    9.8562   12.8035 O   0  0  0  0  0  0  0  0  0  0  0  0
   46.0487    8.4962   12.9090 C   0  0  2  0  0  0  0  0  0  0  0  0
   47.2301    7.6270   13.3600 C   0  0  0  0  0  0  0  0  0  0  0  0
   47.8826    8.1601   14.6429 C   0  0  2  0  0  0  0  0  0  0  0  0
   48.5697    9.3822   14.3786 O   0  0  0  0  0  0  0  0  0  0  0  0
   48.9158    7.2011   15.1579 C   0  0  0  0  0  0  0  0  0  0  0  0
   48.8910    6.6439   16.3806 C   0  0  0  0  0  0  0  0  0  0  0  0
   49.9205    5.6968   16.8535 C   0  0  0  0  0  0  0  0  0  0  0  0
   49.5672    4.3511   17.0646 C   0  0  0  0  0  0  0  0  0  0  0  0
   50.4789    3.4382   17.4922 N   0  0  0  0  0  0  0  0  0  0  0  0
   51.7383    3.8145   17.7382 C   0  0  0  0  0  0  0  0  0  0  0  0
   52.6248    2.8424   18.1826 C   0  0  0  0  0  0  0  0  0  0  0  0
   53.9573    3.1295   18.4818 C   0  0  0  0  0  0  0  0  0  0  0  0
   54.4238    4.4240   18.3284 C   0  0  0  0  0  0  0  0  0  0  0  0
   53.5504    5.4182   17.8838 C   0  0  0  0  0  0  0  0  0  0  0  0
   52.1910    5.1375   17.5815 C   0  0  0  0  0  0  0  0  0  0  0  0
   51.2500    6.1043   17.1259 C   0  0  0  0  0  0  0  0  0  0  0  0
   51.6611    7.5134   16.9542 C   0  0  0  0  0  0  0  0  0  0  0  0
   51.4333    8.4529   17.9755 C   0  0  0  0  0  0  0  0  0  0  0  0
   51.8203    9.7845   17.8156 C   0  0  0  0  0  0  0  0  0  0  0  0
   52.4370   10.1797   16.6352 C   0  0  0  0  0  0  0  0  0  0  0  0
   52.8253   11.4536   16.4924 F   0  0  0  0  0  0  0  0  0  0  0  0
   52.6790    9.2704   15.6137 C   0  0  0  0  0  0  0  0  0  0  0  0
   52.2926    7.9392   15.7726 C   0  0  0  0  0  0  0  0  0  0  0  0
   48.1591    3.8348   16.7988 C   0  0  0  0  0  0  0  0  0  0  0  0
   47.0510    4.1144   17.7916 C   0  0  0  0  0  0  0  0  0  0  0  0
   47.5751    2.7217   17.6445 C   0  0  0  0  0  0  0  0  0  0  0  0
   45.5016    8.0222   11.5687 C   0  0  0  0  0  0  0  0  0  0  0  0
   44.1934    8.7431   11.2563 C   0  0  0  0  0  0  0  0  0  0  0  0
   44.1583    9.9625   11.6026 O   0  0  0  0  0  0  0  0  0  0  0  0
   43.3161    8.0411   10.6818 O   0  0  0  0  0  0  0  0  0  0  0  0
   49.4433    6.6648   15.8204 Mg  0  0  0  0  0 15  0  0  0  0  0  0
   45.8530    8.7064   13.2027 O   0  0  0  0  0  0  0  0  0  0  0  0
   46.0618    7.3146   13.4578 C   0  0  2  0  0  0  0  0  0  0  0  0
   47.3600    6.8559   12.7843 C   0  0  0  0  0  0  0  0  0  0  0  0
   48.6107    7.6143   13.2530 C   0  0  2  0  0  0  0  0  0  0  0  0
   49.7335    7.1705   12.4844 O   0  0  0  0  0  0  0  0  0  0  0  0
   48.9008    7.3985   14.7136 C   0  0  0  0  0  0  0  0  0  0  0  0
   49.8037    6.5413   15.2179 C   0  0  0  0  0  0  0  0  0  0  0  0
   49.9929    6.3493   16.6685 C   0  0  0  0  0  0  0  0  0  0  0  0
   48.9929    5.7356   17.4461 C   0  0  0  0  0  0  0  0  0  0  0  0
   49.1428    5.5676   18.7874 N   0  0  0  0  0  0  0  0  0  0  0  0
   50.2663    5.9742   19.3895 C   0  0  0  0  0  0  0  0  0  0  0  0
   50.3721    5.7787   20.7603 C   0  0  0  0  0  0  0  0  0  0  0  0
   51.5034    6.1707   21.4797 C   0  0  0  0  0  0  0  0  0  0  0  0
   52.5629    6.7724   20.8197 C   0  0  0  0  0  0  0  0  0  0  0  0
   52.4792    6.9763   19.4434 C   0  0  0  0  0  0  0  0  0  0  0  0
   51.3344    6.5829   18.7005 C   0  0  0  0  0  0  0  0  0  0  0  0
   51.1912    6.7662   17.2968 C   0  0  0  0  0  0  0  0  0  0  0  0
   52.2841    7.3759   16.5086 C   0  0  0  0  0  0  0  0  0  0  0  0
   53.3577    6.5911   16.0479 C   0  0  0  0  0  0  0  0  0  0  0  0
   54.3929    7.1678   15.3096 C   0  0  0  0  0  0  0  0  0  0  0  0
   54.3610    8.5295   15.0322 C   0  0  0  0  0  0  0  0  0  0  0  0
   55.3577    9.0820   14.3280 F   0  0  0  0  0  0  0  0  0  0  0  0
   53.3127    9.3249   15.4775 C   0  0  0  0  0  0  0  0  0  0  0  0
   52.2751    8.7500   16.2147 C   0  0  0  0  0  0  0  0  0  0  0  0
   47.6931    5.2238   16.8462 C   0  0  0  0  0  0  0  0  0  0  0  0
   47.6947    4.0326   15.9144 C   0  0  0  0  0  0  0  0  0  0  0  0
   47.1247    3.8939   17.2914 C   0  0  0  0  0  0  0  0  0  0  0  0
   44.8389    6.5010   13.0308 C   0  0  0  0  0  0  0  0  0  0  0  0
   44.5787    6.5744   11.5280 C   0  0  0  0  0  0  0  0  0  0  0  0
   44.7802    7.7147   11.0120 O   0  0  0  0  0  0  0  0  0  0  0  0
   44.1968    5.4957   10.9969 O   0  0  0  0  0  0  0  0  0  0  0  0
   45.7097   10.3159   12.3993 H   0  0  0  0  0  0  0  0  0  0  0  0
   45.2655    8.4651   13.6769 H   0  0  0  0  0  0  0  0  0  0  0  0
   46.8865    6.5947   13.5084 H   0  0  0  0  0  0  0  0  0  0  0  0
   47.9835    7.6182   12.5591 H   0  0  0  0  0  0  0  0  0  0  0  0
   47.1160    8.3598   15.4025 H   0  0  0  0  0  0  0  0  0  0  0  0
   47.9549    9.9005   13.8083 H   0  0  0  0  0  0  0  0  0  0  0  0
   49.7229    6.9651   14.4673 H   0  0  0  0  0  0  0  0  0  0  0  0
   48.0904    6.8660   17.0803 H   0  0  0  0  0  0  0  0  0  0  0  0
   52.2635    1.8240   18.3043 H   0  0  0  0  0  0  0  0  0  0  0  0
   54.6168    2.3443   18.8400 H   0  0  0  0  0  0  0  0  0  0  0  0
   55.4578    4.6670   18.5605 H   0  0  0  0  0  0  0  0  0  0  0  0
   53.9430    6.4271   17.7797 H   0  0  0  0  0  0  0  0  0  0  0  0
   50.9469    8.1456   18.8996 H   0  0  0  0  0  0  0  0  0  0  0  0
   51.6447   10.5133   18.6016 H   0  0  0  0  0  0  0  0  0  0  0  0
   53.1478    9.6068   14.6952 H   0  0  0  0  0  0  0  0  0  0  0  0
   52.4629    7.2353   14.9600 H   0  0  0  0  0  0  0  0  0  0  0  0
   47.8783    3.8182   15.7474 H   0  0  0  0  0  0  0  0  0  0  0  0
   47.2951    4.6478   18.7022 H   0  0  0  0  0  0  0  0  0  0  0  0
   46.0673    4.3354   17.3947 H   0  0  0  0  0  0  0  0  0  0  0  0
   46.9494    1.9895   17.1486 H   0  0  0  0  0  0  0  0  0  0  0  0
   48.1750    2.3182   18.4525 H   0  0  0  0  0  0  0  0  0  0  0  0
   46.2009    8.2460   10.7551 H   0  0  0  0  0  0  0  0  0  0  0  0
   45.3218    6.9410   11.5882 H   0  0  0  0  0  0  0  0  0  0  0  0
   45.4604    8.7239   12.2903 H   0  0  0  0  0  0  0  0  0  0  0  0
   46.1535    7.2153   14.5446 H   0  0  0  0  0  0  0  0  0  0  0  0
   47.5021    5.7790   12.9374 H   0  0  0  0  0  0  0  0  0  0  0  0
   47.2820    6.9899   11.6987 H   0  0  0  0  0  0  0  0  0  0  0  0
   48.5097    8.6883   13.0647 H   0  0  0  0  0  0  0  0  0  0  0  0
   49.4694    7.2646   11.5490 H   0  0  0  0  0  0  0  0  0  0  0  0
   48.2862    7.9934   15.3863 H   0  0  0  0  0  0  0  0  0  0  0  0
   50.4312    5.9464   14.5603 H   0  0  0  0  0  0  0  0  0  0  0  0
   49.5447    5.3039   21.2842 H   0  0  0  0  0  0  0  0  0  0  0  0
   51.5445    6.0052   22.5526 H   0  0  0  0  0  0  0  0  0  0  0  0
   53.4470    7.0916   21.3698 H   0  0  0  0  0  0  0  0  0  0  0  0
   53.3210    7.4521   18.9464 H   0  0  0  0  0  0  0  0  0  0  0  0
   53.3786    5.5232   16.2567 H   0  0  0  0  0  0  0  0  0  0  0  0
   55.2160    6.5626   14.9467 H   0  0  0  0  0  0  0  0  0  0  0  0
   53.2997   10.3833   15.2377 H   0  0  0  0  0  0  0  0  0  0  0  0
   51.4497    9.3736   16.5525 H   0  0  0  0  0  0  0  0  0  0  0  0
   46.9585    5.9976   16.6419 H   0  0  0  0  0  0  0  0  0  0  0  0
   47.0084    4.0556   15.0751 H   0  0  0  0  0  0  0  0  0  0  0  0
   48.6390    3.5445   15.7009 H   0  0  0  0  0  0  0  0  0  0  0  0
   47.6824    3.3102   18.0147 H   0  0  0  0  0  0  0  0  0  0  0  0
   46.0479    3.8156   17.3882 H   0  0  0  0  0  0  0  0  0  0  0  0
   44.9605    5.4518   13.3355 H   0  0  0  0  0  0  0  0  0  0  0  0
   43.9368    6.8970   13.5225 H   0  0  0  0  0  0  0  0  0  0  0  0
  2  1  1  0
  2  3  1  0
  3  4  1  0
  4  5  1  0
  4  6  1  0
  6  7  2  0
  7  8  1  0
  8  9  2  0
  9 10  1  0
 10 11  2  0
 11 12  1  0
 12 13  2  0
 13 14  1  0
 14 15  2  0
 15 16  1  0
 11 16  1  0
 16 17  2  0
  8 17  1  0
 17 18  1  0
 18 19  2  0
 19 20  1  0
 20 21  2  0
 21 22  1  0
 21 23  1  0
 23 24  2  0
 18 24  1  0
  9 25  1  0
 25 26  1  0
 26 27  1  0
 25 27  1  0
  2 28  1  0
 28 29  1  0
 29 30  2  0
 29 31  1  0
 34 33  1  0
 34 35  1  0
 35 36  1  0
 36 37  1  0
 36 38  1  0
 38 39  2  0
 39 40  1  0
 40 41  2  0
 41 42  1  0
 42 43  2  0
 43 44  1  0
 44 45  2  0
 45 46  1  0
 46 47  2  0
 47 48  1  0
 43 48  1  0
 48 49  2  0
 40 49  1  0
 49 50  1  0
 50 51  2  0
 51 52  1  0
 52 53  2  0
 53 54  1  0
 53 55  1  0
 55 56  2  0
 50 56  1  0
 41 57  1  0
 57 58  1  0
 58 59  1  0
 57 59  1  0
 34 60  1  0
 60 61  1  0
 61 62  2  0
 61 63  1  0
  1 64  1  0
  2 65  1  1
  3 66  1  0
  3 67  1  0
  4 68  1  1
  5 69  1  0
  6 70  1  0
  7 71  1  0
 12 72  1  0
 13 73  1  0
 14 74  1  0
 15 75  1  0
 19 76  1  0
 20 77  1  0
 23 78  1  0
 24 79  1  0
 25 80  1  0
 26 81  1  0
 26 82  1  0
 27 83  1  0
 27 84  1  0
 28 85  1  0
 28 86  1  0
 33 87  1  0
 34 88  1  1
 35 89  1  0
 35 90  1  0
 36 91  1  1
 37 92  1  0
 38 93  1  0
 39 94  1  0
 44 95  1  0
 45 96  1  0
 46 97  1  0
 47 98  1  0
 51 99  1  0
 52100  1  0
 55101  1  0
 56102  1  0
 57103  1  0
 58104  1  0
 58105  1  0
 59106  1  0
 59107  1  0
 60108  1  0
 60109  1  0
M  CHG  3  31  -1  32   2  63  -1
M  END
> <Uni-Dock RESULT> 
ENERGY=   -6.579  LOWER_BOUND=    0.000  UPPER_BOUND=    0.000
INTER + INTRA:          -6.579
INTER:                  -6.579
INTRA:                   0.000
UNBOUND:                 0.000

$$$$

     RDKit          3D

109114  0  0  0  0  0  0  0  0999 V2000
   56.7278    9.1628   16.5820 O   0  0  0  0  0  0  0  0  0  0  0  0
   55.7144    9.6379   15.6835 C   0  0  2  0  0  0  0  0  0  0  0  0
   54.6080    8.5788   15.5898 C   0  0  0  0  0  0  0  0  0  0  0  0
   54.0677    8.1844   16.9712 C   0  0  2  0  0  0  0  0  0  0  0  0
   55.0494    7.4439   17.6946 O   0  0  0  0  0  0  0  0  0  0  0  0
   52.8736    7.2843   16.8434 C   0  0  0  0  0  0  0  0  0  0  0  0
   51.6610    7.5555   17.3552 C   0  0  0  0  0  0  0  0  0  0  0  0
   50.5039    6.6506   17.2042 C   0  0  0  0  0  0  0  0  0  0  0  0
   49.4186    7.0549   16.4049 C   0  0  0  0  0  0  0  0  0  0  0  0
   48.3332    6.2562   16.2277 N   0  0  0  0  0  0  0  0  0  0  0  0
   48.2727    5.0651   16.8326 C   0  0  0  0  0  0  0  0  0  0  0  0
   47.1360    4.2950   16.6244 C   0  0  0  0  0  0  0  0  0  0  0  0
   46.9642    3.0438   17.2181 C   0  0  0  0  0  0  0  0  0  0  0  0
   47.9577    2.5405   18.0405 C   0  0  0  0  0  0  0  0  0  0  0  0
   49.1091    3.2973   18.2652 C   0  0  0  0  0  0  0  0  0  0  0  0
   49.2915    4.5742   17.6699 C   0  0  0  0  0  0  0  0  0  0  0  0
   50.4393    5.3956   17.8589 C   0  0  0  0  0  0  0  0  0  0  0  0
   51.5375    4.9415   18.7374 C   0  0  0  0  0  0  0  0  0  0  0  0
   51.5940    5.3538   20.0807 C   0  0  0  0  0  0  0  0  0  0  0  0
   52.6306    4.9267   20.9123 C   0  0  0  0  0  0  0  0  0  0  0  0
   53.6121    4.0854   20.4037 C   0  0  0  0  0  0  0  0  0  0  0  0
   54.5944    3.6611   21.2092 F   0  0  0  0  0  0  0  0  0  0  0  0
   53.5761    3.6588   19.0825 C   0  0  0  0  0  0  0  0  0  0  0  0
   52.5404    4.0851   18.2505 C   0  0  0  0  0  0  0  0  0  0  0  0
   49.4093    8.3896   15.6712 C   0  0  0  0  0  0  0  0  0  0  0  0
   49.1199    9.6676   16.4293 C   0  0  0  0  0  0  0  0  0  0  0  0
   48.1116    9.1419   15.4583 C   0  0  0  0  0  0  0  0  0  0  0  0
   56.3214    9.9170   14.3146 C   0  0  0  0  0  0  0  0  0  0  0  0
   57.2448   11.1294   14.3920 C   0  0  0  0  0  0  0  0  0  0  0  0
   57.9250   11.2169   15.4587 O   0  0  0  0  0  0  0  0  0  0  0  0
   57.2262   11.8853   13.3818 O   0  0  0  0  0  0  0  0  0  0  0  0
   51.9668    6.9037   17.0375 Mg  0  0  0  0  0 15  0  0  0  0  0  0
   55.7046    9.8849   16.0117 O   0  0  0  0  0  0  0  0  0  0  0  0
   54.4771    9.7473   15.2906 C   0  0  2  0  0  0  0  0  0  0  0  0
   54.3972    8.3478   14.6706 C   0  0  0  0  0  0  0  0  0  0  0  0
   54.4745    7.2043   15.6930 C   0  0  2  0  0  0  0  0  0  0  0  0
   54.4928    5.9580   14.9897 O   0  0  0  0  0  0  0  0  0  0  0  0
   53.3139    7.2093   16.6507 C   0  0  0  0  0  0  0  0  0  0  0  0
   52.2206    6.4336   16.5656 C   0  0  0  0  0  0  0  0  0  0  0  0
   51.0984    6.5353   17.5181 C   0  0  0  0  0  0  0  0  0  0  0  0
   50.2738    7.6760   17.5342 C   0  0  0  0  0  0  0  0  0  0  0  0
   49.2468    7.7944   18.4179 N   0  0  0  0  0  0  0  0  0  0  0  0
   48.9938    6.8061   19.2835 C   0  0  0  0  0  0  0  0  0  0  0  0
   47.9332    6.9739   20.1642 C   0  0  0  0  0  0  0  0  0  0  0  0
   47.5913    6.0011   21.1064 C   0  0  0  0  0  0  0  0  0  0  0  0
   48.3213    4.8254   21.1761 C   0  0  0  0  0  0  0  0  0  0  0  0
   49.3886    4.6348   20.3000 C   0  0  0  0  0  0  0  0  0  0  0  0
   49.7469    5.6161   19.3378 C   0  0  0  0  0  0  0  0  0  0  0  0
   50.8253    5.4786   18.4200 C   0  0  0  0  0  0  0  0  0  0  0  0
   51.6408    4.2449   18.4063 C   0  0  0  0  0  0  0  0  0  0  0  0
   51.2113    3.1114   17.6911 C   0  0  0  0  0  0  0  0  0  0  0  0
   51.9777    1.9445   17.6836 C   0  0  0  0  0  0  0  0  0  0  0  0
   53.1728    1.9045   18.3925 C   0  0  0  0  0  0  0  0  0  0  0  0
   53.9042    0.7823   18.3882 F   0  0  0  0  0  0  0  0  0  0  0  0
   53.6166    3.0101   19.1070 C   0  0  0  0  0  0  0  0  0  0  0  0
   52.8527    4.1792   19.1146 C   0  0  0  0  0  0  0  0  0  0  0  0
   50.4722    8.8388   16.5751 C   0  0  0  0  0  0  0  0  0  0  0  0
   50.2025    8.6689   15.0968 C   0  0  0  0  0  0  0  0  0  0  0  0
   49.2750    9.4998   15.9272 C   0  0  0  0  0  0  0  0  0  0  0  0
   54.3275   10.8724   14.2652 C   0  0  0  0  0  0  0  0  0  0  0  0
   55.4062   10.8316   13.1852 C   0  0  0  0  0  0  0  0  0  0  0  0
   56.5613   10.5187   13.6038 O   0  0  0  0  0  0  0  0  0  0  0  0
   55.0104   11.1149   12.0214 O   0  0  0  0  0  0  0  0  0  0  0  0
   57.4445    9.8480   16.4890 H   0  0  0  0  0  0  0  0  0  0  0  0
   55.2970   10.5570   16.1139 H   0  0  0  0  0  0  0  0  0  0  0  0
   53.7946    8.9575   14.9569 H   0  0  0  0  0  0  0  0  0  0  0  0
   55.0218    7.6830   15.1046 H   0  0  0  0  0  0  0  0  0  0  0  0
   53.8243    9.0827   17.5529 H   0  0  0  0  0  0  0  0  0  0  0  0
   55.8946    7.9284   17.5434 H   0  0  0  0  0  0  0  0  0  0  0  0
   53.0390    6.3603   16.2930 H   0  0  0  0  0  0  0  0  0  0  0  0
   51.4783    8.4751   17.9036 H   0  0  0  0  0  0  0  0  0  0  0  0
   46.3528    4.6857   15.9790 H   0  0  0  0  0  0  0  0  0  0  0  0
   46.0545    2.4772   17.0417 H   0  0  0  0  0  0  0  0  0  0  0  0
   47.8395    1.5693   18.5147 H   0  0  0  0  0  0  0  0  0  0  0  0
   49.8692    2.8796   18.9214 H   0  0  0  0  0  0  0  0  0  0  0  0
   50.8276    6.0160   20.4797 H   0  0  0  0  0  0  0  0  0  0  0  0
   52.6782    5.2443   21.9500 H   0  0  0  0  0  0  0  0  0  0  0  0
   54.3627    3.0147   18.7046 H   0  0  0  0  0  0  0  0  0  0  0  0
   52.5293    3.7673   17.2095 H   0  0  0  0  0  0  0  0  0  0  0  0
   50.1276    8.4587   14.8564 H   0  0  0  0  0  0  0  0  0  0  0  0
   48.8819    9.6005   17.4839 H   0  0  0  0  0  0  0  0  0  0  0  0
   49.6830   10.5514   16.1540 H   0  0  0  0  0  0  0  0  0  0  0  0
   47.9835    9.6669   14.5195 H   0  0  0  0  0  0  0  0  0  0  0  0
   47.1973    8.7173   15.8574 H   0  0  0  0  0  0  0  0  0  0  0  0
   56.9234    9.0689   13.9690 H   0  0  0  0  0  0  0  0  0  0  0  0
   55.5334   10.1103   13.5775 H   0  0  0  0  0  0  0  0  0  0  0  0
   56.3725   10.0904   15.3056 H   0  0  0  0  0  0  0  0  0  0  0  0
   53.6763    9.8720   16.0273 H   0  0  0  0  0  0  0  0  0  0  0  0
   53.4792    8.2518   14.0777 H   0  0  0  0  0  0  0  0  0  0  0  0
   55.2209    8.2095   13.9600 H   0  0  0  0  0  0  0  0  0  0  0  0
   55.4076    7.2532   16.2639 H   0  0  0  0  0  0  0  0  0  0  0  0
   55.2145    6.0321   14.3360 H   0  0  0  0  0  0  0  0  0  0  0  0
   53.3989    7.9367   17.4556 H   0  0  0  0  0  0  0  0  0  0  0  0
   52.1239    5.6965   15.7734 H   0  0  0  0  0  0  0  0  0  0  0  0
   47.3539    7.8938   20.1126 H   0  0  0  0  0  0  0  0  0  0  0  0
   46.7578    6.1736   21.7816 H   0  0  0  0  0  0  0  0  0  0  0  0
   48.0716    4.0627   21.9122 H   0  0  0  0  0  0  0  0  0  0  0  0
   49.9490    3.7060   20.3737 H   0  0  0  0  0  0  0  0  0  0  0  0
   50.2804    3.1450   17.1282 H   0  0  0  0  0  0  0  0  0  0  0  0
   51.6521    1.0736   17.1258 H   0  0  0  0  0  0  0  0  0  0  0  0
   54.5597    2.9628   19.6420 H   0  0  0  0  0  0  0  0  0  0  0  0
   53.2087    5.0471   19.6662 H   0  0  0  0  0  0  0  0  0  0  0  0
   51.2829    9.5095   16.8457 H   0  0  0  0  0  0  0  0  0  0  0  0
   50.8678    9.1766   14.4072 H   0  0  0  0  0  0  0  0  0  0  0  0
   49.8484    7.7071   14.7431 H   0  0  0  0  0  0  0  0  0  0  0  0
   48.2889    9.1021   16.1379 H   0  0  0  0  0  0  0  0  0  0  0  0
   49.3051   10.5755   15.7972 H   0  0  0  0  0  0  0  0  0  0  0  0
   53.3333   10.8259   13.7985 H   0  0  0  0  0  0  0  0  0  0  0  0
   54.4247   11.8486   14.7652 H   0  0  0  0  0  0  0  0  0  0  0  0
  2  1  1  0
  2  3  1  0
  3  4  1  0
  4  5  1  0
  4  6  1  0
  6  7  2  0
  7  8  1  0
  8  9  2  0
  9 10  1  0
 10 11  2  0
 11 12  1  0
 12 13  2  0
 13 14  1  0
 14 15  2  0
 15 16  1  0
 11 16  1  0
 16 17  2  0
  8 17  1  0
 17 18  1  0
 18 19  2  0
 19 20  1  0
 20 21  2  0
 21 22  1  0
 21 23  1  0
 23 24  2  0
 18 24  1  0
  9 25  1  0
 25 26  1  0
 26 27  1  0
 25 27  1  0
  2 28  1  0
 28 29  1  0
 29 30  2  0
 29 31  1  0
 34 33  1  0
 34 35  1  0
 35 36  1  0
 36 37  1  0
 36 38  1  0
 38 39  2  0
 39 40  1  0
 40 41  2  0
 41 42  1  0
 42 43  2  0
 43 44  1  0
 44 45  2  0
 45 46  1  0
 46 47  2  0
 47 48  1  0
 43 48  1  0
 48 49  2  0
 40 49  1  0
 49 50  1  0
 50 51  2  0
 51 52  1  0
 52 53  2  0
 53 54  1  0
 53 55  1  0
 55 56  2  0
 50 56  1  0
 41 57  1  0
 57 58  1  0
 58 59  1  0
 57 59  1  0
 34 60  1  0
 60 61  1  0
 61 62  2  0
 61 63  1  0
  1 64  1  0
  2 65  1  1
  3 66  1  0
  3 67  1  0
  4 68  1  1
  5 69  1  0
  6 70  1  0
  7 71  1  0
 12 72  1  0
 13 73  1  0
 14 74  1  0
 15 75  1  0
 19 76  1  0
 20 77  1  0
 23 78  1  0
 24 79  1  0
 25 80  1  0
 26 81  1  0
 26 82  1  0
 27 83  1  0
 27 84  1  0
 28 85  1  0
 28 86  1  0
 33 87  1  0
 34 88  1  1
 35 89  1  0
 35 90  1  0
 36 91  1  1
 37 92  1  0
 38 93  1  0
 39 94  1  0
 44 95  1  0
 45 96  1  0
 46 97  1  0
 47 98  1  0
 51 99  1  0
 52100  1  0
 55101  1  0
 56102  1  0
 57103  1  0
 58104  1  0
 58105  1  0
 59106  1  0
 59107  1  0
 60108  1  0
 60109  1  0
M  CHG  3  31  -1  32   2  63  -1
M  END
> <Uni-Dock RESULT> 
ENERGY=   -6.520  LOWER_BOUND=    4.286  UPPER_BOUND=    7.003
INTER + INTRA:          -6.520
INTER:                  -6.520
INTRA:                   0.000
UNBOUND:                 0.000

$$$$

     RDKit          3D

109114  0  0  0  0  0  0  0  0999 V2000
   56.7270    9.1664   16.5833 O   0  0  0  0  0  0  0  0  0  0  0  0
   55.7145    9.6397   15.6828 C   0  0  2  0  0  0  0  0  0  0  0  0
   54.6090    8.5797   15.5889 C   0  0  0  0  0  0  0  0  0  0  0  0
   54.0670    8.1867   16.9699 C   0  0  2  0  0  0  0  0  0  0  0  0
   55.0483    7.4477   17.6957 O   0  0  0  0  0  0  0  0  0  0  0  0
   52.8737    7.2856   16.8416 C   0  0  0  0  0  0  0  0  0  0  0  0
   51.6602    7.5566   17.3514 C   0  0  0  0  0  0  0  0  0  0  0  0
   50.5040    6.6507   17.1999 C   0  0  0  0  0  0  0  0  0  0  0  0
   49.4195    7.0533   16.3986 C   0  0  0  0  0  0  0  0  0  0  0  0
   48.3348    6.2537   16.2209 N   0  0  0  0  0  0  0  0  0  0  0  0
   48.2744    5.0633   16.8272 C   0  0  0  0  0  0  0  0  0  0  0  0
   47.1384    4.2922   16.6184 C   0  0  0  0  0  0  0  0  0  0  0  0
   46.9667    3.0416   17.2134 C   0  0  0  0  0  0  0  0  0  0  0  0
   47.9594    2.5400   18.0378 C   0  0  0  0  0  0  0  0  0  0  0  0
   49.1100    3.2978   18.2631 C   0  0  0  0  0  0  0  0  0  0  0  0
   49.2923    4.5741   17.6665 C   0  0  0  0  0  0  0  0  0  0  0  0
   50.4393    5.3965   17.8561 C   0  0  0  0  0  0  0  0  0  0  0  0
   51.5366    4.9443   18.7366 C   0  0  0  0  0  0  0  0  0  0  0  0
   51.5910    5.3583   20.0795 C   0  0  0  0  0  0  0  0  0  0  0  0
   52.6266    4.9329   20.9131 C   0  0  0  0  0  0  0  0  0  0  0  0
   53.6094    4.0917   20.4069 C   0  0  0  0  0  0  0  0  0  0  0  0
   54.5909    3.6690   21.2143 F   0  0  0  0  0  0  0  0  0  0  0  0
   53.5755    3.6633   19.0862 C   0  0  0  0  0  0  0  0  0  0  0  0
   52.5408    4.0880   18.2522 C   0  0  0  0  0  0  0  0  0  0  0  0
   49.4103    8.3871   15.6632 C   0  0  0  0  0  0  0  0  0  0  0  0
   49.1190    9.6658   16.4194 C   0  0  0  0  0  0  0  0  0  0  0  0
   48.1124    9.1383   15.4476 C   0  0  0  0  0  0  0  0  0  0  0  0
   56.3233    9.9174   14.3143 C   0  0  0  0  0  0  0  0  0  0  0  0
   57.2457   11.1306   14.3915 C   0  0  0  0  0  0  0  0  0  0  0  0
   57.9244   11.2199   15.4590 O   0  0  0  0  0  0  0  0  0  0  0  0
   57.2280   11.8853   13.3803 O   0  0  0  0  0  0  0  0  0  0  0  0
   51.9669    6.9047   17.0349 Mg  0  0  0  0  0 15  0  0  0  0  0  0
   55.7041    9.8871   16.0106 O   0  0  0  0  0  0  0  0  0  0  0  0
   54.4777    9.7477   15.2880 C   0  0  2  0  0  0  0  0  0  0  0  0
   54.3996    8.3475   14.6696 C   0  0  0  0  0  0  0  0  0  0  0  0
   54.4763    7.2053   15.6936 C   0  0  2  0  0  0  0  0  0  0  0  0
   54.4964    5.9581   14.9918 O   0  0  0  0  0  0  0  0  0  0  0  0
   53.3143    7.2107   16.6496 C   0  0  0  0  0  0  0  0  0  0  0  0
   52.2216    6.4341   16.5639 C   0  0  0  0  0  0  0  0  0  0  0  0
   51.0981    6.5362   17.5147 C   0  0  0  0  0  0  0  0  0  0  0  0
   50.2727    7.6764   17.5283 C   0  0  0  0  0  0  0  0  0  0  0  0
   49.2444    7.7952   18.4104 N   0  0  0  0  0  0  0  0  0  0  0  0
   48.9909    6.8078   19.2770 C   0  0  0  0  0  0  0  0  0  0  0  0
   47.9290    6.9760   20.1559 C   0  0  0  0  0  0  0  0  0  0  0  0
   47.5864    6.0042   21.0989 C   0  0  0  0  0  0  0  0  0  0  0  0
   48.3171    4.8290   21.1710 C   0  0  0  0  0  0  0  0  0  0  0  0
   49.3857    4.6380   20.2967 C   0  0  0  0  0  0  0  0  0  0  0  0
   49.7447    5.6184   19.3338 C   0  0  0  0  0  0  0  0  0  0  0  0
   50.8244    5.4805   18.4176 C   0  0  0  0  0  0  0  0  0  0  0  0
   51.6408    4.2473   18.4066 C   0  0  0  0  0  0  0  0  0  0  0  0
   51.2131    3.1126   17.6922 C   0  0  0  0  0  0  0  0  0  0  0  0
   51.9803    1.9462   17.6872 C   0  0  0  0  0  0  0  0  0  0  0  0
   53.1744    1.9080   18.3978 C   0  0  0  0  0  0  0  0  0  0  0  0
   53.9065    0.7862   18.3959 F   0  0  0  0  0  0  0  0  0  0  0  0
   53.6165    3.0147   19.1116 C   0  0  0  0  0  0  0  0  0  0  0  0
   52.8517    4.1833   19.1167 C   0  0  0  0  0  0  0  0  0  0  0  0
   50.4717    8.8382   16.5681 C   0  0  0  0  0  0  0  0  0  0  0  0
   50.2041    8.6662   15.0896 C   0  0  0  0  0  0  0  0  0  0  0  0
   49.2749    9.4976   15.9177 C   0  0  0  0  0  0  0  0  0  0  0  0
   54.3288   10.8715   14.2609 C   0  0  0  0  0  0  0  0  0  0  0  0
   55.4090   10.8301   13.1825 C   0  0  0  0  0  0  0  0  0  0  0  0
   56.5637   10.5185   13.6031 O   0  0  0  0  0  0  0  0  0  0  0  0
   55.0146   11.1116   12.0179 O   0  0  0  0  0  0  0  0  0  0  0  0
   57.4434    9.8519   16.4904 H   0  0  0  0  0  0  0  0  0  0  0  0
   55.2960   10.5590   16.1114 H   0  0  0  0  0  0  0  0  0  0  0  0
   53.7962    8.9571   14.9543 H   0  0  0  0  0  0  0  0  0  0  0  0
   55.0241    7.6835   15.1053 H   0  0  0  0  0  0  0  0  0  0  0  0
   53.8222    9.0856   17.5502 H   0  0  0  0  0  0  0  0  0  0  0  0
   55.8933    7.9326   17.5450 H   0  0  0  0  0  0  0  0  0  0  0  0
   53.0405    6.3610   16.2926 H   0  0  0  0  0  0  0  0  0  0  0  0
   51.4761    8.4768   17.8984 H   0  0  0  0  0  0  0  0  0  0  0  0
   46.3559    4.6815   15.9714 H   0  0  0  0  0  0  0  0  0  0  0  0
   46.0576    2.4741   17.0364 H   0  0  0  0  0  0  0  0  0  0  0  0
   47.8412    1.5693   18.5131 H   0  0  0  0  0  0  0  0  0  0  0  0
   49.8694    2.8815   18.9209 H   0  0  0  0  0  0  0  0  0  0  0  0
   50.8236    6.0204   20.4767 H   0  0  0  0  0  0  0  0  0  0  0  0
   52.6727    5.2518   21.9504 H   0  0  0  0  0  0  0  0  0  0  0  0
   54.3631    3.0193   18.7101 H   0  0  0  0  0  0  0  0  0  0  0  0
   52.5313    3.7688   17.2116 H   0  0  0  0  0  0  0  0  0  0  0  0
   50.1297    8.4556   14.8493 H   0  0  0  0  0  0  0  0  0  0  0  0
   48.8796    9.6000   17.4737 H   0  0  0  0  0  0  0  0  0  0  0  0
   49.6819   10.5497   16.1437 H   0  0  0  0  0  0  0  0  0  0  0  0
   47.9853    9.6621   14.5080 H   0  0  0  0  0  0  0  0  0  0  0  0
   47.1978    8.7136   15.8460 H   0  0  0  0  0  0  0  0  0  0  0  0
   56.9263    9.0693   13.9706 H   0  0  0  0  0  0  0  0  0  0  0  0
   55.5361   10.1093   13.5759 H   0  0  0  0  0  0  0  0  0  0  0  0
   56.3729   10.0922   15.3052 H   0  0  0  0  0  0  0  0  0  0  0  0
   53.6758    9.8729   16.0234 H   0  0  0  0  0  0  0  0  0  0  0  0
   53.4825    8.2500   14.0756 H   0  0  0  0  0  0  0  0  0  0  0  0
   55.2244    8.2088   13.9603 H   0  0  0  0  0  0  0  0  0  0  0  0
   55.4086    7.2555   16.2656 H   0  0  0  0  0  0  0  0  0  0  0  0
   55.2190    6.0319   14.3390 H   0  0  0  0  0  0  0  0  0  0  0  0
   53.3977    7.9392   17.4537 H   0  0  0  0  0  0  0  0  0  0  0  0
   52.1266    5.6960   15.7725 H   0  0  0  0  0  0  0  0  0  0  0  0
   47.3491    7.8955   20.1024 H   0  0  0  0  0  0  0  0  0  0  0  0
   46.7519    6.1769   21.7727 H   0  0  0  0  0  0  0  0  0  0  0  0
   48.0669    4.0671   21.9078 H   0  0  0  0  0  0  0  0  0  0  0  0
   49.9466    3.7097   20.3723 H   0  0  0  0  0  0  0  0  0  0  0  0
   50.2830    3.1449   17.1280 H   0  0  0  0  0  0  0  0  0  0  0  0
   51.6560    1.0744   17.1300 H   0  0  0  0  0  0  0  0  0  0  0  0
   54.5589    2.9687   19.6479 H   0  0  0  0  0  0  0  0  0  0  0  0
   53.2064    5.0522   19.6676 H   0  0  0  0  0  0  0  0  0  0  0  0
   51.2815    9.5097   16.8389 H   0  0  0  0  0  0  0  0  0  0  0  0
   50.8700    9.1736   14.4003 H   0  0  0  0  0  0  0  0  0  0  0  0
   49.8511    7.7037   14.7366 H   0  0  0  0  0  0  0  0  0  0  0  0
   48.2888    9.0995   16.1275 H   0  0  0  0  0  0  0  0  0  0  0  0
   49.3045   10.5731   15.7864 H   0  0  0  0  0  0  0  0  0  0  0  0
   53.3353   10.8237   13.7930 H   0  0  0  0  0  0  0  0  0  0  0  0
   54.4246   11.8483   14.7599 H   0  0  0  0  0  0  0  0  0  0  0  0
  2  1  1  0
  2  3  1  0
  3  4  1  0
  4  5  1  0
  4  6  1  0
  6  7  2  0
  7  8  1  0
  8  9  2  0
  9 10  1  0
 10 11  2  0
 11 12  1  0
 12 13  2  0
 13 14  1  0
 14 15  2  0
 15 16  1  0
 11 16  1  0
 16 17  2  0
  8 17  1  0
 17 18  1  0
 18 19  2  0
 19 20  1  0
 20 21  2  0
 21 22  1  0
 21 23  1  0
 23 24  2  0
 18 24  1  0
  9 25  1  0
 25 26  1  0
 26 27  1  0
 25 27  1  0
  2 28  1  0
 28 29  1  0
 29 30  2  0
 29 31  1  0
 34 33  1  0
 34 35  1  0
 35 36  1  0
 36 37  1  0
 36 38  1  0
 38 39  2  0
 39 40  1  0
 40 41  2  0
 41 42  1  0
 42 43  2  0
 43 44  1  0
 44 45  2  0
 45 46  1  0
 46 47  2  0
 47 48  1  0
 43 48  1  0
 48 49  2  0
 40 49  1  0
 49 50  1  0
 50 51  2  0
 51 52  1  0
 52 53  2  0
 53 54  1  0
 53 55  1  0
 55 56  2  0
 50 56  1  0
 41 57  1  0
 57 58  1  0
 58 59  1  0
 57 59  1  0
 34 60  1  0
 60 61  1  0
 61 62  2  0
 61 63  1  0
  1 64  1  0
  2 65  1  1
  3 66  1  0
  3 67  1  0
  4 68  1  1
  5 69  1  0
  6 70  1  0
  7 71  1  0
 12 72  1  0
 13 73  1  0
 14 74  1  0
 15 75  1  0
 19 76  1  0
 20 77  1  0
 23 78  1  0
 24 79  1  0
 25 80  1  0
 26 81  1  0
 26 82  1  0
 27 83  1  0
 27 84  1  0
 28 85  1  0
 28 86  1  0
 33 87  1  0
 34 88  1  1
 35 89  1  0
 35 90  1  0
 36 91  1  1
 37 92  1  0
 38 93  1  0
 39 94  1  0
 44 95  1  0
 45 96  1  0
 46 97  1  0
 47 98  1  0
 51 99  1  0
 52100  1  0
 55101  1  0
 56102  1  0
 57103  1  0
 58104  1  0
 58105  1  0
 59106  1  0
 59107  1  0
 60108  1  0
 60109  1  0
M  CHG  3  31  -1  32   2  63  -1
M  END
> <Uni-Dock RESULT> 
ENERGY=   -6.519  LOWER_BOUND=    4.286  UPPER_BOUND=    7.003
INTER + INTRA:          -6.519
INTER:                  -6.519
INTRA:                   0.000
UNBOUND:                 0.000

$$$$

     RDKit          3D

109114  0  0  0  0  0  0  0  0999 V2000
   56.7276    9.1646   16.5797 O   0  0  0  0  0  0  0  0  0  0  0  0
   55.7143    9.6384   15.6803 C   0  0  2  0  0  0  0  0  0  0  0  0
   54.6085    8.5786   15.5872 C   0  0  0  0  0  0  0  0  0  0  0  0
   54.0678    8.1854   16.9687 C   0  0  2  0  0  0  0  0  0  0  0  0
   55.0496    7.4460   17.6933 O   0  0  0  0  0  0  0  0  0  0  0  0
   52.8742    7.2846   16.8413 C   0  0  0  0  0  0  0  0  0  0  0  0
   51.6612    7.5557   17.3525 C   0  0  0  0  0  0  0  0  0  0  0  0
   50.5047    6.6501   17.2019 C   0  0  0  0  0  0  0  0  0  0  0  0
   49.4194    7.0532   16.4018 C   0  0  0  0  0  0  0  0  0  0  0  0
   48.3345    6.2538   16.2250 N   0  0  0  0  0  0  0  0  0  0  0  0
   48.2743    5.0632   16.8310 C   0  0  0  0  0  0  0  0  0  0  0  0
   47.1380    4.2925   16.6231 C   0  0  0  0  0  0  0  0  0  0  0  0
   46.9666    3.0418   17.2179 C   0  0  0  0  0  0  0  0  0  0  0  0
   47.9600    2.5397   18.0413 C   0  0  0  0  0  0  0  0  0  0  0  0
   49.1110    3.2973   18.2656 C   0  0  0  0  0  0  0  0  0  0  0  0
   49.2929    4.5737   17.6691 C   0  0  0  0  0  0  0  0  0  0  0  0
   50.4403    5.3957   17.8578 C   0  0  0  0  0  0  0  0  0  0  0  0
   51.5384    4.9431   18.7371 C   0  0  0  0  0  0  0  0  0  0  0  0
   51.5942    5.3567   20.0800 C   0  0  0  0  0  0  0  0  0  0  0  0
   52.6306    4.9309   20.9125 C   0  0  0  0  0  0  0  0  0  0  0  0
   53.6127    4.0896   20.4051 C   0  0  0  0  0  0  0  0  0  0  0  0
   54.5950    3.6665   21.2114 F   0  0  0  0  0  0  0  0  0  0  0  0
   53.5775    3.6616   19.0843 C   0  0  0  0  0  0  0  0  0  0  0  0
   52.5419    4.0867   18.2514 C   0  0  0  0  0  0  0  0  0  0  0  0
   49.4098    8.3872   15.6667 C   0  0  0  0  0  0  0  0  0  0  0  0
   49.1196    9.6658   16.4235 C   0  0  0  0  0  0  0  0  0  0  0  0
   48.1119    9.1387   15.4526 C   0  0  0  0  0  0  0  0  0  0  0  0
   56.3218    9.9163   14.3113 C   0  0  0  0  0  0  0  0  0  0  0  0
   57.2446   11.1293   14.3879 C   0  0  0  0  0  0  0  0  0  0  0  0
   57.9243   11.2181   15.4547 O   0  0  0  0  0  0  0  0  0  0  0  0
   57.2260   11.8842   13.3769 O   0  0  0  0  0  0  0  0  0  0  0  0
   51.9675    6.9038   17.0355 Mg  0  0  0  0  0 15  0  0  0  0  0  0
   55.7043    9.8857   16.0082 O   0  0  0  0  0  0  0  0  0  0  0  0
   54.4771    9.7468   15.2868 C   0  0  2  0  0  0  0  0  0  0  0  0
   54.3981    8.3467   14.6681 C   0  0  0  0  0  0  0  0  0  0  0  0
   54.4756    7.2042   15.6917 C   0  0  2  0  0  0  0  0  0  0  0  0
   54.4947    5.9572   14.9896 O   0  0  0  0  0  0  0  0  0  0  0  0
   53.3145    7.2096   16.6489 C   0  0  0  0  0  0  0  0  0  0  0  0
   52.2216    6.4333   16.5641 C   0  0  0  0  0  0  0  0  0  0  0  0
   51.0991    6.5354   17.5161 C   0  0  0  0  0  0  0  0  0  0  0  0
   50.2740    7.6758   17.5307 C   0  0  0  0  0  0  0  0  0  0  0  0
   49.2465    7.7946   18.4139 N   0  0  0  0  0  0  0  0  0  0  0  0
   48.9937    6.8070   19.2805 C   0  0  0  0  0  0  0  0  0  0  0  0
   47.9327    6.9752   20.1605 C   0  0  0  0  0  0  0  0  0  0  0  0
   47.5908    6.0032   21.1036 C   0  0  0  0  0  0  0  0  0  0  0  0
   48.3214    4.8279   21.1747 C   0  0  0  0  0  0  0  0  0  0  0  0
   49.3891    4.6369   20.2992 C   0  0  0  0  0  0  0  0  0  0  0  0
   49.7472    5.6175   19.3362 C   0  0  0  0  0  0  0  0  0  0  0  0
   50.8261    5.4795   18.4190 C   0  0  0  0  0  0  0  0  0  0  0  0
   51.6422    4.2461   18.4068 C   0  0  0  0  0  0  0  0  0  0  0  0
   51.2135    3.1117   17.6925 C   0  0  0  0  0  0  0  0  0  0  0  0
   51.9804    1.9451   17.6864 C   0  0  0  0  0  0  0  0  0  0  0  0
   53.1752    1.9065   18.3958 C   0  0  0  0  0  0  0  0  0  0  0  0
   53.9071    0.7846   18.3930 F   0  0  0  0  0  0  0  0  0  0  0  0
   53.6183    3.0130   19.1095 C   0  0  0  0  0  0  0  0  0  0  0  0
   52.8538    4.1817   19.1157 C   0  0  0  0  0  0  0  0  0  0  0  0
   50.4722    8.8377   16.5707 C   0  0  0  0  0  0  0  0  0  0  0  0
   50.2031    8.6662   15.0924 C   0  0  0  0  0  0  0  0  0  0  0  0
   49.2749    9.4976   15.9216 C   0  0  0  0  0  0  0  0  0  0  0  0
   54.3275   10.8708   14.2602 C   0  0  0  0  0  0  0  0  0  0  0  0
   55.4066   10.8294   13.1807 C   0  0  0  0  0  0  0  0  0  0  0  0
   56.5616   10.5175   13.6000 O   0  0  0  0  0  0  0  0  0  0  0  0
   55.0111   11.1114   12.0165 O   0  0  0  0  0  0  0  0  0  0  0  0
   57.4441    9.8500   16.4863 H   0  0  0  0  0  0  0  0  0  0  0  0
   55.2964   10.5577   16.1096 H   0  0  0  0  0  0  0  0  0  0  0  0
   53.7951    8.9563   14.9536 H   0  0  0  0  0  0  0  0  0  0  0  0
   55.0229    7.6825   15.1030 H   0  0  0  0  0  0  0  0  0  0  0  0
   53.8238    9.0841   17.5494 H   0  0  0  0  0  0  0  0  0  0  0  0
   55.8946    7.9307   17.5419 H   0  0  0  0  0  0  0  0  0  0  0  0
   53.0402    6.3601   16.2920 H   0  0  0  0  0  0  0  0  0  0  0  0
   51.4779    8.4758   17.8999 H   0  0  0  0  0  0  0  0  0  0  0  0
   46.3549    4.6821   15.9770 H   0  0  0  0  0  0  0  0  0  0  0  0
   46.0572    2.4746   17.0417 H   0  0  0  0  0  0  0  0  0  0  0  0
   47.8421    1.5689   18.5164 H   0  0  0  0  0  0  0  0  0  0  0  0
   49.8710    2.8806   18.9225 H   0  0  0  0  0  0  0  0  0  0  0  0
   50.8274    6.0189   20.4781 H   0  0  0  0  0  0  0  0  0  0  0  0
   52.6778    5.2495   21.9499 H   0  0  0  0  0  0  0  0  0  0  0  0
   54.3645    3.0175   18.7073 H   0  0  0  0  0  0  0  0  0  0  0  0
   52.5313    3.7677   17.2108 H   0  0  0  0  0  0  0  0  0  0  0  0
   50.1284    8.4557   14.8521 H   0  0  0  0  0  0  0  0  0  0  0  0
   48.8812    9.5996   17.4781 H   0  0  0  0  0  0  0  0  0  0  0  0
   49.6823   10.5496   16.1475 H   0  0  0  0  0  0  0  0  0  0  0  0
   47.9839    9.6627   14.5132 H   0  0  0  0  0  0  0  0  0  0  0  0
   47.1976    8.7140   15.8518 H   0  0  0  0  0  0  0  0  0  0  0  0
   56.9242    9.0682   13.9668 H   0  0  0  0  0  0  0  0  0  0  0  0
   55.5339   10.1086   13.5737 H   0  0  0  0  0  0  0  0  0  0  0  0
   56.3724   10.0908   15.3022 H   0  0  0  0  0  0  0  0  0  0  0  0
   53.6760    9.8719   16.0230 H   0  0  0  0  0  0  0  0  0  0  0  0
   53.4805    8.2496   14.0750 H   0  0  0  0  0  0  0  0  0  0  0  0
   55.2221    8.2080   13.9579 H   0  0  0  0  0  0  0  0  0  0  0  0
   55.4085    7.2541   16.2628 H   0  0  0  0  0  0  0  0  0  0  0  0
   55.2167    6.0310   14.3361 H   0  0  0  0  0  0  0  0  0  0  0  0
   53.3989    7.9379   17.4531 H   0  0  0  0  0  0  0  0  0  0  0  0
   52.1256    5.6954   15.7726 H   0  0  0  0  0  0  0  0  0  0  0  0
   47.3529    7.8948   20.1078 H   0  0  0  0  0  0  0  0  0  0  0  0
   46.7570    6.1760   21.7783 H   0  0  0  0  0  0  0  0  0  0  0  0
   48.0717    4.0658   21.9115 H   0  0  0  0  0  0  0  0  0  0  0  0
   49.9498    3.7084   20.3741 H   0  0  0  0  0  0  0  0  0  0  0  0
   50.2828    3.1443   17.1293 H   0  0  0  0  0  0  0  0  0  0  0  0
   51.6554    1.0736   17.1294 H   0  0  0  0  0  0  0  0  0  0  0  0
   54.5612    2.9665   19.6449 H   0  0  0  0  0  0  0  0  0  0  0  0
   53.2092    5.0503   19.6665 H   0  0  0  0  0  0  0  0  0  0  0  0
   51.2825    9.5091   16.8408 H   0  0  0  0  0  0  0  0  0  0  0  0
   50.8684    9.1736   14.4025 H   0  0  0  0  0  0  0  0  0  0  0  0
   49.8496    7.7039   14.7395 H   0  0  0  0  0  0  0  0  0  0  0  0
   48.2889    9.0996   16.1323 H   0  0  0  0  0  0  0  0  0  0  0  0
   49.3046   10.5731   15.7906 H   0  0  0  0  0  0  0  0  0  0  0  0
   53.3335   10.8234   13.7932 H   0  0  0  0  0  0  0  0  0  0  0  0
   54.4240   11.8475   14.7593 H   0  0  0  0  0  0  0  0  0  0  0  0
  2  1  1  0
  2  3  1  0
  3  4  1  0
  4  5  1  0
  4  6  1  0
  6  7  2  0
  7  8  1  0
  8  9  2  0
  9 10  1  0
 10 11  2  0
 11 12  1  0
 12 13  2  0
 13 14  1  0
 14 15  2  0
 15 16  1  0
 11 16  1  0
 16 17  2  0
  8 17  1  0
 17 18  1  0
 18 19  2  0
 19 20  1  0
 20 21  2  0
 21 22  1  0
 21 23  1  0
 23 24  2  0
 18 24  1  0
  9 25  1  0
 25 26  1  0
 26 27  1  0
 25 27  1  0
  2 28  1  0
 28 29  1  0
 29 30  2  0
 29 31  1  0
 34 33  1  0
 34 35  1  0
 35 36  1  0
 36 37  1  0
 36 38  1  0
 38 39  2  0
 39 40  1  0
 40 41  2  0
 41 42  1  0
 42 43  2  0
 43 44  1  0
 44 45  2  0
 45 46  1  0
 46 47  2  0
 47 48  1  0
 43 48  1  0
 48 49  2  0
 40 49  1  0
 49 50  1  0
 50 51  2  0
 51 52  1  0
 52 53  2  0
 53 54  1  0
 53 55  1  0
 55 56  2  0
 50 56  1  0
 41 57  1  0
 57 58  1  0
 58 59  1  0
 57 59  1  0
 34 60  1  0
 60 61  1  0
 61 62  2  0
 61 63  1  0
  1 64  1  0
  2 65  1  1
  3 66  1  0
  3 67  1  0
  4 68  1  1
  5 69  1  0
  6 70  1  0
  7 71  1  0
 12 72  1  0
 13 73  1  0
 14 74  1  0
 15 75  1  0
 19 76  1  0
 20 77  1  0
 23 78  1  0
 24 79  1  0
 25 80  1  0
 26 81  1  0
 26 82  1  0
 27 83  1  0
 27 84  1  0
 28 85  1  0
 28 86  1  0
 33 87  1  0
 34 88  1  1
 35 89  1  0
 35 90  1  0
 36 91  1  1
 37 92  1  0
 38 93  1  0
 39 94  1  0
 44 95  1  0
 45 96  1  0
 46 97  1  0
 47 98  1  0
 51 99  1  0
 52100  1  0
 55101  1  0
 56102  1  0
 57103  1  0
 58104  1  0
 58105  1  0
 59106  1  0
 59107  1  0
 60108  1  0
 60109  1  0
M  CHG  3  31  -1  32   2  63  -1
M  END
> <Uni-Dock RESULT> 
ENERGY=   -6.518  LOWER_BOUND=    4.286  UPPER_BOUND=    7.002
INTER + INTRA:          -6.518
INTER:                  -6.518
INTRA:                   0.000
UNBOUND:                 0.000

$$$$

     RDKit          3D

109114  0  0  0  0  0  0  0  0999 V2000
   47.8723    8.5338   13.5682 O   0  0  0  0  0  0  0  0  0  0  0  0
   49.0458    9.3537   13.6708 C   0  0  2  0  0  0  0  0  0  0  0  0
   49.7531    9.0321   14.9941 C   0  0  0  0  0  0  0  0  0  0  0  0
   50.0373    7.5317   15.1472 C   0  0  2  0  0  0  0  0  0  0  0  0
   48.8200    6.8141   15.3441 O   0  0  0  0  0  0  0  0  0  0  0  0
   50.8813    7.2664   16.3595 C   0  0  0  0  0  0  0  0  0  0  0  0
   52.0769    6.6535   16.3322 C   0  0  0  0  0  0  0  0  0  0  0  0
   52.8860    6.4150   17.5441 C   0  0  0  0  0  0  0  0  0  0  0  0
   54.0975    7.1123   17.7065 C   0  0  0  0  0  0  0  0  0  0  0  0
   54.8752    6.9343   18.8069 N   0  0  0  0  0  0  0  0  0  0  0  0
   54.5036    6.0690   19.7564 C   0  0  0  0  0  0  0  0  0  0  0  0
   55.3412    5.9197   20.8539 C   0  0  0  0  0  0  0  0  0  0  0  0
   55.0559    5.0346   21.8944 C   0  0  0  0  0  0  0  0  0  0  0  0
   53.8973    4.2783   21.8438 C   0  0  0  0  0  0  0  0  0  0  0  0
   53.0404    4.4110   20.7497 C   0  0  0  0  0  0  0  0  0  0  0  0
   53.3242    5.3052   19.6830 C   0  0  0  0  0  0  0  0  0  0  0  0
   52.4941    5.4865   18.5403 C   0  0  0  0  0  0  0  0  0  0  0  0
   51.2487    4.7036   18.3986 C   0  0  0  0  0  0  0  0  0  0  0  0
   51.2339    3.5160   17.6456 C   0  0  0  0  0  0  0  0  0  0  0  0
   50.0588    2.7749   17.5099 C   0  0  0  0  0  0  0  0  0  0  0  0
   48.8963    3.2183   18.1278 C   0  0  0  0  0  0  0  0  0  0  0  0
   47.7751    2.4948   18.0125 F   0  0  0  0  0  0  0  0  0  0  0  0
   48.8855    4.3844   18.8820 C   0  0  0  0  0  0  0  0  0  0  0  0
   50.0595    5.1259   19.0182 C   0  0  0  0  0  0  0  0  0  0  0  0
   54.5906    8.1239   16.6801 C   0  0  0  0  0  0  0  0  0  0  0  0
   55.2240    7.6460   15.3909 C   0  0  0  0  0  0  0  0  0  0  0  0
   56.0736    8.3057   16.4295 C   0  0  0  0  0  0  0  0  0  0  0  0
   48.6604   10.8257   13.6005 C   0  0  0  0  0  0  0  0  0  0  0  0
   48.1766   11.1705   12.1949 C   0  0  0  0  0  0  0  0  0  0  0  0
   47.4878   10.2683   11.6296 O   0  0  0  0  0  0  0  0  0  0  0  0
   48.5106   12.3131   11.7761 O   0  0  0  0  0  0  0  0  0  0  0  0
   51.5997    6.8549   16.9246 Mg  0  0  0  0  0 15  0  0  0  0  0  0
   49.1119    9.0937   13.3596 O   0  0  0  0  0  0  0  0  0  0  0  0
   50.2764    9.5694   14.0403 C   0  0  2  0  0  0  0  0  0  0  0  0
   49.9422    9.8306   15.5132 C   0  0  0  0  0  0  0  0  0  0  0  0
   49.4264    8.5959   16.2671 C   0  0  2  0  0  0  0  0  0  0  0  0
   49.0551    8.9873   17.5927 O   0  0  0  0  0  0  0  0  0  0  0  0
   50.4553    7.5009   16.3498 C   0  0  0  0  0  0  0  0  0  0  0  0
   51.2414    7.2385   17.4068 C   0  0  0  0  0  0  0  0  0  0  0  0
   52.2656    6.1766   17.3908 C   0  0  0  0  0  0  0  0  0  0  0  0
   53.4119    6.2994   16.5833 C   0  0  0  0  0  0  0  0  0  0  0  0
   54.3567    5.3219   16.5422 N   0  0  0  0  0  0  0  0  0  0  0  0
   54.2139    4.2237   17.2929 C   0  0  0  0  0  0  0  0  0  0  0  0
   55.2065    3.2554   17.2172 C   0  0  0  0  0  0  0  0  0  0  0  0
   55.1473    2.0737   17.9595 C   0  0  0  0  0  0  0  0  0  0  0  0
   54.0727    1.8461   18.8043 C   0  0  0  0  0  0  0  0  0  0  0  0
   53.0660    2.8057   18.8977 C   0  0  0  0  0  0  0  0  0  0  0  0
   53.1141    4.0110   18.1480 C   0  0  0  0  0  0  0  0  0  0  0  0
   52.1171    5.0247   18.2005 C   0  0  0  0  0  0  0  0  0  0  0  0
   50.9490    4.8768   19.0956 C   0  0  0  0  0  0  0  0  0  0  0  0
   51.0375    5.2380   20.4530 C   0  0  0  0  0  0  0  0  0  0  0  0
   49.9370    5.0921   21.2995 C   0  0  0  0  0  0  0  0  0  0  0  0
   48.7464    4.5822   20.7945 C   0  0  0  0  0  0  0  0  0  0  0  0
   47.6931    4.4382   21.6095 F   0  0  0  0  0  0  0  0  0  0  0  0
   48.6353    4.2174   19.4587 C   0  0  0  0  0  0  0  0  0  0  0  0
   49.7343    4.3641   18.6094 C   0  0  0  0  0  0  0  0  0  0  0  0
   53.6694    7.5194   15.7134 C   0  0  0  0  0  0  0  0  0  0  0  0
   53.9734    8.8604   16.3429 C   0  0  0  0  0  0  0  0  0  0  0  0
   55.0589    8.1134   15.6329 C   0  0  0  0  0  0  0  0  0  0  0  0
   50.8546   10.7918   13.3254 C   0  0  0  0  0  0  0  0  0  0  0  0
   49.9001   11.9837   13.3324 C   0  0  0  0  0  0  0  0  0  0  0  0
   48.6794   11.6840   13.1670 O   0  0  0  0  0  0  0  0  0  0  0  0
   50.4476   13.1078   13.4994 O   0  0  0  0  0  0  0  0  0  0  0  0
   47.4247    8.8895   12.7528 H   0  0  0  0  0  0  0  0  0  0  0  0
   49.7069    9.0888   12.8360 H   0  0  0  0  0  0  0  0  0  0  0  0
   50.6880    9.6048   15.0554 H   0  0  0  0  0  0  0  0  0  0  0  0
   49.1068    9.3546   15.8232 H   0  0  0  0  0  0  0  0  0  0  0  0
   50.5168    7.1429   14.2397 H   0  0  0  0  0  0  0  0  0  0  0  0
   48.1903    7.1990   14.6905 H   0  0  0  0  0  0  0  0  0  0  0  0
   50.4648    7.6073   17.3052 H   0  0  0  0  0  0  0  0  0  0  0  0
   52.5084    6.3107   15.3961 H   0  0  0  0  0  0  0  0  0  0  0  0
   56.2523    6.5117   20.8986 H   0  0  0  0  0  0  0  0  0  0  0  0
   55.7431    4.9359   22.7298 H   0  0  0  0  0  0  0  0  0  0  0  0
   53.6607    3.5806   22.6434 H   0  0  0  0  0  0  0  0  0  0  0  0
   52.1416    3.7989   20.7338 H   0  0  0  0  0  0  0  0  0  0  0  0
   52.1432    3.1691   17.1578 H   0  0  0  0  0  0  0  0  0  0  0  0
   50.0433    1.8579   16.9279 H   0  0  0  0  0  0  0  0  0  0  0  0
   47.9614    4.7182   19.3416 H   0  0  0  0  0  0  0  0  0  0  0  0
   50.0407    6.0514   19.5906 H   0  0  0  0  0  0  0  0  0  0  0  0
   53.9930    9.0317   16.6220 H   0  0  0  0  0  0  0  0  0  0  0  0
   55.3521    6.5809   15.2415 H   0  0  0  0  0  0  0  0  0  0  0  0
   54.9986    8.1997   14.4871 H   0  0  0  0  0  0  0  0  0  0  0  0
   56.4310    9.3098   16.2358 H   0  0  0  0  0  0  0  0  0  0  0  0
   56.7704    7.6858   16.9826 H   0  0  0  0  0  0  0  0  0  0  0  0
   47.8422   11.0534   14.2931 H   0  0  0  0  0  0  0  0  0  0  0  0
   49.5187   11.4596   13.8521 H   0  0  0  0  0  0  0  0  0  0  0  0
   48.5983    9.9208   13.1621 H   0  0  0  0  0  0  0  0  0  0  0  0
   51.0201    8.7689   13.9658 H   0  0  0  0  0  0  0  0  0  0  0  0
   50.8190   10.2395   16.0302 H   0  0  0  0  0  0  0  0  0  0  0  0
   49.1706   10.6064   15.5864 H   0  0  0  0  0  0  0  0  0  0  0  0
   48.5215    8.1996   15.7947 H   0  0  0  0  0  0  0  0  0  0  0  0
   48.4445    9.7420   17.4859 H   0  0  0  0  0  0  0  0  0  0  0  0
   50.5538    6.9078   15.4427 H   0  0  0  0  0  0  0  0  0  0  0  0
   51.1498    7.8154   18.3228 H   0  0  0  0  0  0  0  0  0  0  0  0
   56.0548    3.4295   16.5578 H   0  0  0  0  0  0  0  0  0  0  0  0
   55.9417    1.3384   17.8673 H   0  0  0  0  0  0  0  0  0  0  0  0
   54.0091    0.9248   19.3816 H   0  0  0  0  0  0  0  0  0  0  0  0
   52.2312    2.6054   19.5649 H   0  0  0  0  0  0  0  0  0  0  0  0
   51.9664    5.6459   20.8469 H   0  0  0  0  0  0  0  0  0  0  0  0
   50.0015    5.3782   22.3433 H   0  0  0  0  0  0  0  0  0  0  0  0
   47.6924    3.8349   19.0812 H   0  0  0  0  0  0  0  0  0  0  0  0
   49.6406    4.0879   17.5610 H   0  0  0  0  0  0  0  0  0  0  0  0
   53.1027    7.5366   14.7866 H   0  0  0  0  0  0  0  0  0  0  0  0
   53.5591    9.7410   15.8645 H   0  0  0  0  0  0  0  0  0  0  0  0
   54.0209    8.9251   17.4242 H   0  0  0  0  0  0  0  0  0  0  0  0
   55.8454    7.6701   16.2326 H   0  0  0  0  0  0  0  0  0  0  0  0
   55.3881    8.4910   14.6717 H   0  0  0  0  0  0  0  0  0  0  0  0
   51.8104   11.0793   13.7859 H   0  0  0  0  0  0  0  0  0  0  0  0
   51.0438   10.5510   12.2678 H   0  0  0  0  0  0  0  0  0  0  0  0
  2  1  1  0
  2  3  1  0
  3  4  1  0
  4  5  1  0
  4  6  1  0
  6  7  2  0
  7  8  1  0
  8  9  2  0
  9 10  1  0
 10 11  2  0
 11 12  1  0
 12 13  2  0
 13 14  1  0
 14 15  2  0
 15 16  1  0
 11 16  1  0
 16 17  2  0
  8 17  1  0
 17 18  1  0
 18 19  2  0
 19 20  1  0
 20 21  2  0
 21 22  1  0
 21 23  1  0
 23 24  2  0
 18 24  1  0
  9 25  1  0
 25 26  1  0
 26 27  1  0
 25 27  1  0
  2 28  1  0
 28 29  1  0
 29 30  2  0
 29 31  1  0
 34 33  1  0
 34 35  1  0
 35 36  1  0
 36 37  1  0
 36 38  1  0
 38 39  2  0
 39 40  1  0
 40 41  2  0
 41 42  1  0
 42 43  2  0
 43 44  1  0
 44 45  2  0
 45 46  1  0
 46 47  2  0
 47 48  1  0
 43 48  1  0
 48 49  2  0
 40 49  1  0
 49 50  1  0
 50 51  2  0
 51 52  1  0
 52 53  2  0
 53 54  1  0
 53 55  1  0
 55 56  2  0
 50 56  1  0
 41 57  1  0
 57 58  1  0
 58 59  1  0
 57 59  1  0
 34 60  1  0
 60 61  1  0
 61 62  2  0
 61 63  1  0
  1 64  1  0
  2 65  1  1
  3 66  1  0
  3 67  1  0
  4 68  1  1
  5 69  1  0
  6 70  1  0
  7 71  1  0
 12 72  1  0
 13 73  1  0
 14 74  1  0
 15 75  1  0
 19 76  1  0
 20 77  1  0
 23 78  1  0
 24 79  1  0
 25 80  1  0
 26 81  1  0
 26 82  1  0
 27 83  1  0
 27 84  1  0
 28 85  1  0
 28 86  1  0
 33 87  1  0
 34 88  1  1
 35 89  1  0
 35 90  1  0
 36 91  1  1
 37 92  1  0
 38 93  1  0
 39 94  1  0
 44 95  1  0
 45 96  1  0
 46 97  1  0
 47 98  1  0
 51 99  1  0
 52100  1  0
 55101  1  0
 56102  1  0
 57103  1  0
 58104  1  0
 58105  1  0
 59106  1  0
 59107  1  0
 60108  1  0
 60109  1  0
M  CHG  3  31  -1  32   2  63  -1
M  END
> <Uni-Dock RESULT> 
ENERGY=   -6.000  LOWER_BOUND=    3.087  UPPER_BOUND=    5.768
INTER + INTRA:          -6.000
INTER:                  -6.000
INTRA:                   0.000
UNBOUND:                 0.000

$$$$

     RDKit          3D

109114  0  0  0  0  0  0  0  0999 V2000
   46.8875   13.5020   11.9231 O   0  0  0  0  0  0  0  0  0  0  0  0
   47.2085   14.8894   12.1028 C   0  0  2  0  0  0  0  0  0  0  0  0
   47.3094   15.1775   13.6066 C   0  0  0  0  0  0  0  0  0  0  0  0
   48.2844   14.2255   14.3128 C   0  0  2  0  0  0  0  0  0  0  0  0
   47.7446   12.9056   14.3560 O   0  0  0  0  0  0  0  0  0  0  0  0
   48.4984   14.6381   15.7398 C   0  0  0  0  0  0  0  0  0  0  0  0
   49.6954   14.9394   16.2710 C   0  0  0  0  0  0  0  0  0  0  0  0
   49.8699   15.3500   17.6786 C   0  0  0  0  0  0  0  0  0  0  0  0
   50.2604   16.6718   17.9627 C   0  0  0  0  0  0  0  0  0  0  0  0
   50.4276   17.1016   19.2413 N   0  0  0  0  0  0  0  0  0  0  0  0
   50.2374   16.2581   20.2613 C   0  0  0  0  0  0  0  0  0  0  0  0
   50.4319   16.7483   21.5460 C   0  0  0  0  0  0  0  0  0  0  0  0
   50.2739   15.9505   22.6801 C   0  0  0  0  0  0  0  0  0  0  0  0
   49.9051   14.6244   22.5312 C   0  0  0  0  0  0  0  0  0  0  0  0
   49.7048   14.1093   21.2492 C   0  0  0  0  0  0  0  0  0  0  0  0
   49.8681   14.9115   20.0882 C   0  0  0  0  0  0  0  0  0  0  0  0
   49.6806   14.4479   18.7549 C   0  0  0  0  0  0  0  0  0  0  0  0
   49.3054   13.0402   18.5068 C   0  0  0  0  0  0  0  0  0  0  0  0
   50.2896   12.0809   18.2089 C   0  0  0  0  0  0  0  0  0  0  0  0
   49.9378   10.7508   17.9737 C   0  0  0  0  0  0  0  0  0  0  0  0
   48.6016   10.3760   18.0373 C   0  0  0  0  0  0  0  0  0  0  0  0
   48.2688    9.0952   17.8309 F   0  0  0  0  0  0  0  0  0  0  0  0
   47.6108   11.3025   18.3356 C   0  0  0  0  0  0  0  0  0  0  0  0
   47.9616   12.6323   18.5707 C   0  0  0  0  0  0  0  0  0  0  0  0
   50.4874   17.7007   16.8628 C   0  0  0  0  0  0  0  0  0  0  0  0
   51.7634   17.6688   16.0489 C   0  0  0  0  0  0  0  0  0  0  0  0
   51.5382   18.7801   17.0236 C   0  0  0  0  0  0  0  0  0  0  0  0
   46.1422   15.7594   11.4498 C   0  0  0  0  0  0  0  0  0  0  0  0
   46.2213   15.6282    9.9315 C   0  0  0  0  0  0  0  0  0  0  0  0
   46.4894   14.4633    9.5082 O   0  0  0  0  0  0  0  0  0  0  0  0
   45.9980   16.6900    9.2873 O   0  0  0  0  0  0  0  0  0  0  0  0
   48.9883   14.8203   16.5951 Mg  0  0  0  0  0 15  0  0  0  0  0  0
   47.5365   14.7155   11.9269 O   0  0  0  0  0  0  0  0  0  0  0  0
   47.7922   15.8684   12.7338 C   0  0  2  0  0  0  0  0  0  0  0  0
   46.7681   15.9387   13.8721 C   0  0  0  0  0  0  0  0  0  0  0  0
   46.7692   14.7090   14.7924 C   0  0  2  0  0  0  0  0  0  0  0  0
   45.7102   14.8460   15.7454 O   0  0  0  0  0  0  0  0  0  0  0  0
   48.0713   14.5418   15.5278 C   0  0  0  0  0  0  0  0  0  0  0  0
   48.3107   14.9102   16.7971 C   0  0  0  0  0  0  0  0  0  0  0  0
   49.6340   14.7595   17.4319 C   0  0  0  0  0  0  0  0  0  0  0  0
   50.7239   15.5444   17.0106 C   0  0  0  0  0  0  0  0  0  0  0  0
   51.9550   15.4053   17.5718 N   0  0  0  0  0  0  0  0  0  0  0  0
   52.1432   14.5199   18.5570 C   0  0  0  0  0  0  0  0  0  0  0  0
   53.4178   14.4167   19.0985 C   0  0  0  0  0  0  0  0  0  0  0  0
   53.7153   13.5210   20.1282 C   0  0  0  0  0  0  0  0  0  0  0  0
   52.7185   12.7046   20.6381 C   0  0  0  0  0  0  0  0  0  0  0  0
   51.4311   12.7932   20.1111 C   0  0  0  0  0  0  0  0  0  0  0  0
   51.1157   13.6993   19.0639 C   0  0  0  0  0  0  0  0  0  0  0  0
   49.8226   13.8329   18.4857 C   0  0  0  0  0  0  0  0  0  0  0  0
   48.6934   13.0200   18.9870 C   0  0  0  0  0  0  0  0  0  0  0  0
   47.9610   13.4320   20.1161 C   0  0  0  0  0  0  0  0  0  0  0  0
   46.8994   12.6613   20.5935 C   0  0  0  0  0  0  0  0  0  0  0  0
   46.5679   11.4759   19.9476 C   0  0  0  0  0  0  0  0  0  0  0  0
   45.5522   10.7352   20.4102 F   0  0  0  0  0  0  0  0  0  0  0  0
   47.2770   11.0478   18.8323 C   0  0  0  0  0  0  0  0  0  0  0  0
   48.3383   11.8179   18.3517 C   0  0  0  0  0  0  0  0  0  0  0  0
   50.6000   16.5895   15.9135 C   0  0  0  0  0  0  0  0  0  0  0  0
   49.7870   17.8449   16.1378 C   0  0  0  0  0  0  0  0  0  0  0  0
   51.2795   17.9330   16.0661 C   0  0  0  0  0  0  0  0  0  0  0  0
   47.8249   17.1312   11.8712 C   0  0  0  0  0  0  0  0  0  0  0  0
   46.4817   17.4254   11.2073 C   0  0  0  0  0  0  0  0  0  0  0  0
   45.8631   16.4006   10.7897 O   0  0  0  0  0  0  0  0  0  0  0  0
   46.1635   18.6451   11.1592 O   0  0  0  0  0  0  0  0  0  0  0  0
   46.7286   13.4371   10.9422 H   0  0  0  0  0  0  0  0  0  0  0  0
   48.1863   15.0644   11.6365 H   0  0  0  0  0  0  0  0  0  0  0  0
   47.6192   16.2201   13.7572 H   0  0  0  0  0  0  0  0  0  0  0  0
   46.3122   15.0556   14.0536 H   0  0  0  0  0  0  0  0  0  0  0  0
   49.2357   14.1848   13.7669 H   0  0  0  0  0  0  0  0  0  0  0  0
   47.3707   12.7550   13.4564 H   0  0  0  0  0  0  0  0  0  0  0  0
   47.6016   14.6851   16.3543 H   0  0  0  0  0  0  0  0  0  0  0  0
   50.5995   14.9012   15.6701 H   0  0  0  0  0  0  0  0  0  0  0  0
   50.7213   17.7893   21.6684 H   0  0  0  0  0  0  0  0  0  0  0  0
   50.4485   16.3670   23.6679 H   0  0  0  0  0  0  0  0  0  0  0  0
   49.7812   13.9868   23.4031 H   0  0  0  0  0  0  0  0  0  0  0  0
   49.4228   13.0625   21.1628 H   0  0  0  0  0  0  0  0  0  0  0  0
   51.3368   12.3737   18.1551 H   0  0  0  0  0  0  0  0  0  0  0  0
   50.6951   10.0074   17.7420 H   0  0  0  0  0  0  0  0  0  0  0  0
   46.5730   10.9886   18.3638 H   0  0  0  0  0  0  0  0  0  0  0  0
   47.1794   13.3595   18.7808 H   0  0  0  0  0  0  0  0  0  0  0  0
   49.5830   18.0044   16.3390 H   0  0  0  0  0  0  0  0  0  0  0  0
   52.5163   16.9304   16.2964 H   0  0  0  0  0  0  0  0  0  0  0  0
   51.6884   17.8928   14.9914 H   0  0  0  0  0  0  0  0  0  0  0  0
   51.3108   19.7647   16.6332 H   0  0  0  0  0  0  0  0  0  0  0  0
   52.1350   18.7889   17.9288 H   0  0  0  0  0  0  0  0  0  0  0  0
   45.1367   15.4464   11.7532 H   0  0  0  0  0  0  0  0  0  0  0  0
   46.2807   16.8105   11.7286 H   0  0  0  0  0  0  0  0  0  0  0  0
   46.7973   15.0037   11.3291 H   0  0  0  0  0  0  0  0  0  0  0  0
   48.7970   15.7328   13.1477 H   0  0  0  0  0  0  0  0  0  0  0  0
   46.9302   16.8457   14.4674 H   0  0  0  0  0  0  0  0  0  0  0  0
   45.7581   16.0373   13.4567 H   0  0  0  0  0  0  0  0  0  0  0  0
   46.5608   13.7961   14.2248 H   0  0  0  0  0  0  0  0  0  0  0  0
   44.9037   15.0217   15.2234 H   0  0  0  0  0  0  0  0  0  0  0  0
   48.8689   14.0999   14.9339 H   0  0  0  0  0  0  0  0  0  0  0  0
   47.5231   15.3448   17.4063 H   0  0  0  0  0  0  0  0  0  0  0  0
   54.2046   15.0573   18.7045 H   0  0  0  0  0  0  0  0  0  0  0  0
   54.7271   13.4668   20.5203 H   0  0  0  0  0  0  0  0  0  0  0  0
   52.9388   11.9950   21.4343 H   0  0  0  0  0  0  0  0  0  0  0  0
   50.6651   12.1418   20.5246 H   0  0  0  0  0  0  0  0  0  0  0  0
   48.2140   14.3647   20.6167 H   0  0  0  0  0  0  0  0  0  0  0  0
   46.3290   12.9822   21.4579 H   0  0  0  0  0  0  0  0  0  0  0  0
   46.9927   10.1265   18.3340 H   0  0  0  0  0  0  0  0  0  0  0  0
   48.8846   11.4855   17.4711 H   0  0  0  0  0  0  0  0  0  0  0  0
   50.5957   16.1832   14.9059 H   0  0  0  0  0  0  0  0  0  0  0  0
   49.2101   18.2213   15.3002 H   0  0  0  0  0  0  0  0  0  0  0  0
   49.3126   17.9881   17.1021 H   0  0  0  0  0  0  0  0  0  0  0  0
   51.8201   18.1369   16.9832 H   0  0  0  0  0  0  0  0  0  0  0  0
   51.7185   18.3767   15.1800 H   0  0  0  0  0  0  0  0  0  0  0  0
   48.1354   17.9932   12.4784 H   0  0  0  0  0  0  0  0  0  0  0  0
   48.5545   17.0074   11.0557 H   0  0  0  0  0  0  0  0  0  0  0  0
  2  1  1  0
  2  3  1  0
  3  4  1  0
  4  5  1  0
  4  6  1  0
  6  7  2  0
  7  8  1  0
  8  9  2  0
  9 10  1  0
 10 11  2  0
 11 12  1  0
 12 13  2  0
 13 14  1  0
 14 15  2  0
 15 16  1  0
 11 16  1  0
 16 17  2  0
  8 17  1  0
 17 18  1  0
 18 19  2  0
 19 20  1  0
 20 21  2  0
 21 22  1  0
 21 23  1  0
 23 24  2  0
 18 24  1  0
  9 25  1  0
 25 26  1  0
 26 27  1  0
 25 27  1  0
  2 28  1  0
 28 29  1  0
 29 30  2  0
 29 31  1  0
 34 33  1  0
 34 35  1  0
 35 36  1  0
 36 37  1  0
 36 38  1  0
 38 39  2  0
 39 40  1  0
 40 41  2  0
 41 42  1  0
 42 43  2  0
 43 44  1  0
 44 45  2  0
 45 46  1  0
 46 47  2  0
 47 48  1  0
 43 48  1  0
 48 49  2  0
 40 49  1  0
 49 50  1  0
 50 51  2  0
 51 52  1  0
 52 53  2  0
 53 54  1  0
 53 55  1  0
 55 56  2  0
 50 56  1  0
 41 57  1  0
 57 58  1  0
 58 59  1  0
 57 59  1  0
 34 60  1  0
 60 61  1  0
 61 62  2  0
 61 63  1  0
  1 64  1  0
  2 65  1  1
  3 66  1  0
  3 67  1  0
  4 68  1  1
  5 69  1  0
  6 70  1  0
  7 71  1  0
 12 72  1  0
 13 73  1  0
 14 74  1  0
 15 75  1  0
 19 76  1  0
 20 77  1  0
 23 78  1  0
 24 79  1  0
 25 80  1  0
 26 81  1  0
 26 82  1  0
 27 83  1  0
 27 84  1  0
 28 85  1  0
 28 86  1  0
 33 87  1  0
 34 88  1  1
 35 89  1  0
 35 90  1  0
 36 91  1  1
 37 92  1  0
 38 93  1  0
 39 94  1  0
 44 95  1  0
 45 96  1  0
 46 97  1  0
 47 98  1  0
 51 99  1  0
 52100  1  0
 55101  1  0
 56102  1  0
 57103  1  0
 58104  1  0
 58105  1  0
 59106  1  0
 59107  1  0
 60108  1  0
 60109  1  0
M  CHG  3  31  -1  32   2  63  -1
M  END
> <Uni-Dock RESULT> 
ENERGY=   -4.955  LOWER_BOUND=    6.455  UPPER_BOUND=    9.467
INTER + INTRA:          -4.955
INTER:                  -4.955
INTRA:                   0.000
UNBOUND:                 0.000

$$$$

     RDKit          3D

109114  0  0  0  0  0  0  0  0999 V2000
   51.9174    6.5252    8.6328 O   0  0  0  0  0  0  0  0  0  0  0  0
   53.1273    6.7097    9.3826 C   0  0  2  0  0  0  0  0  0  0  0  0
   52.8996    7.8244   10.4123 C   0  0  0  0  0  0  0  0  0  0  0  0
   51.6686    7.5578   11.2893 C   0  0  2  0  0  0  0  0  0  0  0  0
   50.4740    7.6919   10.5208 O   0  0  0  0  0  0  0  0  0  0  0  0
   51.5701    8.5658   12.3967 C   0  0  0  0  0  0  0  0  0  0  0  0
   51.5489    8.2566   13.7044 C   0  0  0  0  0  0  0  0  0  0  0  0
   51.4592    9.2748   14.7699 C   0  0  0  0  0  0  0  0  0  0  0  0
   52.5660    9.4813   15.6142 C   0  0  0  0  0  0  0  0  0  0  0  0
   52.5371   10.4111   16.6052 N   0  0  0  0  0  0  0  0  0  0  0  0
   51.4350   11.1415   16.8059 C   0  0  0  0  0  0  0  0  0  0  0  0
   51.4578   12.0695   17.8387 C   0  0  0  0  0  0  0  0  0  0  0  0
   50.3583   12.8731   18.1432 C   0  0  0  0  0  0  0  0  0  0  0  0
   49.2012   12.7533   17.3923 C   0  0  0  0  0  0  0  0  0  0  0  0
   49.1548   11.8264   16.3494 C   0  0  0  0  0  0  0  0  0  0  0  0
   50.2667   11.0000   16.0347 C   0  0  0  0  0  0  0  0  0  0  0  0
   50.2838   10.0359   14.9869 C   0  0  0  0  0  0  0  0  0  0  0  0
   49.0830    9.8310   14.1502 C   0  0  0  0  0  0  0  0  0  0  0  0
   48.1696    8.8052   14.4517 C   0  0  0  0  0  0  0  0  0  0  0  0
   47.0348    8.6093   13.6627 C   0  0  0  0  0  0  0  0  0  0  0  0
   46.8098    9.4391   12.5716 C   0  0  0  0  0  0  0  0  0  0  0  0
   45.7100    9.2616   11.8281 F   0  0  0  0  0  0  0  0  0  0  0  0
   47.6931   10.4633   12.2558 C   0  0  0  0  0  0  0  0  0  0  0  0
   48.8276   10.6599   13.0439 C   0  0  0  0  0  0  0  0  0  0  0  0
   53.8641    8.7018   15.4490 C   0  0  0  0  0  0  0  0  0  0  0  0
   53.9569    7.2738   15.9430 C   0  0  0  0  0  0  0  0  0  0  0  0
   54.7101    8.3510   16.6559 C   0  0  0  0  0  0  0  0  0  0  0  0
   54.2741    7.0593    8.4430 C   0  0  0  0  0  0  0  0  0  0  0  0
   54.6341    5.8479    7.5877 C   0  0  0  0  0  0  0  0  0  0  0  0
   53.6471    5.1465    7.2108 O   0  0  0  0  0  0  0  0  0  0  0  0
   55.8652    5.7024    7.3518 O   0  0  0  0  0  0  0  0  0  0  0  0
   51.4101    8.9278   13.3177 Mg  0  0  0  0  0 15  0  0  0  0  0  0
   52.9847    6.3372    9.4810 O   0  0  0  0  0  0  0  0  0  0  0  0
   53.7782    6.9901   10.4758 C   0  0  2  0  0  0  0  0  0  0  0  0
   53.5885    8.5076   10.3728 C   0  0  0  0  0  0  0  0  0  0  0  0
   52.1348    8.9706   10.5501 C   0  0  2  0  0  0  0  0  0  0  0  0
   52.0717   10.3838   10.3326 O   0  0  0  0  0  0  0  0  0  0  0  0
   51.5956    8.6614   11.9205 C   0  0  0  0  0  0  0  0  0  0  0  0
   51.5040    9.5271   12.9434 C   0  0  0  0  0  0  0  0  0  0  0  0
   51.0105    9.1320   14.2766 C   0  0  0  0  0  0  0  0  0  0  0  0
   51.7640    8.2664   15.0916 C   0  0  0  0  0  0  0  0  0  0  0  0
   51.3155    7.8772   16.3151 N   0  0  0  0  0  0  0  0  0  0  0  0
   50.1436    8.3327   16.7724 C   0  0  0  0  0  0  0  0  0  0  0  0
   49.7303    7.9076   18.0282 C   0  0  0  0  0  0  0  0  0  0  0  0
   48.5222    8.3249   18.5915 C   0  0  0  0  0  0  0  0  0  0  0  0
   47.7001    9.1919   17.8897 C   0  0  0  0  0  0  0  0  0  0  0  0
   48.0963    9.6334   16.6283 C   0  0  0  0  0  0  0  0  0  0  0  0
   49.3218    9.2162   16.0441 C   0  0  0  0  0  0  0  0  0  0  0  0
   49.7776    9.6311   14.7618 C   0  0  0  0  0  0  0  0  0  0  0  0
   48.9761   10.5767   13.9550 C   0  0  0  0  0  0  0  0  0  0  0  0
   49.0783   11.9641   14.1680 C   0  0  0  0  0  0  0  0  0  0  0  0
   48.3167   12.8564   13.4111 C   0  0  0  0  0  0  0  0  0  0  0  0
   47.4489   12.3664   12.4421 C   0  0  0  0  0  0  0  0  0  0  0  0
   46.7153   13.2239   11.7204 F   0  0  0  0  0  0  0  0  0  0  0  0
   47.3297   11.0011   12.2147 C   0  0  0  0  0  0  0  0  0  0  0  0
   48.0917   10.1065   12.9693 C   0  0  0  0  0  0  0  0  0  0  0  0
   53.1152    7.7154   14.6649 C   0  0  0  0  0  0  0  0  0  0  0  0
   54.3118    8.6313   14.5372 C   0  0  0  0  0  0  0  0  0  0  0  0
   54.2530    7.6433   15.6600 C   0  0  0  0  0  0  0  0  0  0  0  0
   55.2405    6.5548   10.3672 C   0  0  0  0  0  0  0  0  0  0  0  0
   55.8805    6.9670    9.0435 C   0  0  0  0  0  0  0  0  0  0  0  0
   55.1214    6.8603    8.0338 O   0  0  0  0  0  0  0  0  0  0  0  0
   57.0773    7.3573    9.1255 O   0  0  0  0  0  0  0  0  0  0  0  0
   52.1919    5.8799    7.9256 H   0  0  0  0  0  0  0  0  0  0  0  0
   53.3348    5.7699    9.9098 H   0  0  0  0  0  0  0  0  0  0  0  0
   53.7962    7.9311   11.0371 H   0  0  0  0  0  0  0  0  0  0  0  0
   52.7504    8.7719    9.8745 H   0  0  0  0  0  0  0  0  0  0  0  0
   51.7021    6.5357   11.6877 H   0  0  0  0  0  0  0  0  0  0  0  0
   50.6653    7.2287    9.6718 H   0  0  0  0  0  0  0  0  0  0  0  0
   51.5143    9.6058   12.0813 H   0  0  0  0  0  0  0  0  0  0  0  0
   51.6079    7.2238   14.0358 H   0  0  0  0  0  0  0  0  0  0  0  0
   52.3643   12.1678   18.4313 H   0  0  0  0  0  0  0  0  0  0  0  0
   50.4102   13.5781   18.9678 H   0  0  0  0  0  0  0  0  0  0  0  0
   48.3334   13.3683   17.6175 H   0  0  0  0  0  0  0  0  0  0  0  0
   48.2305   11.7493   15.7816 H   0  0  0  0  0  0  0  0  0  0  0  0
   48.3464    8.1518   15.3042 H   0  0  0  0  0  0  0  0  0  0  0  0
   46.3279    7.8171   13.8917 H   0  0  0  0  0  0  0  0  0  0  0  0
   47.5036   11.0878   11.3895 H   0  0  0  0  0  0  0  0  0  0  0  0
   49.5292   11.4487   12.7787 H   0  0  0  0  0  0  0  0  0  0  0  0
   54.4191    8.9412   14.5439 H   0  0  0  0  0  0  0  0  0  0  0  0
   53.0997    6.8443   16.4471 H   0  0  0  0  0  0  0  0  0  0  0  0
   54.5182    6.5707   15.3391 H   0  0  0  0  0  0  0  0  0  0  0  0
   55.7867    8.3839   16.5413 H   0  0  0  0  0  0  0  0  0  0  0  0
   54.3590    8.6503   17.6370 H   0  0  0  0  0  0  0  0  0  0  0  0
   53.9929    7.8695    7.7607 H   0  0  0  0  0  0  0  0  0  0  0  0
   55.1560    7.3727    9.0137 H   0  0  0  0  0  0  0  0  0  0  0  0
   53.5308    6.4132    8.6546 H   0  0  0  0  0  0  0  0  0  0  0  0
   53.4057    6.6352   11.4426 H   0  0  0  0  0  0  0  0  0  0  0  0
   54.2299    9.0165   11.1028 H   0  0  0  0  0  0  0  0  0  0  0  0
   53.9274    8.8578    9.3904 H   0  0  0  0  0  0  0  0  0  0  0  0
   51.4840    8.5108    9.7991 H   0  0  0  0  0  0  0  0  0  0  0  0
   52.4951   10.5387    9.4663 H   0  0  0  0  0  0  0  0  0  0  0  0
   51.2847    7.6277   12.0580 H   0  0  0  0  0  0  0  0  0  0  0  0
   51.8019   10.5646   12.8203 H   0  0  0  0  0  0  0  0  0  0  0  0
   50.3730    7.2290   18.5859 H   0  0  0  0  0  0  0  0  0  0  0  0
   48.2324    7.9643   19.5745 H   0  0  0  0  0  0  0  0  0  0  0  0
   46.7510    9.5177   18.3129 H   0  0  0  0  0  0  0  0  0  0  0  0
   47.4349   10.3114   16.0945 H   0  0  0  0  0  0  0  0  0  0  0  0
   49.7645   12.3490   14.9201 H   0  0  0  0  0  0  0  0  0  0  0  0
   48.4012   13.9258   13.5684 H   0  0  0  0  0  0  0  0  0  0  0  0
   46.6569   10.6401   11.4434 H   0  0  0  0  0  0  0  0  0  0  0  0
   48.0044    9.0383   12.7810 H   0  0  0  0  0  0  0  0  0  0  0  0
   53.0604    6.8890   13.9617 H   0  0  0  0  0  0  0  0  0  0  0  0
   55.0006    8.4405   13.7216 H   0  0  0  0  0  0  0  0  0  0  0  0
   54.1864    9.6818   14.7740 H   0  0  0  0  0  0  0  0  0  0  0  0
   54.0876    8.0232   16.6616 H   0  0  0  0  0  0  0  0  0  0  0  0
   54.9085    6.7815   15.6110 H   0  0  0  0  0  0  0  0  0  0  0  0
   55.8194    6.9699   11.2044 H   0  0  0  0  0  0  0  0  0  0  0  0
   55.3079    5.4569   10.4166 H   0  0  0  0  0  0  0  0  0  0  0  0
  2  1  1  0
  2  3  1  0
  3  4  1  0
  4  5  1  0
  4  6  1  0
  6  7  2  0
  7  8  1  0
  8  9  2  0
  9 10  1  0
 10 11  2  0
 11 12  1  0
 12 13  2  0
 13 14  1  0
 14 15  2  0
 15 16  1  0
 11 16  1  0
 16 17  2  0
  8 17  1  0
 17 18  1  0
 18 19  2  0
 19 20  1  0
 20 21  2  0
 21 22  1  0
 21 23  1  0
 23 24  2  0
 18 24  1  0
  9 25  1  0
 25 26  1  0
 26 27  1  0
 25 27  1  0
  2 28  1  0
 28 29  1  0
 29 30  2  0
 29 31  1  0
 34 33  1  0
 34 35  1  0
 35 36  1  0
 36 37  1  0
 36 38  1  0
 38 39  2  0
 39 40  1  0
 40 41  2  0
 41 42  1  0
 42 43  2  0
 43 44  1  0
 44 45  2  0
 45 46  1  0
 46 47  2  0
 47 48  1  0
 43 48  1  0
 48 49  2  0
 40 49  1  0
 49 50  1  0
 50 51  2  0
 51 52  1  0
 52 53  2  0
 53 54  1  0
 53 55  1  0
 55 56  2  0
 50 56  1  0
 41 57  1  0
 57 58  1  0
 58 59  1  0
 57 59  1  0
 34 60  1  0
 60 61  1  0
 61 62  2  0
 61 63  1  0
  1 64  1  0
  2 65  1  1
  3 66  1  0
  3 67  1  0
  4 68  1  1
  5 69  1  0
  6 70  1  0
  7 71  1  0
 12 72  1  0
 13 73  1  0
 14 74  1  0
 15 75  1  0
 19 76  1  0
 20 77  1  0
 23 78  1  0
 24 79  1  0
 25 80  1  0
 26 81  1  0
 26 82  1  0
 27 83  1  0
 27 84  1  0
 28 85  1  0
 28 86  1  0
 33 87  1  0
 34 88  1  1
 35 89  1  0
 35 90  1  0
 36 91  1  1
 37 92  1  0
 38 93  1  0
 39 94  1  0
 44 95  1  0
 45 96  1  0
 46 97  1  0
 47 98  1  0
 51 99  1  0
 52100  1  0
 55101  1  0
 56102  1  0
 57103  1  0
 58104  1  0
 58105  1  0
 59106  1  0
 59107  1  0
 60108  1  0
 60109  1  0
M  CHG  3  31  -1  32   2  63  -1
M  END
> <Uni-Dock RESULT> 
ENERGY=   -4.902  LOWER_BOUND=    4.128  UPPER_BOUND=    7.370
INTER + INTRA:          -4.902
INTER:                  -4.902
INTRA:                   0.000
UNBOUND:                 0.000

$$$$

     RDKit          3D

109114  0  0  0  0  0  0  0  0999 V2000
   44.4837   14.3791   11.4651 O   0  0  0  0  0  0  0  0  0  0  0  0
   44.1235   12.9898   11.4611 C   0  0  2  0  0  0  0  0  0  0  0  0
   45.3192   12.1758   10.9491 C   0  0  0  0  0  0  0  0  0  0  0  0
   46.6016   12.4750   11.7375 C   0  0  2  0  0  0  0  0  0  0  0  0
   47.0655   13.7928   11.4479 O   0  0  0  0  0  0  0  0  0  0  0  0
   47.7078   11.5435   11.3365 C   0  0  0  0  0  0  0  0  0  0  0  0
   48.3563   10.7266   12.1839 C   0  0  0  0  0  0  0  0  0  0  0  0
   49.4361    9.8157   11.7544 C   0  0  0  0  0  0  0  0  0  0  0  0
   49.2128    8.4266   11.7861 C   0  0  0  0  0  0  0  0  0  0  0  0
   50.1712    7.5460   11.3944 N   0  0  0  0  0  0  0  0  0  0  0  0
   51.3629    7.9926   10.9837 C   0  0  0  0  0  0  0  0  0  0  0  0
   52.3079    7.0482   10.6047 C   0  0  0  0  0  0  0  0  0  0  0  0
   53.5864    7.4044   10.1736 C   0  0  0  0  0  0  0  0  0  0  0  0
   53.9337    8.7432   10.1124 C   0  0  0  0  0  0  0  0  0  0  0  0
   53.0004    9.7105   10.4893 C   0  0  0  0  0  0  0  0  0  0  0  0
   51.6981    9.3583   10.9344 C   0  0  0  0  0  0  0  0  0  0  0  0
   50.7017   10.2941   11.3335 C   0  0  0  0  0  0  0  0  0  0  0  0
   50.9973   11.7419   11.3167 C   0  0  0  0  0  0  0  0  0  0  0  0
   51.4217   12.3975   12.4862 C   0  0  0  0  0  0  0  0  0  0  0  0
   51.7011   13.7651   12.4730 C   0  0  0  0  0  0  0  0  0  0  0  0
   51.5585   14.4802   11.2906 C   0  0  0  0  0  0  0  0  0  0  0  0
   51.8464   15.7881   11.2760 F   0  0  0  0  0  0  0  0  0  0  0  0
   51.1469   13.8555   10.1204 C   0  0  0  0  0  0  0  0  0  0  0  0
   50.8674   12.4886   10.1326 C   0  0  0  0  0  0  0  0  0  0  0  0
   47.8820    7.8327   12.2292 C   0  0  0  0  0  0  0  0  0  0  0  0
   47.5392    7.7596   13.7019 C   0  0  0  0  0  0  0  0  0  0  0  0
   47.8354    6.5012   12.9504 C   0  0  0  0  0  0  0  0  0  0  0  0
   42.8978   12.7722   10.5831 C   0  0  0  0  0  0  0  0  0  0  0  0
   41.6701   13.3977   11.2389 C   0  0  0  0  0  0  0  0  0  0  0  0
   41.8829   14.4969   11.8344 O   0  0  0  0  0  0  0  0  0  0  0  0
   40.5958   12.7513   11.0963 O   0  0  0  0  0  0  0  0  0  0  0  0
   48.4963   10.9330   11.4376 Mg  0  0  0  0  0 15  0  0  0  0  0  0
   44.1358   13.1061   11.8549 O   0  0  0  0  0  0  0  0  0  0  0  0
   44.3991   11.7239   11.5981 C   0  0  2  0  0  0  0  0  0  0  0  0
   45.0721   11.5726   10.2294 C   0  0  0  0  0  0  0  0  0  0  0  0
   46.3968   12.3382   10.0946 C   0  0  2  0  0  0  0  0  0  0  0  0
   46.8720   12.2035    8.7513 O   0  0  0  0  0  0  0  0  0  0  0  0
   47.4522   11.8328   11.0406 C   0  0  0  0  0  0  0  0  0  0  0  0
   48.4488   10.9880   10.7285 C   0  0  0  0  0  0  0  0  0  0  0  0
   49.4162   10.4969   11.7284 C   0  0  0  0  0  0  0  0  0  0  0  0
   49.0071    9.6189   12.7497 C   0  0  0  0  0  0  0  0  0  0  0  0
   49.8814    9.1713   13.6905 N   0  0  0  0  0  0  0  0  0  0  0  0
   51.1631    9.5524   13.6455 C   0  0  0  0  0  0  0  0  0  0  0  0
   52.0167    9.0668   14.6274 C   0  0  0  0  0  0  0  0  0  0  0  0
   53.3705    9.4082   14.6676 C   0  0  0  0  0  0  0  0  0  0  0  0
   53.8946   10.2547   13.7038 C   0  0  0  0  0  0  0  0  0  0  0  0
   53.0564   10.7520   12.7073 C   0  0  0  0  0  0  0  0  0  0  0  0
   51.6781   10.4130   12.6555 C   0  0  0  0  0  0  0  0  0  0  0  0
   50.7749   10.8902   11.6652 C   0  0  0  0  0  0  0  0  0  0  0  0
   51.2544   11.7769   10.5829 C   0  0  0  0  0  0  0  0  0  0  0  0
   51.8499   11.2376    9.4273 C   0  0  0  0  0  0  0  0  0  0  0  0
   52.3087   12.0748    8.4087 C   0  0  0  0  0  0  0  0  0  0  0  0
   52.1776   13.4522    8.5420 C   0  0  0  0  0  0  0  0  0  0  0  0
   52.6230   14.2540    7.5658 F   0  0  0  0  0  0  0  0  0  0  0  0
   51.5946   14.0079    9.6740 C   0  0  0  0  0  0  0  0  0  0  0  0
   51.1332   13.1725   10.6936 C   0  0  0  0  0  0  0  0  0  0  0  0
   47.5773    9.1162   12.8683 C   0  0  0  0  0  0  0  0  0  0  0  0
   47.0074    8.1722   11.8332 C   0  0  0  0  0  0  0  0  0  0  0  0
   47.3093    7.6664   13.2092 C   0  0  0  0  0  0  0  0  0  0  0  0
   43.1188   10.8985   11.7369 C   0  0  0  0  0  0  0  0  0  0  0  0
   42.0588   11.2787   10.7057 C   0  0  0  0  0  0  0  0  0  0  0  0
   41.9771   12.5208   10.4654 O   0  0  0  0  0  0  0  0  0  0  0  0
   41.4032   10.3118   10.2296 O   0  0  0  0  0  0  0  0  0  0  0  0
   43.6253   14.8294   11.6935 H   0  0  0  0  0  0  0  0  0  0  0  0
   43.9098   12.7018   12.4981 H   0  0  0  0  0  0  0  0  0  0  0  0
   45.0804   11.1054   11.0029 H   0  0  0  0  0  0  0  0  0  0  0  0
   45.4881   12.4294    9.8925 H   0  0  0  0  0  0  0  0  0  0  0  0
   46.4057   12.4142   12.8157 H   0  0  0  0  0  0  0  0  0  0  0  0
   46.2562   14.3557   11.4639 H   0  0  0  0  0  0  0  0  0  0  0  0
   47.9746   11.5581   10.2816 H   0  0  0  0  0  0  0  0  0  0  0  0
   48.0994   10.6971   13.2390 H   0  0  0  0  0  0  0  0  0  0  0  0
   52.0399    5.9953   10.6506 H   0  0  0  0  0  0  0  0  0  0  0  0
   54.3026    6.6355    9.8984 H   0  0  0  0  0  0  0  0  0  0  0  0
   54.9266    9.0392    9.7828 H   0  0  0  0  0  0  0  0  0  0  0  0
   53.3037   10.7536   10.4377 H   0  0  0  0  0  0  0  0  0  0  0  0
   51.5304   11.8393   13.4144 H   0  0  0  0  0  0  0  0  0  0  0  0
   52.0277   14.2750   13.3747 H   0  0  0  0  0  0  0  0  0  0  0  0
   51.0278   14.4386    9.2136 H   0  0  0  0  0  0  0  0  0  0  0  0
   50.5224   12.0081    9.2189 H   0  0  0  0  0  0  0  0  0  0  0  0
   47.0564    8.0222   11.5457 H   0  0  0  0  0  0  0  0  0  0  0  0
   48.2747    8.0981   14.4214 H   0  0  0  0  0  0  0  0  0  0  0  0
   46.5124    7.9554   13.9872 H   0  0  0  0  0  0  0  0  0  0  0  0
   47.0118    5.8353   12.7231 H   0  0  0  0  0  0  0  0  0  0  0  0
   48.7708    5.9944   13.1596 H   0  0  0  0  0  0  0  0  0  0  0  0
   43.0238   13.2480    9.6039 H   0  0  0  0  0  0  0  0  0  0  0  0
   42.7195   11.7013   10.4316 H   0  0  0  0  0  0  0  0  0  0  0  0
   43.2978   13.2851   11.3523 H   0  0  0  0  0  0  0  0  0  0  0  0
   45.0843   11.3936   12.3861 H   0  0  0  0  0  0  0  0  0  0  0  0
   45.2347   10.5110   10.0063 H   0  0  0  0  0  0  0  0  0  0  0  0
   44.4002   11.9377    9.4434 H   0  0  0  0  0  0  0  0  0  0  0  0
   46.2480   13.4094   10.2661 H   0  0  0  0  0  0  0  0  0  0  0  0
   46.1298   12.4760    8.1781 H   0  0  0  0  0  0  0  0  0  0  0  0
   47.3476   12.1908   12.0629 H   0  0  0  0  0  0  0  0  0  0  0  0
   48.5725   10.6281    9.7109 H   0  0  0  0  0  0  0  0  0  0  0  0
   51.6120    8.3990   15.3856 H   0  0  0  0  0  0  0  0  0  0  0  0
   54.0036    9.0114   15.4563 H   0  0  0  0  0  0  0  0  0  0  0  0
   54.9462   10.5367   13.7288 H   0  0  0  0  0  0  0  0  0  0  0  0
   53.4882   11.4163   11.9626 H   0  0  0  0  0  0  0  0  0  0  0  0
   51.9444   10.1589    9.3181 H   0  0  0  0  0  0  0  0  0  0  0  0
   52.7596   11.6600    7.5141 H   0  0  0  0  0  0  0  0  0  0  0  0
   51.4888   15.0853    9.7518 H   0  0  0  0  0  0  0  0  0  0  0  0
   50.6670   13.6105   11.5740 H   0  0  0  0  0  0  0  0  0  0  0  0
   46.8856    9.8313   13.3047 H   0  0  0  0  0  0  0  0  0  0  0  0
   45.9686    8.3081   11.5531 H   0  0  0  0  0  0  0  0  0  0  0  0
   47.6471    7.8506   11.0190 H   0  0  0  0  0  0  0  0  0  0  0  0
   48.1553    6.9996   13.3301 H   0  0  0  0  0  0  0  0  0  0  0  0
   46.4730    7.4514   13.8644 H   0  0  0  0  0  0  0  0  0  0  0  0
   43.3512    9.8274   11.6526 H   0  0  0  0  0  0  0  0  0  0  0  0
   42.6674   11.0731   12.7260 H   0  0  0  0  0  0  0  0  0  0  0  0
  2  1  1  0
  2  3  1  0
  3  4  1  0
  4  5  1  0
  4  6  1  0
  6  7  2  0
  7  8  1  0
  8  9  2  0
  9 10  1  0
 10 11  2  0
 11 12  1  0
 12 13  2  0
 13 14  1  0
 14 15  2  0
 15 16  1  0
 11 16  1  0
 16 17  2  0
  8 17  1  0
 17 18  1  0
 18 19  2  0
 19 20  1  0
 20 21  2  0
 21 22  1  0
 21 23  1  0
 23 24  2  0
 18 24  1  0
  9 25  1  0
 25 26  1  0
 26 27  1  0
 25 27  1  0
  2 28  1  0
 28 29  1  0
 29 30  2  0
 29 31  1  0
 34 33  1  0
 34 35  1  0
 35 36  1  0
 36 37  1  0
 36 38  1  0
 38 39  2  0
 39 40  1  0
 40 41  2  0
 41 42  1  0
 42 43  2  0
 43 44  1  0
 44 45  2  0
 45 46  1  0
 46 47  2  0
 47 48  1  0
 43 48  1  0
 48 49  2  0
 40 49  1  0
 49 50  1  0
 50 51  2  0
 51 52  1  0
 52 53  2  0
 53 54  1  0
 53 55  1  0
 55 56  2  0
 50 56  1  0
 41 57  1  0
 57 58  1  0
 58 59  1  0
 57 59  1  0
 34 60  1  0
 60 61  1  0
 61 62  2  0
 61 63  1  0
  1 64  1  0
  2 65  1  1
  3 66  1  0
  3 67  1  0
  4 68  1  1
  5 69  1  0
  6 70  1  0
  7 71  1  0
 12 72  1  0
 13 73  1  0
 14 74  1  0
 15 75  1  0
 19 76  1  0
 20 77  1  0
 23 78  1  0
 24 79  1  0
 25 80  1  0
 26 81  1  0
 26 82  1  0
 27 83  1  0
 27 84  1  0
 28 85  1  0
 28 86  1  0
 33 87  1  0
 34 88  1  1
 35 89  1  0
 35 90  1  0
 36 91  1  1
 37 92  1  0
 38 93  1  0
 39 94  1  0
 44 95  1  0
 45 96  1  0
 46 97  1  0
 47 98  1  0
 51 99  1  0
 52100  1  0
 55101  1  0
 56102  1  0
 57103  1  0
 58104  1  0
 58105  1  0
 59106  1  0
 59107  1  0
 60108  1  0
 60109  1  0
M  CHG  3  31  -1  32   2  63  -1
M  END
> <Uni-Dock RESULT> 
ENERGY=   -4.880  LOWER_BOUND=    4.614  UPPER_BOUND=    6.750
INTER + INTRA:          -4.880
INTER:                  -4.880
INTRA:                   0.000
UNBOUND:                 0.000

$$$$

     RDKit          3D

109114  0  0  0  0  0  0  0  0999 V2000
   48.6787   11.1104   13.6026 O   0  0  0  0  0  0  0  0  0  0  0  0
   49.7326   10.1377   13.5441 C   0  0  2  0  0  0  0  0  0  0  0  0
   50.3004    9.9459   14.9567 C   0  0  0  0  0  0  0  0  0  0  0  0
   49.2062    9.6048   15.9775 C   0  0  2  0  0  0  0  0  0  0  0  0
   48.3703   10.7382   16.2056 O   0  0  0  0  0  0  0  0  0  0  0  0
   49.8047    9.2506   17.3074 C   0  0  0  0  0  0  0  0  0  0  0  0
   49.6114    8.0801   17.9388 C   0  0  0  0  0  0  0  0  0  0  0  0
   50.2224    7.7604   19.2444 C   0  0  0  0  0  0  0  0  0  0  0  0
   51.2137    6.7638   19.3106 C   0  0  0  0  0  0  0  0  0  0  0  0
   51.8123    6.4372   20.4864 N   0  0  0  0  0  0  0  0  0  0  0  0
   51.4506    7.0550   21.6159 C   0  0  0  0  0  0  0  0  0  0  0  0
   52.0881    6.6744   22.7895 C   0  0  0  0  0  0  0  0  0  0  0  0
   51.7777    7.2444   24.0250 C   0  0  0  0  0  0  0  0  0  0  0  0
   50.8060    8.2282   24.0938 C   0  0  0  0  0  0  0  0  0  0  0  0
   50.1511    8.6263   22.9270 C   0  0  0  0  0  0  0  0  0  0  0  0
   50.4559    8.0489   21.6653 C   0  0  0  0  0  0  0  0  0  0  0  0
   49.8251    8.4085   20.4403 C   0  0  0  0  0  0  0  0  0  0  0  0
   48.7634    9.4364   20.4286 C   0  0  0  0  0  0  0  0  0  0  0  0
   47.4084    9.0636   20.4802 C   0  0  0  0  0  0  0  0  0  0  0  0
   46.4036   10.0325   20.4689 C   0  0  0  0  0  0  0  0  0  0  0  0
   46.7509   11.3762   20.4074 C   0  0  0  0  0  0  0  0  0  0  0  0
   45.7855   12.3045   20.4168 F   0  0  0  0  0  0  0  0  0  0  0  0
   48.0816   11.7712   20.3618 C   0  0  0  0  0  0  0  0  0  0  0  0
   49.0866   10.8034   20.3731 C   0  0  0  0  0  0  0  0  0  0  0  0
   51.6933    6.0185   18.0719 C   0  0  0  0  0  0  0  0  0  0  0  0
   50.8468    4.9117   17.4801 C   0  0  0  0  0  0  0  0  0  0  0  0
   52.1312    4.5713   18.1658 C   0  0  0  0  0  0  0  0  0  0  0  0
   50.8154   10.6006   12.5778 C   0  0  0  0  0  0  0  0  0  0  0  0
   50.2885   10.5573   11.1463 C   0  0  0  0  0  0  0  0  0  0  0  0
   49.0759   10.9029   11.0115 O   0  0  0  0  0  0  0  0  0  0  0  0
   51.1270   10.1963   10.2750 O   0  0  0  0  0  0  0  0  0  0  0  0
   49.9340    8.7591   18.1714 Mg  0  0  0  0  0 15  0  0  0  0  0  0
   49.3843    9.9377   13.4577 O   0  0  0  0  0  0  0  0  0  0  0  0
   50.4293    9.1569   14.0440 C   0  0  2  0  0  0  0  0  0  0  0  0
   51.2670   10.0357   14.9796 C   0  0  0  0  0  0  0  0  0  0  0  0
   50.4640   10.6808   16.1189 C   0  0  2  0  0  0  0  0  0  0  0  0
   51.3284   11.5511   16.8564 O   0  0  0  0  0  0  0  0  0  0  0  0
   49.8776    9.6619   17.0582 C   0  0  0  0  0  0  0  0  0  0  0  0
   50.3874    9.3038   18.2481 C   0  0  0  0  0  0  0  0  0  0  0  0
   49.7794    8.2555   19.0897 C   0  0  0  0  0  0  0  0  0  0  0  0
   49.8062    6.9074   18.6855 C   0  0  0  0  0  0  0  0  0  0  0  0
   49.2344    5.9308   19.4398 N   0  0  0  0  0  0  0  0  0  0  0  0
   48.6459    6.2423   20.6003 C   0  0  0  0  0  0  0  0  0  0  0  0
   48.0782    5.2095   21.3348 C   0  0  0  0  0  0  0  0  0  0  0  0
   47.4393    5.4331   22.5567 C   0  0  0  0  0  0  0  0  0  0  0  0
   47.3632    6.7192   23.0670 C   0  0  0  0  0  0  0  0  0  0  0  0
   47.9285    7.7708   22.3476 C   0  0  0  0  0  0  0  0  0  0  0  0
   48.5803    7.5569   21.1039 C   0  0  0  0  0  0  0  0  0  0  0  0
   49.1734    8.5893   20.3250 C   0  0  0  0  0  0  0  0  0  0  0  0
   49.1620    9.9876   20.8066 C   0  0  0  0  0  0  0  0  0  0  0  0
   50.1432   10.4419   21.7076 C   0  0  0  0  0  0  0  0  0  0  0  0
   50.1286   11.7600   22.1675 C   0  0  0  0  0  0  0  0  0  0  0  0
   49.1330   12.6270   21.7323 C   0  0  0  0  0  0  0  0  0  0  0  0
   49.1178   13.8899   22.1787 F   0  0  0  0  0  0  0  0  0  0  0  0
   48.1531   12.2012   20.8445 C   0  0  0  0  0  0  0  0  0  0  0  0
   48.1665   10.8837   20.3815 C   0  0  0  0  0  0  0  0  0  0  0  0
   50.4697    6.4568   17.3940 C   0  0  0  0  0  0  0  0  0  0  0  0
   51.9721    6.5302   17.2367 C   0  0  0  0  0  0  0  0  0  0  0  0
   51.3067    5.1963   17.3714 C   0  0  0  0  0  0  0  0  0  0  0  0
   51.2581    8.4675   12.9589 C   0  0  0  0  0  0  0  0  0  0  0  0
   51.9889    9.4597   12.0571 C   0  0  0  0  0  0  0  0  0  0  0  0
   51.3239   10.4996   11.7678 O   0  0  0  0  0  0  0  0  0  0  0  0
   53.1542    9.1170   11.7170 O   0  0  0  0  0  0  0  0  0  0  0  0
   48.4566   11.2536   12.6425 H   0  0  0  0  0  0  0  0  0  0  0  0
   49.2906    9.1931   13.2028 H   0  0  0  0  0  0  0  0  0  0  0  0
   51.0631    9.1562   14.9380 H   0  0  0  0  0  0  0  0  0  0  0  0
   50.7916   10.8800   15.2658 H   0  0  0  0  0  0  0  0  0  0  0  0
   48.5762    8.7899   15.5986 H   0  0  0  0  0  0  0  0  0  0  0  0
   48.2004   11.1124   15.3095 H   0  0  0  0  0  0  0  0  0  0  0  0
   50.4309   10.0172   17.7595 H   0  0  0  0  0  0  0  0  0  0  0  0
   48.9925    7.3031   17.4992 H   0  0  0  0  0  0  0  0  0  0  0  0
   52.8524    5.9024   22.7408 H   0  0  0  0  0  0  0  0  0  0  0  0
   52.2891    6.9103   24.9231 H   0  0  0  0  0  0  0  0  0  0  0  0
   50.5482    8.6807   25.0481 H   0  0  0  0  0  0  0  0  0  0  0  0
   49.3874    9.3959   23.0127 H   0  0  0  0  0  0  0  0  0  0  0  0
   47.1346    8.0109   20.5247 H   0  0  0  0  0  0  0  0  0  0  0  0
   45.3560    9.7483   20.5071 H   0  0  0  0  0  0  0  0  0  0  0  0
   48.3269   12.8258   20.2983 H   0  0  0  0  0  0  0  0  0  0  0  0
   50.1273   11.1166   20.3134 H   0  0  0  0  0  0  0  0  0  0  0  0
   52.2547    6.6312   17.3690 H   0  0  0  0  0  0  0  0  0  0  0  0
   49.9250    4.6418   17.9807 H   0  0  0  0  0  0  0  0  0  0  0  0
   50.8075    4.8347   16.4000 H   0  0  0  0  0  0  0  0  0  0  0  0
   52.9700    4.2596   17.5553 H   0  0  0  0  0  0  0  0  0  0  0  0
   52.0757    4.0766   19.1290 H   0  0  0  0  0  0  0  0  0  0  0  0
   51.1144   11.6343   12.7852 H   0  0  0  0  0  0  0  0  0  0  0  0
   51.6999    9.9578   12.6561 H   0  0  0  0  0  0  0  0  0  0  0  0
   49.8344   10.4137   12.7109 H   0  0  0  0  0  0  0  0  0  0  0  0
   49.9329    8.3697   14.6215 H   0  0  0  0  0  0  0  0  0  0  0  0
   52.0981    9.4540   15.3968 H   0  0  0  0  0  0  0  0  0  0  0  0
   51.7345   10.8460   14.4074 H   0  0  0  0  0  0  0  0  0  0  0  0
   49.6572   11.3062   15.7228 H   0  0  0  0  0  0  0  0  0  0  0  0
   51.7355   12.1439   16.1957 H   0  0  0  0  0  0  0  0  0  0  0  0
   48.9731    9.1808   16.6910 H   0  0  0  0  0  0  0  0  0  0  0  0
   51.2846    9.7803   18.6331 H   0  0  0  0  0  0  0  0  0  0  0  0
   48.1372    4.1966   20.9410 H   0  0  0  0  0  0  0  0  0  0  0  0
   47.0025    4.5984   23.0976 H   0  0  0  0  0  0  0  0  0  0  0  0
   46.8597    6.9091   24.0138 H   0  0  0  0  0  0  0  0  0  0  0  0
   47.8551    8.7718   22.7656 H   0  0  0  0  0  0  0  0  0  0  0  0
   50.9284    9.7663   22.0415 H   0  0  0  0  0  0  0  0  0  0  0  0
   50.8891   12.1135   22.8547 H   0  0  0  0  0  0  0  0  0  0  0  0
   47.3931   12.8982   20.5059 H   0  0  0  0  0  0  0  0  0  0  0  0
   47.4040   10.5564   19.6774 H   0  0  0  0  0  0  0  0  0  0  0  0
   49.8797    6.6383   16.5000 H   0  0  0  0  0  0  0  0  0  0  0  0
   52.3580    6.8151   16.2642 H   0  0  0  0  0  0  0  0  0  0  0  0
   52.5620    6.8934   18.0708 H   0  0  0  0  0  0  0  0  0  0  0  0
   51.4451    4.6518   18.2985 H   0  0  0  0  0  0  0  0  0  0  0  0
   51.2460    4.5694   16.4893 H   0  0  0  0  0  0  0  0  0  0  0  0
   51.9828    7.7808   13.4188 H   0  0  0  0  0  0  0  0  0  0  0  0
   50.5984    7.8785   12.3029 H   0  0  0  0  0  0  0  0  0  0  0  0
  2  1  1  0
  2  3  1  0
  3  4  1  0
  4  5  1  0
  4  6  1  0
  6  7  2  0
  7  8  1  0
  8  9  2  0
  9 10  1  0
 10 11  2  0
 11 12  1  0
 12 13  2  0
 13 14  1  0
 14 15  2  0
 15 16  1  0
 11 16  1  0
 16 17  2  0
  8 17  1  0
 17 18  1  0
 18 19  2  0
 19 20  1  0
 20 21  2  0
 21 22  1  0
 21 23  1  0
 23 24  2  0
 18 24  1  0
  9 25  1  0
 25 26  1  0
 26 27  1  0
 25 27  1  0
  2 28  1  0
 28 29  1  0
 29 30  2  0
 29 31  1  0
 34 33  1  0
 34 35  1  0
 35 36  1  0
 36 37  1  0
 36 38  1  0
 38 39  2  0
 39 40  1  0
 40 41  2  0
 41 42  1  0
 42 43  2  0
 43 44  1  0
 44 45  2  0
 45 46  1  0
 46 47  2  0
 47 48  1  0
 43 48  1  0
 48 49  2  0
 40 49  1  0
 49 50  1  0
 50 51  2  0
 51 52  1  0
 52 53  2  0
 53 54  1  0
 53 55  1  0
 55 56  2  0
 50 56  1  0
 41 57  1  0
 57 58  1  0
 58 59  1  0
 57 59  1  0
 34 60  1  0
 60 61  1  0
 61 62  2  0
 61 63  1  0
  1 64  1  0
  2 65  1  1
  3 66  1  0
  3 67  1  0
  4 68  1  1
  5 69  1  0
  6 70  1  0
  7 71  1  0
 12 72  1  0
 13 73  1  0
 14 74  1  0
 15 75  1  0
 19 76  1  0
 20 77  1  0
 23 78  1  0
 24 79  1  0
 25 80  1  0
 26 81  1  0
 26 82  1  0
 27 83  1  0
 27 84  1  0
 28 85  1  0
 28 86  1  0
 33 87  1  0
 34 88  1  1
 35 89  1  0
 35 90  1  0
 36 91  1  1
 37 92  1  0
 38 93  1  0
 39 94  1  0
 44 95  1  0
 45 96  1  0
 46 97  1  0
 47 98  1  0
 51 99  1  0
 52100  1  0
 55101  1  0
 56102  1  0
 57103  1  0
 58104  1  0
 58105  1  0
 59106  1  0
 59107  1  0
 60108  1  0
 60109  1  0
M  CHG  3  31  -1  32   2  63  -1
M  END
> <Uni-Dock RESULT> 
ENERGY=   -4.860  LOWER_BOUND=    3.537  UPPER_BOUND=    5.629
INTER + INTRA:          -4.860
INTER:                  -4.860
INTRA:                   0.000
UNBOUND:                 0.000

$$$$
