
     RDKit          3D

109114  0  0  0  0  0  0  0  0999 V2000
   49.0667    7.5648   12.2589 O   0  0  0  0  0  0  0  0  0  0  0  0
   48.6698    8.7414   12.9803 C   0  0  2  0  0  0  0  0  0  0  0  0
   48.2284    8.3175   14.3941 C   0  0  0  0  0  0  0  0  0  0  0  0
   49.4450    8.1175   15.3083 C   0  0  2  0  0  0  0  0  0  0  0  0
   50.3108    7.1216   14.7530 O   0  0  0  0  0  0  0  0  0  0  0  0
   49.0165    7.7131   16.6955 C   0  0  0  0  0  0  0  0  0  0  0  0
   49.4133    6.6325   17.3870 C   0  0  0  0  0  0  0  0  0  0  0  0
   48.8864    6.3361   18.7339 C   0  0  0  0  0  0  0  0  0  0  0  0
   47.9522    5.2939   18.8884 C   0  0  0  0  0  0  0  0  0  0  0  0
   47.4095    4.9961   20.0984 N   0  0  0  0  0  0  0  0  0  0  0  0
   47.7659    5.7070   21.1721 C   0  0  0  0  0  0  0  0  0  0  0  0
   47.1737    5.3737   22.3802 C   0  0  0  0  0  0  0  0  0  0  0  0
   47.4629    6.0611   23.5588 C   0  0  0  0  0  0  0  0  0  0  0  0
   48.3940    7.0895   23.5399 C   0  0  0  0  0  0  0  0  0  0  0  0
   49.0115    7.4301   22.3366 C   0  0  0  0  0  0  0  0  0  0  0  0
   48.7000    6.7592   21.1262 C   0  0  0  0  0  0  0  0  0  0  0  0
   49.2803    7.0751   19.8691 C   0  0  0  0  0  0  0  0  0  0  0  0
   50.3115    8.1277   19.7631 C   0  0  0  0  0  0  0  0  0  0  0  0
   49.9608    9.4770   19.5716 C   0  0  0  0  0  0  0  0  0  0  0  0
   50.9447   10.4649   19.4709 C   0  0  0  0  0  0  0  0  0  0  0  0
   52.2846   10.1092   19.5787 C   0  0  0  0  0  0  0  0  0  0  0  0
   53.2333   11.0539   19.4996 F   0  0  0  0  0  0  0  0  0  0  0  0
   52.6578    8.7853   19.7773 C   0  0  0  0  0  0  0  0  0  0  0  0
   51.6741    7.7966   19.8598 C   0  0  0  0  0  0  0  0  0  0  0  0
   47.4776    4.4647   17.7029 C   0  0  0  0  0  0  0  0  0  0  0  0
   48.3296    3.3103   17.2222 C   0  0  0  0  0  0  0  0  0  0  0  0
   47.0251    3.0335   17.8908 C   0  0  0  0  0  0  0  0  0  0  0  0
   47.5591    9.4288   12.2085 C   0  0  0  0  0  0  0  0  0  0  0  0
   47.2250   10.8211   12.7515 C   0  0  0  0  0  0  0  0  0  0  0  0
   46.1662   11.3240   12.2812 O   0  0  0  0  0  0  0  0  0  0  0  0
   48.0224   11.3012   13.6027 O   0  0  0  0  0  0  0  0  0  0  0  0
   48.8953    7.3719   17.7667 Mg  0  0  0  0  0 15  0  0  0  0  0  0
   48.3253    5.5722   12.6239 O   0  0  0  0  0  0  0  0  0  0  0  0
   48.2400    6.9354   13.0906 C   0  0  2  0  0  0  0  0  0  0  0  0
   48.6846    6.9162   14.5602 C   0  0  0  0  0  0  0  0  0  0  0  0
   48.6826    8.2734   15.2715 C   0  0  2  0  0  0  0  0  0  0  0  0
   49.5143    9.2081   14.5896 O   0  0  0  0  0  0  0  0  0  0  0  0
   49.2473    8.1522   16.6576 C   0  0  0  0  0  0  0  0  0  0  0  0
   48.4934    8.1599   17.7674 C   0  0  0  0  0  0  0  0  0  0  0  0
   49.0720    8.0529   19.1200 C   0  0  0  0  0  0  0  0  0  0  0  0
   49.1816    9.2082   19.9107 C   0  0  0  0  0  0  0  0  0  0  0  0
   49.7126    9.1642   21.1604 N   0  0  0  0  0  0  0  0  0  0  0  0
   50.1402    8.0017   21.6629 C   0  0  0  0  0  0  0  0  0  0  0  0
   50.6740    8.0164   22.9428 C   0  0  0  0  0  0  0  0  0  0  0  0
   51.1516    6.8586   23.5571 C   0  0  0  0  0  0  0  0  0  0  0  0
   51.0854    5.6507   22.8779 C   0  0  0  0  0  0  0  0  0  0  0  0
   50.5525    5.6115   21.5914 C   0  0  0  0  0  0  0  0  0  0  0  0
   50.0712    6.7863   20.9574 C   0  0  0  0  0  0  0  0  0  0  0  0
   49.5193    6.8182   19.6457 C   0  0  0  0  0  0  0  0  0  0  0  0
   49.4017    5.5789   18.8449 C   0  0  0  0  0  0  0  0  0  0  0  0
   50.4335    5.1802   17.9800 C   0  0  0  0  0  0  0  0  0  0  0  0
   50.3187    4.0130   17.2197 C   0  0  0  0  0  0  0  0  0  0  0  0
   49.1770    3.2300   17.3347 C   0  0  0  0  0  0  0  0  0  0  0  0
   49.0656    2.1034   16.6189 F   0  0  0  0  0  0  0  0  0  0  0  0
   48.1437    3.5996   18.1853 C   0  0  0  0  0  0  0  0  0  0  0  0
   48.2530    4.7752   18.9322 C   0  0  0  0  0  0  0  0  0  0  0  0
   48.7529   10.5688   19.4010 C   0  0  0  0  0  0  0  0  0  0  0  0
   48.1718   11.6028   20.3388 C   0  0  0  0  0  0  0  0  0  0  0  0
   47.2841   10.9177   19.3494 C   0  0  0  0  0  0  0  0  0  0  0  0
   46.8076    7.4199   12.8692 C   0  0  0  0  0  0  0  0  0  0  0  0
   46.6357    8.9315   12.7508 C   0  0  0  0  0  0  0  0  0  0  0  0
   47.6961    9.6150   12.8079 O   0  0  0  0  0  0  0  0  0  0  0  0
   45.4451    9.3203   12.6111 O   0  0  0  0  0  0  0  0  0  0  0  0
   49.6558    7.0793   12.8750 H   0  0  0  0  0  0  0  0  0  0  0  0
   49.5490    9.3950   13.0245 H   0  0  0  0  0  0  0  0  0  0  0  0
   47.6620    7.3773   14.3233 H   0  0  0  0  0  0  0  0  0  0  0  0
   47.5676    9.0704   14.8458 H   0  0  0  0  0  0  0  0  0  0  0  0
   50.0111    9.0573   15.3723 H   0  0  0  0  0  0  0  0  0  0  0  0
   51.1827    7.3139   15.1340 H   0  0  0  0  0  0  0  0  0  0  0  0
   48.3146    8.4035   17.1570 H   0  0  0  0  0  0  0  0  0  0  0  0
   50.1032    5.9017   16.9731 H   0  0  0  0  0  0  0  0  0  0  0  0
   46.4628    4.5538   22.4040 H   0  0  0  0  0  0  0  0  0  0  0  0
   46.9643    5.7871   24.4845 H   0  0  0  0  0  0  0  0  0  0  0  0
   48.6386    7.6303   24.4502 H   0  0  0  0  0  0  0  0  0  0  0  0
   49.7431    8.2404   22.3449 H   0  0  0  0  0  0  0  0  0  0  0  0
   48.9128    9.7591   19.4890 H   0  0  0  0  0  0  0  0  0  0  0  0
   50.6724   11.5046   19.3169 H   0  0  0  0  0  0  0  0  0  0  0  0
   53.7106    8.5288   19.8608 H   0  0  0  0  0  0  0  0  0  0  0  0
   51.9718    6.7609   20.0061 H   0  0  0  0  0  0  0  0  0  0  0  0
   46.9515    5.0320   16.9371 H   0  0  0  0  0  0  0  0  0  0  0  0
   49.2318    3.0851   17.7752 H   0  0  0  0  0  0  0  0  0  0  0  0
   48.4025    3.1618   16.1509 H   0  0  0  0  0  0  0  0  0  0  0  0
   46.2015    2.6865   17.2797 H   0  0  0  0  0  0  0  0  0  0  0  0
   47.0481    2.6154   18.8909 H   0  0  0  0  0  0  0  0  0  0  0  0
   46.6563    8.8054   12.2221 H   0  0  0  0  0  0  0  0  0  0  0  0
   47.8410    9.5304   11.1532 H   0  0  0  0  0  0  0  0  0  0  0  0
   48.0682    5.5983   11.6869 H   0  0  0  0  0  0  0  0  0  0  0  0
   48.9610    7.5097   12.4944 H   0  0  0  0  0  0  0  0  0  0  0  0
   49.6969    6.4864   14.5867 H   0  0  0  0  0  0  0  0  0  0  0  0
   48.0540    6.2047   15.1137 H   0  0  0  0  0  0  0  0  0  0  0  0
   47.6668    8.6838   15.3332 H   0  0  0  0  0  0  0  0  0  0  0  0
   48.9393    9.5478   13.8496 H   0  0  0  0  0  0  0  0  0  0  0  0
   50.3329    8.0919   16.7276 H   0  0  0  0  0  0  0  0  0  0  0  0
   47.4147    8.2336   17.7106 H   0  0  0  0  0  0  0  0  0  0  0  0
   50.7192    8.9611   23.4788 H   0  0  0  0  0  0  0  0  0  0  0  0
   51.5596    6.9040   24.5635 H   0  0  0  0  0  0  0  0  0  0  0  0
   51.4343    4.7366   23.3469 H   0  0  0  0  0  0  0  0  0  0  0  0
   50.5157    4.6522   21.0745 H   0  0  0  0  0  0  0  0  0  0  0  0
   51.3256    5.7969   17.8766 H   0  0  0  0  0  0  0  0  0  0  0  0
   51.1094    3.7192   16.5361 H   0  0  0  0  0  0  0  0  0  0  0  0
   47.2482    2.9875   18.2444 H   0  0  0  0  0  0  0  0  0  0  0  0
   47.4376    5.0665   19.5891 H   0  0  0  0  0  0  0  0  0  0  0  0
   49.3681   10.9650   18.5992 H   0  0  0  0  0  0  0  0  0  0  0  0
   48.4363   12.6364   20.1566 H   0  0  0  0  0  0  0  0  0  0  0  0
   48.0562   11.3460   21.3858 H   0  0  0  0  0  0  0  0  0  0  0  0
   46.9427   11.4690   18.4839 H   0  0  0  0  0  0  0  0  0  0  0  0
   46.5603   10.2035   19.7279 H   0  0  0  0  0  0  0  0  0  0  0  0
   46.4115    6.9944   11.9380 H   0  0  0  0  0  0  0  0  0  0  0  0
   46.1525    7.0442   13.6641 H   0  0  0  0  0  0  0  0  0  0  0  0
  2  1  1  0
  2  3  1  0
  3  4  1  0
  4  5  1  0
  4  6  1  0
  6  7  2  0
  7  8  1  0
  8  9  2  0
  9 10  1  0
 10 11  2  0
 11 12  1  0
 12 13  2  0
 13 14  1  0
 14 15  2  0
 15 16  1  0
 11 16  1  0
 16 17  2  0
  8 17  1  0
 17 18  1  0
 18 19  2  0
 19 20  1  0
 20 21  2  0
 21 22  1  0
 21 23  1  0
 23 24  2  0
 18 24  1  0
  9 25  1  0
 25 26  1  0
 26 27  1  0
 25 27  1  0
  2 28  1  0
 28 29  1  0
 29 30  2  0
 29 31  1  0
 34 33  1  0
 34 35  1  0
 35 36  1  0
 36 37  1  0
 36 38  1  0
 38 39  2  0
 39 40  1  0
 40 41  2  0
 41 42  1  0
 42 43  2  0
 43 44  1  0
 44 45  2  0
 45 46  1  0
 46 47  2  0
 47 48  1  0
 43 48  1  0
 48 49  2  0
 40 49  1  0
 49 50  1  0
 50 51  2  0
 51 52  1  0
 52 53  2  0
 53 54  1  0
 53 55  1  0
 55 56  2  0
 50 56  1  0
 41 57  1  0
 57 58  1  0
 58 59  1  0
 57 59  1  0
 34 60  1  0
 60 61  1  0
 61 62  2  0
 61 63  1  0
  1 64  1  0
  2 65  1  6
  3 66  1  0
  3 67  1  0
  4 68  1  6
  5 69  1  0
  6 70  1  0
  7 71  1  0
 12 72  1  0
 13 73  1  0
 14 74  1  0
 15 75  1  0
 19 76  1  0
 20 77  1  0
 23 78  1  0
 24 79  1  0
 25 80  1  0
 26 81  1  0
 26 82  1  0
 27 83  1  0
 27 84  1  0
 28 85  1  0
 28 86  1  0
 33 87  1  0
 34 88  1  6
 35 89  1  0
 35 90  1  0
 36 91  1  1
 37 92  1  0
 38 93  1  0
 39 94  1  0
 44 95  1  0
 45 96  1  0
 46 97  1  0
 47 98  1  0
 51 99  1  0
 52100  1  0
 55101  1  0
 56102  1  0
 57103  1  0
 58104  1  0
 58105  1  0
 59106  1  0
 59107  1  0
 60108  1  0
 60109  1  0
M  CHG  3  31  -1  32   2  63  -1
M  END
> <Uni-Dock RESULT> 
ENERGY=   -6.735  LOWER_BOUND=    0.000  UPPER_BOUND=    0.000
INTER + INTRA:          -6.735
INTER:                  -6.735
INTRA:                   0.000
UNBOUND:                 0.000

$$$$

     RDKit          3D

109114  0  0  0  0  0  0  0  0999 V2000
   49.0670    7.5651   12.2589 O   0  0  0  0  0  0  0  0  0  0  0  0
   48.6701    8.7417   12.9803 C   0  0  2  0  0  0  0  0  0  0  0  0
   48.2286    8.3178   14.3942 C   0  0  0  0  0  0  0  0  0  0  0  0
   49.4452    8.1177   15.3084 C   0  0  2  0  0  0  0  0  0  0  0  0
   50.3110    7.1219   14.7531 O   0  0  0  0  0  0  0  0  0  0  0  0
   49.0166    7.7133   16.6955 C   0  0  0  0  0  0  0  0  0  0  0  0
   49.4133    6.6326   17.3870 C   0  0  0  0  0  0  0  0  0  0  0  0
   48.8864    6.3363   18.7339 C   0  0  0  0  0  0  0  0  0  0  0  0
   47.9522    5.2941   18.8883 C   0  0  0  0  0  0  0  0  0  0  0  0
   47.4094    4.9962   20.0982 N   0  0  0  0  0  0  0  0  0  0  0  0
   47.7658    5.7071   21.1720 C   0  0  0  0  0  0  0  0  0  0  0  0
   47.1735    5.3738   22.3801 C   0  0  0  0  0  0  0  0  0  0  0  0
   47.4627    6.0611   23.5587 C   0  0  0  0  0  0  0  0  0  0  0  0
   48.3938    7.0895   23.5399 C   0  0  0  0  0  0  0  0  0  0  0  0
   49.0113    7.4301   22.3366 C   0  0  0  0  0  0  0  0  0  0  0  0
   48.6999    6.7593   21.1262 C   0  0  0  0  0  0  0  0  0  0  0  0
   49.2802    7.0752   19.8691 C   0  0  0  0  0  0  0  0  0  0  0  0
   50.3114    8.1278   19.7632 C   0  0  0  0  0  0  0  0  0  0  0  0
   49.9608    9.4771   19.5718 C   0  0  0  0  0  0  0  0  0  0  0  0
   50.9447   10.4650   19.4711 C   0  0  0  0  0  0  0  0  0  0  0  0
   52.2846   10.1093   19.5790 C   0  0  0  0  0  0  0  0  0  0  0  0
   53.2333   11.0539   19.4999 F   0  0  0  0  0  0  0  0  0  0  0  0
   52.6578    8.7854   19.7775 C   0  0  0  0  0  0  0  0  0  0  0  0
   51.6741    7.7967   19.8599 C   0  0  0  0  0  0  0  0  0  0  0  0
   47.4776    4.4649   17.7028 C   0  0  0  0  0  0  0  0  0  0  0  0
   48.3296    3.3105   17.2220 C   0  0  0  0  0  0  0  0  0  0  0  0
   47.0250    3.0337   17.8906 C   0  0  0  0  0  0  0  0  0  0  0  0
   47.5595    9.4292   12.2085 C   0  0  0  0  0  0  0  0  0  0  0  0
   47.2254   10.8214   12.7516 C   0  0  0  0  0  0  0  0  0  0  0  0
   46.1666   11.3244   12.2812 O   0  0  0  0  0  0  0  0  0  0  0  0
   48.0227   11.3015   13.6028 O   0  0  0  0  0  0  0  0  0  0  0  0
   48.8953    7.3721   17.7667 Mg  0  0  0  0  0 15  0  0  0  0  0  0
   48.3256    5.5726   12.6239 O   0  0  0  0  0  0  0  0  0  0  0  0
   48.2402    6.9357   13.0906 C   0  0  2  0  0  0  0  0  0  0  0  0
   48.6848    6.9165   14.5602 C   0  0  0  0  0  0  0  0  0  0  0  0
   48.6828    8.2736   15.2715 C   0  0  2  0  0  0  0  0  0  0  0  0
   49.5145    9.2083   14.5897 O   0  0  0  0  0  0  0  0  0  0  0  0
   49.2474    8.1524   16.6576 C   0  0  0  0  0  0  0  0  0  0  0  0
   48.4934    8.1601   17.7674 C   0  0  0  0  0  0  0  0  0  0  0  0
   49.0720    8.0530   19.1200 C   0  0  0  0  0  0  0  0  0  0  0  0
   49.1816    9.2083   19.9107 C   0  0  0  0  0  0  0  0  0  0  0  0
   49.7126    9.1642   21.1605 N   0  0  0  0  0  0  0  0  0  0  0  0
   50.1401    8.0017   21.6630 C   0  0  0  0  0  0  0  0  0  0  0  0
   50.6738    8.0164   22.9429 C   0  0  0  0  0  0  0  0  0  0  0  0
   51.1514    6.8585   23.5572 C   0  0  0  0  0  0  0  0  0  0  0  0
   51.0852    5.6507   22.8780 C   0  0  0  0  0  0  0  0  0  0  0  0
   50.5524    5.6116   21.5914 C   0  0  0  0  0  0  0  0  0  0  0  0
   50.0711    6.7863   20.9575 C   0  0  0  0  0  0  0  0  0  0  0  0
   49.5193    6.8183   19.6458 C   0  0  0  0  0  0  0  0  0  0  0  0
   49.4016    5.5791   18.8449 C   0  0  0  0  0  0  0  0  0  0  0  0
   50.4335    5.1804   17.9800 C   0  0  0  0  0  0  0  0  0  0  0  0
   50.3187    4.0131   17.2197 C   0  0  0  0  0  0  0  0  0  0  0  0
   49.1770    3.2301   17.3346 C   0  0  0  0  0  0  0  0  0  0  0  0
   49.0656    2.1036   16.6187 F   0  0  0  0  0  0  0  0  0  0  0  0
   48.1437    3.5998   18.1852 C   0  0  0  0  0  0  0  0  0  0  0  0
   48.2530    4.7754   18.9321 C   0  0  0  0  0  0  0  0  0  0  0  0
   48.7529   10.5689   19.4011 C   0  0  0  0  0  0  0  0  0  0  0  0
   48.1718   11.6029   20.3389 C   0  0  0  0  0  0  0  0  0  0  0  0
   47.2842   10.9179   19.3494 C   0  0  0  0  0  0  0  0  0  0  0  0
   46.8079    7.4203   12.8691 C   0  0  0  0  0  0  0  0  0  0  0  0
   46.6360    8.9319   12.7507 C   0  0  0  0  0  0  0  0  0  0  0  0
   47.6964    9.6154   12.8080 O   0  0  0  0  0  0  0  0  0  0  0  0
   45.4454    9.3207   12.6110 O   0  0  0  0  0  0  0  0  0  0  0  0
   49.6560    7.0796   12.8751 H   0  0  0  0  0  0  0  0  0  0  0  0
   49.5493    9.3953   13.0246 H   0  0  0  0  0  0  0  0  0  0  0  0
   47.6622    7.3776   14.3233 H   0  0  0  0  0  0  0  0  0  0  0  0
   47.5678    9.0706   14.8458 H   0  0  0  0  0  0  0  0  0  0  0  0
   50.0113    9.0576   15.3724 H   0  0  0  0  0  0  0  0  0  0  0  0
   51.1829    7.3141   15.1341 H   0  0  0  0  0  0  0  0  0  0  0  0
   48.3147    8.4037   17.1570 H   0  0  0  0  0  0  0  0  0  0  0  0
   50.1033    5.9019   16.9731 H   0  0  0  0  0  0  0  0  0  0  0  0
   46.4626    4.5539   22.4039 H   0  0  0  0  0  0  0  0  0  0  0  0
   46.9640    5.7871   24.4844 H   0  0  0  0  0  0  0  0  0  0  0  0
   48.6384    7.6303   24.4502 H   0  0  0  0  0  0  0  0  0  0  0  0
   49.7430    8.2404   22.3450 H   0  0  0  0  0  0  0  0  0  0  0  0
   48.9128    9.7592   19.4891 H   0  0  0  0  0  0  0  0  0  0  0  0
   50.6725   11.5047   19.3171 H   0  0  0  0  0  0  0  0  0  0  0  0
   53.7106    8.5288   19.8610 H   0  0  0  0  0  0  0  0  0  0  0  0
   51.9718    6.7609   20.0062 H   0  0  0  0  0  0  0  0  0  0  0  0
   46.9515    5.0323   16.9370 H   0  0  0  0  0  0  0  0  0  0  0  0
   49.2318    3.0853   17.7751 H   0  0  0  0  0  0  0  0  0  0  0  0
   48.4025    3.1620   16.1507 H   0  0  0  0  0  0  0  0  0  0  0  0
   46.2015    2.6867   17.2795 H   0  0  0  0  0  0  0  0  0  0  0  0
   47.0480    2.6156   18.8907 H   0  0  0  0  0  0  0  0  0  0  0  0
   46.6566    8.8058   12.2221 H   0  0  0  0  0  0  0  0  0  0  0  0
   47.8413    9.5308   11.1533 H   0  0  0  0  0  0  0  0  0  0  0  0
   48.0685    5.5987   11.6868 H   0  0  0  0  0  0  0  0  0  0  0  0
   48.9613    7.5100   12.4944 H   0  0  0  0  0  0  0  0  0  0  0  0
   49.6971    6.4867   14.5867 H   0  0  0  0  0  0  0  0  0  0  0  0
   48.0541    6.2050   15.1137 H   0  0  0  0  0  0  0  0  0  0  0  0
   47.6670    8.6840   15.3332 H   0  0  0  0  0  0  0  0  0  0  0  0
   48.9396    9.5481   13.8497 H   0  0  0  0  0  0  0  0  0  0  0  0
   50.3330    8.0921   16.7277 H   0  0  0  0  0  0  0  0  0  0  0  0
   47.4148    8.2338   17.7106 H   0  0  0  0  0  0  0  0  0  0  0  0
   50.7190    8.9611   23.4789 H   0  0  0  0  0  0  0  0  0  0  0  0
   51.5594    6.9040   24.5636 H   0  0  0  0  0  0  0  0  0  0  0  0
   51.4341    4.7366   23.3469 H   0  0  0  0  0  0  0  0  0  0  0  0
   50.5155    4.6523   21.0745 H   0  0  0  0  0  0  0  0  0  0  0  0
   51.3256    5.7971   17.8766 H   0  0  0  0  0  0  0  0  0  0  0  0
   51.1094    3.7194   16.5361 H   0  0  0  0  0  0  0  0  0  0  0  0
   47.2482    2.9877   18.2442 H   0  0  0  0  0  0  0  0  0  0  0  0
   47.4375    5.0667   19.5890 H   0  0  0  0  0  0  0  0  0  0  0  0
   49.3682   10.9651   18.5993 H   0  0  0  0  0  0  0  0  0  0  0  0
   48.4363   12.6366   20.1567 H   0  0  0  0  0  0  0  0  0  0  0  0
   48.0562   11.3461   21.3859 H   0  0  0  0  0  0  0  0  0  0  0  0
   46.9428   11.4692   18.4839 H   0  0  0  0  0  0  0  0  0  0  0  0
   46.5603   10.2037   19.7279 H   0  0  0  0  0  0  0  0  0  0  0  0
   46.4118    6.9948   11.9379 H   0  0  0  0  0  0  0  0  0  0  0  0
   46.1528    7.0446   13.6640 H   0  0  0  0  0  0  0  0  0  0  0  0
  2  1  1  0
  2  3  1  0
  3  4  1  0
  4  5  1  0
  4  6  1  0
  6  7  2  0
  7  8  1  0
  8  9  2  0
  9 10  1  0
 10 11  2  0
 11 12  1  0
 12 13  2  0
 13 14  1  0
 14 15  2  0
 15 16  1  0
 11 16  1  0
 16 17  2  0
  8 17  1  0
 17 18  1  0
 18 19  2  0
 19 20  1  0
 20 21  2  0
 21 22  1  0
 21 23  1  0
 23 24  2  0
 18 24  1  0
  9 25  1  0
 25 26  1  0
 26 27  1  0
 25 27  1  0
  2 28  1  0
 28 29  1  0
 29 30  2  0
 29 31  1  0
 34 33  1  0
 34 35  1  0
 35 36  1  0
 36 37  1  0
 36 38  1  0
 38 39  2  0
 39 40  1  0
 40 41  2  0
 41 42  1  0
 42 43  2  0
 43 44  1  0
 44 45  2  0
 45 46  1  0
 46 47  2  0
 47 48  1  0
 43 48  1  0
 48 49  2  0
 40 49  1  0
 49 50  1  0
 50 51  2  0
 51 52  1  0
 52 53  2  0
 53 54  1  0
 53 55  1  0
 55 56  2  0
 50 56  1  0
 41 57  1  0
 57 58  1  0
 58 59  1  0
 57 59  1  0
 34 60  1  0
 60 61  1  0
 61 62  2  0
 61 63  1  0
  1 64  1  0
  2 65  1  6
  3 66  1  0
  3 67  1  0
  4 68  1  6
  5 69  1  0
  6 70  1  0
  7 71  1  0
 12 72  1  0
 13 73  1  0
 14 74  1  0
 15 75  1  0
 19 76  1  0
 20 77  1  0
 23 78  1  0
 24 79  1  0
 25 80  1  0
 26 81  1  0
 26 82  1  0
 27 83  1  0
 27 84  1  0
 28 85  1  0
 28 86  1  0
 33 87  1  0
 34 88  1  6
 35 89  1  0
 35 90  1  0
 36 91  1  1
 37 92  1  0
 38 93  1  0
 39 94  1  0
 44 95  1  0
 45 96  1  0
 46 97  1  0
 47 98  1  0
 51 99  1  0
 52100  1  0
 55101  1  0
 56102  1  0
 57103  1  0
 58104  1  0
 58105  1  0
 59106  1  0
 59107  1  0
 60108  1  0
 60109  1  0
M  CHG  3  31  -1  32   2  63  -1
M  END
> <Uni-Dock RESULT> 
ENERGY=   -6.735  LOWER_BOUND=    0.000  UPPER_BOUND=    0.000
INTER + INTRA:          -6.735
INTER:                  -6.735
INTRA:                   0.000
UNBOUND:                 0.000

$$$$

     RDKit          3D

109114  0  0  0  0  0  0  0  0999 V2000
   46.5697   12.1033   18.9567 O   0  0  0  0  0  0  0  0  0  0  0  0
   47.9393   12.5332   18.9984 C   0  0  2  0  0  0  0  0  0  0  0  0
   48.7777   11.4183   19.6525 C   0  0  0  0  0  0  0  0  0  0  0  0
   49.1111   10.3184   18.6350 C   0  0  2  0  0  0  0  0  0  0  0  0
   47.9018    9.7659   18.1040 O   0  0  0  0  0  0  0  0  0  0  0  0
   49.9404    9.2312   19.2686 C   0  0  0  0  0  0  0  0  0  0  0  0
   49.6735    7.9153   19.2953 C   0  0  0  0  0  0  0  0  0  0  0  0
   50.5608    6.9570   19.9835 C   0  0  0  0  0  0  0  0  0  0  0  0
   50.1519    6.4095   21.2148 C   0  0  0  0  0  0  0  0  0  0  0  0
   50.9402    5.5469   21.9088 N   0  0  0  0  0  0  0  0  0  0  0  0
   52.1350    5.2067   21.4169 C   0  0  0  0  0  0  0  0  0  0  0  0
   52.9072    4.3352   22.1690 C   0  0  0  0  0  0  0  0  0  0  0  0
   54.1752    3.9275   21.7554 C   0  0  0  0  0  0  0  0  0  0  0  0
   54.6755    4.3751   20.5412 C   0  0  0  0  0  0  0  0  0  0  0  0
   53.9072    5.2410   19.7633 C   0  0  0  0  0  0  0  0  0  0  0  0
   52.6305    5.6877   20.1901 C   0  0  0  0  0  0  0  0  0  0  0  0
   51.8128    6.5837   19.4515 C   0  0  0  0  0  0  0  0  0  0  0  0
   52.2477    7.0779   18.1289 C   0  0  0  0  0  0  0  0  0  0  0  0
   53.0507    8.2269   18.0064 C   0  0  0  0  0  0  0  0  0  0  0  0
   53.4551    8.6869   16.7499 C   0  0  0  0  0  0  0  0  0  0  0  0
   53.0719    7.9887   15.6101 C   0  0  0  0  0  0  0  0  0  0  0  0
   53.4700    8.4147   14.4023 F   0  0  0  0  0  0  0  0  0  0  0  0
   52.2869    6.8457   15.7035 C   0  0  0  0  0  0  0  0  0  0  0  0
   51.8685    6.3974   16.9589 C   0  0  0  0  0  0  0  0  0  0  0  0
   48.8176    6.7782   21.8488 C   0  0  0  0  0  0  0  0  0  0  0  0
   47.5616    6.0713   21.3878 C   0  0  0  0  0  0  0  0  0  0  0  0
   48.0959    5.8054   22.7550 C   0  0  0  0  0  0  0  0  0  0  0  0
   48.0119   13.8391   19.7672 C   0  0  0  0  0  0  0  0  0  0  0  0
   49.3808   14.5181   19.6669 C   0  0  0  0  0  0  0  0  0  0  0  0
   49.5455   15.4805   20.4682 O   0  0  0  0  0  0  0  0  0  0  0  0
   50.1851   14.0443   18.8188 O   0  0  0  0  0  0  0  0  0  0  0  0
   50.5260    8.3119   19.5696 Mg  0  0  0  0  0 15  0  0  0  0  0  0
   45.6602   10.7110   20.3306 O   0  0  0  0  0  0  0  0  0  0  0  0
   46.9112   11.3505   19.9998 C   0  0  2  0  0  0  0  0  0  0  0  0
   47.9039   10.2207   19.6906 C   0  0  0  0  0  0  0  0  0  0  0  0
   49.3167   10.6675   19.3004 C   0  0  2  0  0  0  0  0  0  0  0  0
   49.2847   11.5261   18.1637 O   0  0  0  0  0  0  0  0  0  0  0  0
   50.1606    9.4901   18.9052 C   0  0  0  0  0  0  0  0  0  0  0  0
   51.1116    8.9635   19.6918 C   0  0  0  0  0  0  0  0  0  0  0  0
   51.9377    7.8143   19.2766 C   0  0  0  0  0  0  0  0  0  0  0  0
   53.2576    8.0382   18.8525 C   0  0  0  0  0  0  0  0  0  0  0  0
   54.0575    7.0147   18.4543 N   0  0  0  0  0  0  0  0  0  0  0  0
   53.5926    5.7616   18.4654 C   0  0  0  0  0  0  0  0  0  0  0  0
   54.4527    4.7571   18.0476 C   0  0  0  0  0  0  0  0  0  0  0  0
   54.0645    3.4175   18.0178 C   0  0  0  0  0  0  0  0  0  0  0  0
   52.7848    3.0704   18.4259 C   0  0  0  0  0  0  0  0  0  0  0  0
   51.9036    4.0624   18.8503 C   0  0  0  0  0  0  0  0  0  0  0  0
   52.2891    5.4278   18.8767 C   0  0  0  0  0  0  0  0  0  0  0  0
   51.4392    6.4906   19.2941 C   0  0  0  0  0  0  0  0  0  0  0  0
   50.0583    6.2186   19.7523 C   0  0  0  0  0  0  0  0  0  0  0  0
   48.9838    6.2342   18.8483 C   0  0  0  0  0  0  0  0  0  0  0  0
   47.6794    5.9833   19.2833 C   0  0  0  0  0  0  0  0  0  0  0  0
   47.4467    5.6985   20.6229 C   0  0  0  0  0  0  0  0  0  0  0  0
   46.2010    5.4443   21.0445 F   0  0  0  0  0  0  0  0  0  0  0  0
   48.4918    5.6732   21.5366 C   0  0  0  0  0  0  0  0  0  0  0  0
   49.7928    5.9404   21.1032 C   0  0  0  0  0  0  0  0  0  0  0  0
   53.8472    9.4315   18.7776 C   0  0  0  0  0  0  0  0  0  0  0  0
   55.3142    9.6711   19.0547 C   0  0  0  0  0  0  0  0  0  0  0  0
   54.2894   10.1242   20.0450 C   0  0  0  0  0  0  0  0  0  0  0  0
   47.3110   12.2395   21.1769 C   0  0  0  0  0  0  0  0  0  0  0  0
   48.2434   13.3989   20.8382 C   0  0  0  0  0  0  0  0  0  0  0  0
   48.5516   13.5232   19.6197 O   0  0  0  0  0  0  0  0  0  0  0  0
   48.5993   14.0985   21.8241 O   0  0  0  0  0  0  0  0  0  0  0  0
   46.6042   11.1889   18.6030 H   0  0  0  0  0  0  0  0  0  0  0  0
   48.2493   12.6976   17.9597 H   0  0  0  0  0  0  0  0  0  0  0  0
   48.2068   10.9870   20.4877 H   0  0  0  0  0  0  0  0  0  0  0  0
   49.7165   11.8164   20.0620 H   0  0  0  0  0  0  0  0  0  0  0  0
   49.6768   10.7542   17.7996 H   0  0  0  0  0  0  0  0  0  0  0  0
   48.1587    9.3911   17.2462 H   0  0  0  0  0  0  0  0  0  0  0  0
   50.8525    9.5918   19.7380 H   0  0  0  0  0  0  0  0  0  0  0  0
   48.7720    7.4986   18.8537 H   0  0  0  0  0  0  0  0  0  0  0  0
   52.5094    3.9634   23.1080 H   0  0  0  0  0  0  0  0  0  0  0  0
   54.7624    3.2599   22.3801 H   0  0  0  0  0  0  0  0  0  0  0  0
   55.6578    4.0608   20.1987 H   0  0  0  0  0  0  0  0  0  0  0  0
   54.3189    5.5786   18.8101 H   0  0  0  0  0  0  0  0  0  0  0  0
   53.3542    8.7746   18.8968 H   0  0  0  0  0  0  0  0  0  0  0  0
   54.0695    9.5773   16.6570 H   0  0  0  0  0  0  0  0  0  0  0  0
   52.0000    6.3135   14.8004 H   0  0  0  0  0  0  0  0  0  0  0  0
   51.2467    5.5076   17.0259 H   0  0  0  0  0  0  0  0  0  0  0  0
   48.7158    7.8311   22.1060 H   0  0  0  0  0  0  0  0  0  0  0  0
   47.6666    5.2875   20.6494 H   0  0  0  0  0  0  0  0  0  0  0  0
   46.6635    6.6706   21.2918 H   0  0  0  0  0  0  0  0  0  0  0  0
   47.5599    6.2158   23.6014 H   0  0  0  0  0  0  0  0  0  0  0  0
   48.5541    4.8403   22.9400 H   0  0  0  0  0  0  0  0  0  0  0  0
   47.7682   13.6631   20.8225 H   0  0  0  0  0  0  0  0  0  0  0  0
   47.2536   14.5384   19.3940 H   0  0  0  0  0  0  0  0  0  0  0  0
   45.0317   11.4333   20.4985 H   0  0  0  0  0  0  0  0  0  0  0  0
   46.7250   11.9373   19.0909 H   0  0  0  0  0  0  0  0  0  0  0  0
   47.4685    9.6204   18.8780 H   0  0  0  0  0  0  0  0  0  0  0  0
   47.9532    9.5432   20.5560 H   0  0  0  0  0  0  0  0  0  0  0  0
   49.8049   11.1962   20.1288 H   0  0  0  0  0  0  0  0  0  0  0  0
   49.0612   12.4204   18.5430 H   0  0  0  0  0  0  0  0  0  0  0  0
   49.9867    9.0914   17.9063 H   0  0  0  0  0  0  0  0  0  0  0  0
   51.3028    9.3605   20.6808 H   0  0  0  0  0  0  0  0  0  0  0  0
   55.4581    5.0273   17.7350 H   0  0  0  0  0  0  0  0  0  0  0  0
   54.7650    2.6542   17.6893 H   0  0  0  0  0  0  0  0  0  0  0  0
   52.4713    2.0316   18.4277 H   0  0  0  0  0  0  0  0  0  0  0  0
   50.9011    3.7670   19.1611 H   0  0  0  0  0  0  0  0  0  0  0  0
   49.1589    6.4692   17.7991 H   0  0  0  0  0  0  0  0  0  0  0  0
   46.8485    6.0172   18.5853 H   0  0  0  0  0  0  0  0  0  0  0  0
   48.2878    5.4721   22.5845 H   0  0  0  0  0  0  0  0  0  0  0  0
   50.6068    5.9298   21.8235 H   0  0  0  0  0  0  0  0  0  0  0  0
   53.4113   10.0657   18.0119 H   0  0  0  0  0  0  0  0  0  0  0  0
   55.8119   10.4229   18.4557 H   0  0  0  0  0  0  0  0  0  0  0  0
   55.9363    8.8241   19.3211 H   0  0  0  0  0  0  0  0  0  0  0  0
   54.0721   11.1805   20.1262 H   0  0  0  0  0  0  0  0  0  0  0  0
   54.2241    9.5893   20.9868 H   0  0  0  0  0  0  0  0  0  0  0  0
   46.4148   12.6897   21.6233 H   0  0  0  0  0  0  0  0  0  0  0  0
   47.7621   11.6354   21.9729 H   0  0  0  0  0  0  0  0  0  0  0  0
  2  1  1  0
  2  3  1  0
  3  4  1  0
  4  5  1  0
  4  6  1  0
  6  7  2  0
  7  8  1  0
  8  9  2  0
  9 10  1  0
 10 11  2  0
 11 12  1  0
 12 13  2  0
 13 14  1  0
 14 15  2  0
 15 16  1  0
 11 16  1  0
 16 17  2  0
  8 17  1  0
 17 18  1  0
 18 19  2  0
 19 20  1  0
 20 21  2  0
 21 22  1  0
 21 23  1  0
 23 24  2  0
 18 24  1  0
  9 25  1  0
 25 26  1  0
 26 27  1  0
 25 27  1  0
  2 28  1  0
 28 29  1  0
 29 30  2  0
 29 31  1  0
 34 33  1  0
 34 35  1  0
 35 36  1  0
 36 37  1  0
 36 38  1  0
 38 39  2  0
 39 40  1  0
 40 41  2  0
 41 42  1  0
 42 43  2  0
 43 44  1  0
 44 45  2  0
 45 46  1  0
 46 47  2  0
 47 48  1  0
 43 48  1  0
 48 49  2  0
 40 49  1  0
 49 50  1  0
 50 51  2  0
 51 52  1  0
 52 53  2  0
 53 54  1  0
 53 55  1  0
 55 56  2  0
 50 56  1  0
 41 57  1  0
 57 58  1  0
 58 59  1  0
 57 59  1  0
 34 60  1  0
 60 61  1  0
 61 62  2  0
 61 63  1  0
  1 64  1  0
  2 65  1  6
  3 66  1  0
  3 67  1  0
  4 68  1  6
  5 69  1  0
  6 70  1  0
  7 71  1  0
 12 72  1  0
 13 73  1  0
 14 74  1  0
 15 75  1  0
 19 76  1  0
 20 77  1  0
 23 78  1  0
 24 79  1  0
 25 80  1  0
 26 81  1  0
 26 82  1  0
 27 83  1  0
 27 84  1  0
 28 85  1  0
 28 86  1  0
 33 87  1  0
 34 88  1  6
 35 89  1  0
 35 90  1  0
 36 91  1  1
 37 92  1  0
 38 93  1  0
 39 94  1  0
 44 95  1  0
 45 96  1  0
 46 97  1  0
 47 98  1  0
 51 99  1  0
 52100  1  0
 55101  1  0
 56102  1  0
 57103  1  0
 58104  1  0
 58105  1  0
 59106  1  0
 59107  1  0
 60108  1  0
 60109  1  0
M  CHG  3  31  -1  32   2  63  -1
M  END
> <Uni-Dock RESULT> 
ENERGY=   -5.421  LOWER_BOUND=    3.445  UPPER_BOUND=    5.716
INTER + INTRA:          -5.421
INTER:                  -5.421
INTRA:                   0.000
UNBOUND:                 0.000

$$$$

     RDKit          3D

109114  0  0  0  0  0  0  0  0999 V2000
   46.9187    3.8287   12.8700 O   0  0  0  0  0  0  0  0  0  0  0  0
   46.2973    4.8778   12.1114 C   0  0  2  0  0  0  0  0  0  0  0  0
   46.3821    6.1818   12.9275 C   0  0  0  0  0  0  0  0  0  0  0  0
   47.7636    6.8327   12.7734 C   0  0  2  0  0  0  0  0  0  0  0  0
   48.7799    5.9230   13.2083 O   0  0  0  0  0  0  0  0  0  0  0  0
   47.8468    8.1145   13.5617 C   0  0  0  0  0  0  0  0  0  0  0  0
   48.7602    8.4406   14.4906 C   0  0  0  0  0  0  0  0  0  0  0  0
   48.7059    9.7256   15.2154 C   0  0  0  0  0  0  0  0  0  0  0  0
   48.2813    9.7357   16.5580 C   0  0  0  0  0  0  0  0  0  0  0  0
   48.1814   10.8916   17.2658 N   0  0  0  0  0  0  0  0  0  0  0  0
   48.4910   12.0513   16.6786 C   0  0  0  0  0  0  0  0  0  0  0  0
   48.3592   13.2033   17.4381 C   0  0  0  0  0  0  0  0  0  0  0  0
   48.6412   14.4665   16.9186 C   0  0  0  0  0  0  0  0  0  0  0  0
   49.0994   14.5829   15.6142 C   0  0  0  0  0  0  0  0  0  0  0  0
   49.2525   13.4338   14.8388 C   0  0  0  0  0  0  0  0  0  0  0  0
   48.9371   12.1476   15.3469 C   0  0  0  0  0  0  0  0  0  0  0  0
   49.0532   10.9459   14.5990 C   0  0  0  0  0  0  0  0  0  0  0  0
   49.5726   10.9712   13.2162 C   0  0  0  0  0  0  0  0  0  0  0  0
   48.7182   11.1860   12.1189 C   0  0  0  0  0  0  0  0  0  0  0  0
   49.2199   11.2063   10.8143 C   0  0  0  0  0  0  0  0  0  0  0  0
   50.5827   11.0289   10.6028 C   0  0  0  0  0  0  0  0  0  0  0  0
   51.0736   11.0636    9.3551 F   0  0  0  0  0  0  0  0  0  0  0  0
   51.4499   10.8243   11.6694 C   0  0  0  0  0  0  0  0  0  0  0  0
   50.9443   10.7864   12.9713 C   0  0  0  0  0  0  0  0  0  0  0  0
   47.8825    8.4553   17.2790 C   0  0  0  0  0  0  0  0  0  0  0  0
   48.9617    7.5778   17.8749 C   0  0  0  0  0  0  0  0  0  0  0  0
   48.0422    8.3290   18.7780 C   0  0  0  0  0  0  0  0  0  0  0  0
   44.8658    4.4740   11.8122 C   0  0  0  0  0  0  0  0  0  0  0  0
   44.1807    5.3995   10.8027 C   0  0  0  0  0  0  0  0  0  0  0  0
   42.9333    5.2288   10.7017 O   0  0  0  0  0  0  0  0  0  0  0  0
   44.9207    6.2247   10.2009 O   0  0  0  0  0  0  0  0  0  0  0  0
   48.1106    9.0673   14.1105 Mg  0  0  0  0  0 15  0  0  0  0  0  0
   47.0646    3.7675   15.0214 O   0  0  0  0  0  0  0  0  0  0  0  0
   46.5967    4.5775   13.9222 C   0  0  2  0  0  0  0  0  0  0  0  0
   47.3448    5.9146   14.0234 C   0  0  0  0  0  0  0  0  0  0  0  0
   47.0109    6.9451   12.9397 C   0  0  2  0  0  0  0  0  0  0  0  0
   47.2603    6.4176   11.6398 O   0  0  0  0  0  0  0  0  0  0  0  0
   47.8852    8.1591   13.0677 C   0  0  0  0  0  0  0  0  0  0  0  0
   47.4600    9.3280   13.5709 C   0  0  0  0  0  0  0  0  0  0  0  0
   48.3339   10.5117   13.6745 C   0  0  0  0  0  0  0  0  0  0  0  0
   48.1929   11.5503   12.7399 C   0  0  0  0  0  0  0  0  0  0  0  0
   48.9771   12.6587   12.7881 N   0  0  0  0  0  0  0  0  0  0  0  0
   49.9044   12.7787   13.7432 C   0  0  0  0  0  0  0  0  0  0  0  0
   50.6766   13.9306   13.7432 C   0  0  0  0  0  0  0  0  0  0  0  0
   51.6733   14.1516   14.6938 C   0  0  0  0  0  0  0  0  0  0  0  0
   51.8985   13.1999   15.6778 C   0  0  0  0  0  0  0  0  0  0  0  0
   51.1346   12.0351   15.6981 C   0  0  0  0  0  0  0  0  0  0  0  0
   50.1239   11.8003   14.7303 C   0  0  0  0  0  0  0  0  0  0  0  0
   49.3110   10.6325   14.6902 C   0  0  0  0  0  0  0  0  0  0  0  0
   49.4732    9.5637   15.7013 C   0  0  0  0  0  0  0  0  0  0  0  0
   50.3488    8.4888   15.4783 C   0  0  0  0  0  0  0  0  0  0  0  0
   50.4966    7.4770   16.4312 C   0  0  0  0  0  0  0  0  0  0  0  0
   49.7810    7.5454   17.6198 C   0  0  0  0  0  0  0  0  0  0  0  0
   49.9272    6.5860   18.5430 F   0  0  0  0  0  0  0  0  0  0  0  0
   48.9114    8.5993   17.8668 C   0  0  0  0  0  0  0  0  0  0  0  0
   48.7525    9.6013   16.9063 C   0  0  0  0  0  0  0  0  0  0  0  0
   47.1903   11.4748   11.6069 C   0  0  0  0  0  0  0  0  0  0  0  0
   46.5052   12.7199   11.0904 C   0  0  0  0  0  0  0  0  0  0  0  0
   45.7268   11.7222   11.8873 C   0  0  0  0  0  0  0  0  0  0  0  0
   45.0771    4.6926   14.0358 C   0  0  0  0  0  0  0  0  0  0  0  0
   44.3412    4.9938   12.7334 C   0  0  0  0  0  0  0  0  0  0  0  0
   45.0599    5.0757   11.6981 O   0  0  0  0  0  0  0  0  0  0  0  0
   43.0934    5.1283   12.8484 O   0  0  0  0  0  0  0  0  0  0  0  0
   47.7701    4.2093   13.1744 H   0  0  0  0  0  0  0  0  0  0  0  0
   46.8606    4.9650   11.1749 H   0  0  0  0  0  0  0  0  0  0  0  0
   46.1995    5.9511   13.9872 H   0  0  0  0  0  0  0  0  0  0  0  0
   45.6155    6.9009   12.6069 H   0  0  0  0  0  0  0  0  0  0  0  0
   47.9446    7.0568   11.7127 H   0  0  0  0  0  0  0  0  0  0  0  0
   49.5836    6.2140   12.7482 H   0  0  0  0  0  0  0  0  0  0  0  0
   47.0682    8.8326   13.3157 H   0  0  0  0  0  0  0  0  0  0  0  0
   49.5537    7.7592   14.7862 H   0  0  0  0  0  0  0  0  0  0  0  0
   48.0243   13.1144   18.4668 H   0  0  0  0  0  0  0  0  0  0  0  0
   48.5065   15.3507   17.5356 H   0  0  0  0  0  0  0  0  0  0  0  0
   49.3327   15.5582   15.1954 H   0  0  0  0  0  0  0  0  0  0  0  0
   49.6172   13.5480   13.8160 H   0  0  0  0  0  0  0  0  0  0  0  0
   47.6512   11.3273   12.2811 H   0  0  0  0  0  0  0  0  0  0  0  0
   48.5582   11.3658    9.9684 H   0  0  0  0  0  0  0  0  0  0  0  0
   52.5119   10.6897   11.4825 H   0  0  0  0  0  0  0  0  0  0  0  0
   51.6258   10.6169   13.8018 H   0  0  0  0  0  0  0  0  0  0  0  0
   47.0233    7.9439   16.8486 H   0  0  0  0  0  0  0  0  0  0  0  0
   49.9854    7.9213   17.8066 H   0  0  0  0  0  0  0  0  0  0  0  0
   48.8337    6.5053   17.7837 H   0  0  0  0  0  0  0  0  0  0  0  0
   47.2855    7.7713   19.3150 H   0  0  0  0  0  0  0  0  0  0  0  0
   48.4477    9.1738   19.3235 H   0  0  0  0  0  0  0  0  0  0  0  0
   44.2835    4.4531   12.7419 H   0  0  0  0  0  0  0  0  0  0  0  0
   44.8382    3.4519   11.4147 H   0  0  0  0  0  0  0  0  0  0  0  0
   46.6063    2.9148   14.9337 H   0  0  0  0  0  0  0  0  0  0  0  0
   46.8982    4.0544   13.0053 H   0  0  0  0  0  0  0  0  0  0  0  0
   48.4207    5.6865   13.9976 H   0  0  0  0  0  0  0  0  0  0  0  0
   47.1652    6.3487   15.0181 H   0  0  0  0  0  0  0  0  0  0  0  0
   45.9594    7.2530   13.0002 H   0  0  0  0  0  0  0  0  0  0  0  0
   46.4463    5.8790   11.4376 H   0  0  0  0  0  0  0  0  0  0  0  0
   48.9019    8.0577   12.6895 H   0  0  0  0  0  0  0  0  0  0  0  0
   46.4477    9.4446   13.9367 H   0  0  0  0  0  0  0  0  0  0  0  0
   50.4956   14.6804   12.9771 H   0  0  0  0  0  0  0  0  0  0  0  0
   52.2575   15.0678   14.6683 H   0  0  0  0  0  0  0  0  0  0  0  0
   52.6563   13.3630   16.4370 H   0  0  0  0  0  0  0  0  0  0  0  0
   51.3329   11.2986   16.4772 H   0  0  0  0  0  0  0  0  0  0  0  0
   50.9031    8.4236   14.5426 H   0  0  0  0  0  0  0  0  0  0  0  0
   51.1584    6.6365   16.2459 H   0  0  0  0  0  0  0  0  0  0  0  0
   48.3421    8.6238   18.7917 H   0  0  0  0  0  0  0  0  0  0  0  0
   48.0630   10.4191   17.0990 H   0  0  0  0  0  0  0  0  0  0  0  0
   47.4140   10.7241   10.8553 H   0  0  0  0  0  0  0  0  0  0  0  0
   46.3229   12.7753   10.0249 H   0  0  0  0  0  0  0  0  0  0  0  0
   46.7375   13.6705   11.5570 H   0  0  0  0  0  0  0  0  0  0  0  0
   45.0168   11.0854   11.3776 H   0  0  0  0  0  0  0  0  0  0  0  0
   45.4236   12.0015   12.8910 H   0  0  0  0  0  0  0  0  0  0  0  0
   44.6602    3.7485   14.4099 H   0  0  0  0  0  0  0  0  0  0  0  0
   44.8083    5.4475   14.7841 H   0  0  0  0  0  0  0  0  0  0  0  0
  2  1  1  0
  2  3  1  0
  3  4  1  0
  4  5  1  0
  4  6  1  0
  6  7  2  0
  7  8  1  0
  8  9  2  0
  9 10  1  0
 10 11  2  0
 11 12  1  0
 12 13  2  0
 13 14  1  0
 14 15  2  0
 15 16  1  0
 11 16  1  0
 16 17  2  0
  8 17  1  0
 17 18  1  0
 18 19  2  0
 19 20  1  0
 20 21  2  0
 21 22  1  0
 21 23  1  0
 23 24  2  0
 18 24  1  0
  9 25  1  0
 25 26  1  0
 26 27  1  0
 25 27  1  0
  2 28  1  0
 28 29  1  0
 29 30  2  0
 29 31  1  0
 34 33  1  0
 34 35  1  0
 35 36  1  0
 36 37  1  0
 36 38  1  0
 38 39  2  0
 39 40  1  0
 40 41  2  0
 41 42  1  0
 42 43  2  0
 43 44  1  0
 44 45  2  0
 45 46  1  0
 46 47  2  0
 47 48  1  0
 43 48  1  0
 48 49  2  0
 40 49  1  0
 49 50  1  0
 50 51  2  0
 51 52  1  0
 52 53  2  0
 53 54  1  0
 53 55  1  0
 55 56  2  0
 50 56  1  0
 41 57  1  0
 57 58  1  0
 58 59  1  0
 57 59  1  0
 34 60  1  0
 60 61  1  0
 61 62  2  0
 61 63  1  0
  1 64  1  0
  2 65  1  6
  3 66  1  0
  3 67  1  0
  4 68  1  6
  5 69  1  0
  6 70  1  0
  7 71  1  0
 12 72  1  0
 13 73  1  0
 14 74  1  0
 15 75  1  0
 19 76  1  0
 20 77  1  0
 23 78  1  0
 24 79  1  0
 25 80  1  0
 26 81  1  0
 26 82  1  0
 27 83  1  0
 27 84  1  0
 28 85  1  0
 28 86  1  0
 33 87  1  0
 34 88  1  6
 35 89  1  0
 35 90  1  0
 36 91  1  1
 37 92  1  0
 38 93  1  0
 39 94  1  0
 44 95  1  0
 45 96  1  0
 46 97  1  0
 47 98  1  0
 51 99  1  0
 52100  1  0
 55101  1  0
 56102  1  0
 57103  1  0
 58104  1  0
 58105  1  0
 59106  1  0
 59107  1  0
 60108  1  0
 60109  1  0
M  CHG  3  31  -1  32   2  63  -1
M  END
> <Uni-Dock RESULT> 
ENERGY=   -5.227  LOWER_BOUND=    3.429  UPPER_BOUND=    6.749
INTER + INTRA:          -5.227
INTER:                  -5.227
INTRA:                   0.000
UNBOUND:                 0.000

$$$$

     RDKit          3D

109114  0  0  0  0  0  0  0  0999 V2000
   56.1988   10.7500   14.8625 O   0  0  0  0  0  0  0  0  0  0  0  0
   55.0540   10.6479   14.0015 C   0  0  2  0  0  0  0  0  0  0  0  0
   54.3039    9.3466   14.3445 C   0  0  0  0  0  0  0  0  0  0  0  0
   53.4106    9.5407   15.5774 C   0  0  2  0  0  0  0  0  0  0  0  0
   54.2075    9.9485   16.6947 O   0  0  0  0  0  0  0  0  0  0  0  0
   52.6669    8.2727   15.9096 C   0  0  0  0  0  0  0  0  0  0  0  0
   52.6550    7.6201   17.0832 C   0  0  0  0  0  0  0  0  0  0  0  0
   51.9042    6.3618   17.2642 C   0  0  0  0  0  0  0  0  0  0  0  0
   52.6126    5.1467   17.3306 C   0  0  0  0  0  0  0  0  0  0  0  0
   51.9734    3.9548   17.4650 N   0  0  0  0  0  0  0  0  0  0  0  0
   50.6393    3.9282   17.5351 C   0  0  0  0  0  0  0  0  0  0  0  0
   50.0340    2.6872   17.6574 C   0  0  0  0  0  0  0  0  0  0  0  0
   48.6481    2.5450   17.7235 C   0  0  0  0  0  0  0  0  0  0  0  0
   47.8428    3.6744   17.7001 C   0  0  0  0  0  0  0  0  0  0  0  0
   48.4340    4.9330   17.5921 C   0  0  0  0  0  0  0  0  0  0  0  0
   49.8405    5.0865   17.4910 C   0  0  0  0  0  0  0  0  0  0  0  0
   50.4970    6.3389   17.3587 C   0  0  0  0  0  0  0  0  0  0  0  0
   49.7211    7.5961   17.3668 C   0  0  0  0  0  0  0  0  0  0  0  0
   49.1770    8.1262   16.1823 C   0  0  0  0  0  0  0  0  0  0  0  0
   48.4459    9.3175   16.2010 C   0  0  0  0  0  0  0  0  0  0  0  0
   48.2411    9.9754   17.4087 C   0  0  0  0  0  0  0  0  0  0  0  0
   47.5267   11.1101   17.4367 F   0  0  0  0  0  0  0  0  0  0  0  0
   48.7595    9.4686   18.5944 C   0  0  0  0  0  0  0  0  0  0  0  0
   49.5052    8.2873   18.5715 C   0  0  0  0  0  0  0  0  0  0  0  0
   54.1308    5.1006   17.2250 C   0  0  0  0  0  0  0  0  0  0  0  0
   54.9645    5.3799   18.4565 C   0  0  0  0  0  0  0  0  0  0  0  0
   54.9205    3.9983   17.8956 C   0  0  0  0  0  0  0  0  0  0  0  0
   55.5292   10.6801   12.5611 C   0  0  0  0  0  0  0  0  0  0  0  0
   54.3837   10.8255   11.5553 C   0  0  0  0  0  0  0  0  0  0  0  0
   54.7177   10.6318   10.3528 O   0  0  0  0  0  0  0  0  0  0  0  0
   53.2490   11.1065   12.0290 O   0  0  0  0  0  0  0  0  0  0  0  0
   52.0583    7.4190   16.3330 Mg  0  0  0  0  0 15  0  0  0  0  0  0
   57.2446    9.0825   15.7451 O   0  0  0  0  0  0  0  0  0  0  0  0
   56.1149    9.4227   14.9137 C   0  0  2  0  0  0  0  0  0  0  0  0
   54.8721    8.8759   15.6309 C   0  0  0  0  0  0  0  0  0  0  0  0
   53.5349    9.1299   14.9273 C   0  0  2  0  0  0  0  0  0  0  0  0
   53.3246   10.5237   14.7189 O   0  0  0  0  0  0  0  0  0  0  0  0
   52.3869    8.6609   15.7739 C   0  0  0  0  0  0  0  0  0  0  0  0
   51.7007    7.5335   15.5320 C   0  0  0  0  0  0  0  0  0  0  0  0
   50.5673    7.0996   16.3703 C   0  0  0  0  0  0  0  0  0  0  0  0
   49.2575    7.2849   15.8991 C   0  0  0  0  0  0  0  0  0  0  0  0
   48.1794    6.9082   16.6352 N   0  0  0  0  0  0  0  0  0  0  0  0
   48.3545    6.3436   17.8339 C   0  0  0  0  0  0  0  0  0  0  0  0
   47.2184    5.9801   18.5413 C   0  0  0  0  0  0  0  0  0  0  0  0
   47.2915    5.3877   19.8022 C   0  0  0  0  0  0  0  0  0  0  0  0
   48.5341    5.1425   20.3681 C   0  0  0  0  0  0  0  0  0  0  0  0
   49.6894    5.4985   19.6757 C   0  0  0  0  0  0  0  0  0  0  0  0
   49.6227    6.1078   18.3959 C   0  0  0  0  0  0  0  0  0  0  0  0
   50.7612    6.4999   17.6367 C   0  0  0  0  0  0  0  0  0  0  0  0
   52.1293    6.2742   18.1546 C   0  0  0  0  0  0  0  0  0  0  0  0
   52.7825    7.2579   18.9146 C   0  0  0  0  0  0  0  0  0  0  0  0
   54.0768    7.0461   19.3980 C   0  0  0  0  0  0  0  0  0  0  0  0
   54.7169    5.8411   19.1372 C   0  0  0  0  0  0  0  0  0  0  0  0
   55.9522    5.6261   19.6081 F   0  0  0  0  0  0  0  0  0  0  0  0
   54.0919    4.8505   18.3915 C   0  0  0  0  0  0  0  0  0  0  0  0
   52.8046    5.0703   17.8952 C   0  0  0  0  0  0  0  0  0  0  0  0
   48.9739    7.9490   14.5675 C   0  0  0  0  0  0  0  0  0  0  0  0
   47.7875    7.5323   13.7277 C   0  0  0  0  0  0  0  0  0  0  0  0
   49.1702    7.1703   13.2882 C   0  0  0  0  0  0  0  0  0  0  0  0
   56.3565    8.8302   13.5259 C   0  0  0  0  0  0  0  0  0  0  0  0
   55.6182    9.5166   12.3803 C   0  0  0  0  0  0  0  0  0  0  0  0
   54.9211   10.5217   12.6948 O   0  0  0  0  0  0  0  0  0  0  0  0
   55.7925    8.9923   11.2476 O   0  0  0  0  0  0  0  0  0  0  0  0
   55.8554   10.5569   15.7609 H   0  0  0  0  0  0  0  0  0  0  0  0
   54.4284   11.5251   14.2044 H   0  0  0  0  0  0  0  0  0  0  0  0
   55.0396    8.5536   14.5434 H   0  0  0  0  0  0  0  0  0  0  0  0
   53.6781    9.0161   13.5038 H   0  0  0  0  0  0  0  0  0  0  0  0
   52.6805   10.3374   15.3767 H   0  0  0  0  0  0  0  0  0  0  0  0
   53.5874   10.4060   17.2850 H   0  0  0  0  0  0  0  0  0  0  0  0
   52.0795    7.8790   15.0835 H   0  0  0  0  0  0  0  0  0  0  0  0
   53.2314    7.9593   17.9398 H   0  0  0  0  0  0  0  0  0  0  0  0
   50.6616    1.8027   17.7007 H   0  0  0  0  0  0  0  0  0  0  0  0
   48.2060    1.5552   17.7978 H   0  0  0  0  0  0  0  0  0  0  0  0
   46.7615    3.5834   17.7596 H   0  0  0  0  0  0  0  0  0  0  0  0
   47.7817    5.8084   17.5784 H   0  0  0  0  0  0  0  0  0  0  0  0
   49.3336    7.6126   15.2355 H   0  0  0  0  0  0  0  0  0  0  0  0
   48.0322    9.7283   15.2850 H   0  0  0  0  0  0  0  0  0  0  0  0
   48.5863    9.9974   19.5280 H   0  0  0  0  0  0  0  0  0  0  0  0
   49.9165    7.8998   19.5008 H   0  0  0  0  0  0  0  0  0  0  0  0
   54.5284    5.4601   16.2775 H   0  0  0  0  0  0  0  0  0  0  0  0
   54.4438    5.5575   19.3881 H   0  0  0  0  0  0  0  0  0  0  0  0
   55.8676    5.9639   18.3206 H   0  0  0  0  0  0  0  0  0  0  0  0
   55.7976    3.6284   17.3799 H   0  0  0  0  0  0  0  0  0  0  0  0
   54.3765    3.2436   18.4524 H   0  0  0  0  0  0  0  0  0  0  0  0
   56.0981    9.7689   12.3370 H   0  0  0  0  0  0  0  0  0  0  0  0
   56.2246   11.5153   12.4125 H   0  0  0  0  0  0  0  0  0  0  0  0
   58.0226    9.4554   15.2973 H   0  0  0  0  0  0  0  0  0  0  0  0
   56.0728   10.5194   14.8868 H   0  0  0  0  0  0  0  0  0  0  0  0
   54.8531    9.3259   16.6345 H   0  0  0  0  0  0  0  0  0  0  0  0
   55.0047    7.7970   15.8003 H   0  0  0  0  0  0  0  0  0  0  0  0
   53.4972    8.6182   13.9574 H   0  0  0  0  0  0  0  0  0  0  0  0
   53.8453   10.7256   13.8933 H   0  0  0  0  0  0  0  0  0  0  0  0
   52.1029    9.3143   16.5982 H   0  0  0  0  0  0  0  0  0  0  0  0
   51.9650    6.8837   14.7074 H   0  0  0  0  0  0  0  0  0  0  0  0
   46.2444    6.1648   18.0953 H   0  0  0  0  0  0  0  0  0  0  0  0
   46.3814    5.1106   20.3279 H   0  0  0  0  0  0  0  0  0  0  0  0
   48.6112    4.6651   21.3394 H   0  0  0  0  0  0  0  0  0  0  0  0
   50.6550    5.3015   20.1423 H   0  0  0  0  0  0  0  0  0  0  0  0
   52.2901    8.2095   19.1115 H   0  0  0  0  0  0  0  0  0  0  0  0
   54.5868    7.8173   19.9670 H   0  0  0  0  0  0  0  0  0  0  0  0
   54.6171    3.9240   18.1773 H   0  0  0  0  0  0  0  0  0  0  0  0
   52.3228    4.2965   17.3031 H   0  0  0  0  0  0  0  0  0  0  0  0
   49.2205    9.0054   14.5282 H   0  0  0  0  0  0  0  0  0  0  0  0
   47.2686    8.3134   13.1871 H   0  0  0  0  0  0  0  0  0  0  0  0
   47.1476    6.7371   14.0933 H   0  0  0  0  0  0  0  0  0  0  0  0
   49.6098    7.7014   12.4550 H   0  0  0  0  0  0  0  0  0  0  0  0
   49.4635    6.1273   13.3472 H   0  0  0  0  0  0  0  0  0  0  0  0
   57.4243    8.8882   13.2782 H   0  0  0  0  0  0  0  0  0  0  0  0
   56.1130    7.7612   13.5217 H   0  0  0  0  0  0  0  0  0  0  0  0
  2  1  1  0
  2  3  1  0
  3  4  1  0
  4  5  1  0
  4  6  1  0
  6  7  2  0
  7  8  1  0
  8  9  2  0
  9 10  1  0
 10 11  2  0
 11 12  1  0
 12 13  2  0
 13 14  1  0
 14 15  2  0
 15 16  1  0
 11 16  1  0
 16 17  2  0
  8 17  1  0
 17 18  1  0
 18 19  2  0
 19 20  1  0
 20 21  2  0
 21 22  1  0
 21 23  1  0
 23 24  2  0
 18 24  1  0
  9 25  1  0
 25 26  1  0
 26 27  1  0
 25 27  1  0
  2 28  1  0
 28 29  1  0
 29 30  2  0
 29 31  1  0
 34 33  1  0
 34 35  1  0
 35 36  1  0
 36 37  1  0
 36 38  1  0
 38 39  2  0
 39 40  1  0
 40 41  2  0
 41 42  1  0
 42 43  2  0
 43 44  1  0
 44 45  2  0
 45 46  1  0
 46 47  2  0
 47 48  1  0
 43 48  1  0
 48 49  2  0
 40 49  1  0
 49 50  1  0
 50 51  2  0
 51 52  1  0
 52 53  2  0
 53 54  1  0
 53 55  1  0
 55 56  2  0
 50 56  1  0
 41 57  1  0
 57 58  1  0
 58 59  1  0
 57 59  1  0
 34 60  1  0
 60 61  1  0
 61 62  2  0
 61 63  1  0
  1 64  1  0
  2 65  1  6
  3 66  1  0
  3 67  1  0
  4 68  1  6
  5 69  1  0
  6 70  1  0
  7 71  1  0
 12 72  1  0
 13 73  1  0
 14 74  1  0
 15 75  1  0
 19 76  1  0
 20 77  1  0
 23 78  1  0
 24 79  1  0
 25 80  1  0
 26 81  1  0
 26 82  1  0
 27 83  1  0
 27 84  1  0
 28 85  1  0
 28 86  1  0
 33 87  1  0
 34 88  1  6
 35 89  1  0
 35 90  1  0
 36 91  1  1
 37 92  1  0
 38 93  1  0
 39 94  1  0
 44 95  1  0
 45 96  1  0
 46 97  1  0
 47 98  1  0
 51 99  1  0
 52100  1  0
 55101  1  0
 56102  1  0
 57103  1  0
 58104  1  0
 58105  1  0
 59106  1  0
 59107  1  0
 60108  1  0
 60109  1  0
M  CHG  3  31  -1  32   2  63  -1
M  END
> <Uni-Dock RESULT> 
ENERGY=   -5.030  LOWER_BOUND=    3.870  UPPER_BOUND=    5.868
INTER + INTRA:          -5.030
INTER:                  -5.030
INTRA:                   0.000
UNBOUND:                 0.000

$$$$

     RDKit          3D

109114  0  0  0  0  0  0  0  0999 V2000
   53.2593   14.5680   18.0169 O   0  0  0  0  0  0  0  0  0  0  0  0
   54.0615   13.6027   18.7147 C   0  0  2  0  0  0  0  0  0  0  0  0
   53.1195   12.6192   19.4351 C   0  0  0  0  0  0  0  0  0  0  0  0
   52.6027   11.5486   18.4642 C   0  0  2  0  0  0  0  0  0  0  0  0
   51.9109   12.1727   17.3771 O   0  0  0  0  0  0  0  0  0  0  0  0
   51.6892   10.5782   19.1679 C   0  0  0  0  0  0  0  0  0  0  0  0
   50.4322   10.2508   18.8271 C   0  0  0  0  0  0  0  0  0  0  0  0
   49.6323    9.3033   19.6284 C   0  0  0  0  0  0  0  0  0  0  0  0
   48.5961    9.8009   20.4418 C   0  0  0  0  0  0  0  0  0  0  0  0
   47.8473    8.9802   21.2247 N   0  0  0  0  0  0  0  0  0  0  0  0
   48.0963    7.6675   21.2285 C   0  0  0  0  0  0  0  0  0  0  0  0
   47.3146    6.8748   22.0544 C   0  0  0  0  0  0  0  0  0  0  0  0
   47.5004    5.4956   22.1458 C   0  0  0  0  0  0  0  0  0  0  0  0
   48.4716    4.8832   21.3670 C   0  0  0  0  0  0  0  0  0  0  0  0
   49.2586    5.6620   20.5188 C   0  0  0  0  0  0  0  0  0  0  0  0
   49.0999    7.0695   20.4430 C   0  0  0  0  0  0  0  0  0  0  0  0
   49.8841    7.9155   19.6146 C   0  0  0  0  0  0  0  0  0  0  0  0
   50.9128    7.3446   18.7210 C   0  0  0  0  0  0  0  0  0  0  0  0
   52.2262    7.1160   19.1715 C   0  0  0  0  0  0  0  0  0  0  0  0
   53.1923    6.5770   18.3171 C   0  0  0  0  0  0  0  0  0  0  0  0
   52.8439    6.2478   17.0119 C   0  0  0  0  0  0  0  0  0  0  0  0
   53.7614    5.7149   16.1915 F   0  0  0  0  0  0  0  0  0  0  0  0
   51.5516    6.4546   16.5444 C   0  0  0  0  0  0  0  0  0  0  0  0
   50.5917    7.0101   17.3941 C   0  0  0  0  0  0  0  0  0  0  0  0
   48.2792   11.2885   20.5103 C   0  0  0  0  0  0  0  0  0  0  0  0
   47.4121   11.9081   19.4360 C   0  0  0  0  0  0  0  0  0  0  0  0
   46.8788   11.7682   20.8222 C   0  0  0  0  0  0  0  0  0  0  0  0
   54.9751   14.3392   19.6763 C   0  0  0  0  0  0  0  0  0  0  0  0
   56.0459   13.4367   20.2956 C   0  0  0  0  0  0  0  0  0  0  0  0
   56.6742   13.9584   21.2591 O   0  0  0  0  0  0  0  0  0  0  0  0
   56.1744   12.2869   19.7933 O   0  0  0  0  0  0  0  0  0  0  0  0
   50.9604    9.7826   19.5061 Mg  0  0  0  0  0 15  0  0  0  0  0  0
   51.2680   15.1738   18.5836 O   0  0  0  0  0  0  0  0  0  0  0  0
   52.3454   14.2824   18.9414 C   0  0  2  0  0  0  0  0  0  0  0  0
   51.7695   12.8607   18.8707 C   0  0  0  0  0  0  0  0  0  0  0  0
   52.7486   11.7312   19.2073 C   0  0  2  0  0  0  0  0  0  0  0  0
   53.8868   11.7702   18.3509 O   0  0  0  0  0  0  0  0  0  0  0  0
   52.1128   10.3886   18.9885 C   0  0  0  0  0  0  0  0  0  0  0  0
   51.6810    9.6024   19.9864 C   0  0  0  0  0  0  0  0  0  0  0  0
   51.0713    8.2807   19.7477 C   0  0  0  0  0  0  0  0  0  0  0  0
   51.8353    7.1241   19.9725 C   0  0  0  0  0  0  0  0  0  0  0  0
   51.3225    5.8837   19.7619 N   0  0  0  0  0  0  0  0  0  0  0  0
   50.0632    5.7461   19.3356 C   0  0  0  0  0  0  0  0  0  0  0  0
   49.5931    4.4567   19.1366 C   0  0  0  0  0  0  0  0  0  0  0  0
   48.2958    4.2043   18.6900 C   0  0  0  0  0  0  0  0  0  0  0  0
   47.4411    5.2691   18.4445 C   0  0  0  0  0  0  0  0  0  0  0  0
   47.8912    6.5732   18.6380 C   0  0  0  0  0  0  0  0  0  0  0  0
   49.2116    6.8379   19.0854 C   0  0  0  0  0  0  0  0  0  0  0  0
   49.7367    8.1435   19.2995 C   0  0  0  0  0  0  0  0  0  0  0  0
   48.8990    9.3420   19.0700 C   0  0  0  0  0  0  0  0  0  0  0  0
   48.8800    9.9779   17.8182 C   0  0  0  0  0  0  0  0  0  0  0  0
   48.0932   11.1133   17.6045 C   0  0  0  0  0  0  0  0  0  0  0  0
   47.3082   11.6074   18.6385 C   0  0  0  0  0  0  0  0  0  0  0  0
   46.5419   12.6874   18.4372 F   0  0  0  0  0  0  0  0  0  0  0  0
   47.3058   10.9952   19.8848 C   0  0  0  0  0  0  0  0  0  0  0  0
   48.1053    9.8703   20.1015 C   0  0  0  0  0  0  0  0  0  0  0  0
   53.2802    7.1958   20.4217 C   0  0  0  0  0  0  0  0  0  0  0  0
   53.8647    6.1400   21.3328 C   0  0  0  0  0  0  0  0  0  0  0  0
   53.5988    7.5124   21.8638 C   0  0  0  0  0  0  0  0  0  0  0  0
   52.8549   14.6907   20.3231 C   0  0  0  0  0  0  0  0  0  0  0  0
   54.2928   14.2892   20.6387 C   0  0  0  0  0  0  0  0  0  0  0  0
   54.9186   13.7003   19.7132 O   0  0  0  0  0  0  0  0  0  0  0  0
   54.6865   14.5941   21.7964 O   0  0  0  0  0  0  0  0  0  0  0  0
   52.5836   14.0375   17.5432 H   0  0  0  0  0  0  0  0  0  0  0  0
   54.6617   13.0855   17.9569 H   0  0  0  0  0  0  0  0  0  0  0  0
   52.2700   13.1802   19.8514 H   0  0  0  0  0  0  0  0  0  0  0  0
   53.6302   12.1207   20.2707 H   0  0  0  0  0  0  0  0  0  0  0  0
   53.4546   10.9939   18.0463 H   0  0  0  0  0  0  0  0  0  0  0  0
   51.9557   11.5267   16.6540 H   0  0  0  0  0  0  0  0  0  0  0  0
   52.1378   10.1051   20.0381 H   0  0  0  0  0  0  0  0  0  0  0  0
   49.9279   10.6996   17.9753 H   0  0  0  0  0  0  0  0  0  0  0  0
   46.5373    7.3467   22.6472 H   0  0  0  0  0  0  0  0  0  0  0  0
   46.8836    4.9072   22.8196 H   0  0  0  0  0  0  0  0  0  0  0  0
   48.6246    3.8085   21.4183 H   0  0  0  0  0  0  0  0  0  0  0  0
   50.0149    5.1594   19.9128 H   0  0  0  0  0  0  0  0  0  0  0  0
   52.5017    7.3706   20.1933 H   0  0  0  0  0  0  0  0  0  0  0  0
   54.2069    6.4072   18.6647 H   0  0  0  0  0  0  0  0  0  0  0  0
   51.2995    6.1886   15.5212 H   0  0  0  0  0  0  0  0  0  0  0  0
   49.5843    7.1783   17.0206 H   0  0  0  0  0  0  0  0  0  0  0  0
   49.0889   11.9052   20.8966 H   0  0  0  0  0  0  0  0  0  0  0  0
   47.0060   11.2535   18.6763 H   0  0  0  0  0  0  0  0  0  0  0  0
   47.6882   12.8963   19.0863 H   0  0  0  0  0  0  0  0  0  0  0  0
   46.7804   12.6626   21.4241 H   0  0  0  0  0  0  0  0  0  0  0  0
   46.1087   11.0248   20.9951 H   0  0  0  0  0  0  0  0  0  0  0  0
   54.3801   14.8003   20.4746 H   0  0  0  0  0  0  0  0  0  0  0  0
   55.4791   15.1649   19.1591 H   0  0  0  0  0  0  0  0  0  0  0  0
   51.6483   16.0681   18.6050 H   0  0  0  0  0  0  0  0  0  0  0  0
   53.1161   14.4072   18.1697 H   0  0  0  0  0  0  0  0  0  0  0  0
   51.3788   12.7199   17.8520 H   0  0  0  0  0  0  0  0  0  0  0  0
   50.8900   12.7997   19.5286 H   0  0  0  0  0  0  0  0  0  0  0  0
   53.0875   11.8016   20.2486 H   0  0  0  0  0  0  0  0  0  0  0  0
   54.4757   12.4604   18.7636 H   0  0  0  0  0  0  0  0  0  0  0  0
   52.0474   10.0538   17.9538 H   0  0  0  0  0  0  0  0  0  0  0  0
   51.7537    9.9186   21.0194 H   0  0  0  0  0  0  0  0  0  0  0  0
   50.2596    3.6214   19.3361 H   0  0  0  0  0  0  0  0  0  0  0  0
   47.9572    3.1811   18.5489 H   0  0  0  0  0  0  0  0  0  0  0  0
   46.4227    5.0918   18.1151 H   0  0  0  0  0  0  0  0  0  0  0  0
   47.2040    7.3946   18.4334 H   0  0  0  0  0  0  0  0  0  0  0  0
   49.5032    9.6022   17.0075 H   0  0  0  0  0  0  0  0  0  0  0  0
   48.0976   11.6148   16.6415 H   0  0  0  0  0  0  0  0  0  0  0  0
   46.7039   11.4097   20.6885 H   0  0  0  0  0  0  0  0  0  0  0  0
   48.1086    9.4001   21.0815 H   0  0  0  0  0  0  0  0  0  0  0  0
   53.9641    7.5975   19.6804 H   0  0  0  0  0  0  0  0  0  0  0  0
   54.8930    5.8520   21.1561 H   0  0  0  0  0  0  0  0  0  0  0  0
   53.2232    5.3335   21.6696 H   0  0  0  0  0  0  0  0  0  0  0  0
   54.4350    8.1736   22.0461 H   0  0  0  0  0  0  0  0  0  0  0  0
   52.7825    7.6334   22.5683 H   0  0  0  0  0  0  0  0  0  0  0  0
   52.8139   15.7828   20.4261 H   0  0  0  0  0  0  0  0  0  0  0  0
   52.1920   14.2984   21.1034 H   0  0  0  0  0  0  0  0  0  0  0  0
  2  1  1  0
  2  3  1  0
  3  4  1  0
  4  5  1  0
  4  6  1  0
  6  7  2  0
  7  8  1  0
  8  9  2  0
  9 10  1  0
 10 11  2  0
 11 12  1  0
 12 13  2  0
 13 14  1  0
 14 15  2  0
 15 16  1  0
 11 16  1  0
 16 17  2  0
  8 17  1  0
 17 18  1  0
 18 19  2  0
 19 20  1  0
 20 21  2  0
 21 22  1  0
 21 23  1  0
 23 24  2  0
 18 24  1  0
  9 25  1  0
 25 26  1  0
 26 27  1  0
 25 27  1  0
  2 28  1  0
 28 29  1  0
 29 30  2  0
 29 31  1  0
 34 33  1  0
 34 35  1  0
 35 36  1  0
 36 37  1  0
 36 38  1  0
 38 39  2  0
 39 40  1  0
 40 41  2  0
 41 42  1  0
 42 43  2  0
 43 44  1  0
 44 45  2  0
 45 46  1  0
 46 47  2  0
 47 48  1  0
 43 48  1  0
 48 49  2  0
 40 49  1  0
 49 50  1  0
 50 51  2  0
 51 52  1  0
 52 53  2  0
 53 54  1  0
 53 55  1  0
 55 56  2  0
 50 56  1  0
 41 57  1  0
 57 58  1  0
 58 59  1  0
 57 59  1  0
 34 60  1  0
 60 61  1  0
 61 62  2  0
 61 63  1  0
  1 64  1  0
  2 65  1  6
  3 66  1  0
  3 67  1  0
  4 68  1  6
  5 69  1  0
  6 70  1  0
  7 71  1  0
 12 72  1  0
 13 73  1  0
 14 74  1  0
 15 75  1  0
 19 76  1  0
 20 77  1  0
 23 78  1  0
 24 79  1  0
 25 80  1  0
 26 81  1  0
 26 82  1  0
 27 83  1  0
 27 84  1  0
 28 85  1  0
 28 86  1  0
 33 87  1  0
 34 88  1  6
 35 89  1  0
 35 90  1  0
 36 91  1  1
 37 92  1  0
 38 93  1  0
 39 94  1  0
 44 95  1  0
 45 96  1  0
 46 97  1  0
 47 98  1  0
 51 99  1  0
 52100  1  0
 55101  1  0
 56102  1  0
 57103  1  0
 58104  1  0
 58105  1  0
 59106  1  0
 59107  1  0
 60108  1  0
 60109  1  0
M  CHG  3  31  -1  32   2  63  -1
M  END
> <Uni-Dock RESULT> 
ENERGY=   -4.932  LOWER_BOUND=    3.754  UPPER_BOUND=    7.013
INTER + INTRA:          -4.932
INTER:                  -4.932
INTRA:                   0.000
UNBOUND:                 0.000

$$$$

     RDKit          3D

109114  0  0  0  0  0  0  0  0999 V2000
   49.8297    6.4607   20.2886 O   0  0  0  0  0  0  0  0  0  0  0  0
   49.4560    6.1918   18.9284 C   0  0  2  0  0  0  0  0  0  0  0  0
   48.7941    7.4564   18.3483 C   0  0  0  0  0  0  0  0  0  0  0  0
   49.8553    8.4704   17.8994 C   0  0  2  0  0  0  0  0  0  0  0  0
   50.6872    8.8255   19.0091 O   0  0  0  0  0  0  0  0  0  0  0  0
   49.2116    9.7044   17.3214 C   0  0  0  0  0  0  0  0  0  0  0  0
   49.4088   10.9779   17.6992 C   0  0  0  0  0  0  0  0  0  0  0  0
   48.6837   12.0969   17.0656 C   0  0  0  0  0  0  0  0  0  0  0  0
   47.6418   12.7252   17.7746 C   0  0  0  0  0  0  0  0  0  0  0  0
   46.9189   13.7392   17.2303 N   0  0  0  0  0  0  0  0  0  0  0  0
   47.1976   14.1545   15.9913 C   0  0  0  0  0  0  0  0  0  0  0  0
   46.4227   15.1817   15.4759 C   0  0  0  0  0  0  0  0  0  0  0  0
   46.6191   15.6802   14.1882 C   0  0  0  0  0  0  0  0  0  0  0  0
   47.6388   15.1625   13.4026 C   0  0  0  0  0  0  0  0  0  0  0  0
   48.4386   14.1383   13.9090 C   0  0  0  0  0  0  0  0  0  0  0  0
   48.2261   13.6018   15.2047 C   0  0  0  0  0  0  0  0  0  0  0  0
   48.9940   12.5468   15.7651 C   0  0  0  0  0  0  0  0  0  0  0  0
   50.1261   11.9642   15.0158 C   0  0  0  0  0  0  0  0  0  0  0  0
   49.9344   10.9045   14.1101 C   0  0  0  0  0  0  0  0  0  0  0  0
   51.0131   10.3594   13.4075 C   0  0  0  0  0  0  0  0  0  0  0  0
   52.2869   10.8843   13.5951 C   0  0  0  0  0  0  0  0  0  0  0  0
   53.3238   10.3773   12.9121 F   0  0  0  0  0  0  0  0  0  0  0  0
   52.5024   11.9369   14.4766 C   0  0  0  0  0  0  0  0  0  0  0  0
   51.4263   12.4687   15.1915 C   0  0  0  0  0  0  0  0  0  0  0  0
   47.2499   12.2817   19.1774 C   0  0  0  0  0  0  0  0  0  0  0  0
   48.0432   12.7917   20.3607 C   0  0  0  0  0  0  0  0  0  0  0  0
   46.6417   13.2606   20.1573 C   0  0  0  0  0  0  0  0  0  0  0  0
   48.5272    4.9923   18.9113 C   0  0  0  0  0  0  0  0  0  0  0  0
   48.2595    4.4618   17.5000 C   0  0  0  0  0  0  0  0  0  0  0  0
   47.3247    3.6154   17.4296 O   0  0  0  0  0  0  0  0  0  0  0  0
   48.9804    4.9275   16.5758 O   0  0  0  0  0  0  0  0  0  0  0  0
   48.9187   10.7098   16.8949 Mg  0  0  0  0  0 15  0  0  0  0  0  0
   48.8595    7.8837   21.5875 O   0  0  0  0  0  0  0  0  0  0  0  0
   48.8444    7.3545   20.2447 C   0  0  2  0  0  0  0  0  0  0  0  0
   49.0883    8.5472   19.3089 C   0  0  0  0  0  0  0  0  0  0  0  0
   49.1228    8.2198   17.8125 C   0  0  2  0  0  0  0  0  0  0  0  0
   50.1225    7.2456   17.5262 O   0  0  0  0  0  0  0  0  0  0  0  0
   49.4864    9.4338   17.0070 C   0  0  0  0  0  0  0  0  0  0  0  0
   48.5974   10.1438   16.2957 C   0  0  0  0  0  0  0  0  0  0  0  0
   48.9804   11.3259   15.5009 C   0  0  0  0  0  0  0  0  0  0  0  0
   49.0953   11.2048   14.1066 C   0  0  0  0  0  0  0  0  0  0  0  0
   49.4510   12.2616   13.3302 N   0  0  0  0  0  0  0  0  0  0  0  0
   49.6955   13.4495   13.8919 C   0  0  0  0  0  0  0  0  0  0  0  0
   50.0555   14.4920   13.0512 C   0  0  0  0  0  0  0  0  0  0  0  0
   50.3353   15.7695   13.5369 C   0  0  0  0  0  0  0  0  0  0  0  0
   50.2435   16.0151   14.8992 C   0  0  0  0  0  0  0  0  0  0  0  0
   49.8830   14.9832   15.7629 C   0  0  0  0  0  0  0  0  0  0  0  0
   49.6038   13.6796   15.2770 C   0  0  0  0  0  0  0  0  0  0  0  0
   49.2346   12.5805   16.1027 C   0  0  0  0  0  0  0  0  0  0  0  0
   49.1050   12.7460   17.5679 C   0  0  0  0  0  0  0  0  0  0  0  0
   50.1986   12.5146   18.4178 C   0  0  0  0  0  0  0  0  0  0  0  0
   50.0734   12.6653   19.8018 C   0  0  0  0  0  0  0  0  0  0  0  0
   48.8569   13.0651   20.3402 C   0  0  0  0  0  0  0  0  0  0  0  0
   48.7331   13.2239   21.6643 F   0  0  0  0  0  0  0  0  0  0  0  0
   47.7610   13.3039   19.5217 C   0  0  0  0  0  0  0  0  0  0  0  0
   47.8833   13.1370   18.1400 C   0  0  0  0  0  0  0  0  0  0  0  0
   48.8695    9.8853   13.3978 C   0  0  0  0  0  0  0  0  0  0  0  0
   48.2719    9.8404   12.0096 C   0  0  0  0  0  0  0  0  0  0  0  0
   47.4605    9.3861   13.1806 C   0  0  0  0  0  0  0  0  0  0  0  0
   47.5066    6.6470   20.0326 C   0  0  0  0  0  0  0  0  0  0  0  0
   47.4972    5.5680   18.9536 C   0  0  0  0  0  0  0  0  0  0  0  0
   48.6014    5.3481   18.3815 O   0  0  0  0  0  0  0  0  0  0  0  0
   46.3780    5.0222   18.7594 O   0  0  0  0  0  0  0  0  0  0  0  0
   50.2835    7.3299   20.2572 H   0  0  0  0  0  0  0  0  0  0  0  0
   50.3802    5.9518   18.3896 H   0  0  0  0  0  0  0  0  0  0  0  0
   48.1546    7.9093   19.1200 H   0  0  0  0  0  0  0  0  0  0  0  0
   48.1548    7.2108   17.4889 H   0  0  0  0  0  0  0  0  0  0  0  0
   50.4955    8.0124   17.1324 H   0  0  0  0  0  0  0  0  0  0  0  0
   51.5159    9.1319   18.6070 H   0  0  0  0  0  0  0  0  0  0  0  0
   48.5245    9.4994   16.5040 H   0  0  0  0  0  0  0  0  0  0  0  0
   50.0740   11.2425   18.5170 H   0  0  0  0  0  0  0  0  0  0  0  0
   45.6397   15.6062   16.0963 H   0  0  0  0  0  0  0  0  0  0  0  0
   45.9793   16.4719   13.8081 H   0  0  0  0  0  0  0  0  0  0  0  0
   47.8123   15.5447   12.4001 H   0  0  0  0  0  0  0  0  0  0  0  0
   49.2370   13.7477   13.2750 H   0  0  0  0  0  0  0  0  0  0  0  0
   48.9382   10.4927   13.9592 H   0  0  0  0  0  0  0  0  0  0  0  0
   50.8641    9.5376   12.7137 H   0  0  0  0  0  0  0  0  0  0  0  0
   53.5056   12.3338   14.6073 H   0  0  0  0  0  0  0  0  0  0  0  0
   51.6017   13.2864   15.8869 H   0  0  0  0  0  0  0  0  0  0  0  0
   46.8856   11.2578   19.2418 H   0  0  0  0  0  0  0  0  0  0  0  0
   48.8393   13.4983   20.1670 H   0  0  0  0  0  0  0  0  0  0  0  0
   48.2416   12.0900   21.1628 H   0  0  0  0  0  0  0  0  0  0  0  0
   45.8762   12.8870   20.8254 H   0  0  0  0  0  0  0  0  0  0  0  0
   46.4930   14.2847   19.8336 H   0  0  0  0  0  0  0  0  0  0  0  0
   47.5749    5.2528   19.3900 H   0  0  0  0  0  0  0  0  0  0  0  0
   48.9536    4.1774   19.5092 H   0  0  0  0  0  0  0  0  0  0  0  0
   48.7313    7.1187   22.1733 H   0  0  0  0  0  0  0  0  0  0  0  0
   49.6892    6.6563   20.1805 H   0  0  0  0  0  0  0  0  0  0  0  0
   50.0425    9.0048   19.6093 H   0  0  0  0  0  0  0  0  0  0  0  0
   48.3252    9.3151   19.5046 H   0  0  0  0  0  0  0  0  0  0  0  0
   48.1517    7.8405   17.4702 H   0  0  0  0  0  0  0  0  0  0  0  0
   49.6848    6.3781   17.7487 H   0  0  0  0  0  0  0  0  0  0  0  0
   50.5425    9.7010   16.9958 H   0  0  0  0  0  0  0  0  0  0  0  0
   47.5476    9.8792   16.2881 H   0  0  0  0  0  0  0  0  0  0  0  0
   50.1202   14.3025   11.9827 H   0  0  0  0  0  0  0  0  0  0  0  0
   50.6101   16.5658   12.8500 H   0  0  0  0  0  0  0  0  0  0  0  0
   50.4388   17.0069   15.2933 H   0  0  0  0  0  0  0  0  0  0  0  0
   49.8227   15.1978   16.8303 H   0  0  0  0  0  0  0  0  0  0  0  0
   51.1515   12.1888   18.0021 H   0  0  0  0  0  0  0  0  0  0  0  0
   50.9153   12.4648   20.4574 H   0  0  0  0  0  0  0  0  0  0  0  0
   46.8110   13.5928   19.9624 H   0  0  0  0  0  0  0  0  0  0  0  0
   47.0203   13.3149   17.5037 H   0  0  0  0  0  0  0  0  0  0  0  0
   49.6198    9.1281   13.6034 H   0  0  0  0  0  0  0  0  0  0  0  0
   48.6558    9.0882   11.3326 H   0  0  0  0  0  0  0  0  0  0  0  0
   47.9958   10.7747   11.5339 H   0  0  0  0  0  0  0  0  0  0  0  0
   47.2900    8.3272   13.3193 H   0  0  0  0  0  0  0  0  0  0  0  0
   46.6282   10.0087   13.4921 H   0  0  0  0  0  0  0  0  0  0  0  0
   47.1973    6.1512   20.9619 H   0  0  0  0  0  0  0  0  0  0  0  0
   46.7198    7.3793   19.8162 H   0  0  0  0  0  0  0  0  0  0  0  0
  2  1  1  0
  2  3  1  0
  3  4  1  0
  4  5  1  0
  4  6  1  0
  6  7  2  0
  7  8  1  0
  8  9  2  0
  9 10  1  0
 10 11  2  0
 11 12  1  0
 12 13  2  0
 13 14  1  0
 14 15  2  0
 15 16  1  0
 11 16  1  0
 16 17  2  0
  8 17  1  0
 17 18  1  0
 18 19  2  0
 19 20  1  0
 20 21  2  0
 21 22  1  0
 21 23  1  0
 23 24  2  0
 18 24  1  0
  9 25  1  0
 25 26  1  0
 26 27  1  0
 25 27  1  0
  2 28  1  0
 28 29  1  0
 29 30  2  0
 29 31  1  0
 34 33  1  0
 34 35  1  0
 35 36  1  0
 36 37  1  0
 36 38  1  0
 38 39  2  0
 39 40  1  0
 40 41  2  0
 41 42  1  0
 42 43  2  0
 43 44  1  0
 44 45  2  0
 45 46  1  0
 46 47  2  0
 47 48  1  0
 43 48  1  0
 48 49  2  0
 40 49  1  0
 49 50  1  0
 50 51  2  0
 51 52  1  0
 52 53  2  0
 53 54  1  0
 53 55  1  0
 55 56  2  0
 50 56  1  0
 41 57  1  0
 57 58  1  0
 58 59  1  0
 57 59  1  0
 34 60  1  0
 60 61  1  0
 61 62  2  0
 61 63  1  0
  1 64  1  0
  2 65  1  6
  3 66  1  0
  3 67  1  0
  4 68  1  6
  5 69  1  0
  6 70  1  0
  7 71  1  0
 12 72  1  0
 13 73  1  0
 14 74  1  0
 15 75  1  0
 19 76  1  0
 20 77  1  0
 23 78  1  0
 24 79  1  0
 25 80  1  0
 26 81  1  0
 26 82  1  0
 27 83  1  0
 27 84  1  0
 28 85  1  0
 28 86  1  0
 33 87  1  0
 34 88  1  6
 35 89  1  0
 35 90  1  0
 36 91  1  1
 37 92  1  0
 38 93  1  0
 39 94  1  0
 44 95  1  0
 45 96  1  0
 46 97  1  0
 47 98  1  0
 51 99  1  0
 52100  1  0
 55101  1  0
 56102  1  0
 57103  1  0
 58104  1  0
 58105  1  0
 59106  1  0
 59107  1  0
 60108  1  0
 60109  1  0
M  CHG  3  31  -1  32   2  63  -1
M  END
> <Uni-Dock RESULT> 
ENERGY=   -4.895  LOWER_BOUND=    3.800  UPPER_BOUND=    8.103
INTER + INTRA:          -4.895
INTER:                  -4.895
INTRA:                   0.000
UNBOUND:                 0.000

$$$$

     RDKit          3D

109114  0  0  0  0  0  0  0  0999 V2000
   49.3339   14.1034   12.1523 O   0  0  0  0  0  0  0  0  0  0  0  0
   48.7793   14.2752   13.4658 C   0  0  2  0  0  0  0  0  0  0  0  0
   48.4112   12.8865   14.0222 C   0  0  0  0  0  0  0  0  0  0  0  0
   49.6497   12.1817   14.5926 C   0  0  2  0  0  0  0  0  0  0  0  0
   50.6440   12.0457   13.5716 O   0  0  0  0  0  0  0  0  0  0  0  0
   49.2915   10.8271   15.1477 C   0  0  0  0  0  0  0  0  0  0  0  0
   49.8414    9.6448   14.8265 C   0  0  0  0  0  0  0  0  0  0  0  0
   49.3704    8.3809   15.4264 C   0  0  0  0  0  0  0  0  0  0  0  0
   48.5938    7.5019   14.6471 C   0  0  0  0  0  0  0  0  0  0  0  0
   48.1064    6.3394   15.1551 N   0  0  0  0  0  0  0  0  0  0  0  0
   48.3656    6.0169   16.4256 C   0  0  0  0  0  0  0  0  0  0  0  0
   47.8342    4.8281   16.9007 C   0  0  0  0  0  0  0  0  0  0  0  0
   48.0309    4.4044   18.2148 C   0  0  0  0  0  0  0  0  0  0  0  0
   48.8071    5.1712   19.0717 C   0  0  0  0  0  0  0  0  0  0  0  0
   49.3625    6.3635   18.6079 C   0  0  0  0  0  0  0  0  0  0  0  0
   49.1413    6.8198   17.2832 C   0  0  0  0  0  0  0  0  0  0  0  0
   49.6631    8.0334   16.7618 C   0  0  0  0  0  0  0  0  0  0  0  0
   50.5345    8.8916   17.5907 C   0  0  0  0  0  0  0  0  0  0  0  0
   49.9954    9.8718   18.4443 C   0  0  0  0  0  0  0  0  0  0  0  0
   50.8292   10.6797   19.2229 C   0  0  0  0  0  0  0  0  0  0  0  0
   52.2065   10.4986   19.1639 C   0  0  0  0  0  0  0  0  0  0  0  0
   53.0117   11.2589   19.9205 F   0  0  0  0  0  0  0  0  0  0  0  0
   52.7644    9.5315   18.3363 C   0  0  0  0  0  0  0  0  0  0  0  0
   51.9308    8.7369   17.5452 C   0  0  0  0  0  0  0  0  0  0  0  0
   48.2336    7.8217   13.2027 C   0  0  0  0  0  0  0  0  0  0  0  0
   49.2371    7.5256   12.1095 C   0  0  0  0  0  0  0  0  0  0  0  0
   47.9891    6.7136   12.2023 C   0  0  0  0  0  0  0  0  0  0  0  0
   47.5777   15.1960   13.3655 C   0  0  0  0  0  0  0  0  0  0  0  0
   47.0537   15.6482   14.7315 C   0  0  0  0  0  0  0  0  0  0  0  0
   45.9315   16.2265   14.6941 O   0  0  0  0  0  0  0  0  0  0  0  0
   47.7806   15.3887   15.7290 O   0  0  0  0  0  0  0  0  0  0  0  0
   49.2266    9.7828   15.5762 Mg  0  0  0  0  0 15  0  0  0  0  0  0
   48.8839   12.4713   10.8154 O   0  0  0  0  0  0  0  0  0  0  0  0
   48.6097   12.9868   12.1355 C   0  0  2  0  0  0  0  0  0  0  0  0
   49.0619   11.9022   13.1239 C   0  0  0  0  0  0  0  0  0  0  0  0
   48.8727   12.2363   14.6072 C   0  0  2  0  0  0  0  0  0  0  0  0
   49.5596   13.4362   14.9518 O   0  0  0  0  0  0  0  0  0  0  0  0
   49.4577   11.1611   15.4770 C   0  0  0  0  0  0  0  0  0  0  0  0
   48.7174   10.2507   16.1278 C   0  0  0  0  0  0  0  0  0  0  0  0
   49.3139    9.2114   16.9877 C   0  0  0  0  0  0  0  0  0  0  0  0
   49.2642    9.3660   18.3826 C   0  0  0  0  0  0  0  0  0  0  0  0
   49.8041    8.4406   19.2181 N   0  0  0  0  0  0  0  0  0  0  0  0
   50.3948    7.3521   18.7154 C   0  0  0  0  0  0  0  0  0  0  0  0
   50.9293    6.4420   19.6150 C   0  0  0  0  0  0  0  0  0  0  0  0
   51.5697    5.2764   19.1937 C   0  0  0  0  0  0  0  0  0  0  0  0
   51.6705    5.0076   17.8365 C   0  0  0  0  0  0  0  0  0  0  0  0
   51.1404    5.9071   16.9142 C   0  0  0  0  0  0  0  0  0  0  0  0
   50.4938    7.0981   17.3350 C   0  0  0  0  0  0  0  0  0  0  0  0
   49.9346    8.0606   16.4479 C   0  0  0  0  0  0  0  0  0  0  0  0
   49.9882    7.8588   14.9826 C   0  0  0  0  0  0  0  0  0  0  0  0
   51.0605    8.3584   14.2260 C   0  0  0  0  0  0  0  0  0  0  0  0
   51.1069    8.1725   12.8414 C   0  0  0  0  0  0  0  0  0  0  0  0
   50.0881    7.4705   12.2098 C   0  0  0  0  0  0  0  0  0  0  0  0
   50.1324    7.2774   10.8851 F   0  0  0  0  0  0  0  0  0  0  0  0
   49.0183    6.9630   12.9351 C   0  0  0  0  0  0  0  0  0  0  0  0
   48.9652    7.1638   14.3166 C   0  0  0  0  0  0  0  0  0  0  0  0
   48.6443   10.5874   19.0295 C   0  0  0  0  0  0  0  0  0  0  0  0
   47.9288   10.4854   20.3577 C   0  0  0  0  0  0  0  0  0  0  0  0
   47.1406   10.7092   19.1067 C   0  0  0  0  0  0  0  0  0  0  0  0
   47.1219   13.3282   12.2078 C   0  0  0  0  0  0  0  0  0  0  0  0
   46.7373   14.3748   13.2495 C   0  0  0  0  0  0  0  0  0  0  0  0
   47.6908   14.8743   13.9100 O   0  0  0  0  0  0  0  0  0  0  0  0
   45.5028   14.6159   13.3281 O   0  0  0  0  0  0  0  0  0  0  0  0
   49.9895   13.3801   12.2492 H   0  0  0  0  0  0  0  0  0  0  0  0
   49.5576   14.7477   14.0766 H   0  0  0  0  0  0  0  0  0  0  0  0
   47.9830   12.2800   13.2108 H   0  0  0  0  0  0  0  0  0  0  0  0
   47.6536   12.9646   14.8143 H   0  0  0  0  0  0  0  0  0  0  0  0
   50.0778   12.7933   15.3993 H   0  0  0  0  0  0  0  0  0  0  0  0
   51.4824   11.9648   14.0541 H   0  0  0  0  0  0  0  0  0  0  0  0
   48.5020   10.8536   15.8950 H   0  0  0  0  0  0  0  0  0  0  0  0
   50.6251    9.5552   14.0787 H   0  0  0  0  0  0  0  0  0  0  0  0
   47.2465    4.2132   16.2264 H   0  0  0  0  0  0  0  0  0  0  0  0
   47.5818    3.4771   18.5602 H   0  0  0  0  0  0  0  0  0  0  0  0
   48.9786    4.8523   20.0964 H   0  0  0  0  0  0  0  0  0  0  0  0
   49.9724    6.9498   19.2980 H   0  0  0  0  0  0  0  0  0  0  0  0
   48.9176   10.0147   18.4945 H   0  0  0  0  0  0  0  0  0  0  0  0
   50.4117   11.4398   19.8763 H   0  0  0  0  0  0  0  0  0  0  0  0
   53.8434    9.4048   18.3064 H   0  0  0  0  0  0  0  0  0  0  0  0
   52.3728    7.9877   16.8925 H   0  0  0  0  0  0  0  0  0  0  0  0
   47.6277    8.7172   13.0763 H   0  0  0  0  0  0  0  0  0  0  0  0
   50.1656    7.0483   12.3934 H   0  0  0  0  0  0  0  0  0  0  0  0
   49.3234    8.2500   11.3078 H   0  0  0  0  0  0  0  0  0  0  0  0
   47.2190    6.8741   11.4585 H   0  0  0  0  0  0  0  0  0  0  0  0
   48.0773    5.6876   12.5416 H   0  0  0  0  0  0  0  0  0  0  0  0
   46.7721   14.6968   12.8125 H   0  0  0  0  0  0  0  0  0  0  0  0
   47.8356   16.0896   12.7838 H   0  0  0  0  0  0  0  0  0  0  0  0
   48.6196   13.1743   10.1983 H   0  0  0  0  0  0  0  0  0  0  0  0
   49.2386   13.8789   12.2533 H   0  0  0  0  0  0  0  0  0  0  0  0
   50.1250   11.7034   12.9224 H   0  0  0  0  0  0  0  0  0  0  0  0
   48.5417   10.9629   12.8843 H   0  0  0  0  0  0  0  0  0  0  0  0
   47.8096   12.3554   14.8512 H   0  0  0  0  0  0  0  0  0  0  0  0
   48.9377   14.1608   14.6660 H   0  0  0  0  0  0  0  0  0  0  0  0
   50.5413   11.1742   15.5892 H   0  0  0  0  0  0  0  0  0  0  0  0
   47.6387   10.2368   16.0349 H   0  0  0  0  0  0  0  0  0  0  0  0
   50.8440    6.6480   20.6789 H   0  0  0  0  0  0  0  0  0  0  0  0
   51.9736    4.5814   19.9253 H   0  0  0  0  0  0  0  0  0  0  0  0
   52.1481    4.0968   17.4905 H   0  0  0  0  0  0  0  0  0  0  0  0
   51.2361    5.6780   15.8526 H   0  0  0  0  0  0  0  0  0  0  0  0
   51.8558    8.9204   14.7143 H   0  0  0  0  0  0  0  0  0  0  0  0
   51.9268    8.5787   12.2570 H   0  0  0  0  0  0  0  0  0  0  0  0
   48.2187    6.4372   12.4210 H   0  0  0  0  0  0  0  0  0  0  0  0
   48.1209    6.7740   14.8794 H   0  0  0  0  0  0  0  0  0  0  0  0
   49.1922   11.5107   18.8687 H   0  0  0  0  0  0  0  0  0  0  0  0
   48.0435   11.3150   21.0434 H   0  0  0  0  0  0  0  0  0  0  0  0
   47.8574    9.5143   20.8345 H   0  0  0  0  0  0  0  0  0  0  0  0
   46.7192   11.6879   18.9224 H   0  0  0  0  0  0  0  0  0  0  0  0
   46.5275    9.8919   18.7416 H   0  0  0  0  0  0  0  0  0  0  0  0
   46.7839   13.7224   11.2407 H   0  0  0  0  0  0  0  0  0  0  0  0
   46.5315   12.4195   12.3754 H   0  0  0  0  0  0  0  0  0  0  0  0
  2  1  1  0
  2  3  1  0
  3  4  1  0
  4  5  1  0
  4  6  1  0
  6  7  2  0
  7  8  1  0
  8  9  2  0
  9 10  1  0
 10 11  2  0
 11 12  1  0
 12 13  2  0
 13 14  1  0
 14 15  2  0
 15 16  1  0
 11 16  1  0
 16 17  2  0
  8 17  1  0
 17 18  1  0
 18 19  2  0
 19 20  1  0
 20 21  2  0
 21 22  1  0
 21 23  1  0
 23 24  2  0
 18 24  1  0
  9 25  1  0
 25 26  1  0
 26 27  1  0
 25 27  1  0
  2 28  1  0
 28 29  1  0
 29 30  2  0
 29 31  1  0
 34 33  1  0
 34 35  1  0
 35 36  1  0
 36 37  1  0
 36 38  1  0
 38 39  2  0
 39 40  1  0
 40 41  2  0
 41 42  1  0
 42 43  2  0
 43 44  1  0
 44 45  2  0
 45 46  1  0
 46 47  2  0
 47 48  1  0
 43 48  1  0
 48 49  2  0
 40 49  1  0
 49 50  1  0
 50 51  2  0
 51 52  1  0
 52 53  2  0
 53 54  1  0
 53 55  1  0
 55 56  2  0
 50 56  1  0
 41 57  1  0
 57 58  1  0
 58 59  1  0
 57 59  1  0
 34 60  1  0
 60 61  1  0
 61 62  2  0
 61 63  1  0
  1 64  1  0
  2 65  1  6
  3 66  1  0
  3 67  1  0
  4 68  1  6
  5 69  1  0
  6 70  1  0
  7 71  1  0
 12 72  1  0
 13 73  1  0
 14 74  1  0
 15 75  1  0
 19 76  1  0
 20 77  1  0
 23 78  1  0
 24 79  1  0
 25 80  1  0
 26 81  1  0
 26 82  1  0
 27 83  1  0
 27 84  1  0
 28 85  1  0
 28 86  1  0
 33 87  1  0
 34 88  1  6
 35 89  1  0
 35 90  1  0
 36 91  1  1
 37 92  1  0
 38 93  1  0
 39 94  1  0
 44 95  1  0
 45 96  1  0
 46 97  1  0
 47 98  1  0
 51 99  1  0
 52100  1  0
 55101  1  0
 56102  1  0
 57103  1  0
 58104  1  0
 58105  1  0
 59106  1  0
 59107  1  0
 60108  1  0
 60109  1  0
M  CHG  3  31  -1  32   2  63  -1
M  END
> <Uni-Dock RESULT> 
ENERGY=   -4.836  LOWER_BOUND=    2.687  UPPER_BOUND=    4.583
INTER + INTRA:          -4.836
INTER:                  -4.836
INTRA:                   0.000
UNBOUND:                 0.000

$$$$

     RDKit          3D

109114  0  0  0  0  0  0  0  0999 V2000
   49.4809    5.7754   20.6364 O   0  0  0  0  0  0  0  0  0  0  0  0
   49.5374    5.6374   19.2081 C   0  0  2  0  0  0  0  0  0  0  0  0
   48.9619    6.9182   18.5740 C   0  0  0  0  0  0  0  0  0  0  0  0
   50.0147    8.0348   18.5489 C   0  0  2  0  0  0  0  0  0  0  0  0
   50.4596    8.3124   19.8811 O   0  0  0  0  0  0  0  0  0  0  0  0
   49.4587    9.2862   17.9194 C   0  0  0  0  0  0  0  0  0  0  0  0
   49.4277   10.5193   18.4502 C   0  0  0  0  0  0  0  0  0  0  0  0
   48.8199   11.6580   17.7337 C   0  0  0  0  0  0  0  0  0  0  0  0
   47.5680   12.1432   18.1581 C   0  0  0  0  0  0  0  0  0  0  0  0
   46.9458   13.1680   17.5179 N   0  0  0  0  0  0  0  0  0  0  0  0
   47.5305   13.7329   16.4576 C   0  0  0  0  0  0  0  0  0  0  0  0
   46.8493   14.7646   15.8307 C   0  0  0  0  0  0  0  0  0  0  0  0
   47.3621   15.4127   14.7073 C   0  0  0  0  0  0  0  0  0  0  0  0
   48.6051   15.0444   14.2132 C   0  0  0  0  0  0  0  0  0  0  0  0
   49.3125   14.0182   14.8391 C   0  0  0  0  0  0  0  0  0  0  0  0
   48.7852   13.3305   15.9621 C   0  0  0  0  0  0  0  0  0  0  0  0
   49.4492   12.2658   16.6272 C   0  0  0  0  0  0  0  0  0  0  0  0
   50.7949   11.8356   16.1949 C   0  0  0  0  0  0  0  0  0  0  0  0
   50.9637   10.8732   15.1824 C   0  0  0  0  0  0  0  0  0  0  0  0
   52.2416   10.4719   14.7822 C   0  0  0  0  0  0  0  0  0  0  0  0
   53.3575   11.0451   15.3818 C   0  0  0  0  0  0  0  0  0  0  0  0
   54.5867   10.6771   14.9914 F   0  0  0  0  0  0  0  0  0  0  0  0
   53.2190   12.0046   16.3776 C   0  0  0  0  0  0  0  0  0  0  0  0
   51.9411   12.3915   16.7891 C   0  0  0  0  0  0  0  0  0  0  0  0
   46.8307   11.5257   19.3385 C   0  0  0  0  0  0  0  0  0  0  0  0
   47.2042   11.9466   20.7432 C   0  0  0  0  0  0  0  0  0  0  0  0
   45.8845   12.3539   20.1795 C   0  0  0  0  0  0  0  0  0  0  0  0
   48.7607    4.3958   18.8122 C   0  0  0  0  0  0  0  0  0  0  0  0
   48.9557    4.0100   17.3432 C   0  0  0  0  0  0  0  0  0  0  0  0
   48.1577    3.1242   16.9262 O   0  0  0  0  0  0  0  0  0  0  0  0
   49.8678    4.6156   16.7169 O   0  0  0  0  0  0  0  0  0  0  0  0
   49.2138   10.3140   17.5168 Mg  0  0  0  0  0 15  0  0  0  0  0  0
   48.0592    6.9881   21.7140 O   0  0  0  0  0  0  0  0  0  0  0  0
   48.4756    6.6105   20.3846 C   0  0  2  0  0  0  0  0  0  0  0  0
   48.8724    7.9113   19.6717 C   0  0  0  0  0  0  0  0  0  0  0  0
   49.3626    7.7537   18.2286 C   0  0  2  0  0  0  0  0  0  0  0  0
   50.4833    6.8762   18.1632 O   0  0  0  0  0  0  0  0  0  0  0  0
   49.8344    9.0682   17.6769 C   0  0  0  0  0  0  0  0  0  0  0  0
   49.1282    9.8002   16.8019 C   0  0  0  0  0  0  0  0  0  0  0  0
   49.6183   11.0828   16.2631 C   0  0  0  0  0  0  0  0  0  0  0  0
   50.1380   11.1234   14.9592 C   0  0  0  0  0  0  0  0  0  0  0  0
   50.6076   12.2781   14.4188 N   0  0  0  0  0  0  0  0  0  0  0  0
   50.5766   13.4088   15.1310 C   0  0  0  0  0  0  0  0  0  0  0  0
   51.0701   14.5568   14.5294 C   0  0  0  0  0  0  0  0  0  0  0  0
   51.0866   15.7867   15.1875 C   0  0  0  0  0  0  0  0  0  0  0  0
   50.5874   15.8746   16.4788 C   0  0  0  0  0  0  0  0  0  0  0  0
   50.0859   14.7347   17.1031 C   0  0  0  0  0  0  0  0  0  0  0  0
   50.0722   13.4788   16.4426 C   0  0  0  0  0  0  0  0  0  0  0  0
   49.5792   12.2759   17.0222 C   0  0  0  0  0  0  0  0  0  0  0  0
   49.0214   12.2707   18.3933 C   0  0  0  0  0  0  0  0  0  0  0  0
   49.8415   12.0101   19.5029 C   0  0  0  0  0  0  0  0  0  0  0  0
   49.3125   11.9995   20.7966 C   0  0  0  0  0  0  0  0  0  0  0  0
   47.9627   12.2669   20.9871 C   0  0  0  0  0  0  0  0  0  0  0  0
   47.4514   12.2711   22.2251 F   0  0  0  0  0  0  0  0  0  0  0  0
   47.1307   12.5313   19.9074 C   0  0  0  0  0  0  0  0  0  0  0  0
   47.6578   12.5253   18.6135 C   0  0  0  0  0  0  0  0  0  0  0  0
   50.2405    9.8794   14.1009 C   0  0  0  0  0  0  0  0  0  0  0  0
   50.0719    9.9540   12.6001 C   0  0  0  0  0  0  0  0  0  0  0  0
   49.0018    9.3273   13.4357 C   0  0  0  0  0  0  0  0  0  0  0  0
   47.3215    5.8551   19.7266 C   0  0  0  0  0  0  0  0  0  0  0  0
   47.7156    4.9032   18.6010 C   0  0  0  0  0  0  0  0  0  0  0  0
   48.9523    4.8116   18.3615 O   0  0  0  0  0  0  0  0  0  0  0  0
   46.7510    4.3188   18.0387 O   0  0  0  0  0  0  0  0  0  0  0  0
   49.8472    6.6673   20.8171 H   0  0  0  0  0  0  0  0  0  0  0  0
   50.5945    5.5119   18.9456 H   0  0  0  0  0  0  0  0  0  0  0  0
   48.0913    7.2456   19.1608 H   0  0  0  0  0  0  0  0  0  0  0  0
   48.6196    6.7328   17.5464 H   0  0  0  0  0  0  0  0  0  0  0  0
   50.8852    7.7019   17.9663 H   0  0  0  0  0  0  0  0  0  0  0  0
   51.3388    8.7084   19.7691 H   0  0  0  0  0  0  0  0  0  0  0  0
   49.0551    9.1336   16.9213 H   0  0  0  0  0  0  0  0  0  0  0  0
   49.8050   10.7298   19.4475 H   0  0  0  0  0  0  0  0  0  0  0  0
   45.8875   15.0723   16.2289 H   0  0  0  0  0  0  0  0  0  0  0  0
   46.7915   16.2035   14.2279 H   0  0  0  0  0  0  0  0  0  0  0  0
   49.0246   15.5443   13.3442 H   0  0  0  0  0  0  0  0  0  0  0  0
   50.2899   13.7465   14.4356 H   0  0  0  0  0  0  0  0  0  0  0  0
   50.0923   10.4241   14.7094 H   0  0  0  0  0  0  0  0  0  0  0  0
   52.3699    9.7245   14.0051 H   0  0  0  0  0  0  0  0  0  0  0  0
   54.1042   12.4415   16.8321 H   0  0  0  0  0  0  0  0  0  0  0  0
   51.8380   13.1360   17.5751 H   0  0  0  0  0  0  0  0  0  0  0  0
   46.5540   10.4818   19.2017 H   0  0  0  0  0  0  0  0  0  0  0  0
   47.9577   12.7148   20.8557 H   0  0  0  0  0  0  0  0  0  0  0  0
   47.2249   11.1732   21.5024 H   0  0  0  0  0  0  0  0  0  0  0  0
   44.9952   11.8654   20.5571 H   0  0  0  0  0  0  0  0  0  0  0  0
   45.7462   13.3972   19.9189 H   0  0  0  0  0  0  0  0  0  0  0  0
   47.6922    4.5467   19.0111 H   0  0  0  0  0  0  0  0  0  0  0  0
   49.0672    3.5456   19.4340 H   0  0  0  0  0  0  0  0  0  0  0  0
   47.8357    6.1570   22.1658 H   0  0  0  0  0  0  0  0  0  0  0  0
   49.3608    5.9733   20.5096 H   0  0  0  0  0  0  0  0  0  0  0  0
   49.6570    8.3869   20.2788 H   0  0  0  0  0  0  0  0  0  0  0  0
   48.0214    8.6078   19.7021 H   0  0  0  0  0  0  0  0  0  0  0  0
   48.5672    7.3595   17.5837 H   0  0  0  0  0  0  0  0  0  0  0  0
   50.0775    5.9657   18.1692 H   0  0  0  0  0  0  0  0  0  0  0  0
   50.8221    9.3952   18.0003 H   0  0  0  0  0  0  0  0  0  0  0  0
   48.1518    9.4782   16.4626 H   0  0  0  0  0  0  0  0  0  0  0  0
   51.4544   14.4904   13.5146 H   0  0  0  0  0  0  0  0  0  0  0  0
   51.4762   16.6684   14.6853 H   0  0  0  0  0  0  0  0  0  0  0  0
   50.5744   16.8264   16.9995 H   0  0  0  0  0  0  0  0  0  0  0  0
   49.7039   14.8262   18.1202 H   0  0  0  0  0  0  0  0  0  0  0  0
   50.8981   11.7874   19.3583 H   0  0  0  0  0  0  0  0  0  0  0  0
   49.9454   11.7764   21.6501 H   0  0  0  0  0  0  0  0  0  0  0  0
   46.0729   12.7147   20.0733 H   0  0  0  0  0  0  0  0  0  0  0  0
   47.0011   12.7226   17.7701 H   0  0  0  0  0  0  0  0  0  0  0  0
   50.9634    9.1486   14.4496 H   0  0  0  0  0  0  0  0  0  0  0  0
   50.6976    9.3044   12.0017 H   0  0  0  0  0  0  0  0  0  0  0  0
   49.8634   10.9177   12.1494 H   0  0  0  0  0  0  0  0  0  0  0  0
   48.8917    8.2515   13.4234 H   0  0  0  0  0  0  0  0  0  0  0  0
   48.0642    9.8628   13.5430 H   0  0  0  0  0  0  0  0  0  0  0  0
   46.8034    5.2427   20.4760 H   0  0  0  0  0  0  0  0  0  0  0  0
   46.5691    6.5605   19.3546 H   0  0  0  0  0  0  0  0  0  0  0  0
  2  1  1  0
  2  3  1  0
  3  4  1  0
  4  5  1  0
  4  6  1  0
  6  7  2  0
  7  8  1  0
  8  9  2  0
  9 10  1  0
 10 11  2  0
 11 12  1  0
 12 13  2  0
 13 14  1  0
 14 15  2  0
 15 16  1  0
 11 16  1  0
 16 17  2  0
  8 17  1  0
 17 18  1  0
 18 19  2  0
 19 20  1  0
 20 21  2  0
 21 22  1  0
 21 23  1  0
 23 24  2  0
 18 24  1  0
  9 25  1  0
 25 26  1  0
 26 27  1  0
 25 27  1  0
  2 28  1  0
 28 29  1  0
 29 30  2  0
 29 31  1  0
 34 33  1  0
 34 35  1  0
 35 36  1  0
 36 37  1  0
 36 38  1  0
 38 39  2  0
 39 40  1  0
 40 41  2  0
 41 42  1  0
 42 43  2  0
 43 44  1  0
 44 45  2  0
 45 46  1  0
 46 47  2  0
 47 48  1  0
 43 48  1  0
 48 49  2  0
 40 49  1  0
 49 50  1  0
 50 51  2  0
 51 52  1  0
 52 53  2  0
 53 54  1  0
 53 55  1  0
 55 56  2  0
 50 56  1  0
 41 57  1  0
 57 58  1  0
 58 59  1  0
 57 59  1  0
 34 60  1  0
 60 61  1  0
 61 62  2  0
 61 63  1  0
  1 64  1  0
  2 65  1  6
  3 66  1  0
  3 67  1  0
  4 68  1  6
  5 69  1  0
  6 70  1  0
  7 71  1  0
 12 72  1  0
 13 73  1  0
 14 74  1  0
 15 75  1  0
 19 76  1  0
 20 77  1  0
 23 78  1  0
 24 79  1  0
 25 80  1  0
 26 81  1  0
 26 82  1  0
 27 83  1  0
 27 84  1  0
 28 85  1  0
 28 86  1  0
 33 87  1  0
 34 88  1  6
 35 89  1  0
 35 90  1  0
 36 91  1  1
 37 92  1  0
 38 93  1  0
 39 94  1  0
 44 95  1  0
 45 96  1  0
 46 97  1  0
 47 98  1  0
 51 99  1  0
 52100  1  0
 55101  1  0
 56102  1  0
 57103  1  0
 58104  1  0
 58105  1  0
 59106  1  0
 59107  1  0
 60108  1  0
 60109  1  0
M  CHG  3  31  -1  32   2  63  -1
M  END
> <Uni-Dock RESULT> 
ENERGY=   -4.752  LOWER_BOUND=    3.707  UPPER_BOUND=    7.649
INTER + INTRA:          -4.752
INTER:                  -4.752
INTRA:                   0.000
UNBOUND:                 0.000

$$$$
