
     RDKit          3D

109114  0  0  0  0  0  0  0  0999 V2000
   46.3731   11.9016   18.9069 O   0  0  0  0  0  0  0  0  0  0  0  0
   47.7158   11.7523   18.4003 C   0  0  2  0  0  0  0  0  0  0  0  0
   48.4948   10.8462   19.3657 C   0  0  0  0  0  0  0  0  0  0  0  0
   47.8729    9.4468   19.4809 C   0  0  2  0  0  0  0  0  0  0  0  0
   46.5863    9.5115   20.0950 O   0  0  0  0  0  0  0  0  0  0  0  0
   48.7192    8.5685   20.3539 C   0  0  0  0  0  0  0  0  0  0  0  0
   49.2129    7.3788   19.9751 C   0  0  0  0  0  0  0  0  0  0  0  0
   50.1274    6.5742   20.8129 C   0  0  0  0  0  0  0  0  0  0  0  0
   49.7400    6.1029   22.0809 C   0  0  0  0  0  0  0  0  0  0  0  0
   50.5906    5.3712   22.8505 N   0  0  0  0  0  0  0  0  0  0  0  0
   51.8183    5.0782   22.4040 C   0  0  0  0  0  0  0  0  0  0  0  0
   52.6430    4.3340   23.2347 C   0  0  0  0  0  0  0  0  0  0  0  0
   53.9398    3.9745   22.8656 C   0  0  0  0  0  0  0  0  0  0  0  0
   54.4336    4.3714   21.6340 C   0  0  0  0  0  0  0  0  0  0  0  0
   53.6228    5.1185   20.7827 C   0  0  0  0  0  0  0  0  0  0  0  0
   52.2987    5.4830   21.1459 C   0  0  0  0  0  0  0  0  0  0  0  0
   51.4194    6.2422   20.3244 C   0  0  0  0  0  0  0  0  0  0  0  0
   51.8463    6.6706   18.9717 C   0  0  0  0  0  0  0  0  0  0  0  0
   52.2570    7.9919   18.7220 C   0  0  0  0  0  0  0  0  0  0  0  0
   52.6479    8.3850   17.4392 C   0  0  0  0  0  0  0  0  0  0  0  0
   52.6364    7.4584   16.4031 C   0  0  0  0  0  0  0  0  0  0  0  0
   53.0166    7.8286   15.1735 F   0  0  0  0  0  0  0  0  0  0  0  0
   52.2285    6.1483   16.6207 C   0  0  0  0  0  0  0  0  0  0  0  0
   51.8332    5.7566   17.9004 C   0  0  0  0  0  0  0  0  0  0  0  0
   48.3681    6.3778   22.6763 C   0  0  0  0  0  0  0  0  0  0  0  0
   47.6273    5.2816   23.4113 C   0  0  0  0  0  0  0  0  0  0  0  0
   47.1314    5.7465   22.0757 C   0  0  0  0  0  0  0  0  0  0  0  0
   48.3352   13.1366   18.2629 C   0  0  0  0  0  0  0  0  0  0  0  0
   49.7468   13.0528   17.7019 C   0  0  0  0  0  0  0  0  0  0  0  0
   50.6082   13.6974   18.3597 O   0  0  0  0  0  0  0  0  0  0  0  0
   49.8864   12.3447   16.6686 O   0  0  0  0  0  0  0  0  0  0  0  0
   50.1086    7.8607   20.0084 Mg  0  0  0  0  0 15  0  0  0  0  0  0
   46.4677   11.5943   21.0330 O   0  0  0  0  0  0  0  0  0  0  0  0
   47.4892   12.0623   20.1280 C   0  0  2  0  0  0  0  0  0  0  0  0
   48.6455   11.0546   20.1693 C   0  0  0  0  0  0  0  0  0  0  0  0
   48.2273    9.6671   19.6582 C   0  0  2  0  0  0  0  0  0  0  0  0
   47.2239    9.0888   20.4917 O   0  0  0  0  0  0  0  0  0  0  0  0
   49.4302    8.7589   19.6192 C   0  0  0  0  0  0  0  0  0  0  0  0
   49.6079    7.6545   20.3597 C   0  0  0  0  0  0  0  0  0  0  0  0
   50.8607    6.8800   20.3363 C   0  0  0  0  0  0  0  0  0  0  0  0
   51.9655    7.3246   21.0816 C   0  0  0  0  0  0  0  0  0  0  0  0
   53.1337    6.6298   21.0949 N   0  0  0  0  0  0  0  0  0  0  0  0
   53.2502    5.5016   20.3846 C   0  0  0  0  0  0  0  0  0  0  0  0
   54.4708    4.8394   20.4270 C   0  0  0  0  0  0  0  0  0  0  0  0
   54.6958    3.6514   19.7312 C   0  0  0  0  0  0  0  0  0  0  0  0
   53.6761    3.1096   18.9649 C   0  0  0  0  0  0  0  0  0  0  0  0
   52.4462    3.7637   18.8982 C   0  0  0  0  0  0  0  0  0  0  0  0
   52.2059    4.9713   19.6061 C   0  0  0  0  0  0  0  0  0  0  0  0
   50.9759    5.6893   19.5838 C   0  0  0  0  0  0  0  0  0  0  0  0
   49.8338    5.2021   18.7854 C   0  0  0  0  0  0  0  0  0  0  0  0
   48.8816    4.3366   19.3533 C   0  0  0  0  0  0  0  0  0  0  0  0
   47.8115    3.8647   18.5918 C   0  0  0  0  0  0  0  0  0  0  0  0
   47.6927    4.2559   17.2636 C   0  0  0  0  0  0  0  0  0  0  0  0
   46.6682    3.7989   16.5315 F   0  0  0  0  0  0  0  0  0  0  0  0
   48.6173    5.1159   16.6815 C   0  0  0  0  0  0  0  0  0  0  0  0
   49.6869    5.5919   17.4420 C   0  0  0  0  0  0  0  0  0  0  0  0
   51.9339    8.6147   21.8816 C   0  0  0  0  0  0  0  0  0  0  0  0
   51.1300    8.6930   23.1591 C   0  0  0  0  0  0  0  0  0  0  0  0
   52.6250    8.7093   23.2215 C   0  0  0  0  0  0  0  0  0  0  0  0
   47.9304   13.4556   20.5540 C   0  0  0  0  0  0  0  0  0  0  0  0
   48.7979   14.1622   19.5152 C   0  0  0  0  0  0  0  0  0  0  0  0
   49.4484   15.1476   19.9613 O   0  0  0  0  0  0  0  0  0  0  0  0
   48.7458   13.7028   18.3433 O   0  0  0  0  0  0  0  0  0  0  0  0
   46.4141   12.6044   19.5811 H   0  0  0  0  0  0  0  0  0  0  0  0
   47.6334   11.2599   17.4249 H   0  0  0  0  0  0  0  0  0  0  0  0
   49.5351   10.7537   19.0316 H   0  0  0  0  0  0  0  0  0  0  0  0
   48.4989   11.3165   20.3602 H   0  0  0  0  0  0  0  0  0  0  0  0
   47.7478    9.0015   18.4885 H   0  0  0  0  0  0  0  0  0  0  0  0
   46.1479   10.2825   19.6753 H   0  0  0  0  0  0  0  0  0  0  0  0
   48.9515    8.9746   21.3337 H   0  0  0  0  0  0  0  0  0  0  0  0
   49.0012    6.9834   18.9866 H   0  0  0  0  0  0  0  0  0  0  0  0
   52.2591    4.0256   24.2041 H   0  0  0  0  0  0  0  0  0  0  0  0
   54.5532    3.3895   23.5424 H   0  0  0  0  0  0  0  0  0  0  0  0
   55.4437    4.1062   21.3359 H   0  0  0  0  0  0  0  0  0  0  0  0
   54.0374    5.4339   19.8273 H   0  0  0  0  0  0  0  0  0  0  0  0
   52.2584    8.7307   19.5213 H   0  0  0  0  0  0  0  0  0  0  0  0
   52.9411    9.4131   17.2440 H   0  0  0  0  0  0  0  0  0  0  0  0
   52.2106    5.4474   15.7930 H   0  0  0  0  0  0  0  0  0  0  0  0
   51.5037    4.7331   18.0641 H   0  0  0  0  0  0  0  0  0  0  0  0
   48.2458    7.3767   23.0843 H   0  0  0  0  0  0  0  0  0  0  0  0
   48.0962    4.3061   23.4725 H   0  0  0  0  0  0  0  0  0  0  0  0
   47.0617    5.5621   24.2924 H   0  0  0  0  0  0  0  0  0  0  0  0
   46.2346    6.3556   22.0373 H   0  0  0  0  0  0  0  0  0  0  0  0
   47.2462    5.0850   21.2250 H   0  0  0  0  0  0  0  0  0  0  0  0
   48.3409   13.6507   19.2346 H   0  0  0  0  0  0  0  0  0  0  0  0
   47.7256   13.7547   17.5928 H   0  0  0  0  0  0  0  0  0  0  0  0
   45.8718   12.3516   21.1745 H   0  0  0  0  0  0  0  0  0  0  0  0
   47.0420   12.0788   19.1296 H   0  0  0  0  0  0  0  0  0  0  0  0
   49.4885   11.4254   19.5764 H   0  0  0  0  0  0  0  0  0  0  0  0
   48.9855   10.9575   21.2114 H   0  0  0  0  0  0  0  0  0  0  0  0
   47.8136    9.7443   18.6484 H   0  0  0  0  0  0  0  0  0  0  0  0
   46.7150    9.8475   20.8519 H   0  0  0  0  0  0  0  0  0  0  0  0
   50.2170    9.0822   18.9398 H   0  0  0  0  0  0  0  0  0  0  0  0
   48.8402    7.3122   21.0448 H   0  0  0  0  0  0  0  0  0  0  0  0
   55.2720    5.2699   21.0251 H   0  0  0  0  0  0  0  0  0  0  0  0
   55.6644    3.1632   19.7956 H   0  0  0  0  0  0  0  0  0  0  0  0
   53.8346    2.1862   18.4176 H   0  0  0  0  0  0  0  0  0  0  0  0
   51.6650    3.3268   18.2793 H   0  0  0  0  0  0  0  0  0  0  0  0
   48.9731    4.0368   20.3951 H   0  0  0  0  0  0  0  0  0  0  0  0
   47.0702    3.2046   19.0287 H   0  0  0  0  0  0  0  0  0  0  0  0
   48.4937    5.4199   15.6481 H   0  0  0  0  0  0  0  0  0  0  0  0
   50.4037    6.2754   16.9903 H   0  0  0  0  0  0  0  0  0  0  0  0
   51.9606    9.5178   21.2759 H   0  0  0  0  0  0  0  0  0  0  0  0
   50.5925    9.6169   23.3394 H   0  0  0  0  0  0  0  0  0  0  0  0
   50.6232    7.8065   23.5193 H   0  0  0  0  0  0  0  0  0  0  0  0
   53.1120    9.6432   23.4734 H   0  0  0  0  0  0  0  0  0  0  0  0
   53.1341    7.8272   23.5923 H   0  0  0  0  0  0  0  0  0  0  0  0
   48.4636   13.4035   21.5097 H   0  0  0  0  0  0  0  0  0  0  0  0
   47.0540   14.0897   20.7340 H   0  0  0  0  0  0  0  0  0  0  0  0
  2  1  1  0
  2  3  1  0
  3  4  1  0
  4  5  1  0
  4  6  1  0
  6  7  2  0
  7  8  1  0
  8  9  2  0
  9 10  1  0
 10 11  2  0
 11 12  1  0
 12 13  2  0
 13 14  1  0
 14 15  2  0
 15 16  1  0
 11 16  1  0
 16 17  2  0
  8 17  1  0
 17 18  1  0
 18 19  2  0
 19 20  1  0
 20 21  2  0
 21 22  1  0
 21 23  1  0
 23 24  2  0
 18 24  1  0
  9 25  1  0
 25 26  1  0
 26 27  1  0
 25 27  1  0
  2 28  1  0
 28 29  1  0
 29 30  2  0
 29 31  1  0
 34 33  1  0
 34 35  1  0
 35 36  1  0
 36 37  1  0
 36 38  1  0
 38 39  2  0
 39 40  1  0
 40 41  2  0
 41 42  1  0
 42 43  2  0
 43 44  1  0
 44 45  2  0
 45 46  1  0
 46 47  2  0
 47 48  1  0
 43 48  1  0
 48 49  2  0
 40 49  1  0
 49 50  1  0
 50 51  2  0
 51 52  1  0
 52 53  2  0
 53 54  1  0
 53 55  1  0
 55 56  2  0
 50 56  1  0
 41 57  1  0
 57 58  1  0
 58 59  1  0
 57 59  1  0
 34 60  1  0
 60 61  1  0
 61 62  2  0
 61 63  1  0
  1 64  1  0
  2 65  1  1
  3 66  1  0
  3 67  1  0
  4 68  1  1
  5 69  1  0
  6 70  1  0
  7 71  1  0
 12 72  1  0
 13 73  1  0
 14 74  1  0
 15 75  1  0
 19 76  1  0
 20 77  1  0
 23 78  1  0
 24 79  1  0
 25 80  1  0
 26 81  1  0
 26 82  1  0
 27 83  1  0
 27 84  1  0
 28 85  1  0
 28 86  1  0
 33 87  1  0
 34 88  1  1
 35 89  1  0
 35 90  1  0
 36 91  1  1
 37 92  1  0
 38 93  1  0
 39 94  1  0
 44 95  1  0
 45 96  1  0
 46 97  1  0
 47 98  1  0
 51 99  1  0
 52100  1  0
 55101  1  0
 56102  1  0
 57103  1  0
 58104  1  0
 58105  1  0
 59106  1  0
 59107  1  0
 60108  1  0
 60109  1  0
M  CHG  3  31  -1  32   2  63  -1
M  END
> <Uni-Dock RESULT> 
ENERGY=   -6.170  LOWER_BOUND=    0.000  UPPER_BOUND=    0.000
INTER + INTRA:          -6.170
INTER:                  -6.170
INTRA:                   0.000
UNBOUND:                 0.000

$$$$

     RDKit          3D

109114  0  0  0  0  0  0  0  0999 V2000
   45.9964   10.2951   20.5821 O   0  0  0  0  0  0  0  0  0  0  0  0
   46.7259   11.2277   19.7574 C   0  0  2  0  0  0  0  0  0  0  0  0
   48.0313   10.5530   19.3098 C   0  0  0  0  0  0  0  0  0  0  0  0
   47.7773    9.2851   18.4813 C   0  0  2  0  0  0  0  0  0  0  0  0
   47.1678    8.2706   19.2787 O   0  0  0  0  0  0  0  0  0  0  0  0
   49.0732    8.7167   17.9841 C   0  0  0  0  0  0  0  0  0  0  0  0
   49.3431    8.4702   16.6922 C   0  0  0  0  0  0  0  0  0  0  0  0
   50.6614    8.0046   16.2117 C   0  0  0  0  0  0  0  0  0  0  0  0
   51.2133    6.7850   16.6453 C   0  0  0  0  0  0  0  0  0  0  0  0
   52.4316    6.3676   16.2062 N   0  0  0  0  0  0  0  0  0  0  0  0
   53.1261    7.1146   15.3389 C   0  0  0  0  0  0  0  0  0  0  0  0
   54.3642    6.6407   14.9310 C   0  0  0  0  0  0  0  0  0  0  0  0
   55.1679    7.3410   14.0305 C   0  0  0  0  0  0  0  0  0  0  0  0
   54.7286    8.5526   13.5233 C   0  0  0  0  0  0  0  0  0  0  0  0
   53.4879    9.0476   13.9179 C   0  0  0  0  0  0  0  0  0  0  0  0
   52.6590    8.3387   14.8282 C   0  0  0  0  0  0  0  0  0  0  0  0
   51.3830    8.7866   15.2705 C   0  0  0  0  0  0  0  0  0  0  0  0
   50.8126   10.0493   14.7453 C   0  0  0  0  0  0  0  0  0  0  0  0
   50.8280   11.2290   15.5101 C   0  0  0  0  0  0  0  0  0  0  0  0
   50.2778   12.4107   15.0063 C   0  0  0  0  0  0  0  0  0  0  0  0
   49.7165   12.4199   13.7347 C   0  0  0  0  0  0  0  0  0  0  0  0
   49.1940   13.5515   13.2448 F   0  0  0  0  0  0  0  0  0  0  0  0
   49.6819   11.2667   12.9606 C   0  0  0  0  0  0  0  0  0  0  0  0
   50.2266   10.0853   13.4652 C   0  0  0  0  0  0  0  0  0  0  0  0
   50.5038    5.8635   17.6248 C   0  0  0  0  0  0  0  0  0  0  0  0
   50.5159    4.3666   17.4020 C   0  0  0  0  0  0  0  0  0  0  0  0
   49.2428    5.1348   17.2155 C   0  0  0  0  0  0  0  0  0  0  0  0
   46.9656   12.4973   20.5631 C   0  0  0  0  0  0  0  0  0  0  0  0
   47.7067   13.5389   19.7383 C   0  0  0  0  0  0  0  0  0  0  0  0
   48.7138   14.0372   20.3108 O   0  0  0  0  0  0  0  0  0  0  0  0
   47.2398   13.7640   18.5894 O   0  0  0  0  0  0  0  0  0  0  0  0
   50.0006    9.2403   16.7940 Mg  0  0  0  0  0 15  0  0  0  0  0  0
   47.4420    8.9566   21.4435 O   0  0  0  0  0  0  0  0  0  0  0  0
   47.6066   10.3175   20.9936 C   0  0  2  0  0  0  0  0  0  0  0  0
   48.6309   10.3098   19.8513 C   0  0  0  0  0  0  0  0  0  0  0  0
   48.1376    9.5152   18.6320 C   0  0  2  0  0  0  0  0  0  0  0  0
   47.9539    8.1369   18.9518 O   0  0  0  0  0  0  0  0  0  0  0  0
   49.1365    9.6399   17.5095 C   0  0  0  0  0  0  0  0  0  0  0  0
   49.8593    8.6396   16.9834 C   0  0  0  0  0  0  0  0  0  0  0  0
   50.8918    8.8651   15.9572 C   0  0  0  0  0  0  0  0  0  0  0  0
   52.1627    9.3247   16.3408 C   0  0  0  0  0  0  0  0  0  0  0  0
   53.1447    9.5319   15.4241 N   0  0  0  0  0  0  0  0  0  0  0  0
   52.9090    9.3034   14.1267 C   0  0  0  0  0  0  0  0  0  0  0  0
   53.9460    9.5431   13.2338 C   0  0  0  0  0  0  0  0  0  0  0  0
   53.8094    9.3292   11.8621 C   0  0  0  0  0  0  0  0  0  0  0  0
   52.6012    8.8685   11.3636 C   0  0  0  0  0  0  0  0  0  0  0  0
   51.5425    8.6324   12.2403 C   0  0  0  0  0  0  0  0  0  0  0  0
   51.6729    8.8432   13.6388 C   0  0  0  0  0  0  0  0  0  0  0  0
   50.6353    8.6213   14.5891 C   0  0  0  0  0  0  0  0  0  0  0  0
   49.3068    8.1449   14.1561 C   0  0  0  0  0  0  0  0  0  0  0  0
   49.0261    6.7681   14.0935 C   0  0  0  0  0  0  0  0  0  0  0  0
   47.7746    6.3200   13.6686 C   0  0  0  0  0  0  0  0  0  0  0  0
   46.8040    7.2459   13.3055 C   0  0  0  0  0  0  0  0  0  0  0  0
   45.6044    6.8153   12.8930 F   0  0  0  0  0  0  0  0  0  0  0  0
   47.0551    8.6122   13.3653 C   0  0  0  0  0  0  0  0  0  0  0  0
   48.3052    9.0632   13.7930 C   0  0  0  0  0  0  0  0  0  0  0  0
   52.5027    9.6489   17.7847 C   0  0  0  0  0  0  0  0  0  0  0  0
   52.6810    8.5332   18.7886 C   0  0  0  0  0  0  0  0  0  0  0  0
   53.8681    9.3298   18.3467 C   0  0  0  0  0  0  0  0  0  0  0  0
   48.0633   11.1763   22.1645 C   0  0  0  0  0  0  0  0  0  0  0  0
   47.9994   12.6749   21.8800 C   0  0  0  0  0  0  0  0  0  0  0  0
   48.6739   13.3866   22.6749 O   0  0  0  0  0  0  0  0  0  0  0  0
   47.2707   13.0260   20.9141 O   0  0  0  0  0  0  0  0  0  0  0  0
   46.3766   10.3690   21.4766 H   0  0  0  0  0  0  0  0  0  0  0  0
   46.1013   11.4307   18.8804 H   0  0  0  0  0  0  0  0  0  0  0  0
   48.6308   11.2568   18.7201 H   0  0  0  0  0  0  0  0  0  0  0  0
   48.6101   10.2825   20.2053 H   0  0  0  0  0  0  0  0  0  0  0  0
   47.1041    9.5033   17.6458 H   0  0  0  0  0  0  0  0  0  0  0  0
   46.4828    8.7411   19.8003 H   0  0  0  0  0  0  0  0  0  0  0  0
   49.8252    8.5404   18.7472 H   0  0  0  0  0  0  0  0  0  0  0  0
   48.6003    8.6693   15.9260 H   0  0  0  0  0  0  0  0  0  0  0  0
   54.7133    5.6920   15.3318 H   0  0  0  0  0  0  0  0  0  0  0  0
   56.1293    6.9358   13.7340 H   0  0  0  0  0  0  0  0  0  0  0  0
   55.3462    9.1132   12.8279 H   0  0  0  0  0  0  0  0  0  0  0  0
   53.1705   10.0095   13.5202 H   0  0  0  0  0  0  0  0  0  0  0  0
   51.2526   11.2325   16.5123 H   0  0  0  0  0  0  0  0  0  0  0  0
   50.2688   13.3146   15.6096 H   0  0  0  0  0  0  0  0  0  0  0  0
   49.2225   11.2935   11.9783 H   0  0  0  0  0  0  0  0  0  0  0  0
   50.1872    9.1820   12.8607 H   0  0  0  0  0  0  0  0  0  0  0  0
   50.5586    6.1802   18.6621 H   0  0  0  0  0  0  0  0  0  0  0  0
   51.0208    3.9897   16.5198 H   0  0  0  0  0  0  0  0  0  0  0  0
   50.6058    3.7302   18.2749 H   0  0  0  0  0  0  0  0  0  0  0  0
   48.4630    5.0382   17.9635 H   0  0  0  0  0  0  0  0  0  0  0  0
   48.8668    5.2717   16.2084 H   0  0  0  0  0  0  0  0  0  0  0  0
   47.5265   12.2676   21.4803 H   0  0  0  0  0  0  0  0  0  0  0  0
   46.0077   12.9213   20.8879 H   0  0  0  0  0  0  0  0  0  0  0  0
   46.9908    9.0149   22.3048 H   0  0  0  0  0  0  0  0  0  0  0  0
   46.6319   10.6460   20.6207 H   0  0  0  0  0  0  0  0  0  0  0  0
   48.8654   11.3365   19.5500 H   0  0  0  0  0  0  0  0  0  0  0  0
   49.5595    9.8480   20.2195 H   0  0  0  0  0  0  0  0  0  0  0  0
   47.1750    9.9060   18.2896 H   0  0  0  0  0  0  0  0  0  0  0  0
   47.7073    8.1203   19.9022 H   0  0  0  0  0  0  0  0  0  0  0  0
   49.2784   10.6552   17.1433 H   0  0  0  0  0  0  0  0  0  0  0  0
   49.7377    7.6199   17.3316 H   0  0  0  0  0  0  0  0  0  0  0  0
   54.8923    9.9103   13.6271 H   0  0  0  0  0  0  0  0  0  0  0  0
   54.6477    9.5250   11.1990 H   0  0  0  0  0  0  0  0  0  0  0  0
   52.4782    8.6968   10.2993 H   0  0  0  0  0  0  0  0  0  0  0  0
   50.5992    8.2839   11.8245 H   0  0  0  0  0  0  0  0  0  0  0  0
   49.7854    6.0452   14.3843 H   0  0  0  0  0  0  0  0  0  0  0  0
   47.5514    5.2595   13.6277 H   0  0  0  0  0  0  0  0  0  0  0  0
   46.2760    9.3153   13.0926 H   0  0  0  0  0  0  0  0  0  0  0  0
   48.4977   10.1330   13.8522 H   0  0  0  0  0  0  0  0  0  0  0  0
   52.0438   10.5614   18.1587 H   0  0  0  0  0  0  0  0  0  0  0  0
   52.2811    8.7042   19.7815 H   0  0  0  0  0  0  0  0  0  0  0  0
   52.6142    7.5056   18.4535 H   0  0  0  0  0  0  0  0  0  0  0  0
   54.3002   10.0296   19.0512 H   0  0  0  0  0  0  0  0  0  0  0  0
   54.5888    8.8574   17.6892 H   0  0  0  0  0  0  0  0  0  0  0  0
   49.0811   10.8973   22.4589 H   0  0  0  0  0  0  0  0  0  0  0  0
   47.4341   10.9829   23.0417 H   0  0  0  0  0  0  0  0  0  0  0  0
  2  1  1  0
  2  3  1  0
  3  4  1  0
  4  5  1  0
  4  6  1  0
  6  7  2  0
  7  8  1  0
  8  9  2  0
  9 10  1  0
 10 11  2  0
 11 12  1  0
 12 13  2  0
 13 14  1  0
 14 15  2  0
 15 16  1  0
 11 16  1  0
 16 17  2  0
  8 17  1  0
 17 18  1  0
 18 19  2  0
 19 20  1  0
 20 21  2  0
 21 22  1  0
 21 23  1  0
 23 24  2  0
 18 24  1  0
  9 25  1  0
 25 26  1  0
 26 27  1  0
 25 27  1  0
  2 28  1  0
 28 29  1  0
 29 30  2  0
 29 31  1  0
 34 33  1  0
 34 35  1  0
 35 36  1  0
 36 37  1  0
 36 38  1  0
 38 39  2  0
 39 40  1  0
 40 41  2  0
 41 42  1  0
 42 43  2  0
 43 44  1  0
 44 45  2  0
 45 46  1  0
 46 47  2  0
 47 48  1  0
 43 48  1  0
 48 49  2  0
 40 49  1  0
 49 50  1  0
 50 51  2  0
 51 52  1  0
 52 53  2  0
 53 54  1  0
 53 55  1  0
 55 56  2  0
 50 56  1  0
 41 57  1  0
 57 58  1  0
 58 59  1  0
 57 59  1  0
 34 60  1  0
 60 61  1  0
 61 62  2  0
 61 63  1  0
  1 64  1  0
  2 65  1  1
  3 66  1  0
  3 67  1  0
  4 68  1  1
  5 69  1  0
  6 70  1  0
  7 71  1  0
 12 72  1  0
 13 73  1  0
 14 74  1  0
 15 75  1  0
 19 76  1  0
 20 77  1  0
 23 78  1  0
 24 79  1  0
 25 80  1  0
 26 81  1  0
 26 82  1  0
 27 83  1  0
 27 84  1  0
 28 85  1  0
 28 86  1  0
 33 87  1  0
 34 88  1  1
 35 89  1  0
 35 90  1  0
 36 91  1  1
 37 92  1  0
 38 93  1  0
 39 94  1  0
 44 95  1  0
 45 96  1  0
 46 97  1  0
 47 98  1  0
 51 99  1  0
 52100  1  0
 55101  1  0
 56102  1  0
 57103  1  0
 58104  1  0
 58105  1  0
 59106  1  0
 59107  1  0
 60108  1  0
 60109  1  0
M  CHG  3  31  -1  32   2  63  -1
M  END
> <Uni-Dock RESULT> 
ENERGY=   -5.818  LOWER_BOUND=    3.289  UPPER_BOUND=    5.475
INTER + INTRA:          -5.818
INTER:                  -5.818
INTRA:                   0.000
UNBOUND:                 0.000

$$$$

     RDKit          3D

109114  0  0  0  0  0  0  0  0999 V2000
   55.3866    7.0761   14.1428 O   0  0  0  0  0  0  0  0  0  0  0  0
   55.4494    7.0102   15.5828 C   0  0  2  0  0  0  0  0  0  0  0  0
   54.2292    7.7506   16.1506 C   0  0  0  0  0  0  0  0  0  0  0  0
   52.9036    7.1168   15.7041 C   0  0  2  0  0  0  0  0  0  0  0  0
   52.7198    7.2615   14.2964 O   0  0  0  0  0  0  0  0  0  0  0  0
   51.7456    7.8092   16.3596 C   0  0  0  0  0  0  0  0  0  0  0  0
   50.8072    7.1847   17.0889 C   0  0  0  0  0  0  0  0  0  0  0  0
   49.7308    7.8968   17.8099 C   0  0  0  0  0  0  0  0  0  0  0  0
   48.7905    8.6917   17.1289 C   0  0  0  0  0  0  0  0  0  0  0  0
   47.8085    9.3520   17.8002 N   0  0  0  0  0  0  0  0  0  0  0  0
   47.7159    9.2465   19.1317 C   0  0  0  0  0  0  0  0  0  0  0  0
   46.6979    9.9466   19.7621 C   0  0  0  0  0  0  0  0  0  0  0  0
   46.5132    9.9049   21.1447 C   0  0  0  0  0  0  0  0  0  0  0  0
   47.3704    9.1471   21.9251 C   0  0  0  0  0  0  0  0  0  0  0  0
   48.3993    8.4346   21.3136 C   0  0  0  0  0  0  0  0  0  0  0  0
   48.5910    8.4644   19.9063 C   0  0  0  0  0  0  0  0  0  0  0  0
   49.6192    7.7605   19.2195 C   0  0  0  0  0  0  0  0  0  0  0  0
   50.5542    6.8883   19.9683 C   0  0  0  0  0  0  0  0  0  0  0  0
   51.8631    7.3080   20.2642 C   0  0  0  0  0  0  0  0  0  0  0  0
   52.7377    6.4714   20.9628 C   0  0  0  0  0  0  0  0  0  0  0  0
   52.3061    5.2157   21.3740 C   0  0  0  0  0  0  0  0  0  0  0  0
   53.1384    4.4129   22.0496 F   0  0  0  0  0  0  0  0  0  0  0  0
   51.0204    4.7732   21.0888 C   0  0  0  0  0  0  0  0  0  0  0  0
   50.1483    5.6062   20.3868 C   0  0  0  0  0  0  0  0  0  0  0  0
   48.8070    8.8733   15.6193 C   0  0  0  0  0  0  0  0  0  0  0  0
   47.5101    8.8544   14.8393 C   0  0  0  0  0  0  0  0  0  0  0  0
   48.4745    7.7153   14.7043 C   0  0  0  0  0  0  0  0  0  0  0  0
   56.7701    7.6182   16.0353 C   0  0  0  0  0  0  0  0  0  0  0  0
   56.9147    7.5522   17.5483 C   0  0  0  0  0  0  0  0  0  0  0  0
   57.2376    8.6446   18.0892 O   0  0  0  0  0  0  0  0  0  0  0  0
   56.6815    6.4308   18.0743 O   0  0  0  0  0  0  0  0  0  0  0  0
   51.2323    7.6846   17.8668 Mg  0  0  0  0  0 15  0  0  0  0  0  0
   54.2499    8.8321   13.6450 O   0  0  0  0  0  0  0  0  0  0  0  0
   55.0391    8.5536   14.8201 C   0  0  2  0  0  0  0  0  0  0  0  0
   54.0963    8.5751   16.0304 C   0  0  0  0  0  0  0  0  0  0  0  0
   53.0328    7.4681   15.9599 C   0  0  2  0  0  0  0  0  0  0  0  0
   52.1712    7.6482   14.8369 O   0  0  0  0  0  0  0  0  0  0  0  0
   52.2133    7.4729   17.2254 C   0  0  0  0  0  0  0  0  0  0  0  0
   50.9037    7.7500   17.3150 C   0  0  0  0  0  0  0  0  0  0  0  0
   50.2001    7.8353   18.6063 C   0  0  0  0  0  0  0  0  0  0  0  0
   50.3040    9.0052   19.3772 C   0  0  0  0  0  0  0  0  0  0  0  0
   49.6589    9.1258   20.5676 N   0  0  0  0  0  0  0  0  0  0  0  0
   48.9112    8.1164   21.0295 C   0  0  0  0  0  0  0  0  0  0  0  0
   48.2842    8.2914   22.2568 C   0  0  0  0  0  0  0  0  0  0  0  0
   47.4756    7.3066   22.8248 C   0  0  0  0  0  0  0  0  0  0  0  0
   47.2910    6.1087   22.1530 C   0  0  0  0  0  0  0  0  0  0  0  0
   47.9205    5.9066   20.9250 C   0  0  0  0  0  0  0  0  0  0  0  0
   48.7422    6.9044   20.3365 C   0  0  0  0  0  0  0  0  0  0  0  0
   49.4123    6.7652   19.0874 C   0  0  0  0  0  0  0  0  0  0  0  0
   49.2909    5.5210   18.3021 C   0  0  0  0  0  0  0  0  0  0  0  0
   48.2731    5.3777   17.3421 C   0  0  0  0  0  0  0  0  0  0  0  0
   48.1507    4.1944   16.6122 C   0  0  0  0  0  0  0  0  0  0  0  0
   49.0435    3.1544   16.8415 C   0  0  0  0  0  0  0  0  0  0  0  0
   48.9227    2.0169   16.1444 F   0  0  0  0  0  0  0  0  0  0  0  0
   50.0620    3.2745   17.7804 C   0  0  0  0  0  0  0  0  0  0  0  0
   50.1886    4.4583   18.5095 C   0  0  0  0  0  0  0  0  0  0  0  0
   51.1635   10.1812   18.9488 C   0  0  0  0  0  0  0  0  0  0  0  0
   50.7239   11.0610   17.8012 C   0  0  0  0  0  0  0  0  0  0  0  0
   50.7091   11.6004   19.1969 C   0  0  0  0  0  0  0  0  0  0  0  0
   56.1420    9.5963   14.9367 C   0  0  0  0  0  0  0  0  0  0  0  0
   57.2040    9.2437   15.9754 C   0  0  0  0  0  0  0  0  0  0  0  0
   57.9248   10.2152   16.3358 O   0  0  0  0  0  0  0  0  0  0  0  0
   57.2549    8.0357   16.3292 O   0  0  0  0  0  0  0  0  0  0  0  0
   55.7587    7.9421   13.8944 H   0  0  0  0  0  0  0  0  0  0  0  0
   55.3912    5.9502   15.8541 H   0  0  0  0  0  0  0  0  0  0  0  0
   54.2757    7.7590   17.2462 H   0  0  0  0  0  0  0  0  0  0  0  0
   54.2597    8.7936   15.8023 H   0  0  0  0  0  0  0  0  0  0  0  0
   52.8954    6.0463   15.9342 H   0  0  0  0  0  0  0  0  0  0  0  0
   53.5958    7.0517   13.9075 H   0  0  0  0  0  0  0  0  0  0  0  0
   51.7226    8.8882   16.2398 H   0  0  0  0  0  0  0  0  0  0  0  0
   50.8435    6.1089   17.2294 H   0  0  0  0  0  0  0  0  0  0  0  0
   46.0268   10.5462   19.1518 H   0  0  0  0  0  0  0  0  0  0  0  0
   45.7034   10.4648   21.6001 H   0  0  0  0  0  0  0  0  0  0  0  0
   47.2443    9.1110   23.0032 H   0  0  0  0  0  0  0  0  0  0  0  0
   49.0710    7.8597   21.9479 H   0  0  0  0  0  0  0  0  0  0  0  0
   52.2180    8.2835   19.9369 H   0  0  0  0  0  0  0  0  0  0  0  0
   53.7566    6.7887   21.1682 H   0  0  0  0  0  0  0  0  0  0  0  0
   50.7117    3.7823   21.4040 H   0  0  0  0  0  0  0  0  0  0  0  0
   49.1465    5.2517   20.1556 H   0  0  0  0  0  0  0  0  0  0  0  0
   49.5578    9.5693   15.2572 H   0  0  0  0  0  0  0  0  0  0  0  0
   46.5909    8.6852   15.3885 H   0  0  0  0  0  0  0  0  0  0  0  0
   47.4143    9.5441   14.0086 H   0  0  0  0  0  0  0  0  0  0  0  0
   49.0504    7.6273   13.7893 H   0  0  0  0  0  0  0  0  0  0  0  0
   48.2105    6.7620   15.1471 H   0  0  0  0  0  0  0  0  0  0  0  0
   56.8501    8.6587   15.6896 H   0  0  0  0  0  0  0  0  0  0  0  0
   57.6076    7.0780   15.5773 H   0  0  0  0  0  0  0  0  0  0  0  0
   54.8881    9.0530   12.9432 H   0  0  0  0  0  0  0  0  0  0  0  0
   55.4571    7.5511   14.6885 H   0  0  0  0  0  0  0  0  0  0  0  0
   54.6716    8.4728   16.9568 H   0  0  0  0  0  0  0  0  0  0  0  0
   53.5872    9.5503   16.0578 H   0  0  0  0  0  0  0  0  0  0  0  0
   53.5110    6.4897   15.8557 H   0  0  0  0  0  0  0  0  0  0  0  0
   52.7226    8.0872   14.1530 H   0  0  0  0  0  0  0  0  0  0  0  0
   52.7801    7.2595   18.1301 H   0  0  0  0  0  0  0  0  0  0  0  0
   50.3173    7.9671   16.4291 H   0  0  0  0  0  0  0  0  0  0  0  0
   48.4352    9.2310   22.7853 H   0  0  0  0  0  0  0  0  0  0  0  0
   46.9998    7.4864   23.7850 H   0  0  0  0  0  0  0  0  0  0  0  0
   46.6652    5.3324   22.5808 H   0  0  0  0  0  0  0  0  0  0  0  0
   47.7719    4.9528   20.4224 H   0  0  0  0  0  0  0  0  0  0  0  0
   47.5793    6.1956   17.1597 H   0  0  0  0  0  0  0  0  0  0  0  0
   47.3729    4.0836   15.8646 H   0  0  0  0  0  0  0  0  0  0  0  0
   50.7564    2.4551   17.9293 H   0  0  0  0  0  0  0  0  0  0  0  0
   50.9938    4.5574   19.2353 H   0  0  0  0  0  0  0  0  0  0  0  0
   52.2338   10.0097   19.0386 H   0  0  0  0  0  0  0  0  0  0  0  0
   51.4989   11.3979   17.1224 H   0  0  0  0  0  0  0  0  0  0  0  0
   49.7689   10.8723   17.3268 H   0  0  0  0  0  0  0  0  0  0  0  0
   51.4612   12.3315   19.4662 H   0  0  0  0  0  0  0  0  0  0  0  0
   49.7507   11.7481   19.6812 H   0  0  0  0  0  0  0  0  0  0  0  0
   55.7083   10.5759   15.1669 H   0  0  0  0  0  0  0  0  0  0  0  0
   56.6529    9.7137   13.9735 H   0  0  0  0  0  0  0  0  0  0  0  0
  2  1  1  0
  2  3  1  0
  3  4  1  0
  4  5  1  0
  4  6  1  0
  6  7  2  0
  7  8  1  0
  8  9  2  0
  9 10  1  0
 10 11  2  0
 11 12  1  0
 12 13  2  0
 13 14  1  0
 14 15  2  0
 15 16  1  0
 11 16  1  0
 16 17  2  0
  8 17  1  0
 17 18  1  0
 18 19  2  0
 19 20  1  0
 20 21  2  0
 21 22  1  0
 21 23  1  0
 23 24  2  0
 18 24  1  0
  9 25  1  0
 25 26  1  0
 26 27  1  0
 25 27  1  0
  2 28  1  0
 28 29  1  0
 29 30  2  0
 29 31  1  0
 34 33  1  0
 34 35  1  0
 35 36  1  0
 36 37  1  0
 36 38  1  0
 38 39  2  0
 39 40  1  0
 40 41  2  0
 41 42  1  0
 42 43  2  0
 43 44  1  0
 44 45  2  0
 45 46  1  0
 46 47  2  0
 47 48  1  0
 43 48  1  0
 48 49  2  0
 40 49  1  0
 49 50  1  0
 50 51  2  0
 51 52  1  0
 52 53  2  0
 53 54  1  0
 53 55  1  0
 55 56  2  0
 50 56  1  0
 41 57  1  0
 57 58  1  0
 58 59  1  0
 57 59  1  0
 34 60  1  0
 60 61  1  0
 61 62  2  0
 61 63  1  0
  1 64  1  0
  2 65  1  1
  3 66  1  0
  3 67  1  0
  4 68  1  1
  5 69  1  0
  6 70  1  0
  7 71  1  0
 12 72  1  0
 13 73  1  0
 14 74  1  0
 15 75  1  0
 19 76  1  0
 20 77  1  0
 23 78  1  0
 24 79  1  0
 25 80  1  0
 26 81  1  0
 26 82  1  0
 27 83  1  0
 27 84  1  0
 28 85  1  0
 28 86  1  0
 33 87  1  0
 34 88  1  1
 35 89  1  0
 35 90  1  0
 36 91  1  1
 37 92  1  0
 38 93  1  0
 39 94  1  0
 44 95  1  0
 45 96  1  0
 46 97  1  0
 47 98  1  0
 51 99  1  0
 52100  1  0
 55101  1  0
 56102  1  0
 57103  1  0
 58104  1  0
 58105  1  0
 59106  1  0
 59107  1  0
 60108  1  0
 60109  1  0
M  CHG  3  31  -1  32   2  63  -1
M  END
> <Uni-Dock RESULT> 
ENERGY=   -5.259  LOWER_BOUND=    3.640  UPPER_BOUND=    6.680
INTER + INTRA:          -5.259
INTER:                  -5.259
INTRA:                   0.000
UNBOUND:                 0.000

$$$$

     RDKit          3D

109114  0  0  0  0  0  0  0  0999 V2000
   52.7584   10.8206   22.9910 O   0  0  0  0  0  0  0  0  0  0  0  0
   51.4410   10.3119   22.6952 C   0  0  2  0  0  0  0  0  0  0  0  0
   51.0906   10.6988   21.2505 C   0  0  0  0  0  0  0  0  0  0  0  0
   52.0708   10.0978   20.2325 C   0  0  2  0  0  0  0  0  0  0  0  0
   53.3740   10.6574   20.3902 O   0  0  0  0  0  0  0  0  0  0  0  0
   51.6344   10.4186   18.8337 C   0  0  0  0  0  0  0  0  0  0  0  0
   51.4203    9.4982   17.8799 C   0  0  0  0  0  0  0  0  0  0  0  0
   50.8941    9.8258   16.5378 C   0  0  0  0  0  0  0  0  0  0  0  0
   51.5859   10.6876   15.6668 C   0  0  0  0  0  0  0  0  0  0  0  0
   51.0905   10.9922   14.4369 N   0  0  0  0  0  0  0  0  0  0  0  0
   49.9299   10.4635   14.0293 C   0  0  0  0  0  0  0  0  0  0  0  0
   49.4721   10.8146   12.7680 C   0  0  0  0  0  0  0  0  0  0  0  0
   48.2755   10.3199   12.2477 C   0  0  0  0  0  0  0  0  0  0  0  0
   47.5079    9.4527   13.0073 C   0  0  0  0  0  0  0  0  0  0  0  0
   47.9485    9.0852   14.2765 C   0  0  0  0  0  0  0  0  0  0  0  0
   49.1689    9.5772   14.8121 C   0  0  0  0  0  0  0  0  0  0  0  0
   49.6762    9.2413   16.0983 C   0  0  0  0  0  0  0  0  0  0  0  0
   48.9449    8.2847   16.9618 C   0  0  0  0  0  0  0  0  0  0  0  0
   48.1653    8.7294   18.0441 C   0  0  0  0  0  0  0  0  0  0  0  0
   47.4886    7.8156   18.8565 C   0  0  0  0  0  0  0  0  0  0  0  0
   47.5827    6.4552   18.5868 C   0  0  0  0  0  0  0  0  0  0  0  0
   46.9307    5.5760   19.3583 F   0  0  0  0  0  0  0  0  0  0  0  0
   48.3517    5.9883   17.5281 C   0  0  0  0  0  0  0  0  0  0  0  0
   49.0317    6.9000   16.7197 C   0  0  0  0  0  0  0  0  0  0  0  0
   52.9116   11.3359   16.0331 C   0  0  0  0  0  0  0  0  0  0  0  0
   54.0217   11.4228   15.0080 C   0  0  0  0  0  0  0  0  0  0  0  0
   54.1616   10.4959   16.1772 C   0  0  0  0  0  0  0  0  0  0  0  0
   50.4638   10.8862   23.7120 C   0  0  0  0  0  0  0  0  0  0  0  0
   49.0549   10.3633   23.4750 C   0  0  0  0  0  0  0  0  0  0  0  0
   48.1675   11.2582   23.4300 O   0  0  0  0  0  0  0  0  0  0  0  0
   48.9478    9.1150   23.3377 O   0  0  0  0  0  0  0  0  0  0  0  0
   50.4456    9.7709   17.9865 Mg  0  0  0  0  0 15  0  0  0  0  0  0
   53.0822   12.5097   21.7004 O   0  0  0  0  0  0  0  0  0  0  0  0
   51.8448   11.9628   22.2015 C   0  0  2  0  0  0  0  0  0  0  0  0
   51.0177   11.4996   20.9950 C   0  0  0  0  0  0  0  0  0  0  0  0
   51.7029   10.3626   20.2212 C   0  0  2  0  0  0  0  0  0  0  0  0
   52.9411   10.7924   19.6573 O   0  0  0  0  0  0  0  0  0  0  0  0
   50.7925    9.8797   19.1206 C   0  0  0  0  0  0  0  0  0  0  0  0
   51.0316    9.9705   17.8036 C   0  0  0  0  0  0  0  0  0  0  0  0
   50.0409    9.5680   16.7906 C   0  0  0  0  0  0  0  0  0  0  0  0
   48.9885   10.4397   16.4644 C   0  0  0  0  0  0  0  0  0  0  0  0
   48.0628   10.1086   15.5257 N   0  0  0  0  0  0  0  0  0  0  0  0
   48.1395    8.9303   14.8959 C   0  0  0  0  0  0  0  0  0  0  0  0
   47.1598    8.6407   13.9542 C   0  0  0  0  0  0  0  0  0  0  0  0
   47.1513    7.4456   13.2347 C   0  0  0  0  0  0  0  0  0  0  0  0
   48.1451    6.5074   13.4646 C   0  0  0  0  0  0  0  0  0  0  0  0
   49.1320    6.7718   14.4139 C   0  0  0  0  0  0  0  0  0  0  0  0
   49.1517    7.9872   15.1486 C   0  0  0  0  0  0  0  0  0  0  0  0
   50.1286    8.3220   16.1296 C   0  0  0  0  0  0  0  0  0  0  0  0
   51.2195    7.3829   16.4573 C   0  0  0  0  0  0  0  0  0  0  0  0
   52.4434    7.4395   15.7667 C   0  0  0  0  0  0  0  0  0  0  0  0
   53.4675    6.5403   16.0674 C   0  0  0  0  0  0  0  0  0  0  0  0
   53.2693    5.5843   17.0564 C   0  0  0  0  0  0  0  0  0  0  0  0
   54.2506    4.7181   17.3415 F   0  0  0  0  0  0  0  0  0  0  0  0
   52.0707    5.5127   17.7577 C   0  0  0  0  0  0  0  0  0  0  0  0
   51.0460    6.4130   17.4610 C   0  0  0  0  0  0  0  0  0  0  0  0
   48.8022   11.7768   17.1592 C   0  0  0  0  0  0  0  0  0  0  0  0
   49.7462   12.9200   16.8653 C   0  0  0  0  0  0  0  0  0  0  0  0
   48.3291   12.9875   16.3896 C   0  0  0  0  0  0  0  0  0  0  0  0
   51.1229   13.0290   23.0134 C   0  0  0  0  0  0  0  0  0  0  0  0
   49.9478   12.4849   23.8222 C   0  0  0  0  0  0  0  0  0  0  0  0
   49.1379   13.3657   24.2237 O   0  0  0  0  0  0  0  0  0  0  0  0
   49.9357   11.2400   24.0148 O   0  0  0  0  0  0  0  0  0  0  0  0
   52.6388   11.7558   23.2386 H   0  0  0  0  0  0  0  0  0  0  0  0
   51.4972    9.2207   22.7768 H   0  0  0  0  0  0  0  0  0  0  0  0
   50.0728   10.3668   21.0128 H   0  0  0  0  0  0  0  0  0  0  0  0
   51.1177   11.7953   21.1656 H   0  0  0  0  0  0  0  0  0  0  0  0
   52.1524    9.0151   20.3740 H   0  0  0  0  0  0  0  0  0  0  0  0
   53.5214   10.6772   21.3600 H   0  0  0  0  0  0  0  0  0  0  0  0
   51.4592   11.4712   18.6327 H   0  0  0  0  0  0  0  0  0  0  0  0
   51.5717    8.4435   18.0875 H   0  0  0  0  0  0  0  0  0  0  0  0
   50.0707   11.4992   12.1719 H   0  0  0  0  0  0  0  0  0  0  0  0
   47.9525   10.6165   11.2556 H   0  0  0  0  0  0  0  0  0  0  0  0
   46.5703    9.0657   12.6193 H   0  0  0  0  0  0  0  0  0  0  0  0
   47.3211    8.4164   14.8623 H   0  0  0  0  0  0  0  0  0  0  0  0
   48.0935    9.7908   18.2743 H   0  0  0  0  0  0  0  0  0  0  0  0
   46.9070    8.1608   19.7072 H   0  0  0  0  0  0  0  0  0  0  0  0
   48.4248    4.9211   17.3478 H   0  0  0  0  0  0  0  0  0  0  0  0
   49.6418    6.5297   15.8990 H   0  0  0  0  0  0  0  0  0  0  0  0
   52.8275   12.1877   16.7014 H   0  0  0  0  0  0  0  0  0  0  0  0
   53.8433   10.9905   14.0300 H   0  0  0  0  0  0  0  0  0  0  0  0
   54.6235   12.3243   14.9955 H   0  0  0  0  0  0  0  0  0  0  0  0
   54.8477   10.7636   16.9737 H   0  0  0  0  0  0  0  0  0  0  0  0
   54.0944    9.4290   15.9995 H   0  0  0  0  0  0  0  0  0  0  0  0
   50.4742   11.9848   23.6738 H   0  0  0  0  0  0  0  0  0  0  0  0
   50.7753   10.6120   24.7272 H   0  0  0  0  0  0  0  0  0  0  0  0
   53.4711   13.0082   22.4413 H   0  0  0  0  0  0  0  0  0  0  0  0
   52.1098   11.1044   22.8259 H   0  0  0  0  0  0  0  0  0  0  0  0
   50.0246   11.1740   21.3230 H   0  0  0  0  0  0  0  0  0  0  0  0
   50.8829   12.3553   20.3163 H   0  0  0  0  0  0  0  0  0  0  0  0
   51.9182    9.5247   20.8908 H   0  0  0  0  0  0  0  0  0  0  0  0
   53.2809   11.4815   20.2689 H   0  0  0  0  0  0  0  0  0  0  0  0
   49.8520    9.4552   19.4675 H   0  0  0  0  0  0  0  0  0  0  0  0
   51.9599   10.3905   17.4325 H   0  0  0  0  0  0  0  0  0  0  0  0
   46.3771    9.3767   13.7795 H   0  0  0  0  0  0  0  0  0  0  0  0
   46.3689    7.2611   12.5037 H   0  0  0  0  0  0  0  0  0  0  0  0
   48.1531    5.5728   12.9135 H   0  0  0  0  0  0  0  0  0  0  0  0
   49.8942    6.0147   14.5871 H   0  0  0  0  0  0  0  0  0  0  0  0
   52.5987    8.1928   14.9972 H   0  0  0  0  0  0  0  0  0  0  0  0
   54.4159    6.5866   15.5435 H   0  0  0  0  0  0  0  0  0  0  0  0
   51.9463    4.7685   18.5365 H   0  0  0  0  0  0  0  0  0  0  0  0
   50.1123    6.3654   18.0187 H   0  0  0  0  0  0  0  0  0  0  0  0
   48.4431   11.7030   18.1833 H   0  0  0  0  0  0  0  0  0  0  0  0
   50.0414   13.5355   17.7073 H   0  0  0  0  0  0  0  0  0  0  0  0
   50.5195   12.7876   16.1189 H   0  0  0  0  0  0  0  0  0  0  0  0
   47.6579   13.6738   16.8909 H   0  0  0  0  0  0  0  0  0  0  0  0
   48.1361   12.8703   15.3294 H   0  0  0  0  0  0  0  0  0  0  0  0
   50.7788   13.8331   22.3534 H   0  0  0  0  0  0  0  0  0  0  0  0
   51.8172   13.4985   23.7207 H   0  0  0  0  0  0  0  0  0  0  0  0
  2  1  1  0
  2  3  1  0
  3  4  1  0
  4  5  1  0
  4  6  1  0
  6  7  2  0
  7  8  1  0
  8  9  2  0
  9 10  1  0
 10 11  2  0
 11 12  1  0
 12 13  2  0
 13 14  1  0
 14 15  2  0
 15 16  1  0
 11 16  1  0
 16 17  2  0
  8 17  1  0
 17 18  1  0
 18 19  2  0
 19 20  1  0
 20 21  2  0
 21 22  1  0
 21 23  1  0
 23 24  2  0
 18 24  1  0
  9 25  1  0
 25 26  1  0
 26 27  1  0
 25 27  1  0
  2 28  1  0
 28 29  1  0
 29 30  2  0
 29 31  1  0
 34 33  1  0
 34 35  1  0
 35 36  1  0
 36 37  1  0
 36 38  1  0
 38 39  2  0
 39 40  1  0
 40 41  2  0
 41 42  1  0
 42 43  2  0
 43 44  1  0
 44 45  2  0
 45 46  1  0
 46 47  2  0
 47 48  1  0
 43 48  1  0
 48 49  2  0
 40 49  1  0
 49 50  1  0
 50 51  2  0
 51 52  1  0
 52 53  2  0
 53 54  1  0
 53 55  1  0
 55 56  2  0
 50 56  1  0
 41 57  1  0
 57 58  1  0
 58 59  1  0
 57 59  1  0
 34 60  1  0
 60 61  1  0
 61 62  2  0
 61 63  1  0
  1 64  1  0
  2 65  1  1
  3 66  1  0
  3 67  1  0
  4 68  1  1
  5 69  1  0
  6 70  1  0
  7 71  1  0
 12 72  1  0
 13 73  1  0
 14 74  1  0
 15 75  1  0
 19 76  1  0
 20 77  1  0
 23 78  1  0
 24 79  1  0
 25 80  1  0
 26 81  1  0
 26 82  1  0
 27 83  1  0
 27 84  1  0
 28 85  1  0
 28 86  1  0
 33 87  1  0
 34 88  1  1
 35 89  1  0
 35 90  1  0
 36 91  1  1
 37 92  1  0
 38 93  1  0
 39 94  1  0
 44 95  1  0
 45 96  1  0
 46 97  1  0
 47 98  1  0
 51 99  1  0
 52100  1  0
 55101  1  0
 56102  1  0
 57103  1  0
 58104  1  0
 58105  1  0
 59106  1  0
 59107  1  0
 60108  1  0
 60109  1  0
M  CHG  3  31  -1  32   2  63  -1
M  END
> <Uni-Dock RESULT> 
ENERGY=   -5.115  LOWER_BOUND=    3.562  UPPER_BOUND=    7.018
INTER + INTRA:          -5.115
INTER:                  -5.115
INTRA:                   0.000
UNBOUND:                 0.000

$$$$

     RDKit          3D

109114  0  0  0  0  0  0  0  0999 V2000
   51.9341    4.1908   17.9684 O   0  0  0  0  0  0  0  0  0  0  0  0
   50.6546    4.4476   17.3528 C   0  0  2  0  0  0  0  0  0  0  0  0
   50.5083    5.9652   17.1656 C   0  0  0  0  0  0  0  0  0  0  0  0
   51.5987    6.5475   16.2543 C   0  0  2  0  0  0  0  0  0  0  0  0
   52.8836    6.4384   16.8655 O   0  0  0  0  0  0  0  0  0  0  0  0
   51.3595    8.0098   16.0207 C   0  0  0  0  0  0  0  0  0  0  0  0
   51.2497    8.5722   14.8065 C   0  0  0  0  0  0  0  0  0  0  0  0
   50.9141    9.9967   14.5979 C   0  0  0  0  0  0  0  0  0  0  0  0
   51.7369   11.0260   15.0914 C   0  0  0  0  0  0  0  0  0  0  0  0
   51.4165   12.3349   14.9040 N   0  0  0  0  0  0  0  0  0  0  0  0
   50.3067   12.6662   14.2323 C   0  0  0  0  0  0  0  0  0  0  0  0
   50.0289   14.0163   14.0773 C   0  0  0  0  0  0  0  0  0  0  0  0
   48.8992   14.4686   13.3944 C   0  0  0  0  0  0  0  0  0  0  0  0
   48.0158   13.5497   12.8526 C   0  0  0  0  0  0  0  0  0  0  0  0
   48.2752   12.1886   12.9948 C   0  0  0  0  0  0  0  0  0  0  0  0
   49.4263   11.7180   13.6815 C   0  0  0  0  0  0  0  0  0  0  0  0
   49.7503   10.3443   13.8611 C   0  0  0  0  0  0  0  0  0  0  0  0
   48.8869    9.2918   13.2759 C   0  0  0  0  0  0  0  0  0  0  0  0
   47.9828    8.5658   14.0713 C   0  0  0  0  0  0  0  0  0  0  0  0
   47.1814    7.5691   13.5081 C   0  0  0  0  0  0  0  0  0  0  0  0
   47.2753    7.2986   12.1479 C   0  0  0  0  0  0  0  0  0  0  0  0
   46.5045    6.3490   11.6023 F   0  0  0  0  0  0  0  0  0  0  0  0
   48.1651    7.9960   11.3405 C   0  0  0  0  0  0  0  0  0  0  0  0
   48.9693    8.9879   11.9032 C   0  0  0  0  0  0  0  0  0  0  0  0
   53.0189   10.7552   15.8629 C   0  0  0  0  0  0  0  0  0  0  0  0
   54.2566   11.5826   15.5907 C   0  0  0  0  0  0  0  0  0  0  0  0
   54.2168   10.1451   15.1689 C   0  0  0  0  0  0  0  0  0  0  0  0
   49.5667    3.8561   18.2389 C   0  0  0  0  0  0  0  0  0  0  0  0
   48.1886    4.0658   17.6297 C   0  0  0  0  0  0  0  0  0  0  0  0
   47.3382    4.5572   18.4207 O   0  0  0  0  0  0  0  0  0  0  0  0
   48.0684    3.7419   16.4175 O   0  0  0  0  0  0  0  0  0  0  0  0
   50.2768    8.7046   15.0743 Mg  0  0  0  0  0 15  0  0  0  0  0  0
   52.4691    5.9619   19.0640 O   0  0  0  0  0  0  0  0  0  0  0  0
   51.1626    5.4617   18.7114 C   0  0  2  0  0  0  0  0  0  0  0  0
   50.4906    6.5074   17.8118 C   0  0  0  0  0  0  0  0  0  0  0  0
   51.2425    6.7050   16.4864 C   0  0  2  0  0  0  0  0  0  0  0  0
   52.5551    7.2192   16.7072 O   0  0  0  0  0  0  0  0  0  0  0  0
   50.4735    7.6571   15.6058 C   0  0  0  0  0  0  0  0  0  0  0  0
   50.8868    8.8693   15.2065 C   0  0  0  0  0  0  0  0  0  0  0  0
   50.0286    9.7814   14.4310 C   0  0  0  0  0  0  0  0  0  0  0  0
   49.0514   10.5444   15.0918 C   0  0  0  0  0  0  0  0  0  0  0  0
   48.2497   11.4062   14.4118 N   0  0  0  0  0  0  0  0  0  0  0  0
   48.3785   11.5366   13.0862 C   0  0  0  0  0  0  0  0  0  0  0  0
   47.5248   12.4237   12.4423 C   0  0  0  0  0  0  0  0  0  0  0  0
   47.5807   12.6415   11.0655 C   0  0  0  0  0  0  0  0  0  0  0  0
   48.5109   11.9500   10.3058 C   0  0  0  0  0  0  0  0  0  0  0  0
   49.3701   11.0456   10.9294 C   0  0  0  0  0  0  0  0  0  0  0  0
   49.3239   10.8199   12.3309 C   0  0  0  0  0  0  0  0  0  0  0  0
   50.1708    9.9138   13.0313 C   0  0  0  0  0  0  0  0  0  0  0  0
   51.1843    9.1192   12.3095 C   0  0  0  0  0  0  0  0  0  0  0  0
   52.4898    9.6130   12.1364 C   0  0  0  0  0  0  0  0  0  0  0  0
   53.4416    8.8669   11.4399 C   0  0  0  0  0  0  0  0  0  0  0  0
   53.0898    7.6289   10.9156 C   0  0  0  0  0  0  0  0  0  0  0  0
   54.0022    6.9151   10.2428 F   0  0  0  0  0  0  0  0  0  0  0  0
   51.8077    7.1164   11.0793 C   0  0  0  0  0  0  0  0  0  0  0  0
   50.8546    7.8593   11.7783 C   0  0  0  0  0  0  0  0  0  0  0  0
   48.8094   10.4279   16.5862 C   0  0  0  0  0  0  0  0  0  0  0  0
   49.8132   10.9982   17.5617 C   0  0  0  0  0  0  0  0  0  0  0  0
   48.4735   11.6479   17.4113 C   0  0  0  0  0  0  0  0  0  0  0  0
   50.3674    5.2077   19.9843 C   0  0  0  0  0  0  0  0  0  0  0  0
   49.0821    4.4176   19.7502 C   0  0  0  0  0  0  0  0  0  0  0  0
   48.2491    4.4833   20.6963 O   0  0  0  0  0  0  0  0  0  0  0  0
   49.0125    3.7793   18.6663 O   0  0  0  0  0  0  0  0  0  0  0  0
   51.8069    4.3269   18.9252 H   0  0  0  0  0  0  0  0  0  0  0  0
   50.6714    3.9594   16.3720 H   0  0  0  0  0  0  0  0  0  0  0  0
   49.5228    6.1948   16.7432 H   0  0  0  0  0  0  0  0  0  0  0  0
   50.5747    6.4474   18.1522 H   0  0  0  0  0  0  0  0  0  0  0  0
   51.6330    6.0040   15.3043 H   0  0  0  0  0  0  0  0  0  0  0  0
   52.9020    5.5351   17.2482 H   0  0  0  0  0  0  0  0  0  0  0  0
   51.2395    8.6090   16.9182 H   0  0  0  0  0  0  0  0  0  0  0  0
   51.3451    7.9692   13.9089 H   0  0  0  0  0  0  0  0  0  0  0  0
   50.7184   14.7394   14.5062 H   0  0  0  0  0  0  0  0  0  0  0  0
   48.7180   15.5332   13.2924 H   0  0  0  0  0  0  0  0  0  0  0  0
   47.1281   13.8862   12.3252 H   0  0  0  0  0  0  0  0  0  0  0  0
   47.5588   11.4846   12.5760 H   0  0  0  0  0  0  0  0  0  0  0  0
   47.9086    8.7585   15.1399 H   0  0  0  0  0  0  0  0  0  0  0  0
   46.5015    6.9928   14.1300 H   0  0  0  0  0  0  0  0  0  0  0  0
   48.2339    7.7552   10.2850 H   0  0  0  0  0  0  0  0  0  0  0  0
   49.6727    9.5236   11.2700 H   0  0  0  0  0  0  0  0  0  0  0  0
   52.8691   10.4690   16.8997 H   0  0  0  0  0  0  0  0  0  0  0  0
   54.1979   12.3441   14.8213 H   0  0  0  0  0  0  0  0  0  0  0  0
   54.8778   11.8497   16.4379 H   0  0  0  0  0  0  0  0  0  0  0  0
   54.7983    9.4221   15.7310 H   0  0  0  0  0  0  0  0  0  0  0  0
   54.1462    9.9206   14.1111 H   0  0  0  0  0  0  0  0  0  0  0  0
   49.6104    4.2984   19.2444 H   0  0  0  0  0  0  0  0  0  0  0  0
   49.7342    2.7802   18.3699 H   0  0  0  0  0  0  0  0  0  0  0  0
   52.7692    5.4151   19.8120 H   0  0  0  0  0  0  0  0  0  0  0  0
   51.3205    4.5337   18.1538 H   0  0  0  0  0  0  0  0  0  0  0  0
   49.4548    6.2164   17.6064 H   0  0  0  0  0  0  0  0  0  0  0  0
   50.4687    7.4671   18.3500 H   0  0  0  0  0  0  0  0  0  0  0  0
   51.3457    5.7497   15.9635 H   0  0  0  0  0  0  0  0  0  0  0  0
   52.8287    6.8685   17.5827 H   0  0  0  0  0  0  0  0  0  0  0  0
   49.4847    7.3048   15.3170 H   0  0  0  0  0  0  0  0  0  0  0  0
   51.8665    9.2437   15.4818 H   0  0  0  0  0  0  0  0  0  0  0  0
   46.7913   12.9614   13.0404 H   0  0  0  0  0  0  0  0  0  0  0  0
   46.8973   13.3480   10.6026 H   0  0  0  0  0  0  0  0  0  0  0  0
   48.5677   12.1078    9.2338 H   0  0  0  0  0  0  0  0  0  0  0  0
   50.0830   10.5041   10.3106 H   0  0  0  0  0  0  0  0  0  0  0  0
   52.7647   10.5796   12.5532 H   0  0  0  0  0  0  0  0  0  0  0  0
   54.4518    9.2400   11.3122 H   0  0  0  0  0  0  0  0  0  0  0  0
   51.5622    6.1406   10.6752 H   0  0  0  0  0  0  0  0  0  0  0  0
   49.8545    7.4526   11.9177 H   0  0  0  0  0  0  0  0  0  0  0  0
   48.3163    9.5070   16.8894 H   0  0  0  0  0  0  0  0  0  0  0  0
   50.0102   10.4144   18.4535 H   0  0  0  0  0  0  0  0  0  0  0  0
   50.6747   11.5326   17.1810 H   0  0  0  0  0  0  0  0  0  0  0  0
   47.7599   11.5311   18.2175 H   0  0  0  0  0  0  0  0  0  0  0  0
   48.4195   12.6038   16.9034 H   0  0  0  0  0  0  0  0  0  0  0  0
   50.1343    6.1586   20.4762 H   0  0  0  0  0  0  0  0  0  0  0  0
   50.9739    4.6406   20.7007 H   0  0  0  0  0  0  0  0  0  0  0  0
  2  1  1  0
  2  3  1  0
  3  4  1  0
  4  5  1  0
  4  6  1  0
  6  7  2  0
  7  8  1  0
  8  9  2  0
  9 10  1  0
 10 11  2  0
 11 12  1  0
 12 13  2  0
 13 14  1  0
 14 15  2  0
 15 16  1  0
 11 16  1  0
 16 17  2  0
  8 17  1  0
 17 18  1  0
 18 19  2  0
 19 20  1  0
 20 21  2  0
 21 22  1  0
 21 23  1  0
 23 24  2  0
 18 24  1  0
  9 25  1  0
 25 26  1  0
 26 27  1  0
 25 27  1  0
  2 28  1  0
 28 29  1  0
 29 30  2  0
 29 31  1  0
 34 33  1  0
 34 35  1  0
 35 36  1  0
 36 37  1  0
 36 38  1  0
 38 39  2  0
 39 40  1  0
 40 41  2  0
 41 42  1  0
 42 43  2  0
 43 44  1  0
 44 45  2  0
 45 46  1  0
 46 47  2  0
 47 48  1  0
 43 48  1  0
 48 49  2  0
 40 49  1  0
 49 50  1  0
 50 51  2  0
 51 52  1  0
 52 53  2  0
 53 54  1  0
 53 55  1  0
 55 56  2  0
 50 56  1  0
 41 57  1  0
 57 58  1  0
 58 59  1  0
 57 59  1  0
 34 60  1  0
 60 61  1  0
 61 62  2  0
 61 63  1  0
  1 64  1  0
  2 65  1  1
  3 66  1  0
  3 67  1  0
  4 68  1  1
  5 69  1  0
  6 70  1  0
  7 71  1  0
 12 72  1  0
 13 73  1  0
 14 74  1  0
 15 75  1  0
 19 76  1  0
 20 77  1  0
 23 78  1  0
 24 79  1  0
 25 80  1  0
 26 81  1  0
 26 82  1  0
 27 83  1  0
 27 84  1  0
 28 85  1  0
 28 86  1  0
 33 87  1  0
 34 88  1  1
 35 89  1  0
 35 90  1  0
 36 91  1  1
 37 92  1  0
 38 93  1  0
 39 94  1  0
 44 95  1  0
 45 96  1  0
 46 97  1  0
 47 98  1  0
 51 99  1  0
 52100  1  0
 55101  1  0
 56102  1  0
 57103  1  0
 58104  1  0
 58105  1  0
 59106  1  0
 59107  1  0
 60108  1  0
 60109  1  0
M  CHG  3  31  -1  32   2  63  -1
M  END
> <Uni-Dock RESULT> 
ENERGY=   -4.840  LOWER_BOUND=    4.732  UPPER_BOUND=    9.045
INTER + INTRA:          -4.840
INTER:                  -4.840
INTRA:                   0.000
UNBOUND:                 0.000

$$$$

     RDKit          3D

109114  0  0  0  0  0  0  0  0999 V2000
   47.5996   11.0407   19.6098 O   0  0  0  0  0  0  0  0  0  0  0  0
   48.6560   11.8198   19.0108 C   0  0  2  0  0  0  0  0  0  0  0  0
   49.3078   10.9750   17.9058 C   0  0  0  0  0  0  0  0  0  0  0  0
   48.3127   10.5952   16.7995 C   0  0  2  0  0  0  0  0  0  0  0  0
   47.3062    9.7166   17.3009 O   0  0  0  0  0  0  0  0  0  0  0  0
   49.0127    9.8577   15.6968 C   0  0  0  0  0  0  0  0  0  0  0  0
   48.9860   10.2268   14.4062 C   0  0  0  0  0  0  0  0  0  0  0  0
   49.7638    9.5454   13.3496 C   0  0  0  0  0  0  0  0  0  0  0  0
   49.5636    8.1851   13.0505 C   0  0  0  0  0  0  0  0  0  0  0  0
   50.2901    7.5623   12.0834 N   0  0  0  0  0  0  0  0  0  0  0  0
   51.2094    8.2441   11.3886 C   0  0  0  0  0  0  0  0  0  0  0  0
   51.9228    7.5551   10.4190 C   0  0  0  0  0  0  0  0  0  0  0  0
   52.9024    8.1712    9.6392 C   0  0  0  0  0  0  0  0  0  0  0  0
   53.1844    9.5133    9.8327 C   0  0  0  0  0  0  0  0  0  0  0  0
   52.4795   10.2258   10.8000 C   0  0  0  0  0  0  0  0  0  0  0  0
   51.4752    9.6096   11.5937 C   0  0  0  0  0  0  0  0  0  0  0  0
   50.7188   10.2789   12.5959 C   0  0  0  0  0  0  0  0  0  0  0  0
   50.9206   11.7263   12.8403 C   0  0  0  0  0  0  0  0  0  0  0  0
   51.6647   12.1821   13.9429 C   0  0  0  0  0  0  0  0  0  0  0  0
   51.8390   13.5503   14.1670 C   0  0  0  0  0  0  0  0  0  0  0  0
   51.2766   14.4679   13.2872 C   0  0  0  0  0  0  0  0  0  0  0  0
   51.4465   15.7801   13.4940 F   0  0  0  0  0  0  0  0  0  0  0  0
   50.5309   14.0450   12.1939 C   0  0  0  0  0  0  0  0  0  0  0  0
   50.3523   12.6789   11.9726 C   0  0  0  0  0  0  0  0  0  0  0  0
   48.5429    7.3248   13.7785 C   0  0  0  0  0  0  0  0  0  0  0  0
   47.6877    6.3449   13.0046 C   0  0  0  0  0  0  0  0  0  0  0  0
   47.0617    7.5720   13.5948 C   0  0  0  0  0  0  0  0  0  0  0  0
   49.6385   12.2192   20.1035 C   0  0  0  0  0  0  0  0  0  0  0  0
   50.7660   13.0726   19.5424 C   0  0  0  0  0  0  0  0  0  0  0  0
   51.9222   12.6869   19.8659 O   0  0  0  0  0  0  0  0  0  0  0  0
   50.4134   14.0414   18.8173 O   0  0  0  0  0  0  0  0  0  0  0  0
   49.9695   10.4398   14.5581 Mg  0  0  0  0  0 15  0  0  0  0  0  0
   48.1013    8.9711   19.3120 O   0  0  0  0  0  0  0  0  0  0  0  0
   48.9680   10.1213   19.3981 C   0  0  2  0  0  0  0  0  0  0  0  0
   49.7079   10.2483   18.0599 C   0  0  0  0  0  0  0  0  0  0  0  0
   48.7512   10.5230   16.8892 C   0  0  2  0  0  0  0  0  0  0  0  0
   47.8480    9.4361   16.6924 O   0  0  0  0  0  0  0  0  0  0  0  0
   49.5467   10.7475   15.6282 C   0  0  0  0  0  0  0  0  0  0  0  0
   49.5298    9.9676   14.5367 C   0  0  0  0  0  0  0  0  0  0  0  0
   50.4180   10.2005   13.3849 C   0  0  0  0  0  0  0  0  0  0  0  0
   51.7530    9.7662   13.4390 C   0  0  0  0  0  0  0  0  0  0  0  0
   52.5987    9.9517   12.3911 N   0  0  0  0  0  0  0  0  0  0  0  0
   52.1668   10.5635   11.2820 C   0  0  0  0  0  0  0  0  0  0  0  0
   53.0780   10.7356   10.2474 C   0  0  0  0  0  0  0  0  0  0  0  0
   52.7294   11.3521    9.0455 C   0  0  0  0  0  0  0  0  0  0  0  0
   51.4355   11.8170    8.8710 C   0  0  0  0  0  0  0  0  0  0  0  0
   50.5073   11.6656    9.9008 C   0  0  0  0  0  0  0  0  0  0  0  0
   50.8513   11.0357   11.1265 C   0  0  0  0  0  0  0  0  0  0  0  0
   49.9545   10.8471   12.2169 C   0  0  0  0  0  0  0  0  0  0  0  0
   48.5586   11.3206   12.1347 C   0  0  0  0  0  0  0  0  0  0  0  0
   47.5446   10.4766   11.6474 C   0  0  0  0  0  0  0  0  0  0  0  0
   46.2286   10.9319   11.5557 C   0  0  0  0  0  0  0  0  0  0  0  0
   45.9252   12.2296   11.9494 C   0  0  0  0  0  0  0  0  0  0  0  0
   44.6628   12.6680   11.8567 F   0  0  0  0  0  0  0  0  0  0  0  0
   46.9089   13.0808   12.4407 C   0  0  0  0  0  0  0  0  0  0  0  0
   48.2255   12.6267   12.5364 C   0  0  0  0  0  0  0  0  0  0  0  0
   52.3368    9.1014   14.6729 C   0  0  0  0  0  0  0  0  0  0  0  0
   51.9368    7.6887   15.0318 C   0  0  0  0  0  0  0  0  0  0  0  0
   53.3240    7.9652   14.5436 C   0  0  0  0  0  0  0  0  0  0  0  0
   49.9270    9.9349   20.5655 C   0  0  0  0  0  0  0  0  0  0  0  0
   50.6980   11.2022   20.9267 C   0  0  0  0  0  0  0  0  0  0  0  0
   51.7207   11.0058   21.6398 O   0  0  0  0  0  0  0  0  0  0  0  0
   50.2173   12.2853   20.4989 O   0  0  0  0  0  0  0  0  0  0  0  0
   48.0286   10.4603   20.2649 H   0  0  0  0  0  0  0  0  0  0  0  0
   48.1845   12.7024   18.5644 H   0  0  0  0  0  0  0  0  0  0  0  0
   50.1480   11.5242   17.4642 H   0  0  0  0  0  0  0  0  0  0  0  0
   49.7052   10.0542   18.3580 H   0  0  0  0  0  0  0  0  0  0  0  0
   47.8134   11.4891   16.4115 H   0  0  0  0  0  0  0  0  0  0  0  0
   47.0541   10.0961   18.1700 H   0  0  0  0  0  0  0  0  0  0  0  0
   49.5943    8.9965   16.0115 H   0  0  0  0  0  0  0  0  0  0  0  0
   48.4246   11.1020   14.0945 H   0  0  0  0  0  0  0  0  0  0  0  0
   51.7066    6.5001   10.2688 H   0  0  0  0  0  0  0  0  0  0  0  0
   53.4371    7.5986    8.8891 H   0  0  0  0  0  0  0  0  0  0  0  0
   53.9495   10.0049    9.2392 H   0  0  0  0  0  0  0  0  0  0  0  0
   52.7295   11.2747   10.9467 H   0  0  0  0  0  0  0  0  0  0  0  0
   52.0994   11.4747   14.6467 H   0  0  0  0  0  0  0  0  0  0  0  0
   52.3936   13.8999   15.0338 H   0  0  0  0  0  0  0  0  0  0  0  0
   50.0864   14.7797   11.5311 H   0  0  0  0  0  0  0  0  0  0  0  0
   49.7583   12.3522   11.1221 H   0  0  0  0  0  0  0  0  0  0  0  0
   48.8543    6.9931   14.7646 H   0  0  0  0  0  0  0  0  0  0  0  0
   47.8144    6.3012   11.9288 H   0  0  0  0  0  0  0  0  0  0  0  0
   47.4751    5.3888   13.4691 H   0  0  0  0  0  0  0  0  0  0  0  0
   46.4304    7.4638   14.4702 H   0  0  0  0  0  0  0  0  0  0  0  0
   46.7458    8.3623   12.9240 H   0  0  0  0  0  0  0  0  0  0  0  0
   50.0461   11.3249   20.5962 H   0  0  0  0  0  0  0  0  0  0  0  0
   49.1196   12.7892   20.8836 H   0  0  0  0  0  0  0  0  0  0  0  0
   47.8367    8.7695   20.2274 H   0  0  0  0  0  0  0  0  0  0  0  0
   48.3227   10.9911   19.5534 H   0  0  0  0  0  0  0  0  0  0  0  0
   50.4555   11.0468   18.1182 H   0  0  0  0  0  0  0  0  0  0  0  0
   50.2397    9.3047   17.8653 H   0  0  0  0  0  0  0  0  0  0  0  0
   48.1535   11.4169   17.0903 H   0  0  0  0  0  0  0  0  0  0  0  0
   47.7163    9.0420   17.5822 H   0  0  0  0  0  0  0  0  0  0  0  0
   50.2064   11.6129   15.6597 H   0  0  0  0  0  0  0  0  0  0  0  0
   48.8828    9.0993   14.4810 H   0  0  0  0  0  0  0  0  0  0  0  0
   54.0951   10.3747   10.3890 H   0  0  0  0  0  0  0  0  0  0  0  0
   53.4720   11.4623    8.2601 H   0  0  0  0  0  0  0  0  0  0  0  0
   51.1480   12.2988    7.9423 H   0  0  0  0  0  0  0  0  0  0  0  0
   49.5012   12.0506    9.7462 H   0  0  0  0  0  0  0  0  0  0  0  0
   47.7833    9.4589   11.3457 H   0  0  0  0  0  0  0  0  0  0  0  0
   45.4423   10.2810   11.1891 H   0  0  0  0  0  0  0  0  0  0  0  0
   46.6442   14.0835   12.7572 H   0  0  0  0  0  0  0  0  0  0  0  0
   48.9934   13.2886   12.9331 H   0  0  0  0  0  0  0  0  0  0  0  0
   52.5078    9.7778   15.5074 H   0  0  0  0  0  0  0  0  0  0  0  0
   51.7890    7.4780   16.0847 H   0  0  0  0  0  0  0  0  0  0  0  0
   51.2728    7.1442   14.3722 H   0  0  0  0  0  0  0  0  0  0  0  0
   54.1336    7.9158   15.2613 H   0  0  0  0  0  0  0  0  0  0  0  0
   53.5928    7.6388   13.5456 H   0  0  0  0  0  0  0  0  0  0  0  0
   50.6291    9.1226   20.3472 H   0  0  0  0  0  0  0  0  0  0  0  0
   49.3752    9.6217   21.4600 H   0  0  0  0  0  0  0  0  0  0  0  0
  2  1  1  0
  2  3  1  0
  3  4  1  0
  4  5  1  0
  4  6  1  0
  6  7  2  0
  7  8  1  0
  8  9  2  0
  9 10  1  0
 10 11  2  0
 11 12  1  0
 12 13  2  0
 13 14  1  0
 14 15  2  0
 15 16  1  0
 11 16  1  0
 16 17  2  0
  8 17  1  0
 17 18  1  0
 18 19  2  0
 19 20  1  0
 20 21  2  0
 21 22  1  0
 21 23  1  0
 23 24  2  0
 18 24  1  0
  9 25  1  0
 25 26  1  0
 26 27  1  0
 25 27  1  0
  2 28  1  0
 28 29  1  0
 29 30  2  0
 29 31  1  0
 34 33  1  0
 34 35  1  0
 35 36  1  0
 36 37  1  0
 36 38  1  0
 38 39  2  0
 39 40  1  0
 40 41  2  0
 41 42  1  0
 42 43  2  0
 43 44  1  0
 44 45  2  0
 45 46  1  0
 46 47  2  0
 47 48  1  0
 43 48  1  0
 48 49  2  0
 40 49  1  0
 49 50  1  0
 50 51  2  0
 51 52  1  0
 52 53  2  0
 53 54  1  0
 53 55  1  0
 55 56  2  0
 50 56  1  0
 41 57  1  0
 57 58  1  0
 58 59  1  0
 57 59  1  0
 34 60  1  0
 60 61  1  0
 61 62  2  0
 61 63  1  0
  1 64  1  0
  2 65  1  1
  3 66  1  0
  3 67  1  0
  4 68  1  1
  5 69  1  0
  6 70  1  0
  7 71  1  0
 12 72  1  0
 13 73  1  0
 14 74  1  0
 15 75  1  0
 19 76  1  0
 20 77  1  0
 23 78  1  0
 24 79  1  0
 25 80  1  0
 26 81  1  0
 26 82  1  0
 27 83  1  0
 27 84  1  0
 28 85  1  0
 28 86  1  0
 33 87  1  0
 34 88  1  1
 35 89  1  0
 35 90  1  0
 36 91  1  1
 37 92  1  0
 38 93  1  0
 39 94  1  0
 44 95  1  0
 45 96  1  0
 46 97  1  0
 47 98  1  0
 51 99  1  0
 52100  1  0
 55101  1  0
 56102  1  0
 57103  1  0
 58104  1  0
 58105  1  0
 59106  1  0
 59107  1  0
 60108  1  0
 60109  1  0
M  CHG  3  31  -1  32   2  63  -1
M  END
> <Uni-Dock RESULT> 
ENERGY=   -4.553  LOWER_BOUND=    5.187  UPPER_BOUND=    8.240
INTER + INTRA:          -4.553
INTER:                  -4.553
INTRA:                   0.000
UNBOUND:                 0.000

$$$$

     RDKit          3D

109114  0  0  0  0  0  0  0  0999 V2000
   50.9649    7.8749   11.5970 O   0  0  0  0  0  0  0  0  0  0  0  0
   49.5298    8.0233   11.6199 C   0  0  2  0  0  0  0  0  0  0  0  0
   49.2042    9.4918   11.9313 C   0  0  0  0  0  0  0  0  0  0  0  0
   49.7633   10.4502   10.8696 C   0  0  2  0  0  0  0  0  0  0  0  0
   51.1903   10.4454   10.8816 O   0  0  0  0  0  0  0  0  0  0  0  0
   49.3384   11.8590   11.1608 C   0  0  0  0  0  0  0  0  0  0  0  0
   48.6864   12.6459   10.2901 C   0  0  0  0  0  0  0  0  0  0  0  0
   48.1876   13.9955   10.6299 C   0  0  0  0  0  0  0  0  0  0  0  0
   49.0613   15.0228   11.0314 C   0  0  0  0  0  0  0  0  0  0  0  0
   48.5939   16.2597   11.3522 N   0  0  0  0  0  0  0  0  0  0  0  0
   47.2830   16.5227   11.2808 C   0  0  0  0  0  0  0  0  0  0  0  0
   46.8647   17.7995   11.6250 C   0  0  0  0  0  0  0  0  0  0  0  0
   45.5219   18.1774   11.5849 C   0  0  0  0  0  0  0  0  0  0  0  0
   44.5649   17.2554   11.1948 C   0  0  0  0  0  0  0  0  0  0  0  0
   44.9621   15.9674   10.8434 C   0  0  0  0  0  0  0  0  0  0  0  0
   46.3271   15.5752   10.8735 C   0  0  0  0  0  0  0  0  0  0  0  0
   46.7994   14.2786   10.5266 C   0  0  0  0  0  0  0  0  0  0  0  0
   45.8523   13.2419   10.0536 C   0  0  0  0  0  0  0  0  0  0  0  0
   45.4237   12.2054   10.9017 C   0  0  0  0  0  0  0  0  0  0  0  0
   44.5377   11.2286   10.4397 C   0  0  0  0  0  0  0  0  0  0  0  0
   44.0715   11.2871    9.1314 C   0  0  0  0  0  0  0  0  0  0  0  0
   43.2170   10.3570    8.6860 F   0  0  0  0  0  0  0  0  0  0  0  0
   44.4842   12.2962    8.2703 C   0  0  0  0  0  0  0  0  0  0  0  0
   45.3729   13.2690    8.7297 C   0  0  0  0  0  0  0  0  0  0  0  0
   50.5652   14.8272   11.1409 C   0  0  0  0  0  0  0  0  0  0  0  0
   51.5075   15.9062   10.6526 C   0  0  0  0  0  0  0  0  0  0  0  0
   51.4029   14.6149    9.8992 C   0  0  0  0  0  0  0  0  0  0  0  0
   48.9631    7.0620   12.6560 C   0  0  0  0  0  0  0  0  0  0  0  0
   47.4450    7.1457   12.7096 C   0  0  0  0  0  0  0  0  0  0  0  0
   46.9713    7.2863   13.8698 O   0  0  0  0  0  0  0  0  0  0  0  0
   46.8515    7.0813   11.5995 O   0  0  0  0  0  0  0  0  0  0  0  0
   47.9091   12.5359   10.9377 Mg  0  0  0  0  0 15  0  0  0  0  0  0
   51.7752    9.4274   12.8447 O   0  0  0  0  0  0  0  0  0  0  0  0
   50.4834    8.7874   12.9002 C   0  0  2  0  0  0  0  0  0  0  0  0
   49.4188    9.8652   12.6570 C   0  0  0  0  0  0  0  0  0  0  0  0
   49.5269   10.4847   11.2549 C   0  0  2  0  0  0  0  0  0  0  0  0
   50.7677   11.1684   11.0850 O   0  0  0  0  0  0  0  0  0  0  0  0
   48.3895   11.4509   11.0400 C   0  0  0  0  0  0  0  0  0  0  0  0
   48.5038   12.7759   10.8643 C   0  0  0  0  0  0  0  0  0  0  0  0
   47.3330   13.6643   10.7652 C   0  0  0  0  0  0  0  0  0  0  0  0
   46.6693   14.0707   11.9348 C   0  0  0  0  0  0  0  0  0  0  0  0
   45.5936   14.9001   11.8840 N   0  0  0  0  0  0  0  0  0  0  0  0
   45.1432   15.3415   10.7036 C   0  0  0  0  0  0  0  0  0  0  0  0
   44.0336   16.1776   10.7117 C   0  0  0  0  0  0  0  0  0  0  0  0
   43.4892   16.7006    9.5387 C   0  0  0  0  0  0  0  0  0  0  0  0
   44.0634   16.3760    8.3198 C   0  0  0  0  0  0  0  0  0  0  0  0
   45.1707   15.5287    8.2870 C   0  0  0  0  0  0  0  0  0  0  0  0
   45.7348   14.9944    9.4759 C   0  0  0  0  0  0  0  0  0  0  0  0
   46.8635   14.1264    9.5150 C   0  0  0  0  0  0  0  0  0  0  0  0
   47.5367   13.7098    8.2689 C   0  0  0  0  0  0  0  0  0  0  0  0
   48.6072   14.4596    7.7493 C   0  0  0  0  0  0  0  0  0  0  0  0
   49.2316   14.0726    6.5627 C   0  0  0  0  0  0  0  0  0  0  0  0
   48.7867   12.9382    5.8946 C   0  0  0  0  0  0  0  0  0  0  0  0
   49.3830   12.5697    4.7530 F   0  0  0  0  0  0  0  0  0  0  0  0
   47.7348   12.1768    6.3917 C   0  0  0  0  0  0  0  0  0  0  0  0
   47.1106   12.5599    7.5801 C   0  0  0  0  0  0  0  0  0  0  0  0
   47.0873   13.5847   13.3112 C   0  0  0  0  0  0  0  0  0  0  0  0
   48.3617   14.0989   13.9402 C   0  0  0  0  0  0  0  0  0  0  0  0
   47.0381   14.5097   14.5044 C   0  0  0  0  0  0  0  0  0  0  0  0
   50.3184    8.1175   14.2571 C   0  0  0  0  0  0  0  0  0  0  0  0
   49.1175    7.1775   14.3285 C   0  0  0  0  0  0  0  0  0  0  0  0
   48.7568    6.8792   15.5007 O   0  0  0  0  0  0  0  0  0  0  0  0
   48.6474    6.7927   13.2248 O   0  0  0  0  0  0  0  0  0  0  0  0
   51.2417    7.7707   12.5258 H   0  0  0  0  0  0  0  0  0  0  0  0
   49.1698    7.7753   10.6152 H   0  0  0  0  0  0  0  0  0  0  0  0
   48.1181    9.6250   12.0034 H   0  0  0  0  0  0  0  0  0  0  0  0
   49.6424    9.7478   12.9074 H   0  0  0  0  0  0  0  0  0  0  0  0
   49.4362   10.1457    9.8700 H   0  0  0  0  0  0  0  0  0  0  0  0
   51.4360    9.4989   10.9616 H   0  0  0  0  0  0  0  0  0  0  0  0
   49.5617   12.2128   12.1627 H   0  0  0  0  0  0  0  0  0  0  0  0
   48.4411   12.2841    9.2964 H   0  0  0  0  0  0  0  0  0  0  0  0
   47.6138   18.5236   11.9364 H   0  0  0  0  0  0  0  0  0  0  0  0
   45.2348   19.1867   11.8596 H   0  0  0  0  0  0  0  0  0  0  0  0
   43.5152   17.5321   11.1662 H   0  0  0  0  0  0  0  0  0  0  0  0
   44.1915   15.2546   10.5565 H   0  0  0  0  0  0  0  0  0  0  0  0
   45.7911   12.1404   11.9242 H   0  0  0  0  0  0  0  0  0  0  0  0
   44.2278   10.4148   11.0899 H   0  0  0  0  0  0  0  0  0  0  0  0
   44.1211   12.3112    7.2482 H   0  0  0  0  0  0  0  0  0  0  0  0
   45.7025   14.0507    8.0490 H   0  0  0  0  0  0  0  0  0  0  0  0
   50.8871   14.2966   12.0321 H   0  0  0  0  0  0  0  0  0  0  0  0
   51.0736   16.7949   10.2087 H   0  0  0  0  0  0  0  0  0  0  0  0
   52.4050   16.0884   11.2324 H   0  0  0  0  0  0  0  0  0  0  0  0
   52.2195   13.9044    9.9695 H   0  0  0  0  0  0  0  0  0  0  0  0
   50.9116   14.6207    8.9333 H   0  0  0  0  0  0  0  0  0  0  0  0
   49.3917    7.2716   13.6465 H   0  0  0  0  0  0  0  0  0  0  0  0
   49.2509    6.0329   12.4091 H   0  0  0  0  0  0  0  0  0  0  0  0
   52.4023    8.7932   13.2361 H   0  0  0  0  0  0  0  0  0  0  0  0
   50.4620    8.0505   12.0918 H   0  0  0  0  0  0  0  0  0  0  0  0
   48.4177    9.4425   12.7953 H   0  0  0  0  0  0  0  0  0  0  0  0
   49.5526   10.6617   13.4045 H   0  0  0  0  0  0  0  0  0  0  0  0
   49.4726    9.7039   10.4907 H   0  0  0  0  0  0  0  0  0  0  0  0
   51.4095   10.6890   11.6530 H   0  0  0  0  0  0  0  0  0  0  0  0
   47.4006   10.9965   11.0699 H   0  0  0  0  0  0  0  0  0  0  0  0
   49.4771   13.2528   10.8322 H   0  0  0  0  0  0  0  0  0  0  0  0
   43.5810   16.4266   11.6699 H   0  0  0  0  0  0  0  0  0  0  0  0
   42.6233   17.3549    9.5903 H   0  0  0  0  0  0  0  0  0  0  0  0
   43.6523   16.7743    7.3981 H   0  0  0  0  0  0  0  0  0  0  0  0
   45.5962   15.2770    7.3175 H   0  0  0  0  0  0  0  0  0  0  0  0
   48.9579   15.3438    8.2774 H   0  0  0  0  0  0  0  0  0  0  0  0
   50.0633   14.6429    6.1638 H   0  0  0  0  0  0  0  0  0  0  0  0
   47.4168   11.2864    5.8609 H   0  0  0  0  0  0  0  0  0  0  0  0
   46.2955   11.9567    7.9762 H   0  0  0  0  0  0  0  0  0  0  0  0
   46.8383   12.5454   13.5136 H   0  0  0  0  0  0  0  0  0  0  0  0
   48.9587   13.3786   14.4876 H   0  0  0  0  0  0  0  0  0  0  0  0
   48.9404   14.8524   13.4205 H   0  0  0  0  0  0  0  0  0  0  0  0
   46.7403   14.0894   15.4570 H   0  0  0  0  0  0  0  0  0  0  0  0
   46.7035   15.5279   14.3426 H   0  0  0  0  0  0  0  0  0  0  0  0
   50.2425    8.8773   15.0429 H   0  0  0  0  0  0  0  0  0  0  0  0
   51.2108    7.5268   14.4967 H   0  0  0  0  0  0  0  0  0  0  0  0
  2  1  1  0
  2  3  1  0
  3  4  1  0
  4  5  1  0
  4  6  1  0
  6  7  2  0
  7  8  1  0
  8  9  2  0
  9 10  1  0
 10 11  2  0
 11 12  1  0
 12 13  2  0
 13 14  1  0
 14 15  2  0
 15 16  1  0
 11 16  1  0
 16 17  2  0
  8 17  1  0
 17 18  1  0
 18 19  2  0
 19 20  1  0
 20 21  2  0
 21 22  1  0
 21 23  1  0
 23 24  2  0
 18 24  1  0
  9 25  1  0
 25 26  1  0
 26 27  1  0
 25 27  1  0
  2 28  1  0
 28 29  1  0
 29 30  2  0
 29 31  1  0
 34 33  1  0
 34 35  1  0
 35 36  1  0
 36 37  1  0
 36 38  1  0
 38 39  2  0
 39 40  1  0
 40 41  2  0
 41 42  1  0
 42 43  2  0
 43 44  1  0
 44 45  2  0
 45 46  1  0
 46 47  2  0
 47 48  1  0
 43 48  1  0
 48 49  2  0
 40 49  1  0
 49 50  1  0
 50 51  2  0
 51 52  1  0
 52 53  2  0
 53 54  1  0
 53 55  1  0
 55 56  2  0
 50 56  1  0
 41 57  1  0
 57 58  1  0
 58 59  1  0
 57 59  1  0
 34 60  1  0
 60 61  1  0
 61 62  2  0
 61 63  1  0
  1 64  1  0
  2 65  1  1
  3 66  1  0
  3 67  1  0
  4 68  1  1
  5 69  1  0
  6 70  1  0
  7 71  1  0
 12 72  1  0
 13 73  1  0
 14 74  1  0
 15 75  1  0
 19 76  1  0
 20 77  1  0
 23 78  1  0
 24 79  1  0
 25 80  1  0
 26 81  1  0
 26 82  1  0
 27 83  1  0
 27 84  1  0
 28 85  1  0
 28 86  1  0
 33 87  1  0
 34 88  1  1
 35 89  1  0
 35 90  1  0
 36 91  1  1
 37 92  1  0
 38 93  1  0
 39 94  1  0
 44 95  1  0
 45 96  1  0
 46 97  1  0
 47 98  1  0
 51 99  1  0
 52100  1  0
 55101  1  0
 56102  1  0
 57103  1  0
 58104  1  0
 58105  1  0
 59106  1  0
 59107  1  0
 60108  1  0
 60109  1  0
M  CHG  3  31  -1  32   2  63  -1
M  END
> <Uni-Dock RESULT> 
ENERGY=   -4.451  LOWER_BOUND=    8.366  UPPER_BOUND=   13.129
INTER + INTRA:          -4.451
INTER:                  -4.451
INTRA:                   0.000
UNBOUND:                 0.000

$$$$

     RDKit          3D

109114  0  0  0  0  0  0  0  0999 V2000
   52.3172   14.5100   14.8663 O   0  0  0  0  0  0  0  0  0  0  0  0
   51.0288   14.2930   15.4785 C   0  0  2  0  0  0  0  0  0  0  0  0
   50.7233   12.7883   15.4332 C   0  0  0  0  0  0  0  0  0  0  0  0
   51.7608   11.9598   16.2050 C   0  0  2  0  0  0  0  0  0  0  0  0
   53.0388   12.0304   15.5740 O   0  0  0  0  0  0  0  0  0  0  0  0
   51.3698   10.5118   16.2173 C   0  0  0  0  0  0  0  0  0  0  0  0
   51.2218    9.7793   17.3327 C   0  0  0  0  0  0  0  0  0  0  0  0
   50.7386    8.3821   17.3295 C   0  0  0  0  0  0  0  0  0  0  0  0
   51.4369    7.3640   16.6543 C   0  0  0  0  0  0  0  0  0  0  0  0
   50.9808    6.0822   16.6475 N   0  0  0  0  0  0  0  0  0  0  0  0
   49.8541    5.7658   17.2977 C   0  0  0  0  0  0  0  0  0  0  0  0
   49.4353    4.4443   17.2511 C   0  0  0  0  0  0  0  0  0  0  0  0
   48.2759    4.0092   17.8944 C   0  0  0  0  0  0  0  0  0  0  0  0
   47.5065    4.9176   18.6022 C   0  0  0  0  0  0  0  0  0  0  0  0
   47.9083    6.2499   18.6638 C   0  0  0  0  0  0  0  0  0  0  0  0
   49.0909    6.7012   18.0189 C   0  0  0  0  0  0  0  0  0  0  0  0
   49.5576    8.0450   18.0433 C   0  0  0  0  0  0  0  0  0  0  0  0
   48.8232    9.0756   18.8140 C   0  0  0  0  0  0  0  0  0  0  0  0
   47.9884   10.0076   18.1726 C   0  0  0  0  0  0  0  0  0  0  0  0
   47.3091   10.9805   18.9107 C   0  0  0  0  0  0  0  0  0  0  0  0
   47.4559   11.0219   20.2924 C   0  0  0  0  0  0  0  0  0  0  0  0
   46.8018   11.9481   21.0049 F   0  0  0  0  0  0  0  0  0  0  0  0
   48.2799   10.1175   20.9507 C   0  0  0  0  0  0  0  0  0  0  0  0
   48.9623    9.1490   20.2136 C   0  0  0  0  0  0  0  0  0  0  0  0
   52.7265    7.6190   15.8902 C   0  0  0  0  0  0  0  0  0  0  0  0
   53.8727    6.6354   15.9880 C   0  0  0  0  0  0  0  0  0  0  0  0
   53.9954    7.9846   16.6285 C   0  0  0  0  0  0  0  0  0  0  0  0
   49.9952   15.1263   14.7330 C   0  0  0  0  0  0  0  0  0  0  0  0
   48.6136   14.9670   15.3496 C   0  0  0  0  0  0  0  0  0  0  0  0
   47.7012   14.6972   14.5219 O   0  0  0  0  0  0  0  0  0  0  0  0
   48.5507   15.1062   16.6008 O   0  0  0  0  0  0  0  0  0  0  0  0
   50.2357    9.7922   17.0814 Mg  0  0  0  0  0 15  0  0  0  0  0  0
   52.6387   12.8881   13.4916 O   0  0  0  0  0  0  0  0  0  0  0  0
   51.4001   13.4589   13.9624 C   0  0  2  0  0  0  0  0  0  0  0  0
   50.6357   12.3597   14.7117 C   0  0  0  0  0  0  0  0  0  0  0  0
   51.3857   11.8786   15.9637 C   0  0  2  0  0  0  0  0  0  0  0  0
   52.6310   11.2727   15.6207 O   0  0  0  0  0  0  0  0  0  0  0  0
   50.5345   10.8844   16.7122 C   0  0  0  0  0  0  0  0  0  0  0  0
   50.8220    9.5882   16.9043 C   0  0  0  0  0  0  0  0  0  0  0  0
   49.8846    8.6589   17.5582 C   0  0  0  0  0  0  0  0  0  0  0  0
   48.8192    8.1150   16.8214 C   0  0  0  0  0  0  0  0  0  0  0  0
   47.9418    7.2444   17.3869 N   0  0  0  0  0  0  0  0  0  0  0  0
   48.0796    6.8938   18.6711 C   0  0  0  0  0  0  0  0  0  0  0  0
   47.1470    6.0095   19.1988 C   0  0  0  0  0  0  0  0  0  0  0  0
   47.2038    5.5726   20.5224 C   0  0  0  0  0  0  0  0  0  0  0  0
   48.2165    6.0355   21.3475 C   0  0  0  0  0  0  0  0  0  0  0  0
   49.1567    6.9331   20.8423 C   0  0  0  0  0  0  0  0  0  0  0  0
   49.1099    7.3806   19.4951 C   0  0  0  0  0  0  0  0  0  0  0  0
   50.0368    8.2933   18.9148 C   0  0  0  0  0  0  0  0  0  0  0  0
   51.1427    8.8548   19.7155 C   0  0  0  0  0  0  0  0  0  0  0  0
   52.3904    8.2075   19.7648 C   0  0  0  0  0  0  0  0  0  0  0  0
   53.4293    8.7318   20.5352 C   0  0  0  0  0  0  0  0  0  0  0  0
   53.2223    9.9012   21.2568 C   0  0  0  0  0  0  0  0  0  0  0  0
   54.2181   10.4016   22.0001 F   0  0  0  0  0  0  0  0  0  0  0  0
   52.0000   10.5631   21.2189 C   0  0  0  0  0  0  0  0  0  0  0  0
   50.9602   10.0424   20.4466 C   0  0  0  0  0  0  0  0  0  0  0  0
   48.5645    8.4903   15.3724 C   0  0  0  0  0  0  0  0  0  0  0  0
   49.4834    7.9802   14.2862 C   0  0  0  0  0  0  0  0  0  0  0  0
   48.0845    7.4572   14.3802 C   0  0  0  0  0  0  0  0  0  0  0  0
   50.6143   13.9916   12.7725 C   0  0  0  0  0  0  0  0  0  0  0  0
   49.4259   14.8636   13.1705 C   0  0  0  0  0  0  0  0  0  0  0  0
   48.5739   15.0345   12.2551 O   0  0  0  0  0  0  0  0  0  0  0  0
   49.4449   15.3266   14.3420 O   0  0  0  0  0  0  0  0  0  0  0  0
   52.1590   14.5404   13.9050 H   0  0  0  0  0  0  0  0  0  0  0  0
   51.1156   14.6160   16.5220 H   0  0  0  0  0  0  0  0  0  0  0  0
   49.7265   12.5982   15.8488 H   0  0  0  0  0  0  0  0  0  0  0  0
   50.7197   12.4636   14.3821 H   0  0  0  0  0  0  0  0  0  0  0  0
   51.8704   12.3401   17.2259 H   0  0  0  0  0  0  0  0  0  0  0  0
   53.1475   12.9759   15.3355 H   0  0  0  0  0  0  0  0  0  0  0  0
   51.1699   10.0773   15.2424 H   0  0  0  0  0  0  0  0  0  0  0  0
   51.3977   10.2199   18.3091 H   0  0  0  0  0  0  0  0  0  0  0  0
   50.0352    3.7304   16.6917 H   0  0  0  0  0  0  0  0  0  0  0  0
   47.9830    2.9665   17.8363 H   0  0  0  0  0  0  0  0  0  0  0  0
   46.5973    4.5958   19.1014 H   0  0  0  0  0  0  0  0  0  0  0  0
   47.2794    6.9493   19.2112 H   0  0  0  0  0  0  0  0  0  0  0  0
   47.8747    9.9947   17.0902 H   0  0  0  0  0  0  0  0  0  0  0  0
   46.6842   11.7151   18.4096 H   0  0  0  0  0  0  0  0  0  0  0  0
   48.3931   10.1804   22.0277 H   0  0  0  0  0  0  0  0  0  0  0  0
   49.6153    8.4502   20.7314 H   0  0  0  0  0  0  0  0  0  0  0  0
   52.5899    8.0791   14.9160 H   0  0  0  0  0  0  0  0  0  0  0  0
   53.7461    5.7723   16.6316 H   0  0  0  0  0  0  0  0  0  0  0  0
   54.4462    6.4424   15.0886 H   0  0  0  0  0  0  0  0  0  0  0  0
   54.6412    8.7231   16.1655 H   0  0  0  0  0  0  0  0  0  0  0  0
   53.9684    8.0455   17.7101 H   0  0  0  0  0  0  0  0  0  0  0  0
   49.9730   14.8461   13.6701 H   0  0  0  0  0  0  0  0  0  0  0  0
   50.2751   16.1863   14.7646 H   0  0  0  0  0  0  0  0  0  0  0  0
   52.9825   13.5120   12.8274 H   0  0  0  0  0  0  0  0  0  0  0  0
   51.6670   14.2659   14.6513 H   0  0  0  0  0  0  0  0  0  0  0  0
   49.6411   12.7203   14.9955 H   0  0  0  0  0  0  0  0  0  0  0  0
   50.5010   11.5044   14.0324 H   0  0  0  0  0  0  0  0  0  0  0  0
   51.6004   12.7236   16.6245 H   0  0  0  0  0  0  0  0  0  0  0  0
   52.9251   11.7269   14.8012 H   0  0  0  0  0  0  0  0  0  0  0  0
   49.5947   11.2871   17.0861 H   0  0  0  0  0  0  0  0  0  0  0  0
   51.7506    9.1625   16.5405 H   0  0  0  0  0  0  0  0  0  0  0  0
   46.3492    5.6517   18.5503 H   0  0  0  0  0  0  0  0  0  0  0  0
   46.4566    4.8765   20.8936 H   0  0  0  0  0  0  0  0  0  0  0  0
   48.2751    5.7056   22.3795 H   0  0  0  0  0  0  0  0  0  0  0  0
   49.9347    7.2935   21.5125 H   0  0  0  0  0  0  0  0  0  0  0  0
   52.5521    7.2956   19.1939 H   0  0  0  0  0  0  0  0  0  0  0  0
   54.3956    8.2406   20.5684 H   0  0  0  0  0  0  0  0  0  0  0  0
   51.8683   11.4830   21.7776 H   0  0  0  0  0  0  0  0  0  0  0  0
   50.0073   10.5673   20.4066 H   0  0  0  0  0  0  0  0  0  0  0  0
   48.1680    9.4935   15.2328 H   0  0  0  0  0  0  0  0  0  0  0  0
   49.7261    8.6738   13.4893 H   0  0  0  0  0  0  0  0  0  0  0  0
   50.2890    7.3062   14.5494 H   0  0  0  0  0  0  0  0  0  0  0  0
   47.3732    7.7729   13.6271 H   0  0  0  0  0  0  0  0  0  0  0  0
   47.9369    6.4438   14.7355 H   0  0  0  0  0  0  0  0  0  0  0  0
   50.2714   13.1594   12.1475 H   0  0  0  0  0  0  0  0  0  0  0  0
   51.2654   14.5987   12.1322 H   0  0  0  0  0  0  0  0  0  0  0  0
  2  1  1  0
  2  3  1  0
  3  4  1  0
  4  5  1  0
  4  6  1  0
  6  7  2  0
  7  8  1  0
  8  9  2  0
  9 10  1  0
 10 11  2  0
 11 12  1  0
 12 13  2  0
 13 14  1  0
 14 15  2  0
 15 16  1  0
 11 16  1  0
 16 17  2  0
  8 17  1  0
 17 18  1  0
 18 19  2  0
 19 20  1  0
 20 21  2  0
 21 22  1  0
 21 23  1  0
 23 24  2  0
 18 24  1  0
  9 25  1  0
 25 26  1  0
 26 27  1  0
 25 27  1  0
  2 28  1  0
 28 29  1  0
 29 30  2  0
 29 31  1  0
 34 33  1  0
 34 35  1  0
 35 36  1  0
 36 37  1  0
 36 38  1  0
 38 39  2  0
 39 40  1  0
 40 41  2  0
 41 42  1  0
 42 43  2  0
 43 44  1  0
 44 45  2  0
 45 46  1  0
 46 47  2  0
 47 48  1  0
 43 48  1  0
 48 49  2  0
 40 49  1  0
 49 50  1  0
 50 51  2  0
 51 52  1  0
 52 53  2  0
 53 54  1  0
 53 55  1  0
 55 56  2  0
 50 56  1  0
 41 57  1  0
 57 58  1  0
 58 59  1  0
 57 59  1  0
 34 60  1  0
 60 61  1  0
 61 62  2  0
 61 63  1  0
  1 64  1  0
  2 65  1  1
  3 66  1  0
  3 67  1  0
  4 68  1  1
  5 69  1  0
  6 70  1  0
  7 71  1  0
 12 72  1  0
 13 73  1  0
 14 74  1  0
 15 75  1  0
 19 76  1  0
 20 77  1  0
 23 78  1  0
 24 79  1  0
 25 80  1  0
 26 81  1  0
 26 82  1  0
 27 83  1  0
 27 84  1  0
 28 85  1  0
 28 86  1  0
 33 87  1  0
 34 88  1  1
 35 89  1  0
 35 90  1  0
 36 91  1  1
 37 92  1  0
 38 93  1  0
 39 94  1  0
 44 95  1  0
 45 96  1  0
 46 97  1  0
 47 98  1  0
 51 99  1  0
 52100  1  0
 55101  1  0
 56102  1  0
 57103  1  0
 58104  1  0
 58105  1  0
 59106  1  0
 59107  1  0
 60108  1  0
 60109  1  0
M  CHG  3  31  -1  32   2  63  -1
M  END
> <Uni-Dock RESULT> 
ENERGY=   -4.352  LOWER_BOUND=    3.383  UPPER_BOUND=    6.516
INTER + INTRA:          -4.352
INTER:                  -4.352
INTRA:                   0.000
UNBOUND:                 0.000

$$$$

     RDKit          3D

109114  0  0  0  0  0  0  0  0999 V2000
   53.7717   10.0538    8.4440 O   0  0  0  0  0  0  0  0  0  0  0  0
   54.1442    9.6507    9.7784 C   0  0  2  0  0  0  0  0  0  0  0  0
   53.3585   10.5138   10.7772 C   0  0  0  0  0  0  0  0  0  0  0  0
   51.8401   10.3342   10.6339 C   0  0  2  0  0  0  0  0  0  0  0  0
   51.3858   10.8333    9.3766 O   0  0  0  0  0  0  0  0  0  0  0  0
   51.1186   11.1172   11.6904 C   0  0  0  0  0  0  0  0  0  0  0  0
   50.2346   10.5876   12.5508 C   0  0  0  0  0  0  0  0  0  0  0  0
   49.6097   11.3547   13.6493 C   0  0  0  0  0  0  0  0  0  0  0  0
   48.8106   12.4847   13.3952 C   0  0  0  0  0  0  0  0  0  0  0  0
   48.2467   13.1916   14.4117 N   0  0  0  0  0  0  0  0  0  0  0  0
   48.4384   12.8130   15.6816 C   0  0  0  0  0  0  0  0  0  0  0  0
   47.8432   13.5754   16.6758 C   0  0  0  0  0  0  0  0  0  0  0  0
   47.9796   13.2675   18.0300 C   0  0  0  0  0  0  0  0  0  0  0  0
   48.7353   12.1699   18.4075 C   0  0  0  0  0  0  0  0  0  0  0  0
   49.3414   11.3890   17.4261 C   0  0  0  0  0  0  0  0  0  0  0  0
   49.2022   11.6895   16.0447 C   0  0  0  0  0  0  0  0  0  0  0  0
   49.7927   10.9339   14.9936 C   0  0  0  0  0  0  0  0  0  0  0  0
   50.5800    9.7169   15.3014 C   0  0  0  0  0  0  0  0  0  0  0  0
   51.9857    9.7324   15.2740 C   0  0  0  0  0  0  0  0  0  0  0  0
   52.7157    8.5749   15.5569 C   0  0  0  0  0  0  0  0  0  0  0  0
   52.0446    7.3998   15.8747 C   0  0  0  0  0  0  0  0  0  0  0  0
   52.7398    6.2895   16.1531 F   0  0  0  0  0  0  0  0  0  0  0  0
   50.6563    7.3548   15.9022 C   0  0  0  0  0  0  0  0  0  0  0  0
   49.9269    8.5091   15.6147 C   0  0  0  0  0  0  0  0  0  0  0  0
   48.5293   12.9938   11.9903 C   0  0  0  0  0  0  0  0  0  0  0  0
   47.1394   13.4632   11.6182 C   0  0  0  0  0  0  0  0  0  0  0  0
   47.6716   12.1871   11.0402 C   0  0  0  0  0  0  0  0  0  0  0  0
   55.6519    9.8058    9.9248 C   0  0  0  0  0  0  0  0  0  0  0  0
   56.1171    9.3665   11.3050 C   0  0  0  0  0  0  0  0  0  0  0  0
   56.8601   10.1981   11.8938 O   0  0  0  0  0  0  0  0  0  0  0  0
   55.6959    8.2447   11.6958 O   0  0  0  0  0  0  0  0  0  0  0  0
   50.9548   10.7817   13.2432 Mg  0  0  0  0  0 15  0  0  0  0  0  0
   53.1125   12.0968    8.5676 O   0  0  0  0  0  0  0  0  0  0  0  0
   54.0361   11.3788    9.4120 C   0  0  2  0  0  0  0  0  0  0  0  0
   53.4473   11.3513   10.8286 C   0  0  0  0  0  0  0  0  0  0  0  0
   52.1216   10.5770   10.8934 C   0  0  2  0  0  0  0  0  0  0  0  0
   51.1143   11.2077   10.1037 O   0  0  0  0  0  0  0  0  0  0  0  0
   51.6553   10.4917   12.3246 C   0  0  0  0  0  0  0  0  0  0  0  0
   50.5411   11.0470   12.8247 C   0  0  0  0  0  0  0  0  0  0  0  0
   50.2118   11.0040   14.2598 C   0  0  0  0  0  0  0  0  0  0  0  0
   50.8273   11.9092   15.1404 C   0  0  0  0  0  0  0  0  0  0  0  0
   50.5391   11.9084   16.4688 N   0  0  0  0  0  0  0  0  0  0  0  0
   49.6582   11.0302   16.9626 C   0  0  0  0  0  0  0  0  0  0  0  0
   49.4112   11.0680   18.3292 C   0  0  0  0  0  0  0  0  0  0  0  0
   48.5054   10.2036   18.9445 C   0  0  0  0  0  0  0  0  0  0  0  0
   47.8297    9.2688   18.1762 C   0  0  0  0  0  0  0  0  0  0  0  0
   48.0709    9.2049   16.8041 C   0  0  0  0  0  0  0  0  0  0  0  0
   48.9880   10.0832   16.1677 C   0  0  0  0  0  0  0  0  0  0  0  0
   49.2803   10.0738   14.7737 C   0  0  0  0  0  0  0  0  0  0  0  0
   48.6236    9.1058   13.8730 C   0  0  0  0  0  0  0  0  0  0  0  0
   47.4148    9.4317   13.2320 C   0  0  0  0  0  0  0  0  0  0  0  0
   46.7877    8.5091   12.3935 C   0  0  0  0  0  0  0  0  0  0  0  0
   47.3666    7.2613   12.1958 C   0  0  0  0  0  0  0  0  0  0  0  0
   46.7619    6.3740   11.3947 F   0  0  0  0  0  0  0  0  0  0  0  0
   48.5645    6.9181   12.8129 C   0  0  0  0  0  0  0  0  0  0  0  0
   49.1954    7.8404   13.6497 C   0  0  0  0  0  0  0  0  0  0  0  0
   51.8683   12.9104   14.6723 C   0  0  0  0  0  0  0  0  0  0  0  0
   51.4508   14.1061   13.8475 C   0  0  0  0  0  0  0  0  0  0  0  0
   51.9172   14.3031   15.2556 C   0  0  0  0  0  0  0  0  0  0  0  0
   55.3905   12.0725    9.3698 C   0  0  0  0  0  0  0  0  0  0  0  0
   56.5141   11.2500    9.9959 C   0  0  0  0  0  0  0  0  0  0  0  0
   57.5494   11.9129   10.2820 O   0  0  0  0  0  0  0  0  0  0  0  0
   56.2915   10.0172   10.1295 O   0  0  0  0  0  0  0  0  0  0  0  0
   54.3117   10.8384    8.2369 H   0  0  0  0  0  0  0  0  0  0  0  0
   53.8443    8.6025    9.8879 H   0  0  0  0  0  0  0  0  0  0  0  0
   53.6577   10.2627   11.8018 H   0  0  0  0  0  0  0  0  0  0  0  0
   53.6099   11.5700   10.6001 H   0  0  0  0  0  0  0  0  0  0  0  0
   51.5741    9.2734   10.6885 H   0  0  0  0  0  0  0  0  0  0  0  0
   52.0478   10.5133    8.7270 H   0  0  0  0  0  0  0  0  0  0  0  0
   51.3837   12.1685   11.7503 H   0  0  0  0  0  0  0  0  0  0  0  0
   49.9875    9.5314   12.5073 H   0  0  0  0  0  0  0  0  0  0  0  0
   47.2535   14.4404   16.3819 H   0  0  0  0  0  0  0  0  0  0  0  0
   47.4965   13.8871   18.7777 H   0  0  0  0  0  0  0  0  0  0  0  0
   48.8574   11.9222   19.4578 H   0  0  0  0  0  0  0  0  0  0  0  0
   49.9444   10.5417   17.7464 H   0  0  0  0  0  0  0  0  0  0  0  0
   52.5234   10.6424   15.0140 H   0  0  0  0  0  0  0  0  0  0  0  0
   53.8014    8.5838   15.5105 H   0  0  0  0  0  0  0  0  0  0  0  0
   50.1542    6.4219   16.1351 H   0  0  0  0  0  0  0  0  0  0  0  0
   48.8401    8.4669   15.6261 H   0  0  0  0  0  0  0  0  0  0  0  0
   49.3451   13.5528   11.5416 H   0  0  0  0  0  0  0  0  0  0  0  0
   46.3641   13.3996   12.3732 H   0  0  0  0  0  0  0  0  0  0  0  0
   47.0590   14.3253   10.9661 H   0  0  0  0  0  0  0  0  0  0  0  0
   47.9688   12.1731    9.9970 H   0  0  0  0  0  0  0  0  0  0  0  0
   47.2516   11.2502   11.3869 H   0  0  0  0  0  0  0  0  0  0  0  0
   55.9490   10.8472    9.7358 H   0  0  0  0  0  0  0  0  0  0  0  0
   56.1659    9.1987    9.1698 H   0  0  0  0  0  0  0  0  0  0  0  0
   53.6068   12.3111    7.7563 H   0  0  0  0  0  0  0  0  0  0  0  0
   54.1018   10.3619    9.0137 H   0  0  0  0  0  0  0  0  0  0  0  0
   54.1662   10.9072   11.5257 H   0  0  0  0  0  0  0  0  0  0  0  0
   53.2651   12.3879   11.1501 H   0  0  0  0  0  0  0  0  0  0  0  0
   52.2565    9.5623   10.5076 H   0  0  0  0  0  0  0  0  0  0  0  0
   51.5956   11.6447    9.3676 H   0  0  0  0  0  0  0  0  0  0  0  0
   52.3287    9.9497   12.9864 H   0  0  0  0  0  0  0  0  0  0  0  0
   49.8549   11.5930   12.1869 H   0  0  0  0  0  0  0  0  0  0  0  0
   49.9473   11.7993   18.9314 H   0  0  0  0  0  0  0  0  0  0  0  0
   48.3384   10.2701   20.0160 H   0  0  0  0  0  0  0  0  0  0  0  0
   47.1219    8.5891   18.6390 H   0  0  0  0  0  0  0  0  0  0  0  0
   47.5389    8.4539   16.2234 H   0  0  0  0  0  0  0  0  0  0  0  0
   46.9667   10.4115   13.3832 H   0  0  0  0  0  0  0  0  0  0  0  0
   45.8604    8.7600   11.8902 H   0  0  0  0  0  0  0  0  0  0  0  0
   49.0049    5.9443   12.6297 H   0  0  0  0  0  0  0  0  0  0  0  0
   50.1397    7.5767   14.1227 H   0  0  0  0  0  0  0  0  0  0  0  0
   52.8327   12.4716   14.4263 H   0  0  0  0  0  0  0  0  0  0  0  0
   52.1111   14.3919   13.0368 H   0  0  0  0  0  0  0  0  0  0  0  0
   50.3996   14.2641   13.6411 H   0  0  0  0  0  0  0  0  0  0  0  0
   52.8906   14.7521   15.4094 H   0  0  0  0  0  0  0  0  0  0  0  0
   51.1827   14.5627   16.0093 H   0  0  0  0  0  0  0  0  0  0  0  0
   55.3264   13.0492    9.8622 H   0  0  0  0  0  0  0  0  0  0  0  0
   55.6759   12.2788    8.3312 H   0  0  0  0  0  0  0  0  0  0  0  0
  2  1  1  0
  2  3  1  0
  3  4  1  0
  4  5  1  0
  4  6  1  0
  6  7  2  0
  7  8  1  0
  8  9  2  0
  9 10  1  0
 10 11  2  0
 11 12  1  0
 12 13  2  0
 13 14  1  0
 14 15  2  0
 15 16  1  0
 11 16  1  0
 16 17  2  0
  8 17  1  0
 17 18  1  0
 18 19  2  0
 19 20  1  0
 20 21  2  0
 21 22  1  0
 21 23  1  0
 23 24  2  0
 18 24  1  0
  9 25  1  0
 25 26  1  0
 26 27  1  0
 25 27  1  0
  2 28  1  0
 28 29  1  0
 29 30  2  0
 29 31  1  0
 34 33  1  0
 34 35  1  0
 35 36  1  0
 36 37  1  0
 36 38  1  0
 38 39  2  0
 39 40  1  0
 40 41  2  0
 41 42  1  0
 42 43  2  0
 43 44  1  0
 44 45  2  0
 45 46  1  0
 46 47  2  0
 47 48  1  0
 43 48  1  0
 48 49  2  0
 40 49  1  0
 49 50  1  0
 50 51  2  0
 51 52  1  0
 52 53  2  0
 53 54  1  0
 53 55  1  0
 55 56  2  0
 50 56  1  0
 41 57  1  0
 57 58  1  0
 58 59  1  0
 57 59  1  0
 34 60  1  0
 60 61  1  0
 61 62  2  0
 61 63  1  0
  1 64  1  0
  2 65  1  1
  3 66  1  0
  3 67  1  0
  4 68  1  1
  5 69  1  0
  6 70  1  0
  7 71  1  0
 12 72  1  0
 13 73  1  0
 14 74  1  0
 15 75  1  0
 19 76  1  0
 20 77  1  0
 23 78  1  0
 24 79  1  0
 25 80  1  0
 26 81  1  0
 26 82  1  0
 27 83  1  0
 27 84  1  0
 28 85  1  0
 28 86  1  0
 33 87  1  0
 34 88  1  1
 35 89  1  0
 35 90  1  0
 36 91  1  1
 37 92  1  0
 38 93  1  0
 39 94  1  0
 44 95  1  0
 45 96  1  0
 46 97  1  0
 47 98  1  0
 51 99  1  0
 52100  1  0
 55101  1  0
 56102  1  0
 57103  1  0
 58104  1  0
 58105  1  0
 59106  1  0
 59107  1  0
 60108  1  0
 60109  1  0
M  CHG  3  31  -1  32   2  63  -1
M  END
> <Uni-Dock RESULT> 
ENERGY=   -4.350  LOWER_BOUND=    5.661  UPPER_BOUND=    9.327
INTER + INTRA:          -4.350
INTER:                  -4.350
INTRA:                   0.000
UNBOUND:                 0.000

$$$$
