
     RDKit          3D

 43 42  0  0  0  0  0  0  0  0999 V2000
   44.2290    3.7281    8.7380 C   0  0  0  0  0  0  0  0  0  0  0  0
   43.5173    5.3788   10.4413 N   0  0  0  0  0  0  0  0  0  0  0  0
   45.3761    3.0040    8.0731 C   0  0  0  0  0  0  0  0  0  0  0  0
   44.6473    4.5684    9.9639 C   0  0  1  0  0  0  0  0  0  0  0  0
   45.5105    1.6146    8.1987 C   0  0  0  0  0  0  0  0  0  0  0  0
   46.3253    3.7127    7.3237 C   0  0  0  0  0  0  0  0  0  0  0  0
   45.1356    3.7000   11.1239 C   0  0  0  0  0  0  0  0  0  0  0  0
   47.3886    3.0448    6.7143 C   0  0  0  0  0  0  0  0  0  0  0  0
   46.5747    0.9486    7.5886 C   0  0  0  0  0  0  0  0  0  0  0  0
   47.5132    1.6634    6.8471 C   0  0  0  0  0  0  0  0  0  0  0  0
   47.3514    1.9129    6.6688 C   0  0  0  0  0  0  0  0  0  0  0  0
   43.5982    4.4990   11.0390 C   0  0  0  0  0  0  0  0  0  0  0  0
   46.9896    1.0161    5.9262 O   0  0  0  0  0  0  0  0  0  0  0  0
   44.0468    4.0054   12.0588 O   0  0  0  0  0  0  0  0  0  0  0  0
   42.5540    5.3493   11.0903 O   0  0  0  0  0  0  0  0  0  0  0  0
   48.2075    2.8599    6.2425 O   0  0  0  0  0  0  0  0  0  0  0  0
   44.0753    4.2834    9.6282 C   0  0  0  0  0  0  0  0  0  0  0  0
   46.9067    2.1266    8.0861 C   0  0  0  0  0  0  0  0  0  0  0  0
   45.7336    3.0977    8.1391 C   0  0  0  0  0  0  0  0  0  0  0  0
   45.2524    3.3113    9.5737 C   0  0  0  0  0  0  0  0  0  0  0  0
   43.7654    4.3776    7.9825 H   0  0  0  0  0  0  0  0  0  0  0  0
   43.4504    3.0082    9.0242 H   0  0  0  0  0  0  0  0  0  0  0  0
   43.1649    5.9580    9.6801 H   0  0  0  0  0  0  0  0  0  0  0  0
   42.7471    4.7699   10.7161 H   0  0  0  0  0  0  0  0  0  0  0  0
   45.4530    5.2575    9.6852 H   0  0  0  0  0  0  0  0  0  0  0  0
   44.7890    1.0408    8.7759 H   0  0  0  0  0  0  0  0  0  0  0  0
   46.2417    4.7912    7.2091 H   0  0  0  0  0  0  0  0  0  0  0  0
   44.3766    2.9705   11.4281 H   0  0  0  0  0  0  0  0  0  0  0  0
   45.3806    4.3156   11.9973 H   0  0  0  0  0  0  0  0  0  0  0  0
   46.0432    3.1514   10.8524 H   0  0  0  0  0  0  0  0  0  0  0  0
   48.1200    3.6030    6.1356 H   0  0  0  0  0  0  0  0  0  0  0  0
   46.6718   -0.1289    7.6927 H   0  0  0  0  0  0  0  0  0  0  0  0
   48.3416    1.1440    6.3727 H   0  0  0  0  0  0  0  0  0  0  0  0
   42.3398    5.4054   12.0454 H   0  0  0  0  0  0  0  0  0  0  0  0
   48.4017    2.6056    5.3159 H   0  0  0  0  0  0  0  0  0  0  0  0
   44.3746    5.2535    9.2163 H   0  0  0  0  0  0  0  0  0  0  0  0
   43.2394    3.8877    9.0408 H   0  0  0  0  0  0  0  0  0  0  0  0
   46.6297    1.1521    8.5044 H   0  0  0  0  0  0  0  0  0  0  0  0
   47.7560    2.4908    8.6754 H   0  0  0  0  0  0  0  0  0  0  0  0
   44.9098    2.7141    7.5242 H   0  0  0  0  0  0  0  0  0  0  0  0
   46.0288    4.0591    7.7005 H   0  0  0  0  0  0  0  0  0  0  0  0
   46.0774    3.6959   10.1866 H   0  0  0  0  0  0  0  0  0  0  0  0
   44.9571    2.3496   10.0118 H   0  0  0  0  0  0  0  0  0  0  0  0
  2  4  1  0
  3  1  1  0
  4  1  1  0
  5  3  2  0
  6  3  1  0
  7  4  1  0
  8  6  2  0
  9  5  1  0
 10  8  1  0
 10  9  2  0
 12 17  1  0
 13 11  2  0
 14 12  2  0
 15 12  1  0
 16 11  1  0
 17 20  1  0
 18 11  1  0
 19 18  1  0
 20 19  1  0
  1 21  1  0
  1 22  1  0
  2 23  1  0
  2 24  1  0
  4 25  1  1
  5 26  1  0
  6 27  1  0
  7 28  1  0
  7 29  1  0
  7 30  1  0
  8 31  1  0
  9 32  1  0
 10 33  1  0
 15 34  1  0
 16 35  1  0
 17 36  1  0
 17 37  1  0
 18 38  1  0
 18 39  1  0
 19 40  1  0
 19 41  1  0
 20 42  1  0
 20 43  1  0
M  END
> <Uni-Dock RESULT> 
ENERGY=   -7.139  LOWER_BOUND=    0.000  UPPER_BOUND=    0.000
INTER + INTRA:          -7.139
INTER:                  -7.139
INTRA:                   0.000
UNBOUND:                 0.000

$$$$

     RDKit          3D

 43 42  0  0  0  0  0  0  0  0999 V2000
   46.0392    6.2657   11.6054 C   0  0  0  0  0  0  0  0  0  0  0  0
   45.5550    8.0951   13.2029 N   0  0  0  0  0  0  0  0  0  0  0  0
   45.4935    5.1293   10.7731 C   0  0  0  0  0  0  0  0  0  0  0  0
   44.9486    7.1310   12.2730 C   0  0  1  0  0  0  0  0  0  0  0  0
   45.5532    5.1780    9.3737 C   0  0  0  0  0  0  0  0  0  0  0  0
   44.9155    4.0107   11.3892 C   0  0  0  0  0  0  0  0  0  0  0  0
   44.1192    7.9100   11.2516 C   0  0  0  0  0  0  0  0  0  0  0  0
   44.4057    2.9633   10.6204 C   0  0  0  0  0  0  0  0  0  0  0  0
   45.0426    4.1295    8.6067 C   0  0  0  0  0  0  0  0  0  0  0  0
   44.4690    3.0231    9.2298 C   0  0  0  0  0  0  0  0  0  0  0  0
   44.6515    2.9451    9.5141 C   0  0  0  0  0  0  0  0  0  0  0  0
   45.3480    8.5808   12.2759 C   0  0  0  0  0  0  0  0  0  0  0  0
   45.4713    2.4749    8.7437 O   0  0  0  0  0  0  0  0  0  0  0  0
   44.5564    9.2553   11.6409 O   0  0  0  0  0  0  0  0  0  0  0  0
   46.0781    9.1307   13.2662 O   0  0  0  0  0  0  0  0  0  0  0  0
   43.9583    2.1534   10.3532 O   0  0  0  0  0  0  0  0  0  0  0  0
   45.6504    7.1167   12.1047 C   0  0  0  0  0  0  0  0  0  0  0  0
   44.3184    4.3992    9.6782 C   0  0  0  0  0  0  0  0  0  0  0  0
   45.1381    5.0129   10.8067 C   0  0  0  0  0  0  0  0  0  0  0  0
   44.8281    6.4998   10.9748 C   0  0  0  0  0  0  0  0  0  0  0  0
   46.6906    5.8290   12.3752 H   0  0  0  0  0  0  0  0  0  0  0  0
   46.6945    6.8967   10.9897 H   0  0  0  0  0  0  0  0  0  0  0  0
   46.1252    7.5995   13.8872 H   0  0  0  0  0  0  0  0  0  0  0  0
   46.1896    8.7116   12.6961 H   0  0  0  0  0  0  0  0  0  0  0  0
   44.2717    6.4936   12.8538 H   0  0  0  0  0  0  0  0  0  0  0  0
   45.9949    6.0350    8.8702 H   0  0  0  0  0  0  0  0  0  0  0  0
   44.8594    3.9478   12.4737 H   0  0  0  0  0  0  0  0  0  0  0  0
   44.7505    8.5471   10.6220 H   0  0  0  0  0  0  0  0  0  0  0  0
   43.3850    8.5521   11.7519 H   0  0  0  0  0  0  0  0  0  0  0  0
   43.5611    7.2332   10.5966 H   0  0  0  0  0  0  0  0  0  0  0  0
   43.9589    2.1003   11.1072 H   0  0  0  0  0  0  0  0  0  0  0  0
   45.0919    4.1767    7.5220 H   0  0  0  0  0  0  0  0  0  0  0  0
   44.0715    2.2074    8.6317 H   0  0  0  0  0  0  0  0  0  0  0  0
   45.7949   10.0692   13.2773 H   0  0  0  0  0  0  0  0  0  0  0  0
   44.2787    1.2501   10.1474 H   0  0  0  0  0  0  0  0  0  0  0  0
   45.4257    6.6082   13.0487 H   0  0  0  0  0  0  0  0  0  0  0  0
   46.7189    7.0111   11.8867 H   0  0  0  0  0  0  0  0  0  0  0  0
   44.5215    4.9024    8.7259 H   0  0  0  0  0  0  0  0  0  0  0  0
   43.2428    4.5001    9.8630 H   0  0  0  0  0  0  0  0  0  0  0  0
   46.2074    4.8773   10.6010 H   0  0  0  0  0  0  0  0  0  0  0  0
   44.9313    4.4830   11.7449 H   0  0  0  0  0  0  0  0  0  0  0  0
   43.7587    6.6330   11.1813 H   0  0  0  0  0  0  0  0  0  0  0  0
   45.0354    7.0292   10.0363 H   0  0  0  0  0  0  0  0  0  0  0  0
  2  4  1  0
  3  1  1  0
  4  1  1  0
  5  3  2  0
  6  3  1  0
  7  4  1  0
  8  6  2  0
  9  5  1  0
 10  8  1  0
 10  9  2  0
 12 17  1  0
 13 11  2  0
 14 12  2  0
 15 12  1  0
 16 11  1  0
 17 20  1  0
 18 11  1  0
 19 18  1  0
 20 19  1  0
  1 21  1  0
  1 22  1  0
  2 23  1  0
  2 24  1  0
  4 25  1  1
  5 26  1  0
  6 27  1  0
  7 28  1  0
  7 29  1  0
  7 30  1  0
  8 31  1  0
  9 32  1  0
 10 33  1  0
 15 34  1  0
 16 35  1  0
 17 36  1  0
 17 37  1  0
 18 38  1  0
 18 39  1  0
 19 40  1  0
 19 41  1  0
 20 42  1  0
 20 43  1  0
M  END
> <Uni-Dock RESULT> 
ENERGY=   -6.002  LOWER_BOUND=    2.871  UPPER_BOUND=    4.280
INTER + INTRA:          -6.002
INTER:                  -6.002
INTRA:                   0.000
UNBOUND:                 0.000

$$$$

     RDKit          3D

 43 42  0  0  0  0  0  0  0  0999 V2000
   43.8777    7.0647   11.6474 C   0  0  0  0  0  0  0  0  0  0  0  0
   45.1112    9.2087   11.5258 N   0  0  0  0  0  0  0  0  0  0  0  0
   43.9410    5.5574   11.5696 C   0  0  0  0  0  0  0  0  0  0  0  0
   45.2613    7.7498   11.6296 C   0  0  1  0  0  0  0  0  0  0  0  0
   43.6520    4.7728   12.6944 C   0  0  0  0  0  0  0  0  0  0  0  0
   44.2937    4.9217   10.3711 C   0  0  0  0  0  0  0  0  0  0  0  0
   46.0779    7.4422   12.8852 C   0  0  0  0  0  0  0  0  0  0  0  0
   44.3581    3.5292   10.3005 C   0  0  0  0  0  0  0  0  0  0  0  0
   43.7172    3.3805   12.6217 C   0  0  0  0  0  0  0  0  0  0  0  0
   44.0703    2.7592   11.4255 C   0  0  0  0  0  0  0  0  0  0  0  0
   43.9263    2.9311   11.1611 C   0  0  0  0  0  0  0  0  0  0  0  0
   45.2758    8.9424   12.5455 C   0  0  0  0  0  0  0  0  0  0  0  0
   42.8880    2.3872   11.4965 O   0  0  0  0  0  0  0  0  0  0  0  0
   46.0961    8.8021   13.4356 O   0  0  0  0  0  0  0  0  0  0  0  0
   44.9072   10.1736   12.1402 O   0  0  0  0  0  0  0  0  0  0  0  0
   44.5157    2.6318    9.9886 O   0  0  0  0  0  0  0  0  0  0  0  0
   44.5636    7.8633   11.7757 C   0  0  0  0  0  0  0  0  0  0  0  0
   44.6638    3.9887   11.9292 C   0  0  0  0  0  0  0  0  0  0  0  0
   44.2518    5.3782   11.4588 C   0  0  0  0  0  0  0  0  0  0  0  0
   44.9769    6.4697   12.2451 C   0  0  0  0  0  0  0  0  0  0  0  0
   43.2782    7.4152   10.7958 H   0  0  0  0  0  0  0  0  0  0  0  0
   43.3201    7.3680   12.5438 H   0  0  0  0  0  0  0  0  0  0  0  0
   44.5574    9.4387   10.7014 H   0  0  0  0  0  0  0  0  0  0  0  0
   44.5882    9.5602   12.3274 H   0  0  0  0  0  0  0  0  0  0  0  0
   45.8316    7.4139   10.7557 H   0  0  0  0  0  0  0  0  0  0  0  0
   43.3774    5.2407   13.6371 H   0  0  0  0  0  0  0  0  0  0  0  0
   44.5201    5.5081    9.4834 H   0  0  0  0  0  0  0  0  0  0  0  0
   45.5421    7.7340   13.7956 H   0  0  0  0  0  0  0  0  0  0  0  0
   47.0343    7.9776   12.8708 H   0  0  0  0  0  0  0  0  0  0  0  0
   46.3082    6.3742   12.9554 H   0  0  0  0  0  0  0  0  0  0  0  0
   44.6331    3.0453    9.3669 H   0  0  0  0  0  0  0  0  0  0  0  0
   43.4930    2.7802   13.4996 H   0  0  0  0  0  0  0  0  0  0  0  0
   44.1210    1.6750   11.3700 H   0  0  0  0  0  0  0  0  0  0  0  0
   45.4311   10.7774   12.7077 H   0  0  0  0  0  0  0  0  0  0  0  0
   43.9320    1.9489    9.5963 H   0  0  0  0  0  0  0  0  0  0  0  0
   44.8044    7.9848   10.7139 H   0  0  0  0  0  0  0  0  0  0  0  0
   43.4853    7.9978   11.9158 H   0  0  0  0  0  0  0  0  0  0  0  0
   44.4404    3.8515   12.9935 H   0  0  0  0  0  0  0  0  0  0  0  0
   45.7416    3.8286   11.8118 H   0  0  0  0  0  0  0  0  0  0  0  0
   43.1668    5.4983   11.5706 H   0  0  0  0  0  0  0  0  0  0  0  0
   44.4689    5.4863   10.3888 H   0  0  0  0  0  0  0  0  0  0  0  0
   46.0614    6.3483   12.1311 H   0  0  0  0  0  0  0  0  0  0  0  0
   44.7591    6.3612   13.3151 H   0  0  0  0  0  0  0  0  0  0  0  0
  2  4  1  0
  3  1  1  0
  4  1  1  0
  5  3  2  0
  6  3  1  0
  7  4  1  0
  8  6  2  0
  9  5  1  0
 10  8  1  0
 10  9  2  0
 12 17  1  0
 13 11  2  0
 14 12  2  0
 15 12  1  0
 16 11  1  0
 17 20  1  0
 18 11  1  0
 19 18  1  0
 20 19  1  0
  1 21  1  0
  1 22  1  0
  2 23  1  0
  2 24  1  0
  4 25  1  1
  5 26  1  0
  6 27  1  0
  7 28  1  0
  7 29  1  0
  7 30  1  0
  8 31  1  0
  9 32  1  0
 10 33  1  0
 15 34  1  0
 16 35  1  0
 17 36  1  0
 17 37  1  0
 18 38  1  0
 18 39  1  0
 19 40  1  0
 19 41  1  0
 20 42  1  0
 20 43  1  0
M  END
> <Uni-Dock RESULT> 
ENERGY=   -5.583  LOWER_BOUND=    3.405  UPPER_BOUND=    5.026
INTER + INTRA:          -5.583
INTER:                  -5.583
INTRA:                   0.000
UNBOUND:                 0.000

$$$$

     RDKit          3D

 43 42  0  0  0  0  0  0  0  0999 V2000
   43.8634    6.9909   11.6908 C   0  0  0  0  0  0  0  0  0  0  0  0
   45.0835    9.1422   11.5629 N   0  0  0  0  0  0  0  0  0  0  0  0
   43.9301    5.4853   11.5871 C   0  0  0  0  0  0  0  0  0  0  0  0
   45.2428    7.6825   11.6386 C   0  0  1  0  0  0  0  0  0  0  0  0
   43.6813    4.6819   12.7081 C   0  0  0  0  0  0  0  0  0  0  0  0
   44.2459    4.8701   10.3677 C   0  0  0  0  0  0  0  0  0  0  0  0
   46.1013    7.3589   12.8618 C   0  0  0  0  0  0  0  0  0  0  0  0
   44.3135    3.4792   10.2729 C   0  0  0  0  0  0  0  0  0  0  0  0
   43.7497    3.2911   12.6112 C   0  0  0  0  0  0  0  0  0  0  0  0
   44.0659    2.6903   11.3944 C   0  0  0  0  0  0  0  0  0  0  0  0
   43.9126    2.8657   11.1376 C   0  0  0  0  0  0  0  0  0  0  0  0
   45.2826    8.8606   12.5723 C   0  0  0  0  0  0  0  0  0  0  0  0
   42.8881    2.3119   11.4982 O   0  0  0  0  0  0  0  0  0  0  0  0
   46.1322    8.7101   13.4328 O   0  0  0  0  0  0  0  0  0  0  0  0
   44.8959   10.0963   12.1989 O   0  0  0  0  0  0  0  0  0  0  0  0
   44.4644    2.5876    9.9419 O   0  0  0  0  0  0  0  0  0  0  0  0
   44.5498    7.7905   11.8092 C   0  0  0  0  0  0  0  0  0  0  0  0
   44.6706    3.9144   11.8979 C   0  0  0  0  0  0  0  0  0  0  0  0
   44.2378    5.3093   11.4633 C   0  0  0  0  0  0  0  0  0  0  0  0
   44.9839    6.3916   12.2427 C   0  0  0  0  0  0  0  0  0  0  0  0
   43.2348    7.3520   10.8650 H   0  0  0  0  0  0  0  0  0  0  0  0
   43.3342    7.2776   12.6097 H   0  0  0  0  0  0  0  0  0  0  0  0
   44.5021    9.3825   10.7608 H   0  0  0  0  0  0  0  0  0  0  0  0
   44.5857    9.4786   12.3867 H   0  0  0  0  0  0  0  0  0  0  0  0
   45.7855    7.3629   10.7413 H   0  0  0  0  0  0  0  0  0  0  0  0
   43.4359    5.1336   13.6666 H   0  0  0  0  0  0  0  0  0  0  0  0
   44.4406    5.4715    9.4825 H   0  0  0  0  0  0  0  0  0  0  0  0
   45.5945    7.6339   13.7937 H   0  0  0  0  0  0  0  0  0  0  0  0
   47.0546    7.8988   12.8246 H   0  0  0  0  0  0  0  0  0  0  0  0
   46.3382    6.2910   12.9075 H   0  0  0  0  0  0  0  0  0  0  0  0
   44.5597    3.0113    9.3233 H   0  0  0  0  0  0  0  0  0  0  0  0
   43.5568    2.6761   13.4863 H   0  0  0  0  0  0  0  0  0  0  0  0
   44.1191    1.6074   11.3201 H   0  0  0  0  0  0  0  0  0  0  0  0
   45.4356   10.6936   12.7584 H   0  0  0  0  0  0  0  0  0  0  0  0
   43.8709    1.9083    9.5581 H   0  0  0  0  0  0  0  0  0  0  0  0
   44.7552    7.9298   10.7421 H   0  0  0  0  0  0  0  0  0  0  0  0
   43.4761    7.9178   11.9867 H   0  0  0  0  0  0  0  0  0  0  0  0
   44.4829    3.7595   12.9666 H   0  0  0  0  0  0  0  0  0  0  0  0
   45.7447    3.7611   11.7428 H   0  0  0  0  0  0  0  0  0  0  0  0
   43.1566    5.4227   11.6125 H   0  0  0  0  0  0  0  0  0  0  0  0
   44.4193    5.4352   10.3886 H   0  0  0  0  0  0  0  0  0  0  0  0
   46.0646    6.2770   12.0913 H   0  0  0  0  0  0  0  0  0  0  0  0
   44.8018    6.2653   13.3174 H   0  0  0  0  0  0  0  0  0  0  0  0
  2  4  1  0
  3  1  1  0
  4  1  1  0
  5  3  2  0
  6  3  1  0
  7  4  1  0
  8  6  2  0
  9  5  1  0
 10  8  1  0
 10  9  2  0
 12 17  1  0
 13 11  2  0
 14 12  2  0
 15 12  1  0
 16 11  1  0
 17 20  1  0
 18 11  1  0
 19 18  1  0
 20 19  1  0
  1 21  1  0
  1 22  1  0
  2 23  1  0
  2 24  1  0
  4 25  1  1
  5 26  1  0
  6 27  1  0
  7 28  1  0
  7 29  1  0
  7 30  1  0
  8 31  1  0
  9 32  1  0
 10 33  1  0
 15 34  1  0
 16 35  1  0
 17 36  1  0
 17 37  1  0
 18 38  1  0
 18 39  1  0
 19 40  1  0
 19 41  1  0
 20 42  1  0
 20 43  1  0
M  END
> <Uni-Dock RESULT> 
ENERGY=   -5.570  LOWER_BOUND=    3.398  UPPER_BOUND=    4.988
INTER + INTRA:          -5.570
INTER:                  -5.570
INTRA:                   0.000
UNBOUND:                 0.000

$$$$

     RDKit          3D

 43 42  0  0  0  0  0  0  0  0999 V2000
   45.0651    5.4323   10.7950 C   0  0  0  0  0  0  0  0  0  0  0  0
   43.5253    3.5012   10.6136 N   0  0  0  0  0  0  0  0  0  0  0  0
   45.3866    6.7398   11.4800 C   0  0  0  0  0  0  0  0  0  0  0  0
   43.8914    4.6623   11.4380 C   0  0  1  0  0  0  0  0  0  0  0  0
   46.5438    6.8703   12.2598 C   0  0  0  0  0  0  0  0  0  0  0  0
   44.5291    7.8409   11.3483 C   0  0  0  0  0  0  0  0  0  0  0  0
   44.2253    4.1629   12.8442 C   0  0  0  0  0  0  0  0  0  0  0  0
   44.8228    9.0473   11.9859 C   0  0  0  0  0  0  0  0  0  0  0  0
   46.8355    8.0775   12.8967 C   0  0  0  0  0  0  0  0  0  0  0  0
   45.9753    9.1652   12.7600 C   0  0  0  0  0  0  0  0  0  0  0  0
   45.8557    9.1756   12.4347 C   0  0  0  0  0  0  0  0  0  0  0  0
   44.1515    3.1813   11.4158 C   0  0  0  0  0  0  0  0  0  0  0  0
   46.9558    9.6138   12.1447 O   0  0  0  0  0  0  0  0  0  0  0  0
   44.1969    2.7267   12.5455 O   0  0  0  0  0  0  0  0  0  0  0  0
   43.8044    2.3988   10.3750 O   0  0  0  0  0  0  0  0  0  0  0  0
   44.7559    9.9443   12.3297 O   0  0  0  0  0  0  0  0  0  0  0  0
   44.4462    4.5916   10.9816 C   0  0  0  0  0  0  0  0  0  0  0  0
   45.5481    7.7807   12.8953 C   0  0  0  0  0  0  0  0  0  0  0  0
   45.1451    6.9036   11.7162 C   0  0  0  0  0  0  0  0  0  0  0  0
   44.8488    5.4725   12.1629 C   0  0  0  0  0  0  0  0  0  0  0  0
   44.8316    5.6574    9.7451 H   0  0  0  0  0  0  0  0  0  0  0  0
   45.9606    4.7968   10.7670 H   0  0  0  0  0  0  0  0  0  0  0  0
   43.3108    3.8078    9.6655 H   0  0  0  0  0  0  0  0  0  0  0  0
   44.3210    2.8684   10.5353 H   0  0  0  0  0  0  0  0  0  0  0  0
   43.0108    5.3120   11.5022 H   0  0  0  0  0  0  0  0  0  0  0  0
   47.2252    6.0311   12.3799 H   0  0  0  0  0  0  0  0  0  0  0  0
   43.6261    7.7659   10.7465 H   0  0  0  0  0  0  0  0  0  0  0  0
   45.1177    3.5269   12.8443 H   0  0  0  0  0  0  0  0  0  0  0  0
   43.3955    3.5794   13.2594 H   0  0  0  0  0  0  0  0  0  0  0  0
   44.4048    4.9986   13.5283 H   0  0  0  0  0  0  0  0  0  0  0  0
   44.1516    9.8954   11.8784 H   0  0  0  0  0  0  0  0  0  0  0  0
   47.7344    8.1690   13.5007 H   0  0  0  0  0  0  0  0  0  0  0  0
   46.2032   10.1046   13.2565 H   0  0  0  0  0  0  0  0  0  0  0  0
   43.6410    1.5216   10.7812 H   0  0  0  0  0  0  0  0  0  0  0  0
   45.0980   10.8074   12.0150 H   0  0  0  0  0  0  0  0  0  0  0  0
   43.5475    4.9974   10.5042 H   0  0  0  0  0  0  0  0  0  0  0  0
   45.2587    4.5610   10.2473 H   0  0  0  0  0  0  0  0  0  0  0  0
   46.4405    7.3844   13.3934 H   0  0  0  0  0  0  0  0  0  0  0  0
   44.7578    7.8215   13.6536 H   0  0  0  0  0  0  0  0  0  0  0  0
   45.9478    6.9005   10.9681 H   0  0  0  0  0  0  0  0  0  0  0  0
   44.2614    7.3284   11.2239 H   0  0  0  0  0  0  0  0  0  0  0  0
   44.0452    5.4778   12.9101 H   0  0  0  0  0  0  0  0  0  0  0  0
   45.7329    5.0481   12.6550 H   0  0  0  0  0  0  0  0  0  0  0  0
  2  4  1  0
  3  1  1  0
  4  1  1  0
  5  3  2  0
  6  3  1  0
  7  4  1  0
  8  6  2  0
  9  5  1  0
 10  8  1  0
 10  9  2  0
 12 17  1  0
 13 11  2  0
 14 12  2  0
 15 12  1  0
 16 11  1  0
 17 20  1  0
 18 11  1  0
 19 18  1  0
 20 19  1  0
  1 21  1  0
  1 22  1  0
  2 23  1  0
  2 24  1  0
  4 25  1  1
  5 26  1  0
  6 27  1  0
  7 28  1  0
  7 29  1  0
  7 30  1  0
  8 31  1  0
  9 32  1  0
 10 33  1  0
 15 34  1  0
 16 35  1  0
 17 36  1  0
 17 37  1  0
 18 38  1  0
 18 39  1  0
 19 40  1  0
 19 41  1  0
 20 42  1  0
 20 43  1  0
M  END
> <Uni-Dock RESULT> 
ENERGY=   -5.252  LOWER_BOUND=    3.849  UPPER_BOUND=    6.251
INTER + INTRA:          -5.252
INTER:                  -5.252
INTRA:                   0.000
UNBOUND:                 0.000

$$$$

     RDKit          3D

 43 42  0  0  0  0  0  0  0  0999 V2000
   46.7475    6.6857   11.7095 C   0  0  0  0  0  0  0  0  0  0  0  0
   48.6513    7.9499   12.6634 N   0  0  0  0  0  0  0  0  0  0  0  0
   45.4105    6.0266   11.9551 C   0  0  0  0  0  0  0  0  0  0  0  0
   47.2760    7.4942   12.9139 C   0  0  1  0  0  0  0  0  0  0  0  0
   44.2504    6.5170   11.3403 C   0  0  0  0  0  0  0  0  0  0  0  0
   45.3108    4.9166   12.8053 C   0  0  0  0  0  0  0  0  0  0  0  0
   46.4139    8.7210   13.2133 C   0  0  0  0  0  0  0  0  0  0  0  0
   44.0748    4.3111   13.0371 C   0  0  0  0  0  0  0  0  0  0  0  0
   43.0153    5.9101   11.5737 C   0  0  0  0  0  0  0  0  0  0  0  0
   42.9276    4.8080   12.4218 C   0  0  0  0  0  0  0  0  0  0  0  0
   43.2042    4.6046   12.3733 C   0  0  0  0  0  0  0  0  0  0  0  0
   47.9719    8.7443   12.4509 C   0  0  0  0  0  0  0  0  0  0  0  0
   42.6459    4.2508   11.3488 O   0  0  0  0  0  0  0  0  0  0  0  0
   47.4139    9.7405   12.8765 O   0  0  0  0  0  0  0  0  0  0  0  0
   49.2827    8.7727   12.1395 O   0  0  0  0  0  0  0  0  0  0  0  0
   43.3812    3.7470   13.3953 O   0  0  0  0  0  0  0  0  0  0  0  0
   47.3678    7.3881   12.2059 C   0  0  0  0  0  0  0  0  0  0  0  0
   43.7878    5.9605   12.6443 C   0  0  0  0  0  0  0  0  0  0  0  0
   45.2723    5.9834   12.3015 C   0  0  0  0  0  0  0  0  0  0  0  0
   45.8799    7.3633   12.5507 C   0  0  0  0  0  0  0  0  0  0  0  0
   47.4639    5.8941   11.4496 H   0  0  0  0  0  0  0  0  0  0  0  0
   46.6872    7.3302   10.8220 H   0  0  0  0  0  0  0  0  0  0  0  0
   49.2440    7.1491   12.4478 H   0  0  0  0  0  0  0  0  0  0  0  0
   48.6718    8.5497   11.8392 H   0  0  0  0  0  0  0  0  0  0  0  0
   47.2964    6.8599   13.8078 H   0  0  0  0  0  0  0  0  0  0  0  0
   44.2995    7.3779   10.6775 H   0  0  0  0  0  0  0  0  0  0  0  0
   46.1968    4.5155   13.2923 H   0  0  0  0  0  0  0  0  0  0  0  0
   46.3358    9.3808   12.3418 H   0  0  0  0  0  0  0  0  0  0  0  0
   46.8361    9.3036   14.0403 H   0  0  0  0  0  0  0  0  0  0  0  0
   45.4009    8.4298   13.5094 H   0  0  0  0  0  0  0  0  0  0  0  0
   44.0072    3.4512   13.6984 H   0  0  0  0  0  0  0  0  0  0  0  0
   42.1207    6.2982   11.0938 H   0  0  0  0  0  0  0  0  0  0  0  0
   41.9655    4.3363   12.6031 H   0  0  0  0  0  0  0  0  0  0  0  0
   49.5546    9.6932   12.3391 H   0  0  0  0  0  0  0  0  0  0  0  0
   42.9688    2.9148   13.0819 H   0  0  0  0  0  0  0  0  0  0  0  0
   47.9046    6.6582   12.8217 H   0  0  0  0  0  0  0  0  0  0  0  0
   47.5082    7.1367   11.1488 H   0  0  0  0  0  0  0  0  0  0  0  0
   43.2345    6.6929   12.0452 H   0  0  0  0  0  0  0  0  0  0  0  0
   43.6146    6.2199   13.6950 H   0  0  0  0  0  0  0  0  0  0  0  0
   45.4121    5.7002   11.2506 H   0  0  0  0  0  0  0  0  0  0  0  0
   45.8021    5.2319   12.9002 H   0  0  0  0  0  0  0  0  0  0  0  0
   45.7399    7.6440   13.6022 H   0  0  0  0  0  0  0  0  0  0  0  0
   45.3498    8.1143   11.9515 H   0  0  0  0  0  0  0  0  0  0  0  0
  2  4  1  0
  3  1  1  0
  4  1  1  0
  5  3  2  0
  6  3  1  0
  7  4  1  0
  8  6  2  0
  9  5  1  0
 10  8  1  0
 10  9  2  0
 12 17  1  0
 13 11  2  0
 14 12  2  0
 15 12  1  0
 16 11  1  0
 17 20  1  0
 18 11  1  0
 19 18  1  0
 20 19  1  0
  1 21  1  0
  1 22  1  0
  2 23  1  0
  2 24  1  0
  4 25  1  1
  5 26  1  0
  6 27  1  0
  7 28  1  0
  7 29  1  0
  7 30  1  0
  8 31  1  0
  9 32  1  0
 10 33  1  0
 15 34  1  0
 16 35  1  0
 17 36  1  0
 17 37  1  0
 18 38  1  0
 18 39  1  0
 19 40  1  0
 19 41  1  0
 20 42  1  0
 20 43  1  0
M  END
> <Uni-Dock RESULT> 
ENERGY=   -5.248  LOWER_BOUND=    5.131  UPPER_BOUND=    6.458
INTER + INTRA:          -5.248
INTER:                  -5.248
INTRA:                   0.000
UNBOUND:                 0.000

$$$$

     RDKit          3D

 43 42  0  0  0  0  0  0  0  0999 V2000
   44.5338    4.6568   12.9672 C   0  0  0  0  0  0  0  0  0  0  0  0
   44.0420    2.4063   12.0581 N   0  0  0  0  0  0  0  0  0  0  0  0
   45.4951    5.8207   13.0246 C   0  0  0  0  0  0  0  0  0  0  0  0
   44.9165    3.5811   11.9279 C   0  0  1  0  0  0  0  0  0  0  0  0
   45.1290    7.0735   12.5141 C   0  0  0  0  0  0  0  0  0  0  0  0
   46.7696    5.6628   13.5864 C   0  0  0  0  0  0  0  0  0  0  0  0
   44.8120    4.0971   10.4924 C   0  0  0  0  0  0  0  0  0  0  0  0
   47.6604    6.7363   13.6343 C   0  0  0  0  0  0  0  0  0  0  0  0
   46.0213    8.1457   12.5627 C   0  0  0  0  0  0  0  0  0  0  0  0
   47.2863    7.9770   13.1222 C   0  0  0  0  0  0  0  0  0  0  0  0
   47.2614    7.7711   13.4001 C   0  0  0  0  0  0  0  0  0  0  0  0
   43.6884    3.0234   11.2630 C   0  0  0  0  0  0  0  0  0  0  0  0
   46.8017    8.7485   13.9656 O   0  0  0  0  0  0  0  0  0  0  0  0
   43.7037    3.2367   10.0634 O   0  0  0  0  0  0  0  0  0  0  0  0
   43.0026    1.9776   11.7650 O   0  0  0  0  0  0  0  0  0  0  0  0
   48.4562    7.2645   13.7570 O   0  0  0  0  0  0  0  0  0  0  0  0
   44.3747    3.8134   12.3443 C   0  0  0  0  0  0  0  0  0  0  0  0
   46.6027    6.9884   12.3019 C   0  0  0  0  0  0  0  0  0  0  0  0
   45.8386    5.8007   12.8742 C   0  0  0  0  0  0  0  0  0  0  0  0
   45.1425    5.0034   11.7719 C   0  0  0  0  0  0  0  0  0  0  0  0
   44.4963    4.2087   13.9698 H   0  0  0  0  0  0  0  0  0  0  0  0
   43.5170    5.0233   12.7711 H   0  0  0  0  0  0  0  0  0  0  0  0
   44.0844    2.0513   13.0127 H   0  0  0  0  0  0  0  0  0  0  0  0
   43.0724    2.6780   11.8980 H   0  0  0  0  0  0  0  0  0  0  0  0
   45.9461    3.2466   12.1006 H   0  0  0  0  0  0  0  0  0  0  0  0
   44.1469    7.2228   12.0712 H   0  0  0  0  0  0  0  0  0  0  0  0
   47.0767    4.7012   13.9918 H   0  0  0  0  0  0  0  0  0  0  0  0
   43.8059    4.4712   10.2711 H   0  0  0  0  0  0  0  0  0  0  0  0
   45.0417    3.3024    9.7732 H   0  0  0  0  0  0  0  0  0  0  0  0
   45.5228    4.9099   10.3115 H   0  0  0  0  0  0  0  0  0  0  0  0
   48.6467    6.6041   14.0713 H   0  0  0  0  0  0  0  0  0  0  0  0
   45.7293    9.1132   12.1629 H   0  0  0  0  0  0  0  0  0  0  0  0
   47.9804    8.8123   13.1594 H   0  0  0  0  0  0  0  0  0  0  0  0
   42.6079    1.5511   10.9755 H   0  0  0  0  0  0  0  0  0  0  0  0
   48.7603    7.8567   14.4767 H   0  0  0  0  0  0  0  0  0  0  0  0
   45.0639    3.1447   12.8715 H   0  0  0  0  0  0  0  0  0  0  0  0
   43.6116    4.1669   13.0466 H   0  0  0  0  0  0  0  0  0  0  0  0
   45.9309    7.6644   11.7606 H   0  0  0  0  0  0  0  0  0  0  0  0
   47.3671    6.6661   11.5856 H   0  0  0  0  0  0  0  0  0  0  0  0
   45.0969    6.1555   13.6008 H   0  0  0  0  0  0  0  0  0  0  0  0
   46.5273    5.1480   13.4249 H   0  0  0  0  0  0  0  0  0  0  0  0
   45.8860    4.6487   11.0470 H   0  0  0  0  0  0  0  0  0  0  0  0
   44.4537    5.6566   11.2217 H   0  0  0  0  0  0  0  0  0  0  0  0
  2  4  1  0
  3  1  1  0
  4  1  1  0
  5  3  2  0
  6  3  1  0
  7  4  1  0
  8  6  2  0
  9  5  1  0
 10  8  1  0
 10  9  2  0
 12 17  1  0
 13 11  2  0
 14 12  2  0
 15 12  1  0
 16 11  1  0
 17 20  1  0
 18 11  1  0
 19 18  1  0
 20 19  1  0
  1 21  1  0
  1 22  1  0
  2 23  1  0
  2 24  1  0
  4 25  1  1
  5 26  1  0
  6 27  1  0
  7 28  1  0
  7 29  1  0
  7 30  1  0
  8 31  1  0
  9 32  1  0
 10 33  1  0
 15 34  1  0
 16 35  1  0
 17 36  1  0
 17 37  1  0
 18 38  1  0
 18 39  1  0
 19 40  1  0
 19 41  1  0
 20 42  1  0
 20 43  1  0
M  END
> <Uni-Dock RESULT> 
ENERGY=   -5.234  LOWER_BOUND=    3.546  UPPER_BOUND=    6.179
INTER + INTRA:          -5.234
INTER:                  -5.234
INTRA:                   0.000
UNBOUND:                 0.000

$$$$

     RDKit          3D

 43 42  0  0  0  0  0  0  0  0999 V2000
   46.4203    7.3251   12.2142 C   0  0  0  0  0  0  0  0  0  0  0  0
   48.8666    7.6054   12.4783 N   0  0  0  0  0  0  0  0  0  0  0  0
   45.2686    6.3746   11.9855 C   0  0  0  0  0  0  0  0  0  0  0  0
   47.7749    6.6211   12.4449 C   0  0  1  0  0  0  0  0  0  0  0  0
   44.2944    6.1841   12.9749 C   0  0  0  0  0  0  0  0  0  0  0  0
   45.1601    5.6661   10.7809 C   0  0  0  0  0  0  0  0  0  0  0  0
   47.8036    5.8319   13.7543 C   0  0  0  0  0  0  0  0  0  0  0  0
   44.0994    4.7833   10.5716 C   0  0  0  0  0  0  0  0  0  0  0  0
   43.2346    5.3007   12.7637 C   0  0  0  0  0  0  0  0  0  0  0  0
   43.1374    4.6005   11.5629 C   0  0  0  0  0  0  0  0  0  0  0  0
   43.2330    4.8080   11.3020 C   0  0  0  0  0  0  0  0  0  0  0  0
   48.5864    7.3548   13.4766 C   0  0  0  0  0  0  0  0  0  0  0  0
   42.1409    5.3313   11.4433 O   0  0  0  0  0  0  0  0  0  0  0  0
   48.8094    6.6478   14.4437 O   0  0  0  0  0  0  0  0  0  0  0  0
   49.4179    8.3672   13.1608 O   0  0  0  0  0  0  0  0  0  0  0  0
   43.5263    4.1107   10.1888 O   0  0  0  0  0  0  0  0  0  0  0  0
   47.4354    7.2545   12.5125 C   0  0  0  0  0  0  0  0  0  0  0  0
   44.3818    4.8753   12.2655 C   0  0  0  0  0  0  0  0  0  0  0  0
   45.3246    6.0141   11.8967 C   0  0  0  0  0  0  0  0  0  0  0  0
   46.4903    6.1121   12.8800 C   0  0  0  0  0  0  0  0  0  0  0  0
   46.4871    7.9814   11.3354 H   0  0  0  0  0  0  0  0  0  0  0  0
   46.1930    7.9885   13.0596 H   0  0  0  0  0  0  0  0  0  0  0  0
   48.8598    8.1543   11.6194 H   0  0  0  0  0  0  0  0  0  0  0  0
   48.7132    8.2658   13.2398 H   0  0  0  0  0  0  0  0  0  0  0  0
   47.9798    5.9290   11.6199 H   0  0  0  0  0  0  0  0  0  0  0  0
   44.3556    6.7200   13.9194 H   0  0  0  0  0  0  0  0  0  0  0  0
   45.9019    5.7983    9.9963 H   0  0  0  0  0  0  0  0  0  0  0  0
   47.5778    6.4714   14.6151 H   0  0  0  0  0  0  0  0  0  0  0  0
   48.7897    5.3819   13.9183 H   0  0  0  0  0  0  0  0  0  0  0  0
   47.0756    5.0144   13.7394 H   0  0  0  0  0  0  0  0  0  0  0  0
   44.0240    4.2379    9.6345 H   0  0  0  0  0  0  0  0  0  0  0  0
   42.4845    5.1581   13.5373 H   0  0  0  0  0  0  0  0  0  0  0  0
   42.3120    3.9127   11.3995 H   0  0  0  0  0  0  0  0  0  0  0  0
   50.1129    8.3282   13.8510 H   0  0  0  0  0  0  0  0  0  0  0  0
   42.7052    4.1577    9.6553 H   0  0  0  0  0  0  0  0  0  0  0  0
   47.8432    7.0917   11.5088 H   0  0  0  0  0  0  0  0  0  0  0  0
   46.8920    8.2057   12.5281 H   0  0  0  0  0  0  0  0  0  0  0  0
   43.9714    5.0148   13.2722 H   0  0  0  0  0  0  0  0  0  0  0  0
   44.9010    3.9100   12.2695 H   0  0  0  0  0  0  0  0  0  0  0  0
   44.7704    6.9610   11.8820 H   0  0  0  0  0  0  0  0  0  0  0  0
   45.7092    5.8620   10.8804 H   0  0  0  0  0  0  0  0  0  0  0  0
   47.0437    5.1647   12.8924 H   0  0  0  0  0  0  0  0  0  0  0  0
   46.1051    6.2645   13.8961 H   0  0  0  0  0  0  0  0  0  0  0  0
  2  4  1  0
  3  1  1  0
  4  1  1  0
  5  3  2  0
  6  3  1  0
  7  4  1  0
  8  6  2  0
  9  5  1  0
 10  8  1  0
 10  9  2  0
 12 17  1  0
 13 11  2  0
 14 12  2  0
 15 12  1  0
 16 11  1  0
 17 20  1  0
 18 11  1  0
 19 18  1  0
 20 19  1  0
  1 21  1  0
  1 22  1  0
  2 23  1  0
  2 24  1  0
  4 25  1  1
  5 26  1  0
  6 27  1  0
  7 28  1  0
  7 29  1  0
  7 30  1  0
  8 31  1  0
  9 32  1  0
 10 33  1  0
 15 34  1  0
 16 35  1  0
 17 36  1  0
 17 37  1  0
 18 38  1  0
 18 39  1  0
 19 40  1  0
 19 41  1  0
 20 42  1  0
 20 43  1  0
M  END
> <Uni-Dock RESULT> 
ENERGY=   -4.923  LOWER_BOUND=    4.121  UPPER_BOUND=    6.029
INTER + INTRA:          -4.923
INTER:                  -4.923
INTRA:                   0.000
UNBOUND:                 0.000

$$$$

     RDKit          3D

 43 42  0  0  0  0  0  0  0  0999 V2000
   44.7175    6.8312   11.6642 C   0  0  0  0  0  0  0  0  0  0  0  0
   42.6058    5.6559   12.2048 N   0  0  0  0  0  0  0  0  0  0  0  0
   46.0227    7.3958   12.1738 C   0  0  0  0  0  0  0  0  0  0  0  0
   43.9365    6.0151   12.7167 C   0  0  1  0  0  0  0  0  0  0  0  0
   47.2456    6.8559   11.7531 C   0  0  0  0  0  0  0  0  0  0  0  0
   46.0289    8.4664   13.0788 C   0  0  0  0  0  0  0  0  0  0  0  0
   44.6613    4.7266   13.1073 C   0  0  0  0  0  0  0  0  0  0  0  0
   47.2345    8.9844   13.5546 C   0  0  0  0  0  0  0  0  0  0  0  0
   48.4501    7.3753   12.2302 C   0  0  0  0  0  0  0  0  0  0  0  0
   48.4444    8.4387   13.1306 C   0  0  0  0  0  0  0  0  0  0  0  0
   48.1928    8.6606   13.0431 C   0  0  0  0  0  0  0  0  0  0  0  0
   43.2673    4.8284   12.0799 C   0  0  0  0  0  0  0  0  0  0  0  0
   48.9454    9.0150   12.1518 O   0  0  0  0  0  0  0  0  0  0  0  0
   43.6835    3.7846   12.5512 O   0  0  0  0  0  0  0  0  0  0  0  0
   42.0346    4.8936   11.5394 O   0  0  0  0  0  0  0  0  0  0  0  0
   47.8822    9.4907   14.0561 O   0  0  0  0  0  0  0  0  0  0  0  0
   43.9799    6.1519   12.0093 C   0  0  0  0  0  0  0  0  0  0  0  0
   47.4957    7.3353   13.1429 C   0  0  0  0  0  0  0  0  0  0  0  0
   46.0983    7.4180   12.5410 C   0  0  0  0  0  0  0  0  0  0  0  0
   45.3804    6.0709   12.6139 C   0  0  0  0  0  0  0  0  0  0  0  0
   44.1046    7.6751   11.3181 H   0  0  0  0  0  0  0  0  0  0  0  0
   44.9009    6.2163   10.7727 H   0  0  0  0  0  0  0  0  0  0  0  0
   42.1070    6.4995   11.9246 H   0  0  0  0  0  0  0  0  0  0  0  0
   42.7010    5.0884   11.3631 H   0  0  0  0  0  0  0  0  0  0  0  0
   43.7905    6.6171   13.6211 H   0  0  0  0  0  0  0  0  0  0  0  0
   47.2692    6.0239   11.0529 H   0  0  0  0  0  0  0  0  0  0  0  0
   45.0932    8.9047   13.4186 H   0  0  0  0  0  0  0  0  0  0  0  0
   44.8585    4.0947   12.2339 H   0  0  0  0  0  0  0  0  0  0  0  0
   44.0653    4.1425   13.8182 H   0  0  0  0  0  0  0  0  0  0  0  0
   45.6188    4.9429   13.5920 H   0  0  0  0  0  0  0  0  0  0  0  0
   47.2292    9.8142   14.2565 H   0  0  0  0  0  0  0  0  0  0  0  0
   49.3937    6.9491   11.8996 H   0  0  0  0  0  0  0  0  0  0  0  0
   49.3827    8.8422   13.5017 H   0  0  0  0  0  0  0  0  0  0  0  0
   41.6806    3.9855   11.6445 H   0  0  0  0  0  0  0  0  0  0  0  0
   48.3899   10.3060   13.8599 H   0  0  0  0  0  0  0  0  0  0  0  0
   43.3822    6.8917   12.5530 H   0  0  0  0  0  0  0  0  0  0  0  0
   44.0464    6.4492   10.9568 H   0  0  0  0  0  0  0  0  0  0  0  0
   48.1065    6.5915   12.6185 H   0  0  0  0  0  0  0  0  0  0  0  0
   47.4620    7.0282   14.1945 H   0  0  0  0  0  0  0  0  0  0  0  0
   46.1661    7.7467   11.4963 H   0  0  0  0  0  0  0  0  0  0  0  0
   45.5118    8.1794   13.0701 H   0  0  0  0  0  0  0  0  0  0  0  0
   45.3127    5.7447   13.6594 H   0  0  0  0  0  0  0  0  0  0  0  0
   45.9673    5.3099   12.0844 H   0  0  0  0  0  0  0  0  0  0  0  0
  2  4  1  0
  3  1  1  0
  4  1  1  0
  5  3  2  0
  6  3  1  0
  7  4  1  0
  8  6  2  0
  9  5  1  0
 10  8  1  0
 10  9  2  0
 12 17  1  0
 13 11  2  0
 14 12  2  0
 15 12  1  0
 16 11  1  0
 17 20  1  0
 18 11  1  0
 19 18  1  0
 20 19  1  0
  1 21  1  0
  1 22  1  0
  2 23  1  0
  2 24  1  0
  4 25  1  1
  5 26  1  0
  6 27  1  0
  7 28  1  0
  7 29  1  0
  7 30  1  0
  8 31  1  0
  9 32  1  0
 10 33  1  0
 15 34  1  0
 16 35  1  0
 17 36  1  0
 17 37  1  0
 18 38  1  0
 18 39  1  0
 19 40  1  0
 19 41  1  0
 20 42  1  0
 20 43  1  0
M  END
> <Uni-Dock RESULT> 
ENERGY=   -4.817  LOWER_BOUND=    5.035  UPPER_BOUND=    6.427
INTER + INTRA:          -4.817
INTER:                  -4.817
INTRA:                   0.000
UNBOUND:                 0.000

$$$$
