
     RDKit          3D

 43 42  0  0  0  0  0  0  0  0999 V2000
   45.4044    4.5624    9.5114 C   0  0  0  0  0  0  0  0  0  0  0  0
   45.5795    3.3580    7.3546 N   0  0  0  0  0  0  0  0  0  0  0  0
   44.6475    4.7445   10.8060 C   0  0  0  0  0  0  0  0  0  0  0  0
   44.9232    3.3603    8.6703 C   0  0  1  0  0  0  0  0  0  0  0  0
   43.3278    5.2174   10.7975 C   0  0  0  0  0  0  0  0  0  0  0  0
   45.2515    4.4404   12.0335 C   0  0  0  0  0  0  0  0  0  0  0  0
   45.2133    2.0221    9.3508 C   0  0  0  0  0  0  0  0  0  0  0  0
   44.5480    4.6037   13.2280 C   0  0  0  0  0  0  0  0  0  0  0  0
   42.6263    5.3801   11.9930 C   0  0  0  0  0  0  0  0  0  0  0  0
   43.2360    5.0730   13.2076 C   0  0  0  0  0  0  0  0  0  0  0  0
   45.2532    3.6019    7.8135 C   0  0  0  0  0  0  0  0  0  0  0  0
   44.3049    5.4874   12.2566 C   0  0  0  0  0  0  0  0  0  0  0  0
   44.3071    3.8974    7.1046 O   0  0  0  0  0  0  0  0  0  0  0  0
   44.9408    6.3596   11.6894 O   0  0  0  0  0  0  0  0  0  0  0  0
   43.1657    5.7745   12.9115 O   0  0  0  0  0  0  0  0  0  0  0  0
   46.4799    3.4292    7.2824 O   0  0  0  0  0  0  0  0  0  0  0  0
   44.6548    4.0279   12.3024 C   0  0  0  0  0  0  0  0  0  0  0  0
   45.2531    3.3828    9.3031 C   0  0  0  0  0  0  0  0  0  0  0  0
   43.8547    3.5493    9.8964 C   0  0  0  0  0  0  0  0  0  0  0  0
   43.7711    3.1894   11.3841 C   0  0  0  0  0  0  0  0  0  0  0  0
   46.4790    4.4697    9.7184 H   0  0  0  0  0  0  0  0  0  0  0  0
   45.2958    5.4894    8.9314 H   0  0  0  0  0  0  0  0  0  0  0  0
   45.4113    4.2474    6.8859 H   0  0  0  0  0  0  0  0  0  0  0  0
   46.5895    3.2847    7.4725 H   0  0  0  0  0  0  0  0  0  0  0  0
   43.8429    3.4342    8.4998 H   0  0  0  0  0  0  0  0  0  0  0  0
   42.8377    5.4630    9.8580 H   0  0  0  0  0  0  0  0  0  0  0  0
   46.2736    4.0704   12.0684 H   0  0  0  0  0  0  0  0  0  0  0  0
   44.6617    1.9292   10.2918 H   0  0  0  0  0  0  0  0  0  0  0  0
   46.2806    1.9051    9.5705 H   0  0  0  0  0  0  0  0  0  0  0  0
   44.9067    1.1846    8.7136 H   0  0  0  0  0  0  0  0  0  0  0  0
   45.0239    4.3637   14.1752 H   0  0  0  0  0  0  0  0  0  0  0  0
   41.6033    5.7467   11.9764 H   0  0  0  0  0  0  0  0  0  0  0  0
   42.6891    5.1995   14.1381 H   0  0  0  0  0  0  0  0  0  0  0  0
   43.0554    6.7411   12.7900 H   0  0  0  0  0  0  0  0  0  0  0  0
   46.3512    3.6079    6.3273 H   0  0  0  0  0  0  0  0  0  0  0  0
   44.5550    3.6858   13.3394 H   0  0  0  0  0  0  0  0  0  0  0  0
   45.7145    3.9160   12.0500 H   0  0  0  0  0  0  0  0  0  0  0  0
   45.6203    2.3693    9.4983 H   0  0  0  0  0  0  0  0  0  0  0  0
   45.9433    4.1078    9.7462 H   0  0  0  0  0  0  0  0  0  0  0  0
   43.5055    4.5770    9.7377 H   0  0  0  0  0  0  0  0  0  0  0  0
   43.1517    2.9057    9.3517 H   0  0  0  0  0  0  0  0  0  0  0  0
   44.0374    2.1328   11.5107 H   0  0  0  0  0  0  0  0  0  0  0  0
   42.7251    3.2866   11.7006 H   0  0  0  0  0  0  0  0  0  0  0  0
  2  4  1  0
  3  1  1  0
  4  1  1  0
  5  3  2  0
  6  3  1  0
  7  4  1  0
  8  6  2  0
  9  5  1  0
 10  8  1  0
 10  9  2  0
 12 17  1  0
 13 11  2  0
 14 12  2  0
 15 12  1  0
 16 11  1  0
 17 20  1  0
 18 11  1  0
 19 18  1  0
 20 19  1  0
  1 21  1  0
  1 22  1  0
  2 23  1  0
  2 24  1  0
  4 25  1  1
  5 26  1  0
  6 27  1  0
  7 28  1  0
  7 29  1  0
  7 30  1  0
  8 31  1  0
  9 32  1  0
 10 33  1  0
 15 34  1  0
 16 35  1  0
 17 36  1  0
 17 37  1  0
 18 38  1  0
 18 39  1  0
 19 40  1  0
 19 41  1  0
 20 42  1  0
 20 43  1  0
M  END
> <Uni-Dock RESULT> 
ENERGY=   -5.358  LOWER_BOUND=    0.000  UPPER_BOUND=    0.000
INTER + INTRA:          -5.358
INTER:                  -5.358
INTRA:                   0.000
UNBOUND:                 0.000

$$$$

     RDKit          3D

 43 42  0  0  0  0  0  0  0  0999 V2000
   44.7558    6.8254   12.5629 C   0  0  0  0  0  0  0  0  0  0  0  0
   46.5217    8.5065   12.9963 N   0  0  0  0  0  0  0  0  0  0  0  0
   44.4124    5.4514   12.0371 C   0  0  0  0  0  0  0  0  0  0  0  0
   46.2727    7.0991   12.6518 C   0  0  1  0  0  0  0  0  0  0  0  0
   44.5962    5.1425   10.6820 C   0  0  0  0  0  0  0  0  0  0  0  0
   43.9090    4.4649   12.8958 C   0  0  0  0  0  0  0  0  0  0  0  0
   46.9607    6.2224   13.6988 C   0  0  0  0  0  0  0  0  0  0  0  0
   43.5982    3.1943   12.4087 C   0  0  0  0  0  0  0  0  0  0  0  0
   44.2846    3.8714   10.1971 C   0  0  0  0  0  0  0  0  0  0  0  0
   43.7863    2.8977   11.0602 C   0  0  0  0  0  0  0  0  0  0  0  0
   46.2795    8.0483   12.6680 C   0  0  0  0  0  0  0  0  0  0  0  0
   43.3752    4.2270   11.5918 C   0  0  0  0  0  0  0  0  0  0  0  0
   46.7281    8.4494   11.6083 O   0  0  0  0  0  0  0  0  0  0  0  0
   42.6240    5.1875   11.5824 O   0  0  0  0  0  0  0  0  0  0  0  0
   43.3664    3.3301   10.5895 O   0  0  0  0  0  0  0  0  0  0  0  0
   46.1085    8.8937   13.7037 O   0  0  0  0  0  0  0  0  0  0  0  0
   44.3904    3.9105   12.6520 C   0  0  0  0  0  0  0  0  0  0  0  0
   45.8600    6.6450   13.0167 C   0  0  0  0  0  0  0  0  0  0  0  0
   46.0844    5.6840   11.8499 C   0  0  0  0  0  0  0  0  0  0  0  0
   45.8154    4.2165   12.2017 C   0  0  0  0  0  0  0  0  0  0  0  0
   44.2891    6.9750   13.5458 H   0  0  0  0  0  0  0  0  0  0  0  0
   44.2833    7.5617   11.8981 H   0  0  0  0  0  0  0  0  0  0  0  0
   46.0606    9.1123   12.3186 H   0  0  0  0  0  0  0  0  0  0  0  0
   46.1026    8.7202   13.9008 H   0  0  0  0  0  0  0  0  0  0  0  0
   46.7426    6.9094   11.6797 H   0  0  0  0  0  0  0  0  0  0  0  0
   44.9830    5.8916    9.9947 H   0  0  0  0  0  0  0  0  0  0  0  0
   43.7584    4.6777   13.9518 H   0  0  0  0  0  0  0  0  0  0  0  0
   46.8944    5.1626   13.4325 H   0  0  0  0  0  0  0  0  0  0  0  0
   46.5117    6.3516   14.6901 H   0  0  0  0  0  0  0  0  0  0  0  0
   48.0259    6.4689   13.7766 H   0  0  0  0  0  0  0  0  0  0  0  0
   43.2098    2.4349   13.0824 H   0  0  0  0  0  0  0  0  0  0  0  0
   44.4311    3.6410    9.1451 H   0  0  0  0  0  0  0  0  0  0  0  0
   43.5442    1.9081   10.6821 H   0  0  0  0  0  0  0  0  0  0  0  0
   42.6788    3.6627    9.9750 H   0  0  0  0  0  0  0  0  0  0  0  0
   46.4014    9.7605   13.3521 H   0  0  0  0  0  0  0  0  0  0  0  0
   44.2945    2.8491   12.9097 H   0  0  0  0  0  0  0  0  0  0  0  0
   44.1297    4.4647   13.5598 H   0  0  0  0  0  0  0  0  0  0  0  0
   46.4464    6.3196   13.8830 H   0  0  0  0  0  0  0  0  0  0  0  0
   44.8000    6.6723   13.2888 H   0  0  0  0  0  0  0  0  0  0  0  0
   45.4641    5.9864   10.9972 H   0  0  0  0  0  0  0  0  0  0  0  0
   47.1246    5.7659   11.5089 H   0  0  0  0  0  0  0  0  0  0  0  0
   46.5073    3.9075   12.9948 H   0  0  0  0  0  0  0  0  0  0  0  0
   46.0564    3.6051   11.3230 H   0  0  0  0  0  0  0  0  0  0  0  0
  2  4  1  0
  3  1  1  0
  4  1  1  0
  5  3  2  0
  6  3  1  0
  7  4  1  0
  8  6  2  0
  9  5  1  0
 10  8  1  0
 10  9  2  0
 12 17  1  0
 13 11  2  0
 14 12  2  0
 15 12  1  0
 16 11  1  0
 17 20  1  0
 18 11  1  0
 19 18  1  0
 20 19  1  0
  1 21  1  0
  1 22  1  0
  2 23  1  0
  2 24  1  0
  4 25  1  1
  5 26  1  0
  6 27  1  0
  7 28  1  0
  7 29  1  0
  7 30  1  0
  8 31  1  0
  9 32  1  0
 10 33  1  0
 15 34  1  0
 16 35  1  0
 17 36  1  0
 17 37  1  0
 18 38  1  0
 18 39  1  0
 19 40  1  0
 19 41  1  0
 20 42  1  0
 20 43  1  0
M  END
> <Uni-Dock RESULT> 
ENERGY=   -4.807  LOWER_BOUND=    2.563  UPPER_BOUND=    4.477
INTER + INTRA:          -4.807
INTER:                  -4.807
INTRA:                   0.000
UNBOUND:                 0.000

$$$$

     RDKit          3D

 43 42  0  0  0  0  0  0  0  0999 V2000
   45.7298    3.0407    9.5345 C   0  0  0  0  0  0  0  0  0  0  0  0
   46.2951    3.3149    7.1391 N   0  0  0  0  0  0  0  0  0  0  0  0
   45.0420    3.6154   10.7505 C   0  0  0  0  0  0  0  0  0  0  0  0
   45.4540    3.8235    8.2325 C   0  0  1  0  0  0  0  0  0  0  0  0
   45.4905    4.8153   11.3202 C   0  0  0  0  0  0  0  0  0  0  0  0
   43.9441    2.9604   11.3245 C   0  0  0  0  0  0  0  0  0  0  0  0
   43.9920    3.7263    7.7951 C   0  0  0  0  0  0  0  0  0  0  0  0
   43.3064    3.4966   12.4445 C   0  0  0  0  0  0  0  0  0  0  0  0
   44.8515    5.3496   12.4401 C   0  0  0  0  0  0  0  0  0  0  0  0
   43.7598    4.6907   13.0016 C   0  0  0  0  0  0  0  0  0  0  0  0
   46.1869    3.5412    7.6990 C   0  0  0  0  0  0  0  0  0  0  0  0
   44.6290    3.6634   12.3631 C   0  0  0  0  0  0  0  0  0  0  0  0
   46.9523    4.4800    7.5666 O   0  0  0  0  0  0  0  0  0  0  0  0
   45.6053    2.9334   12.3914 O   0  0  0  0  0  0  0  0  0  0  0  0
   44.4791    4.6558   13.2586 O   0  0  0  0  0  0  0  0  0  0  0  0
   46.3303    2.4292    6.9509 O   0  0  0  0  0  0  0  0  0  0  0  0
   43.5035    3.5946   11.3715 C   0  0  0  0  0  0  0  0  0  0  0  0
   45.0180    3.4336    8.6419 C   0  0  0  0  0  0  0  0  0  0  0  0
   44.8404    4.7082    9.4660 C   0  0  0  0  0  0  0  0  0  0  0  0
   43.5757    4.7090   10.3323 C   0  0  0  0  0  0  0  0  0  0  0  0
   45.4432    1.9881    9.4076 H   0  0  0  0  0  0  0  0  0  0  0  0
   46.8092    3.0287    9.7397 H   0  0  0  0  0  0  0  0  0  0  0  0
   47.2760    3.3571    7.4128 H   0  0  0  0  0  0  0  0  0  0  0  0
   46.0878    2.3306    6.9729 H   0  0  0  0  0  0  0  0  0  0  0  0
   45.7024    4.8816    8.3749 H   0  0  0  0  0  0  0  0  0  0  0  0
   46.3422    5.3415   10.8948 H   0  0  0  0  0  0  0  0  0  0  0  0
   43.5748    2.0289   10.9014 H   0  0  0  0  0  0  0  0  0  0  0  0
   43.3273    4.1883    8.5319 H   0  0  0  0  0  0  0  0  0  0  0  0
   43.6797    2.6842    7.6630 H   0  0  0  0  0  0  0  0  0  0  0  0
   43.8325    4.2489    6.8448 H   0  0  0  0  0  0  0  0  0  0  0  0
   42.4546    2.9825   12.8820 H   0  0  0  0  0  0  0  0  0  0  0  0
   45.2060    6.2807   12.8744 H   0  0  0  0  0  0  0  0  0  0  0  0
   43.2624    5.1075   13.8734 H   0  0  0  0  0  0  0  0  0  0  0  0
   45.2773    4.5919   13.8243 H   0  0  0  0  0  0  0  0  0  0  0  0
   47.1172    2.6167    6.3974 H   0  0  0  0  0  0  0  0  0  0  0  0
   42.5583    3.6530   11.9241 H   0  0  0  0  0  0  0  0  0  0  0  0
   43.5151    2.6062   10.9001 H   0  0  0  0  0  0  0  0  0  0  0  0
   44.1168    3.2480    8.0473 H   0  0  0  0  0  0  0  0  0  0  0  0
   45.1985    2.5772    9.2995 H   0  0  0  0  0  0  0  0  0  0  0  0
   45.7260    4.8697   10.0929 H   0  0  0  0  0  0  0  0  0  0  0  0
   44.7891    5.5717    8.7901 H   0  0  0  0  0  0  0  0  0  0  0  0
   42.6968    4.6371    9.6799 H   0  0  0  0  0  0  0  0  0  0  0  0
   43.5091    5.6803   10.8381 H   0  0  0  0  0  0  0  0  0  0  0  0
  2  4  1  0
  3  1  1  0
  4  1  1  0
  5  3  2  0
  6  3  1  0
  7  4  1  0
  8  6  2  0
  9  5  1  0
 10  8  1  0
 10  9  2  0
 12 17  1  0
 13 11  2  0
 14 12  2  0
 15 12  1  0
 16 11  1  0
 17 20  1  0
 18 11  1  0
 19 18  1  0
 20 19  1  0
  1 21  1  0
  1 22  1  0
  2 23  1  0
  2 24  1  0
  4 25  1  1
  5 26  1  0
  6 27  1  0
  7 28  1  0
  7 29  1  0
  7 30  1  0
  8 31  1  0
  9 32  1  0
 10 33  1  0
 15 34  1  0
 16 35  1  0
 17 36  1  0
 17 37  1  0
 18 38  1  0
 18 39  1  0
 19 40  1  0
 19 41  1  0
 20 42  1  0
 20 43  1  0
M  END
> <Uni-Dock RESULT> 
ENERGY=   -4.617  LOWER_BOUND=    1.178  UPPER_BOUND=    1.844
INTER + INTRA:          -4.617
INTER:                  -4.617
INTRA:                   0.000
UNBOUND:                 0.000

$$$$

     RDKit          3D

 43 42  0  0  0  0  0  0  0  0999 V2000
   44.1841    3.5108    9.2092 C   0  0  0  0  0  0  0  0  0  0  0  0
   45.8064    2.8807    7.4474 N   0  0  0  0  0  0  0  0  0  0  0  0
   43.9669    4.1009   10.5828 C   0  0  0  0  0  0  0  0  0  0  0  0
   45.6366    3.6319    8.6999 C   0  0  1  0  0  0  0  0  0  0  0  0
   44.4707    3.4562   11.7212 C   0  0  0  0  0  0  0  0  0  0  0  0
   43.2625    5.3023   10.7392 C   0  0  0  0  0  0  0  0  0  0  0  0
   46.0434    5.0836    8.4446 C   0  0  0  0  0  0  0  0  0  0  0  0
   43.0684    5.8487   12.0089 C   0  0  0  0  0  0  0  0  0  0  0  0
   44.2753    4.0043   12.9898 C   0  0  0  0  0  0  0  0  0  0  0  0
   43.5749    5.2001   13.1334 C   0  0  0  0  0  0  0  0  0  0  0  0
   45.6470    2.9538    8.0354 C   0  0  0  0  0  0  0  0  0  0  0  0
   43.0583    4.5165   11.9151 C   0  0  0  0  0  0  0  0  0  0  0  0
   46.3422    2.0350    8.4323 O   0  0  0  0  0  0  0  0  0  0  0  0
   42.3396    3.6828   11.3903 O   0  0  0  0  0  0  0  0  0  0  0  0
   43.2850    4.5007   13.2408 O   0  0  0  0  0  0  0  0  0  0  0  0
   45.2374    2.9984    6.7521 O   0  0  0  0  0  0  0  0  0  0  0  0
   43.7839    5.6260   11.2101 C   0  0  0  0  0  0  0  0  0  0  0  0
   45.1440    4.1336    8.8241 C   0  0  0  0  0  0  0  0  0  0  0  0
   45.6363    4.0951   10.2703 C   0  0  0  0  0  0  0  0  0  0  0  0
   45.2781    5.3495   11.0753 C   0  0  0  0  0  0  0  0  0  0  0  0
   43.4945    3.9752    8.4915 H   0  0  0  0  0  0  0  0  0  0  0  0
   43.8927    2.4523    9.2540 H   0  0  0  0  0  0  0  0  0  0  0  0
   45.5281    1.9104    7.5890 H   0  0  0  0  0  0  0  0  0  0  0  0
   45.1825    3.2546    6.7330 H   0  0  0  0  0  0  0  0  0  0  0  0
   46.3262    3.2044    9.4369 H   0  0  0  0  0  0  0  0  0  0  0  0
   45.0186    2.5213   11.6266 H   0  0  0  0  0  0  0  0  0  0  0  0
   42.8625    5.8237    9.8725 H   0  0  0  0  0  0  0  0  0  0  0  0
   46.0347    5.6655    9.3718 H   0  0  0  0  0  0  0  0  0  0  0  0
   45.3688    5.5715    7.7319 H   0  0  0  0  0  0  0  0  0  0  0  0
   47.0600    5.1394    8.0387 H   0  0  0  0  0  0  0  0  0  0  0  0
   42.5222    6.7817   12.1204 H   0  0  0  0  0  0  0  0  0  0  0  0
   44.6702    3.4976   13.8665 H   0  0  0  0  0  0  0  0  0  0  0  0
   43.4234    5.6265   14.1215 H   0  0  0  0  0  0  0  0  0  0  0  0
   42.7694    3.7320   13.5639 H   0  0  0  0  0  0  0  0  0  0  0  0
   45.6139    2.1850    6.3555 H   0  0  0  0  0  0  0  0  0  0  0  0
   43.6198    6.5525   11.7731 H   0  0  0  0  0  0  0  0  0  0  0  0
   43.3158    5.7819   10.2325 H   0  0  0  0  0  0  0  0  0  0  0  0
   45.5006    5.0469    8.3353 H   0  0  0  0  0  0  0  0  0  0  0  0
   44.0500    4.1122    8.7938 H   0  0  0  0  0  0  0  0  0  0  0  0
   45.2435    3.2016   10.7710 H   0  0  0  0  0  0  0  0  0  0  0  0
   46.7288    3.9878   10.2777 H   0  0  0  0  0  0  0  0  0  0  0  0
   45.7548    6.2204   10.6090 H   0  0  0  0  0  0  0  0  0  0  0  0
   45.7196    5.2512   12.0749 H   0  0  0  0  0  0  0  0  0  0  0  0
  2  4  1  0
  3  1  1  0
  4  1  1  0
  5  3  2  0
  6  3  1  0
  7  4  1  0
  8  6  2  0
  9  5  1  0
 10  8  1  0
 10  9  2  0
 12 17  1  0
 13 11  2  0
 14 12  2  0
 15 12  1  0
 16 11  1  0
 17 20  1  0
 18 11  1  0
 19 18  1  0
 20 19  1  0
  1 21  1  0
  1 22  1  0
  2 23  1  0
  2 24  1  0
  4 25  1  1
  5 26  1  0
  6 27  1  0
  7 28  1  0
  7 29  1  0
  7 30  1  0
  8 31  1  0
  9 32  1  0
 10 33  1  0
 15 34  1  0
 16 35  1  0
 17 36  1  0
 17 37  1  0
 18 38  1  0
 18 39  1  0
 19 40  1  0
 19 41  1  0
 20 42  1  0
 20 43  1  0
M  END
> <Uni-Dock RESULT> 
ENERGY=   -4.518  LOWER_BOUND=    1.152  UPPER_BOUND=    2.053
INTER + INTRA:          -4.518
INTER:                  -4.518
INTRA:                   0.000
UNBOUND:                 0.000

$$$$

     RDKit          3D

 43 42  0  0  0  0  0  0  0  0999 V2000
   46.0641    6.5774   11.8422 C   0  0  0  0  0  0  0  0  0  0  0  0
   46.4212    8.9350   12.5107 N   0  0  0  0  0  0  0  0  0  0  0  0
   45.1085    5.4097   11.7674 C   0  0  0  0  0  0  0  0  0  0  0  0
   45.4020    7.8987   12.2890 C   0  0  1  0  0  0  0  0  0  0  0  0
   44.6125    4.8209   12.9391 C   0  0  0  0  0  0  0  0  0  0  0  0
   44.7011    4.9005   10.5270 C   0  0  0  0  0  0  0  0  0  0  0  0
   44.4025    8.4250   11.2584 C   0  0  0  0  0  0  0  0  0  0  0  0
   43.8133    3.8254   10.4605 C   0  0  0  0  0  0  0  0  0  0  0  0
   43.7250    3.7460   12.8702 C   0  0  0  0  0  0  0  0  0  0  0  0
   43.3254    3.2488   11.6315 C   0  0  0  0  0  0  0  0  0  0  0  0
   46.1617    8.3842   12.5866 C   0  0  0  0  0  0  0  0  0  0  0  0
   44.6889    3.8260   11.4690 C   0  0  0  0  0  0  0  0  0  0  0  0
   46.1106    8.4750   13.8007 O   0  0  0  0  0  0  0  0  0  0  0  0
   45.9000    3.7330   11.5749 O   0  0  0  0  0  0  0  0  0  0  0  0
   43.8703    2.9476   12.0754 O   0  0  0  0  0  0  0  0  0  0  0  0
   47.0478    9.1151   11.8815 O   0  0  0  0  0  0  0  0  0  0  0  0
   43.9482    4.8847   10.7040 C   0  0  0  0  0  0  0  0  0  0  0  0
   45.3177    7.5146   11.6931 C   0  0  0  0  0  0  0  0  0  0  0  0
   44.2938    6.7110   12.4939 C   0  0  0  0  0  0  0  0  0  0  0  0
   43.3102    5.9245   11.6201 C   0  0  0  0  0  0  0  0  0  0  0  0
   46.5599    6.7152   10.8720 H   0  0  0  0  0  0  0  0  0  0  0  0
   46.8639    6.3059   12.5451 H   0  0  0  0  0  0  0  0  0  0  0  0
   47.1082    8.6016   13.1858 H   0  0  0  0  0  0  0  0  0  0  0  0
   46.9324    9.1075   11.6456 H   0  0  0  0  0  0  0  0  0  0  0  0
   44.8733    7.7479   13.2374 H   0  0  0  0  0  0  0  0  0  0  0  0
   44.9155    5.1962   13.9140 H   0  0  0  0  0  0  0  0  0  0  0  0
   45.0695    5.3398    9.6027 H   0  0  0  0  0  0  0  0  0  0  0  0
   43.5632    7.7334   11.1326 H   0  0  0  0  0  0  0  0  0  0  0  0
   44.8724    8.5696   10.2790 H   0  0  0  0  0  0  0  0  0  0  0  0
   43.9828    9.3865   11.5760 H   0  0  0  0  0  0  0  0  0  0  0  0
   43.5016    3.4381    9.4940 H   0  0  0  0  0  0  0  0  0  0  0  0
   43.3453    3.2964   13.7840 H   0  0  0  0  0  0  0  0  0  0  0  0
   42.6340    2.4120   11.5786 H   0  0  0  0  0  0  0  0  0  0  0  0
   44.4777    2.3334   12.5390 H   0  0  0  0  0  0  0  0  0  0  0  0
   47.5351    9.6201   12.5657 H   0  0  0  0  0  0  0  0  0  0  0  0
   43.1791    4.3919   10.0974 H   0  0  0  0  0  0  0  0  0  0  0  0
   44.6399    5.3484    9.9929 H   0  0  0  0  0  0  0  0  0  0  0  0
   44.8017    8.1625   10.9761 H   0  0  0  0  0  0  0  0  0  0  0  0
   45.9903    6.8418   11.1516 H   0  0  0  0  0  0  0  0  0  0  0  0
   44.8127    6.0317   13.1814 H   0  0  0  0  0  0  0  0  0  0  0  0
   43.7134    7.3942   13.1275 H   0  0  0  0  0  0  0  0  0  0  0  0
   42.7378    6.6293   11.0047 H   0  0  0  0  0  0  0  0  0  0  0  0
   42.5871    5.4298   12.2805 H   0  0  0  0  0  0  0  0  0  0  0  0
  2  4  1  0
  3  1  1  0
  4  1  1  0
  5  3  2  0
  6  3  1  0
  7  4  1  0
  8  6  2  0
  9  5  1  0
 10  8  1  0
 10  9  2  0
 12 17  1  0
 13 11  2  0
 14 12  2  0
 15 12  1  0
 16 11  1  0
 17 20  1  0
 18 11  1  0
 19 18  1  0
 20 19  1  0
  1 21  1  0
  1 22  1  0
  2 23  1  0
  2 24  1  0
  4 25  1  1
  5 26  1  0
  6 27  1  0
  7 28  1  0
  7 29  1  0
  7 30  1  0
  8 31  1  0
  9 32  1  0
 10 33  1  0
 15 34  1  0
 16 35  1  0
 17 36  1  0
 17 37  1  0
 18 38  1  0
 18 39  1  0
 19 40  1  0
 19 41  1  0
 20 42  1  0
 20 43  1  0
M  END
> <Uni-Dock RESULT> 
ENERGY=   -4.511  LOWER_BOUND=    2.732  UPPER_BOUND=    4.575
INTER + INTRA:          -4.511
INTER:                  -4.511
INTRA:                   0.000
UNBOUND:                 0.000

$$$$

     RDKit          3D

 43 42  0  0  0  0  0  0  0  0999 V2000
   46.5182    6.4537   11.1874 C   0  0  0  0  0  0  0  0  0  0  0  0
   48.4244    7.6709   12.1961 N   0  0  0  0  0  0  0  0  0  0  0  0
   45.2714    5.6323   11.4177 C   0  0  0  0  0  0  0  0  0  0  0  0
   47.1254    7.0429   12.4789 C   0  0  1  0  0  0  0  0  0  0  0  0
   45.3543    4.3660   12.0135 C   0  0  0  0  0  0  0  0  0  0  0  0
   44.0141    6.1249   11.0428 C   0  0  0  0  0  0  0  0  0  0  0  0
   46.2176    8.0924   13.1213 C   0  0  0  0  0  0  0  0  0  0  0  0
   42.8629    5.3666   11.2622 C   0  0  0  0  0  0  0  0  0  0  0  0
   44.2020    3.6095   12.2318 C   0  0  0  0  0  0  0  0  0  0  0  0
   42.9569    4.1098   11.8567 C   0  0  0  0  0  0  0  0  0  0  0  0
   48.0143    7.2145   12.1929 C   0  0  0  0  0  0  0  0  0  0  0  0
   43.9754    4.6999   10.9440 C   0  0  0  0  0  0  0  0  0  0  0  0
   48.7572    6.4215   12.7445 O   0  0  0  0  0  0  0  0  0  0  0  0
   44.6953    4.6187    9.9631 O   0  0  0  0  0  0  0  0  0  0  0  0
   43.3738    3.6106   11.4545 O   0  0  0  0  0  0  0  0  0  0  0  0
   48.5154    8.2721   11.5244 O   0  0  0  0  0  0  0  0  0  0  0  0
   43.6706    5.9523   11.7142 C   0  0  0  0  0  0  0  0  0  0  0  0
   46.5096    7.1861   12.1472 C   0  0  0  0  0  0  0  0  0  0  0  0
   45.9448    6.0029   12.9322 C   0  0  0  0  0  0  0  0  0  0  0  0
   44.4160    6.0127   13.0438 C   0  0  0  0  0  0  0  0  0  0  0  0
   46.3064    7.2587   10.4709 H   0  0  0  0  0  0  0  0  0  0  0  0
   47.2545    5.8057   10.6922 H   0  0  0  0  0  0  0  0  0  0  0  0
   49.0441    6.9930   11.7542 H   0  0  0  0  0  0  0  0  0  0  0  0
   48.3034    8.4272   11.5232 H   0  0  0  0  0  0  0  0  0  0  0  0
   47.2977    6.2425   13.2079 H   0  0  0  0  0  0  0  0  0  0  0  0
   46.3187    3.9603   12.3110 H   0  0  0  0  0  0  0  0  0  0  0  0
   43.9213    7.1049   10.5802 H   0  0  0  0  0  0  0  0  0  0  0  0
   45.2708    7.6499   13.4474 H   0  0  0  0  0  0  0  0  0  0  0  0
   45.9889    8.9073   12.4252 H   0  0  0  0  0  0  0  0  0  0  0  0
   46.6913    8.5294   14.0079 H   0  0  0  0  0  0  0  0  0  0  0  0
   41.8918    5.7574   10.9698 H   0  0  0  0  0  0  0  0  0  0  0  0
   44.2762    2.6291   12.6950 H   0  0  0  0  0  0  0  0  0  0  0  0
   42.0600    3.5203   12.0272 H   0  0  0  0  0  0  0  0  0  0  0  0
   43.6663    2.8787   10.8714 H   0  0  0  0  0  0  0  0  0  0  0  0
   49.4860    8.1721   11.6173 H   0  0  0  0  0  0  0  0  0  0  0  0
   42.5882    5.9925   11.8849 H   0  0  0  0  0  0  0  0  0  0  0  0
   43.9072    6.8152   11.0830 H   0  0  0  0  0  0  0  0  0  0  0  0
   46.1383    8.1247   12.5730 H   0  0  0  0  0  0  0  0  0  0  0  0
   46.2097    7.1236   11.0962 H   0  0  0  0  0  0  0  0  0  0  0  0
   46.2830    5.0630   12.4789 H   0  0  0  0  0  0  0  0  0  0  0  0
   46.3592    6.0124   13.9487 H   0  0  0  0  0  0  0  0  0  0  0  0
   44.1035    6.9173   13.5798 H   0  0  0  0  0  0  0  0  0  0  0  0
   44.1138    5.1618   13.6671 H   0  0  0  0  0  0  0  0  0  0  0  0
  2  4  1  0
  3  1  1  0
  4  1  1  0
  5  3  2  0
  6  3  1  0
  7  4  1  0
  8  6  2  0
  9  5  1  0
 10  8  1  0
 10  9  2  0
 12 17  1  0
 13 11  2  0
 14 12  2  0
 15 12  1  0
 16 11  1  0
 17 20  1  0
 18 11  1  0
 19 18  1  0
 20 19  1  0
  1 21  1  0
  1 22  1  0
  2 23  1  0
  2 24  1  0
  4 25  1  1
  5 26  1  0
  6 27  1  0
  7 28  1  0
  7 29  1  0
  7 30  1  0
  8 31  1  0
  9 32  1  0
 10 33  1  0
 15 34  1  0
 16 35  1  0
 17 36  1  0
 17 37  1  0
 18 38  1  0
 18 39  1  0
 19 40  1  0
 19 41  1  0
 20 42  1  0
 20 43  1  0
M  END
> <Uni-Dock RESULT> 
ENERGY=   -4.486  LOWER_BOUND=    2.806  UPPER_BOUND=    4.418
INTER + INTRA:          -4.486
INTER:                  -4.486
INTRA:                   0.000
UNBOUND:                 0.000

$$$$

     RDKit          3D

 43 42  0  0  0  0  0  0  0  0999 V2000
   47.3769    5.1773   18.5536 C   0  0  0  0  0  0  0  0  0  0  0  0
   47.1619    3.4360   16.8058 N   0  0  0  0  0  0  0  0  0  0  0  0
   48.0407    5.6101   19.8397 C   0  0  0  0  0  0  0  0  0  0  0  0
   47.9718    3.8884   17.9465 C   0  0  1  0  0  0  0  0  0  0  0  0
   47.8259    4.8950   21.0262 C   0  0  0  0  0  0  0  0  0  0  0  0
   48.8832    6.7297   19.8652 C   0  0  0  0  0  0  0  0  0  0  0  0
   49.4094    4.0837   17.4636 C   0  0  0  0  0  0  0  0  0  0  0  0
   49.5002    7.1240   21.0535 C   0  0  0  0  0  0  0  0  0  0  0  0
   48.4437    5.2911   22.2133 C   0  0  0  0  0  0  0  0  0  0  0  0
   49.2808    6.4049   22.2267 C   0  0  0  0  0  0  0  0  0  0  0  0
   47.2572    3.6119   17.3859 C   0  0  0  0  0  0  0  0  0  0  0  0
   48.2713    6.6104   21.1510 C   0  0  0  0  0  0  0  0  0  0  0  0
   46.7532    2.6123   17.8674 O   0  0  0  0  0  0  0  0  0  0  0  0
   47.1540    6.9436   20.7939 O   0  0  0  0  0  0  0  0  0  0  0  0
   48.5493    6.3971   22.4496 O   0  0  0  0  0  0  0  0  0  0  0  0
   46.9409    4.0048   16.1360 O   0  0  0  0  0  0  0  0  0  0  0  0
   49.4523    6.3777   20.2534 C   0  0  0  0  0  0  0  0  0  0  0  0
   48.2558    4.5384   18.0273 C   0  0  0  0  0  0  0  0  0  0  0  0
   48.6348    4.0721   19.4323 C   0  0  0  0  0  0  0  0  0  0  0  0
   49.7598    4.8947   20.0705 C   0  0  0  0  0  0  0  0  0  0  0  0
   47.4206    5.9930   17.8194 H   0  0  0  0  0  0  0  0  0  0  0  0
   46.3088    5.0299   18.7657 H   0  0  0  0  0  0  0  0  0  0  0  0
   46.1941    3.3113   17.1004 H   0  0  0  0  0  0  0  0  0  0  0  0
   47.1494    4.1558   16.0839 H   0  0  0  0  0  0  0  0  0  0  0  0
   47.9645    3.0870   18.6945 H   0  0  0  0  0  0  0  0  0  0  0  0
   47.1743    4.0240   21.0331 H   0  0  0  0  0  0  0  0  0  0  0  0
   49.0682    7.3014   18.9586 H   0  0  0  0  0  0  0  0  0  0  0  0
   50.0779    4.3210   18.2974 H   0  0  0  0  0  0  0  0  0  0  0  0
   49.4811    4.8948   16.7302 H   0  0  0  0  0  0  0  0  0  0  0  0
   49.7919    3.1701   16.9941 H   0  0  0  0  0  0  0  0  0  0  0  0
   50.1534    7.9927   21.0635 H   0  0  0  0  0  0  0  0  0  0  0  0
   48.2717    4.7300   23.1281 H   0  0  0  0  0  0  0  0  0  0  0  0
   49.7619    6.7126   23.1514 H   0  0  0  0  0  0  0  0  0  0  0  0
   47.7006    6.5700   22.9089 H   0  0  0  0  0  0  0  0  0  0  0  0
   46.2866    3.3388   15.8374 H   0  0  0  0  0  0  0  0  0  0  0  0
   50.3173    6.8929   20.6877 H   0  0  0  0  0  0  0  0  0  0  0  0
   49.2615    6.8683   19.2932 H   0  0  0  0  0  0  0  0  0  0  0  0
   49.1486    4.5684   17.3932 H   0  0  0  0  0  0  0  0  0  0  0  0
   47.8073    5.5363   18.0655 H   0  0  0  0  0  0  0  0  0  0  0  0
   47.7477    4.0833   20.0776 H   0  0  0  0  0  0  0  0  0  0  0  0
   48.9622    3.0251   19.3898 H   0  0  0  0  0  0  0  0  0  0  0  0
   50.6643    4.7975   19.4575 H   0  0  0  0  0  0  0  0  0  0  0  0
   49.9960    4.4512   21.0459 H   0  0  0  0  0  0  0  0  0  0  0  0
  2  4  1  0
  3  1  1  0
  4  1  1  0
  5  3  2  0
  6  3  1  0
  7  4  1  0
  8  6  2  0
  9  5  1  0
 10  8  1  0
 10  9  2  0
 12 17  1  0
 13 11  2  0
 14 12  2  0
 15 12  1  0
 16 11  1  0
 17 20  1  0
 18 11  1  0
 19 18  1  0
 20 19  1  0
  1 21  1  0
  1 22  1  0
  2 23  1  0
  2 24  1  0
  4 25  1  1
  5 26  1  0
  6 27  1  0
  7 28  1  0
  7 29  1  0
  7 30  1  0
  8 31  1  0
  9 32  1  0
 10 33  1  0
 15 34  1  0
 16 35  1  0
 17 36  1  0
 17 37  1  0
 18 38  1  0
 18 39  1  0
 19 40  1  0
 19 41  1  0
 20 42  1  0
 20 43  1  0
M  END
> <Uni-Dock RESULT> 
ENERGY=   -4.024  LOWER_BOUND=    8.124  UPPER_BOUND=   10.047
INTER + INTRA:          -4.024
INTER:                  -4.024
INTRA:                   0.000
UNBOUND:                 0.000

$$$$

     RDKit          3D

 43 42  0  0  0  0  0  0  0  0999 V2000
   46.7815    9.8334   21.2215 C   0  0  0  0  0  0  0  0  0  0  0  0
   47.4618    8.1560   22.9115 N   0  0  0  0  0  0  0  0  0  0  0  0
   47.1427   11.0871   20.4600 C   0  0  0  0  0  0  0  0  0  0  0  0
   47.9396    9.2603   22.0665 C   0  0  1  0  0  0  0  0  0  0  0  0
   47.3161   12.3037   21.1349 C   0  0  0  0  0  0  0  0  0  0  0  0
   47.3135   11.0521   19.0695 C   0  0  0  0  0  0  0  0  0  0  0  0
   49.0866    8.7373   21.2010 C   0  0  0  0  0  0  0  0  0  0  0  0
   47.6533   12.2107   18.3689 C   0  0  0  0  0  0  0  0  0  0  0  0
   47.6557   13.4608   20.4324 C   0  0  0  0  0  0  0  0  0  0  0  0
   47.8246   13.4141   19.0501 C   0  0  0  0  0  0  0  0  0  0  0  0
   47.4576    8.7269   22.6866 C   0  0  0  0  0  0  0  0  0  0  0  0
   46.8453   12.3553   19.4224 C   0  0  0  0  0  0  0  0  0  0  0  0
   47.5211    9.2561   23.7824 O   0  0  0  0  0  0  0  0  0  0  0  0
   45.7103   12.0123   19.7069 O   0  0  0  0  0  0  0  0  0  0  0  0
   47.1952   13.6541   19.4122 O   0  0  0  0  0  0  0  0  0  0  0  0
   46.9850    7.4711   22.5584 O   0  0  0  0  0  0  0  0  0  0  0  0
   47.9831   11.4397   19.0735 C   0  0  0  0  0  0  0  0  0  0  0  0
   47.8611    9.3106   21.3587 C   0  0  0  0  0  0  0  0  0  0  0  0
   48.4249   10.7226   21.5125 C   0  0  0  0  0  0  0  0  0  0  0  0
   48.9899   11.3040   20.2115 C   0  0  0  0  0  0  0  0  0  0  0  0
   46.4106    9.0691   20.5253 H   0  0  0  0  0  0  0  0  0  0  0  0
   45.9302   10.0756   21.8727 H   0  0  0  0  0  0  0  0  0  0  0  0
   46.6862    8.4773   23.4895 H   0  0  0  0  0  0  0  0  0  0  0  0
   47.0901    7.4087   22.3259 H   0  0  0  0  0  0  0  0  0  0  0  0
   48.3349   10.0370   22.7314 H   0  0  0  0  0  0  0  0  0  0  0  0
   47.1866   12.3575   22.2135 H   0  0  0  0  0  0  0  0  0  0  0  0
   47.1865   10.1212   18.5216 H   0  0  0  0  0  0  0  0  0  0  0  0
   49.5487    9.5462   20.6261 H   0  0  0  0  0  0  0  0  0  0  0  0
   48.7422    7.9732   20.4949 H   0  0  0  0  0  0  0  0  0  0  0  0
   49.8734    8.2927   21.8213 H   0  0  0  0  0  0  0  0  0  0  0  0
   47.7853   12.1737   17.2907 H   0  0  0  0  0  0  0  0  0  0  0  0
   47.7886   14.3992   20.9643 H   0  0  0  0  0  0  0  0  0  0  0  0
   48.0894   14.3155   18.5038 H   0  0  0  0  0  0  0  0  0  0  0  0
   46.3744   14.1263   19.6661 H   0  0  0  0  0  0  0  0  0  0  0  0
   46.7503    7.2123   23.4742 H   0  0  0  0  0  0  0  0  0  0  0  0
   48.4759   11.8346   18.1771 H   0  0  0  0  0  0  0  0  0  0  0  0
   47.5710   10.4668   18.7854 H   0  0  0  0  0  0  0  0  0  0  0  0
   48.6184    8.6553   20.9147 H   0  0  0  0  0  0  0  0  0  0  0  0
   46.9742    9.3227   20.7171 H   0  0  0  0  0  0  0  0  0  0  0  0
   47.6521   11.3874   21.9174 H   0  0  0  0  0  0  0  0  0  0  0  0
   49.2315   10.7108   22.2571 H   0  0  0  0  0  0  0  0  0  0  0  0
   49.8208   10.6741   19.8708 H   0  0  0  0  0  0  0  0  0  0  0  0
   49.4178   12.2892   20.4354 H   0  0  0  0  0  0  0  0  0  0  0  0
  2  4  1  0
  3  1  1  0
  4  1  1  0
  5  3  2  0
  6  3  1  0
  7  4  1  0
  8  6  2  0
  9  5  1  0
 10  8  1  0
 10  9  2  0
 12 17  1  0
 13 11  2  0
 14 12  2  0
 15 12  1  0
 16 11  1  0
 17 20  1  0
 18 11  1  0
 19 18  1  0
 20 19  1  0
  1 21  1  0
  1 22  1  0
  2 23  1  0
  2 24  1  0
  4 25  1  1
  5 26  1  0
  6 27  1  0
  7 28  1  0
  7 29  1  0
  7 30  1  0
  8 31  1  0
  9 32  1  0
 10 33  1  0
 15 34  1  0
 16 35  1  0
 17 36  1  0
 17 37  1  0
 18 38  1  0
 18 39  1  0
 19 40  1  0
 19 41  1  0
 20 42  1  0
 20 43  1  0
M  END
> <Uni-Dock RESULT> 
ENERGY=   -3.884  LOWER_BOUND=   11.890  UPPER_BOUND=   13.170
INTER + INTRA:          -3.884
INTER:                  -3.884
INTRA:                   0.000
UNBOUND:                 0.000

$$$$

     RDKit          3D

 43 42  0  0  0  0  0  0  0  0999 V2000
   47.8603    6.5811   18.7651 C   0  0  0  0  0  0  0  0  0  0  0  0
   47.9892    8.0913   20.7235 N   0  0  0  0  0  0  0  0  0  0  0  0
   48.2205    5.2401   18.1700 C   0  0  0  0  0  0  0  0  0  0  0  0
   48.1996    6.7100   20.2658 C   0  0  1  0  0  0  0  0  0  0  0  0
   49.5617    4.8992   17.9453 C   0  0  0  0  0  0  0  0  0  0  0  0
   47.2206    4.3161   17.8376 C   0  0  0  0  0  0  0  0  0  0  0  0
   47.3484    5.7840   21.1353 C   0  0  0  0  0  0  0  0  0  0  0  0
   47.5563    3.0753   17.2936 C   0  0  0  0  0  0  0  0  0  0  0  0
   49.8950    3.6580   17.4011 C   0  0  0  0  0  0  0  0  0  0  0  0
   48.8928    2.7464   17.0758 C   0  0  0  0  0  0  0  0  0  0  0  0
   48.2215    7.6544   20.3606 C   0  0  0  0  0  0  0  0  0  0  0  0
   48.3193    4.1149   16.9463 C   0  0  0  0  0  0  0  0  0  0  0  0
   49.3776    7.9985   20.5336 O   0  0  0  0  0  0  0  0  0  0  0  0
   48.1591    5.1424   16.3095 O   0  0  0  0  0  0  0  0  0  0  0  0
   49.2467    3.2112   16.5824 O   0  0  0  0  0  0  0  0  0  0  0  0
   47.2108    8.5243   20.5571 O   0  0  0  0  0  0  0  0  0  0  0  0
   47.5658    3.7156   18.1821 C   0  0  0  0  0  0  0  0  0  0  0  0
   47.7190    6.3016   19.9311 C   0  0  0  0  0  0  0  0  0  0  0  0
   48.8659    5.3101   19.7395 C   0  0  0  0  0  0  0  0  0  0  0  0
   48.3994    3.8790   19.4492 C   0  0  0  0  0  0  0  0  0  0  0  0
   46.7937    6.7859   18.6023 H   0  0  0  0  0  0  0  0  0  0  0  0
   48.3979    7.3512   18.1947 H   0  0  0  0  0  0  0  0  0  0  0  0
   48.5373    8.7303   20.1489 H   0  0  0  0  0  0  0  0  0  0  0  0
   47.0132    8.3545   20.5904 H   0  0  0  0  0  0  0  0  0  0  0  0
   49.2553    6.4651   20.4310 H   0  0  0  0  0  0  0  0  0  0  0  0
   50.3561    5.5999   18.1924 H   0  0  0  0  0  0  0  0  0  0  0  0
   46.1724    4.5546   18.0032 H   0  0  0  0  0  0  0  0  0  0  0  0
   47.5465    4.7324   20.9048 H   0  0  0  0  0  0  0  0  0  0  0  0
   46.2777    5.9670   20.9901 H   0  0  0  0  0  0  0  0  0  0  0  0
   47.5738    5.9289   22.1982 H   0  0  0  0  0  0  0  0  0  0  0  0
   46.7742    2.3643   17.0403 H   0  0  0  0  0  0  0  0  0  0  0  0
   50.9377    3.4024   17.2311 H   0  0  0  0  0  0  0  0  0  0  0  0
   49.1531    1.7799   16.6525 H   0  0  0  0  0  0  0  0  0  0  0  0
   49.6620    3.6007   15.7843 H   0  0  0  0  0  0  0  0  0  0  0  0
   47.6613    9.3550   20.8172 H   0  0  0  0  0  0  0  0  0  0  0  0
   47.2520    2.6712   18.0676 H   0  0  0  0  0  0  0  0  0  0  0  0
   46.6426    4.3026   18.2317 H   0  0  0  0  0  0  0  0  0  0  0  0
   47.0344    5.9320   20.7023 H   0  0  0  0  0  0  0  0  0  0  0  0
   47.1689    6.4330   18.9939 H   0  0  0  0  0  0  0  0  0  0  0  0
   49.5275    5.6602   18.9376 H   0  0  0  0  0  0  0  0  0  0  0  0
   49.4810    5.2885   20.6485 H   0  0  0  0  0  0  0  0  0  0  0  0
   47.8145    3.5148   20.3027 H   0  0  0  0  0  0  0  0  0  0  0  0
   49.2869    3.2373   19.3838 H   0  0  0  0  0  0  0  0  0  0  0  0
  2  4  1  0
  3  1  1  0
  4  1  1  0
  5  3  2  0
  6  3  1  0
  7  4  1  0
  8  6  2  0
  9  5  1  0
 10  8  1  0
 10  9  2  0
 12 17  1  0
 13 11  2  0
 14 12  2  0
 15 12  1  0
 16 11  1  0
 17 20  1  0
 18 11  1  0
 19 18  1  0
 20 19  1  0
  1 21  1  0
  1 22  1  0
  2 23  1  0
  2 24  1  0
  4 25  1  1
  5 26  1  0
  6 27  1  0
  7 28  1  0
  7 29  1  0
  7 30  1  0
  8 31  1  0
  9 32  1  0
 10 33  1  0
 15 34  1  0
 16 35  1  0
 17 36  1  0
 17 37  1  0
 18 38  1  0
 18 39  1  0
 19 40  1  0
 19 41  1  0
 20 42  1  0
 20 43  1  0
M  END
> <Uni-Dock RESULT> 
ENERGY=   -3.858  LOWER_BOUND=    8.076  UPPER_BOUND=   10.242
INTER + INTRA:          -3.858
INTER:                  -3.858
INTRA:                   0.000
UNBOUND:                 0.000

$$$$
