
     RDKit          3D

 43 42  0  0  0  0  0  0  0  0999 V2000
   44.5072    3.6728    8.6234 C   0  0  0  0  0  0  0  0  0  0  0  0
   45.6947    5.7580    9.3087 N   0  0  0  0  0  0  0  0  0  0  0  0
   45.5855    2.8504    7.9546 C   0  0  0  0  0  0  0  0  0  0  0  0
   45.0248    4.5420    9.7907 C   0  0  1  0  0  0  0  0  0  0  0  0
   45.7566    1.4988    8.2859 C   0  0  0  0  0  0  0  0  0  0  0  0
   46.4372    3.4269    7.0035 C   0  0  0  0  0  0  0  0  0  0  0  0
   43.8676    4.9489   10.7052 C   0  0  0  0  0  0  0  0  0  0  0  0
   47.4341    2.6665    6.3900 C   0  0  0  0  0  0  0  0  0  0  0  0
   46.7535    0.7390    7.6708 C   0  0  0  0  0  0  0  0  0  0  0  0
   47.5910    1.3226    6.7223 C   0  0  0  0  0  0  0  0  0  0  0  0
   47.5616    2.5414    6.2612 C   0  0  0  0  0  0  0  0  0  0  0  0
   43.5719    4.3737   10.8260 C   0  0  0  0  0  0  0  0  0  0  0  0
   47.9219    1.4585    6.6887 O   0  0  0  0  0  0  0  0  0  0  0  0
   43.2116    5.4566   10.3985 O   0  0  0  0  0  0  0  0  0  0  0  0
   43.0968    3.9062   11.9971 O   0  0  0  0  0  0  0  0  0  0  0  0
   48.0368    3.0089    5.0900 O   0  0  0  0  0  0  0  0  0  0  0  0
   44.5401    3.4128   10.1908 C   0  0  0  0  0  0  0  0  0  0  0  0
   46.5935    3.5023    6.8963 C   0  0  0  0  0  0  0  0  0  0  0  0
   46.0581    2.9676    8.2234 C   0  0  0  0  0  0  0  0  0  0  0  0
   45.0755    3.9475    8.8637 C   0  0  0  0  0  0  0  0  0  0  0  0
   44.0035    4.2929    7.8693 H   0  0  0  0  0  0  0  0  0  0  0  0
   43.7327    2.9869    8.9923 H   0  0  0  0  0  0  0  0  0  0  0  0
   45.0250    6.3534    8.8236 H   0  0  0  0  0  0  0  0  0  0  0  0
   46.0329    6.2980   10.1041 H   0  0  0  0  0  0  0  0  0  0  0  0
   45.7458    3.9671   10.3845 H   0  0  0  0  0  0  0  0  0  0  0  0
   45.1140    1.0279    9.0258 H   0  0  0  0  0  0  0  0  0  0  0  0
   46.3333    4.4783    6.7446 H   0  0  0  0  0  0  0  0  0  0  0  0
   43.1094    5.5248   10.1625 H   0  0  0  0  0  0  0  0  0  0  0  0
   44.2227    5.5595   11.5428 H   0  0  0  0  0  0  0  0  0  0  0  0
   43.3797    4.0638   11.1279 H   0  0  0  0  0  0  0  0  0  0  0  0
   48.0907    3.1266    5.6567 H   0  0  0  0  0  0  0  0  0  0  0  0
   46.8774   -0.3081    7.9335 H   0  0  0  0  0  0  0  0  0  0  0  0
   48.3684    0.7320    6.2455 H   0  0  0  0  0  0  0  0  0  0  0  0
   42.4881    4.6101   12.3052 H   0  0  0  0  0  0  0  0  0  0  0  0
   48.6454    2.3051    4.7820 H   0  0  0  0  0  0  0  0  0  0  0  0
   44.0207    2.4623   10.0261 H   0  0  0  0  0  0  0  0  0  0  0  0
   45.3693    3.2514   10.8882 H   0  0  0  0  0  0  0  0  0  0  0  0
   45.7641    3.6637    6.1989 H   0  0  0  0  0  0  0  0  0  0  0  0
   47.1128    4.4528    7.0610 H   0  0  0  0  0  0  0  0  0  0  0  0
   46.8935    2.7803    8.9097 H   0  0  0  0  0  0  0  0  0  0  0  0
   45.5632    2.0020    8.0594 H   0  0  0  0  0  0  0  0  0  0  0  0
   45.5703    4.9132    9.0277 H   0  0  0  0  0  0  0  0  0  0  0  0
   44.2400    4.1349    8.1774 H   0  0  0  0  0  0  0  0  0  0  0  0
  2  4  1  0
  3  1  1  0
  4  1  1  0
  5  3  2  0
  6  3  1  0
  7  4  1  0
  8  6  2  0
  9  5  1  0
 10  8  1  0
 10  9  2  0
 12 17  1  0
 13 11  2  0
 14 12  2  0
 15 12  1  0
 16 11  1  0
 17 20  1  0
 18 11  1  0
 19 18  1  0
 20 19  1  0
  1 21  1  0
  1 22  1  0
  2 23  1  0
  2 24  1  0
  4 25  1  1
  5 26  1  0
  6 27  1  0
  7 28  1  0
  7 29  1  0
  7 30  1  0
  8 31  1  0
  9 32  1  0
 10 33  1  0
 15 34  1  0
 16 35  1  0
 17 36  1  0
 17 37  1  0
 18 38  1  0
 18 39  1  0
 19 40  1  0
 19 41  1  0
 20 42  1  0
 20 43  1  0
M  END
> <Uni-Dock RESULT> 
ENERGY=  -10.245  LOWER_BOUND=    0.000  UPPER_BOUND=    0.000
INTER + INTRA:         -10.245
INTER:                 -10.245
INTRA:                   0.000
UNBOUND:                 0.000

$$$$
