
     RDKit          3D

 43 42  0  0  0  0  0  0  0  0999 V2000
   43.4867    4.4319   10.6938 C   0  0  0  0  0  0  0  0  0  0  0  0
   44.8846    6.1765   11.8026 N   0  0  0  0  0  0  0  0  0  0  0  0
   44.4337    3.7892    9.7057 C   0  0  0  0  0  0  0  0  0  0  0  0
   44.1740    4.9044   11.9939 C   0  0  1  0  0  0  0  0  0  0  0  0
   44.5338    2.3933    9.6221 C   0  0  0  0  0  0  0  0  0  0  0  0
   45.2335    4.5763    8.8671 C   0  0  0  0  0  0  0  0  0  0  0  0
   43.1405    5.0824   13.1082 C   0  0  0  0  0  0  0  0  0  0  0  0
   46.1094    3.9809    7.9581 C   0  0  0  0  0  0  0  0  0  0  0  0
   45.4097    1.7988    8.7117 C   0  0  0  0  0  0  0  0  0  0  0  0
   46.1963    2.5925    7.8792 C   0  0  0  0  0  0  0  0  0  0  0  0
   43.4982    6.0452   11.4296 C   0  0  0  0  0  0  0  0  0  0  0  0
   45.3341    3.1575    8.1231 C   0  0  0  0  0  0  0  0  0  0  0  0
   44.5215    6.6168   11.0974 O   0  0  0  0  0  0  0  0  0  0  0  0
   45.3673    1.9435    8.0194 O   0  0  0  0  0  0  0  0  0  0  0  0
   45.5733    3.9422    7.0540 O   0  0  0  0  0  0  0  0  0  0  0  0
   42.3060    6.6663   11.3374 O   0  0  0  0  0  0  0  0  0  0  0  0
   45.0305    3.9654    9.3569 C   0  0  0  0  0  0  0  0  0  0  0  0
   43.3626    4.6525   11.9862 C   0  0  0  0  0  0  0  0  0  0  0  0
   44.6497    3.8303   11.8965 C   0  0  0  0  0  0  0  0  0  0  0  0
   44.8249    3.0696   10.5767 C   0  0  0  0  0  0  0  0  0  0  0  0
   42.7009    3.7042   10.9381 H   0  0  0  0  0  0  0  0  0  0  0  0
   42.9623    5.2645   10.2053 H   0  0  0  0  0  0  0  0  0  0  0  0
   45.3349    6.4492   12.6754 H   0  0  0  0  0  0  0  0  0  0  0  0
   44.2189    6.9156   11.5819 H   0  0  0  0  0  0  0  0  0  0  0  0
   44.9025    4.1514   12.3183 H   0  0  0  0  0  0  0  0  0  0  0  0
   43.9298    1.7586   10.2659 H   0  0  0  0  0  0  0  0  0  0  0  0
   45.1845    5.6614    8.9277 H   0  0  0  0  0  0  0  0  0  0  0  0
   43.6168    5.4097   14.0392 H   0  0  0  0  0  0  0  0  0  0  0  0
   42.6297    4.1358   13.3159 H   0  0  0  0  0  0  0  0  0  0  0  0
   42.3801    5.8233   12.8368 H   0  0  0  0  0  0  0  0  0  0  0  0
   46.7273    4.6027    7.3159 H   0  0  0  0  0  0  0  0  0  0  0  0
   45.4793    0.7160    8.6537 H   0  0  0  0  0  0  0  0  0  0  0  0
   46.8797    2.1299    7.1725 H   0  0  0  0  0  0  0  0  0  0  0  0
   45.7560    3.3082    6.3294 H   0  0  0  0  0  0  0  0  0  0  0  0
   42.5249    7.5537   10.9829 H   0  0  0  0  0  0  0  0  0  0  0  0
   45.8715    4.6447    9.5329 H   0  0  0  0  0  0  0  0  0  0  0  0
   44.1259    4.5476    9.1561 H   0  0  0  0  0  0  0  0  0  0  0  0
   43.0908    4.7655   13.0424 H   0  0  0  0  0  0  0  0  0  0  0  0
   42.5446    4.1365   11.4721 H   0  0  0  0  0  0  0  0  0  0  0  0
   44.6220    3.0805   12.6976 H   0  0  0  0  0  0  0  0  0  0  0  0
   45.5315    4.4533   12.0867 H   0  0  0  0  0  0  0  0  0  0  0  0
   45.6917    2.4043   10.6823 H   0  0  0  0  0  0  0  0  0  0  0  0
   43.9596    2.4149   10.4123 H   0  0  0  0  0  0  0  0  0  0  0  0
  2  4  1  0
  3  1  1  0
  4  1  1  0
  5  3  2  0
  6  3  1  0
  7  4  1  0
  8  6  2  0
  9  5  1  0
 10  8  1  0
 10  9  2  0
 12 17  1  0
 13 11  2  0
 14 12  2  0
 15 12  1  0
 16 11  1  0
 17 20  1  0
 18 11  1  0
 19 18  1  0
 20 19  1  0
  1 21  1  0
  1 22  1  0
  2 23  1  0
  2 24  1  0
  4 25  1  1
  5 26  1  0
  6 27  1  0
  7 28  1  0
  7 29  1  0
  7 30  1  0
  8 31  1  0
  9 32  1  0
 10 33  1  0
 15 34  1  0
 16 35  1  0
 17 36  1  0
 17 37  1  0
 18 38  1  0
 18 39  1  0
 19 40  1  0
 19 41  1  0
 20 42  1  0
 20 43  1  0
M  END
> <Uni-Dock RESULT> 
ENERGY=   -6.613  LOWER_BOUND=    0.000  UPPER_BOUND=    0.000
INTER + INTRA:          -6.613
INTER:                  -6.613
INTRA:                   0.000
UNBOUND:                 0.000

$$$$

     RDKit          3D

 43 42  0  0  0  0  0  0  0  0999 V2000
   45.7726    3.7746    9.3725 C   0  0  0  0  0  0  0  0  0  0  0  0
   43.7687    2.4157    9.9767 N   0  0  0  0  0  0  0  0  0  0  0  0
   46.3201    3.0793    8.1465 C   0  0  0  0  0  0  0  0  0  0  0  0
   44.2329    3.7190    9.4810 C   0  0  1  0  0  0  0  0  0  0  0  0
   46.6673    3.8175    7.0063 C   0  0  0  0  0  0  0  0  0  0  0  0
   46.4784    1.6875    8.1254 C   0  0  0  0  0  0  0  0  0  0  0  0
   43.7259    4.8118   10.4245 C   0  0  0  0  0  0  0  0  0  0  0  0
   46.9807    1.0474    6.9913 C   0  0  0  0  0  0  0  0  0  0  0  0
   47.1707    3.1762    5.8728 C   0  0  0  0  0  0  0  0  0  0  0  0
   47.3284    1.7917    5.8659 C   0  0  0  0  0  0  0  0  0  0  0  0
   44.7668    3.1645   10.6992 C   0  0  0  0  0  0  0  0  0  0  0  0
   47.3938    2.1068    6.8752 C   0  0  0  0  0  0  0  0  0  0  0  0
   44.4384    2.0195   10.4433 O   0  0  0  0  0  0  0  0  0  0  0  0
   47.7474    2.7665    5.9133 O   0  0  0  0  0  0  0  0  0  0  0  0
   48.0117    0.9471    7.1738 O   0  0  0  0  0  0  0  0  0  0  0  0
   45.2603    3.4805   11.9124 O   0  0  0  0  0  0  0  0  0  0  0  0
   46.2971    2.4282    7.8556 C   0  0  0  0  0  0  0  0  0  0  0  0
   44.6779    4.3689    9.7996 C   0  0  0  0  0  0  0  0  0  0  0  0
   44.3415    4.0240    8.3476 C   0  0  0  0  0  0  0  0  0  0  0  0
   45.5607    3.7101    7.4722 C   0  0  0  0  0  0  0  0  0  0  0  0
   46.1008    4.8226    9.3470 H   0  0  0  0  0  0  0  0  0  0  0  0
   46.2423    3.3505   10.2705 H   0  0  0  0  0  0  0  0  0  0  0  0
   42.7506    2.4122   10.0227 H   0  0  0  0  0  0  0  0  0  0  0  0
   44.0979    2.2703   10.9300 H   0  0  0  0  0  0  0  0  0  0  0  0
   43.7891    3.8863    8.4921 H   0  0  0  0  0  0  0  0  0  0  0  0
   46.5482    4.8982    6.9930 H   0  0  0  0  0  0  0  0  0  0  0  0
   46.1987    1.0936    8.9928 H   0  0  0  0  0  0  0  0  0  0  0  0
   42.6332    4.7885   10.5038 H   0  0  0  0  0  0  0  0  0  0  0  0
   44.0070    5.8034   10.0535 H   0  0  0  0  0  0  0  0  0  0  0  0
   44.1421    4.6983   11.4318 H   0  0  0  0  0  0  0  0  0  0  0  0
   47.0949   -0.0332    6.9864 H   0  0  0  0  0  0  0  0  0  0  0  0
   47.4380    3.7573    4.9944 H   0  0  0  0  0  0  0  0  0  0  0  0
   47.7177    1.2924    4.9830 H   0  0  0  0  0  0  0  0  0  0  0  0
   48.6905    0.8519    6.4735 H   0  0  0  0  0  0  0  0  0  0  0  0
   45.2548    2.6312   12.4021 H   0  0  0  0  0  0  0  0  0  0  0  0
   45.5959    1.5869    7.8681 H   0  0  0  0  0  0  0  0  0  0  0  0
   46.7575    2.5352    8.8426 H   0  0  0  0  0  0  0  0  0  0  0  0
   43.8786    5.0006   10.2049 H   0  0  0  0  0  0  0  0  0  0  0  0
   45.6188    4.9273    9.8502 H   0  0  0  0  0  0  0  0  0  0  0  0
   43.8448    4.8969    7.9047 H   0  0  0  0  0  0  0  0  0  0  0  0
   43.6220    3.1985    8.2932 H   0  0  0  0  0  0  0  0  0  0  0  0
   45.2183    3.6287    6.4322 H   0  0  0  0  0  0  0  0  0  0  0  0
   46.2576    4.5574    7.4955 H   0  0  0  0  0  0  0  0  0  0  0  0
  2  4  1  0
  3  1  1  0
  4  1  1  0
  5  3  2  0
  6  3  1  0
  7  4  1  0
  8  6  2  0
  9  5  1  0
 10  8  1  0
 10  9  2  0
 12 17  1  0
 13 11  2  0
 14 12  2  0
 15 12  1  0
 16 11  1  0
 17 20  1  0
 18 11  1  0
 19 18  1  0
 20 19  1  0
  1 21  1  0
  1 22  1  0
  2 23  1  0
  2 24  1  0
  4 25  1  1
  5 26  1  0
  6 27  1  0
  7 28  1  0
  7 29  1  0
  7 30  1  0
  8 31  1  0
  9 32  1  0
 10 33  1  0
 15 34  1  0
 16 35  1  0
 17 36  1  0
 17 37  1  0
 18 38  1  0
 18 39  1  0
 19 40  1  0
 19 41  1  0
 20 42  1  0
 20 43  1  0
M  END
> <Uni-Dock RESULT> 
ENERGY=   -6.560  LOWER_BOUND=    2.089  UPPER_BOUND=    3.325
INTER + INTRA:          -6.560
INTER:                  -6.560
INTRA:                   0.000
UNBOUND:                 0.000

$$$$

     RDKit          3D

 43 42  0  0  0  0  0  0  0  0999 V2000
   45.5169    3.5040    9.8094 C   0  0  0  0  0  0  0  0  0  0  0  0
   44.1516    3.3136    7.7292 N   0  0  0  0  0  0  0  0  0  0  0  0
   44.5566    4.0989   10.8145 C   0  0  0  0  0  0  0  0  0  0  0  0
   44.8410    2.5629    8.7880 C   0  0  1  0  0  0  0  0  0  0  0  0
   44.4325    3.5416   12.0949 C   0  0  0  0  0  0  0  0  0  0  0  0
   43.7683    5.2075   10.4799 C   0  0  0  0  0  0  0  0  0  0  0  0
   45.8800    1.6445    8.1413 C   0  0  0  0  0  0  0  0  0  0  0  0
   42.8801    5.7529   11.4082 C   0  0  0  0  0  0  0  0  0  0  0  0
   43.5444    4.0886   13.0230 C   0  0  0  0  0  0  0  0  0  0  0  0
   42.7694    5.1947   12.6800 C   0  0  0  0  0  0  0  0  0  0  0  0
   45.5347    3.5791    8.0378 C   0  0  0  0  0  0  0  0  0  0  0  0
   43.6417    5.2285   12.0800 C   0  0  0  0  0  0  0  0  0  0  0  0
   44.5204    4.1398    7.6622 O   0  0  0  0  0  0  0  0  0  0  0  0
   43.5876    4.7711   13.2084 O   0  0  0  0  0  0  0  0  0  0  0  0
   43.4133    6.5384   11.8610 O   0  0  0  0  0  0  0  0  0  0  0  0
   46.7370    3.9361    7.5455 O   0  0  0  0  0  0  0  0  0  0  0  0
   43.9620    4.4930   10.8058 C   0  0  0  0  0  0  0  0  0  0  0  0
   45.6479    2.4512    9.0292 C   0  0  0  0  0  0  0  0  0  0  0  0
   44.3468    2.1657    9.7817 C   0  0  0  0  0  0  0  0  0  0  0  0
   44.1554    2.9986   11.0549 C   0  0  0  0  0  0  0  0  0  0  0  0
   46.2907    2.9522   10.3601 H   0  0  0  0  0  0  0  0  0  0  0  0
   46.0542    4.3138    9.2972 H   0  0  0  0  0  0  0  0  0  0  0  0
   43.7082    2.6616    7.0834 H   0  0  0  0  0  0  0  0  0  0  0  0
   44.8293    3.8416    7.1813 H   0  0  0  0  0  0  0  0  0  0  0  0
   44.1005    1.9365    9.3002 H   0  0  0  0  0  0  0  0  0  0  0  0
   45.0273    2.6767   12.3788 H   0  0  0  0  0  0  0  0  0  0  0  0
   43.8359    5.6448    9.4861 H   0  0  0  0  0  0  0  0  0  0  0  0
   45.4117    0.9654    7.4200 H   0  0  0  0  0  0  0  0  0  0  0  0
   46.3751    1.0277    8.8992 H   0  0  0  0  0  0  0  0  0  0  0  0
   46.6522    2.2179    7.6162 H   0  0  0  0  0  0  0  0  0  0  0  0
   42.2713    6.6105   11.1348 H   0  0  0  0  0  0  0  0  0  0  0  0
   43.4562    3.6501   14.0133 H   0  0  0  0  0  0  0  0  0  0  0  0
   42.0764    5.6189   13.4013 H   0  0  0  0  0  0  0  0  0  0  0  0
   43.2180    6.8981   12.7515 H   0  0  0  0  0  0  0  0  0  0  0  0
   46.5324    4.6554    6.9116 H   0  0  0  0  0  0  0  0  0  0  0  0
   43.1332    4.6485   10.1068 H   0  0  0  0  0  0  0  0  0  0  0  0
   44.8759    4.9307   10.3926 H   0  0  0  0  0  0  0  0  0  0  0  0
   45.9242    1.5593    8.4544 H   0  0  0  0  0  0  0  0  0  0  0  0
   46.4557    2.6712    9.7354 H   0  0  0  0  0  0  0  0  0  0  0  0
   44.3637    1.1116   10.0875 H   0  0  0  0  0  0  0  0  0  0  0  0
   43.4761    2.2832    9.1259 H   0  0  0  0  0  0  0  0  0  0  0  0
   43.2776    2.6078   11.5859 H   0  0  0  0  0  0  0  0  0  0  0  0
   45.0090    2.8437   11.7270 H   0  0  0  0  0  0  0  0  0  0  0  0
  2  4  1  0
  3  1  1  0
  4  1  1  0
  5  3  2  0
  6  3  1  0
  7  4  1  0
  8  6  2  0
  9  5  1  0
 10  8  1  0
 10  9  2  0
 12 17  1  0
 13 11  2  0
 14 12  2  0
 15 12  1  0
 16 11  1  0
 17 20  1  0
 18 11  1  0
 19 18  1  0
 20 19  1  0
  1 21  1  0
  1 22  1  0
  2 23  1  0
  2 24  1  0
  4 25  1  1
  5 26  1  0
  6 27  1  0
  7 28  1  0
  7 29  1  0
  7 30  1  0
  8 31  1  0
  9 32  1  0
 10 33  1  0
 15 34  1  0
 16 35  1  0
 17 36  1  0
 17 37  1  0
 18 38  1  0
 18 39  1  0
 19 40  1  0
 19 41  1  0
 20 42  1  0
 20 43  1  0
M  END
> <Uni-Dock RESULT> 
ENERGY=   -6.029  LOWER_BOUND=    1.533  UPPER_BOUND=    4.508
INTER + INTRA:          -6.029
INTER:                  -6.029
INTRA:                   0.000
UNBOUND:                 0.000

$$$$

     RDKit          3D

 43 42  0  0  0  0  0  0  0  0999 V2000
   45.2169    5.2878   11.3346 C   0  0  0  0  0  0  0  0  0  0  0  0
   42.7683    5.2855   11.8157 N   0  0  0  0  0  0  0  0  0  0  0  0
   45.7265    6.5020   12.0778 C   0  0  0  0  0  0  0  0  0  0  0  0
   44.0381    4.5798   12.0382 C   0  0  1  0  0  0  0  0  0  0  0  0
   46.8623    6.4105   12.8946 C   0  0  0  0  0  0  0  0  0  0  0  0
   45.0669    7.7333   11.9717 C   0  0  0  0  0  0  0  0  0  0  0  0
   43.8978    3.1443   11.5275 C   0  0  0  0  0  0  0  0  0  0  0  0
   45.5371    8.8520   12.6613 C   0  0  0  0  0  0  0  0  0  0  0  0
   47.3323    7.5304   13.5831 C   0  0  0  0  0  0  0  0  0  0  0  0
   46.6705    8.7511   13.4655 C   0  0  0  0  0  0  0  0  0  0  0  0
   43.6041    4.9071   10.7036 C   0  0  0  0  0  0  0  0  0  0  0  0
   46.4760    8.2055   12.5785 C   0  0  0  0  0  0  0  0  0  0  0  0
   42.8319    5.7803   11.0579 O   0  0  0  0  0  0  0  0  0  0  0  0
   47.4984    8.1262   13.2373 O   0  0  0  0  0  0  0  0  0  0  0  0
   46.1434    9.3599   11.9680 O   0  0  0  0  0  0  0  0  0  0  0  0
   43.6323    4.4972    9.4204 O   0  0  0  0  0  0  0  0  0  0  0  0
   45.4649    7.1205   12.3186 C   0  0  0  0  0  0  0  0  0  0  0  0
   44.5897    4.1510   11.5549 C   0  0  0  0  0  0  0  0  0  0  0  0
   44.7569    4.7329   12.9599 C   0  0  0  0  0  0  0  0  0  0  0  0
   45.8164    5.8362   13.0667 C   0  0  0  0  0  0  0  0  0  0  0  0
   46.0511    4.5827   11.2180 H   0  0  0  0  0  0  0  0  0  0  0  0
   44.9429    5.5771   10.3109 H   0  0  0  0  0  0  0  0  0  0  0  0
   42.0181    4.7980   12.3040 H   0  0  0  0  0  0  0  0  0  0  0  0
   42.5273    5.2615   10.8260 H   0  0  0  0  0  0  0  0  0  0  0  0
   44.2240    4.5434   13.1185 H   0  0  0  0  0  0  0  0  0  0  0  0
   47.3895    5.4654   13.0003 H   0  0  0  0  0  0  0  0  0  0  0  0
   44.1736    7.8224   11.3574 H   0  0  0  0  0  0  0  0  0  0  0  0
   43.0694    2.6279   12.0253 H   0  0  0  0  0  0  0  0  0  0  0  0
   44.8098    2.5719   11.7289 H   0  0  0  0  0  0  0  0  0  0  0  0
   43.7147    3.1177   10.4475 H   0  0  0  0  0  0  0  0  0  0  0  0
   45.0140    9.8004   12.5738 H   0  0  0  0  0  0  0  0  0  0  0  0
   48.2141    7.4496   14.2129 H   0  0  0  0  0  0  0  0  0  0  0  0
   47.0347    9.6220   14.0033 H   0  0  0  0  0  0  0  0  0  0  0  0
   46.8663    9.9750   12.2119 H   0  0  0  0  0  0  0  0  0  0  0  0
   42.9484    5.0437    8.9791 H   0  0  0  0  0  0  0  0  0  0  0  0
   44.4851    7.4844   12.6459 H   0  0  0  0  0  0  0  0  0  0  0  0
   45.4457    6.9386   11.2397 H   0  0  0  0  0  0  0  0  0  0  0  0
   44.2042    3.1282   11.6418 H   0  0  0  0  0  0  0  0  0  0  0  0
   45.5562    4.1134   11.0409 H   0  0  0  0  0  0  0  0  0  0  0  0
   45.0750    3.9174   13.6221 H   0  0  0  0  0  0  0  0  0  0  0  0
   43.8006    5.0961   13.3543 H   0  0  0  0  0  0  0  0  0  0  0  0
   45.9564    6.0686   14.1305 H   0  0  0  0  0  0  0  0  0  0  0  0
   46.7817    5.4541   12.7112 H   0  0  0  0  0  0  0  0  0  0  0  0
  2  4  1  0
  3  1  1  0
  4  1  1  0
  5  3  2  0
  6  3  1  0
  7  4  1  0
  8  6  2  0
  9  5  1  0
 10  8  1  0
 10  9  2  0
 12 17  1  0
 13 11  2  0
 14 12  2  0
 15 12  1  0
 16 11  1  0
 17 20  1  0
 18 11  1  0
 19 18  1  0
 20 19  1  0
  1 21  1  0
  1 22  1  0
  2 23  1  0
  2 24  1  0
  4 25  1  1
  5 26  1  0
  6 27  1  0
  7 28  1  0
  7 29  1  0
  7 30  1  0
  8 31  1  0
  9 32  1  0
 10 33  1  0
 15 34  1  0
 16 35  1  0
 17 36  1  0
 17 37  1  0
 18 38  1  0
 18 39  1  0
 19 40  1  0
 19 41  1  0
 20 42  1  0
 20 43  1  0
M  END
> <Uni-Dock RESULT> 
ENERGY=   -5.463  LOWER_BOUND=    2.708  UPPER_BOUND=    4.911
INTER + INTRA:          -5.463
INTER:                  -5.463
INTRA:                   0.000
UNBOUND:                 0.000

$$$$

     RDKit          3D

 43 42  0  0  0  0  0  0  0  0999 V2000
   44.9144    4.2104   11.0435 C   0  0  0  0  0  0  0  0  0  0  0  0
   42.6929    3.1743   11.5111 N   0  0  0  0  0  0  0  0  0  0  0  0
   45.2829    3.6676    9.6812 C   0  0  0  0  0  0  0  0  0  0  0  0
   43.3977    4.4334   11.2326 C   0  0  1  0  0  0  0  0  0  0  0  0
   45.7450    4.5273    8.6748 C   0  0  0  0  0  0  0  0  0  0  0  0
   45.1580    2.3011    9.3990 C   0  0  0  0  0  0  0  0  0  0  0  0
   43.1422    5.4046   12.3871 C   0  0  0  0  0  0  0  0  0  0  0  0
   45.4954    1.8028    8.1397 C   0  0  0  0  0  0  0  0  0  0  0  0
   46.0832    4.0275    7.4158 C   0  0  0  0  0  0  0  0  0  0  0  0
   45.9596    2.6655    7.1488 C   0  0  0  0  0  0  0  0  0  0  0  0
   43.8372    3.5658   12.2959 C   0  0  0  0  0  0  0  0  0  0  0  0
   46.1100    2.7650    8.1926 C   0  0  0  0  0  0  0  0  0  0  0  0
   43.2799    2.5752   11.8571 O   0  0  0  0  0  0  0  0  0  0  0  0
   46.5667    3.5142    7.3466 O   0  0  0  0  0  0  0  0  0  0  0  0
   46.4892    1.4727    8.2387 O   0  0  0  0  0  0  0  0  0  0  0  0
   44.4119    3.5450   13.5143 O   0  0  0  0  0  0  0  0  0  0  0  0
   45.1230    3.1003    9.2792 C   0  0  0  0  0  0  0  0  0  0  0  0
   43.9713    4.9129   11.6362 C   0  0  0  0  0  0  0  0  0  0  0  0
   43.5393    4.9208   10.1686 C   0  0  0  0  0  0  0  0  0  0  0  0
   44.6502    4.5492    9.1792 C   0  0  0  0  0  0  0  0  0  0  0  0
   45.4456    5.1609   11.1885 H   0  0  0  0  0  0  0  0  0  0  0  0
   45.3098    3.5415   11.8200 H   0  0  0  0  0  0  0  0  0  0  0  0
   41.6961    3.3586   11.6168 H   0  0  0  0  0  0  0  0  0  0  0  0
   43.0079    2.7902   12.4007 H   0  0  0  0  0  0  0  0  0  0  0  0
   42.9740    4.8673   10.3188 H   0  0  0  0  0  0  0  0  0  0  0  0
   45.8449    5.5933    8.8646 H   0  0  0  0  0  0  0  0  0  0  0  0
   44.7848    1.6190   10.1598 H   0  0  0  0  0  0  0  0  0  0  0  0
   42.0692    5.5779   12.5264 H   0  0  0  0  0  0  0  0  0  0  0  0
   43.6081    6.3752   12.1855 H   0  0  0  0  0  0  0  0  0  0  0  0
   43.5502    5.0242   13.3303 H   0  0  0  0  0  0  0  0  0  0  0  0
   45.3902    0.7413    7.9323 H   0  0  0  0  0  0  0  0  0  0  0  0
   46.4415    4.7018    6.6427 H   0  0  0  0  0  0  0  0  0  0  0  0
   46.2203    2.2769    6.1683 H   0  0  0  0  0  0  0  0  0  0  0  0
   47.1189    1.3828    7.4931 H   0  0  0  0  0  0  0  0  0  0  0  0
   44.2472    2.6356   13.8416 H   0  0  0  0  0  0  0  0  0  0  0  0
   44.2677    2.4232    9.1812 H   0  0  0  0  0  0  0  0  0  0  0  0
   45.6180    2.9276   10.2398 H   0  0  0  0  0  0  0  0  0  0  0  0
   43.3246    5.5985   12.1965 H   0  0  0  0  0  0  0  0  0  0  0  0
   45.0061    5.2594   11.7304 H   0  0  0  0  0  0  0  0  0  0  0  0
   43.2180    5.9409    9.9218 H   0  0  0  0  0  0  0  0  0  0  0  0
   42.6677    4.2751   10.0090 H   0  0  0  0  0  0  0  0  0  0  0  0
   44.2747    4.7338    8.1642 H   0  0  0  0  0  0  0  0  0  0  0  0
   45.5035    5.2261    9.3136 H   0  0  0  0  0  0  0  0  0  0  0  0
  2  4  1  0
  3  1  1  0
  4  1  1  0
  5  3  2  0
  6  3  1  0
  7  4  1  0
  8  6  2  0
  9  5  1  0
 10  8  1  0
 10  9  2  0
 12 17  1  0
 13 11  2  0
 14 12  2  0
 15 12  1  0
 16 11  1  0
 17 20  1  0
 18 11  1  0
 19 18  1  0
 20 19  1  0
  1 21  1  0
  1 22  1  0
  2 23  1  0
  2 24  1  0
  4 25  1  1
  5 26  1  0
  6 27  1  0
  7 28  1  0
  7 29  1  0
  7 30  1  0
  8 31  1  0
  9 32  1  0
 10 33  1  0
 15 34  1  0
 16 35  1  0
 17 36  1  0
 17 37  1  0
 18 38  1  0
 18 39  1  0
 19 40  1  0
 19 41  1  0
 20 42  1  0
 20 43  1  0
M  END
> <Uni-Dock RESULT> 
ENERGY=   -5.406  LOWER_BOUND=    1.711  UPPER_BOUND=    2.375
INTER + INTRA:          -5.406
INTER:                  -5.406
INTRA:                   0.000
UNBOUND:                 0.000

$$$$

     RDKit          3D

 43 42  0  0  0  0  0  0  0  0999 V2000
   46.7449    6.8556   11.9826 C   0  0  0  0  0  0  0  0  0  0  0  0
   47.4499    7.1839   14.3537 N   0  0  0  0  0  0  0  0  0  0  0  0
   45.3564    6.2687   12.1001 C   0  0  0  0  0  0  0  0  0  0  0  0
   47.0889    7.8632   13.1016 C   0  0  1  0  0  0  0  0  0  0  0  0
   44.3000    6.7839   11.3357 C   0  0  0  0  0  0  0  0  0  0  0  0
   45.1004    5.2102   12.9812 C   0  0  0  0  0  0  0  0  0  0  0  0
   48.2553    8.7563   12.6738 C   0  0  0  0  0  0  0  0  0  0  0  0
   43.8171    4.6723   13.0906 C   0  0  0  0  0  0  0  0  0  0  0  0
   43.0170    6.2444   11.4452 C   0  0  0  0  0  0  0  0  0  0  0  0
   42.7760    5.1880   12.3215 C   0  0  0  0  0  0  0  0  0  0  0  0
   48.1080    6.8446   13.1166 C   0  0  0  0  0  0  0  0  0  0  0  0
   43.7976    5.1365   12.0463 C   0  0  0  0  0  0  0  0  0  0  0  0
   47.7381    6.3448   14.1644 O   0  0  0  0  0  0  0  0  0  0  0  0
   42.9023    5.5543   11.3326 O   0  0  0  0  0  0  0  0  0  0  0  0
   43.8150    3.8472   12.4381 O   0  0  0  0  0  0  0  0  0  0  0  0
   49.2602    6.4514   12.5395 O   0  0  0  0  0  0  0  0  0  0  0  0
   44.9781    5.9028   12.5816 C   0  0  0  0  0  0  0  0  0  0  0  0
   47.4265    7.9291   12.3248 C   0  0  0  0  0  0  0  0  0  0  0  0
   46.0118    8.2460   12.8134 C   0  0  0  0  0  0  0  0  0  0  0  0
   44.9154    7.3766   12.1863 C   0  0  0  0  0  0  0  0  0  0  0  0
   46.8257    7.3510   11.0055 H   0  0  0  0  0  0  0  0  0  0  0  0
   47.4818    6.0414   11.9512 H   0  0  0  0  0  0  0  0  0  0  0  0
   47.6572    7.8786   15.0701 H   0  0  0  0  0  0  0  0  0  0  0  0
   48.3052    6.6460   14.2220 H   0  0  0  0  0  0  0  0  0  0  0  0
   46.2204    8.5035   13.2983 H   0  0  0  0  0  0  0  0  0  0  0  0
   44.4692    7.6098   10.6490 H   0  0  0  0  0  0  0  0  0  0  0  0
   45.9017    4.8069   13.5966 H   0  0  0  0  0  0  0  0  0  0  0  0
   48.5040    9.4820   13.4563 H   0  0  0  0  0  0  0  0  0  0  0  0
   47.9980    9.3218   11.7715 H   0  0  0  0  0  0  0  0  0  0  0  0
   49.1542    8.1679   12.4580 H   0  0  0  0  0  0  0  0  0  0  0  0
   43.6309    3.8539   13.7808 H   0  0  0  0  0  0  0  0  0  0  0  0
   42.2050    6.6499   10.8477 H   0  0  0  0  0  0  0  0  0  0  0  0
   41.7770    4.7698   12.4086 H   0  0  0  0  0  0  0  0  0  0  0  0
   43.0088    3.4645   12.0332 H   0  0  0  0  0  0  0  0  0  0  0  0
   49.6106    5.7658   13.1464 H   0  0  0  0  0  0  0  0  0  0  0  0
   44.9754    5.8108   13.6731 H   0  0  0  0  0  0  0  0  0  0  0  0
   45.8833    5.4392   12.1778 H   0  0  0  0  0  0  0  0  0  0  0  0
   48.0451    8.8279   12.4331 H   0  0  0  0  0  0  0  0  0  0  0  0
   47.4095    7.6469   11.2666 H   0  0  0  0  0  0  0  0  0  0  0  0
   45.7910    9.2863   12.5416 H   0  0  0  0  0  0  0  0  0  0  0  0
   45.9492    8.1923   13.9067 H   0  0  0  0  0  0  0  0  0  0  0  0
   43.9434    7.7874   12.4893 H   0  0  0  0  0  0  0  0  0  0  0  0
   44.9545    7.4677   11.0933 H   0  0  0  0  0  0  0  0  0  0  0  0
  2  4  1  0
  3  1  1  0
  4  1  1  0
  5  3  2  0
  6  3  1  0
  7  4  1  0
  8  6  2  0
  9  5  1  0
 10  8  1  0
 10  9  2  0
 12 17  1  0
 13 11  2  0
 14 12  2  0
 15 12  1  0
 16 11  1  0
 17 20  1  0
 18 11  1  0
 19 18  1  0
 20 19  1  0
  1 21  1  0
  1 22  1  0
  2 23  1  0
  2 24  1  0
  4 25  1  1
  5 26  1  0
  6 27  1  0
  7 28  1  0
  7 29  1  0
  7 30  1  0
  8 31  1  0
  9 32  1  0
 10 33  1  0
 15 34  1  0
 16 35  1  0
 17 36  1  0
 17 37  1  0
 18 38  1  0
 18 39  1  0
 19 40  1  0
 19 41  1  0
 20 42  1  0
 20 43  1  0
M  END
> <Uni-Dock RESULT> 
ENERGY=   -5.139  LOWER_BOUND=    3.386  UPPER_BOUND=    5.046
INTER + INTRA:          -5.139
INTER:                  -5.139
INTRA:                   0.000
UNBOUND:                 0.000

$$$$

     RDKit          3D

 43 42  0  0  0  0  0  0  0  0999 V2000
   44.6555    6.1730   12.8215 C   0  0  0  0  0  0  0  0  0  0  0  0
   44.6631    4.7806   10.7507 N   0  0  0  0  0  0  0  0  0  0  0  0
   45.8515    7.0814   12.6464 C   0  0  0  0  0  0  0  0  0  0  0  0
   43.9436    5.8228   11.4963 C   0  0  1  0  0  0  0  0  0  0  0  0
   45.7358    8.4603   12.8719 C   0  0  0  0  0  0  0  0  0  0  0  0
   47.0897    6.5630   12.2456 C   0  0  0  0  0  0  0  0  0  0  0  0
   42.5191    5.3358   11.7696 C   0  0  0  0  0  0  0  0  0  0  0  0
   48.1915    7.4038   12.0812 C   0  0  0  0  0  0  0  0  0  0  0  0
   46.8390    9.3003   12.7082 C   0  0  0  0  0  0  0  0  0  0  0  0
   48.0667    8.7719   12.3141 C   0  0  0  0  0  0  0  0  0  0  0  0
   44.2993    4.5791   12.1312 C   0  0  0  0  0  0  0  0  0  0  0  0
   47.5395    7.9975   12.8084 C   0  0  0  0  0  0  0  0  0  0  0  0
   45.1716    4.2995   11.3279 O   0  0  0  0  0  0  0  0  0  0  0  0
   47.4398    9.1847   13.0656 O   0  0  0  0  0  0  0  0  0  0  0  0
   48.7077    7.3525   12.9963 O   0  0  0  0  0  0  0  0  0  0  0  0
   43.9134    3.6847   13.0621 O   0  0  0  0  0  0  0  0  0  0  0  0
   46.4674    7.0781   12.2863 C   0  0  0  0  0  0  0  0  0  0  0  0
   43.5197    5.8635   12.2314 C   0  0  0  0  0  0  0  0  0  0  0  0
   44.0737    6.9853   11.3510 C   0  0  0  0  0  0  0  0  0  0  0  0
   45.1665    7.8312   12.0155 C   0  0  0  0  0  0  0  0  0  0  0  0
   43.9463    6.6675   13.4991 H   0  0  0  0  0  0  0  0  0  0  0  0
   44.9662    5.2614   13.3499 H   0  0  0  0  0  0  0  0  0  0  0  0
   44.1724    4.5857    9.8790 H   0  0  0  0  0  0  0  0  0  0  0  0
   44.6597    3.9104   11.2808 H   0  0  0  0  0  0  0  0  0  0  0  0
   43.8853    6.7169   10.8637 H   0  0  0  0  0  0  0  0  0  0  0  0
   44.7849    8.8901   13.1771 H   0  0  0  0  0  0  0  0  0  0  0  0
   47.1972    5.4986   12.0482 H   0  0  0  0  0  0  0  0  0  0  0  0
   41.9998    5.0917   10.8361 H   0  0  0  0  0  0  0  0  0  0  0  0
   41.9359    6.1125   12.2762 H   0  0  0  0  0  0  0  0  0  0  0  0
   42.5143    4.4427   12.4045 H   0  0  0  0  0  0  0  0  0  0  0  0
   49.1455    6.9898   11.7661 H   0  0  0  0  0  0  0  0  0  0  0  0
   46.7394   10.3675   12.8865 H   0  0  0  0  0  0  0  0  0  0  0  0
   48.9245    9.4259   12.1842 H   0  0  0  0  0  0  0  0  0  0  0  0
   49.3125    8.0478   13.3297 H   0  0  0  0  0  0  0  0  0  0  0  0
   44.4734    2.8994   12.8867 H   0  0  0  0  0  0  0  0  0  0  0  0
   46.8326    6.6230   11.3594 H   0  0  0  0  0  0  0  0  0  0  0  0
   46.3060    6.2988   13.0374 H   0  0  0  0  0  0  0  0  0  0  0  0
   42.4984    5.6330   11.9054 H   0  0  0  0  0  0  0  0  0  0  0  0
   43.4843    6.1834   13.2783 H   0  0  0  0  0  0  0  0  0  0  0  0
   43.2435    7.6630   11.1137 H   0  0  0  0  0  0  0  0  0  0  0  0
   44.4368    6.5943   10.3932 H   0  0  0  0  0  0  0  0  0  0  0  0
   45.3778    8.6862   11.3601 H   0  0  0  0  0  0  0  0  0  0  0  0
   44.7838    8.2557   12.9523 H   0  0  0  0  0  0  0  0  0  0  0  0
  2  4  1  0
  3  1  1  0
  4  1  1  0
  5  3  2  0
  6  3  1  0
  7  4  1  0
  8  6  2  0
  9  5  1  0
 10  8  1  0
 10  9  2  0
 12 17  1  0
 13 11  2  0
 14 12  2  0
 15 12  1  0
 16 11  1  0
 17 20  1  0
 18 11  1  0
 19 18  1  0
 20 19  1  0
  1 21  1  0
  1 22  1  0
  2 23  1  0
  2 24  1  0
  4 25  1  1
  5 26  1  0
  6 27  1  0
  7 28  1  0
  7 29  1  0
  7 30  1  0
  8 31  1  0
  9 32  1  0
 10 33  1  0
 15 34  1  0
 16 35  1  0
 17 36  1  0
 17 37  1  0
 18 38  1  0
 18 39  1  0
 19 40  1  0
 19 41  1  0
 20 42  1  0
 20 43  1  0
M  END
> <Uni-Dock RESULT> 
ENERGY=   -4.656  LOWER_BOUND=    3.267  UPPER_BOUND=    5.212
INTER + INTRA:          -4.656
INTER:                  -4.656
INTRA:                   0.000
UNBOUND:                 0.000

$$$$

     RDKit          3D

 43 42  0  0  0  0  0  0  0  0999 V2000
   45.8199    7.2871   12.5592 C   0  0  0  0  0  0  0  0  0  0  0  0
   48.1806    6.7607   11.9451 N   0  0  0  0  0  0  0  0  0  0  0  0
   45.0377    6.1148   12.0114 C   0  0  0  0  0  0  0  0  0  0  0  0
   47.2326    6.9112   13.0579 C   0  0  1  0  0  0  0  0  0  0  0  0
   44.0873    5.4602   12.8076 C   0  0  0  0  0  0  0  0  0  0  0  0
   45.2574    5.6568   10.7059 C   0  0  0  0  0  0  0  0  0  0  0  0
   47.7628    7.9828   14.0128 C   0  0  0  0  0  0  0  0  0  0  0  0
   44.5366    4.5723   10.2035 C   0  0  0  0  0  0  0  0  0  0  0  0
   43.3662    4.3761   12.3037 C   0  0  0  0  0  0  0  0  0  0  0  0
   43.5900    3.9331   11.0016 C   0  0  0  0  0  0  0  0  0  0  0  0
   47.3897    7.9586   12.0808 C   0  0  0  0  0  0  0  0  0  0  0  0
   43.8476    4.9602   11.0289 C   0  0  0  0  0  0  0  0  0  0  0  0
   47.8799    7.2346   11.2323 O   0  0  0  0  0  0  0  0  0  0  0  0
   42.9827    4.4388   11.7112 O   0  0  0  0  0  0  0  0  0  0  0  0
   43.7277    5.0030    9.6873 O   0  0  0  0  0  0  0  0  0  0  0  0
   47.3507    9.2935   11.9026 O   0  0  0  0  0  0  0  0  0  0  0  0
   45.1149    5.6220   11.5014 C   0  0  0  0  0  0  0  0  0  0  0  0
   46.7951    7.5524   13.4034 C   0  0  0  0  0  0  0  0  0  0  0  0
   46.6092    6.0411   13.5519 C   0  0  0  0  0  0  0  0  0  0  0  0
   45.2735    5.5115   13.0164 C   0  0  0  0  0  0  0  0  0  0  0  0
   45.2444    7.7268   13.3851 H   0  0  0  0  0  0  0  0  0  0  0  0
   45.8728    8.0763   11.7968 H   0  0  0  0  0  0  0  0  0  0  0  0
   49.0958    6.5008   12.3107 H   0  0  0  0  0  0  0  0  0  0  0  0
   48.3055    7.6549   11.4730 H   0  0  0  0  0  0  0  0  0  0  0  0
   47.1887    5.9591   13.6006 H   0  0  0  0  0  0  0  0  0  0  0  0
   43.9017    5.7905   13.8268 H   0  0  0  0  0  0  0  0  0  0  0  0
   46.0025    6.1390   10.0769 H   0  0  0  0  0  0  0  0  0  0  0  0
   48.7619    7.7237   14.3808 H   0  0  0  0  0  0  0  0  0  0  0  0
   47.1072    8.0815   14.8849 H   0  0  0  0  0  0  0  0  0  0  0  0
   47.8239    8.9619   13.5245 H   0  0  0  0  0  0  0  0  0  0  0  0
   44.7193    4.2243    9.1904 H   0  0  0  0  0  0  0  0  0  0  0  0
   42.6310    3.8760   12.9282 H   0  0  0  0  0  0  0  0  0  0  0  0
   43.0307    3.0878   10.6102 H   0  0  0  0  0  0  0  0  0  0  0  0
   42.8789    4.5464    9.5096 H   0  0  0  0  0  0  0  0  0  0  0  0
   47.7730    9.4311   11.0286 H   0  0  0  0  0  0  0  0  0  0  0  0
   45.9590    5.1331   11.0032 H   0  0  0  0  0  0  0  0  0  0  0  0
   45.0710    6.6729   11.1995 H   0  0  0  0  0  0  0  0  0  0  0  0
   47.4919    7.8983   14.1762 H   0  0  0  0  0  0  0  0  0  0  0  0
   45.8396    8.0692   13.5433 H   0  0  0  0  0  0  0  0  0  0  0  0
   46.6412    5.8056   14.6235 H   0  0  0  0  0  0  0  0  0  0  0  0
   47.4388    5.4929   13.0901 H   0  0  0  0  0  0  0  0  0  0  0  0
   45.1859    4.4571   13.3094 H   0  0  0  0  0  0  0  0  0  0  0  0
   44.4457    6.0331   13.5133 H   0  0  0  0  0  0  0  0  0  0  0  0
  2  4  1  0
  3  1  1  0
  4  1  1  0
  5  3  2  0
  6  3  1  0
  7  4  1  0
  8  6  2  0
  9  5  1  0
 10  8  1  0
 10  9  2  0
 12 17  1  0
 13 11  2  0
 14 12  2  0
 15 12  1  0
 16 11  1  0
 17 20  1  0
 18 11  1  0
 19 18  1  0
 20 19  1  0
  1 21  1  0
  1 22  1  0
  2 23  1  0
  2 24  1  0
  4 25  1  1
  5 26  1  0
  6 27  1  0
  7 28  1  0
  7 29  1  0
  7 30  1  0
  8 31  1  0
  9 32  1  0
 10 33  1  0
 15 34  1  0
 16 35  1  0
 17 36  1  0
 17 37  1  0
 18 38  1  0
 18 39  1  0
 19 40  1  0
 19 41  1  0
 20 42  1  0
 20 43  1  0
M  END
> <Uni-Dock RESULT> 
ENERGY=   -4.646  LOWER_BOUND=    2.795  UPPER_BOUND=    4.039
INTER + INTRA:          -4.646
INTER:                  -4.646
INTRA:                   0.000
UNBOUND:                 0.000

$$$$

     RDKit          3D

 43 42  0  0  0  0  0  0  0  0999 V2000
   48.5039    4.2100   20.4315 C   0  0  0  0  0  0  0  0  0  0  0  0
   48.1633    6.6790   20.5559 N   0  0  0  0  0  0  0  0  0  0  0  0
   48.3788    3.9054   18.9558 C   0  0  0  0  0  0  0  0  0  0  0  0
   49.1335    5.5888   20.7288 C   0  0  1  0  0  0  0  0  0  0  0  0
   49.3310    3.1019   18.3128 C   0  0  0  0  0  0  0  0  0  0  0  0
   47.3181    4.4292   18.2056 C   0  0  0  0  0  0  0  0  0  0  0  0
   49.6696    5.6316   22.1613 C   0  0  0  0  0  0  0  0  0  0  0  0
   47.2065    4.1495   16.8427 C   0  0  0  0  0  0  0  0  0  0  0  0
   49.2178    2.8219   16.9497 C   0  0  0  0  0  0  0  0  0  0  0  0
   48.1552    3.3446   16.2152 C   0  0  0  0  0  0  0  0  0  0  0  0
   47.8578    5.5492   21.3977 C   0  0  0  0  0  0  0  0  0  0  0  0
   47.8307    3.2698   17.2208 C   0  0  0  0  0  0  0  0  0  0  0  0
   47.3239    6.3474   20.6480 O   0  0  0  0  0  0  0  0  0  0  0  0
   48.6318    2.5216   16.6880 O   0  0  0  0  0  0  0  0  0  0  0  0
   46.5551    3.3253   16.7899 O   0  0  0  0  0  0  0  0  0  0  0  0
   47.2273    5.1285   22.5117 O   0  0  0  0  0  0  0  0  0  0  0  0
   48.0729    4.1979   18.3815 C   0  0  0  0  0  0  0  0  0  0  0  0
   49.2255    4.9338   21.2620 C   0  0  0  0  0  0  0  0  0  0  0  0
   49.8842    5.2003   19.9072 C   0  0  0  0  0  0  0  0  0  0  0  0
   49.5355    4.1759   18.8207 C   0  0  0  0  0  0  0  0  0  0  0  0
   49.1132    3.4214   20.8936 H   0  0  0  0  0  0  0  0  0  0  0  0
   47.5167    4.1220   20.9054 H   0  0  0  0  0  0  0  0  0  0  0  0
   48.6167    7.5715   20.7474 H   0  0  0  0  0  0  0  0  0  0  0  0
   47.4135    6.5873   21.2396 H   0  0  0  0  0  0  0  0  0  0  0  0
   49.9713    5.7650   20.0433 H   0  0  0  0  0  0  0  0  0  0  0  0
   50.1681    2.6880   18.8696 H   0  0  0  0  0  0  0  0  0  0  0  0
   46.5779    5.0693   18.6807 H   0  0  0  0  0  0  0  0  0  0  0  0
   50.1268    6.6026   22.3824 H   0  0  0  0  0  0  0  0  0  0  0  0
   50.4385    4.8655   22.3089 H   0  0  0  0  0  0  0  0  0  0  0  0
   48.8738    5.4561   22.8939 H   0  0  0  0  0  0  0  0  0  0  0  0
   46.3811    4.5652   16.2712 H   0  0  0  0  0  0  0  0  0  0  0  0
   49.9603    2.1972   16.4606 H   0  0  0  0  0  0  0  0  0  0  0  0
   48.0685    3.1289   15.1539 H   0  0  0  0  0  0  0  0  0  0  0  0
   46.5276    2.6891   16.0450 H   0  0  0  0  0  0  0  0  0  0  0  0
   46.3694    5.6028   22.4952 H   0  0  0  0  0  0  0  0  0  0  0  0
   47.7941    5.2103   18.0702 H   0  0  0  0  0  0  0  0  0  0  0  0
   47.4248    3.8762   19.2024 H   0  0  0  0  0  0  0  0  0  0  0  0
   49.8460    5.3800   22.0482 H   0  0  0  0  0  0  0  0  0  0  0  0
   49.1563    3.8563   21.4463 H   0  0  0  0  0  0  0  0  0  0  0  0
   50.9714    5.1573   20.0515 H   0  0  0  0  0  0  0  0  0  0  0  0
   49.6597    6.2123   19.5500 H   0  0  0  0  0  0  0  0  0  0  0  0
   50.1737    4.3760   17.9501 H   0  0  0  0  0  0  0  0  0  0  0  0
   49.8023    3.1690   19.1661 H   0  0  0  0  0  0  0  0  0  0  0  0
  2  4  1  0
  3  1  1  0
  4  1  1  0
  5  3  2  0
  6  3  1  0
  7  4  1  0
  8  6  2  0
  9  5  1  0
 10  8  1  0
 10  9  2  0
 12 17  1  0
 13 11  2  0
 14 12  2  0
 15 12  1  0
 16 11  1  0
 17 20  1  0
 18 11  1  0
 19 18  1  0
 20 19  1  0
  1 21  1  0
  1 22  1  0
  2 23  1  0
  2 24  1  0
  4 25  1  1
  5 26  1  0
  6 27  1  0
  7 28  1  0
  7 29  1  0
  7 30  1  0
  8 31  1  0
  9 32  1  0
 10 33  1  0
 15 34  1  0
 16 35  1  0
 17 36  1  0
 17 37  1  0
 18 38  1  0
 18 39  1  0
 19 40  1  0
 19 41  1  0
 20 42  1  0
 20 43  1  0
M  END
> <Uni-Dock RESULT> 
ENERGY=   -4.585  LOWER_BOUND=    8.577  UPPER_BOUND=    9.999
INTER + INTRA:          -4.585
INTER:                  -4.585
INTRA:                   0.000
UNBOUND:                 0.000

$$$$
