
     RDKit          3D

 43 42  0  0  0  0  0  0  0  0999 V2000
   44.4637    3.4954    8.4034 C   0  0  0  0  0  0  0  0  0  0  0  0
   43.6266    5.0345   10.1353 N   0  0  0  0  0  0  0  0  0  0  0  0
   45.6625    2.9318    7.6752 C   0  0  0  0  0  0  0  0  0  0  0  0
   44.8335    4.3771    9.6142 C   0  0  1  0  0  0  0  0  0  0  0  0
   46.0050    1.5795    7.8085 C   0  0  0  0  0  0  0  0  0  0  0  0
   46.4523    3.7554    6.8609 C   0  0  0  0  0  0  0  0  0  0  0  0
   45.4709    3.5706   10.7463 C   0  0  0  0  0  0  0  0  0  0  0  0
   47.5639    3.2361    6.1953 C   0  0  0  0  0  0  0  0  0  0  0  0
   47.1171    1.0623    7.1424 C   0  0  0  0  0  0  0  0  0  0  0  0
   47.8963    1.8903    6.3366 C   0  0  0  0  0  0  0  0  0  0  0  0
   47.7152    2.4671    6.4644 C   0  0  0  0  0  0  0  0  0  0  0  0
   44.8506    4.3126   10.8111 C   0  0  0  0  0  0  0  0  0  0  0  0
   48.6656    2.2996    7.2085 O   0  0  0  0  0  0  0  0  0  0  0  0
   45.1076    5.3301   10.1916 O   0  0  0  0  0  0  0  0  0  0  0  0
   44.9127    4.2954   12.1570 O   0  0  0  0  0  0  0  0  0  0  0  0
   47.8888    2.5004    5.1283 O   0  0  0  0  0  0  0  0  0  0  0  0
   44.4126    2.9848   10.2520 C   0  0  0  0  0  0  0  0  0  0  0  0
   46.2697    2.6383    6.8455 C   0  0  0  0  0  0  0  0  0  0  0  0
   46.0932    2.7286    8.3605 C   0  0  0  0  0  0  0  0  0  0  0  0
   44.6177    2.8822    8.7407 C   0  0  0  0  0  0  0  0  0  0  0  0
   43.8014    2.6781    8.7194 H   0  0  0  0  0  0  0  0  0  0  0  0
   43.8820    4.0815    7.6784 H   0  0  0  0  0  0  0  0  0  0  0  0
   43.2338    5.6441    9.4189 H   0  0  0  0  0  0  0  0  0  0  0  0
   43.8791    5.6391   10.9165 H   0  0  0  0  0  0  0  0  0  0  0  0
   45.5367    5.1596    9.3047 H   0  0  0  0  0  0  0  0  0  0  0  0
   45.4081    0.9204    8.4351 H   0  0  0  0  0  0  0  0  0  0  0  0
   46.2039    4.8070    6.7376 H   0  0  0  0  0  0  0  0  0  0  0  0
   46.4215    3.1289   10.4308 H   0  0  0  0  0  0  0  0  0  0  0  0
   45.6850    4.2090   11.6112 H   0  0  0  0  0  0  0  0  0  0  0  0
   44.8144    2.7595   11.0808 H   0  0  0  0  0  0  0  0  0  0  0  0
   48.1699    3.8816    5.5652 H   0  0  0  0  0  0  0  0  0  0  0  0
   47.3751    0.0122    7.2525 H   0  0  0  0  0  0  0  0  0  0  0  0
   48.7614    1.4862    5.8178 H   0  0  0  0  0  0  0  0  0  0  0  0
   45.1964    5.2033   12.3936 H   0  0  0  0  0  0  0  0  0  0  0  0
   48.8547    2.3797    5.0122 H   0  0  0  0  0  0  0  0  0  0  0  0
   43.3464    2.8732   10.4784 H   0  0  0  0  0  0  0  0  0  0  0  0
   44.9624    2.1840   10.7588 H   0  0  0  0  0  0  0  0  0  0  0  0
   45.8966    3.5555    6.3763 H   0  0  0  0  0  0  0  0  0  0  0  0
   45.7100    1.7825    6.4526 H   0  0  0  0  0  0  0  0  0  0  0  0
   46.5020    1.8273    8.8344 H   0  0  0  0  0  0  0  0  0  0  0  0
   46.6754    3.5750    8.7440 H   0  0  0  0  0  0  0  0  0  0  0  0
   44.1940    3.7616    8.2407 H   0  0  0  0  0  0  0  0  0  0  0  0
   44.0651    2.0087    8.3734 H   0  0  0  0  0  0  0  0  0  0  0  0
  2  4  1  0
  3  1  1  0
  4  1  1  0
  5  3  2  0
  6  3  1  0
  7  4  1  0
  8  6  2  0
  9  5  1  0
 10  8  1  0
 10  9  2  0
 12 17  1  0
 13 11  2  0
 14 12  2  0
 15 12  1  0
 16 11  1  0
 17 20  1  0
 18 11  1  0
 19 18  1  0
 20 19  1  0
  1 21  1  0
  1 22  1  0
  2 23  1  0
  2 24  1  0
  4 25  1  6
  5 26  1  0
  6 27  1  0
  7 28  1  0
  7 29  1  0
  7 30  1  0
  8 31  1  0
  9 32  1  0
 10 33  1  0
 15 34  1  0
 16 35  1  0
 17 36  1  0
 17 37  1  0
 18 38  1  0
 18 39  1  0
 19 40  1  0
 19 41  1  0
 20 42  1  0
 20 43  1  0
M  END
> <Uni-Dock RESULT> 
ENERGY=   -7.863  LOWER_BOUND=    0.000  UPPER_BOUND=    0.000
INTER + INTRA:          -7.863
INTER:                  -7.863
INTRA:                   0.000
UNBOUND:                 0.000

$$$$

     RDKit          3D

 43 42  0  0  0  0  0  0  0  0999 V2000
   43.8861    4.0471   10.3843 C   0  0  0  0  0  0  0  0  0  0  0  0
   43.7837    5.3861   12.4497 N   0  0  0  0  0  0  0  0  0  0  0  0
   44.7473    3.4737    9.2824 C   0  0  0  0  0  0  0  0  0  0  0  0
   44.6946    4.6879   11.5315 C   0  0  1  0  0  0  0  0  0  0  0  0
   44.9094    2.0876    9.1541 C   0  0  0  0  0  0  0  0  0  0  0  0
   45.4013    4.3206    8.3766 C   0  0  0  0  0  0  0  0  0  0  0  0
   45.4870    3.6534   12.3315 C   0  0  0  0  0  0  0  0  0  0  0  0
   46.2030    3.7906    7.3644 C   0  0  0  0  0  0  0  0  0  0  0  0
   45.7118    1.5597    8.1415 C   0  0  0  0  0  0  0  0  0  0  0  0
   46.3584    2.4107    7.2474 C   0  0  0  0  0  0  0  0  0  0  0  0
   46.3058    2.9776    7.4877 C   0  0  0  0  0  0  0  0  0  0  0  0
   45.0238    4.4401   12.6572 C   0  0  0  0  0  0  0  0  0  0  0  0
   47.3860    2.5957    7.9029 O   0  0  0  0  0  0  0  0  0  0  0  0
   45.2519    5.5059   12.1121 O   0  0  0  0  0  0  0  0  0  0  0  0
   45.4430    4.2109   13.9171 O   0  0  0  0  0  0  0  0  0  0  0  0
   46.1159    3.1953    6.1712 O   0  0  0  0  0  0  0  0  0  0  0  0
   44.2602    3.2691   12.0976 C   0  0  0  0  0  0  0  0  0  0  0  0
   45.0582    3.2456    8.2851 C   0  0  0  0  0  0  0  0  0  0  0  0
   45.3118    3.1224    9.7868 C   0  0  0  0  0  0  0  0  0  0  0  0
   44.0329    3.3765   10.5898 C   0  0  0  0  0  0  0  0  0  0  0  0
   43.2202    3.2686   10.7804 H   0  0  0  0  0  0  0  0  0  0  0  0
   43.2238    4.7971    9.9299 H   0  0  0  0  0  0  0  0  0  0  0  0
   43.3069    6.1372   11.9519 H   0  0  0  0  0  0  0  0  0  0  0  0
   44.3238    5.8331   13.1900 H   0  0  0  0  0  0  0  0  0  0  0  0
   45.3960    5.4269   11.1258 H   0  0  0  0  0  0  0  0  0  0  0  0
   44.4128    1.4099    9.8451 H   0  0  0  0  0  0  0  0  0  0  0  0
   45.2870    5.3994    8.4525 H   0  0  0  0  0  0  0  0  0  0  0  0
   46.2413    3.1638   11.7073 H   0  0  0  0  0  0  0  0  0  0  0  0
   46.0181    4.1250   13.1663 H   0  0  0  0  0  0  0  0  0  0  0  0
   44.8325    2.8774   12.7442 H   0  0  0  0  0  0  0  0  0  0  0  0
   46.7052    4.4545    6.6659 H   0  0  0  0  0  0  0  0  0  0  0  0
   45.8317    0.4833    8.0505 H   0  0  0  0  0  0  0  0  0  0  0  0
   46.9822    1.9985    6.4588 H   0  0  0  0  0  0  0  0  0  0  0  0
   45.9109    5.0356   14.1657 H   0  0  0  0  0  0  0  0  0  0  0  0
   46.9859    2.9889    5.7695 H   0  0  0  0  0  0  0  0  0  0  0  0
   43.2901    3.2415   12.6062 H   0  0  0  0  0  0  0  0  0  0  0  0
   44.8015    2.3451   12.3288 H   0  0  0  0  0  0  0  0  0  0  0  0
   44.7124    4.2589    8.0523 H   0  0  0  0  0  0  0  0  0  0  0  0
   44.2933    2.5262    7.9731 H   0  0  0  0  0  0  0  0  0  0  0  0
   45.6953    2.1201   10.0156 H   0  0  0  0  0  0  0  0  0  0  0  0
   46.0943    3.8316   10.0821 H   0  0  0  0  0  0  0  0  0  0  0  0
   43.6249    4.3630   10.3379 H   0  0  0  0  0  0  0  0  0  0  0  0
   43.2790    2.6350   10.2981 H   0  0  0  0  0  0  0  0  0  0  0  0
  2  4  1  0
  3  1  1  0
  4  1  1  0
  5  3  2  0
  6  3  1  0
  7  4  1  0
  8  6  2  0
  9  5  1  0
 10  8  1  0
 10  9  2  0
 12 17  1  0
 13 11  2  0
 14 12  2  0
 15 12  1  0
 16 11  1  0
 17 20  1  0
 18 11  1  0
 19 18  1  0
 20 19  1  0
  1 21  1  0
  1 22  1  0
  2 23  1  0
  2 24  1  0
  4 25  1  6
  5 26  1  0
  6 27  1  0
  7 28  1  0
  7 29  1  0
  7 30  1  0
  8 31  1  0
  9 32  1  0
 10 33  1  0
 15 34  1  0
 16 35  1  0
 17 36  1  0
 17 37  1  0
 18 38  1  0
 18 39  1  0
 19 40  1  0
 19 41  1  0
 20 42  1  0
 20 43  1  0
M  END
> <Uni-Dock RESULT> 
ENERGY=   -6.615  LOWER_BOUND=    1.333  UPPER_BOUND=    1.902
INTER + INTRA:          -6.615
INTER:                  -6.615
INTRA:                   0.000
UNBOUND:                 0.000

$$$$

     RDKit          3D

 43 42  0  0  0  0  0  0  0  0999 V2000
   45.1796    2.4153    7.4409 C   0  0  0  0  0  0  0  0  0  0  0  0
   46.8501    1.1843    6.1129 N   0  0  0  0  0  0  0  0  0  0  0  0
   44.8422    3.0870    8.7523 C   0  0  0  0  0  0  0  0  0  0  0  0
   46.6599    1.9967    7.3229 C   0  0  1  0  0  0  0  0  0  0  0  0
   44.6270    4.4706    8.8085 C   0  0  0  0  0  0  0  0  0  0  0  0
   44.7456    2.3363    9.9322 C   0  0  0  0  0  0  0  0  0  0  0  0
   47.5994    3.2009    7.2485 C   0  0  0  0  0  0  0  0  0  0  0  0
   44.4421    2.9585   11.1442 C   0  0  0  0  0  0  0  0  0  0  0  0
   44.3239    5.0910   10.0215 C   0  0  0  0  0  0  0  0  0  0  0  0
   44.2320    4.3353   11.1886 C   0  0  0  0  0  0  0  0  0  0  0  0
   44.4670    3.7812   11.0486 C   0  0  0  0  0  0  0  0  0  0  0  0
   47.6632    2.3575    6.7750 C   0  0  0  0  0  0  0  0  0  0  0  0
   45.4201    4.3812   11.5141 O   0  0  0  0  0  0  0  0  0  0  0  0
   47.5875    1.3289    7.4241 O   0  0  0  0  0  0  0  0  0  0  0  0
   48.8274    2.7236    6.2039 O   0  0  0  0  0  0  0  0  0  0  0  0
   43.4101    3.4671   11.8238 O   0  0  0  0  0  0  0  0  0  0  0  0
   46.5573    3.3334    6.4713 C   0  0  0  0  0  0  0  0  0  0  0  0
   44.2763    3.3208    9.6288 C   0  0  0  0  0  0  0  0  0  0  0  0
   45.5266    3.5634    8.7848 C   0  0  0  0  0  0  0  0  0  0  0  0
   45.3171    3.1109    7.3369 C   0  0  0  0  0  0  0  0  0  0  0  0
   44.9049    3.0718    6.6043 H   0  0  0  0  0  0  0  0  0  0  0  0
   44.5330    1.5319    7.3459 H   0  0  0  0  0  0  0  0  0  0  0  0
   46.2938    0.3329    6.1827 H   0  0  0  0  0  0  0  0  0  0  0  0
   47.8229    0.8849    6.0538 H   0  0  0  0  0  0  0  0  0  0  0  0
   46.9444    1.3853    8.1877 H   0  0  0  0  0  0  0  0  0  0  0  0
   44.6970    5.0749    7.9066 H   0  0  0  0  0  0  0  0  0  0  0  0
   44.9034    1.2604    9.9133 H   0  0  0  0  0  0  0  0  0  0  0  0
   47.5565    3.7935    8.1679 H   0  0  0  0  0  0  0  0  0  0  0  0
   48.6398    2.8802    7.1215 H   0  0  0  0  0  0  0  0  0  0  0  0
   47.3447    3.8578    6.4092 H   0  0  0  0  0  0  0  0  0  0  0  0
   44.3682    2.3685   12.0538 H   0  0  0  0  0  0  0  0  0  0  0  0
   44.1593    6.1648   10.0550 H   0  0  0  0  0  0  0  0  0  0  0  0
   43.9951    4.8192   12.1323 H   0  0  0  0  0  0  0  0  0  0  0  0
   49.4533    2.0160    6.4652 H   0  0  0  0  0  0  0  0  0  0  0  0
   43.6534    3.8149   12.7074 H   0  0  0  0  0  0  0  0  0  0  0  0
   46.2883    3.2013    5.4174 H   0  0  0  0  0  0  0  0  0  0  0  0
   46.9317    4.3536    6.6104 H   0  0  0  0  0  0  0  0  0  0  0  0
   44.0439    2.2500    9.6429 H   0  0  0  0  0  0  0  0  0  0  0  0
   43.4256    3.8657    9.2052 H   0  0  0  0  0  0  0  0  0  0  0  0
   45.7826    4.6303    8.8022 H   0  0  0  0  0  0  0  0  0  0  0  0
   46.3749    3.0310    9.2314 H   0  0  0  0  0  0  0  0  0  0  0  0
   45.0255    2.0538    7.3158 H   0  0  0  0  0  0  0  0  0  0  0  0
   44.4851    3.6806    6.9053 H   0  0  0  0  0  0  0  0  0  0  0  0
  2  4  1  0
  3  1  1  0
  4  1  1  0
  5  3  2  0
  6  3  1  0
  7  4  1  0
  8  6  2  0
  9  5  1  0
 10  8  1  0
 10  9  2  0
 12 17  1  0
 13 11  2  0
 14 12  2  0
 15 12  1  0
 16 11  1  0
 17 20  1  0
 18 11  1  0
 19 18  1  0
 20 19  1  0
  1 21  1  0
  1 22  1  0
  2 23  1  0
  2 24  1  0
  4 25  1  6
  5 26  1  0
  6 27  1  0
  7 28  1  0
  7 29  1  0
  7 30  1  0
  8 31  1  0
  9 32  1  0
 10 33  1  0
 15 34  1  0
 16 35  1  0
 17 36  1  0
 17 37  1  0
 18 38  1  0
 18 39  1  0
 19 40  1  0
 19 41  1  0
 20 42  1  0
 20 43  1  0
M  END
> <Uni-Dock RESULT> 
ENERGY=   -6.031  LOWER_BOUND=    1.698  UPPER_BOUND=    4.953
INTER + INTRA:          -6.031
INTER:                  -6.031
INTRA:                   0.000
UNBOUND:                 0.000

$$$$

     RDKit          3D

 43 42  0  0  0  0  0  0  0  0999 V2000
   44.4918    6.4582   11.3761 C   0  0  0  0  0  0  0  0  0  0  0  0
   42.4529    5.1229   11.7358 N   0  0  0  0  0  0  0  0  0  0  0  0
   45.6608    7.1866   11.9987 C   0  0  0  0  0  0  0  0  0  0  0  0
   43.6696    5.6306   12.3857 C   0  0  1  0  0  0  0  0  0  0  0  0
   46.9711    6.7323   11.7977 C   0  0  0  0  0  0  0  0  0  0  0  0
   45.4503    8.3237   12.7912 C   0  0  0  0  0  0  0  0  0  0  0  0
   44.4553    4.4400   12.9366 C   0  0  0  0  0  0  0  0  0  0  0  0
   46.5296    8.9909   13.3726 C   0  0  0  0  0  0  0  0  0  0  0  0
   48.0490    7.4008   12.3802 C   0  0  0  0  0  0  0  0  0  0  0  0
   47.8282    8.5292   13.1675 C   0  0  0  0  0  0  0  0  0  0  0  0
   47.2197    8.5429   13.2738 C   0  0  0  0  0  0  0  0  0  0  0  0
   43.5148    4.4861   12.7068 C   0  0  0  0  0  0  0  0  0  0  0  0
   47.6613    7.9539   14.2449 O   0  0  0  0  0  0  0  0  0  0  0  0
   42.8576    5.4047   13.1644 O   0  0  0  0  0  0  0  0  0  0  0  0
   43.3119    3.2221   13.1275 O   0  0  0  0  0  0  0  0  0  0  0  0
   47.5138    9.8421   13.0685 O   0  0  0  0  0  0  0  0  0  0  0  0
   44.5758    4.5599   11.6409 C   0  0  0  0  0  0  0  0  0  0  0  0
   46.3442    7.9880   12.1831 C   0  0  0  0  0  0  0  0  0  0  0  0
   45.9083    6.5549   12.4846 C   0  0  0  0  0  0  0  0  0  0  0  0
   45.0347    5.9908   11.3605 C   0  0  0  0  0  0  0  0  0  0  0  0
   44.8458    5.8146   10.5595 H   0  0  0  0  0  0  0  0  0  0  0  0
   43.8490    7.2112   10.8992 H   0  0  0  0  0  0  0  0  0  0  0  0
   41.8739    5.9065   11.4359 H   0  0  0  0  0  0  0  0  0  0  0  0
   41.8977    4.6015   12.4136 H   0  0  0  0  0  0  0  0  0  0  0  0
   43.3633    6.2652   13.2260 H   0  0  0  0  0  0  0  0  0  0  0  0
   47.1601    5.8519   11.1873 H   0  0  0  0  0  0  0  0  0  0  0  0
   44.4430    8.6985   12.9577 H   0  0  0  0  0  0  0  0  0  0  0  0
   45.3299    4.7721   13.5050 H   0  0  0  0  0  0  0  0  0  0  0  0
   43.8378    3.8429   13.6173 H   0  0  0  0  0  0  0  0  0  0  0  0
   44.8032    3.7817   12.1326 H   0  0  0  0  0  0  0  0  0  0  0  0
   46.3572    9.8723   13.9845 H   0  0  0  0  0  0  0  0  0  0  0  0
   49.0616    7.0404   12.2190 H   0  0  0  0  0  0  0  0  0  0  0  0
   48.6683    9.0493   13.6198 H   0  0  0  0  0  0  0  0  0  0  0  0
   42.6059    3.3065   13.8021 H   0  0  0  0  0  0  0  0  0  0  0  0
   48.0789   10.0804   13.8332 H   0  0  0  0  0  0  0  0  0  0  0  0
   44.1475    4.1341   10.7267 H   0  0  0  0  0  0  0  0  0  0  0  0
   45.4311    3.9459   11.9439 H   0  0  0  0  0  0  0  0  0  0  0  0
   45.4608    8.6297   12.0913 H   0  0  0  0  0  0  0  0  0  0  0  0
   46.9080    8.0194   11.2444 H   0  0  0  0  0  0  0  0  0  0  0  0
   46.7932    5.9195   12.6153 H   0  0  0  0  0  0  0  0  0  0  0  0
   45.3646    6.5336   13.4367 H   0  0  0  0  0  0  0  0  0  0  0  0
   44.1669    6.6422   11.2008 H   0  0  0  0  0  0  0  0  0  0  0  0
   45.6125    5.9942   10.4281 H   0  0  0  0  0  0  0  0  0  0  0  0
  2  4  1  0
  3  1  1  0
  4  1  1  0
  5  3  2  0
  6  3  1  0
  7  4  1  0
  8  6  2  0
  9  5  1  0
 10  8  1  0
 10  9  2  0
 12 17  1  0
 13 11  2  0
 14 12  2  0
 15 12  1  0
 16 11  1  0
 17 20  1  0
 18 11  1  0
 19 18  1  0
 20 19  1  0
  1 21  1  0
  1 22  1  0
  2 23  1  0
  2 24  1  0
  4 25  1  6
  5 26  1  0
  6 27  1  0
  7 28  1  0
  7 29  1  0
  7 30  1  0
  8 31  1  0
  9 32  1  0
 10 33  1  0
 15 34  1  0
 16 35  1  0
 17 36  1  0
 17 37  1  0
 18 38  1  0
 18 39  1  0
 19 40  1  0
 19 41  1  0
 20 42  1  0
 20 43  1  0
M  END
> <Uni-Dock RESULT> 
ENERGY=   -5.343  LOWER_BOUND=    4.961  UPPER_BOUND=    6.473
INTER + INTRA:          -5.343
INTER:                  -5.343
INTRA:                   0.000
UNBOUND:                 0.000

$$$$

     RDKit          3D

 43 42  0  0  0  0  0  0  0  0999 V2000
   44.3253    4.3694   12.2219 C   0  0  0  0  0  0  0  0  0  0  0  0
   43.6493    2.5215   10.7394 N   0  0  0  0  0  0  0  0  0  0  0  0
   45.4283    5.2998   12.6720 C   0  0  0  0  0  0  0  0  0  0  0  0
   44.6934    3.5270   10.9829 C   0  0  1  0  0  0  0  0  0  0  0  0
   45.3365    6.6783   12.4373 C   0  0  0  0  0  0  0  0  0  0  0  0
   46.5618    4.7961   13.3253 C   0  0  0  0  0  0  0  0  0  0  0  0
   44.8438    4.3815    9.7238 C   0  0  0  0  0  0  0  0  0  0  0  0
   47.5837    5.6549   13.7332 C   0  0  0  0  0  0  0  0  0  0  0  0
   46.3596    7.5353   12.8457 C   0  0  0  0  0  0  0  0  0  0  0  0
   47.4827    7.0237   13.4929 C   0  0  0  0  0  0  0  0  0  0  0  0
   47.4537    6.4108   13.4197 C   0  0  0  0  0  0  0  0  0  0  0  0
   44.4619    3.4946    9.8072 C   0  0  0  0  0  0  0  0  0  0  0  0
   48.1553    6.7718   12.4911 O   0  0  0  0  0  0  0  0  0  0  0  0
   45.1135    2.6422   10.3851 O   0  0  0  0  0  0  0  0  0  0  0  0
   44.2576    3.4170    8.4776 O   0  0  0  0  0  0  0  0  0  0  0  0
   47.8819    6.5372   14.6914 O   0  0  0  0  0  0  0  0  0  0  0  0
   43.7770    4.6916   10.4118 C   0  0  0  0  0  0  0  0  0  0  0  0
   46.0729    5.8168   13.3505 C   0  0  0  0  0  0  0  0  0  0  0  0
   45.6431    5.5565   11.9075 C   0  0  0  0  0  0  0  0  0  0  0  0
   44.2294    4.9712   11.8450 C   0  0  0  0  0  0  0  0  0  0  0  0
   43.4087    4.9433   12.0297 H   0  0  0  0  0  0  0  0  0  0  0  0
   44.0861    3.7075   13.0659 H   0  0  0  0  0  0  0  0  0  0  0  0
   43.5926    1.8886   11.5365 H   0  0  0  0  0  0  0  0  0  0  0  0
   43.9102    1.9477    9.9380 H   0  0  0  0  0  0  0  0  0  0  0  0
   45.6372    2.9970   11.1595 H   0  0  0  0  0  0  0  0  0  0  0  0
   44.4673    7.0932   11.9316 H   0  0  0  0  0  0  0  0  0  0  0  0
   46.6537    3.7307   13.5233 H   0  0  0  0  0  0  0  0  0  0  0  0
   45.6698    5.0927    9.8247 H   0  0  0  0  0  0  0  0  0  0  0  0
   45.0622    3.7578    8.8494 H   0  0  0  0  0  0  0  0  0  0  0  0
   43.9309    4.9497    9.5125 H   0  0  0  0  0  0  0  0  0  0  0  0
   48.4582    5.2558   14.2400 H   0  0  0  0  0  0  0  0  0  0  0  0
   46.2796    8.6029   12.6586 H   0  0  0  0  0  0  0  0  0  0  0  0
   48.2782    7.6921   13.8112 H   0  0  0  0  0  0  0  0  0  0  0  0
   44.7389    2.6062    8.2099 H   0  0  0  0  0  0  0  0  0  0  0  0
   48.7762    6.9286   14.6019 H   0  0  0  0  0  0  0  0  0  0  0  0
   42.7008    4.4858   10.4083 H   0  0  0  0  0  0  0  0  0  0  0  0
   43.9664    5.5682    9.7826 H   0  0  0  0  0  0  0  0  0  0  0  0
   46.0756    4.8743   13.9093 H   0  0  0  0  0  0  0  0  0  0  0  0
   45.3774    6.5145   13.8295 H   0  0  0  0  0  0  0  0  0  0  0  0
   45.6777    6.4933   11.3371 H   0  0  0  0  0  0  0  0  0  0  0  0
   46.3590    4.8748   11.4329 H   0  0  0  0  0  0  0  0  0  0  0  0
   44.1796    4.0535   12.4435 H   0  0  0  0  0  0  0  0  0  0  0  0
   43.5305    5.6857   12.2970 H   0  0  0  0  0  0  0  0  0  0  0  0
  2  4  1  0
  3  1  1  0
  4  1  1  0
  5  3  2  0
  6  3  1  0
  7  4  1  0
  8  6  2  0
  9  5  1  0
 10  8  1  0
 10  9  2  0
 12 17  1  0
 13 11  2  0
 14 12  2  0
 15 12  1  0
 16 11  1  0
 17 20  1  0
 18 11  1  0
 19 18  1  0
 20 19  1  0
  1 21  1  0
  1 22  1  0
  2 23  1  0
  2 24  1  0
  4 25  1  6
  5 26  1  0
  6 27  1  0
  7 28  1  0
  7 29  1  0
  7 30  1  0
  8 31  1  0
  9 32  1  0
 10 33  1  0
 15 34  1  0
 16 35  1  0
 17 36  1  0
 17 37  1  0
 18 38  1  0
 18 39  1  0
 19 40  1  0
 19 41  1  0
 20 42  1  0
 20 43  1  0
M  END
> <Uni-Dock RESULT> 
ENERGY=   -5.323  LOWER_BOUND=    3.229  UPPER_BOUND=    5.908
INTER + INTRA:          -5.323
INTER:                  -5.323
INTRA:                   0.000
UNBOUND:                 0.000

$$$$

     RDKit          3D

 43 42  0  0  0  0  0  0  0  0999 V2000
   46.9886    6.4402   12.0741 C   0  0  0  0  0  0  0  0  0  0  0  0
   48.8655    7.4350   13.3218 N   0  0  0  0  0  0  0  0  0  0  0  0
   45.5666    5.9290   12.1106 C   0  0  0  0  0  0  0  0  0  0  0  0
   47.4245    7.1501   13.3727 C   0  0  1  0  0  0  0  0  0  0  0  0
   44.5560    6.5849   11.3949 C   0  0  0  0  0  0  0  0  0  0  0  0
   45.2373    4.7948   12.8660 C   0  0  0  0  0  0  0  0  0  0  0  0
   46.6794    8.4673   13.5923 C   0  0  0  0  0  0  0  0  0  0  0  0
   43.9224    4.3283   12.9058 C   0  0  0  0  0  0  0  0  0  0  0  0
   43.2417    6.1169   11.4363 C   0  0  0  0  0  0  0  0  0  0  0  0
   42.9251    4.9895   12.1916 C   0  0  0  0  0  0  0  0  0  0  0  0
   43.4203    4.8798   12.5446 C   0  0  0  0  0  0  0  0  0  0  0  0
   47.6080    8.2624   13.7802 C   0  0  0  0  0  0  0  0  0  0  0  0
   42.7080    5.5591   13.2631 O   0  0  0  0  0  0  0  0  0  0  0  0
   47.8537    7.2618   14.4310 O   0  0  0  0  0  0  0  0  0  0  0  0
   47.8111    9.4875   14.3032 O   0  0  0  0  0  0  0  0  0  0  0  0
   43.0389    3.6407   12.1762 O   0  0  0  0  0  0  0  0  0  0  0  0
   47.1028    8.3333   12.3634 C   0  0  0  0  0  0  0  0  0  0  0  0
   44.7518    5.2549   11.9526 C   0  0  0  0  0  0  0  0  0  0  0  0
   45.2400    6.6055   12.4741 C   0  0  0  0  0  0  0  0  0  0  0  0
   46.5855    6.9891   11.8514 C   0  0  0  0  0  0  0  0  0  0  0  0
   47.1219    7.1104   11.2142 H   0  0  0  0  0  0  0  0  0  0  0  0
   47.6444    5.5799   11.8806 H   0  0  0  0  0  0  0  0  0  0  0  0
   49.3845    6.5597   13.2602 H   0  0  0  0  0  0  0  0  0  0  0  0
   49.1557    7.8773   14.1935 H   0  0  0  0  0  0  0  0  0  0  0  0
   47.2401    6.4972   14.2344 H   0  0  0  0  0  0  0  0  0  0  0  0
   44.7864    7.4674   10.8020 H   0  0  0  0  0  0  0  0  0  0  0  0
   46.0049    4.2657   13.4259 H   0  0  0  0  0  0  0  0  0  0  0  0
   45.6058    8.2975   13.7220 H   0  0  0  0  0  0  0  0  0  0  0  0
   47.0358    8.9742   14.4964 H   0  0  0  0  0  0  0  0  0  0  0  0
   46.8151    9.1513   12.7470 H   0  0  0  0  0  0  0  0  0  0  0  0
   43.6764    3.4476   13.4931 H   0  0  0  0  0  0  0  0  0  0  0  0
   42.4647    6.6328   10.8783 H   0  0  0  0  0  0  0  0  0  0  0  0
   41.9017    4.6256   12.2224 H   0  0  0  0  0  0  0  0  0  0  0  0
   48.1408    9.3077   15.2087 H   0  0  0  0  0  0  0  0  0  0  0  0
   42.1728    3.5185   12.6186 H   0  0  0  0  0  0  0  0  0  0  0  0
   47.9403    8.6586   11.7362 H   0  0  0  0  0  0  0  0  0  0  0  0
   46.3093    9.0863   12.3034 H   0  0  0  0  0  0  0  0  0  0  0  0
   45.4763    4.4757   12.2144 H   0  0  0  0  0  0  0  0  0  0  0  0
   44.6426    5.2901   10.8632 H   0  0  0  0  0  0  0  0  0  0  0  0
   44.4967    7.3799   12.2466 H   0  0  0  0  0  0  0  0  0  0  0  0
   45.3240    6.5640   13.5667 H   0  0  0  0  0  0  0  0  0  0  0  0
   47.3234    6.2010   12.0447 H   0  0  0  0  0  0  0  0  0  0  0  0
   46.4656    7.0545   10.7630 H   0  0  0  0  0  0  0  0  0  0  0  0
  2  4  1  0
  3  1  1  0
  4  1  1  0
  5  3  2  0
  6  3  1  0
  7  4  1  0
  8  6  2  0
  9  5  1  0
 10  8  1  0
 10  9  2  0
 12 17  1  0
 13 11  2  0
 14 12  2  0
 15 12  1  0
 16 11  1  0
 17 20  1  0
 18 11  1  0
 19 18  1  0
 20 19  1  0
  1 21  1  0
  1 22  1  0
  2 23  1  0
  2 24  1  0
  4 25  1  6
  5 26  1  0
  6 27  1  0
  7 28  1  0
  7 29  1  0
  7 30  1  0
  8 31  1  0
  9 32  1  0
 10 33  1  0
 15 34  1  0
 16 35  1  0
 17 36  1  0
 17 37  1  0
 18 38  1  0
 18 39  1  0
 19 40  1  0
 19 41  1  0
 20 42  1  0
 20 43  1  0
M  END
> <Uni-Dock RESULT> 
ENERGY=   -5.294  LOWER_BOUND=    5.381  UPPER_BOUND=    6.658
INTER + INTRA:          -5.294
INTER:                  -5.294
INTRA:                   0.000
UNBOUND:                 0.000

$$$$
