
     RDKit          3D

 43 42  0  0  0  0  0  0  0  0999 V2000
   44.2792    3.3496    9.1837 C   0  0  0  0  0  0  0  0  0  0  0  0
   43.5796    5.0138   10.8789 N   0  0  0  0  0  0  0  0  0  0  0  0
   45.3812    2.8381    8.2860 C   0  0  0  0  0  0  0  0  0  0  0  0
   44.7362    4.4440   10.1723 C   0  0  1  0  0  0  0  0  0  0  0  0
   45.9241    1.5608    8.4807 C   0  0  0  0  0  0  0  0  0  0  0  0
   45.8795    3.6362    7.2468 C   0  0  0  0  0  0  0  0  0  0  0  0
   45.7179    3.9105   11.2162 C   0  0  0  0  0  0  0  0  0  0  0  0
   46.9018    3.1663    6.4209 C   0  0  0  0  0  0  0  0  0  0  0  0
   46.9465    1.0928    7.6538 C   0  0  0  0  0  0  0  0  0  0  0  0
   47.4352    1.8952    6.6247 C   0  0  0  0  0  0  0  0  0  0  0  0
   46.6862    2.2839    7.1132 C   0  0  0  0  0  0  0  0  0  0  0  0
   44.0832    2.8510   11.2482 C   0  0  0  0  0  0  0  0  0  0  0  0
   46.8292    1.2278    7.7057 O   0  0  0  0  0  0  0  0  0  0  0  0
   42.9459    2.4974   10.9907 O   0  0  0  0  0  0  0  0  0  0  0  0
   44.5692    2.7380   12.5003 O   0  0  0  0  0  0  0  0  0  0  0  0
   46.3600    2.3084    5.8086 O   0  0  0  0  0  0  0  0  0  0  0  0
   45.0986    3.4408   10.3058 C   0  0  0  0  0  0  0  0  0  0  0  0
   46.8239    3.6557    7.7082 C   0  0  0  0  0  0  0  0  0  0  0  0
   45.4740    4.3300    7.9326 C   0  0  0  0  0  0  0  0  0  0  0  0
   44.5331    3.5957    8.8945 C   0  0  0  0  0  0  0  0  0  0  0  0
   43.4813    3.7416    8.5378 H   0  0  0  0  0  0  0  0  0  0  0  0
   43.8278    2.5124    9.7328 H   0  0  0  0  0  0  0  0  0  0  0  0
   43.1022    4.2830   11.4058 H   0  0  0  0  0  0  0  0  0  0  0  0
   42.9031    5.3650   10.2021 H   0  0  0  0  0  0  0  0  0  0  0  0
   45.2230    5.2599    9.6252 H   0  0  0  0  0  0  0  0  0  0  0  0
   45.5569    0.9219    9.2806 H   0  0  0  0  0  0  0  0  0  0  0  0
   45.4732    4.6303    7.0735 H   0  0  0  0  0  0  0  0  0  0  0  0
   46.6460    3.5679   10.7474 H   0  0  0  0  0  0  0  0  0  0  0  0
   45.2918    3.0716   11.7779 H   0  0  0  0  0  0  0  0  0  0  0  0
   45.9894    4.6932   11.9338 H   0  0  0  0  0  0  0  0  0  0  0  0
   47.2822    3.7925    5.6182 H   0  0  0  0  0  0  0  0  0  0  0  0
   47.3625    0.1015    7.8132 H   0  0  0  0  0  0  0  0  0  0  0  0
   48.2314    1.5301    5.9816 H   0  0  0  0  0  0  0  0  0  0  0  0
   43.8303    2.3382   13.0054 H   0  0  0  0  0  0  0  0  0  0  0  0
   46.2917    1.3626    5.5599 H   0  0  0  0  0  0  0  0  0  0  0  0
   45.3961    4.4204   10.6954 H   0  0  0  0  0  0  0  0  0  0  0  0
   45.9689    2.7771   10.2963 H   0  0  0  0  0  0  0  0  0  0  0  0
   47.3910    3.5748    8.6416 H   0  0  0  0  0  0  0  0  0  0  0  0
   47.4413    4.2598    7.0329 H   0  0  0  0  0  0  0  0  0  0  0  0
   45.6479    5.3453    8.3095 H   0  0  0  0  0  0  0  0  0  0  0  0
   44.9598    4.4396    6.9694 H   0  0  0  0  0  0  0  0  0  0  0  0
   44.2751    2.6095    8.4892 H   0  0  0  0  0  0  0  0  0  0  0  0
   43.5909    4.1570    8.9420 H   0  0  0  0  0  0  0  0  0  0  0  0
  2  4  1  0
  3  1  1  0
  4  1  1  0
  5  3  2  0
  6  3  1  0
  7  4  1  0
  8  6  2  0
  9  5  1  0
 10  8  1  0
 10  9  2  0
 12 17  1  0
 13 11  2  0
 14 12  2  0
 15 12  1  0
 16 11  1  0
 17 20  1  0
 18 11  1  0
 19 18  1  0
 20 19  1  0
  1 21  1  0
  1 22  1  0
  2 23  1  0
  2 24  1  0
  4 25  1  6
  5 26  1  0
  6 27  1  0
  7 28  1  0
  7 29  1  0
  7 30  1  0
  8 31  1  0
  9 32  1  0
 10 33  1  0
 15 34  1  0
 16 35  1  0
 17 36  1  0
 17 37  1  0
 18 38  1  0
 18 39  1  0
 19 40  1  0
 19 41  1  0
 20 42  1  0
 20 43  1  0
M  END
> <Uni-Dock RESULT> 
ENERGY=   -6.242  LOWER_BOUND=    0.000  UPPER_BOUND=    0.000
INTER + INTRA:          -6.242
INTER:                  -6.242
INTRA:                   0.000
UNBOUND:                 0.000

$$$$

     RDKit          3D

 43 42  0  0  0  0  0  0  0  0999 V2000
   44.9994    5.8295   12.9400 C   0  0  0  0  0  0  0  0  0  0  0  0
   44.7555    3.5064   12.1175 N   0  0  0  0  0  0  0  0  0  0  0  0
   45.7801    7.1214   12.8822 C   0  0  0  0  0  0  0  0  0  0  0  0
   45.4304    4.7911   11.8817 C   0  0  1  0  0  0  0  0  0  0  0  0
   45.1848    8.2928   12.3949 C   0  0  0  0  0  0  0  0  0  0  0  0
   47.1138    7.1659   13.3120 C   0  0  0  0  0  0  0  0  0  0  0  0
   45.1084    5.2452   10.4576 C   0  0  0  0  0  0  0  0  0  0  0  0
   47.8373    8.3579   13.2531 C   0  0  0  0  0  0  0  0  0  0  0  0
   45.9102    9.4839   12.3367 C   0  0  0  0  0  0  0  0  0  0  0  0
   47.2357    9.5163   12.7653 C   0  0  0  0  0  0  0  0  0  0  0  0
   46.7948    8.6563   12.8946 C   0  0  0  0  0  0  0  0  0  0  0  0
   43.4887    5.2754   11.5400 C   0  0  0  0  0  0  0  0  0  0  0  0
   45.9007    9.3017   12.3741 O   0  0  0  0  0  0  0  0  0  0  0  0
   42.7502    5.1133   12.4956 O   0  0  0  0  0  0  0  0  0  0  0  0
   43.0380    5.0808   10.2847 O   0  0  0  0  0  0  0  0  0  0  0  0
   47.3088    9.0175   14.0839 O   0  0  0  0  0  0  0  0  0  0  0  0
   44.9365    5.6887   11.5562 C   0  0  0  0  0  0  0  0  0  0  0  0
   47.4244    7.4118   12.3382 C   0  0  0  0  0  0  0  0  0  0  0  0
   46.9579    6.1516   13.0606 C   0  0  0  0  0  0  0  0  0  0  0  0
   45.4516    5.8783   12.9824 C   0  0  0  0  0  0  0  0  0  0  0  0
   45.1285    5.4096   13.9472 H   0  0  0  0  0  0  0  0  0  0  0  0
   43.9255    6.0391   12.8447 H   0  0  0  0  0  0  0  0  0  0  0  0
   43.7455    3.6300   12.0545 H   0  0  0  0  0  0  0  0  0  0  0  0
   44.9448    3.1887   13.0674 H   0  0  0  0  0  0  0  0  0  0  0  0
   46.5101    4.6142   11.9522 H   0  0  0  0  0  0  0  0  0  0  0  0
   44.1522    8.2855   12.0535 H   0  0  0  0  0  0  0  0  0  0  0  0
   47.5978    6.2709   13.6967 H   0  0  0  0  0  0  0  0  0  0  0  0
   45.6705    6.1468   10.1935 H   0  0  0  0  0  0  0  0  0  0  0  0
   44.0414    5.4631   10.3361 H   0  0  0  0  0  0  0  0  0  0  0  0
   45.3795    4.4719    9.7297 H   0  0  0  0  0  0  0  0  0  0  0  0
   48.8710    8.3825   13.5880 H   0  0  0  0  0  0  0  0  0  0  0  0
   45.4408   10.3871   11.9559 H   0  0  0  0  0  0  0  0  0  0  0  0
   47.7997   10.4440   12.7193 H   0  0  0  0  0  0  0  0  0  0  0  0
   42.0980    4.8315   10.4071 H   0  0  0  0  0  0  0  0  0  0  0  0
   46.8052    9.8219   14.3293 H   0  0  0  0  0  0  0  0  0  0  0  0
   45.5187    4.9095   11.0523 H   0  0  0  0  0  0  0  0  0  0  0  0
   45.0221    6.6235   10.9933 H   0  0  0  0  0  0  0  0  0  0  0  0
   47.2078    7.3618   11.2659 H   0  0  0  0  0  0  0  0  0  0  0  0
   48.5129    7.5143   12.4205 H   0  0  0  0  0  0  0  0  0  0  0  0
   47.4984    5.2910   12.6480 H   0  0  0  0  0  0  0  0  0  0  0  0
   47.2385    6.2168   14.1194 H   0  0  0  0  0  0  0  0  0  0  0  0
   44.8962    6.6878   13.4718 H   0  0  0  0  0  0  0  0  0  0  0  0
   45.2404    4.9731   13.5665 H   0  0  0  0  0  0  0  0  0  0  0  0
  2  4  1  0
  3  1  1  0
  4  1  1  0
  5  3  2  0
  6  3  1  0
  7  4  1  0
  8  6  2  0
  9  5  1  0
 10  8  1  0
 10  9  2  0
 12 17  1  0
 13 11  2  0
 14 12  2  0
 15 12  1  0
 16 11  1  0
 17 20  1  0
 18 11  1  0
 19 18  1  0
 20 19  1  0
  1 21  1  0
  1 22  1  0
  2 23  1  0
  2 24  1  0
  4 25  1  6
  5 26  1  0
  6 27  1  0
  7 28  1  0
  7 29  1  0
  7 30  1  0
  8 31  1  0
  9 32  1  0
 10 33  1  0
 15 34  1  0
 16 35  1  0
 17 36  1  0
 17 37  1  0
 18 38  1  0
 18 39  1  0
 19 40  1  0
 19 41  1  0
 20 42  1  0
 20 43  1  0
M  END
> <Uni-Dock RESULT> 
ENERGY=   -4.726  LOWER_BOUND=    4.114  UPPER_BOUND=    6.516
INTER + INTRA:          -4.726
INTER:                  -4.726
INTRA:                   0.000
UNBOUND:                 0.000

$$$$

     RDKit          3D

 43 42  0  0  0  0  0  0  0  0999 V2000
   45.7878    7.7671   13.0094 C   0  0  0  0  0  0  0  0  0  0  0  0
   47.5460    9.3623   12.3042 N   0  0  0  0  0  0  0  0  0  0  0  0
   44.8993    6.6066   12.6277 C   0  0  0  0  0  0  0  0  0  0  0  0
   46.8468    8.1204   11.9427 C   0  0  1  0  0  0  0  0  0  0  0  0
   45.0431    5.3620   13.2557 C   0  0  0  0  0  0  0  0  0  0  0  0
   43.9199    6.7575   11.6361 C   0  0  0  0  0  0  0  0  0  0  0  0
   47.8912    7.0166   11.7732 C   0  0  0  0  0  0  0  0  0  0  0  0
   43.1027    5.6838   11.2790 C   0  0  0  0  0  0  0  0  0  0  0  0
   44.2250    4.2896   12.8969 C   0  0  0  0  0  0  0  0  0  0  0  0
   43.2556    4.4503   11.9090 C   0  0  0  0  0  0  0  0  0  0  0  0
   43.7403    5.2671   12.1299 C   0  0  0  0  0  0  0  0  0  0  0  0
   47.8160    7.5703   13.6396 C   0  0  0  0  0  0  0  0  0  0  0  0
   44.2804    4.4659   12.8738 O   0  0  0  0  0  0  0  0  0  0  0  0
   47.5047    8.2078   14.6304 O   0  0  0  0  0  0  0  0  0  0  0  0
   49.0750    7.1142   13.4857 O   0  0  0  0  0  0  0  0  0  0  0  0
   42.4293    5.5447   12.2442 O   0  0  0  0  0  0  0  0  0  0  0  0
   46.9383    7.1917   12.4763 C   0  0  0  0  0  0  0  0  0  0  0  0
   44.4109    6.0474   11.0363 C   0  0  0  0  0  0  0  0  0  0  0  0
   44.6283    7.5093   11.4148 C   0  0  0  0  0  0  0  0  0  0  0  0
   45.5201    7.7370   12.6405 C   0  0  0  0  0  0  0  0  0  0  0  0
   45.1390    8.6351   13.1910 H   0  0  0  0  0  0  0  0  0  0  0  0
   46.2776    7.5604   13.9705 H   0  0  0  0  0  0  0  0  0  0  0  0
   48.0182    9.2447   13.2000 H   0  0  0  0  0  0  0  0  0  0  0  0
   46.8678   10.1118   12.4360 H   0  0  0  0  0  0  0  0  0  0  0  0
   46.3591    8.2863   10.9750 H   0  0  0  0  0  0  0  0  0  0  0  0
   45.7963    5.2175   14.0269 H   0  0  0  0  0  0  0  0  0  0  0  0
   43.7867    7.7140   11.1356 H   0  0  0  0  0  0  0  0  0  0  0  0
   47.4343    6.0935   11.4023 H   0  0  0  0  0  0  0  0  0  0  0  0
   48.3941    6.7894   12.7199 H   0  0  0  0  0  0  0  0  0  0  0  0
   48.6574    7.3112   11.0469 H   0  0  0  0  0  0  0  0  0  0  0  0
   42.3465    5.8101   10.5086 H   0  0  0  0  0  0  0  0  0  0  0  0
   44.3448    3.3276   13.3883 H   0  0  0  0  0  0  0  0  0  0  0  0
   42.6194    3.6147   11.6301 H   0  0  0  0  0  0  0  0  0  0  0  0
   49.5348    7.4107   14.2990 H   0  0  0  0  0  0  0  0  0  0  0  0
   42.1289    4.9847   12.9906 H   0  0  0  0  0  0  0  0  0  0  0  0
   47.3883    7.5979   11.5639 H   0  0  0  0  0  0  0  0  0  0  0  0
   46.9210    6.0990   12.4142 H   0  0  0  0  0  0  0  0  0  0  0  0
   45.3561    5.5540   10.7860 H   0  0  0  0  0  0  0  0  0  0  0  0
   43.7882    5.9779   10.1366 H   0  0  0  0  0  0  0  0  0  0  0  0
   45.0637    8.0327   10.5548 H   0  0  0  0  0  0  0  0  0  0  0  0
   43.6567    7.9814   11.6071 H   0  0  0  0  0  0  0  0  0  0  0  0
   45.0554    7.2967   13.5313 H   0  0  0  0  0  0  0  0  0  0  0  0
   45.5678    8.8174   12.8293 H   0  0  0  0  0  0  0  0  0  0  0  0
  2  4  1  0
  3  1  1  0
  4  1  1  0
  5  3  2  0
  6  3  1  0
  7  4  1  0
  8  6  2  0
  9  5  1  0
 10  8  1  0
 10  9  2  0
 12 17  1  0
 13 11  2  0
 14 12  2  0
 15 12  1  0
 16 11  1  0
 17 20  1  0
 18 11  1  0
 19 18  1  0
 20 19  1  0
  1 21  1  0
  1 22  1  0
  2 23  1  0
  2 24  1  0
  4 25  1  6
  5 26  1  0
  6 27  1  0
  7 28  1  0
  7 29  1  0
  7 30  1  0
  8 31  1  0
  9 32  1  0
 10 33  1  0
 15 34  1  0
 16 35  1  0
 17 36  1  0
 17 37  1  0
 18 38  1  0
 18 39  1  0
 19 40  1  0
 19 41  1  0
 20 42  1  0
 20 43  1  0
M  END
> <Uni-Dock RESULT> 
ENERGY=   -4.479  LOWER_BOUND=    4.768  UPPER_BOUND=    6.153
INTER + INTRA:          -4.479
INTER:                  -4.479
INTRA:                   0.000
UNBOUND:                 0.000

$$$$

     RDKit          3D

 43 42  0  0  0  0  0  0  0  0999 V2000
   45.3434    5.5350   11.3117 C   0  0  0  0  0  0  0  0  0  0  0  0
   43.0419    4.9703   10.5928 N   0  0  0  0  0  0  0  0  0  0  0  0
   46.2234    6.3674   12.2143 C   0  0  0  0  0  0  0  0  0  0  0  0
   43.8357    5.6611   11.6196 C   0  0  1  0  0  0  0  0  0  0  0  0
   47.0091    5.7590   13.2025 C   0  0  0  0  0  0  0  0  0  0  0  0
   46.2633    7.7622   12.0786 C   0  0  0  0  0  0  0  0  0  0  0  0
   43.4699    5.0719   12.9823 C   0  0  0  0  0  0  0  0  0  0  0  0
   47.0716    8.5322   12.9163 C   0  0  0  0  0  0  0  0  0  0  0  0
   47.8167    6.5309   14.0393 C   0  0  0  0  0  0  0  0  0  0  0  0
   47.8476    7.9167   13.8964 C   0  0  0  0  0  0  0  0  0  0  0  0
   47.2984    7.4587   13.2335 C   0  0  0  0  0  0  0  0  0  0  0  0
   44.3814    3.7269   11.9072 C   0  0  0  0  0  0  0  0  0  0  0  0
   47.6911    6.5178   13.9024 O   0  0  0  0  0  0  0  0  0  0  0  0
   44.9109    3.2011   10.9438 O   0  0  0  0  0  0  0  0  0  0  0  0
   43.6051    3.0063   12.7407 O   0  0  0  0  0  0  0  0  0  0  0  0
   48.1623    8.2377   12.5583 O   0  0  0  0  0  0  0  0  0  0  0  0
   44.4711    5.1682   12.3331 C   0  0  0  0  0  0  0  0  0  0  0  0
   45.8672    7.8724   13.0461 C   0  0  0  0  0  0  0  0  0  0  0  0
   45.3271    7.4906   11.6714 C   0  0  0  0  0  0  0  0  0  0  0  0
   45.3269    5.9879   11.3682 C   0  0  0  0  0  0  0  0  0  0  0  0
   45.5393    5.8491   10.2772 H   0  0  0  0  0  0  0  0  0  0  0  0
   45.6500    4.4815   11.3617 H   0  0  0  0  0  0  0  0  0  0  0  0
   43.2853    3.9804   10.5759 H   0  0  0  0  0  0  0  0  0  0  0  0
   43.2784    5.3374    9.6718 H   0  0  0  0  0  0  0  0  0  0  0  0
   43.5409    6.7170   11.6093 H   0  0  0  0  0  0  0  0  0  0  0  0
   46.9954    4.6790   13.3301 H   0  0  0  0  0  0  0  0  0  0  0  0
   45.6647    8.2581   11.3177 H   0  0  0  0  0  0  0  0  0  0  0  0
   43.9565    5.6217   13.7944 H   0  0  0  0  0  0  0  0  0  0  0  0
   43.7674    4.0200   13.0591 H   0  0  0  0  0  0  0  0  0  0  0  0
   42.3893    5.1300   13.1564 H   0  0  0  0  0  0  0  0  0  0  0  0
   47.0956    9.6129   12.8040 H   0  0  0  0  0  0  0  0  0  0  0  0
   48.4215    6.0505   14.8038 H   0  0  0  0  0  0  0  0  0  0  0  0
   48.4764    8.5168   14.5486 H   0  0  0  0  0  0  0  0  0  0  0  0
   43.6362    2.1000   12.3683 H   0  0  0  0  0  0  0  0  0  0  0  0
   49.0410    7.8517   12.7578 H   0  0  0  0  0  0  0  0  0  0  0  0
   43.4554    5.5772   12.3666 H   0  0  0  0  0  0  0  0  0  0  0  0
   44.9026    5.1919   13.3387 H   0  0  0  0  0  0  0  0  0  0  0  0
   45.2687    7.4286   13.8487 H   0  0  0  0  0  0  0  0  0  0  0  0
   45.8044    8.9577   13.1894 H   0  0  0  0  0  0  0  0  0  0  0  0
   44.3033    7.8731   11.5787 H   0  0  0  0  0  0  0  0  0  0  0  0
   45.9191    7.9949   10.8973 H   0  0  0  0  0  0  0  0  0  0  0  0
   46.3545    5.6039   11.3677 H   0  0  0  0  0  0  0  0  0  0  0  0
   44.9534    5.8483   10.3455 H   0  0  0  0  0  0  0  0  0  0  0  0
  2  4  1  0
  3  1  1  0
  4  1  1  0
  5  3  2  0
  6  3  1  0
  7  4  1  0
  8  6  2  0
  9  5  1  0
 10  8  1  0
 10  9  2  0
 12 17  1  0
 13 11  2  0
 14 12  2  0
 15 12  1  0
 16 11  1  0
 17 20  1  0
 18 11  1  0
 19 18  1  0
 20 19  1  0
  1 21  1  0
  1 22  1  0
  2 23  1  0
  2 24  1  0
  4 25  1  6
  5 26  1  0
  6 27  1  0
  7 28  1  0
  7 29  1  0
  7 30  1  0
  8 31  1  0
  9 32  1  0
 10 33  1  0
 15 34  1  0
 16 35  1  0
 17 36  1  0
 17 37  1  0
 18 38  1  0
 18 39  1  0
 19 40  1  0
 19 41  1  0
 20 42  1  0
 20 43  1  0
M  END
> <Uni-Dock RESULT> 
ENERGY=   -4.385  LOWER_BOUND=    3.858  UPPER_BOUND=    5.831
INTER + INTRA:          -4.385
INTER:                  -4.385
INTRA:                   0.000
UNBOUND:                 0.000

$$$$

     RDKit          3D

 43 42  0  0  0  0  0  0  0  0999 V2000
   47.1469    8.1378   13.4816 C   0  0  0  0  0  0  0  0  0  0  0  0
   48.5984    9.9575   12.6361 N   0  0  0  0  0  0  0  0  0  0  0  0
   46.2557    6.9651   13.1463 C   0  0  0  0  0  0  0  0  0  0  0  0
   47.9000    8.7181   12.2650 C   0  0  1  0  0  0  0  0  0  0  0  0
   46.6112    5.6660   13.5336 C   0  0  0  0  0  0  0  0  0  0  0  0
   45.0611    7.1596   12.4389 C   0  0  0  0  0  0  0  0  0  0  0  0
   48.9307    7.7404   11.6995 C   0  0  0  0  0  0  0  0  0  0  0  0
   44.2404    6.0756   12.1238 C   0  0  0  0  0  0  0  0  0  0  0  0
   45.7891    4.5833   13.2173 C   0  0  0  0  0  0  0  0  0  0  0  0
   44.6046    4.7879   12.5125 C   0  0  0  0  0  0  0  0  0  0  0  0
   45.0841    5.6074   12.7348 C   0  0  0  0  0  0  0  0  0  0  0  0
   49.2744    8.0359   13.5943 C   0  0  0  0  0  0  0  0  0  0  0  0
   45.8279    4.7652   13.2084 O   0  0  0  0  0  0  0  0  0  0  0  0
   49.1755    8.5086   14.7131 O   0  0  0  0  0  0  0  0  0  0  0  0
   50.4825    7.7144   13.0904 O   0  0  0  0  0  0  0  0  0  0  0  0
   43.8255    5.7534   13.1861 O   0  0  0  0  0  0  0  0  0  0  0  0
   48.1655    7.7388   12.6201 C   0  0  0  0  0  0  0  0  0  0  0  0
   45.4316    6.5794   11.6444 C   0  0  0  0  0  0  0  0  0  0  0  0
   45.6553    7.9923   12.1748 C   0  0  0  0  0  0  0  0  0  0  0  0
   46.8008    8.1334   13.1835 C   0  0  0  0  0  0  0  0  0  0  0  0
   46.5152    8.9152   13.9332 H   0  0  0  0  0  0  0  0  0  0  0  0
   47.8624    7.8499   14.2636 H   0  0  0  0  0  0  0  0  0  0  0  0
   49.2766    9.7647   13.3725 H   0  0  0  0  0  0  0  0  0  0  0  0
   47.9327   10.6219   13.0290 H   0  0  0  0  0  0  0  0  0  0  0  0
   47.1871    8.9667   11.4701 H   0  0  0  0  0  0  0  0  0  0  0  0
   47.5334    5.4871   14.0818 H   0  0  0  0  0  0  0  0  0  0  0  0
   44.7616    8.1584   12.1293 H   0  0  0  0  0  0  0  0  0  0  0  0
   48.4479    6.8379   11.3108 H   0  0  0  0  0  0  0  0  0  0  0  0
   49.6566    7.4352   12.4616 H   0  0  0  0  0  0  0  0  0  0  0  0
   49.4843    8.1927   10.8687 H   0  0  0  0  0  0  0  0  0  0  0  0
   43.3164    6.2360   11.5745 H   0  0  0  0  0  0  0  0  0  0  0  0
   46.0737    3.5791   13.5204 H   0  0  0  0  0  0  0  0  0  0  0  0
   43.9654    3.9443   12.2665 H   0  0  0  0  0  0  0  0  0  0  0  0
   51.1070    7.9402   13.8114 H   0  0  0  0  0  0  0  0  0  0  0  0
   43.7423    5.0765   13.8903 H   0  0  0  0  0  0  0  0  0  0  0  0
   48.3622    8.2985   11.6992 H   0  0  0  0  0  0  0  0  0  0  0  0
   48.1918    6.6663   12.4028 H   0  0  0  0  0  0  0  0  0  0  0  0
   46.3143    6.2066   11.1142 H   0  0  0  0  0  0  0  0  0  0  0  0
   44.6165    6.5750   10.9111 H   0  0  0  0  0  0  0  0  0  0  0  0
   45.8441    8.6596   11.3250 H   0  0  0  0  0  0  0  0  0  0  0  0
   44.7341    8.3494   12.6522 H   0  0  0  0  0  0  0  0  0  0  0  0
   46.5864    7.5416   14.0819 H   0  0  0  0  0  0  0  0  0  0  0  0
   46.8348    9.1797   13.5139 H   0  0  0  0  0  0  0  0  0  0  0  0
  2  4  1  0
  3  1  1  0
  4  1  1  0
  5  3  2  0
  6  3  1  0
  7  4  1  0
  8  6  2  0
  9  5  1  0
 10  8  1  0
 10  9  2  0
 12 17  1  0
 13 11  2  0
 14 12  2  0
 15 12  1  0
 16 11  1  0
 17 20  1  0
 18 11  1  0
 19 18  1  0
 20 19  1  0
  1 21  1  0
  1 22  1  0
  2 23  1  0
  2 24  1  0
  4 25  1  6
  5 26  1  0
  6 27  1  0
  7 28  1  0
  7 29  1  0
  7 30  1  0
  8 31  1  0
  9 32  1  0
 10 33  1  0
 15 34  1  0
 16 35  1  0
 17 36  1  0
 17 37  1  0
 18 38  1  0
 18 39  1  0
 19 40  1  0
 19 41  1  0
 20 42  1  0
 20 43  1  0
M  END
> <Uni-Dock RESULT> 
ENERGY=   -4.231  LOWER_BOUND=    5.138  UPPER_BOUND=    6.830
INTER + INTRA:          -4.231
INTER:                  -4.231
INTRA:                   0.000
UNBOUND:                 0.000

$$$$

     RDKit          3D

 43 42  0  0  0  0  0  0  0  0999 V2000
   49.7089    4.0252   17.1311 C   0  0  0  0  0  0  0  0  0  0  0  0
   47.7445    5.3563   17.8398 N   0  0  0  0  0  0  0  0  0  0  0  0
   50.9736    3.3096   17.5441 C   0  0  0  0  0  0  0  0  0  0  0  0
   48.8546    4.5195   18.3185 C   0  0  1  0  0  0  0  0  0  0  0  0
   51.0868    1.9204   17.3977 C   0  0  0  0  0  0  0  0  0  0  0  0
   52.0513    4.0253   18.0839 C   0  0  0  0  0  0  0  0  0  0  0  0
   48.2664    3.3654   19.1310 C   0  0  0  0  0  0  0  0  0  0  0  0
   53.2177    3.3638   18.4711 C   0  0  0  0  0  0  0  0  0  0  0  0
   52.2540    1.2607   17.7857 C   0  0  0  0  0  0  0  0  0  0  0  0
   53.3187    1.9820   18.3224 C   0  0  0  0  0  0  0  0  0  0  0  0
   52.5693    2.5333   18.0305 C   0  0  0  0  0  0  0  0  0  0  0  0
   47.7545    3.1810   17.2603 C   0  0  0  0  0  0  0  0  0  0  0  0
   52.1534    1.4167   17.7710 O   0  0  0  0  0  0  0  0  0  0  0  0
   47.6276    3.4507   16.0787 O   0  0  0  0  0  0  0  0  0  0  0  0
   46.7643    2.5601   17.9316 O   0  0  0  0  0  0  0  0  0  0  0  0
   53.6715    3.0191   17.4320 O   0  0  0  0  0  0  0  0  0  0  0  0
   48.9394    3.4618   18.1457 C   0  0  0  0  0  0  0  0  0  0  0  0
   51.9482    3.5054   18.9917 C   0  0  0  0  0  0  0  0  0  0  0  0
   51.2123    4.6365   18.2801 C   0  0  0  0  0  0  0  0  0  0  0  0
   50.0471    4.1932   17.3882 C   0  0  0  0  0  0  0  0  0  0  0  0
   50.0013    4.8780   16.5029 H   0  0  0  0  0  0  0  0  0  0  0  0
   49.1082    3.3743   16.4816 H   0  0  0  0  0  0  0  0  0  0  0  0
   47.1468    4.8140   17.2168 H   0  0  0  0  0  0  0  0  0  0  0  0
   48.1114    6.1271   17.2828 H   0  0  0  0  0  0  0  0  0  0  0  0
   49.4675    5.1355   18.9869 H   0  0  0  0  0  0  0  0  0  0  0  0
   50.2649    1.3410   16.9833 H   0  0  0  0  0  0  0  0  0  0  0  0
   51.9892    5.1045   18.2055 H   0  0  0  0  0  0  0  0  0  0  0  0
   49.0560    2.7684   19.5986 H   0  0  0  0  0  0  0  0  0  0  0  0
   47.6630    2.6986   18.5048 H   0  0  0  0  0  0  0  0  0  0  0  0
   47.6263    3.7411   19.9375 H   0  0  0  0  0  0  0  0  0  0  0  0
   54.0478    3.9270   18.8892 H   0  0  0  0  0  0  0  0  0  0  0  0
   52.3323    0.1829   17.6698 H   0  0  0  0  0  0  0  0  0  0  0  0
   54.2269    1.4674   18.6245 H   0  0  0  0  0  0  0  0  0  0  0  0
   46.0683    2.4251   17.2547 H   0  0  0  0  0  0  0  0  0  0  0  0
   53.9582    2.2975   16.8336 H   0  0  0  0  0  0  0  0  0  0  0  0
   48.5982    4.0751   18.9868 H   0  0  0  0  0  0  0  0  0  0  0  0
   49.3066    2.5028   18.5244 H   0  0  0  0  0  0  0  0  0  0  0  0
   51.2811    2.9535   19.6624 H   0  0  0  0  0  0  0  0  0  0  0  0
   52.7438    3.9121   19.6271 H   0  0  0  0  0  0  0  0  0  0  0  0
   50.8369    5.3391   19.0342 H   0  0  0  0  0  0  0  0  0  0  0  0
   51.9232    5.1965   17.6597 H   0  0  0  0  0  0  0  0  0  0  0  0
   50.4172    3.5604   16.5722 H   0  0  0  0  0  0  0  0  0  0  0  0
   49.6277    5.0872   16.9087 H   0  0  0  0  0  0  0  0  0  0  0  0
  2  4  1  0
  3  1  1  0
  4  1  1  0
  5  3  2  0
  6  3  1  0
  7  4  1  0
  8  6  2  0
  9  5  1  0
 10  8  1  0
 10  9  2  0
 12 17  1  0
 13 11  2  0
 14 12  2  0
 15 12  1  0
 16 11  1  0
 17 20  1  0
 18 11  1  0
 19 18  1  0
 20 19  1  0
  1 21  1  0
  1 22  1  0
  2 23  1  0
  2 24  1  0
  4 25  1  6
  5 26  1  0
  6 27  1  0
  7 28  1  0
  7 29  1  0
  7 30  1  0
  8 31  1  0
  9 32  1  0
 10 33  1  0
 15 34  1  0
 16 35  1  0
 17 36  1  0
 17 37  1  0
 18 38  1  0
 18 39  1  0
 19 40  1  0
 19 41  1  0
 20 42  1  0
 20 43  1  0
M  END
> <Uni-Dock RESULT> 
ENERGY=   -4.201  LOWER_BOUND=    8.891  UPPER_BOUND=   10.622
INTER + INTRA:          -4.201
INTER:                  -4.201
INTRA:                   0.000
UNBOUND:                 0.000

$$$$

     RDKit          3D

 43 42  0  0  0  0  0  0  0  0999 V2000
   46.8505    6.1754   12.1206 C   0  0  0  0  0  0  0  0  0  0  0  0
   48.7794    6.7151   13.5769 N   0  0  0  0  0  0  0  0  0  0  0  0
   45.3568    5.9769   12.0136 C   0  0  0  0  0  0  0  0  0  0  0  0
   47.3118    6.7212   13.4893 C   0  0  1  0  0  0  0  0  0  0  0  0
   44.5770    6.8406   11.2326 C   0  0  0  0  0  0  0  0  0  0  0  0
   44.7284    4.9271   12.6980 C   0  0  0  0  0  0  0  0  0  0  0  0
   46.8246    8.1488   13.7394 C   0  0  0  0  0  0  0  0  0  0  0  0
   43.3475    4.7470   12.6042 C   0  0  0  0  0  0  0  0  0  0  0  0
   43.1962    6.6589   11.1403 C   0  0  0  0  0  0  0  0  0  0  0  0
   42.5819    5.6128   11.8259 C   0  0  0  0  0  0  0  0  0  0  0  0
   43.5535    5.6273   11.9064 C   0  0  0  0  0  0  0  0  0  0  0  0
   47.8165    8.0761   12.0641 C   0  0  0  0  0  0  0  0  0  0  0  0
   43.3617    6.6100   11.2104 O   0  0  0  0  0  0  0  0  0  0  0  0
   48.5037    7.6304   11.1619 O   0  0  0  0  0  0  0  0  0  0  0  0
   47.9729    9.3485   12.4803 O   0  0  0  0  0  0  0  0  0  0  0  0
   43.2124    4.3982   11.4797 O   0  0  0  0  0  0  0  0  0  0  0  0
   46.7423    7.3621   12.8408 C   0  0  0  0  0  0  0  0  0  0  0  0
   44.1826    5.6202   13.2697 C   0  0  0  0  0  0  0  0  0  0  0  0
   45.6155    5.0972   13.2459 C   0  0  0  0  0  0  0  0  0  0  0  0
   46.5896    5.9110   12.3866 C   0  0  0  0  0  0  0  0  0  0  0  0
   47.3280    5.2049   11.9272 H   0  0  0  0  0  0  0  0  0  0  0  0
   47.1963    6.8384   11.3161 H   0  0  0  0  0  0  0  0  0  0  0  0
   49.1717    7.3072   12.8454 H   0  0  0  0  0  0  0  0  0  0  0  0
   49.1297    5.7743   13.4001 H   0  0  0  0  0  0  0  0  0  0  0  0
   46.9308    6.0803   14.2930 H   0  0  0  0  0  0  0  0  0  0  0  0
   45.0391    7.6641   10.6928 H   0  0  0  0  0  0  0  0  0  0  0  0
   45.3118    4.2416   13.3087 H   0  0  0  0  0  0  0  0  0  0  0  0
   45.7317    8.1908   13.7882 H   0  0  0  0  0  0  0  0  0  0  0  0
   47.1551    8.8314   12.9484 H   0  0  0  0  0  0  0  0  0  0  0  0
   47.2045    8.5302   14.6941 H   0  0  0  0  0  0  0  0  0  0  0  0
   42.8691    3.9307   13.1390 H   0  0  0  0  0  0  0  0  0  0  0  0
   42.5993    7.3346   10.5334 H   0  0  0  0  0  0  0  0  0  0  0  0
   41.5067    5.4723   11.7537 H   0  0  0  0  0  0  0  0  0  0  0  0
   48.6793    9.7019   11.8998 H   0  0  0  0  0  0  0  0  0  0  0  0
   42.8331    4.5495   10.5885 H   0  0  0  0  0  0  0  0  0  0  0  0
   47.0125    7.3919   13.9020 H   0  0  0  0  0  0  0  0  0  0  0  0
   45.8053    7.9081   12.6919 H   0  0  0  0  0  0  0  0  0  0  0  0
   44.1334    6.6340   13.6810 H   0  0  0  0  0  0  0  0  0  0  0  0
   43.5636    4.9987   13.9276 H   0  0  0  0  0  0  0  0  0  0  0  0
   45.9925    5.0614   14.2754 H   0  0  0  0  0  0  0  0  0  0  0  0
   45.6172    4.0635   12.8778 H   0  0  0  0  0  0  0  0  0  0  0  0
   46.2777    5.8834   11.3353 H   0  0  0  0  0  0  0  0  0  0  0  0
   47.5688    5.4160   12.4226 H   0  0  0  0  0  0  0  0  0  0  0  0
  2  4  1  0
  3  1  1  0
  4  1  1  0
  5  3  2  0
  6  3  1  0
  7  4  1  0
  8  6  2  0
  9  5  1  0
 10  8  1  0
 10  9  2  0
 12 17  1  0
 13 11  2  0
 14 12  2  0
 15 12  1  0
 16 11  1  0
 17 20  1  0
 18 11  1  0
 19 18  1  0
 20 19  1  0
  1 21  1  0
  1 22  1  0
  2 23  1  0
  2 24  1  0
  4 25  1  6
  5 26  1  0
  6 27  1  0
  7 28  1  0
  7 29  1  0
  7 30  1  0
  8 31  1  0
  9 32  1  0
 10 33  1  0
 15 34  1  0
 16 35  1  0
 17 36  1  0
 17 37  1  0
 18 38  1  0
 18 39  1  0
 19 40  1  0
 19 41  1  0
 20 42  1  0
 20 43  1  0
M  END
> <Uni-Dock RESULT> 
ENERGY=   -4.106  LOWER_BOUND=    4.913  UPPER_BOUND=    6.295
INTER + INTRA:          -4.106
INTER:                  -4.106
INTRA:                   0.000
UNBOUND:                 0.000

$$$$

     RDKit          3D

 43 42  0  0  0  0  0  0  0  0999 V2000
   49.0233    4.8113   20.2547 C   0  0  0  0  0  0  0  0  0  0  0  0
   49.6409    6.8374   21.5380 N   0  0  0  0  0  0  0  0  0  0  0  0
   48.6220    4.2265   18.9210 C   0  0  0  0  0  0  0  0  0  0  0  0
   49.4412    6.2961   20.1856 C   0  0  1  0  0  0  0  0  0  0  0  0
   49.4584    3.3157   18.2614 C   0  0  0  0  0  0  0  0  0  0  0  0
   47.4079    4.5901   18.3218 C   0  0  0  0  0  0  0  0  0  0  0  0
   50.7338    6.4994   19.3945 C   0  0  0  0  0  0  0  0  0  0  0  0
   47.0396    4.0546   17.0867 C   0  0  0  0  0  0  0  0  0  0  0  0
   49.0882    2.7815   17.0262 C   0  0  0  0  0  0  0  0  0  0  0  0
   47.8797    3.1510   16.4390 C   0  0  0  0  0  0  0  0  0  0  0  0
   48.0269    3.5321   17.3244 C   0  0  0  0  0  0  0  0  0  0  0  0
   51.0362    5.2184   20.8309 C   0  0  0  0  0  0  0  0  0  0  0  0
   49.0553    2.8955   17.1697 O   0  0  0  0  0  0  0  0  0  0  0  0
   50.8234    4.5424   21.8222 O   0  0  0  0  0  0  0  0  0  0  0  0
   52.2496    5.7672   20.6231 O   0  0  0  0  0  0  0  0  0  0  0  0
   46.8300    2.9193   17.3541 O   0  0  0  0  0  0  0  0  0  0  0  0
   50.0725    5.5579   19.7250 C   0  0  0  0  0  0  0  0  0  0  0  0
   47.9287    5.0182   17.5152 C   0  0  0  0  0  0  0  0  0  0  0  0
   47.6318    5.4001   18.9620 C   0  0  0  0  0  0  0  0  0  0  0  0
   48.6897    4.9594   19.9801 C   0  0  0  0  0  0  0  0  0  0  0  0
   48.1695    4.6967   20.9368 H   0  0  0  0  0  0  0  0  0  0  0  0
   49.8329    4.2136   20.6948 H   0  0  0  0  0  0  0  0  0  0  0  0
   50.3779    6.3173   22.0130 H   0  0  0  0  0  0  0  0  0  0  0  0
   48.7950    6.7012   22.0903 H   0  0  0  0  0  0  0  0  0  0  0  0
   48.6482    6.8840   19.7089 H   0  0  0  0  0  0  0  0  0  0  0  0
   50.4065    3.0181   18.7033 H   0  0  0  0  0  0  0  0  0  0  0  0
   46.7402    5.2932   18.8147 H   0  0  0  0  0  0  0  0  0  0  0  0
   50.6064    6.2075   18.3471 H   0  0  0  0  0  0  0  0  0  0  0  0
   51.5585    5.9113   19.8125 H   0  0  0  0  0  0  0  0  0  0  0  0
   51.0346    7.5534   19.4007 H   0  0  0  0  0  0  0  0  0  0  0  0
   46.0967    4.3429   16.6296 H   0  0  0  0  0  0  0  0  0  0  0  0
   49.7438    2.0770   16.5212 H   0  0  0  0  0  0  0  0  0  0  0  0
   47.5925    2.7347   15.4772 H   0  0  0  0  0  0  0  0  0  0  0  0
   52.7790    5.4682   21.3920 H   0  0  0  0  0  0  0  0  0  0  0  0
   47.0426    1.9700   17.2325 H   0  0  0  0  0  0  0  0  0  0  0  0
   49.9981    6.6490   19.6611 H   0  0  0  0  0  0  0  0  0  0  0  0
   50.4886    5.1696   18.7900 H   0  0  0  0  0  0  0  0  0  0  0  0
   48.8590    5.4764   17.1631 H   0  0  0  0  0  0  0  0  0  0  0  0
   47.1392    5.3954   16.8545 H   0  0  0  0  0  0  0  0  0  0  0  0
   47.5133    6.4890   19.0196 H   0  0  0  0  0  0  0  0  0  0  0  0
   46.6692    4.9661   19.2604 H   0  0  0  0  0  0  0  0  0  0  0  0
   48.7586    3.8648   20.0015 H   0  0  0  0  0  0  0  0  0  0  0  0
   48.3449    5.2583   20.9785 H   0  0  0  0  0  0  0  0  0  0  0  0
  2  4  1  0
  3  1  1  0
  4  1  1  0
  5  3  2  0
  6  3  1  0
  7  4  1  0
  8  6  2  0
  9  5  1  0
 10  8  1  0
 10  9  2  0
 12 17  1  0
 13 11  2  0
 14 12  2  0
 15 12  1  0
 16 11  1  0
 17 20  1  0
 18 11  1  0
 19 18  1  0
 20 19  1  0
  1 21  1  0
  1 22  1  0
  2 23  1  0
  2 24  1  0
  4 25  1  6
  5 26  1  0
  6 27  1  0
  7 28  1  0
  7 29  1  0
  7 30  1  0
  8 31  1  0
  9 32  1  0
 10 33  1  0
 15 34  1  0
 16 35  1  0
 17 36  1  0
 17 37  1  0
 18 38  1  0
 18 39  1  0
 19 40  1  0
 19 41  1  0
 20 42  1  0
 20 43  1  0
M  END
> <Uni-Dock RESULT> 
ENERGY=   -3.889  LOWER_BOUND=    8.771  UPPER_BOUND=   11.147
INTER + INTRA:          -3.889
INTER:                  -3.889
INTRA:                   0.000
UNBOUND:                 0.000

$$$$
