
     RDKit          3D

 43 42  0  0  0  0  0  0  0  0999 V2000
   45.2625    3.2472    7.3393 C   0  0  0  0  0  0  0  0  0  0  0  0
   47.0060    1.5276    7.8078 N   0  0  0  0  0  0  0  0  0  0  0  0
   44.9149    3.6012    8.7683 C   0  0  0  0  0  0  0  0  0  0  0  0
   46.7324    2.8141    7.1546 C   0  0  1  0  0  0  0  0  0  0  0  0
   45.2856    4.8419    9.3047 C   0  0  0  0  0  0  0  0  0  0  0  0
   44.2320    2.6859    9.5807 C   0  0  0  0  0  0  0  0  0  0  0  0
   47.0667    2.6844    5.6694 C   0  0  0  0  0  0  0  0  0  0  0  0
   43.9238    3.0065   10.9034 C   0  0  0  0  0  0  0  0  0  0  0  0
   44.9759    5.1608   10.6278 C   0  0  0  0  0  0  0  0  0  0  0  0
   44.2954    4.2435   11.4265 C   0  0  0  0  0  0  0  0  0  0  0  0
   45.0600    4.1875   10.6607 C   0  0  0  0  0  0  0  0  0  0  0  0
   47.7244    2.3408    6.9613 C   0  0  0  0  0  0  0  0  0  0  0  0
   46.2156    4.3270   11.0238 O   0  0  0  0  0  0  0  0  0  0  0  0
   47.8479    1.1496    7.1865 O   0  0  0  0  0  0  0  0  0  0  0  0
   48.6673    3.0083    6.2670 O   0  0  0  0  0  0  0  0  0  0  0  0
   44.1339    3.6605   11.4818 O   0  0  0  0  0  0  0  0  0  0  0  0
   46.5902    3.2418    7.3721 C   0  0  0  0  0  0  0  0  0  0  0  0
   44.5102    4.5422    9.3092 C   0  0  0  0  0  0  0  0  0  0  0  0
   44.2630    3.3123    8.4412 C   0  0  0  0  0  0  0  0  0  0  0  0
   45.5090    2.4746    8.1322 C   0  0  0  0  0  0  0  0  0  0  0  0
   45.0535    4.1248    6.7130 H   0  0  0  0  0  0  0  0  0  0  0  0
   44.5861    2.4617    6.9760 H   0  0  0  0  0  0  0  0  0  0  0  0
   48.0008    1.3168    7.7397 H   0  0  0  0  0  0  0  0  0  0  0  0
   46.8058    1.6175    8.8055 H   0  0  0  0  0  0  0  0  0  0  0  0
   47.3958    3.5696    7.5931 H   0  0  0  0  0  0  0  0  0  0  0  0
   45.8160    5.5683    8.6936 H   0  0  0  0  0  0  0  0  0  0  0  0
   43.9403    1.7149    9.1856 H   0  0  0  0  0  0  0  0  0  0  0  0
   48.1146    2.3985    5.5245 H   0  0  0  0  0  0  0  0  0  0  0  0
   46.9111    3.6381    5.1538 H   0  0  0  0  0  0  0  0  0  0  0  0
   46.4391    1.9308    5.1803 H   0  0  0  0  0  0  0  0  0  0  0  0
   43.3931    2.2902   11.5251 H   0  0  0  0  0  0  0  0  0  0  0  0
   45.2647    6.1260   11.0353 H   0  0  0  0  0  0  0  0  0  0  0  0
   44.0538    4.4929   12.4562 H   0  0  0  0  0  0  0  0  0  0  0  0
   49.3440    2.3266    6.0716 H   0  0  0  0  0  0  0  0  0  0  0  0
   44.6263    3.4681   12.3074 H   0  0  0  0  0  0  0  0  0  0  0  0
   46.1626    3.6854    6.4663 H   0  0  0  0  0  0  0  0  0  0  0  0
   47.0064    4.0357    8.0004 H   0  0  0  0  0  0  0  0  0  0  0  0
   43.5752    5.0959    9.4561 H   0  0  0  0  0  0  0  0  0  0  0  0
   45.2003    5.2415    8.8254 H   0  0  0  0  0  0  0  0  0  0  0  0
   43.8075    3.6355    7.4972 H   0  0  0  0  0  0  0  0  0  0  0  0
   43.5289    2.6629    8.9345 H   0  0  0  0  0  0  0  0  0  0  0  0
   45.1954    1.6069    7.5373 H   0  0  0  0  0  0  0  0  0  0  0  0
   45.9281    2.0667    9.0602 H   0  0  0  0  0  0  0  0  0  0  0  0
  2  4  1  0
  3  1  1  0
  4  1  1  0
  5  3  2  0
  6  3  1  0
  7  4  1  0
  8  6  2  0
  9  5  1  0
 10  8  1  0
 10  9  2  0
 12 17  1  0
 13 11  2  0
 14 12  2  0
 15 12  1  0
 16 11  1  0
 17 20  1  0
 18 11  1  0
 19 18  1  0
 20 19  1  0
  1 21  1  0
  1 22  1  0
  2 23  1  0
  2 24  1  0
  4 25  1  1
  5 26  1  0
  6 27  1  0
  7 28  1  0
  7 29  1  0
  7 30  1  0
  8 31  1  0
  9 32  1  0
 10 33  1  0
 15 34  1  0
 16 35  1  0
 17 36  1  0
 17 37  1  0
 18 38  1  0
 18 39  1  0
 19 40  1  0
 19 41  1  0
 20 42  1  0
 20 43  1  0
M  END
> <Uni-Dock RESULT> 
ENERGY=   -7.128  LOWER_BOUND=    0.000  UPPER_BOUND=    0.000
INTER + INTRA:          -7.128
INTER:                  -7.128
INTRA:                   0.000
UNBOUND:                 0.000

$$$$

     RDKit          3D

 43 42  0  0  0  0  0  0  0  0999 V2000
   44.2334    6.7793   11.6059 C   0  0  0  0  0  0  0  0  0  0  0  0
   46.7184    6.9185   11.4593 N   0  0  0  0  0  0  0  0  0  0  0  0
   44.0891    5.2810   11.4559 C   0  0  0  0  0  0  0  0  0  0  0  0
   45.5466    7.2030   12.2975 C   0  0  1  0  0  0  0  0  0  0  0  0
   43.7003    4.4906   12.5460 C   0  0  0  0  0  0  0  0  0  0  0  0
   44.3588    4.6610   10.2283 C   0  0  0  0  0  0  0  0  0  0  0  0
   45.5256    8.6985   12.6096 C   0  0  0  0  0  0  0  0  0  0  0  0
   44.2396    3.2772   10.0933 C   0  0  0  0  0  0  0  0  0  0  0  0
   43.5812    3.1066   12.4087 C   0  0  0  0  0  0  0  0  0  0  0  0
   43.8508    2.5005   11.1830 C   0  0  0  0  0  0  0  0  0  0  0  0
   44.2688    3.3246   11.7490 C   0  0  0  0  0  0  0  0  0  0  0  0
   46.5317    7.6001   12.6403 C   0  0  0  0  0  0  0  0  0  0  0  0
   45.1161    3.0485   12.5813 O   0  0  0  0  0  0  0  0  0  0  0  0
   47.4318    7.6904   11.8238 O   0  0  0  0  0  0  0  0  0  0  0  0
   46.6384    8.1922   13.8463 O   0  0  0  0  0  0  0  0  0  0  0  0
   44.1150    2.5769   10.6414 O   0  0  0  0  0  0  0  0  0  0  0  0
   45.2216    6.8738   12.4883 C   0  0  0  0  0  0  0  0  0  0  0  0
   43.3211    4.4878   11.8063 C   0  0  0  0  0  0  0  0  0  0  0  0
   43.7159    5.6069   10.8477 C   0  0  0  0  0  0  0  0  0  0  0  0
   45.0919    6.2300   11.1084 C   0  0  0  0  0  0  0  0  0  0  0  0
   43.3751    7.1455   12.1850 H   0  0  0  0  0  0  0  0  0  0  0  0
   44.1489    7.2611   10.6225 H   0  0  0  0  0  0  0  0  0  0  0  0
   47.5683    7.1300   11.9805 H   0  0  0  0  0  0  0  0  0  0  0  0
   46.7488    5.9155   11.2680 H   0  0  0  0  0  0  0  0  0  0  0  0
   45.6583    6.6549   13.2410 H   0  0  0  0  0  0  0  0  0  0  0  0
   43.4857    4.9491   13.5084 H   0  0  0  0  0  0  0  0  0  0  0  0
   44.6677    5.2557    9.3710 H   0  0  0  0  0  0  0  0  0  0  0  0
   46.4441    9.0077   13.1210 H   0  0  0  0  0  0  0  0  0  0  0  0
   44.6843    8.9441   13.2665 H   0  0  0  0  0  0  0  0  0  0  0  0
   45.4271    9.2983   11.6977 H   0  0  0  0  0  0  0  0  0  0  0  0
   44.4501    2.8059    9.1369 H   0  0  0  0  0  0  0  0  0  0  0  0
   43.2768    2.5011   13.2583 H   0  0  0  0  0  0  0  0  0  0  0  0
   43.7569    1.4231   11.0766 H   0  0  0  0  0  0  0  0  0  0  0  0
   47.5232    8.6135   13.8254 H   0  0  0  0  0  0  0  0  0  0  0  0
   44.7938    1.8750   10.7291 H   0  0  0  0  0  0  0  0  0  0  0  0
   44.4122    7.5967   12.6376 H   0  0  0  0  0  0  0  0  0  0  0  0
   45.1716    6.1099   13.2708 H   0  0  0  0  0  0  0  0  0  0  0  0
   42.3160    4.1209   11.5664 H   0  0  0  0  0  0  0  0  0  0  0  0
   43.2711    4.8454   12.8402 H   0  0  0  0  0  0  0  0  0  0  0  0
   42.9533    6.3940   10.8950 H   0  0  0  0  0  0  0  0  0  0  0  0
   43.7039    5.2237    9.8196 H   0  0  0  0  0  0  0  0  0  0  0  0
   45.2721    6.9896   10.3366 H   0  0  0  0  0  0  0  0  0  0  0  0
   45.8776    5.4759   10.9768 H   0  0  0  0  0  0  0  0  0  0  0  0
  2  4  1  0
  3  1  1  0
  4  1  1  0
  5  3  2  0
  6  3  1  0
  7  4  1  0
  8  6  2  0
  9  5  1  0
 10  8  1  0
 10  9  2  0
 12 17  1  0
 13 11  2  0
 14 12  2  0
 15 12  1  0
 16 11  1  0
 17 20  1  0
 18 11  1  0
 19 18  1  0
 20 19  1  0
  1 21  1  0
  1 22  1  0
  2 23  1  0
  2 24  1  0
  4 25  1  1
  5 26  1  0
  6 27  1  0
  7 28  1  0
  7 29  1  0
  7 30  1  0
  8 31  1  0
  9 32  1  0
 10 33  1  0
 15 34  1  0
 16 35  1  0
 17 36  1  0
 17 37  1  0
 18 38  1  0
 18 39  1  0
 19 40  1  0
 19 41  1  0
 20 42  1  0
 20 43  1  0
M  END
> <Uni-Dock RESULT> 
ENERGY=   -5.799  LOWER_BOUND=    3.334  UPPER_BOUND=    5.277
INTER + INTRA:          -5.799
INTER:                  -5.799
INTRA:                   0.000
UNBOUND:                 0.000

$$$$

     RDKit          3D

 43 42  0  0  0  0  0  0  0  0999 V2000
   43.8758    4.6499   10.1962 C   0  0  0  0  0  0  0  0  0  0  0  0
   45.5342    4.7150   12.0567 N   0  0  0  0  0  0  0  0  0  0  0  0
   44.7546    4.0138    9.1421 C   0  0  0  0  0  0  0  0  0  0  0  0
   44.2230    4.2069   11.6334 C   0  0  1  0  0  0  0  0  0  0  0  0
   44.5270    2.6947    8.7268 C   0  0  0  0  0  0  0  0  0  0  0  0
   45.8192    4.7300    8.5785 C   0  0  0  0  0  0  0  0  0  0  0  0
   43.1675    4.7117   12.6160 C   0  0  0  0  0  0  0  0  0  0  0  0
   46.6390    4.1387    7.6163 C   0  0  0  0  0  0  0  0  0  0  0  0
   45.3478    2.1052    7.7638 C   0  0  0  0  0  0  0  0  0  0  0  0
   46.4032    2.8270    7.2091 C   0  0  0  0  0  0  0  0  0  0  0  0
   45.9510    2.7453    8.1904 C   0  0  0  0  0  0  0  0  0  0  0  0
   44.5073    4.0660   12.7034 C   0  0  0  0  0  0  0  0  0  0  0  0
   46.3524    1.8462    8.9096 O   0  0  0  0  0  0  0  0  0  0  0  0
   45.3966    4.7631   13.1596 O   0  0  0  0  0  0  0  0  0  0  0  0
   43.7235    3.3338   13.5196 O   0  0  0  0  0  0  0  0  0  0  0  0
   46.7575    3.3156    7.2774 O   0  0  0  0  0  0  0  0  0  0  0  0
   44.1257    3.8913   11.2574 C   0  0  0  0  0  0  0  0  0  0  0  0
   44.5750    3.3461    8.2126 C   0  0  0  0  0  0  0  0  0  0  0  0
   44.5520    4.7218    8.8716 C   0  0  0  0  0  0  0  0  0  0  0  0
   44.9968    4.7467   10.3383 C   0  0  0  0  0  0  0  0  0  0  0  0
   42.8332    4.3888    9.9700 H   0  0  0  0  0  0  0  0  0  0  0  0
   43.9275    5.7438   10.1125 H   0  0  0  0  0  0  0  0  0  0  0  0
   45.7672    4.3330   12.9724 H   0  0  0  0  0  0  0  0  0  0  0  0
   46.2458    4.3602   11.4154 H   0  0  0  0  0  0  0  0  0  0  0  0
   44.2466    3.1114   11.6846 H   0  0  0  0  0  0  0  0  0  0  0  0
   43.7070    2.1191    9.1497 H   0  0  0  0  0  0  0  0  0  0  0  0
   46.0167    5.7534    8.8912 H   0  0  0  0  0  0  0  0  0  0  0  0
   43.3912    4.3848   13.6377 H   0  0  0  0  0  0  0  0  0  0  0  0
   42.1782    4.3210   12.3544 H   0  0  0  0  0  0  0  0  0  0  0  0
   43.1083    5.8060   12.6156 H   0  0  0  0  0  0  0  0  0  0  0  0
   47.4615    4.7027    7.1845 H   0  0  0  0  0  0  0  0  0  0  0  0
   45.1631    1.0827    7.4455 H   0  0  0  0  0  0  0  0  0  0  0  0
   47.0411    2.3678    6.4588 H   0  0  0  0  0  0  0  0  0  0  0  0
   44.0742    3.5218   14.4154 H   0  0  0  0  0  0  0  0  0  0  0  0
   47.6101    2.8429    7.3812 H   0  0  0  0  0  0  0  0  0  0  0  0
   43.0747    4.1791   11.1455 H   0  0  0  0  0  0  0  0  0  0  0  0
   44.2375    2.8310   11.0093 H   0  0  0  0  0  0  0  0  0  0  0  0
   44.2167    3.4156    7.1787 H   0  0  0  0  0  0  0  0  0  0  0  0
   43.8990    2.6486    8.7183 H   0  0  0  0  0  0  0  0  0  0  0  0
   43.5354    5.1274    8.8003 H   0  0  0  0  0  0  0  0  0  0  0  0
   45.1995    5.4043    8.3068 H   0  0  0  0  0  0  0  0  0  0  0  0
   44.9714    5.7888   10.6828 H   0  0  0  0  0  0  0  0  0  0  0  0
   46.0436    4.4290   10.4197 H   0  0  0  0  0  0  0  0  0  0  0  0
  2  4  1  0
  3  1  1  0
  4  1  1  0
  5  3  2  0
  6  3  1  0
  7  4  1  0
  8  6  2  0
  9  5  1  0
 10  8  1  0
 10  9  2  0
 12 17  1  0
 13 11  2  0
 14 12  2  0
 15 12  1  0
 16 11  1  0
 17 20  1  0
 18 11  1  0
 19 18  1  0
 20 19  1  0
  1 21  1  0
  1 22  1  0
  2 23  1  0
  2 24  1  0
  4 25  1  1
  5 26  1  0
  6 27  1  0
  7 28  1  0
  7 29  1  0
  7 30  1  0
  8 31  1  0
  9 32  1  0
 10 33  1  0
 15 34  1  0
 16 35  1  0
 17 36  1  0
 17 37  1  0
 18 38  1  0
 18 39  1  0
 19 40  1  0
 19 41  1  0
 20 42  1  0
 20 43  1  0
M  END
> <Uni-Dock RESULT> 
ENERGY=   -5.126  LOWER_BOUND=    1.752  UPPER_BOUND=    4.861
INTER + INTRA:          -5.126
INTER:                  -5.126
INTRA:                   0.000
UNBOUND:                 0.000

$$$$

     RDKit          3D

 43 42  0  0  0  0  0  0  0  0999 V2000
   46.8380    6.0904   12.3901 C   0  0  0  0  0  0  0  0  0  0  0  0
   46.4554    8.2575   13.5620 N   0  0  0  0  0  0  0  0  0  0  0  0
   45.3932    5.7203   12.1376 C   0  0  0  0  0  0  0  0  0  0  0  0
   47.0878    7.6135   12.4037 C   0  0  1  0  0  0  0  0  0  0  0  0
   44.8649    5.7584   10.8399 C   0  0  0  0  0  0  0  0  0  0  0  0
   44.5586    5.3503   13.2009 C   0  0  0  0  0  0  0  0  0  0  0  0
   48.5867    7.9069   12.4445 C   0  0  0  0  0  0  0  0  0  0  0  0
   43.2219    5.0226   12.9702 C   0  0  0  0  0  0  0  0  0  0  0  0
   43.5277    5.4298   10.6113 C   0  0  0  0  0  0  0  0  0  0  0  0
   42.7069    5.0622   11.6760 C   0  0  0  0  0  0  0  0  0  0  0  0
   43.5048    5.7793   11.5239 C   0  0  0  0  0  0  0  0  0  0  0  0
   47.3262    8.6882   12.5873 C   0  0  0  0  0  0  0  0  0  0  0  0
   43.1903    6.8666   11.0704 O   0  0  0  0  0  0  0  0  0  0  0  0
   47.1143    9.1435   13.6976 O   0  0  0  0  0  0  0  0  0  0  0  0
   48.0555    9.3810   11.6902 O   0  0  0  0  0  0  0  0  0  0  0  0
   42.6487    5.0695   12.2805 O   0  0  0  0  0  0  0  0  0  0  0  0
   46.8617    7.3687   12.0303 C   0  0  0  0  0  0  0  0  0  0  0  0
   44.8294    5.0961   11.3410 C   0  0  0  0  0  0  0  0  0  0  0  0
   45.6942    5.1595   12.5961 C   0  0  0  0  0  0  0  0  0  0  0  0
   46.0614    6.5733   13.0610 C   0  0  0  0  0  0  0  0  0  0  0  0
   47.4490    5.6219   11.6069 H   0  0  0  0  0  0  0  0  0  0  0  0
   47.1774    5.6409   13.3331 H   0  0  0  0  0  0  0  0  0  0  0  0
   46.5670    9.2681   13.4919 H   0  0  0  0  0  0  0  0  0  0  0  0
   45.4495    8.0831   13.5253 H   0  0  0  0  0  0  0  0  0  0  0  0
   46.6729    8.0619   11.4927 H   0  0  0  0  0  0  0  0  0  0  0  0
   45.4931    6.0424    9.9990 H   0  0  0  0  0  0  0  0  0  0  0  0
   44.9474    5.3200   14.2168 H   0  0  0  0  0  0  0  0  0  0  0  0
   48.7779    8.9858   12.4323 H   0  0  0  0  0  0  0  0  0  0  0  0
   49.0889    7.4735   11.5730 H   0  0  0  0  0  0  0  0  0  0  0  0
   49.0537    7.4901   13.3441 H   0  0  0  0  0  0  0  0  0  0  0  0
   42.5830    4.7361   13.8014 H   0  0  0  0  0  0  0  0  0  0  0  0
   43.1265    5.4595    9.6017 H   0  0  0  0  0  0  0  0  0  0  0  0
   41.6662    4.8055   11.4971 H   0  0  0  0  0  0  0  0  0  0  0  0
   48.2840   10.2099   12.1609 H   0  0  0  0  0  0  0  0  0  0  0  0
   41.8461    5.6305   12.3260 H   0  0  0  0  0  0  0  0  0  0  0  0
   47.7456    6.7974   11.7261 H   0  0  0  0  0  0  0  0  0  0  0  0
   46.2464    7.5772   11.1493 H   0  0  0  0  0  0  0  0  0  0  0  0
   44.6393    4.0522   11.0647 H   0  0  0  0  0  0  0  0  0  0  0  0
   45.3374    5.5463   10.4817 H   0  0  0  0  0  0  0  0  0  0  0  0
   46.6159    4.5929   12.4155 H   0  0  0  0  0  0  0  0  0  0  0  0
   45.1745    4.6536   13.4195 H   0  0  0  0  0  0  0  0  0  0  0  0
   46.6482    6.4850   13.9846 H   0  0  0  0  0  0  0  0  0  0  0  0
   45.1547    7.1275   13.3331 H   0  0  0  0  0  0  0  0  0  0  0  0
  2  4  1  0
  3  1  1  0
  4  1  1  0
  5  3  2  0
  6  3  1  0
  7  4  1  0
  8  6  2  0
  9  5  1  0
 10  8  1  0
 10  9  2  0
 12 17  1  0
 13 11  2  0
 14 12  2  0
 15 12  1  0
 16 11  1  0
 17 20  1  0
 18 11  1  0
 19 18  1  0
 20 19  1  0
  1 21  1  0
  1 22  1  0
  2 23  1  0
  2 24  1  0
  4 25  1  1
  5 26  1  0
  6 27  1  0
  7 28  1  0
  7 29  1  0
  7 30  1  0
  8 31  1  0
  9 32  1  0
 10 33  1  0
 15 34  1  0
 16 35  1  0
 17 36  1  0
 17 37  1  0
 18 38  1  0
 18 39  1  0
 19 40  1  0
 19 41  1  0
 20 42  1  0
 20 43  1  0
M  END
> <Uni-Dock RESULT> 
ENERGY=   -5.031  LOWER_BOUND=    4.670  UPPER_BOUND=    5.822
INTER + INTRA:          -5.031
INTER:                  -5.031
INTRA:                   0.000
UNBOUND:                 0.000

$$$$

     RDKit          3D

 43 42  0  0  0  0  0  0  0  0999 V2000
   46.2149    6.7479   11.3938 C   0  0  0  0  0  0  0  0  0  0  0  0
   47.1831    6.4393   13.6705 N   0  0  0  0  0  0  0  0  0  0  0  0
   45.0057    5.8520   11.5470 C   0  0  0  0  0  0  0  0  0  0  0  0
   46.6528    7.4185   12.7132 C   0  0  1  0  0  0  0  0  0  0  0  0
   43.7185    6.4009   11.6259 C   0  0  0  0  0  0  0  0  0  0  0  0
   45.1581    4.4613   11.6291 C   0  0  0  0  0  0  0  0  0  0  0  0
   47.7312    8.4672   12.4452 C   0  0  0  0  0  0  0  0  0  0  0  0
   44.0441    3.6354   11.7849 C   0  0  0  0  0  0  0  0  0  0  0  0
   42.6054    5.5730   11.7812 C   0  0  0  0  0  0  0  0  0  0  0  0
   42.7684    4.1911   11.8607 C   0  0  0  0  0  0  0  0  0  0  0  0
   43.3127    5.0578   12.2169 C   0  0  0  0  0  0  0  0  0  0  0  0
   47.1295    7.8141   13.6415 C   0  0  0  0  0  0  0  0  0  0  0  0
   42.9608    5.5295   13.2848 O   0  0  0  0  0  0  0  0  0  0  0  0
   47.8725    7.0775   14.2662 O   0  0  0  0  0  0  0  0  0  0  0  0
   47.0831    9.1331   13.9151 O   0  0  0  0  0  0  0  0  0  0  0  0
   43.1697    3.7456   11.9575 O   0  0  0  0  0  0  0  0  0  0  0  0
   46.1892    7.4413   12.5263 C   0  0  0  0  0  0  0  0  0  0  0  0
   43.9448    5.8131   11.0835 C   0  0  0  0  0  0  0  0  0  0  0  0
   45.4427    5.5468   10.9715 C   0  0  0  0  0  0  0  0  0  0  0  0
   46.2676    5.9507   12.1987 C   0  0  0  0  0  0  0  0  0  0  0  0
   45.9729    7.5183   10.6493 H   0  0  0  0  0  0  0  0  0  0  0  0
   47.0482    6.1769   10.9625 H   0  0  0  0  0  0  0  0  0  0  0  0
   47.3801    6.9027   14.5566 H   0  0  0  0  0  0  0  0  0  0  0  0
   46.4565    5.7495   13.8701 H   0  0  0  0  0  0  0  0  0  0  0  0
   45.7923    7.9183   13.1745 H   0  0  0  0  0  0  0  0  0  0  0  0
   43.5753    7.4771   11.5646 H   0  0  0  0  0  0  0  0  0  0  0  0
   46.1492    4.0153   11.5759 H   0  0  0  0  0  0  0  0  0  0  0  0
   48.0351    8.9663   13.3722 H   0  0  0  0  0  0  0  0  0  0  0  0
   47.3586    9.2385   11.7626 H   0  0  0  0  0  0  0  0  0  0  0  0
   48.6236    8.0198   11.9929 H   0  0  0  0  0  0  0  0  0  0  0  0
   44.1726    2.5580   11.8467 H   0  0  0  0  0  0  0  0  0  0  0  0
   41.6105    6.0064   11.8391 H   0  0  0  0  0  0  0  0  0  0  0  0
   41.9013    3.5472   11.9806 H   0  0  0  0  0  0  0  0  0  0  0  0
   47.7193    9.2441   14.6524 H   0  0  0  0  0  0  0  0  0  0  0  0
   42.7645    3.3822   12.7729 H   0  0  0  0  0  0  0  0  0  0  0  0
   46.4589    8.0297   11.6424 H   0  0  0  0  0  0  0  0  0  0  0  0
   45.1757    7.7088   12.8418 H   0  0  0  0  0  0  0  0  0  0  0  0
   43.4383    5.5222   10.1555 H   0  0  0  0  0  0  0  0  0  0  0  0
   43.7368    6.8798   11.2174 H   0  0  0  0  0  0  0  0  0  0  0  0
   45.8281    6.0776   10.0923 H   0  0  0  0  0  0  0  0  0  0  0  0
   45.6073    4.4778   10.7863 H   0  0  0  0  0  0  0  0  0  0  0  0
   47.3137    5.6766   12.0095 H   0  0  0  0  0  0  0  0  0  0  0  0
   45.9564    5.3634   13.0714 H   0  0  0  0  0  0  0  0  0  0  0  0
  2  4  1  0
  3  1  1  0
  4  1  1  0
  5  3  2  0
  6  3  1  0
  7  4  1  0
  8  6  2  0
  9  5  1  0
 10  8  1  0
 10  9  2  0
 12 17  1  0
 13 11  2  0
 14 12  2  0
 15 12  1  0
 16 11  1  0
 17 20  1  0
 18 11  1  0
 19 18  1  0
 20 19  1  0
  1 21  1  0
  1 22  1  0
  2 23  1  0
  2 24  1  0
  4 25  1  1
  5 26  1  0
  6 27  1  0
  7 28  1  0
  7 29  1  0
  7 30  1  0
  8 31  1  0
  9 32  1  0
 10 33  1  0
 15 34  1  0
 16 35  1  0
 17 36  1  0
 17 37  1  0
 18 38  1  0
 18 39  1  0
 19 40  1  0
 19 41  1  0
 20 42  1  0
 20 43  1  0
M  END
> <Uni-Dock RESULT> 
ENERGY=   -5.022  LOWER_BOUND=    4.304  UPPER_BOUND=    5.643
INTER + INTRA:          -5.022
INTER:                  -5.022
INTRA:                   0.000
UNBOUND:                 0.000

$$$$

     RDKit          3D

 43 42  0  0  0  0  0  0  0  0999 V2000
   44.9759    6.0219   11.4023 C   0  0  0  0  0  0  0  0  0  0  0  0
   43.3987    5.5172   13.2661 N   0  0  0  0  0  0  0  0  0  0  0  0
   46.0053    6.7999   12.1917 C   0  0  0  0  0  0  0  0  0  0  0  0
   44.2616    4.9333   12.2312 C   0  0  1  0  0  0  0  0  0  0  0  0
   47.2689    6.2509   12.4491 C   0  0  0  0  0  0  0  0  0  0  0  0
   45.7031    8.0741   12.6908 C   0  0  0  0  0  0  0  0  0  0  0  0
   43.4033    4.0518   11.3253 C   0  0  0  0  0  0  0  0  0  0  0  0
   46.6476    8.7863   13.4312 C   0  0  0  0  0  0  0  0  0  0  0  0
   48.2124    6.9651   13.1895 C   0  0  0  0  0  0  0  0  0  0  0  0
   47.9016    8.2320   13.6802 C   0  0  0  0  0  0  0  0  0  0  0  0
   47.3670    7.2987   13.5493 C   0  0  0  0  0  0  0  0  0  0  0  0
   43.5903    4.2397   12.7914 C   0  0  0  0  0  0  0  0  0  0  0  0
   47.4581    6.4800   14.4484 O   0  0  0  0  0  0  0  0  0  0  0  0
   42.6377    4.7144   13.3850 O   0  0  0  0  0  0  0  0  0  0  0  0
   43.6871    2.9084   12.6045 O   0  0  0  0  0  0  0  0  0  0  0  0
   47.4481    8.6175   13.8014 O   0  0  0  0  0  0  0  0  0  0  0  0
   44.7585    4.9749   12.1901 C   0  0  0  0  0  0  0  0  0  0  0  0
   47.1436    6.9930   12.0963 C   0  0  0  0  0  0  0  0  0  0  0  0
   45.7145    7.2904   11.6529 C   0  0  0  0  0  0  0  0  0  0  0  0
   44.6292    6.4860   12.3774 C   0  0  0  0  0  0  0  0  0  0  0  0
   45.4847    5.5606   10.5453 H   0  0  0  0  0  0  0  0  0  0  0  0
   44.2407    6.7128   10.9680 H   0  0  0  0  0  0  0  0  0  0  0  0
   43.0131    4.7733   13.8464 H   0  0  0  0  0  0  0  0  0  0  0  0
   43.9734    6.0888   13.8879 H   0  0  0  0  0  0  0  0  0  0  0  0
   45.0077    4.2984   12.7244 H   0  0  0  0  0  0  0  0  0  0  0  0
   47.5264    5.2639   12.0721 H   0  0  0  0  0  0  0  0  0  0  0  0
   44.7259    8.5162   12.5072 H   0  0  0  0  0  0  0  0  0  0  0  0
   42.9077    3.2607   11.8993 H   0  0  0  0  0  0  0  0  0  0  0  0
   44.0203    3.5670   10.5611 H   0  0  0  0  0  0  0  0  0  0  0  0
   42.6292    4.6346   10.8133 H   0  0  0  0  0  0  0  0  0  0  0  0
   46.4039    9.7742   13.8132 H   0  0  0  0  0  0  0  0  0  0  0  0
   49.1908    6.5332   13.3826 H   0  0  0  0  0  0  0  0  0  0  0  0
   48.6370    8.7878   14.2557 H   0  0  0  0  0  0  0  0  0  0  0  0
   42.8878    2.5493   13.0436 H   0  0  0  0  0  0  0  0  0  0  0  0
   47.5787    8.6691   14.7717 H   0  0  0  0  0  0  0  0  0  0  0  0
   44.7980    4.7358   11.1217 H   0  0  0  0  0  0  0  0  0  0  0  0
   45.6685    4.6078   12.6754 H   0  0  0  0  0  0  0  0  0  0  0  0
   47.8534    7.5882   11.5097 H   0  0  0  0  0  0  0  0  0  0  0  0
   47.4089    5.9460   11.9161 H   0  0  0  0  0  0  0  0  0  0  0  0
   45.6363    7.1042   10.5747 H   0  0  0  0  0  0  0  0  0  0  0  0
   45.5045    8.3572   11.8003 H   0  0  0  0  0  0  0  0  0  0  0  0
   43.6530    6.8152   11.9981 H   0  0  0  0  0  0  0  0  0  0  0  0
   44.6326    6.7278   13.4474 H   0  0  0  0  0  0  0  0  0  0  0  0
  2  4  1  0
  3  1  1  0
  4  1  1  0
  5  3  2  0
  6  3  1  0
  7  4  1  0
  8  6  2  0
  9  5  1  0
 10  8  1  0
 10  9  2  0
 12 17  1  0
 13 11  2  0
 14 12  2  0
 15 12  1  0
 16 11  1  0
 17 20  1  0
 18 11  1  0
 19 18  1  0
 20 19  1  0
  1 21  1  0
  1 22  1  0
  2 23  1  0
  2 24  1  0
  4 25  1  1
  5 26  1  0
  6 27  1  0
  7 28  1  0
  7 29  1  0
  7 30  1  0
  8 31  1  0
  9 32  1  0
 10 33  1  0
 15 34  1  0
 16 35  1  0
 17 36  1  0
 17 37  1  0
 18 38  1  0
 18 39  1  0
 19 40  1  0
 19 41  1  0
 20 42  1  0
 20 43  1  0
M  END
> <Uni-Dock RESULT> 
ENERGY=   -4.991  LOWER_BOUND=    4.529  UPPER_BOUND=    6.089
INTER + INTRA:          -4.991
INTER:                  -4.991
INTRA:                   0.000
UNBOUND:                 0.000

$$$$

     RDKit          3D

 43 42  0  0  0  0  0  0  0  0999 V2000
   45.4244    5.9729   13.0270 C   0  0  0  0  0  0  0  0  0  0  0  0
   44.5336    5.7128   10.7130 N   0  0  0  0  0  0  0  0  0  0  0  0
   46.4060    7.0921   12.7590 C   0  0  0  0  0  0  0  0  0  0  0  0
   44.1849    6.0107   12.1081 C   0  0  1  0  0  0  0  0  0  0  0  0
   46.1611    8.3848   13.2421 C   0  0  0  0  0  0  0  0  0  0  0  0
   47.5660    6.8549   12.0091 C   0  0  0  0  0  0  0  0  0  0  0  0
   43.1445    4.9940   12.5752 C   0  0  0  0  0  0  0  0  0  0  0  0
   48.4647    7.8904   11.7494 C   0  0  0  0  0  0  0  0  0  0  0  0
   47.0616    9.4191   12.9817 C   0  0  0  0  0  0  0  0  0  0  0  0
   48.2126    9.1718   12.2357 C   0  0  0  0  0  0  0  0  0  0  0  0
   47.1831    8.8351   12.2073 C   0  0  0  0  0  0  0  0  0  0  0  0
   43.3444    5.8707   11.3873 C   0  0  0  0  0  0  0  0  0  0  0  0
   46.3920    9.5305   11.5931 O   0  0  0  0  0  0  0  0  0  0  0  0
   43.5740    5.2910   10.3403 O   0  0  0  0  0  0  0  0  0  0  0  0
   42.0756    6.1083   11.7752 O   0  0  0  0  0  0  0  0  0  0  0  0
   48.4799    8.7822   11.8540 O   0  0  0  0  0  0  0  0  0  0  0  0
   44.3416    6.3967   12.3853 C   0  0  0  0  0  0  0  0  0  0  0  0
   46.8600    7.9570   13.3817 C   0  0  0  0  0  0  0  0  0  0  0  0
   46.8251    6.4780   13.0094 C   0  0  0  0  0  0  0  0  0  0  0  0
   45.7777    6.0980   11.9566 C   0  0  0  0  0  0  0  0  0  0  0  0
   45.1094    6.0435   14.0768 H   0  0  0  0  0  0  0  0  0  0  0  0
   45.9333    5.0034   12.9396 H   0  0  0  0  0  0  0  0  0  0  0  0
   43.7102    5.8314   10.1242 H   0  0  0  0  0  0  0  0  0  0  0  0
   45.2118    6.4049   10.3897 H   0  0  0  0  0  0  0  0  0  0  0  0
   43.7320    7.0091   12.1430 H   0  0  0  0  0  0  0  0  0  0  0  0
   45.2679    8.5930   13.8263 H   0  0  0  0  0  0  0  0  0  0  0  0
   47.7721    5.8599   11.6198 H   0  0  0  0  0  0  0  0  0  0  0  0
   42.2497    5.0265   11.9434 H   0  0  0  0  0  0  0  0  0  0  0  0
   42.8302    5.2074   13.6025 H   0  0  0  0  0  0  0  0  0  0  0  0
   43.5405    3.9725   12.5495 H   0  0  0  0  0  0  0  0  0  0  0  0
   49.3619    7.6962   11.1676 H   0  0  0  0  0  0  0  0  0  0  0  0
   46.8655   10.4180   13.3620 H   0  0  0  0  0  0  0  0  0  0  0  0
   48.9137    9.9772   12.0342 H   0  0  0  0  0  0  0  0  0  0  0  0
   41.5327    5.7353   11.0493 H   0  0  0  0  0  0  0  0  0  0  0  0
   48.5431    9.3820   11.0811 H   0  0  0  0  0  0  0  0  0  0  0  0
   44.1374    5.9240   13.3522 H   0  0  0  0  0  0  0  0  0  0  0  0
   44.1873    7.4769   12.4724 H   0  0  0  0  0  0  0  0  0  0  0  0
   47.6143    8.1342   14.1576 H   0  0  0  0  0  0  0  0  0  0  0  0
   45.9067    8.2848   13.8094 H   0  0  0  0  0  0  0  0  0  0  0  0
   46.6452    5.8919   13.9190 H   0  0  0  0  0  0  0  0  0  0  0  0
   47.8111    6.1758   12.6346 H   0  0  0  0  0  0  0  0  0  0  0  0
   45.8777    5.0244   11.7507 H   0  0  0  0  0  0  0  0  0  0  0  0
   45.9944    6.6069   11.0093 H   0  0  0  0  0  0  0  0  0  0  0  0
  2  4  1  0
  3  1  1  0
  4  1  1  0
  5  3  2  0
  6  3  1  0
  7  4  1  0
  8  6  2  0
  9  5  1  0
 10  8  1  0
 10  9  2  0
 12 17  1  0
 13 11  2  0
 14 12  2  0
 15 12  1  0
 16 11  1  0
 17 20  1  0
 18 11  1  0
 19 18  1  0
 20 19  1  0
  1 21  1  0
  1 22  1  0
  2 23  1  0
  2 24  1  0
  4 25  1  1
  5 26  1  0
  6 27  1  0
  7 28  1  0
  7 29  1  0
  7 30  1  0
  8 31  1  0
  9 32  1  0
 10 33  1  0
 15 34  1  0
 16 35  1  0
 17 36  1  0
 17 37  1  0
 18 38  1  0
 18 39  1  0
 19 40  1  0
 19 41  1  0
 20 42  1  0
 20 43  1  0
M  END
> <Uni-Dock RESULT> 
ENERGY=   -4.771  LOWER_BOUND=    4.651  UPPER_BOUND=    6.360
INTER + INTRA:          -4.771
INTER:                  -4.771
INTRA:                   0.000
UNBOUND:                 0.000

$$$$

     RDKit          3D

 43 42  0  0  0  0  0  0  0  0999 V2000
   48.5786    5.9762   19.4716 C   0  0  0  0  0  0  0  0  0  0  0  0
   48.8406    4.5785   21.5195 N   0  0  0  0  0  0  0  0  0  0  0  0
   48.4822    4.8597   18.4556 C   0  0  0  0  0  0  0  0  0  0  0  0
   48.0142    5.5957   20.8568 C   0  0  1  0  0  0  0  0  0  0  0  0
   47.2659    4.5809   17.8174 C   0  0  0  0  0  0  0  0  0  0  0  0
   49.6046    4.0777   18.1512 C   0  0  0  0  0  0  0  0  0  0  0  0
   47.9439    6.8263   21.7596 C   0  0  0  0  0  0  0  0  0  0  0  0
   49.5126    3.0383   17.2246 C   0  0  0  0  0  0  0  0  0  0  0  0
   47.1761    3.5412   16.8905 C   0  0  0  0  0  0  0  0  0  0  0  0
   48.2989    2.7705   16.5944 C   0  0  0  0  0  0  0  0  0  0  0  0
   47.8880    3.2318   17.4846 C   0  0  0  0  0  0  0  0  0  0  0  0
   47.7771    5.3546   21.9204 C   0  0  0  0  0  0  0  0  0  0  0  0
   47.0555    2.5912   18.1037 O   0  0  0  0  0  0  0  0  0  0  0  0
   48.6314    4.8000   22.5894 O   0  0  0  0  0  0  0  0  0  0  0  0
   46.6859    5.8861   22.5063 O   0  0  0  0  0  0  0  0  0  0  0  0
   48.8555    2.6156   16.7820 O   0  0  0  0  0  0  0  0  0  0  0  0
   47.7611    5.5499   20.4276 C   0  0  0  0  0  0  0  0  0  0  0  0
   47.9805    4.7291   17.4196 C   0  0  0  0  0  0  0  0  0  0  0  0
   49.1198    5.2785   18.2726 C   0  0  0  0  0  0  0  0  0  0  0  0
   49.0146    4.9730   19.7711 C   0  0  0  0  0  0  0  0  0  0  0  0
   48.0328    6.8427   19.0747 H   0  0  0  0  0  0  0  0  0  0  0  0
   49.6222    6.3059   19.5636 H   0  0  0  0  0  0  0  0  0  0  0  0
   48.3927    4.2902   22.3884 H   0  0  0  0  0  0  0  0  0  0  0  0
   48.8706    3.7452   20.9293 H   0  0  0  0  0  0  0  0  0  0  0  0
   47.0003    5.1930   20.7425 H   0  0  0  0  0  0  0  0  0  0  0  0
   46.3814    5.1741   18.0373 H   0  0  0  0  0  0  0  0  0  0  0  0
   50.5570    4.2737   18.6397 H   0  0  0  0  0  0  0  0  0  0  0  0
   47.5240    6.5732   22.7396 H   0  0  0  0  0  0  0  0  0  0  0  0
   47.3028    7.5951   21.3152 H   0  0  0  0  0  0  0  0  0  0  0  0
   48.9353    7.2653   21.9190 H   0  0  0  0  0  0  0  0  0  0  0  0
   50.3890    2.4382   16.9946 H   0  0  0  0  0  0  0  0  0  0  0  0
   46.2298    3.3331   16.3982 H   0  0  0  0  0  0  0  0  0  0  0  0
   48.2285    1.9618   15.8719 H   0  0  0  0  0  0  0  0  0  0  0  0
   46.8076    5.6863   23.4582 H   0  0  0  0  0  0  0  0  0  0  0  0
   48.6831    1.6607   16.9221 H   0  0  0  0  0  0  0  0  0  0  0  0
   47.6980    6.6248   20.2255 H   0  0  0  0  0  0  0  0  0  0  0  0
   46.8654    5.0565   20.0369 H   0  0  0  0  0  0  0  0  0  0  0  0
   48.1202    5.0168   16.3708 H   0  0  0  0  0  0  0  0  0  0  0  0
   47.0158    5.1508   17.7206 H   0  0  0  0  0  0  0  0  0  0  0  0
   49.1693    6.3653   18.1329 H   0  0  0  0  0  0  0  0  0  0  0  0
   50.0724    4.8742   17.9078 H   0  0  0  0  0  0  0  0  0  0  0  0
   49.9040    5.3860   20.2646 H   0  0  0  0  0  0  0  0  0  0  0  0
   49.0544    3.8896   19.9381 H   0  0  0  0  0  0  0  0  0  0  0  0
  2  4  1  0
  3  1  1  0
  4  1  1  0
  5  3  2  0
  6  3  1  0
  7  4  1  0
  8  6  2  0
  9  5  1  0
 10  8  1  0
 10  9  2  0
 12 17  1  0
 13 11  2  0
 14 12  2  0
 15 12  1  0
 16 11  1  0
 17 20  1  0
 18 11  1  0
 19 18  1  0
 20 19  1  0
  1 21  1  0
  1 22  1  0
  2 23  1  0
  2 24  1  0
  4 25  1  1
  5 26  1  0
  6 27  1  0
  7 28  1  0
  7 29  1  0
  7 30  1  0
  8 31  1  0
  9 32  1  0
 10 33  1  0
 15 34  1  0
 16 35  1  0
 17 36  1  0
 17 37  1  0
 18 38  1  0
 18 39  1  0
 19 40  1  0
 19 41  1  0
 20 42  1  0
 20 43  1  0
M  END
> <Uni-Dock RESULT> 
ENERGY=   -4.543  LOWER_BOUND=    9.236  UPPER_BOUND=   11.717
INTER + INTRA:          -4.543
INTER:                  -4.543
INTRA:                   0.000
UNBOUND:                 0.000

$$$$

     RDKit          3D

 43 42  0  0  0  0  0  0  0  0999 V2000
   38.1110   12.5682   13.7196 C   0  0  0  0  0  0  0  0  0  0  0  0
   40.4309   13.4618   13.9088 N   0  0  0  0  0  0  0  0  0  0  0  0
   38.2283   11.9441   12.3467 C   0  0  0  0  0  0  0  0  0  0  0  0
   39.4364   12.5644   14.5106 C   0  0  1  0  0  0  0  0  0  0  0  0
   38.2445   10.5506   12.1971 C   0  0  0  0  0  0  0  0  0  0  0  0
   38.3394   12.7516   11.2067 C   0  0  0  0  0  0  0  0  0  0  0  0
   39.1965   13.0050   15.9538 C   0  0  0  0  0  0  0  0  0  0  0  0
   38.4620   12.1763    9.9412 C   0  0  0  0  0  0  0  0  0  0  0  0
   38.3668    9.9771   10.9304 C   0  0  0  0  0  0  0  0  0  0  0  0
   38.4755   10.7897    9.8033 C   0  0  0  0  0  0  0  0  0  0  0  0
   38.8399   10.8257   10.8231 C   0  0  0  0  0  0  0  0  0  0  0  0
   40.3772   12.7458   15.0828 C   0  0  0  0  0  0  0  0  0  0  0  0
   39.8844   10.2415   11.0566 O   0  0  0  0  0  0  0  0  0  0  0  0
   41.0443   13.7252   14.7987 O   0  0  0  0  0  0  0  0  0  0  0  0
   40.6271   12.0499   16.2097 O   0  0  0  0  0  0  0  0  0  0  0  0
   38.5963   11.3526    9.6097 O   0  0  0  0  0  0  0  0  0  0  0  0
   39.2300   12.1573   14.3054 C   0  0  0  0  0  0  0  0  0  0  0  0
   37.7217   11.0587   11.7978 C   0  0  0  0  0  0  0  0  0  0  0  0
   37.6765   12.4996   12.2970 C   0  0  0  0  0  0  0  0  0  0  0  0
   38.9304   12.9673   13.0446 C   0  0  0  0  0  0  0  0  0  0  0  0
   37.3447   12.0145   14.2785 H   0  0  0  0  0  0  0  0  0  0  0  0
   37.7243   13.5923   13.6305 H   0  0  0  0  0  0  0  0  0  0  0  0
   41.3167   13.3683   14.4040 H   0  0  0  0  0  0  0  0  0  0  0  0
   40.6112   13.1560   12.9509 H   0  0  0  0  0  0  0  0  0  0  0  0
   39.8532   11.5499   14.5241 H   0  0  0  0  0  0  0  0  0  0  0  0
   38.1597    9.9036   13.0670 H   0  0  0  0  0  0  0  0  0  0  0  0
   38.3348   13.8357   11.3014 H   0  0  0  0  0  0  0  0  0  0  0  0
   40.1271   12.9854   16.5320 H   0  0  0  0  0  0  0  0  0  0  0  0
   38.4866   12.3342   16.4494 H   0  0  0  0  0  0  0  0  0  0  0  0
   38.7893   14.0213   16.0015 H   0  0  0  0  0  0  0  0  0  0  0  0
   38.5467   12.8111    9.0632 H   0  0  0  0  0  0  0  0  0  0  0  0
   38.3760    8.8958   10.8228 H   0  0  0  0  0  0  0  0  0  0  0  0
   38.5696   10.3425    8.8174 H   0  0  0  0  0  0  0  0  0  0  0  0
   41.3884   12.5178   16.6126 H   0  0  0  0  0  0  0  0  0  0  0  0
   39.3998   11.1404    9.0898 H   0  0  0  0  0  0  0  0  0  0  0  0
   38.3487   12.1447   14.9560 H   0  0  0  0  0  0  0  0  0  0  0  0
   39.4986   11.1293   14.0423 H   0  0  0  0  0  0  0  0  0  0  0  0
   36.7782   10.8001   11.3024 H   0  0  0  0  0  0  0  0  0  0  0  0
   37.8293   10.3511   12.6266 H   0  0  0  0  0  0  0  0  0  0  0  0
   36.8057   12.6156   12.9538 H   0  0  0  0  0  0  0  0  0  0  0  0
   37.5158   13.1726   11.4455 H   0  0  0  0  0  0  0  0  0  0  0  0
   38.7895   14.0214   13.3170 H   0  0  0  0  0  0  0  0  0  0  0  0
   39.7988   12.9437   12.3748 H   0  0  0  0  0  0  0  0  0  0  0  0
  2  4  1  0
  3  1  1  0
  4  1  1  0
  5  3  2  0
  6  3  1  0
  7  4  1  0
  8  6  2  0
  9  5  1  0
 10  8  1  0
 10  9  2  0
 12 17  1  0
 13 11  2  0
 14 12  2  0
 15 12  1  0
 16 11  1  0
 17 20  1  0
 18 11  1  0
 19 18  1  0
 20 19  1  0
  1 21  1  0
  1 22  1  0
  2 23  1  0
  2 24  1  0
  4 25  1  1
  5 26  1  0
  6 27  1  0
  7 28  1  0
  7 29  1  0
  7 30  1  0
  8 31  1  0
  9 32  1  0
 10 33  1  0
 15 34  1  0
 16 35  1  0
 17 36  1  0
 17 37  1  0
 18 38  1  0
 18 39  1  0
 19 40  1  0
 19 41  1  0
 20 42  1  0
 20 43  1  0
M  END
> <Uni-Dock RESULT> 
ENERGY=   -4.338  LOWER_BOUND=   10.431  UPPER_BOUND=   12.408
INTER + INTRA:          -4.338
INTER:                  -4.338
INTRA:                   0.000
UNBOUND:                 0.000

$$$$
