
     RDKit          3D

 43 42  0  0  0  0  0  0  0  0999 V2000
   44.4209    2.4620    8.9178 C   0  0  0  0  0  0  0  0  0  0  0  0
   44.4622    4.7578    9.8954 N   0  0  0  0  0  0  0  0  0  0  0  0
   45.6149    2.4467    7.9902 C   0  0  0  0  0  0  0  0  0  0  0  0
   44.6286    3.3259   10.1815 C   0  0  1  0  0  0  0  0  0  0  0  0
   45.8400    3.5027    7.0978 C   0  0  0  0  0  0  0  0  0  0  0  0
   46.5224    1.3783    8.0178 C   0  0  0  0  0  0  0  0  0  0  0  0
   43.6320    2.9240   11.2707 C   0  0  0  0  0  0  0  0  0  0  0  0
   47.6266    1.3640    7.1634 C   0  0  0  0  0  0  0  0  0  0  0  0
   46.9448    3.4879    6.2449 C   0  0  0  0  0  0  0  0  0  0  0  0
   47.8369    2.4180    6.2765 C   0  0  0  0  0  0  0  0  0  0  0  0
   47.2914    1.7330    6.4354 C   0  0  0  0  0  0  0  0  0  0  0  0
   43.8410    4.1149   11.1825 C   0  0  0  0  0  0  0  0  0  0  0  0
   47.0369    0.5455    6.5366 O   0  0  0  0  0  0  0  0  0  0  0  0
   44.0956    5.3024   11.0813 O   0  0  0  0  0  0  0  0  0  0  0  0
   43.0069    3.6718   12.1437 O   0  0  0  0  0  0  0  0  0  0  0  0
   48.1254    2.1761    5.4742 O   0  0  0  0  0  0  0  0  0  0  0  0
   44.3597    2.9897   10.3287 C   0  0  0  0  0  0  0  0  0  0  0  0
   46.7727    2.8583    7.2892 C   0  0  0  0  0  0  0  0  0  0  0  0
   45.8280    2.3505    8.3771 C   0  0  0  0  0  0  0  0  0  0  0  0
   45.3044    3.4975    9.2409 C   0  0  0  0  0  0  0  0  0  0  0  0
   43.5332    2.7925    8.3613 H   0  0  0  0  0  0  0  0  0  0  0  0
   44.2033    1.4268    9.2132 H   0  0  0  0  0  0  0  0  0  0  0  0
   43.5015    4.9452    9.6122 H   0  0  0  0  0  0  0  0  0  0  0  0
   44.6189    5.2952   10.7470 H   0  0  0  0  0  0  0  0  0  0  0  0
   45.6425    3.1704   10.5693 H   0  0  0  0  0  0  0  0  0  0  0  0
   45.1581    4.3498    7.0723 H   0  0  0  0  0  0  0  0  0  0  0  0
   46.3755    0.5489    8.7054 H   0  0  0  0  0  0  0  0  0  0  0  0
   42.5966    3.0540   10.9363 H   0  0  0  0  0  0  0  0  0  0  0  0
   43.7744    3.5241   12.1764 H   0  0  0  0  0  0  0  0  0  0  0  0
   43.7669    1.8731   11.5488 H   0  0  0  0  0  0  0  0  0  0  0  0
   48.3236    0.5310    7.1915 H   0  0  0  0  0  0  0  0  0  0  0  0
   47.1104    4.3152    5.5601 H   0  0  0  0  0  0  0  0  0  0  0  0
   48.6975    2.4083    5.6134 H   0  0  0  0  0  0  0  0  0  0  0  0
   42.7424    4.4850   12.6229 H   0  0  0  0  0  0  0  0  0  0  0  0
   48.3900    1.3630    4.9950 H   0  0  0  0  0  0  0  0  0  0  0  0
   43.5024    2.4846    9.8704 H   0  0  0  0  0  0  0  0  0  0  0  0
   44.8868    2.2822   10.9782 H   0  0  0  0  0  0  0  0  0  0  0  0
   46.2456    3.5658    6.6398 H   0  0  0  0  0  0  0  0  0  0  0  0
   47.6300    3.3634    7.7476 H   0  0  0  0  0  0  0  0  0  0  0  0
   46.3505    1.6209    9.0085 H   0  0  0  0  0  0  0  0  0  0  0  0
   44.9851    1.8205    7.9158 H   0  0  0  0  0  0  0  0  0  0  0  0
   44.7819    4.2271    8.6094 H   0  0  0  0  0  0  0  0  0  0  0  0
   46.1473    4.0274    9.7022 H   0  0  0  0  0  0  0  0  0  0  0  0
  2  4  1  0
  3  1  1  0
  4  1  1  0
  5  3  2  0
  6  3  1  0
  7  4  1  0
  8  6  2  0
  9  5  1  0
 10  8  1  0
 10  9  2  0
 12 17  1  0
 13 11  2  0
 14 12  2  0
 15 12  1  0
 16 11  1  0
 17 20  1  0
 18 11  1  0
 19 18  1  0
 20 19  1  0
  1 21  1  0
  1 22  1  0
  2 23  1  0
  2 24  1  0
  4 25  1  6
  5 26  1  0
  6 27  1  0
  7 28  1  0
  7 29  1  0
  7 30  1  0
  8 31  1  0
  9 32  1  0
 10 33  1  0
 15 34  1  0
 16 35  1  0
 17 36  1  0
 17 37  1  0
 18 38  1  0
 18 39  1  0
 19 40  1  0
 19 41  1  0
 20 42  1  0
 20 43  1  0
M  END
> <Uni-Dock RESULT> 
ENERGY=   -9.149  LOWER_BOUND=    0.000  UPPER_BOUND=    0.000
INTER + INTRA:          -9.149
INTER:                  -9.149
INTRA:                   0.000
UNBOUND:                 0.000

$$$$

     RDKit          3D

 43 42  0  0  0  0  0  0  0  0999 V2000
   45.1534    3.3014    7.4671 C   0  0  0  0  0  0  0  0  0  0  0  0
   46.8237    1.4520    7.6012 N   0  0  0  0  0  0  0  0  0  0  0  0
   44.7015    3.4797    8.8990 C   0  0  0  0  0  0  0  0  0  0  0  0
   46.6347    2.8843    7.3319 C   0  0  1  0  0  0  0  0  0  0  0  0
   44.3470    2.3719    9.6795 C   0  0  0  0  0  0  0  0  0  0  0  0
   44.6415    4.7583    9.4711 C   0  0  0  0  0  0  0  0  0  0  0  0
   47.1475    3.1907    5.9233 C   0  0  0  0  0  0  0  0  0  0  0  0
   44.2265    4.9241   10.7939 C   0  0  0  0  0  0  0  0  0  0  0  0
   43.9333    2.5388   11.0022 C   0  0  0  0  0  0  0  0  0  0  0  0
   43.8714    3.8146   11.5586 C   0  0  0  0  0  0  0  0  0  0  0  0
   43.6048    4.3019   10.8633 C   0  0  0  0  0  0  0  0  0  0  0  0
   47.5460    2.1485    6.3975 C   0  0  0  0  0  0  0  0  0  0  0  0
   43.2047    5.3293   10.3440 O   0  0  0  0  0  0  0  0  0  0  0  0
   47.9460    1.1212    6.9168 O   0  0  0  0  0  0  0  0  0  0  0  0
   47.9821    2.5146    5.1762 O   0  0  0  0  0  0  0  0  0  0  0  0
   43.1685    3.9359   12.0845 O   0  0  0  0  0  0  0  0  0  0  0  0
   46.5647    3.1398    6.9620 C   0  0  0  0  0  0  0  0  0  0  0  0
   44.5860    3.3107   10.2987 C   0  0  0  0  0  0  0  0  0  0  0  0
   45.0773    3.7304    8.9145 C   0  0  0  0  0  0  0  0  0  0  0  0
   46.0734    2.7200    8.3463 C   0  0  0  0  0  0  0  0  0  0  0  0
   44.4971    2.5762    6.9670 H   0  0  0  0  0  0  0  0  0  0  0  0
   44.9893    4.2485    6.9356 H   0  0  0  0  0  0  0  0  0  0  0  0
   46.3369    0.8998    6.8966 H   0  0  0  0  0  0  0  0  0  0  0  0
   47.8116    1.2173    7.5154 H   0  0  0  0  0  0  0  0  0  0  0  0
   47.2418    3.4499    8.0490 H   0  0  0  0  0  0  0  0  0  0  0  0
   44.4031    1.3695    9.2609 H   0  0  0  0  0  0  0  0  0  0  0  0
   44.9175    5.6349    8.8900 H   0  0  0  0  0  0  0  0  0  0  0  0
   46.5722    2.6544    5.1603 H   0  0  0  0  0  0  0  0  0  0  0  0
   48.2005    2.9071    5.8166 H   0  0  0  0  0  0  0  0  0  0  0  0
   47.0731    4.2625    5.7099 H   0  0  0  0  0  0  0  0  0  0  0  0
   44.1822    5.9192   11.2280 H   0  0  0  0  0  0  0  0  0  0  0  0
   43.6648    1.6708   11.5983 H   0  0  0  0  0  0  0  0  0  0  0  0
   43.5510    3.9433   12.5887 H   0  0  0  0  0  0  0  0  0  0  0  0
   48.6039    1.8008    4.9215 H   0  0  0  0  0  0  0  0  0  0  0  0
   42.5468    4.6497   12.3392 H   0  0  0  0  0  0  0  0  0  0  0  0
   45.7163    3.2121    6.2726 H   0  0  0  0  0  0  0  0  0  0  0  0
   47.0603    4.1149    7.0234 H   0  0  0  0  0  0  0  0  0  0  0  0
   44.0905    2.3355   10.2374 H   0  0  0  0  0  0  0  0  0  0  0  0
   45.4344    3.2384   10.9881 H   0  0  0  0  0  0  0  0  0  0  0  0
   45.5479    4.7199    8.9743 H   0  0  0  0  0  0  0  0  0  0  0  0
   44.2223    3.8294    8.2339 H   0  0  0  0  0  0  0  0  0  0  0  0
   45.6029    1.7305    8.2865 H   0  0  0  0  0  0  0  0  0  0  0  0
   46.9285    2.6211    9.0268 H   0  0  0  0  0  0  0  0  0  0  0  0
  2  4  1  0
  3  1  1  0
  4  1  1  0
  5  3  2  0
  6  3  1  0
  7  4  1  0
  8  6  2  0
  9  5  1  0
 10  8  1  0
 10  9  2  0
 12 17  1  0
 13 11  2  0
 14 12  2  0
 15 12  1  0
 16 11  1  0
 17 20  1  0
 18 11  1  0
 19 18  1  0
 20 19  1  0
  1 21  1  0
  1 22  1  0
  2 23  1  0
  2 24  1  0
  4 25  1  6
  5 26  1  0
  6 27  1  0
  7 28  1  0
  7 29  1  0
  7 30  1  0
  8 31  1  0
  9 32  1  0
 10 33  1  0
 15 34  1  0
 16 35  1  0
 17 36  1  0
 17 37  1  0
 18 38  1  0
 18 39  1  0
 19 40  1  0
 19 41  1  0
 20 42  1  0
 20 43  1  0
M  END
> <Uni-Dock RESULT> 
ENERGY=   -9.129  LOWER_BOUND=    1.254  UPPER_BOUND=    5.418
INTER + INTRA:          -9.129
INTER:                  -9.129
INTRA:                   0.000
UNBOUND:                 0.000

$$$$
