
     RDKit          3D

 43 42  0  0  0  0  0  0  0  0999 V2000
   45.6337    3.4608    9.6362 C   0  0  0  0  0  0  0  0  0  0  0  0
   43.7743    1.8294    9.9669 N   0  0  0  0  0  0  0  0  0  0  0  0
   46.2457    3.0432    8.3181 C   0  0  0  0  0  0  0  0  0  0  0  0
   44.1069    3.2376    9.7092 C   0  0  1  0  0  0  0  0  0  0  0  0
   46.5405    1.6979    8.0616 C   0  0  0  0  0  0  0  0  0  0  0  0
   46.5171    3.9968    7.3268 C   0  0  0  0  0  0  0  0  0  0  0  0
   43.4956    4.0971   10.8175 C   0  0  0  0  0  0  0  0  0  0  0  0
   47.0800    3.6121    6.1084 C   0  0  0  0  0  0  0  0  0  0  0  0
   47.1023    1.3144    6.8427 C   0  0  0  0  0  0  0  0  0  0  0  0
   47.3736    2.2715    5.8671 C   0  0  0  0  0  0  0  0  0  0  0  0
   43.6868    3.5623   11.2143 C   0  0  0  0  0  0  0  0  0  0  0  0
   47.2151    2.3577    6.0945 C   0  0  0  0  0  0  0  0  0  0  0  0
   43.0145    4.4983   10.8180 O   0  0  0  0  0  0  0  0  0  0  0  0
   47.8875    1.4218    6.4908 O   0  0  0  0  0  0  0  0  0  0  0  0
   47.3709    2.8325    4.8429 O   0  0  0  0  0  0  0  0  0  0  0  0
   43.5311    3.0875   12.4658 O   0  0  0  0  0  0  0  0  0  0  0  0
   46.1599    3.1156    6.8536 C   0  0  0  0  0  0  0  0  0  0  0  0
   44.7421    2.8045   10.4552 C   0  0  0  0  0  0  0  0  0  0  0  0
   44.9146    3.3467    9.0374 C   0  0  0  0  0  0  0  0  0  0  0  0
   45.9873    2.5733    8.2714 C   0  0  0  0  0  0  0  0  0  0  0  0
   45.8567    4.5244    9.7956 H   0  0  0  0  0  0  0  0  0  0  0  0
   46.1438    2.9364   10.4556 H   0  0  0  0  0  0  0  0  0  0  0  0
   44.1173    1.5551   10.8863 H   0  0  0  0  0  0  0  0  0  0  0  0
   42.7615    1.7188    9.9954 H   0  0  0  0  0  0  0  0  0  0  0  0
   43.6478    3.5282    8.7565 H   0  0  0  0  0  0  0  0  0  0  0  0
   46.3218    0.9394    8.8100 H   0  0  0  0  0  0  0  0  0  0  0  0
   46.2918    5.0468    7.4969 H   0  0  0  0  0  0  0  0  0  0  0  0
   43.9221    3.8531   11.7971 H   0  0  0  0  0  0  0  0  0  0  0  0
   42.4107    3.9542   10.8744 H   0  0  0  0  0  0  0  0  0  0  0  0
   43.6771    5.1602   10.6263 H   0  0  0  0  0  0  0  0  0  0  0  0
   47.2877    4.3588    5.3469 H   0  0  0  0  0  0  0  0  0  0  0  0
   47.3227    0.2672    6.6547 H   0  0  0  0  0  0  0  0  0  0  0  0
   47.8093    1.9717    4.9180 H   0  0  0  0  0  0  0  0  0  0  0  0
   48.0728    2.2662    4.4590 H   0  0  0  0  0  0  0  0  0  0  0  0
   42.8292    3.6538   12.8497 H   0  0  0  0  0  0  0  0  0  0  0  0
   46.4565    4.1694    6.8922 H   0  0  0  0  0  0  0  0  0  0  0  0
   45.2154    3.0294    6.3052 H   0  0  0  0  0  0  0  0  0  0  0  0
   44.4455    1.7505   10.4165 H   0  0  0  0  0  0  0  0  0  0  0  0
   45.6866    2.8907   11.0036 H   0  0  0  0  0  0  0  0  0  0  0  0
   43.9599    3.2852    8.5001 H   0  0  0  0  0  0  0  0  0  0  0  0
   45.1840    4.4096    9.0791 H   0  0  0  0  0  0  0  0  0  0  0  0
   45.7180    1.5104    8.2297 H   0  0  0  0  0  0  0  0  0  0  0  0
   46.9421    2.6349    8.8087 H   0  0  0  0  0  0  0  0  0  0  0  0
  2  4  1  0
  3  1  1  0
  4  1  1  0
  5  3  2  0
  6  3  1  0
  7  4  1  0
  8  6  2  0
  9  5  1  0
 10  8  1  0
 10  9  2  0
 12 17  1  0
 13 11  2  0
 14 12  2  0
 15 12  1  0
 16 11  1  0
 17 20  1  0
 18 11  1  0
 19 18  1  0
 20 19  1  0
  1 21  1  0
  1 22  1  0
  2 23  1  0
  2 24  1  0
  4 25  1  1
  5 26  1  0
  6 27  1  0
  7 28  1  0
  7 29  1  0
  7 30  1  0
  8 31  1  0
  9 32  1  0
 10 33  1  0
 15 34  1  0
 16 35  1  0
 17 36  1  0
 17 37  1  0
 18 38  1  0
 18 39  1  0
 19 40  1  0
 19 41  1  0
 20 42  1  0
 20 43  1  0
M  END
> <Uni-Dock RESULT> 
ENERGY=   -7.444  LOWER_BOUND=    0.000  UPPER_BOUND=    0.000
INTER + INTRA:          -7.444
INTER:                  -7.444
INTRA:                   0.000
UNBOUND:                 0.000

$$$$

     RDKit          3D

 43 42  0  0  0  0  0  0  0  0999 V2000
   44.8241    3.5423    7.9737 C   0  0  0  0  0  0  0  0  0  0  0  0
   46.7567    1.9691    8.1069 N   0  0  0  0  0  0  0  0  0  0  0  0
   44.3399    3.6360    9.4030 C   0  0  0  0  0  0  0  0  0  0  0  0
   46.3526    3.3581    7.8477 C   0  0  1  0  0  0  0  0  0  0  0  0
   44.1536    2.4796   10.1715 C   0  0  0  0  0  0  0  0  0  0  0  0
   44.0807    4.8849    9.9851 C   0  0  0  0  0  0  0  0  0  0  0  0
   46.8226    3.7527    6.4461 C   0  0  0  0  0  0  0  0  0  0  0  0
   43.6359    4.9727   11.3057 C   0  0  0  0  0  0  0  0  0  0  0  0
   43.7098    2.5688   11.4920 C   0  0  0  0  0  0  0  0  0  0  0  0
   43.4493    3.8149   12.0583 C   0  0  0  0  0  0  0  0  0  0  0  0
   46.6379    3.1014    6.2985 C   0  0  0  0  0  0  0  0  0  0  0  0
   43.5846    3.8136   11.8014 C   0  0  0  0  0  0  0  0  0  0  0  0
   47.2750    4.1392    6.2504 O   0  0  0  0  0  0  0  0  0  0  0  0
   42.9475    2.7759   11.8495 O   0  0  0  0  0  0  0  0  0  0  0  0
   43.4911    4.7222   12.7923 O   0  0  0  0  0  0  0  0  0  0  0  0
   46.7315    2.1928    5.3077 O   0  0  0  0  0  0  0  0  0  0  0  0
   44.5289    4.2611   10.7187 C   0  0  0  0  0  0  0  0  0  0  0  0
   45.6936    2.6540    7.3812 C   0  0  0  0  0  0  0  0  0  0  0  0
   45.5913    3.6874    8.5017 C   0  0  0  0  0  0  0  0  0  0  0  0
   44.6312    3.2276    9.5983 C   0  0  0  0  0  0  0  0  0  0  0  0
   44.5206    4.4581    7.4487 H   0  0  0  0  0  0  0  0  0  0  0  0
   44.2902    2.7300    7.4621 H   0  0  0  0  0  0  0  0  0  0  0  0
   46.3654    1.3556    7.3937 H   0  0  0  0  0  0  0  0  0  0  0  0
   47.7697    1.8891    8.0277 H   0  0  0  0  0  0  0  0  0  0  0  0
   46.8608    4.0032    8.5745 H   0  0  0  0  0  0  0  0  0  0  0  0
   44.3656    1.5015    9.7453 H   0  0  0  0  0  0  0  0  0  0  0  0
   44.2235    5.7987    9.4136 H   0  0  0  0  0  0  0  0  0  0  0  0
   46.3417    3.1416    5.6739 H   0  0  0  0  0  0  0  0  0  0  0  0
   47.9073    3.6344    6.3460 H   0  0  0  0  0  0  0  0  0  0  0  0
   46.5864    4.8024    6.2408 H   0  0  0  0  0  0  0  0  0  0  0  0
   43.4366    5.9453   11.7475 H   0  0  0  0  0  0  0  0  0  0  0  0
   43.5731    1.6645   12.0786 H   0  0  0  0  0  0  0  0  0  0  0  0
   43.1056    3.8834   13.0866 H   0  0  0  0  0  0  0  0  0  0  0  0
   42.8582    4.3212   13.4242 H   0  0  0  0  0  0  0  0  0  0  0  0
   47.3644    2.5939    4.6758 H   0  0  0  0  0  0  0  0  0  0  0  0
   44.1618    5.2113   10.3156 H   0  0  0  0  0  0  0  0  0  0  0  0
   45.5149    4.4203   11.1688 H   0  0  0  0  0  0  0  0  0  0  0  0
   46.0608    1.7037    7.7844 H   0  0  0  0  0  0  0  0  0  0  0  0
   44.7076    2.4949    6.9312 H   0  0  0  0  0  0  0  0  0  0  0  0
   46.5852    3.8654    8.9313 H   0  0  0  0  0  0  0  0  0  0  0  0
   45.2506    4.6457    8.0898 H   0  0  0  0  0  0  0  0  0  0  0  0
   44.9719    2.2693   10.0101 H   0  0  0  0  0  0  0  0  0  0  0  0
   43.6373    3.0497    9.1686 H   0  0  0  0  0  0  0  0  0  0  0  0
  2  4  1  0
  3  1  1  0
  4  1  1  0
  5  3  2  0
  6  3  1  0
  7  4  1  0
  8  6  2  0
  9  5  1  0
 10  8  1  0
 10  9  2  0
 12 17  1  0
 13 11  2  0
 14 12  2  0
 15 12  1  0
 16 11  1  0
 17 20  1  0
 18 11  1  0
 19 18  1  0
 20 19  1  0
  1 21  1  0
  1 22  1  0
  2 23  1  0
  2 24  1  0
  4 25  1  1
  5 26  1  0
  6 27  1  0
  7 28  1  0
  7 29  1  0
  7 30  1  0
  8 31  1  0
  9 32  1  0
 10 33  1  0
 15 34  1  0
 16 35  1  0
 17 36  1  0
 17 37  1  0
 18 38  1  0
 18 39  1  0
 19 40  1  0
 19 41  1  0
 20 42  1  0
 20 43  1  0
M  END
> <Uni-Dock RESULT> 
ENERGY=   -7.148  LOWER_BOUND=    1.344  UPPER_BOUND=    5.335
INTER + INTRA:          -7.148
INTER:                  -7.148
INTRA:                   0.000
UNBOUND:                 0.000

$$$$

     RDKit          3D

 43 42  0  0  0  0  0  0  0  0999 V2000
   45.6629    4.1560    9.5053 C   0  0  0  0  0  0  0  0  0  0  0  0
   44.1526    3.5889    7.6013 N   0  0  0  0  0  0  0  0  0  0  0  0
   44.7100    4.4758   10.6348 C   0  0  0  0  0  0  0  0  0  0  0  0
   45.1444    3.0600    8.5482 C   0  0  1  0  0  0  0  0  0  0  0  0
   43.6170    5.3274   10.4279 C   0  0  0  0  0  0  0  0  0  0  0  0
   44.9001    3.9146   11.9055 C   0  0  0  0  0  0  0  0  0  0  0  0
   46.3040    2.4525    7.7562 C   0  0  0  0  0  0  0  0  0  0  0  0
   44.0194    4.2073   12.9485 C   0  0  0  0  0  0  0  0  0  0  0  0
   42.7367    5.6185   11.4713 C   0  0  0  0  0  0  0  0  0  0  0  0
   42.9388    5.0600   12.7317 C   0  0  0  0  0  0  0  0  0  0  0  0
   46.1899    2.9976    7.3440 C   0  0  0  0  0  0  0  0  0  0  0  0
   43.1003    4.9549   12.5146 C   0  0  0  0  0  0  0  0  0  0  0  0
   46.4824    1.8590    7.6653 O   0  0  0  0  0  0  0  0  0  0  0  0
   42.8079    6.0934   12.1933 O   0  0  0  0  0  0  0  0  0  0  0  0
   42.7424    4.4690   13.7196 O   0  0  0  0  0  0  0  0  0  0  0  0
   46.5478    3.4835    6.1390 O   0  0  0  0  0  0  0  0  0  0  0  0
   43.8576    3.9386   11.7035 C   0  0  0  0  0  0  0  0  0  0  0  0
   45.4327    4.0139    8.1551 C   0  0  0  0  0  0  0  0  0  0  0  0
   45.0295    3.4581    9.5198 C   0  0  0  0  0  0  0  0  0  0  0  0
   44.2607    4.4944   10.3388 C   0  0  0  0  0  0  0  0  0  0  0  0
   46.6187    3.8379    9.9433 H   0  0  0  0  0  0  0  0  0  0  0  0
   45.8945    5.0773    8.9537 H   0  0  0  0  0  0  0  0  0  0  0  0
   44.5899    4.2767    6.9898 H   0  0  0  0  0  0  0  0  0  0  0  0
   43.8248    2.8368    6.9966 H   0  0  0  0  0  0  0  0  0  0  0  0
   44.6694    2.2603    9.1293 H   0  0  0  0  0  0  0  0  0  0  0  0
   43.4408    5.7598    9.4454 H   0  0  0  0  0  0  0  0  0  0  0  0
   45.7362    3.2449   12.0918 H   0  0  0  0  0  0  0  0  0  0  0  0
   46.8220    3.2099    7.1570 H   0  0  0  0  0  0  0  0  0  0  0  0
   45.9504    1.6672    7.0788 H   0  0  0  0  0  0  0  0  0  0  0  0
   47.0368    1.9981    8.4317 H   0  0  0  0  0  0  0  0  0  0  0  0
   44.1759    3.7683   13.9301 H   0  0  0  0  0  0  0  0  0  0  0  0
   41.8906    6.2775   11.2968 H   0  0  0  0  0  0  0  0  0  0  0  0
   42.2521    5.2858   13.5427 H   0  0  0  0  0  0  0  0  0  0  0  0
   42.2648    5.2124   14.1438 H   0  0  0  0  0  0  0  0  0  0  0  0
   47.0254    2.7400    5.7148 H   0  0  0  0  0  0  0  0  0  0  0  0
   44.7520    3.6494   12.2661 H   0  0  0  0  0  0  0  0  0  0  0  0
   43.2174    3.0593   11.5724 H   0  0  0  0  0  0  0  0  0  0  0  0
   44.5382    4.3031    7.5925 H   0  0  0  0  0  0  0  0  0  0  0  0
   46.0729    4.8931    8.2862 H   0  0  0  0  0  0  0  0  0  0  0  0
   44.4118    2.5612    9.3851 H   0  0  0  0  0  0  0  0  0  0  0  0
   45.9255    3.1431   10.0693 H   0  0  0  0  0  0  0  0  0  0  0  0
   43.3647    4.8093    9.7893 H   0  0  0  0  0  0  0  0  0  0  0  0
   44.8785    5.3913   10.4736 H   0  0  0  0  0  0  0  0  0  0  0  0
  2  4  1  0
  3  1  1  0
  4  1  1  0
  5  3  2  0
  6  3  1  0
  7  4  1  0
  8  6  2  0
  9  5  1  0
 10  8  1  0
 10  9  2  0
 12 17  1  0
 13 11  2  0
 14 12  2  0
 15 12  1  0
 16 11  1  0
 17 20  1  0
 18 11  1  0
 19 18  1  0
 20 19  1  0
  1 21  1  0
  1 22  1  0
  2 23  1  0
  2 24  1  0
  4 25  1  1
  5 26  1  0
  6 27  1  0
  7 28  1  0
  7 29  1  0
  7 30  1  0
  8 31  1  0
  9 32  1  0
 10 33  1  0
 15 34  1  0
 16 35  1  0
 17 36  1  0
 17 37  1  0
 18 38  1  0
 18 39  1  0
 19 40  1  0
 19 41  1  0
 20 42  1  0
 20 43  1  0
M  END
> <Uni-Dock RESULT> 
ENERGY=   -6.863  LOWER_BOUND=    1.570  UPPER_BOUND=    5.823
INTER + INTRA:          -6.863
INTER:                  -6.863
INTRA:                   0.000
UNBOUND:                 0.000

$$$$

     RDKit          3D

 43 42  0  0  0  0  0  0  0  0999 V2000
   45.9997    6.3114   11.2252 C   0  0  0  0  0  0  0  0  0  0  0  0
   44.2134    6.7572   12.9099 N   0  0  0  0  0  0  0  0  0  0  0  0
   45.5041    5.0838   10.4947 C   0  0  0  0  0  0  0  0  0  0  0  0
   44.8685    7.2541   11.6917 C   0  0  1  0  0  0  0  0  0  0  0  0
   45.0225    3.9760   11.2043 C   0  0  0  0  0  0  0  0  0  0  0  0
   45.5085    5.0405    9.0933 C   0  0  0  0  0  0  0  0  0  0  0  0
   45.4217    8.6537   11.9678 C   0  0  0  0  0  0  0  0  0  0  0  0
   45.0489    3.9084    8.4177 C   0  0  0  0  0  0  0  0  0  0  0  0
   44.5623    2.8451   10.5276 C   0  0  0  0  0  0  0  0  0  0  0  0
   44.5771    2.8107    9.1348 C   0  0  0  0  0  0  0  0  0  0  0  0
   45.5709    8.3752   12.5844 C   0  0  0  0  0  0  0  0  0  0  0  0
   44.6308    3.0671    9.2599 C   0  0  0  0  0  0  0  0  0  0  0  0
   45.2424    9.2203   11.7703 O   0  0  0  0  0  0  0  0  0  0  0  0
   44.9594    2.2220   10.0740 O   0  0  0  0  0  0  0  0  0  0  0  0
   44.2097    2.7084    8.0310 O   0  0  0  0  0  0  0  0  0  0  0  0
   45.9920    8.7338   13.8133 O   0  0  0  0  0  0  0  0  0  0  0  0
   44.6262    4.5611    9.4394 C   0  0  0  0  0  0  0  0  0  0  0  0
   45.5756    6.8812   12.4048 C   0  0  0  0  0  0  0  0  0  0  0  0
   45.0975    6.4802   11.0104 C   0  0  0  0  0  0  0  0  0  0  0  0
   45.1042    4.9621   10.8339 C   0  0  0  0  0  0  0  0  0  0  0  0
   46.6790    6.8568   10.5563 H   0  0  0  0  0  0  0  0  0  0  0  0
   46.6236    6.0012   12.0744 H   0  0  0  0  0  0  0  0  0  0  0  0
   44.8774    6.7521   13.6828 H   0  0  0  0  0  0  0  0  0  0  0  0
   43.4666    7.3963   13.1794 H   0  0  0  0  0  0  0  0  0  0  0  0
   44.1095    7.3341   10.9041 H   0  0  0  0  0  0  0  0  0  0  0  0
   44.9938    3.9952   12.2915 H   0  0  0  0  0  0  0  0  0  0  0  0
   45.8704    5.8890    8.5177 H   0  0  0  0  0  0  0  0  0  0  0  0
   46.1919    8.6350   12.7472 H   0  0  0  0  0  0  0  0  0  0  0  0
   44.6271    9.3350   12.2919 H   0  0  0  0  0  0  0  0  0  0  0  0
   45.8688    9.0777   11.0622 H   0  0  0  0  0  0  0  0  0  0  0  0
   45.0574    3.8841    7.3314 H   0  0  0  0  0  0  0  0  0  0  0  0
   44.1877    1.9940   11.0896 H   0  0  0  0  0  0  0  0  0  0  0  0
   44.2171    1.9308    8.6090 H   0  0  0  0  0  0  0  0  0  0  0  0
   44.2576    1.7295    8.0392 H   0  0  0  0  0  0  0  0  0  0  0  0
   45.9442    9.7128   13.8050 H   0  0  0  0  0  0  0  0  0  0  0  0
   45.2841    4.9989    8.6807 H   0  0  0  0  0  0  0  0  0  0  0  0
   43.6045    4.9220    9.2786 H   0  0  0  0  0  0  0  0  0  0  0  0
   44.9177    6.4433   13.1636 H   0  0  0  0  0  0  0  0  0  0  0  0
   46.5973    6.5203   12.5656 H   0  0  0  0  0  0  0  0  0  0  0  0
   44.0847    6.8675   10.8419 H   0  0  0  0  0  0  0  0  0  0  0  0
   45.7414    6.9434   10.2522 H   0  0  0  0  0  0  0  0  0  0  0  0
   44.4603    4.4989   11.5921 H   0  0  0  0  0  0  0  0  0  0  0  0
   46.1170    4.5748   11.0023 H   0  0  0  0  0  0  0  0  0  0  0  0
  2  4  1  0
  3  1  1  0
  4  1  1  0
  5  3  2  0
  6  3  1  0
  7  4  1  0
  8  6  2  0
  9  5  1  0
 10  8  1  0
 10  9  2  0
 12 17  1  0
 13 11  2  0
 14 12  2  0
 15 12  1  0
 16 11  1  0
 17 20  1  0
 18 11  1  0
 19 18  1  0
 20 19  1  0
  1 21  1  0
  1 22  1  0
  2 23  1  0
  2 24  1  0
  4 25  1  1
  5 26  1  0
  6 27  1  0
  7 28  1  0
  7 29  1  0
  7 30  1  0
  8 31  1  0
  9 32  1  0
 10 33  1  0
 15 34  1  0
 16 35  1  0
 17 36  1  0
 17 37  1  0
 18 38  1  0
 18 39  1  0
 19 40  1  0
 19 41  1  0
 20 42  1  0
 20 43  1  0
M  END
> <Uni-Dock RESULT> 
ENERGY=   -5.786  LOWER_BOUND=    3.394  UPPER_BOUND=    4.405
INTER + INTRA:          -5.786
INTER:                  -5.786
INTRA:                   0.000
UNBOUND:                 0.000

$$$$

     RDKit          3D

 43 42  0  0  0  0  0  0  0  0999 V2000
   46.7089    5.9682   13.5269 C   0  0  0  0  0  0  0  0  0  0  0  0
   46.9273    7.9899   12.0802 N   0  0  0  0  0  0  0  0  0  0  0  0
   45.4721    5.2798   12.9951 C   0  0  0  0  0  0  0  0  0  0  0  0
   47.5283    6.6978   12.4395 C   0  0  1  0  0  0  0  0  0  0  0  0
   44.2987    6.0058   12.7530 C   0  0  0  0  0  0  0  0  0  0  0  0
   45.4851    3.9041   12.7253 C   0  0  0  0  0  0  0  0  0  0  0  0
   48.9593    6.9397   12.9238 C   0  0  0  0  0  0  0  0  0  0  0  0
   44.3444    3.2678   12.2320 C   0  0  0  0  0  0  0  0  0  0  0  0
   43.1592    5.3687   12.2588 C   0  0  0  0  0  0  0  0  0  0  0  0
   43.1816    3.9998   12.0001 C   0  0  0  0  0  0  0  0  0  0  0  0
   48.6709    7.4989   13.2138 C   0  0  0  0  0  0  0  0  0  0  0  0
   43.4365    4.1263   12.0570 C   0  0  0  0  0  0  0  0  0  0  0  0
   49.5153    6.8129   12.6646 O   0  0  0  0  0  0  0  0  0  0  0  0
   42.5922    4.8123   12.6063 O   0  0  0  0  0  0  0  0  0  0  0  0
   43.0909    2.9843   11.4306 O   0  0  0  0  0  0  0  0  0  0  0  0
   49.0165    8.6410   13.8402 O   0  0  0  0  0  0  0  0  0  0  0  0
   44.9159    4.3872   11.9698 C   0  0  0  0  0  0  0  0  0  0  0  0
   47.1916    7.2380   13.3011 C   0  0  0  0  0  0  0  0  0  0  0  0
   46.8054    5.9424   12.5895 C   0  0  0  0  0  0  0  0  0  0  0  0
   45.3021    5.6828   12.6813 C   0  0  0  0  0  0  0  0  0  0  0  0
   47.3386    5.2121   14.0148 H   0  0  0  0  0  0  0  0  0  0  0  0
   46.4219    6.6614   14.3292 H   0  0  0  0  0  0  0  0  0  0  0  0
   46.9505    8.6178   12.8824 H   0  0  0  0  0  0  0  0  0  0  0  0
   47.4864    8.4348   11.3534 H   0  0  0  0  0  0  0  0  0  0  0  0
   47.5718    6.0781   11.5356 H   0  0  0  0  0  0  0  0  0  0  0  0
   44.2721    7.0772   12.9388 H   0  0  0  0  0  0  0  0  0  0  0  0
   46.3845    3.3179   12.8976 H   0  0  0  0  0  0  0  0  0  0  0  0
   48.9782    7.5525   13.8321 H   0  0  0  0  0  0  0  0  0  0  0  0
   49.5541    7.4497   12.1577 H   0  0  0  0  0  0  0  0  0  0  0  0
   49.4570    5.9899   13.1476 H   0  0  0  0  0  0  0  0  0  0  0  0
   44.3640    2.2009   12.0271 H   0  0  0  0  0  0  0  0  0  0  0  0
   42.2566    5.9438   12.0716 H   0  0  0  0  0  0  0  0  0  0  0  0
   42.2947    3.5051   11.6139 H   0  0  0  0  0  0  0  0  0  0  0  0
   42.1205    2.9279   11.5565 H   0  0  0  0  0  0  0  0  0  0  0  0
   49.9870    8.6973   13.7144 H   0  0  0  0  0  0  0  0  0  0  0  0
   45.4402    3.5412   12.4275 H   0  0  0  0  0  0  0  0  0  0  0  0
   45.1908    4.4484   10.9111 H   0  0  0  0  0  0  0  0  0  0  0  0
   46.6673    8.0841   12.8433 H   0  0  0  0  0  0  0  0  0  0  0  0
   46.9167    7.1768   14.3597 H   0  0  0  0  0  0  0  0  0  0  0  0
   47.1077    5.9958   11.5360 H   0  0  0  0  0  0  0  0  0  0  0  0
   47.3536    5.1011   13.0317 H   0  0  0  0  0  0  0  0  0  0  0  0
   44.7538    6.5242   12.2392 H   0  0  0  0  0  0  0  0  0  0  0  0
   44.9998    5.6294   13.7349 H   0  0  0  0  0  0  0  0  0  0  0  0
  2  4  1  0
  3  1  1  0
  4  1  1  0
  5  3  2  0
  6  3  1  0
  7  4  1  0
  8  6  2  0
  9  5  1  0
 10  8  1  0
 10  9  2  0
 12 17  1  0
 13 11  2  0
 14 12  2  0
 15 12  1  0
 16 11  1  0
 17 20  1  0
 18 11  1  0
 19 18  1  0
 20 19  1  0
  1 21  1  0
  1 22  1  0
  2 23  1  0
  2 24  1  0
  4 25  1  1
  5 26  1  0
  6 27  1  0
  7 28  1  0
  7 29  1  0
  7 30  1  0
  8 31  1  0
  9 32  1  0
 10 33  1  0
 15 34  1  0
 16 35  1  0
 17 36  1  0
 17 37  1  0
 18 38  1  0
 18 39  1  0
 19 40  1  0
 19 41  1  0
 20 42  1  0
 20 43  1  0
M  END
> <Uni-Dock RESULT> 
ENERGY=   -5.522  LOWER_BOUND=    4.909  UPPER_BOUND=    6.640
INTER + INTRA:          -5.522
INTER:                  -5.522
INTRA:                   0.000
UNBOUND:                 0.000

$$$$

     RDKit          3D

 43 42  0  0  0  0  0  0  0  0999 V2000
   44.9979    7.1504   12.2259 C   0  0  0  0  0  0  0  0  0  0  0  0
   47.4369    7.1571   11.6975 N   0  0  0  0  0  0  0  0  0  0  0  0
   44.5700    5.7322   11.9227 C   0  0  0  0  0  0  0  0  0  0  0  0
   46.4389    7.2601   12.7714 C   0  0  1  0  0  0  0  0  0  0  0  0
   44.9530    5.1106   10.7271 C   0  0  0  0  0  0  0  0  0  0  0  0
   43.7917    5.0131   12.8407 C   0  0  0  0  0  0  0  0  0  0  0  0
   46.6337    8.5933   13.4963 C   0  0  0  0  0  0  0  0  0  0  0  0
   43.3981    3.7027   12.5629 C   0  0  0  0  0  0  0  0  0  0  0  0
   44.5597    3.8000   10.4509 C   0  0  0  0  0  0  0  0  0  0  0  0
   43.7809    3.0970   11.3678 C   0  0  0  0  0  0  0  0  0  0  0  0
   46.7597    8.8213   12.8543 C   0  0  0  0  0  0  0  0  0  0  0  0
   43.8938    3.3488   11.4579 C   0  0  0  0  0  0  0  0  0  0  0  0
   46.8552    8.7309   14.0658 O   0  0  0  0  0  0  0  0  0  0  0  0
   43.7982    3.4392   10.2464 O   0  0  0  0  0  0  0  0  0  0  0  0
   43.4304    2.2601   12.1030 O   0  0  0  0  0  0  0  0  0  0  0  0
   47.2231    9.9100   12.2092 O   0  0  0  0  0  0  0  0  0  0  0  0
   44.4973    4.3477   12.4077 C   0  0  0  0  0  0  0  0  0  0  0  0
   46.1561    7.8224   11.9046 C   0  0  0  0  0  0  0  0  0  0  0  0
   45.6326    6.5904   12.6408 C   0  0  0  0  0  0  0  0  0  0  0  0
   45.0210    5.5796   11.6714 C   0  0  0  0  0  0  0  0  0  0  0  0
   44.2956    7.5708   12.9584 H   0  0  0  0  0  0  0  0  0  0  0  0
   44.8741    7.7673   11.3254 H   0  0  0  0  0  0  0  0  0  0  0  0
   47.3435    7.9471   11.0608 H   0  0  0  0  0  0  0  0  0  0  0  0
   48.3729    7.2205   12.0957 H   0  0  0  0  0  0  0  0  0  0  0  0
   46.6226    6.4499   13.4874 H   0  0  0  0  0  0  0  0  0  0  0  0
   45.5715    5.6441   10.0088 H   0  0  0  0  0  0  0  0  0  0  0  0
   43.4863    5.4690   13.7794 H   0  0  0  0  0  0  0  0  0  0  0  0
   46.4575    9.4438   12.8280 H   0  0  0  0  0  0  0  0  0  0  0  0
   47.6504    8.6802   13.8957 H   0  0  0  0  0  0  0  0  0  0  0  0
   45.9409    8.6788   14.3404 H   0  0  0  0  0  0  0  0  0  0  0  0
   42.7939    3.1540   13.2803 H   0  0  0  0  0  0  0  0  0  0  0  0
   44.8666    3.3279    9.5217 H   0  0  0  0  0  0  0  0  0  0  0  0
   43.4768    2.0764   11.1527 H   0  0  0  0  0  0  0  0  0  0  0  0
   43.0687    1.6956   11.3880 H   0  0  0  0  0  0  0  0  0  0  0  0
   47.5847   10.4745   12.9243 H   0  0  0  0  0  0  0  0  0  0  0  0
   43.7266    4.6445   13.1275 H   0  0  0  0  0  0  0  0  0  0  0  0
   45.3180    3.8581   12.9434 H   0  0  0  0  0  0  0  0  0  0  0  0
   46.9269    7.5256   11.1847 H   0  0  0  0  0  0  0  0  0  0  0  0
   45.3355    8.3119   11.3689 H   0  0  0  0  0  0  0  0  0  0  0  0
   46.4510    6.1187   13.1992 H   0  0  0  0  0  0  0  0  0  0  0  0
   44.8814    6.8943   13.3807 H   0  0  0  0  0  0  0  0  0  0  0  0
   45.7721    5.2757   10.9315 H   0  0  0  0  0  0  0  0  0  0  0  0
   44.2024    6.0514   11.1131 H   0  0  0  0  0  0  0  0  0  0  0  0
  2  4  1  0
  3  1  1  0
  4  1  1  0
  5  3  2  0
  6  3  1  0
  7  4  1  0
  8  6  2  0
  9  5  1  0
 10  8  1  0
 10  9  2  0
 12 17  1  0
 13 11  2  0
 14 12  2  0
 15 12  1  0
 16 11  1  0
 17 20  1  0
 18 11  1  0
 19 18  1  0
 20 19  1  0
  1 21  1  0
  1 22  1  0
  2 23  1  0
  2 24  1  0
  4 25  1  1
  5 26  1  0
  6 27  1  0
  7 28  1  0
  7 29  1  0
  7 30  1  0
  8 31  1  0
  9 32  1  0
 10 33  1  0
 15 34  1  0
 16 35  1  0
 17 36  1  0
 17 37  1  0
 18 38  1  0
 18 39  1  0
 19 40  1  0
 19 41  1  0
 20 42  1  0
 20 43  1  0
M  END
> <Uni-Dock RESULT> 
ENERGY=   -5.474  LOWER_BOUND=    3.942  UPPER_BOUND=    6.079
INTER + INTRA:          -5.474
INTER:                  -5.474
INTRA:                   0.000
UNBOUND:                 0.000

$$$$

     RDKit          3D

 43 42  0  0  0  0  0  0  0  0999 V2000
   45.2022    5.5617   11.4976 C   0  0  0  0  0  0  0  0  0  0  0  0
   43.2422    5.1776   12.9938 N   0  0  0  0  0  0  0  0  0  0  0  0
   45.7028    6.9283   11.9075 C   0  0  0  0  0  0  0  0  0  0  0  0
   44.6072    4.7435   12.6649 C   0  0  1  0  0  0  0  0  0  0  0  0
   44.8124    7.9991   12.0598 C   0  0  0  0  0  0  0  0  0  0  0  0
   47.0666    7.1415   12.1527 C   0  0  0  0  0  0  0  0  0  0  0  0
   44.5773    3.2553   12.3111 C   0  0  0  0  0  0  0  0  0  0  0  0
   47.5296    8.4025   12.5335 C   0  0  0  0  0  0  0  0  0  0  0  0
   45.2764    9.2591   12.4416 C   0  0  0  0  0  0  0  0  0  0  0  0
   46.6348    9.4611   12.6766 C   0  0  0  0  0  0  0  0  0  0  0  0
   43.9801    3.4316   12.0073 C   0  0  0  0  0  0  0  0  0  0  0  0
   46.5471    9.1863   12.6444 C   0  0  0  0  0  0  0  0  0  0  0  0
   44.7861    2.7492   12.6153 O   0  0  0  0  0  0  0  0  0  0  0  0
   45.7412    9.8686   12.0362 O   0  0  0  0  0  0  0  0  0  0  0  0
   47.6285    9.7499   13.2178 O   0  0  0  0  0  0  0  0  0  0  0  0
   42.8987    2.8679   11.4338 O   0  0  0  0  0  0  0  0  0  0  0  0
   46.5083    7.6982   12.8644 C   0  0  0  0  0  0  0  0  0  0  0  0
   44.0190    4.9196   11.7872 C   0  0  0  0  0  0  0  0  0  0  0  0
   45.2466    5.5534   12.4391 C   0  0  0  0  0  0  0  0  0  0  0  0
   45.2806    7.0644   12.2125 C   0  0  0  0  0  0  0  0  0  0  0  0
   46.0408    5.0092   11.0526 H   0  0  0  0  0  0  0  0  0  0  0  0
   44.4703    5.6715   10.6859 H   0  0  0  0  0  0  0  0  0  0  0  0
   42.6207    4.9915   12.2080 H   0  0  0  0  0  0  0  0  0  0  0  0
   42.8885    4.6258   13.7743 H   0  0  0  0  0  0  0  0  0  0  0  0
   45.2309    4.8717   13.5579 H   0  0  0  0  0  0  0  0  0  0  0  0
   43.7479    7.8515   11.8916 H   0  0  0  0  0  0  0  0  0  0  0  0
   47.7785    6.3263   12.0487 H   0  0  0  0  0  0  0  0  0  0  0  0
   43.9695    3.0662   11.4190 H   0  0  0  0  0  0  0  0  0  0  0  0
   44.1646    2.6623   13.1350 H   0  0  0  0  0  0  0  0  0  0  0  0
   45.5891    2.8847   12.1144 H   0  0  0  0  0  0  0  0  0  0  0  0
   48.5887    8.5579   12.7202 H   0  0  0  0  0  0  0  0  0  0  0  0
   44.5751   10.0804   12.5600 H   0  0  0  0  0  0  0  0  0  0  0  0
   46.9948   10.4417   12.9755 H   0  0  0  0  0  0  0  0  0  0  0  0
   47.5402   10.7031   13.0071 H   0  0  0  0  0  0  0  0  0  0  0  0
   42.9871    1.9147   11.6445 H   0  0  0  0  0  0  0  0  0  0  0  0
   47.4203    7.2654   12.4388 H   0  0  0  0  0  0  0  0  0  0  0  0
   46.4937    7.5121   13.9439 H   0  0  0  0  0  0  0  0  0  0  0  0
   43.1069    5.3524   12.2128 H   0  0  0  0  0  0  0  0  0  0  0  0
   44.0336    5.1057   10.7077 H   0  0  0  0  0  0  0  0  0  0  0  0
   45.2437    5.3410   13.5157 H   0  0  0  0  0  0  0  0  0  0  0  0
   46.1576    5.0977   12.0312 H   0  0  0  0  0  0  0  0  0  0  0  0
   44.3696    7.5201   12.6204 H   0  0  0  0  0  0  0  0  0  0  0  0
   45.2836    7.2768   11.1359 H   0  0  0  0  0  0  0  0  0  0  0  0
  2  4  1  0
  3  1  1  0
  4  1  1  0
  5  3  2  0
  6  3  1  0
  7  4  1  0
  8  6  2  0
  9  5  1  0
 10  8  1  0
 10  9  2  0
 12 17  1  0
 13 11  2  0
 14 12  2  0
 15 12  1  0
 16 11  1  0
 17 20  1  0
 18 11  1  0
 19 18  1  0
 20 19  1  0
  1 21  1  0
  1 22  1  0
  2 23  1  0
  2 24  1  0
  4 25  1  1
  5 26  1  0
  6 27  1  0
  7 28  1  0
  7 29  1  0
  7 30  1  0
  8 31  1  0
  9 32  1  0
 10 33  1  0
 15 34  1  0
 16 35  1  0
 17 36  1  0
 17 37  1  0
 18 38  1  0
 18 39  1  0
 19 40  1  0
 19 41  1  0
 20 42  1  0
 20 43  1  0
M  END
> <Uni-Dock RESULT> 
ENERGY=   -5.386  LOWER_BOUND=    4.714  UPPER_BOUND=    6.590
INTER + INTRA:          -5.386
INTER:                  -5.386
INTRA:                   0.000
UNBOUND:                 0.000

$$$$

     RDKit          3D

 43 42  0  0  0  0  0  0  0  0999 V2000
   46.9097    6.4813   11.7778 C   0  0  0  0  0  0  0  0  0  0  0  0
   47.5729    7.2554   14.0557 N   0  0  0  0  0  0  0  0  0  0  0  0
   45.4711    6.0495   11.9515 C   0  0  0  0  0  0  0  0  0  0  0  0
   47.3109    7.6753   12.6719 C   0  0  1  0  0  0  0  0  0  0  0  0
   45.0954    5.2310   13.0246 C   0  0  0  0  0  0  0  0  0  0  0  0
   44.4879    6.4721   11.0457 C   0  0  0  0  0  0  0  0  0  0  0  0
   48.5649    8.3562   12.1197 C   0  0  0  0  0  0  0  0  0  0  0  0
   43.1588    6.0760   11.2065 C   0  0  0  0  0  0  0  0  0  0  0  0
   43.7660    4.8365   13.1848 C   0  0  0  0  0  0  0  0  0  0  0  0
   42.7984    5.2574   12.2750 C   0  0  0  0  0  0  0  0  0  0  0  0
   48.8847    7.8584   12.4803 C   0  0  0  0  0  0  0  0  0  0  0  0
   43.0590    5.3840   12.2567 C   0  0  0  0  0  0  0  0  0  0  0  0
   48.6904    8.9549   11.9852 O   0  0  0  0  0  0  0  0  0  0  0  0
   43.2533    4.2876   12.7518 O   0  0  0  0  0  0  0  0  0  0  0  0
   41.8267    5.7419   11.8450 O   0  0  0  0  0  0  0  0  0  0  0  0
   50.1170    7.5005   12.8920 O   0  0  0  0  0  0  0  0  0  0  0  0
   44.0672    6.4758   12.0209 C   0  0  0  0  0  0  0  0  0  0  0  0
   47.8765    6.7666   12.7160 C   0  0  0  0  0  0  0  0  0  0  0  0
   46.4816    7.1775   12.2475 C   0  0  0  0  0  0  0  0  0  0  0  0
   45.4621    6.0650   12.4895 C   0  0  0  0  0  0  0  0  0  0  0  0
   47.0629    6.7455   10.7227 H   0  0  0  0  0  0  0  0  0  0  0  0
   47.5706    5.6220   11.9555 H   0  0  0  0  0  0  0  0  0  0  0  0
   48.3796    6.6335   14.0821 H   0  0  0  0  0  0  0  0  0  0  0  0
   47.8213    8.0691   14.6169 H   0  0  0  0  0  0  0  0  0  0  0  0
   46.4984    8.4119   12.6864 H   0  0  0  0  0  0  0  0  0  0  0  0
   45.8390    4.9060   13.7490 H   0  0  0  0  0  0  0  0  0  0  0  0
   44.7507    7.1134   10.2079 H   0  0  0  0  0  0  0  0  0  0  0  0
   49.4129    7.6633   12.0771 H   0  0  0  0  0  0  0  0  0  0  0  0
   48.8556    9.2108   12.7409 H   0  0  0  0  0  0  0  0  0  0  0  0
   48.3858    8.7323   11.1067 H   0  0  0  0  0  0  0  0  0  0  0  0
   42.4043    6.4079   10.4984 H   0  0  0  0  0  0  0  0  0  0  0  0
   43.4870    4.2047   14.0235 H   0  0  0  0  0  0  0  0  0  0  0  0
   41.7637    4.9512   12.4015 H   0  0  0  0  0  0  0  0  0  0  0  0
   41.2711    4.9606   12.0492 H   0  0  0  0  0  0  0  0  0  0  0  0
   50.6725    8.2818   12.6878 H   0  0  0  0  0  0  0  0  0  0  0  0
   44.0859    6.6986   10.9485 H   0  0  0  0  0  0  0  0  0  0  0  0
   43.7397    7.3677   12.5662 H   0  0  0  0  0  0  0  0  0  0  0  0
   47.8578    6.5438   13.7885 H   0  0  0  0  0  0  0  0  0  0  0  0
   48.2040    5.8747   12.1707 H   0  0  0  0  0  0  0  0  0  0  0  0
   46.1683    8.0872   12.7750 H   0  0  0  0  0  0  0  0  0  0  0  0
   46.5098    7.4272   11.1794 H   0  0  0  0  0  0  0  0  0  0  0  0
   45.4339    5.8152   13.5576 H   0  0  0  0  0  0  0  0  0  0  0  0
   45.7754    5.1552   11.9619 H   0  0  0  0  0  0  0  0  0  0  0  0
  2  4  1  0
  3  1  1  0
  4  1  1  0
  5  3  2  0
  6  3  1  0
  7  4  1  0
  8  6  2  0
  9  5  1  0
 10  8  1  0
 10  9  2  0
 12 17  1  0
 13 11  2  0
 14 12  2  0
 15 12  1  0
 16 11  1  0
 17 20  1  0
 18 11  1  0
 19 18  1  0
 20 19  1  0
  1 21  1  0
  1 22  1  0
  2 23  1  0
  2 24  1  0
  4 25  1  1
  5 26  1  0
  6 27  1  0
  7 28  1  0
  7 29  1  0
  7 30  1  0
  8 31  1  0
  9 32  1  0
 10 33  1  0
 15 34  1  0
 16 35  1  0
 17 36  1  0
 17 37  1  0
 18 38  1  0
 18 39  1  0
 19 40  1  0
 19 41  1  0
 20 42  1  0
 20 43  1  0
M  END
> <Uni-Dock RESULT> 
ENERGY=   -5.314  LOWER_BOUND=    5.502  UPPER_BOUND=    6.871
INTER + INTRA:          -5.314
INTER:                  -5.314
INTRA:                   0.000
UNBOUND:                 0.000

$$$$

     RDKit          3D

 43 42  0  0  0  0  0  0  0  0999 V2000
   45.3304    7.2356   11.4250 C   0  0  0  0  0  0  0  0  0  0  0  0
   46.2668    8.0317   13.5969 N   0  0  0  0  0  0  0  0  0  0  0  0
   44.9422    5.8017   11.7069 C   0  0  0  0  0  0  0  0  0  0  0  0
   45.1605    8.1743   12.6400 C   0  0  1  0  0  0  0  0  0  0  0  0
   45.8293    4.9367   12.3605 C   0  0  0  0  0  0  0  0  0  0  0  0
   43.6817    5.3191   11.3277 C   0  0  0  0  0  0  0  0  0  0  0  0
   45.0933    9.6323   12.1811 C   0  0  0  0  0  0  0  0  0  0  0  0
   43.3212    3.9959   11.5897 C   0  0  0  0  0  0  0  0  0  0  0  0
   45.4674    3.6143   12.6228 C   0  0  0  0  0  0  0  0  0  0  0  0
   44.2144    3.1436   12.2358 C   0  0  0  0  0  0  0  0  0  0  0  0
   45.7836    9.5769   12.2022 C   0  0  0  0  0  0  0  0  0  0  0  0
   44.2579    3.4300   12.2177 C   0  0  0  0  0  0  0  0  0  0  0  0
   44.6825   10.0896   12.3011 O   0  0  0  0  0  0  0  0  0  0  0  0
   45.3589    2.9172   12.1186 O   0  0  0  0  0  0  0  0  0  0  0  0
   43.1502    2.6663   12.2946 O   0  0  0  0  0  0  0  0  0  0  0  0
   46.8913   10.3405   12.1253 O   0  0  0  0  0  0  0  0  0  0  0  0
   43.9308    4.8978   12.2704 C   0  0  0  0  0  0  0  0  0  0  0  0
   46.1105    8.1091   12.1494 C   0  0  0  0  0  0  0  0  0  0  0  0
   44.8516    7.2481   12.2369 C   0  0  0  0  0  0  0  0  0  0  0  0
   45.1899    5.7587   12.1829 C   0  0  0  0  0  0  0  0  0  0  0  0
   44.7145    7.5996   10.5916 H   0  0  0  0  0  0  0  0  0  0  0  0
   46.3628    7.2654   11.0510 H   0  0  0  0  0  0  0  0  0  0  0  0
   47.1399    8.3291   13.1640 H   0  0  0  0  0  0  0  0  0  0  0  0
   46.1141    8.6550   14.3888 H   0  0  0  0  0  0  0  0  0  0  0  0
   44.2254    7.9347   13.1606 H   0  0  0  0  0  0  0  0  0  0  0  0
   46.8056    5.2954   12.6791 H   0  0  0  0  0  0  0  0  0  0  0  0
   42.9711    5.9709   10.8252 H   0  0  0  0  0  0  0  0  0  0  0  0
   46.0035    9.9282   11.6474 H   0  0  0  0  0  0  0  0  0  0  0  0
   44.9644   10.3085   13.0336 H   0  0  0  0  0  0  0  0  0  0  0  0
   44.2429    9.7865   11.5081 H   0  0  0  0  0  0  0  0  0  0  0  0
   42.3423    3.6309   11.2908 H   0  0  0  0  0  0  0  0  0  0  0  0
   46.1632    2.9546   13.1339 H   0  0  0  0  0  0  0  0  0  0  0  0
   43.9329    2.1146   12.4420 H   0  0  0  0  0  0  0  0  0  0  0  0
   43.4904    1.7482   12.2505 H   0  0  0  0  0  0  0  0  0  0  0  0
   46.5510   11.2587   12.1693 H   0  0  0  0  0  0  0  0  0  0  0  0
   43.2629    5.1299   11.4336 H   0  0  0  0  0  0  0  0  0  0  0  0
   43.4080    5.0984   13.2120 H   0  0  0  0  0  0  0  0  0  0  0  0
   46.7785    7.8770   12.9862 H   0  0  0  0  0  0  0  0  0  0  0  0
   46.6333    7.9085   11.2078 H   0  0  0  0  0  0  0  0  0  0  0  0
   44.3154    7.4720   13.1678 H   0  0  0  0  0  0  0  0  0  0  0  0
   44.1723    7.5031   11.4137 H   0  0  0  0  0  0  0  0  0  0  0  0
   45.8691    5.5037   13.0061 H   0  0  0  0  0  0  0  0  0  0  0  0
   45.7259    5.5349   11.2520 H   0  0  0  0  0  0  0  0  0  0  0  0
  2  4  1  0
  3  1  1  0
  4  1  1  0
  5  3  2  0
  6  3  1  0
  7  4  1  0
  8  6  2  0
  9  5  1  0
 10  8  1  0
 10  9  2  0
 12 17  1  0
 13 11  2  0
 14 12  2  0
 15 12  1  0
 16 11  1  0
 17 20  1  0
 18 11  1  0
 19 18  1  0
 20 19  1  0
  1 21  1  0
  1 22  1  0
  2 23  1  0
  2 24  1  0
  4 25  1  1
  5 26  1  0
  6 27  1  0
  7 28  1  0
  7 29  1  0
  7 30  1  0
  8 31  1  0
  9 32  1  0
 10 33  1  0
 15 34  1  0
 16 35  1  0
 17 36  1  0
 17 37  1  0
 18 38  1  0
 18 39  1  0
 19 40  1  0
 19 41  1  0
 20 42  1  0
 20 43  1  0
M  END
> <Uni-Dock RESULT> 
ENERGY=   -5.281  LOWER_BOUND=    4.938  UPPER_BOUND=    6.254
INTER + INTRA:          -5.281
INTER:                  -5.281
INTRA:                   0.000
UNBOUND:                 0.000

$$$$
