
     RDKit          3D

 43 42  0  0  0  0  0  0  0  0999 V2000
   44.4554    3.5080    8.4712 C   0  0  0  0  0  0  0  0  0  0  0  0
   45.5540    5.2057    9.9296 N   0  0  0  0  0  0  0  0  0  0  0  0
   45.6844    3.0251    7.7336 C   0  0  0  0  0  0  0  0  0  0  0  0
   44.7493    3.9774    9.9120 C   0  0  1  0  0  0  0  0  0  0  0  0
   46.2065    1.7478    7.9797 C   0  0  0  0  0  0  0  0  0  0  0  0
   46.3279    3.8553    6.8059 C   0  0  0  0  0  0  0  0  0  0  0  0
   43.4450    4.2417   10.6624 C   0  0  0  0  0  0  0  0  0  0  0  0
   47.4702    3.4155    6.1357 C   0  0  0  0  0  0  0  0  0  0  0  0
   47.3488    1.3095    7.3079 C   0  0  0  0  0  0  0  0  0  0  0  0
   47.9801    2.1432    6.3865 C   0  0  0  0  0  0  0  0  0  0  0  0
   47.1879    2.3623    6.1251 C   0  0  0  0  0  0  0  0  0  0  0  0
   43.8929    4.4621   10.6516 C   0  0  0  0  0  0  0  0  0  0  0  0
   47.2685    2.5463    4.9228 O   0  0  0  0  0  0  0  0  0  0  0  0
   43.5322    5.6221   10.5576 O   0  0  0  0  0  0  0  0  0  0  0  0
   43.3920    3.6642   11.6153 O   0  0  0  0  0  0  0  0  0  0  0  0
   48.1232    1.6487    6.7790 O   0  0  0  0  0  0  0  0  0  0  0  0
   44.8803    3.7333    9.7797 C   0  0  0  0  0  0  0  0  0  0  0  0
   46.1007    2.8655    7.0312 C   0  0  0  0  0  0  0  0  0  0  0  0
   46.6123    3.9945    7.9197 C   0  0  0  0  0  0  0  0  0  0  0  0
   45.5106    4.6638    8.7440 C   0  0  0  0  0  0  0  0  0  0  0  0
   43.7277    2.6855    8.4910 H   0  0  0  0  0  0  0  0  0  0  0  0
   43.9715    4.3121    7.9004 H   0  0  0  0  0  0  0  0  0  0  0  0
   46.4372    5.0258    9.4489 H   0  0  0  0  0  0  0  0  0  0  0  0
   45.8006    5.4365   10.8912 H   0  0  0  0  0  0  0  0  0  0  0  0
   45.3033    3.1963   10.4470 H   0  0  0  0  0  0  0  0  0  0  0  0
   45.7243    1.0856    8.6950 H   0  0  0  0  0  0  0  0  0  0  0  0
   45.9424    4.8528    6.6046 H   0  0  0  0  0  0  0  0  0  0  0  0
   42.8325    3.3346   10.7037 H   0  0  0  0  0  0  0  0  0  0  0  0
   42.8532    5.0258   10.1766 H   0  0  0  0  0  0  0  0  0  0  0  0
   43.6402    4.5548   11.6943 H   0  0  0  0  0  0  0  0  0  0  0  0
   47.9616    4.0666    5.4175 H   0  0  0  0  0  0  0  0  0  0  0  0
   47.7457    0.3168    7.5027 H   0  0  0  0  0  0  0  0  0  0  0  0
   48.8689    1.8009    5.8631 H   0  0  0  0  0  0  0  0  0  0  0  0
   42.7703    4.2436   12.1040 H   0  0  0  0  0  0  0  0  0  0  0  0
   48.7574    1.3894    6.0778 H   0  0  0  0  0  0  0  0  0  0  0  0
   45.6614    3.3154   10.4244 H   0  0  0  0  0  0  0  0  0  0  0  0
   44.3476    2.9155    9.2840 H   0  0  0  0  0  0  0  0  0  0  0  0
   45.7227    2.0208    7.6167 H   0  0  0  0  0  0  0  0  0  0  0  0
   45.2738    3.2150    6.4023 H   0  0  0  0  0  0  0  0  0  0  0  0
   47.0889    4.7585    7.2922 H   0  0  0  0  0  0  0  0  0  0  0  0
   47.3959    3.6183    8.5891 H   0  0  0  0  0  0  0  0  0  0  0  0
   45.9432    5.5332    9.2555 H   0  0  0  0  0  0  0  0  0  0  0  0
   44.7343    5.0562    8.0752 H   0  0  0  0  0  0  0  0  0  0  0  0
  2  4  1  0
  3  1  1  0
  4  1  1  0
  5  3  2  0
  6  3  1  0
  7  4  1  0
  8  6  2  0
  9  5  1  0
 10  8  1  0
 10  9  2  0
 12 17  1  0
 13 11  2  0
 14 12  2  0
 15 12  1  0
 16 11  1  0
 17 20  1  0
 18 11  1  0
 19 18  1  0
 20 19  1  0
  1 21  1  0
  1 22  1  0
  2 23  1  0
  2 24  1  0
  4 25  1  1
  5 26  1  0
  6 27  1  0
  7 28  1  0
  7 29  1  0
  7 30  1  0
  8 31  1  0
  9 32  1  0
 10 33  1  0
 15 34  1  0
 16 35  1  0
 17 36  1  0
 17 37  1  0
 18 38  1  0
 18 39  1  0
 19 40  1  0
 19 41  1  0
 20 42  1  0
 20 43  1  0
M  END
> <Uni-Dock RESULT> 
ENERGY=   -8.475  LOWER_BOUND=    0.000  UPPER_BOUND=    0.000
INTER + INTRA:          -8.475
INTER:                  -8.475
INTRA:                   0.000
UNBOUND:                 0.000

$$$$

     RDKit          3D

 43 42  0  0  0  0  0  0  0  0999 V2000
   45.4798    3.4137    7.3063 C   0  0  0  0  0  0  0  0  0  0  0  0
   46.8458    1.4457    7.9969 N   0  0  0  0  0  0  0  0  0  0  0  0
   45.1189    3.9237    8.6838 C   0  0  0  0  0  0  0  0  0  0  0  0
   46.8533    2.7114    7.2523 C   0  0  1  0  0  0  0  0  0  0  0  0
   45.6791    5.1121    9.1724 C   0  0  0  0  0  0  0  0  0  0  0  0
   44.2320    3.2056    9.4973 C   0  0  0  0  0  0  0  0  0  0  0  0
   47.2456    2.4198    5.8049 C   0  0  0  0  0  0  0  0  0  0  0  0
   43.9100    3.6683   10.7738 C   0  0  0  0  0  0  0  0  0  0  0  0
   45.3553    5.5735   10.4493 C   0  0  0  0  0  0  0  0  0  0  0  0
   44.4712    4.8519   11.2493 C   0  0  0  0  0  0  0  0  0  0  0  0
   44.0101    4.7267   10.5311 C   0  0  0  0  0  0  0  0  0  0  0  0
   47.2975    2.1754    6.2371 C   0  0  0  0  0  0  0  0  0  0  0  0
   42.8413    4.7241   10.8772 O   0  0  0  0  0  0  0  0  0  0  0  0
   46.9382    1.0690    5.8744 O   0  0  0  0  0  0  0  0  0  0  0  0
   48.2449    2.8469    5.5534 O   0  0  0  0  0  0  0  0  0  0  0  0
   44.9610    5.2702   11.3136 O   0  0  0  0  0  0  0  0  0  0  0  0
   46.7947    2.9639    7.4168 C   0  0  0  0  0  0  0  0  0  0  0  0
   44.5608    4.1618    9.2530 C   0  0  0  0  0  0  0  0  0  0  0  0
   45.3430    2.8796    9.5175 C   0  0  0  0  0  0  0  0  0  0  0  0
   45.7846    2.1643    8.2390 C   0  0  0  0  0  0  0  0  0  0  0  0
   45.4736    4.2686    6.6167 H   0  0  0  0  0  0  0  0  0  0  0  0
   44.6930    2.7392    6.9420 H   0  0  0  0  0  0  0  0  0  0  0  0
   46.6067    1.6399    8.9710 H   0  0  0  0  0  0  0  0  0  0  0  0
   47.7870    1.0551    8.0124 H   0  0  0  0  0  0  0  0  0  0  0  0
   47.6171    3.3641    7.6924 H   0  0  0  0  0  0  0  0  0  0  0  0
   46.3697    5.6866    8.5595 H   0  0  0  0  0  0  0  0  0  0  0  0
   43.7906    2.2775    9.1394 H   0  0  0  0  0  0  0  0  0  0  0  0
   47.2993    3.3474    5.2248 H   0  0  0  0  0  0  0  0  0  0  0  0
   46.5202    1.7590    5.3167 H   0  0  0  0  0  0  0  0  0  0  0  0
   48.2297    1.9406    5.7519 H   0  0  0  0  0  0  0  0  0  0  0  0
   43.2205    3.1046   11.3967 H   0  0  0  0  0  0  0  0  0  0  0  0
   45.7921    6.4972   10.8195 H   0  0  0  0  0  0  0  0  0  0  0  0
   44.2188    5.2123   12.2430 H   0  0  0  0  0  0  0  0  0  0  0  0
   48.4838    2.2407    4.8209 H   0  0  0  0  0  0  0  0  0  0  0  0
   44.4681    5.5925   12.0974 H   0  0  0  0  0  0  0  0  0  0  0  0
   47.6545    3.2271    8.0427 H   0  0  0  0  0  0  0  0  0  0  0  0
   46.3347    3.8805    7.0338 H   0  0  0  0  0  0  0  0  0  0  0  0
   45.1792    4.9295    8.7761 H   0  0  0  0  0  0  0  0  0  0  0  0
   43.7173    3.9666    8.5807 H   0  0  0  0  0  0  0  0  0  0  0  0
   44.7190    2.1915   10.1022 H   0  0  0  0  0  0  0  0  0  0  0  0
   46.2203    3.0977   10.1391 H   0  0  0  0  0  0  0  0  0  0  0  0
   46.2293    1.2009    8.5195 H   0  0  0  0  0  0  0  0  0  0  0  0
   44.9068    1.9296    7.6239 H   0  0  0  0  0  0  0  0  0  0  0  0
  2  4  1  0
  3  1  1  0
  4  1  1  0
  5  3  2  0
  6  3  1  0
  7  4  1  0
  8  6  2  0
  9  5  1  0
 10  8  1  0
 10  9  2  0
 12 17  1  0
 13 11  2  0
 14 12  2  0
 15 12  1  0
 16 11  1  0
 17 20  1  0
 18 11  1  0
 19 18  1  0
 20 19  1  0
  1 21  1  0
  1 22  1  0
  2 23  1  0
  2 24  1  0
  4 25  1  1
  5 26  1  0
  6 27  1  0
  7 28  1  0
  7 29  1  0
  7 30  1  0
  8 31  1  0
  9 32  1  0
 10 33  1  0
 15 34  1  0
 16 35  1  0
 17 36  1  0
 17 37  1  0
 18 38  1  0
 18 39  1  0
 19 40  1  0
 19 41  1  0
 20 42  1  0
 20 43  1  0
M  END
> <Uni-Dock RESULT> 
ENERGY=   -7.526  LOWER_BOUND=    1.378  UPPER_BOUND=    5.167
INTER + INTRA:          -7.526
INTER:                  -7.526
INTRA:                   0.000
UNBOUND:                 0.000

$$$$

     RDKit          3D

 43 42  0  0  0  0  0  0  0  0999 V2000
   45.9246    3.6462    9.2496 C   0  0  0  0  0  0  0  0  0  0  0  0
   43.8490    2.2706    9.3741 N   0  0  0  0  0  0  0  0  0  0  0  0
   46.4365    3.1495    7.9158 C   0  0  0  0  0  0  0  0  0  0  0  0
   44.3849    3.6377    9.3577 C   0  0  1  0  0  0  0  0  0  0  0  0
   46.4123    3.9826    6.7888 C   0  0  0  0  0  0  0  0  0  0  0  0
   46.9266    1.8430    7.7849 C   0  0  0  0  0  0  0  0  0  0  0  0
   43.9368    4.3492   10.6332 C   0  0  0  0  0  0  0  0  0  0  0  0
   47.3856    1.3797    6.5512 C   0  0  0  0  0  0  0  0  0  0  0  0
   46.8724    3.5175    5.5558 C   0  0  0  0  0  0  0  0  0  0  0  0
   47.3587    2.2167    5.4374 C   0  0  0  0  0  0  0  0  0  0  0  0
   47.7405    2.3490    6.1995 C   0  0  0  0  0  0  0  0  0  0  0  0
   43.7789    3.9467   10.3837 C   0  0  0  0  0  0  0  0  0  0  0  0
   48.7946    1.7380    6.1589 O   0  0  0  0  0  0  0  0  0  0  0  0
   43.6521    3.1789   11.3213 O   0  0  0  0  0  0  0  0  0  0  0  0
   43.2116    5.1687   10.4166 O   0  0  0  0  0  0  0  0  0  0  0  0
   47.0865    2.6740    5.0688 O   0  0  0  0  0  0  0  0  0  0  0  0
   44.5399    3.7178    9.1051 C   0  0  0  0  0  0  0  0  0  0  0  0
   47.0312    2.8181    7.4376 C   0  0  0  0  0  0  0  0  0  0  0  0
   45.7807    1.9844    7.6968 C   0  0  0  0  0  0  0  0  0  0  0  0
   45.1078    2.3007    9.0341 C   0  0  0  0  0  0  0  0  0  0  0  0
   46.3006    4.6676    9.3971 H   0  0  0  0  0  0  0  0  0  0  0  0
   46.3662    3.0525   10.0615 H   0  0  0  0  0  0  0  0  0  0  0  0
   44.1270    1.7992    8.5115 H   0  0  0  0  0  0  0  0  0  0  0  0
   42.8305    2.3047    9.3586 H   0  0  0  0  0  0  0  0  0  0  0  0
   43.9534    4.1653    8.4982 H   0  0  0  0  0  0  0  0  0  0  0  0
   46.0367    5.0002    6.8659 H   0  0  0  0  0  0  0  0  0  0  0  0
   46.9486    1.1781    8.6460 H   0  0  0  0  0  0  0  0  0  0  0  0
   44.2864    5.3872   10.6397 H   0  0  0  0  0  0  0  0  0  0  0  0
   44.3309    3.8556   11.5289 H   0  0  0  0  0  0  0  0  0  0  0  0
   42.8439    4.3691   10.7106 H   0  0  0  0  0  0  0  0  0  0  0  0
   47.7646    0.3652    6.4602 H   0  0  0  0  0  0  0  0  0  0  0  0
   46.8525    4.1707    4.6876 H   0  0  0  0  0  0  0  0  0  0  0  0
   47.7177    1.8556    4.4773 H   0  0  0  0  0  0  0  0  0  0  0  0
   42.7571    5.1963   11.2848 H   0  0  0  0  0  0  0  0  0  0  0  0
   47.6525    2.3123    4.3547 H   0  0  0  0  0  0  0  0  0  0  0  0
   43.8551    3.8836    8.2661 H   0  0  0  0  0  0  0  0  0  0  0  0
   45.3476    4.4553    9.0611 H   0  0  0  0  0  0  0  0  0  0  0  0
   46.7988    3.8815    7.3186 H   0  0  0  0  0  0  0  0  0  0  0  0
   47.7304    2.7349    8.2776 H   0  0  0  0  0  0  0  0  0  0  0  0
   46.0491    0.9202    7.6865 H   0  0  0  0  0  0  0  0  0  0  0  0
   45.0613    2.1247    6.8804 H   0  0  0  0  0  0  0  0  0  0  0  0
   44.2965    1.5783    9.1908 H   0  0  0  0  0  0  0  0  0  0  0  0
   45.8206    2.1441    9.8535 H   0  0  0  0  0  0  0  0  0  0  0  0
  2  4  1  0
  3  1  1  0
  4  1  1  0
  5  3  2  0
  6  3  1  0
  7  4  1  0
  8  6  2  0
  9  5  1  0
 10  8  1  0
 10  9  2  0
 12 17  1  0
 13 11  2  0
 14 12  2  0
 15 12  1  0
 16 11  1  0
 17 20  1  0
 18 11  1  0
 19 18  1  0
 20 19  1  0
  1 21  1  0
  1 22  1  0
  2 23  1  0
  2 24  1  0
  4 25  1  1
  5 26  1  0
  6 27  1  0
  7 28  1  0
  7 29  1  0
  7 30  1  0
  8 31  1  0
  9 32  1  0
 10 33  1  0
 15 34  1  0
 16 35  1  0
 17 36  1  0
 17 37  1  0
 18 38  1  0
 18 39  1  0
 19 40  1  0
 19 41  1  0
 20 42  1  0
 20 43  1  0
M  END
> <Uni-Dock RESULT> 
ENERGY=   -5.552  LOWER_BOUND=    1.066  UPPER_BOUND=    1.929
INTER + INTRA:          -5.552
INTER:                  -5.552
INTRA:                   0.000
UNBOUND:                 0.000

$$$$
