
     RDKit          3D

 35 34  0  0  0  0  0  0  0  0999 V2000
    0.0000    0.0000    0.0000 Ca  0  0  0  0  0 15  0  0  0  0  0  0
   -1.9972   -1.0510   -0.9401 S   0  0  0  0  0  0  0  0  0  0  0  0
   -0.5485   -0.2167   -0.2704 C   0  0  0  0  0  0  0  0  0  0  0  0
    0.3955   -1.0112    0.3927 C   0  0  0  0  0  0  0  0  0  0  0  0
   -2.5999   -1.6341    0.2534 O   0  0  0  0  0  0  0  0  0  0  0  0
   -1.4050   -1.9956   -1.8808 O   0  0  0  0  0  0  0  0  0  0  0  0
   -2.7445    0.0532   -1.5456 O   0  0  0  0  0  0  0  0  0  0  0  0
   -0.3577    1.1613   -0.3970 C   0  0  0  0  0  0  0  0  0  0  0  0
    0.7863    1.7484    0.1441 C   0  0  0  0  0  0  0  0  0  0  0  0
    1.5291   -0.4100    0.9255 C   0  0  0  0  0  0  0  0  0  0  0  0
    1.7322    0.9616    0.8069 C   0  0  0  0  0  0  0  0  0  0  0  0
   -1.2297    2.0059   -1.0282 O   0  0  0  0  0  0  0  0  0  0  0  0
    2.4745   -1.1459    1.5795 O   0  0  0  0  0  0  0  0  0  0  0  0
    2.3433   -0.6453   -0.2641 S   0  0  0  0  0  0  0  0  0  0  0  0
    0.6348   -0.1055   -0.0824 C   0  0  0  0  0  0  0  0  0  0  0  0
   -0.3160   -1.0885    0.2198 C   0  0  0  0  0  0  0  0  0  0  0  0
    2.2537   -1.5954   -1.3673 O   0  0  0  0  0  0  0  0  0  0  0  0
    2.6299   -1.2171    1.0469 O   0  0  0  0  0  0  0  0  0  0  0  0
    3.0385    0.6070   -0.5686 O   0  0  0  0  0  0  0  0  0  0  0  0
    0.2560    1.2306   -0.2327 C   0  0  0  0  0  0  0  0  0  0  0  0
   -1.0845    1.5854   -0.0794 C   0  0  0  0  0  0  0  0  0  0  0  0
   -1.6467   -0.7176    0.3691 C   0  0  0  0  0  0  0  0  0  0  0  0
   -2.0384    0.6096    0.2222 C   0  0  0  0  0  0  0  0  0  0  0  0
    1.1209    2.2492   -0.5271 O   0  0  0  0  0  0  0  0  0  0  0  0
   -2.6063   -1.6426    0.6635 O   0  0  0  0  0  0  0  0  0  0  0  0
    0.2145   -2.0792    0.4722 H   0  0  0  0  0  0  0  0  0  0  0  0
    0.9371    2.8191    0.0472 H   0  0  0  0  0  0  0  0  0  0  0  0
    2.6221    1.4180    1.2279 H   0  0  0  0  0  0  0  0  0  0  0  0
   -1.9840    1.4474   -1.3559 H   0  0  0  0  0  0  0  0  0  0  0  0
    2.1753   -2.0713    1.5686 H   0  0  0  0  0  0  0  0  0  0  0  0
    0.0143   -2.1173    0.3295 H   0  0  0  0  0  0  0  0  0  0  0  0
   -1.3818    2.6231   -0.1956 H   0  0  0  0  0  0  0  0  0  0  0  0
   -3.0812    0.8853    0.3415 H   0  0  0  0  0  0  0  0  0  0  0  0
    2.0255    1.8443   -0.6046 H   0  0  0  0  0  0  0  0  0  0  0  0
   -2.1620   -2.5052    0.7294 H   0  0  0  0  0  0  0  0  0  0  0  0
  3  2  1  0
  4  3  2  0
  5  2  1  0
  6  2  2  0
  7  2  2  0
  8  3  1  0
  9  8  2  0
 10  4  1  0
 11  9  1  0
 12  8  1  0
 13 10  1  0
 10 11  2  0
 15 14  1  0
 16 15  2  0
 17 14  1  0
 18 14  2  0
 19 14  2  0
 20 15  1  0
 21 20  2  0
 22 16  1  0
 23 21  1  0
 24 20  1  0
 25 22  1  0
 22 23  2  0
  4 26  1  0
  9 27  1  0
 11 28  1  0
 12 29  1  0
 13 30  1  0
 16 31  1  0
 21 32  1  0
 23 33  1  0
 24 34  1  0
 25 35  1  0
M  CHG  3   1   2   5  -1  17  -1
M  END
$$$$
