
     RDKit          3D

 35 34  0  0  0  0  0  0  0  0999 V2000
    0.0000    0.0000    0.0000 Ca  0  0  0  0  0 15  0  0  0  0  0  0
    2.0622   -0.6837    1.1213 S   0  0  0  0  0  0  0  0  0  0  0  0
    0.5452   -0.1215    0.3300 C   0  0  0  0  0  0  0  0  0  0  0  0
   -0.0506   -0.9881   -0.5952 C   0  0  0  0  0  0  0  0  0  0  0  0
    2.3945    0.4403    1.9992 O   0  0  0  0  0  0  0  0  0  0  0  0
    2.9547   -0.8737   -0.0167 O   0  0  0  0  0  0  0  0  0  0  0  0
    1.6271   -1.8997    1.7993 O   0  0  0  0  0  0  0  0  0  0  0  0
   -0.0266    1.1210    0.6139 C   0  0  0  0  0  0  0  0  0  0  0  0
   -1.2034    1.4988   -0.0329 C   0  0  0  0  0  0  0  0  0  0  0  0
   -1.2224   -0.5958   -1.2302 C   0  0  0  0  0  0  0  0  0  0  0  0
   -1.8032    0.6391   -0.9572 C   0  0  0  0  0  0  0  0  0  0  0  0
    0.4913    2.0235    1.5024 O   0  0  0  0  0  0  0  0  0  0  0  0
   -1.8368   -1.4086   -2.1385 O   0  0  0  0  0  0  0  0  0  0  0  0
   -2.0196   -0.6188    1.2312 S   0  0  0  0  0  0  0  0  0  0  0  0
   -0.5476   -0.0974    0.3340 C   0  0  0  0  0  0  0  0  0  0  0  0
    0.2810   -1.1064   -0.1733 C   0  0  0  0  0  0  0  0  0  0  0  0
   -2.6292    0.6590    1.6053 O   0  0  0  0  0  0  0  0  0  0  0  0
   -1.4552   -1.3893    2.3337 O   0  0  0  0  0  0  0  0  0  0  0  0
   -2.7430   -1.3857    0.2231 O   0  0  0  0  0  0  0  0  0  0  0  0
   -0.2301    1.2493    0.1425 C   0  0  0  0  0  0  0  0  0  0  0  0
    0.9252    1.5888   -0.5618 C   0  0  0  0  0  0  0  0  0  0  0  0
    1.4277   -0.7505   -0.8724 C   0  0  0  0  0  0  0  0  0  0  0  0
    1.7565    0.5871   -1.0707 C   0  0  0  0  0  0  0  0  0  0  0  0
   -0.9847    2.2930    0.6047 O   0  0  0  0  0  0  0  0  0  0  0  0
    2.2635   -1.7008   -1.3839 O   0  0  0  0  0  0  0  0  0  0  0  0
    0.4216   -1.9463   -0.7913 H   0  0  0  0  0  0  0  0  0  0  0  0
   -1.6501    2.4639    0.1858 H   0  0  0  0  0  0  0  0  0  0  0  0
   -2.7187    0.9327   -1.4605 H   0  0  0  0  0  0  0  0  0  0  0  0
    1.3176    1.6164    1.8764 H   0  0  0  0  0  0  0  0  0  0  0  0
   -1.3025   -2.2185   -2.2055 H   0  0  0  0  0  0  0  0  0  0  0  0
    0.0031   -2.1429   -0.0056 H   0  0  0  0  0  0  0  0  0  0  0  0
    1.1745    2.6347   -0.7121 H   0  0  0  0  0  0  0  0  0  0  0  0
    2.6552    0.8508   -1.6186 H   0  0  0  0  0  0  0  0  0  0  0  0
   -1.7632    1.8964    1.0790 H   0  0  0  0  0  0  0  0  0  0  0  0
    1.8860   -2.5674   -1.1551 H   0  0  0  0  0  0  0  0  0  0  0  0
  3  2  1  0
  4  3  2  0
  5  2  1  0
  6  2  2  0
  7  2  2  0
  8  3  1  0
  9  8  2  0
 10  4  1  0
 11  9  1  0
 12  8  1  0
 13 10  1  0
 10 11  2  0
 15 14  1  0
 16 15  2  0
 17 14  1  0
 18 14  2  0
 19 14  2  0
 20 15  1  0
 21 20  2  0
 22 16  1  0
 23 21  1  0
 24 20  1  0
 25 22  1  0
 22 23  2  0
  4 26  1  0
  9 27  1  0
 11 28  1  0
 12 29  1  0
 13 30  1  0
 16 31  1  0
 21 32  1  0
 23 33  1  0
 24 34  1  0
 25 35  1  0
M  CHG  3   1   2   5  -1  17  -1
M  END
$$$$
