
     RDKit          3D

 35 34  0  0  0  0  0  0  0  0999 V2000
    0.0000    0.0000    0.0000 Ca  0  0  0  0  0 15  0  0  0  0  0  0
    2.4683   -0.1991    0.5441 S   0  0  0  0  0  0  0  0  0  0  0  0
    0.7155   -0.0318    0.1619 C   0  0  0  0  0  0  0  0  0  0  0  0
    0.0147   -1.1929   -0.1885 C   0  0  0  0  0  0  0  0  0  0  0  0
    2.8529    1.1803    0.8557 O   0  0  0  0  0  0  0  0  0  0  0  0
    2.4596   -1.1113    1.6820 O   0  0  0  0  0  0  0  0  0  0  0  0
    3.0156   -0.7281   -0.7000 O   0  0  0  0  0  0  0  0  0  0  0  0
    0.0634    1.2033    0.2084 C   0  0  0  0  0  0  0  0  0  0  0  0
   -1.2956    1.2769   -0.0970 C   0  0  0  0  0  0  0  0  0  0  0  0
   -1.3379   -1.1034   -0.4898 C   0  0  0  0  0  0  0  0  0  0  0  0
   -2.0008    0.1226   -0.4473 C   0  0  0  0  0  0  0  0  0  0  0  0
    0.6679    2.3857    0.5397 O   0  0  0  0  0  0  0  0  0  0  0  0
   -1.9991   -2.2485   -0.8283 O   0  0  0  0  0  0  0  0  0  0  0  0
    2.2811    0.0472    0.8784 S   0  0  0  0  0  0  0  0  0  0  0  0
    0.5916    0.0755    0.2554 C   0  0  0  0  0  0  0  0  0  0  0  0
    0.1393   -1.0689   -0.4137 C   0  0  0  0  0  0  0  0  0  0  0  0
    2.2531   -1.0811    1.8024 O   0  0  0  0  0  0  0  0  0  0  0  0
    3.0588   -0.1469   -0.3403 O   0  0  0  0  0  0  0  0  0  0  0  0
    2.4089    1.3662    1.5015 O   0  0  0  0  0  0  0  0  0  0  0  0
   -0.2454    1.1812    0.4227 C   0  0  0  0  0  0  0  0  0  0  0  0
   -1.5449    1.1412   -0.0834 C   0  0  0  0  0  0  0  0  0  0  0  0
   -1.1578   -1.0917   -0.9113 C   0  0  0  0  0  0  0  0  0  0  0  0
   -2.0027    0.0025   -0.7520 C   0  0  0  0  0  0  0  0  0  0  0  0
    0.1187    2.3345    1.0625 O   0  0  0  0  0  0  0  0  0  0  0  0
   -1.6398   -2.1859   -1.5697 O   0  0  0  0  0  0  0  0  0  0  0  0
    0.5345   -2.1465   -0.2206 H   0  0  0  0  0  0  0  0  0  0  0  0
   -1.7996    2.2380   -0.0600 H   0  0  0  0  0  0  0  0  0  0  0  0
   -3.0567    0.2010   -0.6811 H   0  0  0  0  0  0  0  0  0  0  0  0
    1.6216    2.1756    0.7285 H   0  0  0  0  0  0  0  0  0  0  0  0
   -2.9243   -2.0219   -1.0078 H   0  0  0  0  0  0  0  0  0  0  0  0
    0.8173   -1.9099   -0.5254 H   0  0  0  0  0  0  0  0  0  0  0  0
   -2.1976    1.9991    0.0452 H   0  0  0  0  0  0  0  0  0  0  0  0
   -3.0134   -0.0289   -1.1457 H   0  0  0  0  0  0  0  0  0  0  0  0
    1.0586    2.2120    1.3625 H   0  0  0  0  0  0  0  0  0  0  0  0
   -0.9259   -2.8461   -1.5891 H   0  0  0  0  0  0  0  0  0  0  0  0
  3  2  1  0
  4  3  2  0
  5  2  1  0
  6  2  2  0
  7  2  2  0
  8  3  1  0
  9  8  2  0
 10  4  1  0
 11  9  1  0
 12  8  1  0
 13 10  1  0
 10 11  2  0
 15 14  1  0
 16 15  2  0
 17 14  1  0
 18 14  2  0
 19 14  2  0
 20 15  1  0
 21 20  2  0
 22 16  1  0
 23 21  1  0
 24 20  1  0
 25 22  1  0
 22 23  2  0
  4 26  1  0
  9 27  1  0
 11 28  1  0
 12 29  1  0
 13 30  1  0
 16 31  1  0
 21 32  1  0
 23 33  1  0
 24 34  1  0
 25 35  1  0
M  CHG  3   1   2   5  -1  17  -1
M  END
$$$$
