
     RDKit          3D

 25 24  0  0  0  0  0  0  0  0999 V2000
    0.0000    0.0000    0.0000 Ca  0  0  0  0  0 15  0  0  0  0  0  0
    1.9112    0.2747   -0.4119 S   0  0  0  0  0  0  0  0  0  0  0  0
    0.2034    0.0492   -0.0772 C   0  0  0  0  0  0  0  0  0  0  0  0
   -0.7449    0.9948   -0.4229 C   0  0  0  0  0  0  0  0  0  0  0  0
    2.7271    0.2416    1.0576 O   0  0  0  0  0  0  0  0  0  0  0  0
    2.0745    1.6617   -0.9702 O   0  0  0  0  0  0  0  0  0  0  0  0
    2.4212   -0.7793   -1.3515 O   0  0  0  0  0  0  0  0  0  0  0  0
   -0.1919   -1.1317    0.5605 C   0  0  0  0  0  0  0  0  0  0  0  0
   -1.5404   -1.3612    0.8504 C   0  0  0  0  0  0  0  0  0  0  0  0
   -2.1008    0.7897   -0.1442 C   0  0  0  0  0  0  0  0  0  0  0  0
   -2.4761   -0.3986    0.4946 C   0  0  0  0  0  0  0  0  0  0  0  0
    0.7665   -2.0885    0.9105 O   0  0  0  0  0  0  0  0  0  0  0  0
   -3.0498    1.7475   -0.4958 O   0  0  0  0  0  0  0  0  0  0  0  0
   -1.4649   -0.2118    1.3015 S   0  0  0  0  0  0  0  0  0  0  0  0
   -0.1734   -0.0113    0.1338 C   0  0  0  0  0  0  0  0  0  0  0  0
    0.6288   -1.0719   -0.2321 C   0  0  0  0  0  0  0  0  0  0  0  0
   -1.5559   -1.7855    1.8568 O   0  0  0  0  0  0  0  0  0  0  0  0
   -2.7835    0.2708    0.7672 O   0  0  0  0  0  0  0  0  0  0  0  0
   -1.1139    0.7112    2.4576 O   0  0  0  0  0  0  0  0  0  0  0  0
    0.0880    1.2171   -0.4628 C   0  0  0  0  0  0  0  0  0  0  0  0
    1.1134    1.3705   -1.3881 C   0  0  0  0  0  0  0  0  0  0  0  0
    1.6570   -0.9652   -1.1457 C   0  0  0  0  0  0  0  0  0  0  0  0
    1.9096    0.2773   -1.7390 C   0  0  0  0  0  0  0  0  0  0  0  0
   -0.7250    2.2840   -0.0895 O   0  0  0  0  0  0  0  0  0  0  0  0
    2.4199   -2.0853   -1.4599 O   0  0  0  0  0  0  0  0  0  0  0  0
  3  2  1  0
  4  3  2  0
  5  2  1  0
  6  2  2  0
  7  2  2  0
  8  3  1  0
  9  8  2  0
 10  4  1  0
 11  9  1  0
 12  8  1  0
 13 10  1  0
 10 11  2  0
 15 14  1  0
 16 15  2  0
 17 14  1  0
 18 14  2  0
 19 14  2  0
 20 15  1  0
 21 20  2  0
 22 16  1  0
 23 21  1  0
 24 20  1  0
 25 22  1  0
 22 23  2  0
M  CHG  3   1   2   5  -1  17  -1
M  END
