
     RDKit          3D

 35 34  0  0  0  0  0  0  0  0999 V2000
    0.0000    0.0000    0.0000 Ca  0  0  0  0  0 15  0  0  0  0  0  0
   -2.3278    0.4026   -0.5069 S   0  0  0  0  0  0  0  0  0  0  0  0
   -0.6202    0.0413   -0.0632 C   0  0  0  0  0  0  0  0  0  0  0  0
    0.1370    1.0932    0.4680 C   0  0  0  0  0  0  0  0  0  0  0  0
   -2.1736    1.4502   -1.5102 O   0  0  0  0  0  0  0  0  0  0  0  0
   -2.8987    0.8214    0.7685 O   0  0  0  0  0  0  0  0  0  0  0  0
   -2.8010   -0.8873   -1.0134 O   0  0  0  0  0  0  0  0  0  0  0  0
   -0.0584   -1.2261   -0.2342 C   0  0  0  0  0  0  0  0  0  0  0  0
    1.2710   -1.4423    0.1291 C   0  0  0  0  0  0  0  0  0  0  0  0
    1.4595    0.8603    0.8245 C   0  0  0  0  0  0  0  0  0  0  0  0
    2.0322   -0.3973    0.6597 C   0  0  0  0  0  0  0  0  0  0  0  0
   -0.7284   -2.3042   -0.7450 O   0  0  0  0  0  0  0  0  0  0  0  0
    2.2338    1.8562    1.3458 O   0  0  0  0  0  0  0  0  0  0  0  0
    2.2516   -0.0909    0.9483 S   0  0  0  0  0  0  0  0  0  0  0  0
    0.5915    0.0429    0.2630 C   0  0  0  0  0  0  0  0  0  0  0  0
    0.0089   -1.1312   -0.2309 C   0  0  0  0  0  0  0  0  0  0  0  0
    2.0621   -1.0400    2.0397 O   0  0  0  0  0  0  0  0  0  0  0  0
    2.5357    1.2866    1.3562 O   0  0  0  0  0  0  0  0  0  0  0  0
    3.0206   -0.5769   -0.1919 O   0  0  0  0  0  0  0  0  0  0  0  0
   -0.1000    1.2557    0.2176 C   0  0  0  0  0  0  0  0  0  0  0  0
   -1.3841    1.2937   -0.3261 C   0  0  0  0  0  0  0  0  0  0  0  0
   -1.2708   -1.0753   -0.7691 C   0  0  0  0  0  0  0  0  0  0  0  0
   -1.9715    0.1260   -0.8207 C   0  0  0  0  0  0  0  0  0  0  0  0
    0.3969    2.4446    0.6778 O   0  0  0  0  0  0  0  0  0  0  0  0
   -1.8767   -2.1948   -1.2617 O   0  0  0  0  0  0  0  0  0  0  0  0
   -0.3323    2.0654    0.5870 H   0  0  0  0  0  0  0  0  0  0  0  0
    1.7102   -2.4264   -0.0027 H   0  0  0  0  0  0  0  0  0  0  0  0
    3.0664   -0.5652    0.9424 H   0  0  0  0  0  0  0  0  0  0  0  0
   -1.6506   -1.9968   -0.9535 H   0  0  0  0  0  0  0  0  0  0  0  0
    1.6810    2.6552    1.3904 H   0  0  0  0  0  0  0  0  0  0  0  0
    0.5756   -2.0563   -0.1795 H   0  0  0  0  0  0  0  0  0  0  0  0
   -1.9239    2.2349   -0.3626 H   0  0  0  0  0  0  0  0  0  0  0  0
   -2.9704    0.1553   -1.2437 H   0  0  0  0  0  0  0  0  0  0  0  0
    1.3076    2.2580    1.0303 H   0  0  0  0  0  0  0  0  0  0  0  0
   -1.2530   -2.9322   -1.1468 H   0  0  0  0  0  0  0  0  0  0  0  0
  3  2  1  0
  4  3  2  0
  5  2  1  0
  6  2  2  0
  7  2  2  0
  8  3  1  0
  9  8  2  0
 10  4  1  0
 11  9  1  0
 12  8  1  0
 13 10  1  0
 10 11  2  0
 15 14  1  0
 16 15  2  0
 17 14  1  0
 18 14  2  0
 19 14  2  0
 20 15  1  0
 21 20  2  0
 22 16  1  0
 23 21  1  0
 24 20  1  0
 25 22  1  0
 22 23  2  0
  4 26  1  0
  9 27  1  0
 11 28  1  0
 12 29  1  0
 13 30  1  0
 16 31  1  0
 21 32  1  0
 23 33  1  0
 24 34  1  0
 25 35  1  0
M  CHG  3   1   2   5  -1  17  -1
M  END
$$$$
