
     RDKit          3D

 35 34  0  0  0  0  0  0  0  0999 V2000
    0.0000    0.0000    0.0000 Ca  0  0  0  0  0 15  0  0  0  0  0  0
   -2.0296   -0.8325    1.2711 S   0  0  0  0  0  0  0  0  0  0  0  0
   -0.5907   -0.2171    0.3782 C   0  0  0  0  0  0  0  0  0  0  0  0
    0.0997   -1.1204   -0.4398 C   0  0  0  0  0  0  0  0  0  0  0  0
   -1.4605   -1.8876    2.1018 O   0  0  0  0  0  0  0  0  0  0  0  0
   -2.9104   -1.2673    0.1931 O   0  0  0  0  0  0  0  0  0  0  0  0
   -2.4782    0.3579    1.9987 O   0  0  0  0  0  0  0  0  0  0  0  0
   -0.1656    1.1098    0.4863 C   0  0  0  0  0  0  0  0  0  0  0  0
    0.9553    1.5343   -0.2271 C   0  0  0  0  0  0  0  0  0  0  0  0
    1.2138   -0.6825   -1.1438 C   0  0  0  0  0  0  0  0  0  0  0  0
    1.6489    0.6385   -1.0450 C   0  0  0  0  0  0  0  0  0  0  0  0
   -0.7781    2.0582    1.2598 O   0  0  0  0  0  0  0  0  0  0  0  0
    1.8699   -1.5813   -1.9341 O   0  0  0  0  0  0  0  0  0  0  0  0
   -2.4406   -0.2643   -0.6338 S   0  0  0  0  0  0  0  0  0  0  0  0
   -0.7079   -0.0507   -0.1882 C   0  0  0  0  0  0  0  0  0  0  0  0
    0.0066   -1.1909    0.2010 C   0  0  0  0  0  0  0  0  0  0  0  0
   -2.3674   -1.1875   -1.7604 O   0  0  0  0  0  0  0  0  0  0  0  0
   -3.0216   -0.7937    0.5947 O   0  0  0  0  0  0  0  0  0  0  0  0
   -2.8460    1.1021   -0.9749 O   0  0  0  0  0  0  0  0  0  0  0  0
   -0.0842    1.1993   -0.2239 C   0  0  0  0  0  0  0  0  0  0  0  0
    1.2602    1.3088    0.1312 C   0  0  0  0  0  0  0  0  0  0  0  0
    1.3444   -1.0656    0.5517 C   0  0  0  0  0  0  0  0  0  0  0  0
    1.9791    0.1755    0.5204 C   0  0  0  0  0  0  0  0  0  0  0  0
   -0.7037    2.3632   -0.5907 O   0  0  0  0  0  0  0  0  0  0  0  0
    2.0194   -2.1909    0.9273 O   0  0  0  0  0  0  0  0  0  0  0  0
   -0.2421   -2.1491   -0.5144 H   0  0  0  0  0  0  0  0  0  0  0  0
    1.2833    2.5659   -0.1411 H   0  0  0  0  0  0  0  0  0  0  0  0
    2.5177    0.9883   -1.5913 H   0  0  0  0  0  0  0  0  0  0  0  0
   -1.5498    1.6119    1.7009 H   0  0  0  0  0  0  0  0  0  0  0  0
    2.6165   -1.1270   -2.3536 H   0  0  0  0  0  0  0  0  0  0  0  0
   -0.4912   -2.1565    0.2242 H   0  0  0  0  0  0  0  0  0  0  0  0
    1.7422    2.2814    0.1025 H   0  0  0  0  0  0  0  0  0  0  0  0
    3.0233    0.2819    0.7927 H   0  0  0  0  0  0  0  0  0  0  0  0
   -1.6443    2.1282   -0.8126 H   0  0  0  0  0  0  0  0  0  0  0  0
    2.9316   -1.9402    1.1388 H   0  0  0  0  0  0  0  0  0  0  0  0
  3  2  1  0
  4  3  2  0
  5  2  1  0
  6  2  2  0
  7  2  2  0
  8  3  1  0
  9  8  2  0
 10  4  1  0
 11  9  1  0
 12  8  1  0
 13 10  1  0
 10 11  2  0
 15 14  1  0
 16 15  2  0
 17 14  1  0
 18 14  2  0
 19 14  2  0
 20 15  1  0
 21 20  2  0
 22 16  1  0
 23 21  1  0
 24 20  1  0
 25 22  1  0
 22 23  2  0
  4 26  1  0
  9 27  1  0
 11 28  1  0
 12 29  1  0
 13 30  1  0
 16 31  1  0
 21 32  1  0
 23 33  1  0
 24 34  1  0
 25 35  1  0
M  CHG  3   1   2   5  -1  17  -1
M  END
$$$$
