
     RDKit          3D

 35 34  0  0  0  0  0  0  0  0999 V2000
    0.0000    0.0000    0.0000 Ca  0  0  0  0  0 15  0  0  0  0  0  0
   -2.1909   -0.1776   -1.0705 S   0  0  0  0  0  0  0  0  0  0  0  0
   -0.5737    0.0181   -0.3024 C   0  0  0  0  0  0  0  0  0  0  0  0
   -0.0404   -1.0981    0.3546 C   0  0  0  0  0  0  0  0  0  0  0  0
   -3.0353   -0.5260    0.0667 O   0  0  0  0  0  0  0  0  0  0  0  0
   -2.4283    1.1478   -1.6462 O   0  0  0  0  0  0  0  0  0  0  0  0
   -1.9499   -1.2447   -2.0353 O   0  0  0  0  0  0  0  0  0  0  0  0
    0.1324    1.2225   -0.3496 C   0  0  0  0  0  0  0  0  0  0  0  0
    1.3815    1.3103    0.2653 C   0  0  0  0  0  0  0  0  0  0  0  0
    1.2050   -0.9930    0.9617 C   0  0  0  0  0  0  0  0  0  0  0  0
    1.9196    0.2005    0.9226 C   0  0  0  0  0  0  0  0  0  0  0  0
   -0.3172    2.3564   -0.9694 O   0  0  0  0  0  0  0  0  0  0  0  0
    1.7624   -2.0553    1.6127 O   0  0  0  0  0  0  0  0  0  0  0  0
   -2.3274   -0.7465   -0.0577 S   0  0  0  0  0  0  0  0  0  0  0  0
   -0.6343   -0.1361    0.0077 C   0  0  0  0  0  0  0  0  0  0  0  0
    0.3781   -1.0200   -0.3870 C   0  0  0  0  0  0  0  0  0  0  0  0
   -3.0966    0.4084    0.4101 O   0  0  0  0  0  0  0  0  0  0  0  0
   -2.4860   -1.0731   -1.4705 O   0  0  0  0  0  0  0  0  0  0  0  0
   -2.2843   -1.8817    0.8573 O   0  0  0  0  0  0  0  0  0  0  0  0
   -0.3253    1.1588    0.4307 C   0  0  0  0  0  0  0  0  0  0  0  0
    1.0068    1.5721    0.4589 C   0  0  0  0  0  0  0  0  0  0  0  0
    1.6994   -0.5918   -0.3528 C   0  0  0  0  0  0  0  0  0  0  0  0
    2.0219    0.6954    0.0664 C   0  0  0  0  0  0  0  0  0  0  0  0
   -1.2529    2.0813    0.8315 O   0  0  0  0  0  0  0  0  0  0  0  0
    2.7175   -1.4198   -0.7285 O   0  0  0  0  0  0  0  0  0  0  0  0
   -0.6171   -2.0182    0.3714 H   0  0  0  0  0  0  0  0  0  0  0  0
    1.9325    2.2451    0.2302 H   0  0  0  0  0  0  0  0  0  0  0  0
    2.8912    0.2686    1.4010 H   0  0  0  0  0  0  0  0  0  0  0  0
   -1.2075    2.1392   -1.3549 H   0  0  0  0  0  0  0  0  0  0  0  0
    1.1355   -2.7956    1.5421 H   0  0  0  0  0  0  0  0  0  0  0  0
    0.1012   -2.0192   -0.7102 H   0  0  0  0  0  0  0  0  0  0  0  0
    1.2499    2.5780    0.7872 H   0  0  0  0  0  0  0  0  0  0  0  0
    3.0582    1.0166    0.0882 H   0  0  0  0  0  0  0  0  0  0  0  0
   -2.1429    1.6447    0.7569 H   0  0  0  0  0  0  0  0  0  0  0  0
    2.3166   -2.2671   -0.9881 H   0  0  0  0  0  0  0  0  0  0  0  0
  3  2  1  0
  4  3  2  0
  5  2  1  0
  6  2  2  0
  7  2  2  0
  8  3  1  0
  9  8  2  0
 10  4  1  0
 11  9  1  0
 12  8  1  0
 13 10  1  0
 10 11  2  0
 15 14  1  0
 16 15  2  0
 17 14  1  0
 18 14  2  0
 19 14  2  0
 20 15  1  0
 21 20  2  0
 22 16  1  0
 23 21  1  0
 24 20  1  0
 25 22  1  0
 22 23  2  0
  4 26  1  0
  9 27  1  0
 11 28  1  0
 12 29  1  0
 13 30  1  0
 16 31  1  0
 21 32  1  0
 23 33  1  0
 24 34  1  0
 25 35  1  0
M  CHG  3   1   2   5  -1  17  -1
M  END
$$$$
