
     RDKit          3D

 35 34  0  0  0  0  0  0  0  0999 V2000
    0.0000    0.0000    0.0000 Ca  0  0  0  0  0 15  0  0  0  0  0  0
   -2.3492   -0.6452    0.7022 S   0  0  0  0  0  0  0  0  0  0  0  0
   -0.6870   -0.1615    0.2028 C   0  0  0  0  0  0  0  0  0  0  0  0
    0.2625   -1.1782    0.0394 C   0  0  0  0  0  0  0  0  0  0  0  0
   -2.1186   -1.2922    1.9888 O   0  0  0  0  0  0  0  0  0  0  0  0
   -3.0425    0.6441    0.7700 O   0  0  0  0  0  0  0  0  0  0  0  0
   -2.7680   -1.5165   -0.3898 O   0  0  0  0  0  0  0  0  0  0  0  0
   -0.3408    1.1743   -0.0177 C   0  0  0  0  0  0  0  0  0  0  0  0
    0.9610    1.4940   -0.4033 C   0  0  0  0  0  0  0  0  0  0  0  0
    1.5544   -0.8439   -0.3448 C   0  0  0  0  0  0  0  0  0  0  0  0
    1.9133    0.4848   -0.5681 C   0  0  0  0  0  0  0  0  0  0  0  0
   -1.2017    2.2295    0.1179 O   0  0  0  0  0  0  0  0  0  0  0  0
    2.4617   -1.8521   -0.4975 O   0  0  0  0  0  0  0  0  0  0  0  0
    2.5299   -0.1172    0.1172 S   0  0  0  0  0  0  0  0  0  0  0  0
    0.7333   -0.0079    0.0367 C   0  0  0  0  0  0  0  0  0  0  0  0
    0.0177   -1.2014   -0.1230 C   0  0  0  0  0  0  0  0  0  0  0  0
    2.9211    1.2855    0.2817 O   0  0  0  0  0  0  0  0  0  0  0  0
    2.8703   -0.7075   -1.1723 O   0  0  0  0  0  0  0  0  0  0  0  0
    2.7446   -0.9609    1.2873 O   0  0  0  0  0  0  0  0  0  0  0  0
    0.0624    1.2145    0.1284 C   0  0  0  0  0  0  0  0  0  0  0  0
   -1.3305    1.2427    0.0602 C   0  0  0  0  0  0  0  0  0  0  0  0
   -1.3687   -1.1568   -0.1892 C   0  0  0  0  0  0  0  0  0  0  0  0
   -2.0507    0.0560   -0.0990 C   0  0  0  0  0  0  0  0  0  0  0  0
    0.6792    2.4261    0.2849 O   0  0  0  0  0  0  0  0  0  0  0  0
   -2.0437   -2.3329   -0.3450 O   0  0  0  0  0  0  0  0  0  0  0  0
   -0.0207   -2.2126    0.2142 H   0  0  0  0  0  0  0  0  0  0  0  0
    1.2271    2.5329   -0.5739 H   0  0  0  0  0  0  0  0  0  0  0  0
    2.9198    0.7542   -0.8683 H   0  0  0  0  0  0  0  0  0  0  0  0
   -2.0785    1.8489    0.3932 H   0  0  0  0  0  0  0  0  0  0  0  0
    3.3071   -1.4605   -0.7652 H   0  0  0  0  0  0  0  0  0  0  0  0
    0.5525   -2.1447   -0.1929 H   0  0  0  0  0  0  0  0  0  0  0  0
   -1.8491    2.1941    0.1318 H   0  0  0  0  0  0  0  0  0  0  0  0
   -3.1330    0.0994   -0.1499 H   0  0  0  0  0  0  0  0  0  0  0  0
    1.6570    2.2467    0.3163 H   0  0  0  0  0  0  0  0  0  0  0  0
   -2.9924   -2.1358   -0.3731 H   0  0  0  0  0  0  0  0  0  0  0  0
  3  2  1  0
  4  3  2  0
  5  2  1  0
  6  2  2  0
  7  2  2  0
  8  3  1  0
  9  8  2  0
 10  4  1  0
 11  9  1  0
 12  8  1  0
 13 10  1  0
 10 11  2  0
 15 14  1  0
 16 15  2  0
 17 14  1  0
 18 14  2  0
 19 14  2  0
 20 15  1  0
 21 20  2  0
 22 16  1  0
 23 21  1  0
 24 20  1  0
 25 22  1  0
 22 23  2  0
  4 26  1  0
  9 27  1  0
 11 28  1  0
 12 29  1  0
 13 30  1  0
 16 31  1  0
 21 32  1  0
 23 33  1  0
 24 34  1  0
 25 35  1  0
M  CHG  3   1   2   5  -1  17  -1
M  END
$$$$
