
     RDKit          3D

 38 36  0  0  0  0  0  0  0  0999 V2000
   47.0290    3.2246    5.2890 C   0  0  0  0  0  0  0  0  0  0  0  0
   46.8308    3.4309    6.7844 C   0  0  0  0  0  0  0  0  0  0  0  0
   46.1349    2.2464    7.4857 C   0  0  2  0  0  0  0  0  0  0  0  0
   45.8713    2.5704    8.9668 C   0  0  0  0  0  0  0  0  0  0  0  0
   44.9829    3.6824    9.0566 O   0  0  0  0  0  0  0  0  0  0  0  0
   44.7598    3.9838   10.4371 N   0  0  0  0  0  0  0  0  0  0  0  0
   43.9972    4.9469   10.5589 O   0  0  0  0  0  0  0  0  0  0  0  0
   46.9487    0.9552    7.3808 C   0  0  0  0  0  0  0  0  0  0  0  0
   46.6900    1.1488    7.8716 C   0  0  0  0  0  0  0  0  0  0  0  0
   47.2893    2.3901    7.2107 C   0  0  0  0  0  0  0  0  0  0  0  0
   47.9052    2.0061    5.8618 C   0  0  0  0  0  0  0  0  0  0  0  0
   46.2665    3.5268    7.0066 C   0  0  0  0  0  0  0  0  0  0  0  0
   45.6801    4.0914    8.3014 C   0  0  0  0  0  0  0  0  0  0  0  0
   44.6748    3.2128    8.7963 O   0  0  0  0  0  0  0  0  0  0  0  0
   44.1512    3.7503   10.0142 N   0  0  0  0  0  0  0  0  0  0  0  0
   43.2847    3.0077   10.4853 O   0  0  0  0  0  0  0  0  0  0  0  0
   47.4246    4.1388    4.8343 H   0  0  0  0  0  0  0  0  0  0  0  0
   47.7425    2.4213    5.0844 H   0  0  0  0  0  0  0  0  0  0  0  0
   46.0818    2.9842    4.7960 H   0  0  0  0  0  0  0  0  0  0  0  0
   47.8047    3.6226    7.2511 H   0  0  0  0  0  0  0  0  0  0  0  0
   46.2326    4.3399    6.9208 H   0  0  0  0  0  0  0  0  0  0  0  0
   45.1651    2.0890    6.9952 H   0  0  0  0  0  0  0  0  0  0  0  0
   45.4111    1.7035    9.4585 H   0  0  0  0  0  0  0  0  0  0  0  0
   46.8157    2.8040    9.4759 H   0  0  0  0  0  0  0  0  0  0  0  0
   47.9544    1.0860    7.7941 H   0  0  0  0  0  0  0  0  0  0  0  0
   47.0457    0.6277    6.3415 H   0  0  0  0  0  0  0  0  0  0  0  0
   46.4608    0.1426    7.9300 H   0  0  0  0  0  0  0  0  0  0  0  0
   47.4186    0.3310    7.8962 H   0  0  0  0  0  0  0  0  0  0  0  0
   45.8061    0.7966    7.3294 H   0  0  0  0  0  0  0  0  0  0  0  0
   46.4031    1.3499    8.9078 H   0  0  0  0  0  0  0  0  0  0  0  0
   48.0988    2.7603    7.8527 H   0  0  0  0  0  0  0  0  0  0  0  0
   47.1454    1.6196    5.1740 H   0  0  0  0  0  0  0  0  0  0  0  0
   48.6719    1.2344    5.9888 H   0  0  0  0  0  0  0  0  0  0  0  0
   48.3816    2.8721    5.3900 H   0  0  0  0  0  0  0  0  0  0  0  0
   46.7697    4.3481    6.4808 H   0  0  0  0  0  0  0  0  0  0  0  0
   45.4539    3.1743    6.3589 H   0  0  0  0  0  0  0  0  0  0  0  0
   45.2222    5.0647    8.0837 H   0  0  0  0  0  0  0  0  0  0  0  0
   46.4707    4.2337    9.0487 H   0  0  0  0  0  0  0  0  0  0  0  0
  1  2  1  0
  2  3  1  0
  3  4  1  0
  4  5  1  0
  5  6  1  0
  6  7  2  0
  3  8  1  0
  9 10  1  0
 10 11  1  0
 10 12  1  0
 12 13  1  0
 13 14  1  0
 14 15  1  0
 15 16  2  0
  1 17  1  0
  1 18  1  0
  1 19  1  0
  2 20  1  0
  2 21  1  0
  3 22  1  6
  4 23  1  0
  4 24  1  0
  8 25  1  0
  8 26  1  0
  8 27  1  0
  9 28  1  0
  9 29  1  0
  9 30  1  0
 10 31  1  0
 11 32  1  0
 11 33  1  0
 11 34  1  0
 12 35  1  0
 12 36  1  0
 13 37  1  0
 13 38  1  0
M  END
> <Uni-Dock RESULT> 
ENERGY=   -6.657  LOWER_BOUND=    0.000  UPPER_BOUND=    0.000
INTER + INTRA:          -6.657
INTER:                  -6.657
INTRA:                   0.000
UNBOUND:                 0.000

$$$$

     RDKit          3D

 38 36  0  0  0  0  0  0  0  0999 V2000
   47.0332    0.7982    7.6117 C   0  0  0  0  0  0  0  0  0  0  0  0
   45.8853    1.7590    7.8900 C   0  0  0  0  0  0  0  0  0  0  0  0
   46.3350    3.2223    8.0792 C   0  0  2  0  0  0  0  0  0  0  0  0
   45.1401    4.1128    8.4632 C   0  0  0  0  0  0  0  0  0  0  0  0
   44.6103    3.6792    9.7143 O   0  0  0  0  0  0  0  0  0  0  0  0
   43.4907    4.5034   10.0512 N   0  0  0  0  0  0  0  0  0  0  0  0
   42.9985    4.1568   11.1290 O   0  0  0  0  0  0  0  0  0  0  0  0
   47.0110    3.7843    6.8271 C   0  0  0  0  0  0  0  0  0  0  0  0
   46.6075    4.0686    7.1458 C   0  0  0  0  0  0  0  0  0  0  0  0
   46.1193    2.6222    7.0681 C   0  0  0  0  0  0  0  0  0  0  0  0
   47.1601    1.7682    6.3374 C   0  0  0  0  0  0  0  0  0  0  0  0
   45.8215    2.0035    8.4496 C   0  0  0  0  0  0  0  0  0  0  0  0
   44.6956    2.6920    9.2225 C   0  0  0  0  0  0  0  0  0  0  0  0
   45.1830    3.8923    9.8134 O   0  0  0  0  0  0  0  0  0  0  0  0
   44.1121    4.5281   10.5171 N   0  0  0  0  0  0  0  0  0  0  0  0
   44.4909    5.5840   11.0325 O   0  0  0  0  0  0  0  0  0  0  0  0
   46.6635   -0.2323    7.5970 H   0  0  0  0  0  0  0  0  0  0  0  0
   47.4960    0.9945    6.6404 H   0  0  0  0  0  0  0  0  0  0  0  0
   47.8032    0.8704    8.3862 H   0  0  0  0  0  0  0  0  0  0  0  0
   45.1579    1.6936    7.0716 H   0  0  0  0  0  0  0  0  0  0  0  0
   45.3716    1.4139    8.7953 H   0  0  0  0  0  0  0  0  0  0  0  0
   47.0563    3.2472    8.9067 H   0  0  0  0  0  0  0  0  0  0  0  0
   45.4710    5.1553    8.5561 H   0  0  0  0  0  0  0  0  0  0  0  0
   44.3637    4.0572    7.6888 H   0  0  0  0  0  0  0  0  0  0  0  0
   46.3520    3.7133    5.9552 H   0  0  0  0  0  0  0  0  0  0  0  0
   47.9380    3.2496    6.5998 H   0  0  0  0  0  0  0  0  0  0  0  0
   47.2736    4.8385    6.9672 H   0  0  0  0  0  0  0  0  0  0  0  0
   46.9113    4.4304    6.1572 H   0  0  0  0  0  0  0  0  0  0  0  0
   47.4667    4.1633    7.8181 H   0  0  0  0  0  0  0  0  0  0  0  0
   45.8164    4.7364    7.4990 H   0  0  0  0  0  0  0  0  0  0  0  0
   45.1977    2.6053    6.4723 H   0  0  0  0  0  0  0  0  0  0  0  0
   48.1112    1.7503    6.8806 H   0  0  0  0  0  0  0  0  0  0  0  0
   47.3505    2.1604    5.3328 H   0  0  0  0  0  0  0  0  0  0  0  0
   46.8111    0.7357    6.2294 H   0  0  0  0  0  0  0  0  0  0  0  0
   45.5322    0.9557    8.2990 H   0  0  0  0  0  0  0  0  0  0  0  0
   46.7367    2.0054    9.0550 H   0  0  0  0  0  0  0  0  0  0  0  0
   44.3553    2.0191   10.0199 H   0  0  0  0  0  0  0  0  0  0  0  0
   43.8498    2.9049    8.5569 H   0  0  0  0  0  0  0  0  0  0  0  0
  1  2  1  0
  2  3  1  0
  3  4  1  0
  4  5  1  0
  5  6  1  0
  6  7  2  0
  3  8  1  0
  9 10  1  0
 10 11  1  0
 10 12  1  0
 12 13  1  0
 13 14  1  0
 14 15  1  0
 15 16  2  0
  1 17  1  0
  1 18  1  0
  1 19  1  0
  2 20  1  0
  2 21  1  0
  3 22  1  6
  4 23  1  0
  4 24  1  0
  8 25  1  0
  8 26  1  0
  8 27  1  0
  9 28  1  0
  9 29  1  0
  9 30  1  0
 10 31  1  0
 11 32  1  0
 11 33  1  0
 11 34  1  0
 12 35  1  0
 12 36  1  0
 13 37  1  0
 13 38  1  0
M  END
> <Uni-Dock RESULT> 
ENERGY=   -6.329  LOWER_BOUND=    0.894  UPPER_BOUND=    2.005
INTER + INTRA:          -6.329
INTER:                  -6.329
INTRA:                   0.000
UNBOUND:                 0.000

$$$$

     RDKit          3D

 38 36  0  0  0  0  0  0  0  0999 V2000
   45.4723    1.6770    8.6921 C   0  0  0  0  0  0  0  0  0  0  0  0
   44.5444    2.7021    9.3297 C   0  0  0  0  0  0  0  0  0  0  0  0
   45.2443    4.0270    9.6961 C   0  0  2  0  0  0  0  0  0  0  0  0
   44.2745    4.9686   10.4316 C   0  0  0  0  0  0  0  0  0  0  0  0
   43.8677    4.3644   11.6577 O   0  0  0  0  0  0  0  0  0  0  0  0
   42.9541    5.2415   12.3229 N   0  0  0  0  0  0  0  0  0  0  0  0
   42.5729    4.7517   13.3900 O   0  0  0  0  0  0  0  0  0  0  0  0
   45.8143    4.7372    8.4668 C   0  0  0  0  0  0  0  0  0  0  0  0
   45.5113    5.0013    8.8954 C   0  0  0  0  0  0  0  0  0  0  0  0
   44.7926    3.6753    8.6466 C   0  0  0  0  0  0  0  0  0  0  0  0
   45.5678    2.8587    7.6081 C   0  0  0  0  0  0  0  0  0  0  0  0
   44.6015    2.8353    9.9264 C   0  0  0  0  0  0  0  0  0  0  0  0
   43.7228    3.4937   10.9910 C   0  0  0  0  0  0  0  0  0  0  0  0
   44.4753    4.4775   11.6933 O   0  0  0  0  0  0  0  0  0  0  0  0
   43.6319    5.0916   12.6721 N   0  0  0  0  0  0  0  0  0  0  0  0
   44.2444    5.9644   13.2943 O   0  0  0  0  0  0  0  0  0  0  0  0
   44.9446    0.7270    8.5581 H   0  0  0  0  0  0  0  0  0  0  0  0
   45.8160    2.0032    7.7064 H   0  0  0  0  0  0  0  0  0  0  0  0
   46.3471    1.4920    9.3233 H   0  0  0  0  0  0  0  0  0  0  0  0
   43.7060    2.8970    8.6499 H   0  0  0  0  0  0  0  0  0  0  0  0
   44.1178    2.2513   10.2337 H   0  0  0  0  0  0  0  0  0  0  0  0
   46.0717    3.7916   10.3786 H   0  0  0  0  0  0  0  0  0  0  0  0
   44.7774    5.9196   10.6503 H   0  0  0  0  0  0  0  0  0  0  0  0
   43.3961    5.1705    9.8045 H   0  0  0  0  0  0  0  0  0  0  0  0
   45.0341    4.9286    7.7224 H   0  0  0  0  0  0  0  0  0  0  0  0
   46.6017    4.1441    7.9924 H   0  0  0  0  0  0  0  0  0  0  0  0
   46.2591    5.6988    8.7449 H   0  0  0  0  0  0  0  0  0  0  0  0
   45.7238    5.5121    7.9497 H   0  0  0  0  0  0  0  0  0  0  0  0
   46.4622    4.8472    9.4163 H   0  0  0  0  0  0  0  0  0  0  0  0
   44.8960    5.6808    9.4921 H   0  0  0  0  0  0  0  0  0  0  0  0
   43.8042    3.8978    8.2245 H   0  0  0  0  0  0  0  0  0  0  0  0
   46.5720    2.6094    7.9681 H   0  0  0  0  0  0  0  0  0  0  0  0
   45.6721    3.4170    6.6718 H   0  0  0  0  0  0  0  0  0  0  0  0
   45.0468    1.9229    7.3797 H   0  0  0  0  0  0  0  0  0  0  0  0
   44.1302    1.8854    9.6437 H   0  0  0  0  0  0  0  0  0  0  0  0
   45.5827    2.5973   10.3562 H   0  0  0  0  0  0  0  0  0  0  0  0
   43.3977    2.7238   11.7023 H   0  0  0  0  0  0  0  0  0  0  0  0
   42.8351    3.9434   10.5290 H   0  0  0  0  0  0  0  0  0  0  0  0
  1  2  1  0
  2  3  1  0
  3  4  1  0
  4  5  1  0
  5  6  1  0
  6  7  2  0
  3  8  1  0
  9 10  1  0
 10 11  1  0
 10 12  1  0
 12 13  1  0
 13 14  1  0
 14 15  1  0
 15 16  2  0
  1 17  1  0
  1 18  1  0
  1 19  1  0
  2 20  1  0
  2 21  1  0
  3 22  1  6
  4 23  1  0
  4 24  1  0
  8 25  1  0
  8 26  1  0
  8 27  1  0
  9 28  1  0
  9 29  1  0
  9 30  1  0
 10 31  1  0
 11 32  1  0
 11 33  1  0
 11 34  1  0
 12 35  1  0
 12 36  1  0
 13 37  1  0
 13 38  1  0
M  END
> <Uni-Dock RESULT> 
ENERGY=   -5.616  LOWER_BOUND=    2.131  UPPER_BOUND=    3.428
INTER + INTRA:          -5.616
INTER:                  -5.616
INTRA:                   0.000
UNBOUND:                 0.000

$$$$

     RDKit          3D

 38 36  0  0  0  0  0  0  0  0999 V2000
   43.8617    1.8440   10.0687 C   0  0  0  0  0  0  0  0  0  0  0  0
   45.1797    2.1844    9.3866 C   0  0  0  0  0  0  0  0  0  0  0  0
   45.0859    3.3851    8.4230 C   0  0  2  0  0  0  0  0  0  0  0  0
   46.4226    3.6008    7.6916 C   0  0  0  0  0  0  0  0  0  0  0  0
   46.7159    2.4548    6.8950 O   0  0  0  0  0  0  0  0  0  0  0  0
   47.9679    2.6608    6.2345 N   0  0  0  0  0  0  0  0  0  0  0  0
   48.2617    1.6862    5.5360 O   0  0  0  0  0  0  0  0  0  0  0  0
   44.6829    4.6729    9.1439 C   0  0  0  0  0  0  0  0  0  0  0  0
   45.1133    4.6328    8.7460 C   0  0  0  0  0  0  0  0  0  0  0  0
   45.2384    3.3771    9.6086 C   0  0  0  0  0  0  0  0  0  0  0  0
   44.0906    3.3347   10.6220 C   0  0  0  0  0  0  0  0  0  0  0  0
   45.2508    2.0712    8.7874 C   0  0  0  0  0  0  0  0  0  0  0  0
   46.4366    1.9355    7.8311 C   0  0  0  0  0  0  0  0  0  0  0  0
   46.2060    2.7208    6.6659 O   0  0  0  0  0  0  0  0  0  0  0  0
   47.3321    2.5930    5.7930 N   0  0  0  0  0  0  0  0  0  0  0  0
   47.1779    3.2734    4.7745 O   0  0  0  0  0  0  0  0  0  0  0  0
   43.9683    0.9223   10.6502 H   0  0  0  0  0  0  0  0  0  0  0  0
   43.5500    2.6331   10.7590 H   0  0  0  0  0  0  0  0  0  0  0  0
   43.0663    1.6896    9.3329 H   0  0  0  0  0  0  0  0  0  0  0  0
   45.9396    2.3782   10.1535 H   0  0  0  0  0  0  0  0  0  0  0  0
   45.5101    1.2965    8.8342 H   0  0  0  0  0  0  0  0  0  0  0  0
   44.3211    3.1521    7.6703 H   0  0  0  0  0  0  0  0  0  0  0  0
   46.3494    4.4811    7.0399 H   0  0  0  0  0  0  0  0  0  0  0  0
   47.2282    3.7669    8.4190 H   0  0  0  0  0  0  0  0  0  0  0  0
   45.3801    4.9078    9.9551 H   0  0  0  0  0  0  0  0  0  0  0  0
   43.6776    4.5950    9.5685 H   0  0  0  0  0  0  0  0  0  0  0  0
   44.6741    5.5204    8.4499 H   0  0  0  0  0  0  0  0  0  0  0  0
   44.9971    5.5247    9.3716 H   0  0  0  0  0  0  0  0  0  0  0  0
   44.2464    4.5733    8.0795 H   0  0  0  0  0  0  0  0  0  0  0  0
   46.0085    4.7868    8.1365 H   0  0  0  0  0  0  0  0  0  0  0  0
   46.1777    3.4435   10.1725 H   0  0  0  0  0  0  0  0  0  0  0  0
   43.1191    3.2754   10.1194 H   0  0  0  0  0  0  0  0  0  0  0  0
   44.0927    4.2310   11.2514 H   0  0  0  0  0  0  0  0  0  0  0  0
   44.1851    2.4659   11.2822 H   0  0  0  0  0  0  0  0  0  0  0  0
   45.2877    1.2277    9.4884 H   0  0  0  0  0  0  0  0  0  0  0  0
   44.3131    1.9860    8.2237 H   0  0  0  0  0  0  0  0  0  0  0  0
   46.5292    0.8830    7.5346 H   0  0  0  0  0  0  0  0  0  0  0  0
   47.3650    2.2443    8.3274 H   0  0  0  0  0  0  0  0  0  0  0  0
  1  2  1  0
  2  3  1  0
  3  4  1  0
  4  5  1  0
  5  6  1  0
  6  7  2  0
  3  8  1  0
  9 10  1  0
 10 11  1  0
 10 12  1  0
 12 13  1  0
 13 14  1  0
 14 15  1  0
 15 16  2  0
  1 17  1  0
  1 18  1  0
  1 19  1  0
  2 20  1  0
  2 21  1  0
  3 22  1  6
  4 23  1  0
  4 24  1  0
  8 25  1  0
  8 26  1  0
  8 27  1  0
  9 28  1  0
  9 29  1  0
  9 30  1  0
 10 31  1  0
 11 32  1  0
 11 33  1  0
 11 34  1  0
 12 35  1  0
 12 36  1  0
 13 37  1  0
 13 38  1  0
M  END
> <Uni-Dock RESULT> 
ENERGY=   -4.868  LOWER_BOUND=    2.984  UPPER_BOUND=    4.530
INTER + INTRA:          -4.868
INTER:                  -4.868
INTRA:                   0.000
UNBOUND:                 0.000

$$$$

     RDKit          3D

 38 36  0  0  0  0  0  0  0  0999 V2000
   44.7195    4.2417    9.4768 C   0  0  0  0  0  0  0  0  0  0  0  0
   45.1046    5.0667   10.6971 C   0  0  0  0  0  0  0  0  0  0  0  0
   43.9279    5.8551   11.3077 C   0  0  2  0  0  0  0  0  0  0  0  0
   44.4129    6.7463   12.4648 C   0  0  0  0  0  0  0  0  0  0  0  0
   45.3385    7.7089   11.9642 O   0  0  0  0  0  0  0  0  0  0  0  0
   45.7942    8.5190   13.0515 N   0  0  0  0  0  0  0  0  0  0  0  0
   46.6036    9.3649   12.6600 O   0  0  0  0  0  0  0  0  0  0  0  0
   42.8121    4.9336   11.8040 C   0  0  0  0  0  0  0  0  0  0  0  0
   43.0243    5.3930   12.1025 C   0  0  0  0  0  0  0  0  0  0  0  0
   44.2439    4.7150   11.4786 C   0  0  0  0  0  0  0  0  0  0  0  0
   43.7867    3.5544   10.5896 C   0  0  0  0  0  0  0  0  0  0  0  0
   45.1245    5.6791   10.6570 C   0  0  0  0  0  0  0  0  0  0  0  0
   45.7546    6.8106   11.4705 C   0  0  0  0  0  0  0  0  0  0  0  0
   44.7858    7.8261   11.7110 O   0  0  0  0  0  0  0  0  0  0  0  0
   45.3900    8.8659   12.4857 N   0  0  0  0  0  0  0  0  0  0  0  0
   44.5759    9.7613   12.7298 O   0  0  0  0  0  0  0  0  0  0  0  0
   45.6139    3.7970    9.0282 H   0  0  0  0  0  0  0  0  0  0  0  0
   44.0436    3.4234    9.7411 H   0  0  0  0  0  0  0  0  0  0  0  0
   44.2343    4.8640    8.7183 H   0  0  0  0  0  0  0  0  0  0  0  0
   45.5436    4.4039   11.4528 H   0  0  0  0  0  0  0  0  0  0  0  0
   45.8946    5.7644   10.3940 H   0  0  0  0  0  0  0  0  0  0  0  0
   43.5195    6.5080   10.5250 H   0  0  0  0  0  0  0  0  0  0  0  0
   43.5578    7.2699   12.9115 H   0  0  0  0  0  0  0  0  0  0  0  0
   44.8933    6.1324   13.2381 H   0  0  0  0  0  0  0  0  0  0  0  0
   43.1900    4.2130   12.5371 H   0  0  0  0  0  0  0  0  0  0  0  0
   42.3580    4.3764   10.9792 H   0  0  0  0  0  0  0  0  0  0  0  0
   42.0130    5.5122   12.2799 H   0  0  0  0  0  0  0  0  0  0  0  0
   42.3712    4.6550   12.5812 H   0  0  0  0  0  0  0  0  0  0  0  0
   42.4353    5.9253   11.3482 H   0  0  0  0  0  0  0  0  0  0  0  0
   43.3194    6.1061   12.8777 H   0  0  0  0  0  0  0  0  0  0  0  0
   44.8513    4.2934   12.2898 H   0  0  0  0  0  0  0  0  0  0  0  0
   43.1661    3.9103    9.7601 H   0  0  0  0  0  0  0  0  0  0  0  0
   43.2009    2.8298   11.1650 H   0  0  0  0  0  0  0  0  0  0  0  0
   44.6470    3.0243   10.1672 H   0  0  0  0  0  0  0  0  0  0  0  0
   45.9384    5.0973   10.2061 H   0  0  0  0  0  0  0  0  0  0  0  0
   44.5329    6.1030    9.8357 H   0  0  0  0  0  0  0  0  0  0  0  0
   46.5808    7.2412   10.8907 H   0  0  0  0  0  0  0  0  0  0  0  0
   46.1527    6.4247   12.4172 H   0  0  0  0  0  0  0  0  0  0  0  0
  1  2  1  0
  2  3  1  0
  3  4  1  0
  4  5  1  0
  5  6  1  0
  6  7  2  0
  3  8  1  0
  9 10  1  0
 10 11  1  0
 10 12  1  0
 12 13  1  0
 13 14  1  0
 14 15  1  0
 15 16  2  0
  1 17  1  0
  1 18  1  0
  1 19  1  0
  2 20  1  0
  2 21  1  0
  3 22  1  6
  4 23  1  0
  4 24  1  0
  8 25  1  0
  8 26  1  0
  8 27  1  0
  9 28  1  0
  9 29  1  0
  9 30  1  0
 10 31  1  0
 11 32  1  0
 11 33  1  0
 11 34  1  0
 12 35  1  0
 12 36  1  0
 13 37  1  0
 13 38  1  0
M  END
> <Uni-Dock RESULT> 
ENERGY=   -4.363  LOWER_BOUND=    4.294  UPPER_BOUND=    5.713
INTER + INTRA:          -4.363
INTER:                  -4.363
INTRA:                   0.000
UNBOUND:                 0.000

$$$$

     RDKit          3D

 38 36  0  0  0  0  0  0  0  0999 V2000
   47.7769    7.3169   13.8428 C   0  0  0  0  0  0  0  0  0  0  0  0
   46.8176    6.9618   12.7150 C   0  0  0  0  0  0  0  0  0  0  0  0
   45.5082    7.7768   12.7366 C   0  0  2  0  0  0  0  0  0  0  0  0
   44.5466    7.2896   11.6383 C   0  0  0  0  0  0  0  0  0  0  0  0
   44.1912    5.9315   11.8897 O   0  0  0  0  0  0  0  0  0  0  0  0
   43.3115    5.4859   10.8534 N   0  0  0  0  0  0  0  0  0  0  0  0
   42.9829    4.3094   11.0317 O   0  0  0  0  0  0  0  0  0  0  0  0
   45.7596    9.2765   12.5687 C   0  0  0  0  0  0  0  0  0  0  0  0
   45.3414    8.9738   12.2882 C   0  0  0  0  0  0  0  0  0  0  0  0
   46.5735    8.0692   12.2797 C   0  0  0  0  0  0  0  0  0  0  0  0
   47.6999    8.7291   13.0809 C   0  0  0  0  0  0  0  0  0  0  0  0
   46.2987    6.6585   12.8405 C   0  0  0  0  0  0  0  0  0  0  0  0
   45.2841    5.8438   12.0369 C   0  0  0  0  0  0  0  0  0  0  0  0
   43.9643    6.2764   12.3510 O   0  0  0  0  0  0  0  0  0  0  0  0
   43.0327    5.5141   11.5781 N   0  0  0  0  0  0  0  0  0  0  0  0
   41.8738    5.8705   11.8105 O   0  0  0  0  0  0  0  0  0  0  0  0
   48.6315    6.6324   13.8367 H   0  0  0  0  0  0  0  0  0  0  0  0
   48.1690    8.3321   13.7332 H   0  0  0  0  0  0  0  0  0  0  0  0
   47.2855    7.2359   14.8175 H   0  0  0  0  0  0  0  0  0  0  0  0
   47.3286    7.0995   11.7543 H   0  0  0  0  0  0  0  0  0  0  0  0
   46.5851    5.8932   12.7970 H   0  0  0  0  0  0  0  0  0  0  0  0
   45.0253    7.6101   13.7086 H   0  0  0  0  0  0  0  0  0  0  0  0
   43.6375    7.9048   11.6435 H   0  0  0  0  0  0  0  0  0  0  0  0
   45.0243    7.3750   10.6534 H   0  0  0  0  0  0  0  0  0  0  0  0
   46.3061    9.4856   11.6430 H   0  0  0  0  0  0  0  0  0  0  0  0
   46.3369    9.6807   13.4056 H   0  0  0  0  0  0  0  0  0  0  0  0
   44.8136    9.8277   12.5345 H   0  0  0  0  0  0  0  0  0  0  0  0
   45.6055    9.9937   11.9874 H   0  0  0  0  0  0  0  0  0  0  0  0
   44.8900    9.0225   13.2848 H   0  0  0  0  0  0  0  0  0  0  0  0
   44.5843    8.6205   11.5822 H   0  0  0  0  0  0  0  0  0  0  0  0
   46.9168    7.9711   11.2418 H   0  0  0  0  0  0  0  0  0  0  0  0
   47.4152    8.8628   14.1302 H   0  0  0  0  0  0  0  0  0  0  0  0
   47.9470    9.7131   12.6684 H   0  0  0  0  0  0  0  0  0  0  0  0
   48.6091    8.1193   13.0506 H   0  0  0  0  0  0  0  0  0  0  0  0
   47.2452    6.1032   12.8458 H   0  0  0  0  0  0  0  0  0  0  0  0
   45.9622    6.7393   13.8819 H   0  0  0  0  0  0  0  0  0  0  0  0
   45.3844    4.7869   12.3146 H   0  0  0  0  0  0  0  0  0  0  0  0
   45.4781    5.9452   10.9619 H   0  0  0  0  0  0  0  0  0  0  0  0
  1  2  1  0
  2  3  1  0
  3  4  1  0
  4  5  1  0
  5  6  1  0
  6  7  2  0
  3  8  1  0
  9 10  1  0
 10 11  1  0
 10 12  1  0
 12 13  1  0
 13 14  1  0
 14 15  1  0
 15 16  2  0
  1 17  1  0
  1 18  1  0
  1 19  1  0
  2 20  1  0
  2 21  1  0
  3 22  1  6
  4 23  1  0
  4 24  1  0
  8 25  1  0
  8 26  1  0
  8 27  1  0
  9 28  1  0
  9 29  1  0
  9 30  1  0
 10 31  1  0
 11 32  1  0
 11 33  1  0
 11 34  1  0
 12 35  1  0
 12 36  1  0
 13 37  1  0
 13 38  1  0
M  END
> <Uni-Dock RESULT> 
ENERGY=   -4.355  LOWER_BOUND=    5.085  UPPER_BOUND=    6.548
INTER + INTRA:          -4.355
INTER:                  -4.355
INTRA:                   0.000
UNBOUND:                 0.000

$$$$

     RDKit          3D

 38 36  0  0  0  0  0  0  0  0999 V2000
   48.6661    7.0698   13.3749 C   0  0  0  0  0  0  0  0  0  0  0  0
   47.4400    6.5201   12.6587 C   0  0  0  0  0  0  0  0  0  0  0  0
   46.1371    7.2743   12.9947 C   0  0  2  0  0  0  0  0  0  0  0  0
   44.9290    6.5979   12.3229 C   0  0  0  0  0  0  0  0  0  0  0  0
   44.7831    5.2747   12.8345 O   0  0  0  0  0  0  0  0  0  0  0  0
   43.6682    4.6517   12.1902 N   0  0  0  0  0  0  0  0  0  0  0  0
   43.5101    3.4990   12.6029 O   0  0  0  0  0  0  0  0  0  0  0  0
   46.1981    8.7449   12.5776 C   0  0  0  0  0  0  0  0  0  0  0  0
   45.7408    8.3886   12.4818 C   0  0  0  0  0  0  0  0  0  0  0  0
   46.9820    7.5443   12.1933 C   0  0  0  0  0  0  0  0  0  0  0  0
   48.2406    8.3568   12.5127 C   0  0  0  0  0  0  0  0  0  0  0  0
   47.0121    6.2158   12.9770 C   0  0  0  0  0  0  0  0  0  0  0  0
   45.8717    5.2546   12.6386 C   0  0  0  0  0  0  0  0  0  0  0  0
   44.6809    5.6710   13.2990 O   0  0  0  0  0  0  0  0  0  0  0  0
   43.6242    4.7694   12.9570 N   0  0  0  0  0  0  0  0  0  0  0  0
   42.5672    5.1058   13.4989 O   0  0  0  0  0  0  0  0  0  0  0  0
   49.5317    6.4277   13.1814 H   0  0  0  0  0  0  0  0  0  0  0  0
   48.9189    8.0751   13.0262 H   0  0  0  0  0  0  0  0  0  0  0  0
   48.5065    7.1055   14.4571 H   0  0  0  0  0  0  0  0  0  0  0  0
   47.6177    6.5432   11.5766 H   0  0  0  0  0  0  0  0  0  0  0  0
   47.3344    5.4647   12.9374 H   0  0  0  0  0  0  0  0  0  0  0  0
   45.9920    7.2252   14.0820 H   0  0  0  0  0  0  0  0  0  0  0  0
   44.0172    7.1690   12.5411 H   0  0  0  0  0  0  0  0  0  0  0  0
   45.0720    6.5646   11.2348 H   0  0  0  0  0  0  0  0  0  0  0  0
   46.4141    8.8450   11.5086 H   0  0  0  0  0  0  0  0  0  0  0  0
   46.9685    9.2862   13.1346 H   0  0  0  0  0  0  0  0  0  0  0  0
   45.2446    9.2456   12.7779 H   0  0  0  0  0  0  0  0  0  0  0  0
   45.8132    9.3665   11.9931 H   0  0  0  0  0  0  0  0  0  0  0  0
   45.6151    8.5573   13.5565 H   0  0  0  0  0  0  0  0  0  0  0  0
   44.8358    7.9083   12.0987 H   0  0  0  0  0  0  0  0  0  0  0  0
   46.9967    7.3163   11.1197 H   0  0  0  0  0  0  0  0  0  0  0  0
   48.2819    8.6240   13.5742 H   0  0  0  0  0  0  0  0  0  0  0  0
   48.2656    9.2828   11.9285 H   0  0  0  0  0  0  0  0  0  0  0  0
   49.1443    7.7875   12.2703 H   0  0  0  0  0  0  0  0  0  0  0  0
   47.9575    5.7070   12.7498 H   0  0  0  0  0  0  0  0  0  0  0  0
   47.0063    6.4275   14.0538 H   0  0  0  0  0  0  0  0  0  0  0  0
   46.1407    4.2521   12.9950 H   0  0  0  0  0  0  0  0  0  0  0  0
   45.7168    5.2125   11.5533 H   0  0  0  0  0  0  0  0  0  0  0  0
  1  2  1  0
  2  3  1  0
  3  4  1  0
  4  5  1  0
  5  6  1  0
  6  7  2  0
  3  8  1  0
  9 10  1  0
 10 11  1  0
 10 12  1  0
 12 13  1  0
 13 14  1  0
 14 15  1  0
 15 16  2  0
  1 17  1  0
  1 18  1  0
  1 19  1  0
  2 20  1  0
  2 21  1  0
  3 22  1  6
  4 23  1  0
  4 24  1  0
  8 25  1  0
  8 26  1  0
  8 27  1  0
  9 28  1  0
  9 29  1  0
  9 30  1  0
 10 31  1  0
 11 32  1  0
 11 33  1  0
 11 34  1  0
 12 35  1  0
 12 36  1  0
 13 37  1  0
 13 38  1  0
M  END
> <Uni-Dock RESULT> 
ENERGY=   -4.097  LOWER_BOUND=    5.298  UPPER_BOUND=    6.385
INTER + INTRA:          -4.097
INTER:                  -4.097
INTRA:                   0.000
UNBOUND:                 0.000

$$$$

     RDKit          3D

 38 36  0  0  0  0  0  0  0  0999 V2000
   43.4109    6.1494   11.3893 C   0  0  0  0  0  0  0  0  0  0  0  0
   44.7536    5.6790   11.9317 C   0  0  0  0  0  0  0  0  0  0  0  0
   44.6774    4.3431   12.6990 C   0  0  2  0  0  0  0  0  0  0  0  0
   46.0451    3.9877   13.3085 C   0  0  0  0  0  0  0  0  0  0  0  0
   46.4143    4.9872   14.2565 O   0  0  0  0  0  0  0  0  0  0  0  0
   47.6938    4.6543   14.8025 N   0  0  0  0  0  0  0  0  0  0  0  0
   48.0532    5.5001   15.6269 O   0  0  0  0  0  0  0  0  0  0  0  0
   44.1987    3.1939   11.8099 C   0  0  0  0  0  0  0  0  0  0  0  0
   44.6511    3.1619   12.1835 C   0  0  0  0  0  0  0  0  0  0  0  0
   44.7655    4.5355   11.5225 C   0  0  0  0  0  0  0  0  0  0  0  0
   43.5661    4.7607   10.5968 C   0  0  0  0  0  0  0  0  0  0  0  0
   44.8603    5.6946   12.5362 C   0  0  0  0  0  0  0  0  0  0  0  0
   46.0998    5.6535   13.4313 C   0  0  0  0  0  0  0  0  0  0  0  0
   45.9101    4.6986   14.4704 O   0  0  0  0  0  0  0  0  0  0  0  0
   47.0852    4.6642   15.2855 N   0  0  0  0  0  0  0  0  0  0  0  0
   46.9668    3.8345   16.1920 O   0  0  0  0  0  0  0  0  0  0  0  0
   43.5124    7.1491   10.9543 H   0  0  0  0  0  0  0  0  0  0  0  0
   43.0395    5.4858   10.6032 H   0  0  0  0  0  0  0  0  0  0  0  0
   42.6614    6.2014   12.1853 H   0  0  0  0  0  0  0  0  0  0  0  0
   45.4647    5.5938   11.1010 H   0  0  0  0  0  0  0  0  0  0  0  0
   45.1390    6.4615   12.5964 H   0  0  0  0  0  0  0  0  0  0  0  0
   43.9618    4.4695   13.5222 H   0  0  0  0  0  0  0  0  0  0  0  0
   45.9819    3.0171   13.8174 H   0  0  0  0  0  0  0  0  0  0  0  0
   46.8049    3.9226   12.5185 H   0  0  0  0  0  0  0  0  0  0  0  0
   44.8438    3.0763   10.9327 H   0  0  0  0  0  0  0  0  0  0  0  0
   43.1746    3.3582   11.4620 H   0  0  0  0  0  0  0  0  0  0  0  0
   44.2032    2.2477   12.3618 H   0  0  0  0  0  0  0  0  0  0  0  0
   44.4753    2.3827   11.4336 H   0  0  0  0  0  0  0  0  0  0  0  0
   43.8238    3.1327   12.9004 H   0  0  0  0  0  0  0  0  0  0  0  0
   45.5732    2.8956   12.7081 H   0  0  0  0  0  0  0  0  0  0  0  0
   45.6705    4.5403   10.9015 H   0  0  0  0  0  0  0  0  0  0  0  0
   42.6254    4.7592   11.1582 H   0  0  0  0  0  0  0  0  0  0  0  0
   43.5081    3.9753    9.8357 H   0  0  0  0  0  0  0  0  0  0  0  0
   43.6497    5.7208   10.0766 H   0  0  0  0  0  0  0  0  0  0  0  0
   44.8835    6.6374   11.9751 H   0  0  0  0  0  0  0  0  0  0  0  0
   43.9575    5.7083   13.1599 H   0  0  0  0  0  0  0  0  0  0  0  0
   46.2388    6.6438   13.8832 H   0  0  0  0  0  0  0  0  0  0  0  0
   46.9905    5.4085   12.8395 H   0  0  0  0  0  0  0  0  0  0  0  0
  1  2  1  0
  2  3  1  0
  3  4  1  0
  4  5  1  0
  5  6  1  0
  6  7  2  0
  3  8  1  0
  9 10  1  0
 10 11  1  0
 10 12  1  0
 12 13  1  0
 13 14  1  0
 14 15  1  0
 15 16  2  0
  1 17  1  0
  1 18  1  0
  1 19  1  0
  2 20  1  0
  2 21  1  0
  3 22  1  6
  4 23  1  0
  4 24  1  0
  8 25  1  0
  8 26  1  0
  8 27  1  0
  9 28  1  0
  9 29  1  0
  9 30  1  0
 10 31  1  0
 11 32  1  0
 11 33  1  0
 11 34  1  0
 12 35  1  0
 12 36  1  0
 13 37  1  0
 13 38  1  0
M  END
> <Uni-Dock RESULT> 
ENERGY=   -4.004  LOWER_BOUND=    5.285  UPPER_BOUND=    5.991
INTER + INTRA:          -4.004
INTER:                  -4.004
INTRA:                   0.000
UNBOUND:                 0.000

$$$$

     RDKit          3D

 38 36  0  0  0  0  0  0  0  0999 V2000
   42.7194    5.0368   11.8741 C   0  0  0  0  0  0  0  0  0  0  0  0
   44.0086    5.8329   11.7242 C   0  0  0  0  0  0  0  0  0  0  0  0
   44.9945    5.6405   12.8947 C   0  0  2  0  0  0  0  0  0  0  0  0
   46.2207    6.5554   12.7284 C   0  0  0  0  0  0  0  0  0  0  0  0
   45.8017    7.9182   12.7621 O   0  0  0  0  0  0  0  0  0  0  0  0
   46.9474    8.7571   12.5896 N   0  0  0  0  0  0  0  0  0  0  0  0
   46.6261    9.9489   12.6079 O   0  0  0  0  0  0  0  0  0  0  0  0
   45.4541    4.1875   13.0286 C   0  0  0  0  0  0  0  0  0  0  0  0
   45.8089    4.6548   13.0584 C   0  0  0  0  0  0  0  0  0  0  0  0
   44.8286    4.9599   11.9260 C   0  0  0  0  0  0  0  0  0  0  0  0
   43.7890    3.8390   11.8315 C   0  0  0  0  0  0  0  0  0  0  0  0
   44.1121    6.3165   12.0880 C   0  0  0  0  0  0  0  0  0  0  0  0
   45.0410    7.5311   12.0583 C   0  0  0  0  0  0  0  0  0  0  0  0
   45.6895    7.6705   13.3183 O   0  0  0  0  0  0  0  0  0  0  0  0
   46.5645    8.8010   13.2642 N   0  0  0  0  0  0  0  0  0  0  0  0
   47.1595    8.9474   14.3359 O   0  0  0  0  0  0  0  0  0  0  0  0
   42.0215    5.3001   11.0725 H   0  0  0  0  0  0  0  0  0  0  0  0
   42.9013    3.9602   11.8100 H   0  0  0  0  0  0  0  0  0  0  0  0
   42.2329    5.2523   12.8305 H   0  0  0  0  0  0  0  0  0  0  0  0
   44.4913    5.5570   10.7787 H   0  0  0  0  0  0  0  0  0  0  0  0
   43.7400    6.8930   11.6422 H   0  0  0  0  0  0  0  0  0  0  0  0
   44.4780    5.9303   13.8193 H   0  0  0  0  0  0  0  0  0  0  0  0
   46.9282    6.3777   13.5487 H   0  0  0  0  0  0  0  0  0  0  0  0
   46.7242    6.3423   11.7763 H   0  0  0  0  0  0  0  0  0  0  0  0
   45.9127    3.8297   12.1007 H   0  0  0  0  0  0  0  0  0  0  0  0
   44.6185    3.5255   13.2746 H   0  0  0  0  0  0  0  0  0  0  0  0
   46.1923    4.0858   13.8315 H   0  0  0  0  0  0  0  0  0  0  0  0
   46.2103    3.6399   12.9627 H   0  0  0  0  0  0  0  0  0  0  0  0
   45.3241    4.7347   14.0371 H   0  0  0  0  0  0  0  0  0  0  0  0
   46.6634    5.3374   13.0388 H   0  0  0  0  0  0  0  0  0  0  0  0
   45.3906    4.9727   10.9833 H   0  0  0  0  0  0  0  0  0  0  0  0
   43.1964    3.7687   12.7501 H   0  0  0  0  0  0  0  0  0  0  0  0
   44.2735    2.8709   11.6655 H   0  0  0  0  0  0  0  0  0  0  0  0
   43.1021    4.0134   10.9965 H   0  0  0  0  0  0  0  0  0  0  0  0
   43.3943    6.4237   11.2649 H   0  0  0  0  0  0  0  0  0  0  0  0
   43.5381    6.3163   13.0233 H   0  0  0  0  0  0  0  0  0  0  0  0
   44.4383    8.4288   11.8704 H   0  0  0  0  0  0  0  0  0  0  0  0
   45.7792    7.4280   11.2532 H   0  0  0  0  0  0  0  0  0  0  0  0
  1  2  1  0
  2  3  1  0
  3  4  1  0
  4  5  1  0
  5  6  1  0
  6  7  2  0
  3  8  1  0
  9 10  1  0
 10 11  1  0
 10 12  1  0
 12 13  1  0
 13 14  1  0
 14 15  1  0
 15 16  2  0
  1 17  1  0
  1 18  1  0
  1 19  1  0
  2 20  1  0
  2 21  1  0
  3 22  1  6
  4 23  1  0
  4 24  1  0
  8 25  1  0
  8 26  1  0
  8 27  1  0
  9 28  1  0
  9 29  1  0
  9 30  1  0
 10 31  1  0
 11 32  1  0
 11 33  1  0
 11 34  1  0
 12 35  1  0
 12 36  1  0
 13 37  1  0
 13 38  1  0
M  END
> <Uni-Dock RESULT> 
ENERGY=   -3.933  LOWER_BOUND=    5.721  UPPER_BOUND=    6.445
INTER + INTRA:          -3.933
INTER:                  -3.933
INTRA:                   0.000
UNBOUND:                 0.000

$$$$
