
     RDKit          3D

 38 36  0  0  0  0  0  0  0  0999 V2000
   46.5946    3.7054    6.8223 C   0  0  0  0  0  0  0  0  0  0  0  0
   46.0856    2.6857    7.8312 C   0  0  0  0  0  0  0  0  0  0  0  0
   44.8063    3.1257    8.5654 C   0  0  2  0  0  0  0  0  0  0  0  0
   45.0331    4.3721    9.4371 C   0  0  0  0  0  0  0  0  0  0  0  0
   43.8009    4.7488   10.0511 O   0  0  0  0  0  0  0  0  0  0  0  0
   44.0299    5.8905   10.8821 N   0  0  0  0  0  0  0  0  0  0  0  0
   42.9861    6.2468   11.4368 O   0  0  0  0  0  0  0  0  0  0  0  0
   44.2764    1.9619    9.4132 C   0  0  0  0  0  0  0  0  0  0  0  0
   45.2085    3.0986   10.6575 C   0  0  0  0  0  0  0  0  0  0  0  0
   44.4904    3.7382    9.4683 C   0  0  0  0  0  0  0  0  0  0  0  0
   43.7363    4.9871    9.9308 C   0  0  0  0  0  0  0  0  0  0  0  0
   45.4552    4.1035    8.3284 C   0  0  0  0  0  0  0  0  0  0  0  0
   46.1543    2.8983    7.7023 C   0  0  0  0  0  0  0  0  0  0  0  0
   46.9254    3.3615    6.5949 O   0  0  0  0  0  0  0  0  0  0  0  0
   47.5764    2.2418    5.9875 N   0  0  0  0  0  0  0  0  0  0  0  0
   48.2569    2.5998    5.0215 O   0  0  0  0  0  0  0  0  0  0  0  0
   47.4304    3.2843    6.2540 H   0  0  0  0  0  0  0  0  0  0  0  0
   45.8089    3.9829    6.1127 H   0  0  0  0  0  0  0  0  0  0  0  0
   46.9569    4.6128    7.3136 H   0  0  0  0  0  0  0  0  0  0  0  0
   45.8867    1.7498    7.2942 H   0  0  0  0  0  0  0  0  0  0  0  0
   46.8802    2.4695    8.5559 H   0  0  0  0  0  0  0  0  0  0  0  0
   44.0313    3.3593    7.8235 H   0  0  0  0  0  0  0  0  0  0  0  0
   45.3857    5.2069    8.8208 H   0  0  0  0  0  0  0  0  0  0  0  0
   45.7845    4.1595   10.2089 H   0  0  0  0  0  0  0  0  0  0  0  0
   44.1052    1.0758    8.7926 H   0  0  0  0  0  0  0  0  0  0  0  0
   44.9873    1.6911   10.2013 H   0  0  0  0  0  0  0  0  0  0  0  0
   43.3234    2.2168    9.8881 H   0  0  0  0  0  0  0  0  0  0  0  0
   46.0049    3.7480   11.0365 H   0  0  0  0  0  0  0  0  0  0  0  0
   45.6529    2.1368   10.3843 H   0  0  0  0  0  0  0  0  0  0  0  0
   44.5078    2.9095   11.4780 H   0  0  0  0  0  0  0  0  0  0  0  0
   43.7516    3.0217    9.0878 H   0  0  0  0  0  0  0  0  0  0  0  0
   44.4232    5.7425   10.3275 H   0  0  0  0  0  0  0  0  0  0  0  0
   43.1806    5.4362    9.1008 H   0  0  0  0  0  0  0  0  0  0  0  0
   43.0155    4.7382   10.7169 H   0  0  0  0  0  0  0  0  0  0  0  0
   46.2131    4.8146    8.6828 H   0  0  0  0  0  0  0  0  0  0  0  0
   44.9054    4.6339    7.5395 H   0  0  0  0  0  0  0  0  0  0  0  0
   45.4089    2.1713    7.3568 H   0  0  0  0  0  0  0  0  0  0  0  0
   46.8188    2.4189    8.4302 H   0  0  0  0  0  0  0  0  0  0  0  0
  1  2  1  0
  2  3  1  0
  3  4  1  0
  4  5  1  0
  5  6  1  0
  6  7  2  0
  3  8  1  0
  9 10  1  0
 10 11  1  0
 10 12  1  0
 12 13  1  0
 13 14  1  0
 14 15  1  0
 15 16  2  0
  1 17  1  0
  1 18  1  0
  1 19  1  0
  2 20  1  0
  2 21  1  0
  3 22  1  6
  4 23  1  0
  4 24  1  0
  8 25  1  0
  8 26  1  0
  8 27  1  0
  9 28  1  0
  9 29  1  0
  9 30  1  0
 10 31  1  0
 11 32  1  0
 11 33  1  0
 11 34  1  0
 12 35  1  0
 12 36  1  0
 13 37  1  0
 13 38  1  0
M  END
> <Uni-Dock RESULT> 
ENERGY=   -5.943  LOWER_BOUND=    0.000  UPPER_BOUND=    0.000
INTER + INTRA:          -5.943
INTER:                  -5.943
INTRA:                   0.000
UNBOUND:                 0.000

$$$$

     RDKit          3D

 38 36  0  0  0  0  0  0  0  0999 V2000
   46.8398    2.1323    6.9014 C   0  0  0  0  0  0  0  0  0  0  0  0
   46.3185    3.5187    7.2522 C   0  0  0  0  0  0  0  0  0  0  0  0
   45.9728    3.6920    8.7421 C   0  0  2  0  0  0  0  0  0  0  0  0
   44.8158    2.7799    9.1827 C   0  0  0  0  0  0  0  0  0  0  0  0
   44.5787    2.9596   10.5786 O   0  0  0  0  0  0  0  0  0  0  0  0
   43.4820    2.1290   10.9708 N   0  0  0  0  0  0  0  0  0  0  0  0
   43.2412    2.2587   12.1746 O   0  0  0  0  0  0  0  0  0  0  0  0
   45.6388    5.1630    9.0226 C   0  0  0  0  0  0  0  0  0  0  0  0
   43.9309    4.2850    8.8769 C   0  0  0  0  0  0  0  0  0  0  0  0
   45.1124    3.5093    9.4608 C   0  0  0  0  0  0  0  0  0  0  0  0
   44.6561    2.7212   10.6909 C   0  0  0  0  0  0  0  0  0  0  0  0
   45.7507    2.5557    8.4375 C   0  0  0  0  0  0  0  0  0  0  0  0
   46.3652    3.2657    7.2328 C   0  0  0  0  0  0  0  0  0  0  0  0
   47.0160    2.2846    6.4269 O   0  0  0  0  0  0  0  0  0  0  0  0
   47.6099    2.9356    5.2999 N   0  0  0  0  0  0  0  0  0  0  0  0
   48.1854    2.1197    4.5738 O   0  0  0  0  0  0  0  0  0  0  0  0
   47.1771    2.1120    5.8600 H   0  0  0  0  0  0  0  0  0  0  0  0
   47.6875    1.8582    7.5369 H   0  0  0  0  0  0  0  0  0  0  0  0
   46.0628    1.3701    7.0088 H   0  0  0  0  0  0  0  0  0  0  0  0
   47.0893    4.2490    6.9759 H   0  0  0  0  0  0  0  0  0  0  0  0
   45.4400    3.7396    6.6337 H   0  0  0  0  0  0  0  0  0  0  0  0
   46.8567    3.4445    9.3449 H   0  0  0  0  0  0  0  0  0  0  0  0
   45.0720    1.7293    9.0044 H   0  0  0  0  0  0  0  0  0  0  0  0
   43.9078    3.0241    8.6159 H   0  0  0  0  0  0  0  0  0  0  0  0
   46.4656    5.8138    8.7182 H   0  0  0  0  0  0  0  0  0  0  0  0
   44.7426    5.4761    8.4762 H   0  0  0  0  0  0  0  0  0  0  0  0
   45.4638    5.3351   10.0895 H   0  0  0  0  0  0  0  0  0  0  0  0
   43.1709    3.6070    8.4741 H   0  0  0  0  0  0  0  0  0  0  0  0
   44.2519    4.9545    8.0732 H   0  0  0  0  0  0  0  0  0  0  0  0
   43.4567    4.9058    9.6448 H   0  0  0  0  0  0  0  0  0  0  0  0
   45.8700    4.2326    9.7877 H   0  0  0  0  0  0  0  0  0  0  0  0
   43.8922    1.9813   10.4284 H   0  0  0  0  0  0  0  0  0  0  0  0
   45.4983    2.1916   11.1487 H   0  0  0  0  0  0  0  0  0  0  0  0
   44.2337    3.3906   11.4478 H   0  0  0  0  0  0  0  0  0  0  0  0
   45.0120    1.8237    8.0852 H   0  0  0  0  0  0  0  0  0  0  0  0
   46.5349    1.9639    8.9283 H   0  0  0  0  0  0  0  0  0  0  0  0
   47.0953    4.0117    7.5705 H   0  0  0  0  0  0  0  0  0  0  0  0
   45.5870    3.7612    6.6410 H   0  0  0  0  0  0  0  0  0  0  0  0
  1  2  1  0
  2  3  1  0
  3  4  1  0
  4  5  1  0
  5  6  1  0
  6  7  2  0
  3  8  1  0
  9 10  1  0
 10 11  1  0
 10 12  1  0
 12 13  1  0
 13 14  1  0
 14 15  1  0
 15 16  2  0
  1 17  1  0
  1 18  1  0
  1 19  1  0
  2 20  1  0
  2 21  1  0
  3 22  1  6
  4 23  1  0
  4 24  1  0
  8 25  1  0
  8 26  1  0
  8 27  1  0
  9 28  1  0
  9 29  1  0
  9 30  1  0
 10 31  1  0
 11 32  1  0
 11 33  1  0
 11 34  1  0
 12 35  1  0
 12 36  1  0
 13 37  1  0
 13 38  1  0
M  END
> <Uni-Dock RESULT> 
ENERGY=   -5.097  LOWER_BOUND=    1.616  UPPER_BOUND=    2.150
INTER + INTRA:          -5.097
INTER:                  -5.097
INTRA:                   0.000
UNBOUND:                 0.000

$$$$

     RDKit          3D

 38 36  0  0  0  0  0  0  0  0999 V2000
   45.5252    4.8663    8.9560 C   0  0  0  0  0  0  0  0  0  0  0  0
   44.5386    4.6244   10.0896 C   0  0  0  0  0  0  0  0  0  0  0  0
   44.3129    5.8540   10.9876 C   0  0  2  0  0  0  0  0  0  0  0  0
   45.5884    6.2698   11.7392 C   0  0  0  0  0  0  0  0  0  0  0  0
   45.3194    7.4372   12.5151 O   0  0  0  0  0  0  0  0  0  0  0  0
   46.5036    7.7973   13.2323 N   0  0  0  0  0  0  0  0  0  0  0  0
   46.3112    8.8033   13.9214 O   0  0  0  0  0  0  0  0  0  0  0  0
   43.1736    5.5656   11.9740 C   0  0  0  0  0  0  0  0  0  0  0  0
   44.7886    5.3005   12.9893 C   0  0  0  0  0  0  0  0  0  0  0  0
   44.7729    6.3652   11.8916 C   0  0  0  0  0  0  0  0  0  0  0  0
   45.4664    7.6343   12.3926 C   0  0  0  0  0  0  0  0  0  0  0  0
   45.4438    5.8810   10.5958 C   0  0  0  0  0  0  0  0  0  0  0  0
   44.7350    4.6978    9.9395 C   0  0  0  0  0  0  0  0  0  0  0  0
   45.3871    4.4249    8.7002 O   0  0  0  0  0  0  0  0  0  0  0  0
   44.7261    3.3268    8.0648 N   0  0  0  0  0  0  0  0  0  0  0  0
   45.2608    3.0567    6.9852 O   0  0  0  0  0  0  0  0  0  0  0  0
   45.5496    3.9978    8.2898 H   0  0  0  0  0  0  0  0  0  0  0  0
   45.2365    5.7396    8.3628 H   0  0  0  0  0  0  0  0  0  0  0  0
   46.5409    5.0200    9.3311 H   0  0  0  0  0  0  0  0  0  0  0  0
   43.5812    4.3243    9.6457 H   0  0  0  0  0  0  0  0  0  0  0  0
   44.8850    3.7762   10.6927 H   0  0  0  0  0  0  0  0  0  0  0  0
   43.9892    6.6974   10.3634 H   0  0  0  0  0  0  0  0  0  0  0  0
   46.3897    6.5003   11.0280 H   0  0  0  0  0  0  0  0  0  0  0  0
   45.9209    5.4546   12.3953 H   0  0  0  0  0  0  0  0  0  0  0  0
   42.2613    5.2783   11.4403 H   0  0  0  0  0  0  0  0  0  0  0  0
   43.4380    4.7501   12.6559 H   0  0  0  0  0  0  0  0  0  0  0  0
   42.9353    6.4483   12.5762 H   0  0  0  0  0  0  0  0  0  0  0  0
   45.8089    4.9633   13.2009 H   0  0  0  0  0  0  0  0  0  0  0  0
   44.1922    4.4279   12.7065 H   0  0  0  0  0  0  0  0  0  0  0  0
   44.3638    5.6950   13.9187 H   0  0  0  0  0  0  0  0  0  0  0  0
   43.7276    6.6178   11.6734 H   0  0  0  0  0  0  0  0  0  0  0  0
   46.5182    7.4445   12.6326 H   0  0  0  0  0  0  0  0  0  0  0  0
   45.4283    8.4240   11.6349 H   0  0  0  0  0  0  0  0  0  0  0  0
   44.9763    8.0157   13.2947 H   0  0  0  0  0  0  0  0  0  0  0  0
   46.4914    5.6124   10.7855 H   0  0  0  0  0  0  0  0  0  0  0  0
   45.4820    6.7068    9.8728 H   0  0  0  0  0  0  0  0  0  0  0  0
   43.6822    4.9466    9.7574 H   0  0  0  0  0  0  0  0  0  0  0  0
   44.7930    3.8113   10.5813 H   0  0  0  0  0  0  0  0  0  0  0  0
  1  2  1  0
  2  3  1  0
  3  4  1  0
  4  5  1  0
  5  6  1  0
  6  7  2  0
  3  8  1  0
  9 10  1  0
 10 11  1  0
 10 12  1  0
 12 13  1  0
 13 14  1  0
 14 15  1  0
 15 16  2  0
  1 17  1  0
  1 18  1  0
  1 19  1  0
  2 20  1  0
  2 21  1  0
  3 22  1  6
  4 23  1  0
  4 24  1  0
  8 25  1  0
  8 26  1  0
  8 27  1  0
  9 28  1  0
  9 29  1  0
  9 30  1  0
 10 31  1  0
 11 32  1  0
 11 33  1  0
 11 34  1  0
 12 35  1  0
 12 36  1  0
 13 37  1  0
 13 38  1  0
M  END
> <Uni-Dock RESULT> 
ENERGY=   -4.455  LOWER_BOUND=    2.768  UPPER_BOUND=    3.614
INTER + INTRA:          -4.455
INTER:                  -4.455
INTRA:                   0.000
UNBOUND:                 0.000

$$$$

     RDKit          3D

 38 36  0  0  0  0  0  0  0  0999 V2000
   46.5406    6.9850   12.5385 C   0  0  0  0  0  0  0  0  0  0  0  0
   45.0418    6.7630   12.6847 C   0  0  0  0  0  0  0  0  0  0  0  0
   44.6104    5.2984   12.4895 C   0  0  2  0  0  0  0  0  0  0  0  0
   44.8840    4.7946   11.0626 C   0  0  0  0  0  0  0  0  0  0  0  0
   44.5022    3.4228   10.9653 O   0  0  0  0  0  0  0  0  0  0  0  0
   44.7333    2.9736    9.6269 N   0  0  0  0  0  0  0  0  0  0  0  0
   44.4109    1.7888    9.4992 O   0  0  0  0  0  0  0  0  0  0  0  0
   43.1237    5.1515   12.8392 C   0  0  0  0  0  0  0  0  0  0  0  0
   43.1750    5.2417   10.9160 C   0  0  0  0  0  0  0  0  0  0  0  0
   44.3374    4.5775   11.6553 C   0  0  0  0  0  0  0  0  0  0  0  0
   44.7402    3.2892   10.9337 C   0  0  0  0  0  0  0  0  0  0  0  0
   45.5562    5.5055   11.7853 C   0  0  0  0  0  0  0  0  0  0  0  0
   45.2903    6.7597   12.6156 C   0  0  0  0  0  0  0  0  0  0  0  0
   46.5211    7.4687   12.7507 O   0  0  0  0  0  0  0  0  0  0  0  0
   46.2926    8.6405   13.5388 N   0  0  0  0  0  0  0  0  0  0  0  0
   47.3358    9.2854   13.6805 O   0  0  0  0  0  0  0  0  0  0  0  0
   46.7937    8.0163   12.8050 H   0  0  0  0  0  0  0  0  0  0  0  0
   47.1035    6.3173   13.1981 H   0  0  0  0  0  0  0  0  0  0  0  0
   46.8741    6.8214   11.5099 H   0  0  0  0  0  0  0  0  0  0  0  0
   44.7483    7.0922   13.6894 H   0  0  0  0  0  0  0  0  0  0  0  0
   44.5117    7.4095   11.9747 H   0  0  0  0  0  0  0  0  0  0  0  0
   45.1680    4.6652   13.1923 H   0  0  0  0  0  0  0  0  0  0  0  0
   45.9516    4.8773   10.8293 H   0  0  0  0  0  0  0  0  0  0  0  0
   44.3158    5.3920   10.3375 H   0  0  0  0  0  0  0  0  0  0  0  0
   42.9282    5.5010   13.8586 H   0  0  0  0  0  0  0  0  0  0  0  0
   42.4973    5.7344   12.1554 H   0  0  0  0  0  0  0  0  0  0  0  0
   42.8035    4.1060   12.7855 H   0  0  0  0  0  0  0  0  0  0  0  0
   43.4835    5.5934    9.9257 H   0  0  0  0  0  0  0  0  0  0  0  0
   42.7834    6.0965   11.4755 H   0  0  0  0  0  0  0  0  0  0  0  0
   42.3473    4.5369   10.7814 H   0  0  0  0  0  0  0  0  0  0  0  0
   43.9936    4.3053   12.6612 H   0  0  0  0  0  0  0  0  0  0  0  0
   45.0905    3.4958    9.9167 H   0  0  0  0  0  0  0  0  0  0  0  0
   45.5442    2.7764   11.4720 H   0  0  0  0  0  0  0  0  0  0  0  0
   43.8925    2.5990   10.8666 H   0  0  0  0  0  0  0  0  0  0  0  0
   45.9180    5.8020   10.7919 H   0  0  0  0  0  0  0  0  0  0  0  0
   46.3879    4.9551   12.2452 H   0  0  0  0  0  0  0  0  0  0  0  0
   44.9135    6.4791   13.6070 H   0  0  0  0  0  0  0  0  0  0  0  0
   44.5560    7.4022   12.1165 H   0  0  0  0  0  0  0  0  0  0  0  0
  1  2  1  0
  2  3  1  0
  3  4  1  0
  4  5  1  0
  5  6  1  0
  6  7  2  0
  3  8  1  0
  9 10  1  0
 10 11  1  0
 10 12  1  0
 12 13  1  0
 13 14  1  0
 14 15  1  0
 15 16  2  0
  1 17  1  0
  1 18  1  0
  1 19  1  0
  2 20  1  0
  2 21  1  0
  3 22  1  6
  4 23  1  0
  4 24  1  0
  8 25  1  0
  8 26  1  0
  8 27  1  0
  9 28  1  0
  9 29  1  0
  9 30  1  0
 10 31  1  0
 11 32  1  0
 11 33  1  0
 11 34  1  0
 12 35  1  0
 12 36  1  0
 13 37  1  0
 13 38  1  0
M  END
> <Uni-Dock RESULT> 
ENERGY=   -4.048  LOWER_BOUND=    3.245  UPPER_BOUND=    5.691
INTER + INTRA:          -4.048
INTER:                  -4.048
INTRA:                   0.000
UNBOUND:                 0.000

$$$$

     RDKit          3D

 38 36  0  0  0  0  0  0  0  0999 V2000
   51.3550    2.4685   17.8622 C   0  0  0  0  0  0  0  0  0  0  0  0
   50.0728    2.1646   17.1003 C   0  0  0  0  0  0  0  0  0  0  0  0
   49.1627    3.3906   16.9049 C   0  0  2  0  0  0  0  0  0  0  0  0
   48.6344    3.9438   18.2389 C   0  0  0  0  0  0  0  0  0  0  0  0
   47.8372    5.1005   17.9872 O   0  0  0  0  0  0  0  0  0  0  0  0
   47.3273    5.5889   19.2314 N   0  0  0  0  0  0  0  0  0  0  0  0
   46.6264    6.5900   19.0565 O   0  0  0  0  0  0  0  0  0  0  0  0
   48.0002    3.0222   15.9738 C   0  0  0  0  0  0  0  0  0  0  0  0
   47.2603    2.9365   17.7499 C   0  0  0  0  0  0  0  0  0  0  0  0
   48.3516    3.9661   17.4535 C   0  0  0  0  0  0  0  0  0  0  0  0
   47.9841    5.3073   18.0927 C   0  0  0  0  0  0  0  0  0  0  0  0
   49.7347    3.5134   17.9494 C   0  0  0  0  0  0  0  0  0  0  0  0
   50.2538    2.2522   17.2618 C   0  0  0  0  0  0  0  0  0  0  0  0
   51.5802    2.0095   17.7280 O   0  0  0  0  0  0  0  0  0  0  0  0
   52.0874    0.8380   17.0823 N   0  0  0  0  0  0  0  0  0  0  0  0
   53.2370    0.5913   17.4588 O   0  0  0  0  0  0  0  0  0  0  0  0
   52.0072    1.5890   17.8625 H   0  0  0  0  0  0  0  0  0  0  0  0
   51.9020    3.2950   17.3980 H   0  0  0  0  0  0  0  0  0  0  0  0
   51.1528    2.7266   18.9055 H   0  0  0  0  0  0  0  0  0  0  0  0
   50.3509    1.7644   16.1173 H   0  0  0  0  0  0  0  0  0  0  0  0
   49.5257    1.3687   17.6204 H   0  0  0  0  0  0  0  0  0  0  0  0
   49.7343    4.1832   16.4042 H   0  0  0  0  0  0  0  0  0  0  0  0
   49.4696    4.2299   18.8883 H   0  0  0  0  0  0  0  0  0  0  0  0
   48.0332    3.1808   18.7507 H   0  0  0  0  0  0  0  0  0  0  0  0
   48.3744    2.6367   15.0193 H   0  0  0  0  0  0  0  0  0  0  0  0
   47.3624    2.2532   16.4229 H   0  0  0  0  0  0  0  0  0  0  0  0
   47.3764    3.8940   15.7517 H   0  0  0  0  0  0  0  0  0  0  0  0
   47.2151    2.7023   18.8188 H   0  0  0  0  0  0  0  0  0  0  0  0
   47.4326    2.0047   17.2030 H   0  0  0  0  0  0  0  0  0  0  0  0
   46.2780    3.3135   17.4449 H   0  0  0  0  0  0  0  0  0  0  0  0
   48.3984    4.1136   16.3672 H   0  0  0  0  0  0  0  0  0  0  0  0
   47.9175    5.2235   19.1828 H   0  0  0  0  0  0  0  0  0  0  0  0
   48.7336    6.0699   17.8560 H   0  0  0  0  0  0  0  0  0  0  0  0
   47.0179    5.6644   17.7205 H   0  0  0  0  0  0  0  0  0  0  0  0
   49.7162    3.3494   19.0350 H   0  0  0  0  0  0  0  0  0  0  0  0
   50.4627    4.3201   17.7898 H   0  0  0  0  0  0  0  0  0  0  0  0
   50.2637    2.3961   16.1743 H   0  0  0  0  0  0  0  0  0  0  0  0
   49.6210    1.3921   17.5086 H   0  0  0  0  0  0  0  0  0  0  0  0
  1  2  1  0
  2  3  1  0
  3  4  1  0
  4  5  1  0
  5  6  1  0
  6  7  2  0
  3  8  1  0
  9 10  1  0
 10 11  1  0
 10 12  1  0
 12 13  1  0
 13 14  1  0
 14 15  1  0
 15 16  2  0
  1 17  1  0
  1 18  1  0
  1 19  1  0
  2 20  1  0
  2 21  1  0
  3 22  1  6
  4 23  1  0
  4 24  1  0
  8 25  1  0
  8 26  1  0
  8 27  1  0
  9 28  1  0
  9 29  1  0
  9 30  1  0
 10 31  1  0
 11 32  1  0
 11 33  1  0
 11 34  1  0
 12 35  1  0
 12 36  1  0
 13 37  1  0
 13 38  1  0
M  END
> <Uni-Dock RESULT> 
ENERGY=   -3.931  LOWER_BOUND=    9.015  UPPER_BOUND=   10.097
INTER + INTRA:          -3.931
INTER:                  -3.931
INTRA:                   0.000
UNBOUND:                 0.000

$$$$

     RDKit          3D

 38 36  0  0  0  0  0  0  0  0999 V2000
   45.7020    9.2846   12.6456 C   0  0  0  0  0  0  0  0  0  0  0  0
   44.8841    8.2794   11.8470 C   0  0  0  0  0  0  0  0  0  0  0  0
   44.7552    6.9050   12.5281 C   0  0  2  0  0  0  0  0  0  0  0  0
   46.1114    6.1939   12.6689 C   0  0  0  0  0  0  0  0  0  0  0  0
   45.9243    4.9510   13.3451 O   0  0  0  0  0  0  0  0  0  0  0  0
   47.1867    4.2853   13.4441 N   0  0  0  0  0  0  0  0  0  0  0  0
   47.0673    3.2004   14.0209 O   0  0  0  0  0  0  0  0  0  0  0  0
   43.7671    6.0341   11.7410 C   0  0  0  0  0  0  0  0  0  0  0  0
   45.5105    5.4339   11.1846 C   0  0  0  0  0  0  0  0  0  0  0  0
   45.3222    5.9252   12.6206 C   0  0  0  0  0  0  0  0  0  0  0  0
   46.0489    4.9871   13.5872 C   0  0  0  0  0  0  0  0  0  0  0  0
   45.8215    7.3659   12.8174 C   0  0  0  0  0  0  0  0  0  0  0  0
   45.0566    8.4012   11.9951 C   0  0  0  0  0  0  0  0  0  0  0  0
   45.5403    9.6946   12.3538 O   0  0  0  0  0  0  0  0  0  0  0  0
   44.8236   10.6784   11.6021 N   0  0  0  0  0  0  0  0  0  0  0  0
   45.2127   11.8159   11.8831 O   0  0  0  0  0  0  0  0  0  0  0  0
   45.6550   10.2686   12.1678 H   0  0  0  0  0  0  0  0  0  0  0  0
   45.3160    9.3847   13.6648 H   0  0  0  0  0  0  0  0  0  0  0  0
   46.7555    8.9961   12.6984 H   0  0  0  0  0  0  0  0  0  0  0  0
   43.8821    8.7012   11.6987 H   0  0  0  0  0  0  0  0  0  0  0  0
   45.3280    8.1656   10.8504 H   0  0  0  0  0  0  0  0  0  0  0  0
   44.3310    7.0421   13.5316 H   0  0  0  0  0  0  0  0  0  0  0  0
   46.8033    6.8095   13.2549 H   0  0  0  0  0  0  0  0  0  0  0  0
   46.5479    6.0168   11.6772 H   0  0  0  0  0  0  0  0  0  0  0  0
   42.7974    6.5347   11.6475 H   0  0  0  0  0  0  0  0  0  0  0  0
   44.1397    5.8267   10.7321 H   0  0  0  0  0  0  0  0  0  0  0  0
   43.5932    5.0767   12.2426 H   0  0  0  0  0  0  0  0  0  0  0  0
   46.5574    5.5119   10.8723 H   0  0  0  0  0  0  0  0  0  0  0  0
   44.9007    6.0110   10.4829 H   0  0  0  0  0  0  0  0  0  0  0  0
   45.2071    4.3856   11.0902 H   0  0  0  0  0  0  0  0  0  0  0  0
   44.2516    5.8884   12.8583 H   0  0  0  0  0  0  0  0  0  0  0  0
   47.1275    4.9770   13.3964 H   0  0  0  0  0  0  0  0  0  0  0  0
   45.8907    5.2986   14.6251 H   0  0  0  0  0  0  0  0  0  0  0  0
   45.6775    3.9616   13.4879 H   0  0  0  0  0  0  0  0  0  0  0  0
   46.8909    7.4354   12.5781 H   0  0  0  0  0  0  0  0  0  0  0  0
   45.7428    7.6388   13.8783 H   0  0  0  0  0  0  0  0  0  0  0  0
   43.9836    8.3333   12.2128 H   0  0  0  0  0  0  0  0  0  0  0  0
   45.2209    8.2383   10.9238 H   0  0  0  0  0  0  0  0  0  0  0  0
  1  2  1  0
  2  3  1  0
  3  4  1  0
  4  5  1  0
  5  6  1  0
  6  7  2  0
  3  8  1  0
  9 10  1  0
 10 11  1  0
 10 12  1  0
 12 13  1  0
 13 14  1  0
 14 15  1  0
 15 16  2  0
  1 17  1  0
  1 18  1  0
  1 19  1  0
  2 20  1  0
  2 21  1  0
  3 22  1  6
  4 23  1  0
  4 24  1  0
  8 25  1  0
  8 26  1  0
  8 27  1  0
  9 28  1  0
  9 29  1  0
  9 30  1  0
 10 31  1  0
 11 32  1  0
 11 33  1  0
 11 34  1  0
 12 35  1  0
 12 36  1  0
 13 37  1  0
 13 38  1  0
M  END
> <Uni-Dock RESULT> 
ENERGY=   -3.926  LOWER_BOUND=    4.742  UPPER_BOUND=    6.598
INTER + INTRA:          -3.926
INTER:                  -3.926
INTRA:                   0.000
UNBOUND:                 0.000

$$$$

     RDKit          3D

 38 36  0  0  0  0  0  0  0  0999 V2000
   45.3048    8.9811   12.4612 C   0  0  0  0  0  0  0  0  0  0  0  0
   46.8203    8.8523   12.5216 C   0  0  0  0  0  0  0  0  0  0  0  0
   47.3247    7.4037   12.3926 C   0  0  2  0  0  0  0  0  0  0  0  0
   46.8683    6.5202   13.5655 C   0  0  0  0  0  0  0  0  0  0  0  0
   47.3322    5.1862   13.3595 O   0  0  0  0  0  0  0  0  0  0  0  0
   46.9275    4.3805   14.4702 N   0  0  0  0  0  0  0  0  0  0  0  0
   47.3142    3.2163   14.3325 O   0  0  0  0  0  0  0  0  0  0  0  0
   48.8547    7.4025   12.2779 C   0  0  0  0  0  0  0  0  0  0  0  0
   48.4942    6.9603   14.1174 C   0  0  0  0  0  0  0  0  0  0  0  0
   47.5163    6.4902   13.0397 C   0  0  0  0  0  0  0  0  0  0  0  0
   47.1031    5.0421   13.3131 C   0  0  0  0  0  0  0  0  0  0  0  0
   46.2669    7.3817   12.9527 C   0  0  0  0  0  0  0  0  0  0  0  0
   46.5650    8.8228   12.5435 C   0  0  0  0  0  0  0  0  0  0  0  0
   45.3211    9.5048   12.3915 O   0  0  0  0  0  0  0  0  0  0  0  0
   45.5820   10.8541   11.9941 N   0  0  0  0  0  0  0  0  0  0  0  0
   44.5286   11.4819   11.8511 O   0  0  0  0  0  0  0  0  0  0  0  0
   45.0200   10.0381   12.4384 H   0  0  0  0  0  0  0  0  0  0  0  0
   44.9049    8.5035   11.5613 H   0  0  0  0  0  0  0  0  0  0  0  0
   44.8266    8.5319   13.3362 H   0  0  0  0  0  0  0  0  0  0  0  0
   47.2430    9.4529   11.7065 H   0  0  0  0  0  0  0  0  0  0  0  0
   47.1816    9.2948   13.4581 H   0  0  0  0  0  0  0  0  0  0  0  0
   46.9342    6.9713   11.4618 H   0  0  0  0  0  0  0  0  0  0  0  0
   45.7741    6.5040   13.6248 H   0  0  0  0  0  0  0  0  0  0  0  0
   47.2685    6.9124   14.5096 H   0  0  0  0  0  0  0  0  0  0  0  0
   49.1816    8.0238   11.4372 H   0  0  0  0  0  0  0  0  0  0  0  0
   49.3198    7.7939   13.1891 H   0  0  0  0  0  0  0  0  0  0  0  0
   49.2403    6.3923   12.1065 H   0  0  0  0  0  0  0  0  0  0  0  0
   48.0079    7.0177   15.0971 H   0  0  0  0  0  0  0  0  0  0  0  0
   48.9036    7.9471   13.8809 H   0  0  0  0  0  0  0  0  0  0  0  0
   49.3411    6.2705   14.2006 H   0  0  0  0  0  0  0  0  0  0  0  0
   48.0339    6.5146   12.0724 H   0  0  0  0  0  0  0  0  0  0  0  0
   46.5822    4.9514   14.2724 H   0  0  0  0  0  0  0  0  0  0  0  0
   46.4349    4.6729   12.5279 H   0  0  0  0  0  0  0  0  0  0  0  0
   47.9791    4.3853   13.3396 H   0  0  0  0  0  0  0  0  0  0  0  0
   45.7316    7.3836   13.9114 H   0  0  0  0  0  0  0  0  0  0  0  0
   45.5619    6.9541   12.2272 H   0  0  0  0  0  0  0  0  0  0  0  0
   47.1135    8.8361   11.5935 H   0  0  0  0  0  0  0  0  0  0  0  0
   47.1609    9.3253   13.3139 H   0  0  0  0  0  0  0  0  0  0  0  0
  1  2  1  0
  2  3  1  0
  3  4  1  0
  4  5  1  0
  5  6  1  0
  6  7  2  0
  3  8  1  0
  9 10  1  0
 10 11  1  0
 10 12  1  0
 12 13  1  0
 13 14  1  0
 14 15  1  0
 15 16  2  0
  1 17  1  0
  1 18  1  0
  1 19  1  0
  2 20  1  0
  2 21  1  0
  3 22  1  6
  4 23  1  0
  4 24  1  0
  8 25  1  0
  8 26  1  0
  8 27  1  0
  9 28  1  0
  9 29  1  0
  9 30  1  0
 10 31  1  0
 11 32  1  0
 11 33  1  0
 11 34  1  0
 12 35  1  0
 12 36  1  0
 13 37  1  0
 13 38  1  0
M  END
> <Uni-Dock RESULT> 
ENERGY=   -3.833  LOWER_BOUND=    5.898  UPPER_BOUND=    7.235
INTER + INTRA:          -3.833
INTER:                  -3.833
INTRA:                   0.000
UNBOUND:                 0.000

$$$$

     RDKit          3D

 38 36  0  0  0  0  0  0  0  0999 V2000
   46.7215    3.8076   13.6421 C   0  0  0  0  0  0  0  0  0  0  0  0
   45.4343    4.6114   13.5235 C   0  0  0  0  0  0  0  0  0  0  0  0
   44.5100    4.1370   12.3877 C   0  0  2  0  0  0  0  0  0  0  0  0
   45.1474    4.3223   11.0006 C   0  0  0  0  0  0  0  0  0  0  0  0
   44.2578    3.8234   10.0022 O   0  0  0  0  0  0  0  0  0  0  0  0
   44.8478    4.0278    8.7151 N   0  0  0  0  0  0  0  0  0  0  0  0
   44.1054    3.6123    7.8205 O   0  0  0  0  0  0  0  0  0  0  0  0
   43.1715    4.8822   12.4718 C   0  0  0  0  0  0  0  0  0  0  0  0
   44.1605    5.7919   11.0921 C   0  0  0  0  0  0  0  0  0  0  0  0
   44.3585    4.2862   11.2720 C   0  0  0  0  0  0  0  0  0  0  0  0
   44.3858    3.6014    9.9034 C   0  0  0  0  0  0  0  0  0  0  0  0
   45.6430    3.9524   12.0480 C   0  0  0  0  0  0  0  0  0  0  0  0
   45.6498    4.4755   13.4831 C   0  0  0  0  0  0  0  0  0  0  0  0
   46.8366    4.0039   14.1191 O   0  0  0  0  0  0  0  0  0  0  0  0
   46.8520    4.4737   15.4703 N   0  0  0  0  0  0  0  0  0  0  0  0
   47.8660    4.0869   16.0588 O   0  0  0  0  0  0  0  0  0  0  0  0
   47.2737    4.1156   14.5359 H   0  0  0  0  0  0  0  0  0  0  0  0
   46.5104    2.7371   13.7272 H   0  0  0  0  0  0  0  0  0  0  0  0
   47.3769    3.9663   12.7812 H   0  0  0  0  0  0  0  0  0  0  0  0
   44.8985    4.5335   14.4778 H   0  0  0  0  0  0  0  0  0  0  0  0
   45.6834    5.6711   13.3884 H   0  0  0  0  0  0  0  0  0  0  0  0
   44.2910    3.0702   12.5276 H   0  0  0  0  0  0  0  0  0  0  0  0
   46.0894    3.7656   10.9386 H   0  0  0  0  0  0  0  0  0  0  0  0
   45.3520    5.3858   10.8198 H   0  0  0  0  0  0  0  0  0  0  0  0
   42.7111    4.7438   13.4559 H   0  0  0  0  0  0  0  0  0  0  0  0
   43.3065    5.9570   12.3092 H   0  0  0  0  0  0  0  0  0  0  0  0
   42.4620    4.5120   11.7246 H   0  0  0  0  0  0  0  0  0  0  0  0
   45.0243    6.2498   10.5983 H   0  0  0  0  0  0  0  0  0  0  0  0
   44.0120    6.2919   12.0539 H   0  0  0  0  0  0  0  0  0  0  0  0
   43.2746    5.9966   10.4811 H   0  0  0  0  0  0  0  0  0  0  0  0
   43.4990    3.8910   11.8279 H   0  0  0  0  0  0  0  0  0  0  0  0
   45.2243    3.9592    9.2963 H   0  0  0  0  0  0  0  0  0  0  0  0
   44.4847    2.5162   10.0128 H   0  0  0  0  0  0  0  0  0  0  0  0
   43.4601    3.7966    9.3517 H   0  0  0  0  0  0  0  0  0  0  0  0
   46.5216    4.3439   11.5185 H   0  0  0  0  0  0  0  0  0  0  0  0
   45.7816    2.8633   12.0753 H   0  0  0  0  0  0  0  0  0  0  0  0
   44.7686    4.1043   14.0208 H   0  0  0  0  0  0  0  0  0  0  0  0
   45.6459    5.5715   13.4924 H   0  0  0  0  0  0  0  0  0  0  0  0
  1  2  1  0
  2  3  1  0
  3  4  1  0
  4  5  1  0
  5  6  1  0
  6  7  2  0
  3  8  1  0
  9 10  1  0
 10 11  1  0
 10 12  1  0
 12 13  1  0
 13 14  1  0
 14 15  1  0
 15 16  2  0
  1 17  1  0
  1 18  1  0
  1 19  1  0
  2 20  1  0
  2 21  1  0
  3 22  1  6
  4 23  1  0
  4 24  1  0
  8 25  1  0
  8 26  1  0
  8 27  1  0
  9 28  1  0
  9 29  1  0
  9 30  1  0
 10 31  1  0
 11 32  1  0
 11 33  1  0
 11 34  1  0
 12 35  1  0
 12 36  1  0
 13 37  1  0
 13 38  1  0
M  END
> <Uni-Dock RESULT> 
ENERGY=   -3.796  LOWER_BOUND=    3.321  UPPER_BOUND=    5.549
INTER + INTRA:          -3.796
INTER:                  -3.796
INTRA:                   0.000
UNBOUND:                 0.000

$$$$

     RDKit          3D

 38 36  0  0  0  0  0  0  0  0999 V2000
   47.6348    5.5835   14.2253 C   0  0  0  0  0  0  0  0  0  0  0  0
   46.8254    6.3449   13.1851 C   0  0  0  0  0  0  0  0  0  0  0  0
   45.3982    5.8020   12.9915 C   0  0  2  0  0  0  0  0  0  0  0  0
   45.3896    4.3681   12.4359 C   0  0  0  0  0  0  0  0  0  0  0  0
   44.0412    3.9139   12.3234 O   0  0  0  0  0  0  0  0  0  0  0  0
   44.0441    2.5913   11.7782 N   0  0  0  0  0  0  0  0  0  0  0  0
   42.8926    2.1620   11.6605 O   0  0  0  0  0  0  0  0  0  0  0  0
   44.6126    6.7439   12.0697 C   0  0  0  0  0  0  0  0  0  0  0  0
   45.1653    5.2875   10.9371 C   0  0  0  0  0  0  0  0  0  0  0  0
   44.8460    5.0012   12.4050 C   0  0  0  0  0  0  0  0  0  0  0  0
   44.0210    3.7166   12.5134 C   0  0  0  0  0  0  0  0  0  0  0  0
   46.1127    4.8821   13.2680 C   0  0  0  0  0  0  0  0  0  0  0  0
   46.9344    6.1678   13.3377 C   0  0  0  0  0  0  0  0  0  0  0  0
   48.0090    5.9558   14.2519 O   0  0  0  0  0  0  0  0  0  0  0  0
   48.7816    7.1566   14.3400 N   0  0  0  0  0  0  0  0  0  0  0  0
   49.7252    7.0159   15.1235 O   0  0  0  0  0  0  0  0  0  0  0  0
   48.5900    6.0895   14.3998 H   0  0  0  0  0  0  0  0  0  0  0  0
   47.1004    5.5316   15.1790 H   0  0  0  0  0  0  0  0  0  0  0  0
   47.8591    4.5651   13.8956 H   0  0  0  0  0  0  0  0  0  0  0  0
   46.7699    7.3938   13.5022 H   0  0  0  0  0  0  0  0  0  0  0  0
   47.3655    6.3333   12.2304 H   0  0  0  0  0  0  0  0  0  0  0  0
   44.8824    5.8000   13.9608 H   0  0  0  0  0  0  0  0  0  0  0  0
   45.9292    3.6959   13.1126 H   0  0  0  0  0  0  0  0  0  0  0  0
   45.8746    4.3435   11.4512 H   0  0  0  0  0  0  0  0  0  0  0  0
   44.6095    7.7640   12.4684 H   0  0  0  0  0  0  0  0  0  0  0  0
   45.0527    6.7736   11.0670 H   0  0  0  0  0  0  0  0  0  0  0  0
   43.5689    6.4279   11.9735 H   0  0  0  0  0  0  0  0  0  0  0  0
   45.8309    4.5246   10.5194 H   0  0  0  0  0  0  0  0  0  0  0  0
   45.6459    6.2631   10.8168 H   0  0  0  0  0  0  0  0  0  0  0  0
   44.2494    5.3021   10.3364 H   0  0  0  0  0  0  0  0  0  0  0  0
   44.2341    5.8265   12.7905 H   0  0  0  0  0  0  0  0  0  0  0  0
   44.5795    2.8523   12.1381 H   0  0  0  0  0  0  0  0  0  0  0  0
   43.7461    3.5170   13.5545 H   0  0  0  0  0  0  0  0  0  0  0  0
   43.0945    3.7987   11.9352 H   0  0  0  0  0  0  0  0  0  0  0  0
   46.7503    4.0674   12.8999 H   0  0  0  0  0  0  0  0  0  0  0  0
   45.8334    4.5933   14.2901 H   0  0  0  0  0  0  0  0  0  0  0  0
   46.3057    6.9949   13.6901 H   0  0  0  0  0  0  0  0  0  0  0  0
   47.3426    6.4166   12.3515 H   0  0  0  0  0  0  0  0  0  0  0  0
  1  2  1  0
  2  3  1  0
  3  4  1  0
  4  5  1  0
  5  6  1  0
  6  7  2  0
  3  8  1  0
  9 10  1  0
 10 11  1  0
 10 12  1  0
 12 13  1  0
 13 14  1  0
 14 15  1  0
 15 16  2  0
  1 17  1  0
  1 18  1  0
  1 19  1  0
  2 20  1  0
  2 21  1  0
  3 22  1  6
  4 23  1  0
  4 24  1  0
  8 25  1  0
  8 26  1  0
  8 27  1  0
  9 28  1  0
  9 29  1  0
  9 30  1  0
 10 31  1  0
 11 32  1  0
 11 33  1  0
 11 34  1  0
 12 35  1  0
 12 36  1  0
 13 37  1  0
 13 38  1  0
M  END
> <Uni-Dock RESULT> 
ENERGY=   -3.683  LOWER_BOUND=    4.248  UPPER_BOUND=    6.022
INTER + INTRA:          -3.683
INTER:                  -3.683
INTRA:                   0.000
UNBOUND:                 0.000

$$$$
