
     RDKit          3D

 38 36  0  0  0  0  0  0  0  0999 V2000
   44.7169    3.0967   11.6894 C   0  0  0  0  0  0  0  0  0  0  0  0
   45.0066    2.8622   10.2133 C   0  0  0  0  0  0  0  0  0  0  0  0
   44.5510    4.0222    9.3065 C   0  0  2  0  0  0  0  0  0  0  0  0
   44.6886    3.6358    7.8227 C   0  0  0  0  0  0  0  0  0  0  0  0
   46.0540    3.3773    7.5062 O   0  0  0  0  0  0  0  0  0  0  0  0
   46.1477    3.0205    6.1243 N   0  0  0  0  0  0  0  0  0  0  0  0
   47.3182    2.7873    5.8090 O   0  0  0  0  0  0  0  0  0  0  0  0
   45.3283    5.3094    9.5988 C   0  0  0  0  0  0  0  0  0  0  0  0
   43.9195    2.9652   10.6559 C   0  0  0  0  0  0  0  0  0  0  0  0
   44.2319    4.1842    9.7870 C   0  0  0  0  0  0  0  0  0  0  0  0
   44.1163    5.4596   10.6251 C   0  0  0  0  0  0  0  0  0  0  0  0
   45.6274    4.1055    9.1466 C   0  0  0  0  0  0  0  0  0  0  0  0
   45.7956    2.9376    8.1765 C   0  0  0  0  0  0  0  0  0  0  0  0
   47.0840    3.0468    7.5735 O   0  0  0  0  0  0  0  0  0  0  0  0
   47.2526    1.9670    6.6502 N   0  0  0  0  0  0  0  0  0  0  0  0
   48.3585    2.0239    6.1045 O   0  0  0  0  0  0  0  0  0  0  0  0
   44.9672    2.2010   12.2671 H   0  0  0  0  0  0  0  0  0  0  0  0
   43.6575    3.3188   11.8519 H   0  0  0  0  0  0  0  0  0  0  0  0
   45.3109    3.9233   12.0896 H   0  0  0  0  0  0  0  0  0  0  0  0
   46.0801    2.6766   10.0874 H   0  0  0  0  0  0  0  0  0  0  0  0
   44.4895    1.9444    9.9069 H   0  0  0  0  0  0  0  0  0  0  0  0
   43.4876    4.2170    9.4967 H   0  0  0  0  0  0  0  0  0  0  0  0
   44.3126    4.4542    7.1946 H   0  0  0  0  0  0  0  0  0  0  0  0
   44.0860    2.7408    7.6196 H   0  0  0  0  0  0  0  0  0  0  0  0
   46.4095    5.1537    9.5216 H   0  0  0  0  0  0  0  0  0  0  0  0
   45.1112    5.6830   10.6042 H   0  0  0  0  0  0  0  0  0  0  0  0
   45.0486    6.0994    8.8933 H   0  0  0  0  0  0  0  0  0  0  0  0
   42.9485    3.0792   11.1499 H   0  0  0  0  0  0  0  0  0  0  0  0
   44.6791    2.8261   11.4325 H   0  0  0  0  0  0  0  0  0  0  0  0
   43.8717    2.0508   10.0570 H   0  0  0  0  0  0  0  0  0  0  0  0
   43.4811    4.2381    8.9886 H   0  0  0  0  0  0  0  0  0  0  0  0
   43.1144    5.5519   11.0578 H   0  0  0  0  0  0  0  0  0  0  0  0
   44.8418    5.4634   11.4458 H   0  0  0  0  0  0  0  0  0  0  0  0
   44.2955    6.3476   10.0096 H   0  0  0  0  0  0  0  0  0  0  0  0
   46.4009    4.0419    9.9232 H   0  0  0  0  0  0  0  0  0  0  0  0
   45.8349    5.0383    8.6054 H   0  0  0  0  0  0  0  0  0  0  0  0
   45.0193    2.9794    7.4024 H   0  0  0  0  0  0  0  0  0  0  0  0
   45.7258    1.9825    8.7095 H   0  0  0  0  0  0  0  0  0  0  0  0
  1  2  1  0
  2  3  1  0
  3  4  1  0
  4  5  1  0
  5  6  1  0
  6  7  2  0
  3  8  1  0
  9 10  1  0
 10 11  1  0
 10 12  1  0
 12 13  1  0
 13 14  1  0
 14 15  1  0
 15 16  2  0
  1 17  1  0
  1 18  1  0
  1 19  1  0
  2 20  1  0
  2 21  1  0
  3 22  1  1
  4 23  1  0
  4 24  1  0
  8 25  1  0
  8 26  1  0
  8 27  1  0
  9 28  1  0
  9 29  1  0
  9 30  1  0
 10 31  1  0
 11 32  1  0
 11 33  1  0
 11 34  1  0
 12 35  1  0
 12 36  1  0
 13 37  1  0
 13 38  1  0
M  END
> <Uni-Dock RESULT> 
ENERGY=   -5.311  LOWER_BOUND=    0.000  UPPER_BOUND=    0.000
INTER + INTRA:          -5.311
INTER:                  -5.311
INTRA:                   0.000
UNBOUND:                 0.000

$$$$

     RDKit          3D

 38 36  0  0  0  0  0  0  0  0999 V2000
   45.3948    5.3729   13.1879 C   0  0  0  0  0  0  0  0  0  0  0  0
   45.4136    4.5947   11.8795 C   0  0  0  0  0  0  0  0  0  0  0  0
   44.0089    4.2187   11.3688 C   0  0  2  0  0  0  0  0  0  0  0  0
   44.1079    3.2685   10.1616 C   0  0  0  0  0  0  0  0  0  0  0  0
   44.7800    3.9127    9.0824 O   0  0  0  0  0  0  0  0  0  0  0  0
   44.8569    3.0053    7.9795 N   0  0  0  0  0  0  0  0  0  0  0  0
   45.4346    3.5265    7.0210 O   0  0  0  0  0  0  0  0  0  0  0  0
   43.1861    5.4593   11.0074 C   0  0  0  0  0  0  0  0  0  0  0  0
   45.0107    4.1531   12.8949 C   0  0  0  0  0  0  0  0  0  0  0  0
   43.8424    4.3527   11.9285 C   0  0  0  0  0  0  0  0  0  0  0  0
   42.8132    5.2996   12.5503 C   0  0  0  0  0  0  0  0  0  0  0  0
   44.2964    4.8984   10.5648 C   0  0  0  0  0  0  0  0  0  0  0  0
   45.2205    3.9534    9.7991 C   0  0  0  0  0  0  0  0  0  0  0  0
   45.4723    4.5253    8.5165 O   0  0  0  0  0  0  0  0  0  0  0  0
   46.3260    3.6447    7.7800 N   0  0  0  0  0  0  0  0  0  0  0  0
   46.5698    4.1036    6.6601 O   0  0  0  0  0  0  0  0  0  0  0  0
   46.4173    5.5203   13.5507 H   0  0  0  0  0  0  0  0  0  0  0  0
   44.8370    4.8325   13.9591 H   0  0  0  0  0  0  0  0  0  0  0  0
   44.9446    6.3617   13.0615 H   0  0  0  0  0  0  0  0  0  0  0  0
   45.9510    5.1818   11.1251 H   0  0  0  0  0  0  0  0  0  0  0  0
   45.9940    3.6772   12.0379 H   0  0  0  0  0  0  0  0  0  0  0  0
   43.4799    3.6808   12.1661 H   0  0  0  0  0  0  0  0  0  0  0  0
   43.0992    2.9728    9.8444 H   0  0  0  0  0  0  0  0  0  0  0  0
   44.6572    2.3633   10.4519 H   0  0  0  0  0  0  0  0  0  0  0  0
   43.7091    6.0930   10.2835 H   0  0  0  0  0  0  0  0  0  0  0  0
   42.9720    6.0640   11.8940 H   0  0  0  0  0  0  0  0  0  0  0  0
   42.2228    5.1719   10.5722 H   0  0  0  0  0  0  0  0  0  0  0  0
   44.6508    3.8267   13.8767 H   0  0  0  0  0  0  0  0  0  0  0  0
   45.5742    5.0820   13.0336 H   0  0  0  0  0  0  0  0  0  0  0  0
   45.7009    3.3855   12.5324 H   0  0  0  0  0  0  0  0  0  0  0  0
   43.3549    3.3818   11.7742 H   0  0  0  0  0  0  0  0  0  0  0  0
   42.4493    4.9064   13.5055 H   0  0  0  0  0  0  0  0  0  0  0  0
   43.2436    6.2902   12.7332 H   0  0  0  0  0  0  0  0  0  0  0  0
   41.9480    5.4221   11.8901 H   0  0  0  0  0  0  0  0  0  0  0  0
   44.7966    5.8680   10.6888 H   0  0  0  0  0  0  0  0  0  0  0  0
   43.4160    5.1033    9.9410 H   0  0  0  0  0  0  0  0  0  0  0  0
   44.7396    2.9745    9.6806 H   0  0  0  0  0  0  0  0  0  0  0  0
   46.1700    3.8292   10.3322 H   0  0  0  0  0  0  0  0  0  0  0  0
  1  2  1  0
  2  3  1  0
  3  4  1  0
  4  5  1  0
  5  6  1  0
  6  7  2  0
  3  8  1  0
  9 10  1  0
 10 11  1  0
 10 12  1  0
 12 13  1  0
 13 14  1  0
 14 15  1  0
 15 16  2  0
  1 17  1  0
  1 18  1  0
  1 19  1  0
  2 20  1  0
  2 21  1  0
  3 22  1  1
  4 23  1  0
  4 24  1  0
  8 25  1  0
  8 26  1  0
  8 27  1  0
  9 28  1  0
  9 29  1  0
  9 30  1  0
 10 31  1  0
 11 32  1  0
 11 33  1  0
 11 34  1  0
 12 35  1  0
 12 36  1  0
 13 37  1  0
 13 38  1  0
M  END
> <Uni-Dock RESULT> 
ENERGY=   -4.675  LOWER_BOUND=    1.636  UPPER_BOUND=    2.381
INTER + INTRA:          -4.675
INTER:                  -4.675
INTRA:                   0.000
UNBOUND:                 0.000

$$$$

     RDKit          3D

 38 36  0  0  0  0  0  0  0  0999 V2000
   46.1389    3.4464    7.7509 C   0  0  0  0  0  0  0  0  0  0  0  0
   45.5419    4.4514    8.7262 C   0  0  0  0  0  0  0  0  0  0  0  0
   44.4081    3.8676    9.5918 C   0  0  2  0  0  0  0  0  0  0  0  0
   43.7196    4.9795   10.4042 C   0  0  0  0  0  0  0  0  0  0  0  0
   44.6508    5.5841   11.2979 O   0  0  0  0  0  0  0  0  0  0  0  0
   43.9822    6.6114   12.0351 N   0  0  0  0  0  0  0  0  0  0  0  0
   44.7569    7.1621   12.8229 O   0  0  0  0  0  0  0  0  0  0  0  0
   44.9167    2.7618   10.5218 C   0  0  0  0  0  0  0  0  0  0  0  0
   44.9346    3.9584    7.8450 C   0  0  0  0  0  0  0  0  0  0  0  0
   44.4094    3.4315    9.1810 C   0  0  0  0  0  0  0  0  0  0  0  0
   44.5471    1.9079    9.2260 C   0  0  0  0  0  0  0  0  0  0  0  0
   45.1348    4.0567   10.3837 C   0  0  0  0  0  0  0  0  0  0  0  0
   44.9375    5.5664   10.5061 C   0  0  0  0  0  0  0  0  0  0  0  0
   45.5623    5.9967   11.7145 O   0  0  0  0  0  0  0  0  0  0  0  0
   45.3745    7.4082   11.8520 N   0  0  0  0  0  0  0  0  0  0  0  0
   45.9019    7.8230   12.8883 O   0  0  0  0  0  0  0  0  0  0  0  0
   46.8629    3.9436    7.0972 H   0  0  0  0  0  0  0  0  0  0  0  0
   45.3630    3.0020    7.1198 H   0  0  0  0  0  0  0  0  0  0  0  0
   46.6650    2.6423    8.2735 H   0  0  0  0  0  0  0  0  0  0  0  0
   46.3428    4.8486    9.3613 H   0  0  0  0  0  0  0  0  0  0  0  0
   45.1502    5.2965    8.1464 H   0  0  0  0  0  0  0  0  0  0  0  0
   43.6510    3.4312    8.9274 H   0  0  0  0  0  0  0  0  0  0  0  0
   42.8842    4.5526   10.9746 H   0  0  0  0  0  0  0  0  0  0  0  0
   43.3177    5.7381    9.7198 H   0  0  0  0  0  0  0  0  0  0  0  0
   45.7461    3.1101   11.1462 H   0  0  0  0  0  0  0  0  0  0  0  0
   45.2632    1.8941    9.9521 H   0  0  0  0  0  0  0  0  0  0  0  0
   44.1165    2.4145   11.1844 H   0  0  0  0  0  0  0  0  0  0  0  0
   44.4460    3.4486    7.0075 H   0  0  0  0  0  0  0  0  0  0  0  0
   46.0145    3.8001    7.7528 H   0  0  0  0  0  0  0  0  0  0  0  0
   44.7353    5.0283    7.7325 H   0  0  0  0  0  0  0  0  0  0  0  0
   43.3413    3.6741    9.2496 H   0  0  0  0  0  0  0  0  0  0  0  0
   44.0028    1.4429    8.3972 H   0  0  0  0  0  0  0  0  0  0  0  0
   45.5965    1.6012    9.1570 H   0  0  0  0  0  0  0  0  0  0  0  0
   44.1371    1.5072   10.1591 H   0  0  0  0  0  0  0  0  0  0  0  0
   46.2096    3.8372   10.3376 H   0  0  0  0  0  0  0  0  0  0  0  0
   44.7813    3.5846   11.3102 H   0  0  0  0  0  0  0  0  0  0  0  0
   43.8667    5.8025   10.5382 H   0  0  0  0  0  0  0  0  0  0  0  0
   45.3981    6.0840    9.6570 H   0  0  0  0  0  0  0  0  0  0  0  0
  1  2  1  0
  2  3  1  0
  3  4  1  0
  4  5  1  0
  5  6  1  0
  6  7  2  0
  3  8  1  0
  9 10  1  0
 10 11  1  0
 10 12  1  0
 12 13  1  0
 13 14  1  0
 14 15  1  0
 15 16  2  0
  1 17  1  0
  1 18  1  0
  1 19  1  0
  2 20  1  0
  2 21  1  0
  3 22  1  1
  4 23  1  0
  4 24  1  0
  8 25  1  0
  8 26  1  0
  8 27  1  0
  9 28  1  0
  9 29  1  0
  9 30  1  0
 10 31  1  0
 11 32  1  0
 11 33  1  0
 11 34  1  0
 12 35  1  0
 12 36  1  0
 13 37  1  0
 13 38  1  0
M  END
> <Uni-Dock RESULT> 
ENERGY=   -4.552  LOWER_BOUND=    4.063  UPPER_BOUND=    5.018
INTER + INTRA:          -4.552
INTER:                  -4.552
INTRA:                   0.000
UNBOUND:                 0.000

$$$$

     RDKit          3D

 38 36  0  0  0  0  0  0  0  0999 V2000
   43.4752    2.6416   11.4790 C   0  0  0  0  0  0  0  0  0  0  0  0
   44.6875    3.2822   12.1406 C   0  0  0  0  0  0  0  0  0  0  0  0
   44.6653    4.8229   12.1019 C   0  0  2  0  0  0  0  0  0  0  0  0
   46.0034    5.3965   12.6024 C   0  0  0  0  0  0  0  0  0  0  0  0
   46.2224    5.0215   13.9599 O   0  0  0  0  0  0  0  0  0  0  0  0
   47.4713    5.5673   14.3935 N   0  0  0  0  0  0  0  0  0  0  0  0
   47.6993    5.2639   15.5683 O   0  0  0  0  0  0  0  0  0  0  0  0
   43.5002    5.3938   12.9162 C   0  0  0  0  0  0  0  0  0  0  0  0
   44.4387    3.3884   10.9938 C   0  0  0  0  0  0  0  0  0  0  0  0
   44.2452    4.7398   11.6829 C   0  0  0  0  0  0  0  0  0  0  0  0
   42.8030    5.2155   11.4924 C   0  0  0  0  0  0  0  0  0  0  0  0
   44.5836    4.6873   13.1817 C   0  0  0  0  0  0  0  0  0  0  0  0
   46.0464    4.3575   13.4724 C   0  0  0  0  0  0  0  0  0  0  0  0
   46.2486    4.4519   14.8816 O   0  0  0  0  0  0  0  0  0  0  0  0
   47.6189    4.1595   15.1702 N   0  0  0  0  0  0  0  0  0  0  0  0
   47.8374    4.2300   16.3832 O   0  0  0  0  0  0  0  0  0  0  0  0
   43.5973    1.5541   11.4465 H   0  0  0  0  0  0  0  0  0  0  0  0
   43.3530    2.9989   10.4517 H   0  0  0  0  0  0  0  0  0  0  0  0
   42.5559    2.8534   12.0326 H   0  0  0  0  0  0  0  0  0  0  0  0
   44.7566    2.9261   13.1755 H   0  0  0  0  0  0  0  0  0  0  0  0
   45.5862    2.9244   11.6228 H   0  0  0  0  0  0  0  0  0  0  0  0
   44.5410    5.1442   11.0597 H   0  0  0  0  0  0  0  0  0  0  0  0
   45.9865    6.4912   12.5200 H   0  0  0  0  0  0  0  0  0  0  0  0
   46.8219    5.0164   11.9770 H   0  0  0  0  0  0  0  0  0  0  0  0
   43.5126    5.0283   13.9484 H   0  0  0  0  0  0  0  0  0  0  0  0
   42.5372    5.1225   12.4727 H   0  0  0  0  0  0  0  0  0  0  0  0
   43.5463    6.4879   12.9436 H   0  0  0  0  0  0  0  0  0  0  0  0
   44.1284    3.4399    9.9445 H   0  0  0  0  0  0  0  0  0  0  0  0
   43.8485    2.6057   11.4822 H   0  0  0  0  0  0  0  0  0  0  0  0
   45.4889    3.0820   11.0054 H   0  0  0  0  0  0  0  0  0  0  0  0
   44.9061    5.4698   11.1986 H   0  0  0  0  0  0  0  0  0  0  0  0
   42.5569    5.2964   10.4283 H   0  0  0  0  0  0  0  0  0  0  0  0
   42.0913    4.5220   11.9534 H   0  0  0  0  0  0  0  0  0  0  0  0
   42.6557    6.2025   11.9434 H   0  0  0  0  0  0  0  0  0  0  0  0
   43.9421    3.9571   13.6926 H   0  0  0  0  0  0  0  0  0  0  0  0
   44.3478    5.6550   13.6443 H   0  0  0  0  0  0  0  0  0  0  0  0
   46.7005    5.0706   12.9556 H   0  0  0  0  0  0  0  0  0  0  0  0
   46.2841    3.3404   13.1405 H   0  0  0  0  0  0  0  0  0  0  0  0
  1  2  1  0
  2  3  1  0
  3  4  1  0
  4  5  1  0
  5  6  1  0
  6  7  2  0
  3  8  1  0
  9 10  1  0
 10 11  1  0
 10 12  1  0
 12 13  1  0
 13 14  1  0
 14 15  1  0
 15 16  2  0
  1 17  1  0
  1 18  1  0
  1 19  1  0
  2 20  1  0
  2 21  1  0
  3 22  1  1
  4 23  1  0
  4 24  1  0
  8 25  1  0
  8 26  1  0
  8 27  1  0
  9 28  1  0
  9 29  1  0
  9 30  1  0
 10 31  1  0
 11 32  1  0
 11 33  1  0
 11 34  1  0
 12 35  1  0
 12 36  1  0
 13 37  1  0
 13 38  1  0
M  END
> <Uni-Dock RESULT> 
ENERGY=   -4.316  LOWER_BOUND=    5.199  UPPER_BOUND=    6.011
INTER + INTRA:          -4.316
INTER:                  -4.316
INTRA:                   0.000
UNBOUND:                 0.000

$$$$

     RDKit          3D

 38 36  0  0  0  0  0  0  0  0999 V2000
   46.9654    0.5015    6.7689 C   0  0  0  0  0  0  0  0  0  0  0  0
   46.6410    1.7152    7.6289 C   0  0  0  0  0  0  0  0  0  0  0  0
   47.0791    3.0505    6.9961 C   0  0  2  0  0  0  0  0  0  0  0  0
   46.9062    4.2069    7.9976 C   0  0  0  0  0  0  0  0  0  0  0  0
   45.5330    4.3496    8.3518 O   0  0  0  0  0  0  0  0  0  0  0  0
   45.4064    5.4285    9.2822 N   0  0  0  0  0  0  0  0  0  0  0  0
   44.2281    5.5852    9.6157 O   0  0  0  0  0  0  0  0  0  0  0  0
   46.3127    3.3435    5.7026 C   0  0  0  0  0  0  0  0  0  0  0  0
   47.7384    1.3851    7.3547 C   0  0  0  0  0  0  0  0  0  0  0  0
   47.4097    2.6977    6.6423 C   0  0  0  0  0  0  0  0  0  0  0  0
   47.5485    2.5135    5.1293 C   0  0  0  0  0  0  0  0  0  0  0  0
   45.9996    3.2100    6.9783 C   0  0  0  0  0  0  0  0  0  0  0  0
   45.8055    3.5590    8.4527 C   0  0  0  0  0  0  0  0  0  0  0  0
   44.5038    4.1230    8.6050 O   0  0  0  0  0  0  0  0  0  0  0  0
   44.3107    4.4692    9.9797 N   0  0  0  0  0  0  0  0  0  0  0  0
   43.1926    4.9622   10.1559 O   0  0  0  0  0  0  0  0  0  0  0  0
   46.7258   -0.4179    7.3130 H   0  0  0  0  0  0  0  0  0  0  0  0
   48.0289    0.4746    6.5116 H   0  0  0  0  0  0  0  0  0  0  0  0
   46.3833    0.4973    5.8429 H   0  0  0  0  0  0  0  0  0  0  0  0
   45.5643    1.7250    7.8371 H   0  0  0  0  0  0  0  0  0  0  0  0
   47.1481    1.5934    8.5941 H   0  0  0  0  0  0  0  0  0  0  0  0
   48.1472    2.9869    6.7511 H   0  0  0  0  0  0  0  0  0  0  0  0
   47.2700    5.1395    7.5467 H   0  0  0  0  0  0  0  0  0  0  0  0
   47.5012    4.0042    8.8978 H   0  0  0  0  0  0  0  0  0  0  0  0
   45.2296    3.3229    5.8624 H   0  0  0  0  0  0  0  0  0  0  0  0
   46.5541    2.6119    4.9254 H   0  0  0  0  0  0  0  0  0  0  0  0
   46.5784    4.3312    5.3102 H   0  0  0  0  0  0  0  0  0  0  0  0
   48.7209    1.0115    7.0463 H   0  0  0  0  0  0  0  0  0  0  0  0
   46.9965    0.6126    7.1258 H   0  0  0  0  0  0  0  0  0  0  0  0
   47.7695    1.5179    8.4403 H   0  0  0  0  0  0  0  0  0  0  0  0
   48.1421    3.4518    6.9572 H   0  0  0  0  0  0  0  0  0  0  0  0
   48.5604    2.1859    4.8680 H   0  0  0  0  0  0  0  0  0  0  0  0
   46.8421    1.7655    4.7532 H   0  0  0  0  0  0  0  0  0  0  0  0
   47.3579    3.4550    4.6033 H   0  0  0  0  0  0  0  0  0  0  0  0
   45.2441    2.4706    6.6815 H   0  0  0  0  0  0  0  0  0  0  0  0
   45.7825    4.1041    6.3788 H   0  0  0  0  0  0  0  0  0  0  0  0
   46.5638    4.2864    8.7679 H   0  0  0  0  0  0  0  0  0  0  0  0
   45.8847    2.6597    9.0740 H   0  0  0  0  0  0  0  0  0  0  0  0
  1  2  1  0
  2  3  1  0
  3  4  1  0
  4  5  1  0
  5  6  1  0
  6  7  2  0
  3  8  1  0
  9 10  1  0
 10 11  1  0
 10 12  1  0
 12 13  1  0
 13 14  1  0
 14 15  1  0
 15 16  2  0
  1 17  1  0
  1 18  1  0
  1 19  1  0
  2 20  1  0
  2 21  1  0
  3 22  1  1
  4 23  1  0
  4 24  1  0
  8 25  1  0
  8 26  1  0
  8 27  1  0
  9 28  1  0
  9 29  1  0
  9 30  1  0
 10 31  1  0
 11 32  1  0
 11 33  1  0
 11 34  1  0
 12 35  1  0
 12 36  1  0
 13 37  1  0
 13 38  1  0
M  END
> <Uni-Dock RESULT> 
ENERGY=   -4.263  LOWER_BOUND=    2.812  UPPER_BOUND=    4.530
INTER + INTRA:          -4.263
INTER:                  -4.263
INTRA:                   0.000
UNBOUND:                 0.000

$$$$

     RDKit          3D

 38 36  0  0  0  0  0  0  0  0999 V2000
   47.6494    9.2609   13.6442 C   0  0  0  0  0  0  0  0  0  0  0  0
   46.6126    8.3192   13.0476 C   0  0  0  0  0  0  0  0  0  0  0  0
   47.2280    7.1736   12.2202 C   0  0  2  0  0  0  0  0  0  0  0  0
   46.1287    6.3848   11.4859 C   0  0  0  0  0  0  0  0  0  0  0  0
   45.2427    5.7837   12.4268 O   0  0  0  0  0  0  0  0  0  0  0  0
   44.2345    5.0613   11.7146 N   0  0  0  0  0  0  0  0  0  0  0  0
   43.4438    4.5243   12.4959 O   0  0  0  0  0  0  0  0  0  0  0  0
   48.0702    6.2350   13.0899 C   0  0  0  0  0  0  0  0  0  0  0  0
   47.3346    8.9883   12.4001 C   0  0  0  0  0  0  0  0  0  0  0  0
   47.7184    7.5175   12.2326 C   0  0  0  0  0  0  0  0  0  0  0  0
   49.1710    7.3096   12.6675 C   0  0  0  0  0  0  0  0  0  0  0  0
   46.7966    6.5771   13.0259 C   0  0  0  0  0  0  0  0  0  0  0  0
   45.3403    6.6087   12.5660 C   0  0  0  0  0  0  0  0  0  0  0  0
   44.6238    5.6176   13.3009 O   0  0  0  0  0  0  0  0  0  0  0  0
   43.2590    5.6240   12.8717 N   0  0  0  0  0  0  0  0  0  0  0  0
   42.6014    4.7781   13.4849 O   0  0  0  0  0  0  0  0  0  0  0  0
   47.1517   10.1062   14.1306 H   0  0  0  0  0  0  0  0  0  0  0  0
   48.3116    9.6590   12.8689 H   0  0  0  0  0  0  0  0  0  0  0  0
   48.2608    8.7595   14.4000 H   0  0  0  0  0  0  0  0  0  0  0  0
   45.9917    7.9164   13.8568 H   0  0  0  0  0  0  0  0  0  0  0  0
   45.9484    8.9087   12.4035 H   0  0  0  0  0  0  0  0  0  0  0  0
   47.8846    7.6088   11.4557 H   0  0  0  0  0  0  0  0  0  0  0  0
   46.5897    5.6065   10.8637 H   0  0  0  0  0  0  0  0  0  0  0  0
   45.5671    7.0628   10.8300 H   0  0  0  0  0  0  0  0  0  0  0  0
   47.4939    5.8423   13.9341 H   0  0  0  0  0  0  0  0  0  0  0  0
   48.9493    6.7493   13.4904 H   0  0  0  0  0  0  0  0  0  0  0  0
   48.4332    5.3845   12.5026 H   0  0  0  0  0  0  0  0  0  0  0  0
   48.0463    9.6371   11.8779 H   0  0  0  0  0  0  0  0  0  0  0  0
   47.3254    9.2784   13.4562 H   0  0  0  0  0  0  0  0  0  0  0  0
   46.3446    9.1919   11.9812 H   0  0  0  0  0  0  0  0  0  0  0  0
   47.6474    7.2635   11.1674 H   0  0  0  0  0  0  0  0  0  0  0  0
   49.8468    7.9443   12.0845 H   0  0  0  0  0  0  0  0  0  0  0  0
   49.3076    7.5522   13.7270 H   0  0  0  0  0  0  0  0  0  0  0  0
   49.4780    6.2695   12.5152 H   0  0  0  0  0  0  0  0  0  0  0  0
   46.8404    6.8138   14.0972 H   0  0  0  0  0  0  0  0  0  0  0  0
   47.1648    5.5460   12.9408 H   0  0  0  0  0  0  0  0  0  0  0  0
   45.2820    6.3886   11.4928 H   0  0  0  0  0  0  0  0  0  0  0  0
   44.8976    7.5924   12.7595 H   0  0  0  0  0  0  0  0  0  0  0  0
  1  2  1  0
  2  3  1  0
  3  4  1  0
  4  5  1  0
  5  6  1  0
  6  7  2  0
  3  8  1  0
  9 10  1  0
 10 11  1  0
 10 12  1  0
 12 13  1  0
 13 14  1  0
 14 15  1  0
 15 16  2  0
  1 17  1  0
  1 18  1  0
  1 19  1  0
  2 20  1  0
  2 21  1  0
  3 22  1  1
  4 23  1  0
  4 24  1  0
  8 25  1  0
  8 26  1  0
  8 27  1  0
  9 28  1  0
  9 29  1  0
  9 30  1  0
 10 31  1  0
 11 32  1  0
 11 33  1  0
 11 34  1  0
 12 35  1  0
 12 36  1  0
 13 37  1  0
 13 38  1  0
M  END
> <Uni-Dock RESULT> 
ENERGY=   -4.001  LOWER_BOUND=    5.255  UPPER_BOUND=    6.471
INTER + INTRA:          -4.001
INTER:                  -4.001
INTRA:                   0.000
UNBOUND:                 0.000

$$$$

     RDKit          3D

 38 36  0  0  0  0  0  0  0  0999 V2000
   50.8445    3.0764   17.5973 C   0  0  0  0  0  0  0  0  0  0  0  0
   50.0645    3.9565   18.5640 C   0  0  0  0  0  0  0  0  0  0  0  0
   48.6248    4.2521   18.0998 C   0  0  2  0  0  0  0  0  0  0  0  0
   47.9660    5.3017   19.0132 C   0  0  0  0  0  0  0  0  0  0  0  0
   47.8754    4.8060   20.3465 O   0  0  0  0  0  0  0  0  0  0  0  0
   47.2618    5.8028   21.1685 N   0  0  0  0  0  0  0  0  0  0  0  0
   47.1650    5.4115   22.3353 O   0  0  0  0  0  0  0  0  0  0  0  0
   47.7738    2.9796   18.0460 C   0  0  0  0  0  0  0  0  0  0  0  0
   50.3371    4.2789   17.4640 C   0  0  0  0  0  0  0  0  0  0  0  0
   48.8274    4.0598   17.5698 C   0  0  0  0  0  0  0  0  0  0  0  0
   48.3905    2.9820   16.5748 C   0  0  0  0  0  0  0  0  0  0  0  0
   48.3902    3.6664   18.9903 C   0  0  0  0  0  0  0  0  0  0  0  0
   48.6570    4.7451   20.0384 C   0  0  0  0  0  0  0  0  0  0  0  0
   48.1063    4.3020   21.2778 O   0  0  0  0  0  0  0  0  0  0  0  0
   48.3352    5.3083   22.2686 N   0  0  0  0  0  0  0  0  0  0  0  0
   47.8729    4.9636   23.3602 O   0  0  0  0  0  0  0  0  0  0  0  0
   51.8845    2.9873   17.9277 H   0  0  0  0  0  0  0  0  0  0  0  0
   50.8454    3.5036   16.5896 H   0  0  0  0  0  0  0  0  0  0  0  0
   50.4276    2.0665   17.5466 H   0  0  0  0  0  0  0  0  0  0  0  0
   50.0581    3.4799   19.5517 H   0  0  0  0  0  0  0  0  0  0  0  0
   50.6064    4.9041   18.6742 H   0  0  0  0  0  0  0  0  0  0  0  0
   48.6645    4.6772   17.0885 H   0  0  0  0  0  0  0  0  0  0  0  0
   46.9613    5.5356   18.6373 H   0  0  0  0  0  0  0  0  0  0  0  0
   48.5619    6.2238   19.0011 H   0  0  0  0  0  0  0  0  0  0  0  0
   47.7750    2.4530   19.0061 H   0  0  0  0  0  0  0  0  0  0  0  0
   48.1423    2.2893   17.2810 H   0  0  0  0  0  0  0  0  0  0  0  0
   46.7353    3.2186   17.7921 H   0  0  0  0  0  0  0  0  0  0  0  0
   50.6267    4.4933   16.4295 H   0  0  0  0  0  0  0  0  0  0  0  0
   50.8908    3.3930   17.7928 H   0  0  0  0  0  0  0  0  0  0  0  0
   50.6599    5.1290   18.0725 H   0  0  0  0  0  0  0  0  0  0  0  0
   48.3246    4.9952   17.2935 H   0  0  0  0  0  0  0  0  0  0  0  0
   48.6596    3.2645   15.5514 H   0  0  0  0  0  0  0  0  0  0  0  0
   48.8649    2.0199   16.7968 H   0  0  0  0  0  0  0  0  0  0  0  0
   47.3050    2.8404   16.6058 H   0  0  0  0  0  0  0  0  0  0  0  0
   48.8850    2.7359   19.2981 H   0  0  0  0  0  0  0  0  0  0  0  0
   47.3158    3.4388   18.9927 H   0  0  0  0  0  0  0  0  0  0  0  0
   48.1807    5.6861   19.7365 H   0  0  0  0  0  0  0  0  0  0  0  0
   49.7344    4.9057   20.1585 H   0  0  0  0  0  0  0  0  0  0  0  0
  1  2  1  0
  2  3  1  0
  3  4  1  0
  4  5  1  0
  5  6  1  0
  6  7  2  0
  3  8  1  0
  9 10  1  0
 10 11  1  0
 10 12  1  0
 12 13  1  0
 13 14  1  0
 14 15  1  0
 15 16  2  0
  1 17  1  0
  1 18  1  0
  1 19  1  0
  2 20  1  0
  2 21  1  0
  3 22  1  1
  4 23  1  0
  4 24  1  0
  8 25  1  0
  8 26  1  0
  8 27  1  0
  9 28  1  0
  9 29  1  0
  9 30  1  0
 10 31  1  0
 11 32  1  0
 11 33  1  0
 11 34  1  0
 12 35  1  0
 12 36  1  0
 13 37  1  0
 13 38  1  0
M  END
> <Uni-Dock RESULT> 
ENERGY=   -3.867  LOWER_BOUND=   11.048  UPPER_BOUND=   12.276
INTER + INTRA:          -3.867
INTER:                  -3.867
INTRA:                   0.000
UNBOUND:                 0.000

$$$$

     RDKit          3D

 38 36  0  0  0  0  0  0  0  0999 V2000
   47.6322    7.6563   12.6931 C   0  0  0  0  0  0  0  0  0  0  0  0
   46.7560    6.5897   12.0509 C   0  0  0  0  0  0  0  0  0  0  0  0
   45.2478    6.8902   12.1546 C   0  0  2  0  0  0  0  0  0  0  0  0
   44.4210    5.6855   11.6696 C   0  0  0  0  0  0  0  0  0  0  0  0
   44.6951    5.4217   10.2961 O   0  0  0  0  0  0  0  0  0  0  0  0
   43.9145    4.2987    9.8774 N   0  0  0  0  0  0  0  0  0  0  0  0
   44.1240    4.0363    8.6894 O   0  0  0  0  0  0  0  0  0  0  0  0
   44.8658    8.1511   11.3729 C   0  0  0  0  0  0  0  0  0  0  0  0
   46.7429    6.8373   13.2028 C   0  0  0  0  0  0  0  0  0  0  0  0
   45.4226    7.2823   12.5725 C   0  0  0  0  0  0  0  0  0  0  0  0
   45.2249    8.7840   12.7926 C   0  0  0  0  0  0  0  0  0  0  0  0
   45.3525    6.9615   11.0706 C   0  0  0  0  0  0  0  0  0  0  0  0
   45.3990    5.4674   10.7564 C   0  0  0  0  0  0  0  0  0  0  0  0
   45.2130    5.3058    9.3510 O   0  0  0  0  0  0  0  0  0  0  0  0
   45.2397    3.9094    9.0412 N   0  0  0  0  0  0  0  0  0  0  0  0
   45.0820    3.7246    7.8308 O   0  0  0  0  0  0  0  0  0  0  0  0
   48.6799    7.3387   12.6789 H   0  0  0  0  0  0  0  0  0  0  0  0
   47.3446    7.8265   13.7354 H   0  0  0  0  0  0  0  0  0  0  0  0
   47.5689    8.6065   12.1552 H   0  0  0  0  0  0  0  0  0  0  0  0
   47.0518    6.4720   11.0015 H   0  0  0  0  0  0  0  0  0  0  0  0
   46.9650    5.6338   12.5471 H   0  0  0  0  0  0  0  0  0  0  0  0
   44.9966    7.0559   13.2102 H   0  0  0  0  0  0  0  0  0  0  0  0
   43.3518    5.8995   11.7982 H   0  0  0  0  0  0  0  0  0  0  0  0
   44.6709    4.8029   12.2729 H   0  0  0  0  0  0  0  0  0  0  0  0
   45.1812    8.0874   10.3262 H   0  0  0  0  0  0  0  0  0  0  0  0
   45.3252    9.0425   11.8111 H   0  0  0  0  0  0  0  0  0  0  0  0
   43.7813    8.3044   11.3912 H   0  0  0  0  0  0  0  0  0  0  0  0
   46.7908    7.1367   14.2554 H   0  0  0  0  0  0  0  0  0  0  0  0
   47.5996    7.2828   12.6858 H   0  0  0  0  0  0  0  0  0  0  0  0
   46.8527    5.7492   13.1712 H   0  0  0  0  0  0  0  0  0  0  0  0
   44.6047    6.7578   13.0826 H   0  0  0  0  0  0  0  0  0  0  0  0
   45.2329    9.0254   13.8608 H   0  0  0  0  0  0  0  0  0  0  0  0
   46.0171    9.3647   12.3077 H   0  0  0  0  0  0  0  0  0  0  0  0
   44.2637    9.1141   12.3845 H   0  0  0  0  0  0  0  0  0  0  0  0
   46.1659    7.4672   10.5338 H   0  0  0  0  0  0  0  0  0  0  0  0
   44.4259    7.3754   10.6507 H   0  0  0  0  0  0  0  0  0  0  0  0
   44.6003    4.9460   11.2983 H   0  0  0  0  0  0  0  0  0  0  0  0
   46.3685    5.0445   11.0435 H   0  0  0  0  0  0  0  0  0  0  0  0
  1  2  1  0
  2  3  1  0
  3  4  1  0
  4  5  1  0
  5  6  1  0
  6  7  2  0
  3  8  1  0
  9 10  1  0
 10 11  1  0
 10 12  1  0
 12 13  1  0
 13 14  1  0
 14 15  1  0
 15 16  2  0
  1 17  1  0
  1 18  1  0
  1 19  1  0
  2 20  1  0
  2 21  1  0
  3 22  1  1
  4 23  1  0
  4 24  1  0
  8 25  1  0
  8 26  1  0
  8 27  1  0
  9 28  1  0
  9 29  1  0
  9 30  1  0
 10 31  1  0
 11 32  1  0
 11 33  1  0
 11 34  1  0
 12 35  1  0
 12 36  1  0
 13 37  1  0
 13 38  1  0
M  END
> <Uni-Dock RESULT> 
ENERGY=   -3.769  LOWER_BOUND=    3.073  UPPER_BOUND=    4.219
INTER + INTRA:          -3.769
INTER:                  -3.769
INTRA:                   0.000
UNBOUND:                 0.000

$$$$

     RDKit          3D

 38 36  0  0  0  0  0  0  0  0999 V2000
   47.4977    3.6795   16.3878 C   0  0  0  0  0  0  0  0  0  0  0  0
   47.4855    4.2482   17.8000 C   0  0  0  0  0  0  0  0  0  0  0  0
   48.6282    3.7149   18.6862 C   0  0  2  0  0  0  0  0  0  0  0  0
   48.4395    4.1697   20.1449 C   0  0  0  0  0  0  0  0  0  0  0  0
   48.4842    5.5920   20.2264 O   0  0  0  0  0  0  0  0  0  0  0  0
   48.3048    5.9816   21.5908 N   0  0  0  0  0  0  0  0  0  0  0  0
   48.3366    7.2105   21.7048 O   0  0  0  0  0  0  0  0  0  0  0  0
   50.0011    4.1491   18.1635 C   0  0  0  0  0  0  0  0  0  0  0  0
   47.3288    3.1062   17.5558 C   0  0  0  0  0  0  0  0  0  0  0  0
   48.6725    3.2953   18.2610 C   0  0  0  0  0  0  0  0  0  0  0  0
   49.8029    2.7818   17.3660 C   0  0  0  0  0  0  0  0  0  0  0  0
   48.9336    4.7617   18.6416 C   0  0  0  0  0  0  0  0  0  0  0  0
   47.9326    5.3251   19.6485 C   0  0  0  0  0  0  0  0  0  0  0  0
   48.3524    6.6432   19.9979 O   0  0  0  0  0  0  0  0  0  0  0  0
   47.4323    7.1809   20.9524 N   0  0  0  0  0  0  0  0  0  0  0  0
   47.7597    8.3245   21.2826 O   0  0  0  0  0  0  0  0  0  0  0  0
   46.6092    4.0133   15.8420 H   0  0  0  0  0  0  0  0  0  0  0  0
   47.4930    2.5851   16.4043 H   0  0  0  0  0  0  0  0  0  0  0  0
   48.3743    4.0152   15.8264 H   0  0  0  0  0  0  0  0  0  0  0  0
   47.5245    5.3426   17.7422 H   0  0  0  0  0  0  0  0  0  0  0  0
   46.5244    3.9904   18.2621 H   0  0  0  0  0  0  0  0  0  0  0  0
   48.5932    2.6178   18.6784 H   0  0  0  0  0  0  0  0  0  0  0  0
   49.2340    3.7391   20.7686 H   0  0  0  0  0  0  0  0  0  0  0  0
   47.4730    3.8079   20.5195 H   0  0  0  0  0  0  0  0  0  0  0  0
   50.0653    5.2368   18.0544 H   0  0  0  0  0  0  0  0  0  0  0  0
   50.2141    3.6982   17.1894 H   0  0  0  0  0  0  0  0  0  0  0  0
   50.7947    3.8298   18.8477 H   0  0  0  0  0  0  0  0  0  0  0  0
   47.1997    2.0655   17.2391 H   0  0  0  0  0  0  0  0  0  0  0  0
   47.2545    3.7412   16.6665 H   0  0  0  0  0  0  0  0  0  0  0  0
   46.4931    3.3480   18.2192 H   0  0  0  0  0  0  0  0  0  0  0  0
   48.6679    2.6899   19.1763 H   0  0  0  0  0  0  0  0  0  0  0  0
   49.6532    1.7258   17.1168 H   0  0  0  0  0  0  0  0  0  0  0  0
   49.8564    3.3470   16.4292 H   0  0  0  0  0  0  0  0  0  0  0  0
   50.7704    2.8700   17.8714 H   0  0  0  0  0  0  0  0  0  0  0  0
   48.9355    5.3945   17.7442 H   0  0  0  0  0  0  0  0  0  0  0  0
   49.9423    4.8558   19.0656 H   0  0  0  0  0  0  0  0  0  0  0  0
   47.9086    4.6938   20.5454 H   0  0  0  0  0  0  0  0  0  0  0  0
   46.9296    5.3698   19.2091 H   0  0  0  0  0  0  0  0  0  0  0  0
  1  2  1  0
  2  3  1  0
  3  4  1  0
  4  5  1  0
  5  6  1  0
  6  7  2  0
  3  8  1  0
  9 10  1  0
 10 11  1  0
 10 12  1  0
 12 13  1  0
 13 14  1  0
 14 15  1  0
 15 16  2  0
  1 17  1  0
  1 18  1  0
  1 19  1  0
  2 20  1  0
  2 21  1  0
  3 22  1  1
  4 23  1  0
  4 24  1  0
  8 25  1  0
  8 26  1  0
  8 27  1  0
  9 28  1  0
  9 29  1  0
  9 30  1  0
 10 31  1  0
 11 32  1  0
 11 33  1  0
 11 34  1  0
 12 35  1  0
 12 36  1  0
 13 37  1  0
 13 38  1  0
M  END
> <Uni-Dock RESULT> 
ENERGY=   -3.624  LOWER_BOUND=   10.750  UPPER_BOUND=   12.023
INTER + INTRA:          -3.624
INTER:                  -3.624
INTRA:                   0.000
UNBOUND:                 0.000

$$$$
