
     RDKit          3D

 38 36  0  0  0  0  0  0  0  0999 V2000
   48.2718    2.1934    6.1936 C   0  0  0  0  0  0  0  0  0  0  0  0
   47.3769    1.6542    7.3005 C   0  0  0  0  0  0  0  0  0  0  0  0
   46.3192    2.6610    7.7870 C   0  0  2  0  0  0  0  0  0  0  0  0
   45.5731    2.0817    9.0018 C   0  0  0  0  0  0  0  0  0  0  0  0
   44.7022    3.0749    9.5394 O   0  0  0  0  0  0  0  0  0  0  0  0
   44.0038    2.5193   10.6574 N   0  0  0  0  0  0  0  0  0  0  0  0
   43.2336    3.3484   11.1506 O   0  0  0  0  0  0  0  0  0  0  0  0
   45.3307    3.0401    6.6785 C   0  0  0  0  0  0  0  0  0  0  0  0
   46.4481    0.7813    7.0901 C   0  0  0  0  0  0  0  0  0  0  0  0
   47.0098    2.1708    7.3936 C   0  0  0  0  0  0  0  0  0  0  0  0
   48.1161    2.5114    6.3917 C   0  0  0  0  0  0  0  0  0  0  0  0
   45.9226    3.2633    7.3602 C   0  0  0  0  0  0  0  0  0  0  0  0
   44.8028    3.0805    8.3851 C   0  0  0  0  0  0  0  0  0  0  0  0
   45.3623    3.0365    9.6938 O   0  0  0  0  0  0  0  0  0  0  0  0
   44.3058    2.8554   10.6408 N   0  0  0  0  0  0  0  0  0  0  0  0
   44.7509    2.8031   11.7911 O   0  0  0  0  0  0  0  0  0  0  0  0
   47.7126    2.3584    5.2682 H   0  0  0  0  0  0  0  0  0  0  0  0
   49.0680    1.4751    5.9727 H   0  0  0  0  0  0  0  0  0  0  0  0
   48.7402    3.1368    6.4909 H   0  0  0  0  0  0  0  0  0  0  0  0
   48.0170    1.3707    8.1453 H   0  0  0  0  0  0  0  0  0  0  0  0
   46.8897    0.7350    6.9525 H   0  0  0  0  0  0  0  0  0  0  0  0
   46.8224    3.5835    8.1056 H   0  0  0  0  0  0  0  0  0  0  0  0
   44.9932    1.1986    8.7026 H   0  0  0  0  0  0  0  0  0  0  0  0
   46.2962    1.7842    9.7722 H   0  0  0  0  0  0  0  0  0  0  0  0
   44.5664    3.7318    7.0478 H   0  0  0  0  0  0  0  0  0  0  0  0
   45.8376    3.5402    5.8478 H   0  0  0  0  0  0  0  0  0  0  0  0
   44.8217    2.1543    6.2839 H   0  0  0  0  0  0  0  0  0  0  0  0
   45.9257    0.7657    6.1275 H   0  0  0  0  0  0  0  0  0  0  0  0
   45.7469    0.4574    7.8650 H   0  0  0  0  0  0  0  0  0  0  0  0
   47.2516    0.0379    7.0502 H   0  0  0  0  0  0  0  0  0  0  0  0
   47.4629    2.1464    8.3924 H   0  0  0  0  0  0  0  0  0  0  0  0
   48.5589    3.4873    6.6174 H   0  0  0  0  0  0  0  0  0  0  0  0
   48.9179    1.7661    6.4288 H   0  0  0  0  0  0  0  0  0  0  0  0
   47.7295    2.5424    5.3673 H   0  0  0  0  0  0  0  0  0  0  0  0
   45.4806    3.3207    6.3580 H   0  0  0  0  0  0  0  0  0  0  0  0
   46.4058    4.2301    7.5534 H   0  0  0  0  0  0  0  0  0  0  0  0
   44.2393    2.1626    8.1800 H   0  0  0  0  0  0  0  0  0  0  0  0
   44.1129    3.9308    8.3102 H   0  0  0  0  0  0  0  0  0  0  0  0
  1  2  1  0
  2  3  1  0
  3  4  1  0
  4  5  1  0
  5  6  1  0
  6  7  2  0
  3  8  1  0
  9 10  1  0
 10 11  1  0
 10 12  1  0
 12 13  1  0
 13 14  1  0
 14 15  1  0
 15 16  2  0
  1 17  1  0
  1 18  1  0
  1 19  1  0
  2 20  1  0
  2 21  1  0
  3 22  1  1
  4 23  1  0
  4 24  1  0
  8 25  1  0
  8 26  1  0
  8 27  1  0
  9 28  1  0
  9 29  1  0
  9 30  1  0
 10 31  1  0
 11 32  1  0
 11 33  1  0
 11 34  1  0
 12 35  1  0
 12 36  1  0
 13 37  1  0
 13 38  1  0
M  END
> <Uni-Dock RESULT> 
ENERGY=   -5.540  LOWER_BOUND=    0.000  UPPER_BOUND=    0.000
INTER + INTRA:          -5.540
INTER:                  -5.540
INTRA:                   0.000
UNBOUND:                 0.000

$$$$

     RDKit          3D

 38 36  0  0  0  0  0  0  0  0999 V2000
   42.9183    4.6292   11.5900 C   0  0  0  0  0  0  0  0  0  0  0  0
   44.0531    3.6508   11.3220 C   0  0  0  0  0  0  0  0  0  0  0  0
   44.4431    3.5471    9.8366 C   0  0  2  0  0  0  0  0  0  0  0  0
   45.4835    2.4286    9.6514 C   0  0  0  0  0  0  0  0  0  0  0  0
   45.7282    2.2363    8.2596 O   0  0  0  0  0  0  0  0  0  0  0  0
   46.7077    1.2057    8.1018 N   0  0  0  0  0  0  0  0  0  0  0  0
   46.9521    1.0108    6.9076 O   0  0  0  0  0  0  0  0  0  0  0  0
   44.9757    4.8747    9.2860 C   0  0  0  0  0  0  0  0  0  0  0  0
   45.2832    3.9016   11.6266 C   0  0  0  0  0  0  0  0  0  0  0  0
   44.0924    3.7143   10.6858 C   0  0  0  0  0  0  0  0  0  0  0  0
   42.8954    4.5181   11.2006 C   0  0  0  0  0  0  0  0  0  0  0  0
   44.4170    4.1329    9.2380 C   0  0  0  0  0  0  0  0  0  0  0  0
   45.5426    3.3343    8.5801 C   0  0  0  0  0  0  0  0  0  0  0  0
   45.2076    1.9503    8.5884 O   0  0  0  0  0  0  0  0  0  0  0  0
   46.2725    1.2147    7.9796 N   0  0  0  0  0  0  0  0  0  0  0  0
   46.0245    0.0053    7.9746 O   0  0  0  0  0  0  0  0  0  0  0  0
   43.2207    5.6612   11.3905 H   0  0  0  0  0  0  0  0  0  0  0  0
   42.6159    4.5728   12.6408 H   0  0  0  0  0  0  0  0  0  0  0  0
   42.0444    4.3965   10.9736 H   0  0  0  0  0  0  0  0  0  0  0  0
   43.7393    2.6623   11.6799 H   0  0  0  0  0  0  0  0  0  0  0  0
   44.9254    3.9401   11.9209 H   0  0  0  0  0  0  0  0  0  0  0  0
   43.5530    3.2837    9.2500 H   0  0  0  0  0  0  0  0  0  0  0  0
   46.4185    2.6946   10.1619 H   0  0  0  0  0  0  0  0  0  0  0  0
   45.1012    1.4934   10.0805 H   0  0  0  0  0  0  0  0  0  0  0  0
   45.2782    4.7770    8.2381 H   0  0  0  0  0  0  0  0  0  0  0  0
   44.2113    5.6566    9.3248 H   0  0  0  0  0  0  0  0  0  0  0  0
   45.8446    5.2186    9.8573 H   0  0  0  0  0  0  0  0  0  0  0  0
   45.6485    4.9339   11.6043 H   0  0  0  0  0  0  0  0  0  0  0  0
   46.1117    3.2398   11.3567 H   0  0  0  0  0  0  0  0  0  0  0  0
   45.0035    3.6647   12.6589 H   0  0  0  0  0  0  0  0  0  0  0  0
   43.8098    2.6544   10.6977 H   0  0  0  0  0  0  0  0  0  0  0  0
   42.0196    4.3649   10.5612 H   0  0  0  0  0  0  0  0  0  0  0  0
   42.6247    4.2068   12.2152 H   0  0  0  0  0  0  0  0  0  0  0  0
   43.1163    5.5907   11.2228 H   0  0  0  0  0  0  0  0  0  0  0  0
   44.6722    5.1992    9.2052 H   0  0  0  0  0  0  0  0  0  0  0  0
   43.5093    4.0018    8.6343 H   0  0  0  0  0  0  0  0  0  0  0  0
   46.4905    3.5005    9.1054 H   0  0  0  0  0  0  0  0  0  0  0  0
   45.6598    3.6764    7.5439 H   0  0  0  0  0  0  0  0  0  0  0  0
  1  2  1  0
  2  3  1  0
  3  4  1  0
  4  5  1  0
  5  6  1  0
  6  7  2  0
  3  8  1  0
  9 10  1  0
 10 11  1  0
 10 12  1  0
 12 13  1  0
 13 14  1  0
 14 15  1  0
 15 16  2  0
  1 17  1  0
  1 18  1  0
  1 19  1  0
  2 20  1  0
  2 21  1  0
  3 22  1  1
  4 23  1  0
  4 24  1  0
  8 25  1  0
  8 26  1  0
  8 27  1  0
  9 28  1  0
  9 29  1  0
  9 30  1  0
 10 31  1  0
 11 32  1  0
 11 33  1  0
 11 34  1  0
 12 35  1  0
 12 36  1  0
 13 37  1  0
 13 38  1  0
M  END
> <Uni-Dock RESULT> 
ENERGY=   -4.711  LOWER_BOUND=    2.810  UPPER_BOUND=    4.511
INTER + INTRA:          -4.711
INTER:                  -4.711
INTRA:                   0.000
UNBOUND:                 0.000

$$$$

     RDKit          3D

 38 36  0  0  0  0  0  0  0  0999 V2000
   44.1929    4.9411   13.1424 C   0  0  0  0  0  0  0  0  0  0  0  0
   44.2387    5.2036   11.6438 C   0  0  0  0  0  0  0  0  0  0  0  0
   44.7199    3.9968   10.8184 C   0  0  2  0  0  0  0  0  0  0  0  0
   44.8783    4.4080    9.3441 C   0  0  0  0  0  0  0  0  0  0  0  0
   45.4658    3.3328    8.6140 O   0  0  0  0  0  0  0  0  0  0  0  0
   45.5931    3.7218    7.2433 N   0  0  0  0  0  0  0  0  0  0  0  0
   46.0952    2.8142    6.5737 O   0  0  0  0  0  0  0  0  0  0  0  0
   43.7737    2.7975   10.9444 C   0  0  0  0  0  0  0  0  0  0  0  0
   43.1772    5.2801   10.9115 C   0  0  0  0  0  0  0  0  0  0  0  0
   44.4544    4.6330   11.4483 C   0  0  0  0  0  0  0  0  0  0  0  0
   44.4511    4.6745   12.9787 C   0  0  0  0  0  0  0  0  0  0  0  0
   44.6219    3.1779   10.9672 C   0  0  0  0  0  0  0  0  0  0  0  0
   44.7295    3.0159    9.4506 C   0  0  0  0  0  0  0  0  0  0  0  0
   45.8291    3.7825    8.9701 O   0  0  0  0  0  0  0  0  0  0  0  0
   45.9120    3.6298    7.5504 N   0  0  0  0  0  0  0  0  0  0  0  0
   46.8503    4.2878    7.0917 O   0  0  0  0  0  0  0  0  0  0  0  0
   43.4257    4.2050   13.3991 H   0  0  0  0  0  0  0  0  0  0  0  0
   43.9529    5.8659   13.6771 H   0  0  0  0  0  0  0  0  0  0  0  0
   45.1591    4.5799   13.5082 H   0  0  0  0  0  0  0  0  0  0  0  0
   44.9148    6.0498   11.4689 H   0  0  0  0  0  0  0  0  0  0  0  0
   43.2446    5.5196   11.3042 H   0  0  0  0  0  0  0  0  0  0  0  0
   45.7028    3.6777   11.1897 H   0  0  0  0  0  0  0  0  0  0  0  0
   43.8994    4.6599    8.9153 H   0  0  0  0  0  0  0  0  0  0  0  0
   45.5311    5.2876    9.2738 H   0  0  0  0  0  0  0  0  0  0  0  0
   44.1120    1.9584   10.3275 H   0  0  0  0  0  0  0  0  0  0  0  0
   43.7261    2.4352   11.9757 H   0  0  0  0  0  0  0  0  0  0  0  0
   42.7586    3.0609   10.6283 H   0  0  0  0  0  0  0  0  0  0  0  0
   42.2924    4.6905   11.1746 H   0  0  0  0  0  0  0  0  0  0  0  0
   43.2094    5.3810    9.8225 H   0  0  0  0  0  0  0  0  0  0  0  0
   43.0479    6.2860   11.3255 H   0  0  0  0  0  0  0  0  0  0  0  0
   45.3102    5.2257   11.1024 H   0  0  0  0  0  0  0  0  0  0  0  0
   45.3772    4.2511   13.3817 H   0  0  0  0  0  0  0  0  0  0  0  0
   44.3722    5.7055   13.3401 H   0  0  0  0  0  0  0  0  0  0  0  0
   43.6103    4.1059   13.3904 H   0  0  0  0  0  0  0  0  0  0  0  0
   43.7882    2.5652   11.3314 H   0  0  0  0  0  0  0  0  0  0  0  0
   45.5378    2.7738   11.4181 H   0  0  0  0  0  0  0  0  0  0  0  0
   43.8006    3.3337    8.9627 H   0  0  0  0  0  0  0  0  0  0  0  0
   44.8935    1.9556    9.2193 H   0  0  0  0  0  0  0  0  0  0  0  0
  1  2  1  0
  2  3  1  0
  3  4  1  0
  4  5  1  0
  5  6  1  0
  6  7  2  0
  3  8  1  0
  9 10  1  0
 10 11  1  0
 10 12  1  0
 12 13  1  0
 13 14  1  0
 14 15  1  0
 15 16  2  0
  1 17  1  0
  1 18  1  0
  1 19  1  0
  2 20  1  0
  2 21  1  0
  3 22  1  1
  4 23  1  0
  4 24  1  0
  8 25  1  0
  8 26  1  0
  8 27  1  0
  9 28  1  0
  9 29  1  0
  9 30  1  0
 10 31  1  0
 11 32  1  0
 11 33  1  0
 11 34  1  0
 12 35  1  0
 12 36  1  0
 13 37  1  0
 13 38  1  0
M  END
> <Uni-Dock RESULT> 
ENERGY=   -4.581  LOWER_BOUND=    3.218  UPPER_BOUND=    4.970
INTER + INTRA:          -4.581
INTER:                  -4.581
INTRA:                   0.000
UNBOUND:                 0.000

$$$$

     RDKit          3D

 38 36  0  0  0  0  0  0  0  0999 V2000
   44.3465    4.0586    8.9703 C   0  0  0  0  0  0  0  0  0  0  0  0
   44.4310    3.6181   10.4249 C   0  0  0  0  0  0  0  0  0  0  0  0
   45.2497    4.5713   11.3138 C   0  0  2  0  0  0  0  0  0  0  0  0
   45.4049    3.9636   12.7190 C   0  0  0  0  0  0  0  0  0  0  0  0
   46.2875    4.7760   13.4904 O   0  0  0  0  0  0  0  0  0  0  0  0
   46.4109    4.2093   14.7981 N   0  0  0  0  0  0  0  0  0  0  0  0
   47.1655    4.8874   15.5015 O   0  0  0  0  0  0  0  0  0  0  0  0
   44.6199    5.9663   11.3968 C   0  0  0  0  0  0  0  0  0  0  0  0
   43.4369    3.7086   11.2449 C   0  0  0  0  0  0  0  0  0  0  0  0
   44.7931    4.0945   10.6534 C   0  0  0  0  0  0  0  0  0  0  0  0
   44.6730    4.2355    9.1336 C   0  0  0  0  0  0  0  0  0  0  0  0
   45.3453    5.4018   11.2556 C   0  0  0  0  0  0  0  0  0  0  0  0
   45.5949    5.3541   12.7633 C   0  0  0  0  0  0  0  0  0  0  0  0
   46.5037    4.2985   13.0589 O   0  0  0  0  0  0  0  0  0  0  0  0
   46.7203    4.2590   14.4721 N   0  0  0  0  0  0  0  0  0  0  0  0
   47.4984    3.3488   14.7722 O   0  0  0  0  0  0  0  0  0  0  0  0
   43.7673    4.9800    8.8616 H   0  0  0  0  0  0  0  0  0  0  0  0
   43.8504    3.2862    8.3736 H   0  0  0  0  0  0  0  0  0  0  0  0
   45.3438    4.2220    8.5502 H   0  0  0  0  0  0  0  0  0  0  0  0
   44.8895    2.6217   10.4507 H   0  0  0  0  0  0  0  0  0  0  0  0
   43.4160    3.5079   10.8261 H   0  0  0  0  0  0  0  0  0  0  0  0
   46.2525    4.6908   10.8825 H   0  0  0  0  0  0  0  0  0  0  0  0
   44.4265    3.9012   13.2133 H   0  0  0  0  0  0  0  0  0  0  0  0
   45.8254    2.9528   12.6400 H   0  0  0  0  0  0  0  0  0  0  0  0
   45.1958    6.6231   12.0571 H   0  0  0  0  0  0  0  0  0  0  0  0
   44.5908    6.4485   10.4151 H   0  0  0  0  0  0  0  0  0  0  0  0
   43.5959    5.9146   11.7818 H   0  0  0  0  0  0  0  0  0  0  0  0
   42.7075    4.5171   11.1268 H   0  0  0  0  0  0  0  0  0  0  0  0
   43.5193    3.4754   12.3107 H   0  0  0  0  0  0  0  0  0  0  0  0
   43.0364    2.8176   10.7492 H   0  0  0  0  0  0  0  0  0  0  0  0
   45.4995    3.2800   10.8560 H   0  0  0  0  0  0  0  0  0  0  0  0
   45.6442    4.4728    8.6866 H   0  0  0  0  0  0  0  0  0  0  0  0
   44.3187    3.3023    8.6828 H   0  0  0  0  0  0  0  0  0  0  0  0
   43.9706    5.0310    8.8621 H   0  0  0  0  0  0  0  0  0  0  0  0
   44.6640    6.2326   11.0347 H   0  0  0  0  0  0  0  0  0  0  0  0
   46.2986    5.6286   10.7602 H   0  0  0  0  0  0  0  0  0  0  0  0
   44.6527    5.2093   13.3050 H   0  0  0  0  0  0  0  0  0  0  0  0
   46.0295    6.3109   13.0801 H   0  0  0  0  0  0  0  0  0  0  0  0
  1  2  1  0
  2  3  1  0
  3  4  1  0
  4  5  1  0
  5  6  1  0
  6  7  2  0
  3  8  1  0
  9 10  1  0
 10 11  1  0
 10 12  1  0
 12 13  1  0
 13 14  1  0
 14 15  1  0
 15 16  2  0
  1 17  1  0
  1 18  1  0
  1 19  1  0
  2 20  1  0
  2 21  1  0
  3 22  1  1
  4 23  1  0
  4 24  1  0
  8 25  1  0
  8 26  1  0
  8 27  1  0
  9 28  1  0
  9 29  1  0
  9 30  1  0
 10 31  1  0
 11 32  1  0
 11 33  1  0
 11 34  1  0
 12 35  1  0
 12 36  1  0
 13 37  1  0
 13 38  1  0
M  END
> <Uni-Dock RESULT> 
ENERGY=   -4.458  LOWER_BOUND=    3.747  UPPER_BOUND=    4.831
INTER + INTRA:          -4.458
INTER:                  -4.458
INTRA:                   0.000
UNBOUND:                 0.000

$$$$

     RDKit          3D

 38 36  0  0  0  0  0  0  0  0999 V2000
   48.8487    8.0285   11.8672 C   0  0  0  0  0  0  0  0  0  0  0  0
   47.3871    8.0892   12.2879 C   0  0  0  0  0  0  0  0  0  0  0  0
   46.7533    6.7068   12.5249 C   0  0  2  0  0  0  0  0  0  0  0  0
   45.2464    6.8671   12.7925 C   0  0  0  0  0  0  0  0  0  0  0  0
   44.6389    5.5786   12.8616 O   0  0  0  0  0  0  0  0  0  0  0  0
   43.2425    5.7411   13.1260 N   0  0  0  0  0  0  0  0  0  0  0  0
   42.6785    4.6453   13.1982 O   0  0  0  0  0  0  0  0  0  0  0  0
   47.4276    5.9528   13.6765 C   0  0  0  0  0  0  0  0  0  0  0  0
   47.0103    8.4630   13.4657 C   0  0  0  0  0  0  0  0  0  0  0  0
   47.2714    7.4614   12.3401 C   0  0  0  0  0  0  0  0  0  0  0  0
   48.6804    7.6702   11.7788 C   0  0  0  0  0  0  0  0  0  0  0  0
   47.1072    6.0007   12.8049 C   0  0  0  0  0  0  0  0  0  0  0  0
   45.7072    5.6440   13.3055 C   0  0  0  0  0  0  0  0  0  0  0  0
   44.7572    5.9029   12.2769 O   0  0  0  0  0  0  0  0  0  0  0  0
   43.4522    5.5746   12.7617 N   0  0  0  0  0  0  0  0  0  0  0  0
   42.5954    5.7936   11.9002 O   0  0  0  0  0  0  0  0  0  0  0  0
   49.4847    7.6529   12.6740 H   0  0  0  0  0  0  0  0  0  0  0  0
   49.2053    9.0306   11.6073 H   0  0  0  0  0  0  0  0  0  0  0  0
   48.9797    7.3851   10.9916 H   0  0  0  0  0  0  0  0  0  0  0  0
   46.8292    8.6087   11.4988 H   0  0  0  0  0  0  0  0  0  0  0  0
   47.2991    8.7038   13.1923 H   0  0  0  0  0  0  0  0  0  0  0  0
   46.8747    6.0970   11.6198 H   0  0  0  0  0  0  0  0  0  0  0  0
   45.0859    7.4070   13.7350 H   0  0  0  0  0  0  0  0  0  0  0  0
   44.7848    7.4376   11.9762 H   0  0  0  0  0  0  0  0  0  0  0  0
   46.9459    4.9855   13.8536 H   0  0  0  0  0  0  0  0  0  0  0  0
   48.4797    5.7486   13.4561 H   0  0  0  0  0  0  0  0  0  0  0  0
   47.3797    6.5288   14.6069 H   0  0  0  0  0  0  0  0  0  0  0  0
   47.6541    8.2664   14.3296 H   0  0  0  0  0  0  0  0  0  0  0  0
   45.9690    8.4243   13.7993 H   0  0  0  0  0  0  0  0  0  0  0  0
   47.2032    9.4868   13.1269 H   0  0  0  0  0  0  0  0  0  0  0  0
   46.5588    7.6623   11.5306 H   0  0  0  0  0  0  0  0  0  0  0  0
   48.8720    6.9879   10.9439 H   0  0  0  0  0  0  0  0  0  0  0  0
   48.8038    8.6931   11.4071 H   0  0  0  0  0  0  0  0  0  0  0  0
   49.4438    7.4935   12.5441 H   0  0  0  0  0  0  0  0  0  0  0  0
   47.8346    5.7752   13.5943 H   0  0  0  0  0  0  0  0  0  0  0  0
   47.3419    5.3451   11.9559 H   0  0  0  0  0  0  0  0  0  0  0  0
   45.4618    6.2203   14.2054 H   0  0  0  0  0  0  0  0  0  0  0  0
   45.6854    4.5776   13.5642 H   0  0  0  0  0  0  0  0  0  0  0  0
  1  2  1  0
  2  3  1  0
  3  4  1  0
  4  5  1  0
  5  6  1  0
  6  7  2  0
  3  8  1  0
  9 10  1  0
 10 11  1  0
 10 12  1  0
 12 13  1  0
 13 14  1  0
 14 15  1  0
 15 16  2  0
  1 17  1  0
  1 18  1  0
  1 19  1  0
  2 20  1  0
  2 21  1  0
  3 22  1  1
  4 23  1  0
  4 24  1  0
  8 25  1  0
  8 26  1  0
  8 27  1  0
  9 28  1  0
  9 29  1  0
  9 30  1  0
 10 31  1  0
 11 32  1  0
 11 33  1  0
 11 34  1  0
 12 35  1  0
 12 36  1  0
 13 37  1  0
 13 38  1  0
M  END
> <Uni-Dock RESULT> 
ENERGY=   -4.377  LOWER_BOUND=    5.743  UPPER_BOUND=    6.283
INTER + INTRA:          -4.377
INTER:                  -4.377
INTRA:                   0.000
UNBOUND:                 0.000

$$$$

     RDKit          3D

 38 36  0  0  0  0  0  0  0  0999 V2000
   42.5811    5.8537   11.6086 C   0  0  0  0  0  0  0  0  0  0  0  0
   43.9771    5.9942   12.1988 C   0  0  0  0  0  0  0  0  0  0  0  0
   44.5508    4.6772   12.7516 C   0  0  2  0  0  0  0  0  0  0  0  0
   45.8890    4.9523   13.4598 C   0  0  0  0  0  0  0  0  0  0  0  0
   46.3401    3.7594   14.0980 O   0  0  0  0  0  0  0  0  0  0  0  0
   47.5913    4.0243   14.7389 N   0  0  0  0  0  0  0  0  0  0  0  0
   48.0199    3.0124   15.3014 O   0  0  0  0  0  0  0  0  0  0  0  0
   44.7288    3.6205   11.6556 C   0  0  0  0  0  0  0  0  0  0  0  0
   45.0343    6.1489   11.4726 C   0  0  0  0  0  0  0  0  0  0  0  0
   44.0699    5.3877   12.3830 C   0  0  0  0  0  0  0  0  0  0  0  0
   42.6376    5.5449   11.8655 C   0  0  0  0  0  0  0  0  0  0  0  0
   44.4232    3.8910   12.4912 C   0  0  0  0  0  0  0  0  0  0  0  0
   45.8030    3.6024   13.0834 C   0  0  0  0  0  0  0  0  0  0  0  0
   45.8923    4.1850   14.3796 O   0  0  0  0  0  0  0  0  0  0  0  0
   47.1901    3.9161   14.9173 N   0  0  0  0  0  0  0  0  0  0  0  0
   47.3121    4.4133   16.0406 O   0  0  0  0  0  0  0  0  0  0  0  0
   42.5870    5.2422   10.7017 H   0  0  0  0  0  0  0  0  0  0  0  0
   42.1884    6.8392   11.3378 H   0  0  0  0  0  0  0  0  0  0  0  0
   41.8928    5.4017   12.3295 H   0  0  0  0  0  0  0  0  0  0  0  0
   43.9292    6.7322   13.0093 H   0  0  0  0  0  0  0  0  0  0  0  0
   44.6493    6.4070   11.4365 H   0  0  0  0  0  0  0  0  0  0  0  0
   43.8527    4.2652   13.4924 H   0  0  0  0  0  0  0  0  0  0  0  0
   46.6377    5.2932   12.7326 H   0  0  0  0  0  0  0  0  0  0  0  0
   45.7520    5.7344   14.2178 H   0  0  0  0  0  0  0  0  0  0  0  0
   45.1667    2.7011   12.0580 H   0  0  0  0  0  0  0  0  0  0  0  0
   43.7688    3.3461   11.2081 H   0  0  0  0  0  0  0  0  0  0  0  0
   45.3848    3.9857   10.8582 H   0  0  0  0  0  0  0  0  0  0  0  0
   45.0789    5.6979   10.4756 H   0  0  0  0  0  0  0  0  0  0  0  0
   46.0466    6.1623   11.8876 H   0  0  0  0  0  0  0  0  0  0  0  0
   44.7184    7.1916   11.3576 H   0  0  0  0  0  0  0  0  0  0  0  0
   44.1130    5.8394   13.3818 H   0  0  0  0  0  0  0  0  0  0  0  0
   41.9267    5.0393   12.5276 H   0  0  0  0  0  0  0  0  0  0  0  0
   42.3543    6.6019   11.8188 H   0  0  0  0  0  0  0  0  0  0  0  0
   42.5283    5.1202   10.8618 H   0  0  0  0  0  0  0  0  0  0  0  0
   44.3547    3.4181   11.5039 H   0  0  0  0  0  0  0  0  0  0  0  0
   43.6714    3.4093   13.1302 H   0  0  0  0  0  0  0  0  0  0  0  0
   46.5916    3.9976   12.4323 H   0  0  0  0  0  0  0  0  0  0  0  0
   45.9341    2.5155   13.1607 H   0  0  0  0  0  0  0  0  0  0  0  0
  1  2  1  0
  2  3  1  0
  3  4  1  0
  4  5  1  0
  5  6  1  0
  6  7  2  0
  3  8  1  0
  9 10  1  0
 10 11  1  0
 10 12  1  0
 12 13  1  0
 13 14  1  0
 14 15  1  0
 15 16  2  0
  1 17  1  0
  1 18  1  0
  1 19  1  0
  2 20  1  0
  2 21  1  0
  3 22  1  1
  4 23  1  0
  4 24  1  0
  8 25  1  0
  8 26  1  0
  8 27  1  0
  9 28  1  0
  9 29  1  0
  9 30  1  0
 10 31  1  0
 11 32  1  0
 11 33  1  0
 11 34  1  0
 12 35  1  0
 12 36  1  0
 13 37  1  0
 13 38  1  0
M  END
> <Uni-Dock RESULT> 
ENERGY=   -4.356  LOWER_BOUND=    4.917  UPPER_BOUND=    6.149
INTER + INTRA:          -4.356
INTER:                  -4.356
INTRA:                   0.000
UNBOUND:                 0.000

$$$$

     RDKit          3D

 38 36  0  0  0  0  0  0  0  0999 V2000
   43.6184    2.9507   12.2107 C   0  0  0  0  0  0  0  0  0  0  0  0
   43.5596    4.4275   12.5746 C   0  0  0  0  0  0  0  0  0  0  0  0
   44.7289    5.2519   12.0070 C   0  0  2  0  0  0  0  0  0  0  0  0
   44.6633    6.6885   12.5545 C   0  0  0  0  0  0  0  0  0  0  0  0
   45.8283    7.4033   12.1471 O   0  0  0  0  0  0  0  0  0  0  0  0
   45.7476    8.7404   12.6490 N   0  0  0  0  0  0  0  0  0  0  0  0
   46.7383    9.3962   12.3136 O   0  0  0  0  0  0  0  0  0  0  0  0
   44.7388    5.2597   10.4742 C   0  0  0  0  0  0  0  0  0  0  0  0
   42.7203    5.2501   12.0380 C   0  0  0  0  0  0  0  0  0  0  0  0
   44.0942    4.6246   12.2818 C   0  0  0  0  0  0  0  0  0  0  0  0
   43.9940    3.1004   12.1781 C   0  0  0  0  0  0  0  0  0  0  0  0
   45.1590    5.1447   11.2958 C   0  0  0  0  0  0  0  0  0  0  0  0
   45.4152    6.6503   11.3693 C   0  0  0  0  0  0  0  0  0  0  0  0
   45.8123    6.9982   12.6918 O   0  0  0  0  0  0  0  0  0  0  0  0
   46.0389    8.4093   12.7488 N   0  0  0  0  0  0  0  0  0  0  0  0
   46.3778    8.7545   13.8846 O   0  0  0  0  0  0  0  0  0  0  0  0
   43.4711    2.7940   11.1382 H   0  0  0  0  0  0  0  0  0  0  0  0
   42.8270    2.4044   12.7342 H   0  0  0  0  0  0  0  0  0  0  0  0
   44.5792    2.5125   12.4984 H   0  0  0  0  0  0  0  0  0  0  0  0
   43.5632    4.5068   13.6688 H   0  0  0  0  0  0  0  0  0  0  0  0
   42.6042    4.8438   12.2320 H   0  0  0  0  0  0  0  0  0  0  0  0
   45.6760    4.8051   12.3375 H   0  0  0  0  0  0  0  0  0  0  0  0
   43.7641    7.1947   12.1794 H   0  0  0  0  0  0  0  0  0  0  0  0
   44.6229    6.6645   13.6512 H   0  0  0  0  0  0  0  0  0  0  0  0
   45.5567    5.8753   10.0856 H   0  0  0  0  0  0  0  0  0  0  0  0
   44.8807    4.2519   10.0724 H   0  0  0  0  0  0  0  0  0  0  0  0
   43.7990    5.6565   10.0756 H   0  0  0  0  0  0  0  0  0  0  0  0
   42.3894    5.0920   11.0060 H   0  0  0  0  0  0  0  0  0  0  0  0
   42.7331    6.3268   12.2320 H   0  0  0  0  0  0  0  0  0  0  0  0
   41.9698    4.8107   12.7042 H   0  0  0  0  0  0  0  0  0  0  0  0
   44.4044    4.8675   13.3056 H   0  0  0  0  0  0  0  0  0  0  0  0
   44.9608    2.6313   12.3893 H   0  0  0  0  0  0  0  0  0  0  0  0
   43.2695    2.7078   12.8997 H   0  0  0  0  0  0  0  0  0  0  0  0
   43.6772    2.7896   11.1767 H   0  0  0  0  0  0  0  0  0  0  0  0
   44.8776    4.8823   10.2686 H   0  0  0  0  0  0  0  0  0  0  0  0
   46.1036    4.6282   11.5114 H   0  0  0  0  0  0  0  0  0  0  0  0
   44.5163    7.2082   11.0817 H   0  0  0  0  0  0  0  0  0  0  0  0
   46.2181    6.9069   10.6665 H   0  0  0  0  0  0  0  0  0  0  0  0
  1  2  1  0
  2  3  1  0
  3  4  1  0
  4  5  1  0
  5  6  1  0
  6  7  2  0
  3  8  1  0
  9 10  1  0
 10 11  1  0
 10 12  1  0
 12 13  1  0
 13 14  1  0
 14 15  1  0
 15 16  2  0
  1 17  1  0
  1 18  1  0
  1 19  1  0
  2 20  1  0
  2 21  1  0
  3 22  1  1
  4 23  1  0
  4 24  1  0
  8 25  1  0
  8 26  1  0
  8 27  1  0
  9 28  1  0
  9 29  1  0
  9 30  1  0
 10 31  1  0
 11 32  1  0
 11 33  1  0
 11 34  1  0
 12 35  1  0
 12 36  1  0
 13 37  1  0
 13 38  1  0
M  END
> <Uni-Dock RESULT> 
ENERGY=   -4.309  LOWER_BOUND=    5.078  UPPER_BOUND=    6.162
INTER + INTRA:          -4.309
INTER:                  -4.309
INTRA:                   0.000
UNBOUND:                 0.000

$$$$

     RDKit          3D

 38 36  0  0  0  0  0  0  0  0999 V2000
   48.0830    8.8524   13.8618 C   0  0  0  0  0  0  0  0  0  0  0  0
   47.4210    7.6075   13.2883 C   0  0  0  0  0  0  0  0  0  0  0  0
   45.9268    7.7924   12.9687 C   0  0  2  0  0  0  0  0  0  0  0  0
   45.3176    6.4448   12.5437 C   0  0  0  0  0  0  0  0  0  0  0  0
   43.9066    6.5898   12.3949 O   0  0  0  0  0  0  0  0  0  0  0  0
   43.3550    5.3352   11.9850 N   0  0  0  0  0  0  0  0  0  0  0  0
   42.1319    5.4192   11.8401 O   0  0  0  0  0  0  0  0  0  0  0  0
   45.6953    8.8532   11.8867 C   0  0  0  0  0  0  0  0  0  0  0  0
   47.6273    7.1951   12.0816 C   0  0  0  0  0  0  0  0  0  0  0  0
   46.8261    7.8339   13.2166 C   0  0  0  0  0  0  0  0  0  0  0  0
   47.6840    8.8840   13.9274 C   0  0  0  0  0  0  0  0  0  0  0  0
   45.5176    8.4801   12.7197 C   0  0  0  0  0  0  0  0  0  0  0  0
   44.5334    7.5080   12.0683 C   0  0  0  0  0  0  0  0  0  0  0  0
   44.2074    6.4751   12.9927 O   0  0  0  0  0  0  0  0  0  0  0  0
   43.2947    5.5684   12.3676 N   0  0  0  0  0  0  0  0  0  0  0  0
   42.9926    4.6500   13.1352 O   0  0  0  0  0  0  0  0  0  0  0  0
   48.1350    9.6574   13.1231 H   0  0  0  0  0  0  0  0  0  0  0  0
   49.1082    8.6228   14.1701 H   0  0  0  0  0  0  0  0  0  0  0  0
   47.5399    9.2183   14.7387 H   0  0  0  0  0  0  0  0  0  0  0  0
   47.5334    6.7971   14.0194 H   0  0  0  0  0  0  0  0  0  0  0  0
   47.9630    7.2956   12.3870 H   0  0  0  0  0  0  0  0  0  0  0  0
   45.4058    8.1304   13.8743 H   0  0  0  0  0  0  0  0  0  0  0  0
   45.7611    6.1122   11.5959 H   0  0  0  0  0  0  0  0  0  0  0  0
   45.5209    5.6884   13.3128 H   0  0  0  0  0  0  0  0  0  0  0  0
   44.6312    8.9510   11.6478 H   0  0  0  0  0  0  0  0  0  0  0  0
   46.0392    9.8384   12.2157 H   0  0  0  0  0  0  0  0  0  0  0  0
   46.2262    8.5975   10.9635 H   0  0  0  0  0  0  0  0  0  0  0  0
   47.8407    7.9202   11.2890 H   0  0  0  0  0  0  0  0  0  0  0  0
   47.0874    6.3529   11.6382 H   0  0  0  0  0  0  0  0  0  0  0  0
   48.5830    6.8077   12.4510 H   0  0  0  0  0  0  0  0  0  0  0  0
   46.5850    7.0525   13.9477 H   0  0  0  0  0  0  0  0  0  0  0  0
   47.1408    9.3251   14.7699 H   0  0  0  0  0  0  0  0  0  0  0  0
   48.6016    8.4348   14.3223 H   0  0  0  0  0  0  0  0  0  0  0  0
   47.9688    9.6928   13.2460 H   0  0  0  0  0  0  0  0  0  0  0  0
   45.7439    9.2850   12.0098 H   0  0  0  0  0  0  0  0  0  0  0  0
   45.0184    8.9431   13.5810 H   0  0  0  0  0  0  0  0  0  0  0  0
   44.9624    7.0807   11.1543 H   0  0  0  0  0  0  0  0  0  0  0  0
   43.6226    8.0567   11.7962 H   0  0  0  0  0  0  0  0  0  0  0  0
  1  2  1  0
  2  3  1  0
  3  4  1  0
  4  5  1  0
  5  6  1  0
  6  7  2  0
  3  8  1  0
  9 10  1  0
 10 11  1  0
 10 12  1  0
 12 13  1  0
 13 14  1  0
 14 15  1  0
 15 16  2  0
  1 17  1  0
  1 18  1  0
  1 19  1  0
  2 20  1  0
  2 21  1  0
  3 22  1  1
  4 23  1  0
  4 24  1  0
  8 25  1  0
  8 26  1  0
  8 27  1  0
  9 28  1  0
  9 29  1  0
  9 30  1  0
 10 31  1  0
 11 32  1  0
 11 33  1  0
 11 34  1  0
 12 35  1  0
 12 36  1  0
 13 37  1  0
 13 38  1  0
M  END
> <Uni-Dock RESULT> 
ENERGY=   -4.147  LOWER_BOUND=    5.845  UPPER_BOUND=    6.717
INTER + INTRA:          -4.147
INTER:                  -4.147
INTRA:                   0.000
UNBOUND:                 0.000

$$$$

     RDKit          3D

 38 36  0  0  0  0  0  0  0  0999 V2000
   47.8785    5.5226   22.8994 C   0  0  0  0  0  0  0  0  0  0  0  0
   48.3577    4.9284   21.5824 C   0  0  0  0  0  0  0  0  0  0  0  0
   47.6294    5.4904   20.3484 C   0  0  2  0  0  0  0  0  0  0  0  0
   48.0722    4.7216   19.0912 C   0  0  0  0  0  0  0  0  0  0  0  0
   47.2863    5.1430   17.9781 O   0  0  0  0  0  0  0  0  0  0  0  0
   47.7180    4.4328   16.8138 N   0  0  0  0  0  0  0  0  0  0  0  0
   47.0637    4.7729   15.8238 O   0  0  0  0  0  0  0  0  0  0  0  0
   47.8688    6.9942   20.1724 C   0  0  0  0  0  0  0  0  0  0  0  0
   49.4944    5.2305   21.0481 C   0  0  0  0  0  0  0  0  0  0  0  0
   47.9713    5.2461   21.1823 C   0  0  0  0  0  0  0  0  0  0  0  0
   47.5829    5.5742   22.6264 C   0  0  0  0  0  0  0  0  0  0  0  0
   47.3080    6.2541   20.2229 C   0  0  0  0  0  0  0  0  0  0  0  0
   47.5498    5.9764   18.7389 C   0  0  0  0  0  0  0  0  0  0  0  0
   47.0813    4.6700   18.4200 O   0  0  0  0  0  0  0  0  0  0  0  0
   47.3225    4.4199   17.0325 N   0  0  0  0  0  0  0  0  0  0  0  0
   46.9374    3.2905   16.7161 O   0  0  0  0  0  0  0  0  0  0  0  0
   48.1366    6.5824   22.9806 H   0  0  0  0  0  0  0  0  0  0  0  0
   48.3529    5.0036   23.7387 H   0  0  0  0  0  0  0  0  0  0  0  0
   46.7943    5.4185   23.0065 H   0  0  0  0  0  0  0  0  0  0  0  0
   48.2046    3.8429   21.6253 H   0  0  0  0  0  0  0  0  0  0  0  0
   49.4385    5.0903   21.4878 H   0  0  0  0  0  0  0  0  0  0  0  0
   46.5482    5.3442   20.4730 H   0  0  0  0  0  0  0  0  0  0  0  0
   49.1354    4.9079   18.8898 H   0  0  0  0  0  0  0  0  0  0  0  0
   47.9259    3.6448   19.2458 H   0  0  0  0  0  0  0  0  0  0  0  0
   47.3707    7.3729   19.2738 H   0  0  0  0  0  0  0  0  0  0  0  0
   47.4717    7.5619   21.0193 H   0  0  0  0  0  0  0  0  0  0  0  0
   48.9378    7.2158   20.0845 H   0  0  0  0  0  0  0  0  0  0  0  0
   49.9166    6.2299   21.1985 H   0  0  0  0  0  0  0  0  0  0  0  0
   49.8034    4.8738   20.0609 H   0  0  0  0  0  0  0  0  0  0  0  0
   49.9427    4.5597   21.7890 H   0  0  0  0  0  0  0  0  0  0  0  0
   47.5974    4.2392   20.9590 H   0  0  0  0  0  0  0  0  0  0  0  0
   46.4952    5.5507   22.7521 H   0  0  0  0  0  0  0  0  0  0  0  0
   48.0134    4.8446   23.3208 H   0  0  0  0  0  0  0  0  0  0  0  0
   47.9371    6.5689   22.9175 H   0  0  0  0  0  0  0  0  0  0  0  0
   47.6491    7.2707   20.4539 H   0  0  0  0  0  0  0  0  0  0  0  0
   46.2248    6.2312   20.4009 H   0  0  0  0  0  0  0  0  0  0  0  0
   48.6155    6.0687   18.4986 H   0  0  0  0  0  0  0  0  0  0  0  0
   46.9987    6.7178   18.1462 H   0  0  0  0  0  0  0  0  0  0  0  0
  1  2  1  0
  2  3  1  0
  3  4  1  0
  4  5  1  0
  5  6  1  0
  6  7  2  0
  3  8  1  0
  9 10  1  0
 10 11  1  0
 10 12  1  0
 12 13  1  0
 13 14  1  0
 14 15  1  0
 15 16  2  0
  1 17  1  0
  1 18  1  0
  1 19  1  0
  2 20  1  0
  2 21  1  0
  3 22  1  1
  4 23  1  0
  4 24  1  0
  8 25  1  0
  8 26  1  0
  8 27  1  0
  9 28  1  0
  9 29  1  0
  9 30  1  0
 10 31  1  0
 11 32  1  0
 11 33  1  0
 11 34  1  0
 12 35  1  0
 12 36  1  0
 13 37  1  0
 13 38  1  0
M  END
> <Uni-Dock RESULT> 
ENERGY=   -4.143  LOWER_BOUND=   10.774  UPPER_BOUND=   12.066
INTER + INTRA:          -4.143
INTER:                  -4.143
INTRA:                   0.000
UNBOUND:                 0.000

$$$$
