
     RDKit          3D

 38 36  0  0  0  0  0  0  0  0999 V2000
   46.9342    2.8153    5.8624 C   0  0  0  0  0  0  0  0  0  0  0  0
   46.6358    3.6953    7.0679 C   0  0  0  0  0  0  0  0  0  0  0  0
   45.4732    3.1820    7.9364 C   0  0  2  0  0  0  0  0  0  0  0  0
   45.1513    4.2130    9.0326 C   0  0  0  0  0  0  0  0  0  0  0  0
   43.9809    3.8036    9.7374 O   0  0  0  0  0  0  0  0  0  0  0  0
   43.7022    4.7612   10.7629 N   0  0  0  0  0  0  0  0  0  0  0  0
   42.6943    4.4418   11.4002 O   0  0  0  0  0  0  0  0  0  0  0  0
   45.7770    1.8135    8.5566 C   0  0  0  0  0  0  0  0  0  0  0  0
   46.8246    1.5512    6.8898 C   0  0  0  0  0  0  0  0  0  0  0  0
   46.1368    2.8974    7.1288 C   0  0  0  0  0  0  0  0  0  0  0  0
   47.1507    4.0310    6.9683 C   0  0  0  0  0  0  0  0  0  0  0  0
   45.4661    2.9023    8.5121 C   0  0  0  0  0  0  0  0  0  0  0  0
   44.6344    4.1531    8.7897 C   0  0  0  0  0  0  0  0  0  0  0  0
   43.9815    3.9790   10.0463 O   0  0  0  0  0  0  0  0  0  0  0  0
   43.1860    5.1372   10.3156 N   0  0  0  0  0  0  0  0  0  0  0  0
   42.5991    5.0259   11.3960 O   0  0  0  0  0  0  0  0  0  0  0  0
   47.6902    3.2912    5.2294 H   0  0  0  0  0  0  0  0  0  0  0  0
   47.3253    1.8392    6.1634 H   0  0  0  0  0  0  0  0  0  0  0  0
   46.0358    2.6593    5.2572 H   0  0  0  0  0  0  0  0  0  0  0  0
   47.5444    3.7930    7.6747 H   0  0  0  0  0  0  0  0  0  0  0  0
   46.3924    4.7004    6.7013 H   0  0  0  0  0  0  0  0  0  0  0  0
   44.5807    3.0647    7.3075 H   0  0  0  0  0  0  0  0  0  0  0  0
   44.9696    5.1940    8.5752 H   0  0  0  0  0  0  0  0  0  0  0  0
   45.9959    4.2994    9.7289 H   0  0  0  0  0  0  0  0  0  0  0  0
   46.6859    1.8498    9.1665 H   0  0  0  0  0  0  0  0  0  0  0  0
   44.9547    1.4765    9.1963 H   0  0  0  0  0  0  0  0  0  0  0  0
   45.9142    1.0492    7.7858 H   0  0  0  0  0  0  0  0  0  0  0  0
   47.2741    1.5153    5.8917 H   0  0  0  0  0  0  0  0  0  0  0  0
   47.6168    1.3731    7.6250 H   0  0  0  0  0  0  0  0  0  0  0  0
   46.1051    0.7284    6.9599 H   0  0  0  0  0  0  0  0  0  0  0  0
   45.3617    3.0192    6.3616 H   0  0  0  0  0  0  0  0  0  0  0  0
   47.9139    3.9954    7.7530 H   0  0  0  0  0  0  0  0  0  0  0  0
   47.6586    3.9631    6.0000 H   0  0  0  0  0  0  0  0  0  0  0  0
   46.6637    5.0099    7.0094 H   0  0  0  0  0  0  0  0  0  0  0  0
   46.2199    2.7892    9.3023 H   0  0  0  0  0  0  0  0  0  0  0  0
   44.8133    2.0241    8.6053 H   0  0  0  0  0  0  0  0  0  0  0  0
   43.8862    4.2883    7.9988 H   0  0  0  0  0  0  0  0  0  0  0  0
   45.2777    5.0392    8.8363 H   0  0  0  0  0  0  0  0  0  0  0  0
  1  2  1  0
  2  3  1  0
  3  4  1  0
  4  5  1  0
  5  6  1  0
  6  7  2  0
  3  8  1  0
  9 10  1  0
 10 11  1  0
 10 12  1  0
 12 13  1  0
 13 14  1  0
 14 15  1  0
 15 16  2  0
  1 17  1  0
  1 18  1  0
  1 19  1  0
  2 20  1  0
  2 21  1  0
  3 22  1  1
  4 23  1  0
  4 24  1  0
  8 25  1  0
  8 26  1  0
  8 27  1  0
  9 28  1  0
  9 29  1  0
  9 30  1  0
 10 31  1  0
 11 32  1  0
 11 33  1  0
 11 34  1  0
 12 35  1  0
 12 36  1  0
 13 37  1  0
 13 38  1  0
M  END
> <Uni-Dock RESULT> 
ENERGY=   -7.888  LOWER_BOUND=    0.000  UPPER_BOUND=    0.000
INTER + INTRA:          -7.888
INTER:                  -7.888
INTRA:                   0.000
UNBOUND:                 0.000

$$$$

     RDKit          3D

 38 36  0  0  0  0  0  0  0  0999 V2000
   43.2519    4.2069   11.1262 C   0  0  0  0  0  0  0  0  0  0  0  0
   44.2669    3.4028   10.3262 C   0  0  0  0  0  0  0  0  0  0  0  0
   44.8084    4.1440    9.0906 C   0  0  2  0  0  0  0  0  0  0  0  0
   45.7023    3.1978    8.2698 C   0  0  0  0  0  0  0  0  0  0  0  0
   46.0780    3.8398    7.0529 O   0  0  0  0  0  0  0  0  0  0  0  0
   46.9210    2.9567    6.3073 N   0  0  0  0  0  0  0  0  0  0  0  0
   47.2716    3.4771    5.2441 O   0  0  0  0  0  0  0  0  0  0  0  0
   45.5759    5.4151    9.4709 C   0  0  0  0  0  0  0  0  0  0  0  0
   44.2876    5.4606   10.9818 C   0  0  0  0  0  0  0  0  0  0  0  0
   44.2379    4.2872   10.0003 C   0  0  0  0  0  0  0  0  0  0  0  0
   44.2931    2.9671   10.7704 C   0  0  0  0  0  0  0  0  0  0  0  0
   45.3761    4.4160    8.9751 C   0  0  0  0  0  0  0  0  0  0  0  0
   45.3294    3.3660    7.8667 C   0  0  0  0  0  0  0  0  0  0  0  0
   46.3629    3.6666    6.9301 O   0  0  0  0  0  0  0  0  0  0  0  0
   46.3243    2.6996    5.8765 N   0  0  0  0  0  0  0  0  0  0  0  0
   47.2032    2.9259    5.0396 O   0  0  0  0  0  0  0  0  0  0  0  0
   42.8251    3.5863   11.9209 H   0  0  0  0  0  0  0  0  0  0  0  0
   43.7124    5.0778   11.6014 H   0  0  0  0  0  0  0  0  0  0  0  0
   42.4317    4.5508   10.4884 H   0  0  0  0  0  0  0  0  0  0  0  0
   45.0951    3.1137   10.9848 H   0  0  0  0  0  0  0  0  0  0  0  0
   43.7826    2.4730   10.0025 H   0  0  0  0  0  0  0  0  0  0  0  0
   43.9647    4.4490    8.4573 H   0  0  0  0  0  0  0  0  0  0  0  0
   45.1498    2.2790    8.0346 H   0  0  0  0  0  0  0  0  0  0  0  0
   46.5993    2.9326    8.8450 H   0  0  0  0  0  0  0  0  0  0  0  0
   46.4112    5.1859   10.1412 H   0  0  0  0  0  0  0  0  0  0  0  0
   45.9816    5.9138    8.5845 H   0  0  0  0  0  0  0  0  0  0  0  0
   44.9251    6.1377    9.9724 H   0  0  0  0  0  0  0  0  0  0  0  0
   43.4588    5.4066   11.6957 H   0  0  0  0  0  0  0  0  0  0  0  0
   45.2244    5.4648   11.5496 H   0  0  0  0  0  0  0  0  0  0  0  0
   44.2076    6.4155   10.4515 H   0  0  0  0  0  0  0  0  0  0  0  0
   43.2789    4.3347    9.4690 H   0  0  0  0  0  0  0  0  0  0  0  0
   45.2600    2.8379   11.2684 H   0  0  0  0  0  0  0  0  0  0  0  0
   43.5112    2.9320   11.5369 H   0  0  0  0  0  0  0  0  0  0  0  0
   44.1334    2.1119   10.1069 H   0  0  0  0  0  0  0  0  0  0  0  0
   46.3507    4.3645    9.4781 H   0  0  0  0  0  0  0  0  0  0  0  0
   45.3405    5.4111    8.5117 H   0  0  0  0  0  0  0  0  0  0  0  0
   44.3544    3.3947    7.3647 H   0  0  0  0  0  0  0  0  0  0  0  0
   45.4959    2.3645    8.2795 H   0  0  0  0  0  0  0  0  0  0  0  0
  1  2  1  0
  2  3  1  0
  3  4  1  0
  4  5  1  0
  5  6  1  0
  6  7  2  0
  3  8  1  0
  9 10  1  0
 10 11  1  0
 10 12  1  0
 12 13  1  0
 13 14  1  0
 14 15  1  0
 15 16  2  0
  1 17  1  0
  1 18  1  0
  1 19  1  0
  2 20  1  0
  2 21  1  0
  3 22  1  1
  4 23  1  0
  4 24  1  0
  8 25  1  0
  8 26  1  0
  8 27  1  0
  9 28  1  0
  9 29  1  0
  9 30  1  0
 10 31  1  0
 11 32  1  0
 11 33  1  0
 11 34  1  0
 12 35  1  0
 12 36  1  0
 13 37  1  0
 13 38  1  0
M  END
> <Uni-Dock RESULT> 
ENERGY=   -6.320  LOWER_BOUND=    3.389  UPPER_BOUND=    4.875
INTER + INTRA:          -6.320
INTER:                  -6.320
INTRA:                   0.000
UNBOUND:                 0.000

$$$$

     RDKit          3D

 38 36  0  0  0  0  0  0  0  0999 V2000
   44.1270    4.1975   11.2318 C   0  0  0  0  0  0  0  0  0  0  0  0
   44.3596    4.3692    9.7373 C   0  0  0  0  0  0  0  0  0  0  0  0
   45.2625    3.2845    9.1228 C   0  0  2  0  0  0  0  0  0  0  0  0
   45.5606    3.6306    7.6533 C   0  0  0  0  0  0  0  0  0  0  0  0
   46.5153    2.7067    7.1345 O   0  0  0  0  0  0  0  0  0  0  0  0
   46.7713    3.0293    5.7645 N   0  0  0  0  0  0  0  0  0  0  0  0
   47.5937    2.2491    5.2756 O   0  0  0  0  0  0  0  0  0  0  0  0
   44.6417    1.8873    9.2319 C   0  0  0  0  0  0  0  0  0  0  0  0
   43.8575    2.6213   10.9025 C   0  0  0  0  0  0  0  0  0  0  0  0
   44.7052    3.5375   10.0167 C   0  0  0  0  0  0  0  0  0  0  0  0
   43.9298    4.8189    9.7077 C   0  0  0  0  0  0  0  0  0  0  0  0
   45.1282    2.7867    8.7437 C   0  0  0  0  0  0  0  0  0  0  0  0
   46.0940    3.5711    7.8574 C   0  0  0  0  0  0  0  0  0  0  0  0
   46.4918    2.7240    6.7804 O   0  0  0  0  0  0  0  0  0  0  0  0
   47.4087    3.4393    5.9472 N   0  0  0  0  0  0  0  0  0  0  0  0
   47.7818    2.7389    5.0016 O   0  0  0  0  0  0  0  0  0  0  0  0
   43.5742    5.0566   11.6258 H   0  0  0  0  0  0  0  0  0  0  0  0
   43.5381    3.3013   11.4473 H   0  0  0  0  0  0  0  0  0  0  0  0
   45.0761    4.1292   11.7723 H   0  0  0  0  0  0  0  0  0  0  0  0
   43.3908    4.3882    9.2232 H   0  0  0  0  0  0  0  0  0  0  0  0
   44.8204    5.3520    9.5773 H   0  0  0  0  0  0  0  0  0  0  0  0
   46.2162    3.2617    9.6668 H   0  0  0  0  0  0  0  0  0  0  0  0
   45.9727    4.6459    7.5890 H   0  0  0  0  0  0  0  0  0  0  0  0
   44.6373    3.5865    7.0605 H   0  0  0  0  0  0  0  0  0  0  0  0
   43.6621    1.8517    8.7435 H   0  0  0  0  0  0  0  0  0  0  0  0
   45.2804    1.1317    8.7627 H   0  0  0  0  0  0  0  0  0  0  0  0
   44.5124    1.5901   10.2769 H   0  0  0  0  0  0  0  0  0  0  0  0
   43.5805    3.1272   11.8336 H   0  0  0  0  0  0  0  0  0  0  0  0
   42.9357    2.3182   10.3942 H   0  0  0  0  0  0  0  0  0  0  0  0
   44.4120    1.7152   11.1689 H   0  0  0  0  0  0  0  0  0  0  0  0
   45.6065    3.8093   10.5806 H   0  0  0  0  0  0  0  0  0  0  0  0
   43.0511    4.6117    9.0875 H   0  0  0  0  0  0  0  0  0  0  0  0
   43.5858    5.2967   10.6315 H   0  0  0  0  0  0  0  0  0  0  0  0
   44.5555    5.5462    9.1818 H   0  0  0  0  0  0  0  0  0  0  0  0
   44.2453    2.5075    8.1538 H   0  0  0  0  0  0  0  0  0  0  0  0
   45.6051    1.8369    9.0203 H   0  0  0  0  0  0  0  0  0  0  0  0
   46.9752    3.8710    8.4380 H   0  0  0  0  0  0  0  0  0  0  0  0
   45.6045    4.4643    7.4529 H   0  0  0  0  0  0  0  0  0  0  0  0
  1  2  1  0
  2  3  1  0
  3  4  1  0
  4  5  1  0
  5  6  1  0
  6  7  2  0
  3  8  1  0
  9 10  1  0
 10 11  1  0
 10 12  1  0
 12 13  1  0
 13 14  1  0
 14 15  1  0
 15 16  2  0
  1 17  1  0
  1 18  1  0
  1 19  1  0
  2 20  1  0
  2 21  1  0
  3 22  1  1
  4 23  1  0
  4 24  1  0
  8 25  1  0
  8 26  1  0
  8 27  1  0
  9 28  1  0
  9 29  1  0
  9 30  1  0
 10 31  1  0
 11 32  1  0
 11 33  1  0
 11 34  1  0
 12 35  1  0
 12 36  1  0
 13 37  1  0
 13 38  1  0
M  END
> <Uni-Dock RESULT> 
ENERGY=   -6.070  LOWER_BOUND=    3.545  UPPER_BOUND=    4.778
INTER + INTRA:          -6.070
INTER:                  -6.070
INTRA:                   0.000
UNBOUND:                 0.000

$$$$
