
     RDKit          3D

 38 36  0  0  0  0  0  0  0  0999 V2000
   45.7608    3.8374   13.0344 C   0  0  0  0  0  0  0  0  0  0  0  0
   44.3085    4.2913   13.0473 C   0  0  0  0  0  0  0  0  0  0  0  0
   43.6999    4.6910   11.6874 C   0  0  2  0  0  0  0  0  0  0  0  0
   43.6169    3.5239   10.6886 C   0  0  0  0  0  0  0  0  0  0  0  0
   44.9039    3.1972   10.1751 O   0  0  0  0  0  0  0  0  0  0  0  0
   44.7737    2.1050    9.2608 N   0  0  0  0  0  0  0  0  0  0  0  0
   45.8732    1.7843    8.8003 O   0  0  0  0  0  0  0  0  0  0  0  0
   44.4070    5.9047   11.0791 C   0  0  0  0  0  0  0  0  0  0  0  0
   43.0360    5.1715   12.6014 C   0  0  0  0  0  0  0  0  0  0  0  0
   44.0210    4.0076   12.7102 C   0  0  0  0  0  0  0  0  0  0  0  0
   45.3629    4.4928   13.2583 C   0  0  0  0  0  0  0  0  0  0  0  0
   44.1733    3.2450   11.3831 C   0  0  0  0  0  0  0  0  0  0  0  0
   44.7386    4.0543   10.2168 C   0  0  0  0  0  0  0  0  0  0  0  0
   44.8088    3.1939    9.0797 O   0  0  0  0  0  0  0  0  0  0  0  0
   45.3365    3.9338    7.9748 N   0  0  0  0  0  0  0  0  0  0  0  0
   45.4140    3.2241    6.9674 O   0  0  0  0  0  0  0  0  0  0  0  0
   45.8853    2.9001   12.4857 H   0  0  0  0  0  0  0  0  0  0  0  0
   46.1001    3.6578   14.0602 H   0  0  0  0  0  0  0  0  0  0  0  0
   46.4198    4.5925   12.5975 H   0  0  0  0  0  0  0  0  0  0  0  0
   43.6996    3.4909   13.4862 H   0  0  0  0  0  0  0  0  0  0  0  0
   44.2235    5.1462   13.7304 H   0  0  0  0  0  0  0  0  0  0  0  0
   42.6650    4.9940   11.8984 H   0  0  0  0  0  0  0  0  0  0  0  0
   42.9638    3.8168    9.8557 H   0  0  0  0  0  0  0  0  0  0  0  0
   43.1744    2.6478   11.1801 H   0  0  0  0  0  0  0  0  0  0  0  0
   44.4112    6.7431   11.7835 H   0  0  0  0  0  0  0  0  0  0  0  0
   45.4442    5.6880   10.8063 H   0  0  0  0  0  0  0  0  0  0  0  0
   43.8875    6.2352   10.1731 H   0  0  0  0  0  0  0  0  0  0  0  0
   43.4179    5.9695   11.9569 H   0  0  0  0  0  0  0  0  0  0  0  0
   42.8465    5.6067   13.5887 H   0  0  0  0  0  0  0  0  0  0  0  0
   42.0763    4.8334   12.1968 H   0  0  0  0  0  0  0  0  0  0  0  0
   43.6082    3.2974   13.4388 H   0  0  0  0  0  0  0  0  0  0  0  0
   45.8011    5.2746   12.6298 H   0  0  0  0  0  0  0  0  0  0  0  0
   46.0780    3.6665   13.3265 H   0  0  0  0  0  0  0  0  0  0  0  0
   45.2381    4.9092   14.2639 H   0  0  0  0  0  0  0  0  0  0  0  0
   44.8117    2.3659   11.5430 H   0  0  0  0  0  0  0  0  0  0  0  0
   43.1978    2.8364   11.0874 H   0  0  0  0  0  0  0  0  0  0  0  0
   44.0860    4.9046    9.9881 H   0  0  0  0  0  0  0  0  0  0  0  0
   45.7433    4.4213   10.4560 H   0  0  0  0  0  0  0  0  0  0  0  0
  1  2  1  0
  2  3  1  0
  3  4  1  0
  4  5  1  0
  5  6  1  0
  6  7  2  0
  3  8  1  0
  9 10  1  0
 10 11  1  0
 10 12  1  0
 12 13  1  0
 13 14  1  0
 14 15  1  0
 15 16  2  0
  1 17  1  0
  1 18  1  0
  1 19  1  0
  2 20  1  0
  2 21  1  0
  3 22  1  1
  4 23  1  0
  4 24  1  0
  8 25  1  0
  8 26  1  0
  8 27  1  0
  9 28  1  0
  9 29  1  0
  9 30  1  0
 10 31  1  0
 11 32  1  0
 11 33  1  0
 11 34  1  0
 12 35  1  0
 12 36  1  0
 13 37  1  0
 13 38  1  0
M  END
> <Uni-Dock RESULT> 
ENERGY=   -5.032  LOWER_BOUND=    0.000  UPPER_BOUND=    0.000
INTER + INTRA:          -5.032
INTER:                  -5.032
INTRA:                   0.000
UNBOUND:                 0.000

$$$$

     RDKit          3D

 38 36  0  0  0  0  0  0  0  0999 V2000
   44.6436    3.8263    9.6176 C   0  0  0  0  0  0  0  0  0  0  0  0
   43.8948    3.1821   10.7751 C   0  0  0  0  0  0  0  0  0  0  0  0
   43.9674    3.9107   12.1327 C   0  0  2  0  0  0  0  0  0  0  0  0
   43.3089    5.3010   12.1159 C   0  0  0  0  0  0  0  0  0  0  0  0
   44.1135    6.2398   11.4103 O   0  0  0  0  0  0  0  0  0  0  0  0
   43.4556    7.5099   11.4165 N   0  0  0  0  0  0  0  0  0  0  0  0
   44.1191    8.3512   10.8035 O   0  0  0  0  0  0  0  0  0  0  0  0
   45.3980    3.9709   12.6737 C   0  0  0  0  0  0  0  0  0  0  0  0
   43.6433    2.7389   12.3025 C   0  0  0  0  0  0  0  0  0  0  0  0
   43.5587    3.5230   10.9931 C   0  0  0  0  0  0  0  0  0  0  0  0
   44.7531    3.1966   10.0967 C   0  0  0  0  0  0  0  0  0  0  0  0
   43.3994    5.0350   11.2266 C   0  0  0  0  0  0  0  0  0  0  0  0
   44.5585    5.7175   11.9515 C   0  0  0  0  0  0  0  0  0  0  0  0
   44.2403    7.1034   12.0789 O   0  0  0  0  0  0  0  0  0  0  0  0
   45.3149    7.7618   12.7561 N   0  0  0  0  0  0  0  0  0  0  0  0
   45.0791    8.9666   12.8875 O   0  0  0  0  0  0  0  0  0  0  0  0
   44.2071    4.7898    9.3417 H   0  0  0  0  0  0  0  0  0  0  0  0
   44.5837    3.1808    8.7348 H   0  0  0  0  0  0  0  0  0  0  0  0
   45.7026    3.9714    9.8477 H   0  0  0  0  0  0  0  0  0  0  0  0
   42.8416    3.0727   10.4877 H   0  0  0  0  0  0  0  0  0  0  0  0
   44.2806    2.1630   10.9069 H   0  0  0  0  0  0  0  0  0  0  0  0
   43.3836    3.2986   12.8342 H   0  0  0  0  0  0  0  0  0  0  0  0
   43.1829    5.6453   13.1511 H   0  0  0  0  0  0  0  0  0  0  0  0
   42.3158    5.2337   11.6532 H   0  0  0  0  0  0  0  0  0  0  0  0
   45.8334    2.9675   12.7283 H   0  0  0  0  0  0  0  0  0  0  0  0
   46.0521    4.5891   12.0515 H   0  0  0  0  0  0  0  0  0  0  0  0
   45.4068    4.3918   13.6850 H   0  0  0  0  0  0  0  0  0  0  0  0
   44.5681    2.9539   12.8471 H   0  0  0  0  0  0  0  0  0  0  0  0
   43.6186    1.6614   12.1062 H   0  0  0  0  0  0  0  0  0  0  0  0
   42.7973    2.9779   12.9554 H   0  0  0  0  0  0  0  0  0  0  0  0
   42.6549    3.1860   10.4684 H   0  0  0  0  0  0  0  0  0  0  0  0
   45.7049    3.4226   10.5879 H   0  0  0  0  0  0  0  0  0  0  0  0
   44.7060    3.7650    9.1621 H   0  0  0  0  0  0  0  0  0  0  0  0
   44.7592    2.1319    9.8391 H   0  0  0  0  0  0  0  0  0  0  0  0
   43.2451    5.5352   10.2612 H   0  0  0  0  0  0  0  0  0  0  0  0
   42.4752    5.2178   11.7911 H   0  0  0  0  0  0  0  0  0  0  0  0
   44.6956    5.2841   12.9487 H   0  0  0  0  0  0  0  0  0  0  0  0
   45.4861    5.6101   11.3777 H   0  0  0  0  0  0  0  0  0  0  0  0
  1  2  1  0
  2  3  1  0
  3  4  1  0
  4  5  1  0
  5  6  1  0
  6  7  2  0
  3  8  1  0
  9 10  1  0
 10 11  1  0
 10 12  1  0
 12 13  1  0
 13 14  1  0
 14 15  1  0
 15 16  2  0
  1 17  1  0
  1 18  1  0
  1 19  1  0
  2 20  1  0
  2 21  1  0
  3 22  1  1
  4 23  1  0
  4 24  1  0
  8 25  1  0
  8 26  1  0
  8 27  1  0
  9 28  1  0
  9 29  1  0
  9 30  1  0
 10 31  1  0
 11 32  1  0
 11 33  1  0
 11 34  1  0
 12 35  1  0
 12 36  1  0
 13 37  1  0
 13 38  1  0
M  END
> <Uni-Dock RESULT> 
ENERGY=   -4.861  LOWER_BOUND=    3.257  UPPER_BOUND=    4.271
INTER + INTRA:          -4.861
INTER:                  -4.861
INTRA:                   0.000
UNBOUND:                 0.000

$$$$

     RDKit          3D

 38 36  0  0  0  0  0  0  0  0999 V2000
   42.5154    5.3798   11.7563 C   0  0  0  0  0  0  0  0  0  0  0  0
   43.8114    5.9360   12.3275 C   0  0  0  0  0  0  0  0  0  0  0  0
   45.0963    5.1388   12.0227 C   0  0  2  0  0  0  0  0  0  0  0  0
   45.4484    5.0968   10.5257 C   0  0  0  0  0  0  0  0  0  0  0  0
   44.5724    4.2258    9.8181 O   0  0  0  0  0  0  0  0  0  0  0  0
   44.9354    4.2285    8.4346 N   0  0  0  0  0  0  0  0  0  0  0  0
   44.1900    3.4907    7.7836 O   0  0  0  0  0  0  0  0  0  0  0  0
   45.0567    3.7353   12.6322 C   0  0  0  0  0  0  0  0  0  0  0  0
   45.2765    5.8700   12.9922 C   0  0  0  0  0  0  0  0  0  0  0  0
   44.1687    6.0049   11.9477 C   0  0  0  0  0  0  0  0  0  0  0  0
   42.8619    5.4129   12.4753 C   0  0  0  0  0  0  0  0  0  0  0  0
   44.5723    5.4104   10.5877 C   0  0  0  0  0  0  0  0  0  0  0  0
   44.8579    3.9093   10.5810 C   0  0  0  0  0  0  0  0  0  0  0  0
   45.2133    3.5368    9.2495 O   0  0  0  0  0  0  0  0  0  0  0  0
   45.4851    2.1324    9.2216 N   0  0  0  0  0  0  0  0  0  0  0  0
   45.7976    1.7677    8.0842 O   0  0  0  0  0  0  0  0  0  0  0  0
   42.5084    5.4154   10.6638 H   0  0  0  0  0  0  0  0  0  0  0  0
   41.6701    5.9835   12.1038 H   0  0  0  0  0  0  0  0  0  0  0  0
   42.3376    4.3498   12.0771 H   0  0  0  0  0  0  0  0  0  0  0  0
   43.9372    6.9634   11.9634 H   0  0  0  0  0  0  0  0  0  0  0  0
   43.7001    6.0119   13.4168 H   0  0  0  0  0  0  0  0  0  0  0  0
   45.9123    5.6822   12.5190 H   0  0  0  0  0  0  0  0  0  0  0  0
   46.4791    4.7343   10.4147 H   0  0  0  0  0  0  0  0  0  0  0  0
   45.3934    6.1091   10.1048 H   0  0  0  0  0  0  0  0  0  0  0  0
   44.8567    3.7862   13.7077 H   0  0  0  0  0  0  0  0  0  0  0  0
   44.2874    3.1053   12.1755 H   0  0  0  0  0  0  0  0  0  0  0  0
   46.0206    3.2327   12.4974 H   0  0  0  0  0  0  0  0  0  0  0  0
   45.4453    4.8260   13.2745 H   0  0  0  0  0  0  0  0  0  0  0  0
   45.0139    6.4198   13.9026 H   0  0  0  0  0  0  0  0  0  0  0  0
   46.2194    6.2803   12.6157 H   0  0  0  0  0  0  0  0  0  0  0  0
   43.9999    7.0780   11.7874 H   0  0  0  0  0  0  0  0  0  0  0  0
   42.9722    4.3578   12.7452 H   0  0  0  0  0  0  0  0  0  0  0  0
   42.0668    5.4942   11.7269 H   0  0  0  0  0  0  0  0  0  0  0  0
   42.5321    5.9500   13.3713 H   0  0  0  0  0  0  0  0  0  0  0  0
   43.7838    5.6215    9.8530 H   0  0  0  0  0  0  0  0  0  0  0  0
   45.4586    5.9386   10.2114 H   0  0  0  0  0  0  0  0  0  0  0  0
   45.6878    3.6738   11.2569 H   0  0  0  0  0  0  0  0  0  0  0  0
   43.9680    3.3483   10.8888 H   0  0  0  0  0  0  0  0  0  0  0  0
  1  2  1  0
  2  3  1  0
  3  4  1  0
  4  5  1  0
  5  6  1  0
  6  7  2  0
  3  8  1  0
  9 10  1  0
 10 11  1  0
 10 12  1  0
 12 13  1  0
 13 14  1  0
 14 15  1  0
 15 16  2  0
  1 17  1  0
  1 18  1  0
  1 19  1  0
  2 20  1  0
  2 21  1  0
  3 22  1  1
  4 23  1  0
  4 24  1  0
  8 25  1  0
  8 26  1  0
  8 27  1  0
  9 28  1  0
  9 29  1  0
  9 30  1  0
 10 31  1  0
 11 32  1  0
 11 33  1  0
 11 34  1  0
 12 35  1  0
 12 36  1  0
 13 37  1  0
 13 38  1  0
M  END
> <Uni-Dock RESULT> 
ENERGY=   -4.540  LOWER_BOUND=    0.982  UPPER_BOUND=    2.225
INTER + INTRA:          -4.540
INTER:                  -4.540
INTRA:                   0.000
UNBOUND:                 0.000

$$$$

     RDKit          3D

 38 36  0  0  0  0  0  0  0  0999 V2000
   44.8413    4.6642   10.0712 C   0  0  0  0  0  0  0  0  0  0  0  0
   43.6336    5.3187   10.7257 C   0  0  0  0  0  0  0  0  0  0  0  0
   43.6170    5.3468   12.2679 C   0  0  2  0  0  0  0  0  0  0  0  0
   44.7521    6.1887   12.8757 C   0  0  0  0  0  0  0  0  0  0  0  0
   46.0033    5.5193   12.7616 O   0  0  0  0  0  0  0  0  0  0  0  0
   47.0231    6.3443   13.3321 N   0  0  0  0  0  0  0  0  0  0  0  0
   48.1282    5.8013   13.2429 O   0  0  0  0  0  0  0  0  0  0  0  0
   43.5778    3.9380   12.8651 C   0  0  0  0  0  0  0  0  0  0  0  0
   42.4803    5.5082   11.8333 C   0  0  0  0  0  0  0  0  0  0  0  0
   43.7836    5.6983   11.0576 C   0  0  0  0  0  0  0  0  0  0  0  0
   44.0766    4.4701   10.1960 C   0  0  0  0  0  0  0  0  0  0  0  0
   44.9625    6.0623   11.9760 C   0  0  0  0  0  0  0  0  0  0  0  0
   45.3416    5.0075   13.0145 C   0  0  0  0  0  0  0  0  0  0  0  0
   46.4437    5.5118   13.7691 O   0  0  0  0  0  0  0  0  0  0  0  0
   46.8148    4.5373   14.7487 N   0  0  0  0  0  0  0  0  0  0  0  0
   47.7677    4.9352   15.4254 O   0  0  0  0  0  0  0  0  0  0  0  0
   45.7582    5.2278   10.2626 H   0  0  0  0  0  0  0  0  0  0  0  0
   44.7017    4.6351    8.9852 H   0  0  0  0  0  0  0  0  0  0  0  0
   44.9818    3.6350   10.4124 H   0  0  0  0  0  0  0  0  0  0  0  0
   43.5523    6.3471   10.3519 H   0  0  0  0  0  0  0  0  0  0  0  0
   42.7322    4.7977   10.3782 H   0  0  0  0  0  0  0  0  0  0  0  0
   42.6774    5.8420   12.5496 H   0  0  0  0  0  0  0  0  0  0  0  0
   44.5347    6.3610   13.9383 H   0  0  0  0  0  0  0  0  0  0  0  0
   44.7994    7.1632   12.3726 H   0  0  0  0  0  0  0  0  0  0  0  0
   42.7333    3.3699   12.4609 H   0  0  0  0  0  0  0  0  0  0  0  0
   44.4928    3.3740   12.6603 H   0  0  0  0  0  0  0  0  0  0  0  0
   43.4545    3.9872   13.9525 H   0  0  0  0  0  0  0  0  0  0  0  0
   42.5133    4.6216   12.4743 H   0  0  0  0  0  0  0  0  0  0  0  0
   41.6382    5.3857   11.1435 H   0  0  0  0  0  0  0  0  0  0  0  0
   42.2709    6.3792   12.4631 H   0  0  0  0  0  0  0  0  0  0  0  0
   43.6377    6.5475   10.3769 H   0  0  0  0  0  0  0  0  0  0  0  0
   44.1482    3.5582   10.7973 H   0  0  0  0  0  0  0  0  0  0  0  0
   45.0160    4.5938    9.6473 H   0  0  0  0  0  0  0  0  0  0  0  0
   43.2789    4.3187    9.4606 H   0  0  0  0  0  0  0  0  0  0  0  0
   45.8450    6.2830   11.3607 H   0  0  0  0  0  0  0  0  0  0  0  0
   44.7379    7.0031   12.4963 H   0  0  0  0  0  0  0  0  0  0  0  0
   44.4997    4.8130   13.6886 H   0  0  0  0  0  0  0  0  0  0  0  0
   45.6366    4.0736   12.5224 H   0  0  0  0  0  0  0  0  0  0  0  0
  1  2  1  0
  2  3  1  0
  3  4  1  0
  4  5  1  0
  5  6  1  0
  6  7  2  0
  3  8  1  0
  9 10  1  0
 10 11  1  0
 10 12  1  0
 12 13  1  0
 13 14  1  0
 14 15  1  0
 15 16  2  0
  1 17  1  0
  1 18  1  0
  1 19  1  0
  2 20  1  0
  2 21  1  0
  3 22  1  1
  4 23  1  0
  4 24  1  0
  8 25  1  0
  8 26  1  0
  8 27  1  0
  9 28  1  0
  9 29  1  0
  9 30  1  0
 10 31  1  0
 11 32  1  0
 11 33  1  0
 11 34  1  0
 12 35  1  0
 12 36  1  0
 13 37  1  0
 13 38  1  0
M  END
> <Uni-Dock RESULT> 
ENERGY=   -4.529  LOWER_BOUND=    3.434  UPPER_BOUND=    4.520
INTER + INTRA:          -4.529
INTER:                  -4.529
INTRA:                   0.000
UNBOUND:                 0.000

$$$$

     RDKit          3D

 38 36  0  0  0  0  0  0  0  0999 V2000
   42.6969    5.8107   12.1356 C   0  0  0  0  0  0  0  0  0  0  0  0
   43.1442    4.3574   12.0805 C   0  0  0  0  0  0  0  0  0  0  0  0
   44.6153    4.1041   11.6920 C   0  0  2  0  0  0  0  0  0  0  0  0
   45.6217    4.6655   12.7112 C   0  0  0  0  0  0  0  0  0  0  0  0
   45.6974    6.0846   12.6272 O   0  0  0  0  0  0  0  0  0  0  0  0
   46.6369    6.5560   13.5972 N   0  0  0  0  0  0  0  0  0  0  0  0
   46.7235    7.7869   13.5627 O   0  0  0  0  0  0  0  0  0  0  0  0
   44.9229    4.5856   10.2719 C   0  0  0  0  0  0  0  0  0  0  0  0
   43.9534    3.0855   11.5147 C   0  0  0  0  0  0  0  0  0  0  0  0
   43.5650    4.2796   12.3863 C   0  0  0  0  0  0  0  0  0  0  0  0
   42.5950    5.1940   11.6383 C   0  0  0  0  0  0  0  0  0  0  0  0
   44.7925    5.0394   12.9173 C   0  0  0  0  0  0  0  0  0  0  0  0
   45.6858    5.6771   11.8542 C   0  0  0  0  0  0  0  0  0  0  0  0
   46.7635    6.3324   12.5231 O   0  0  0  0  0  0  0  0  0  0  0  0
   47.6131    6.9372   11.5437 N   0  0  0  0  0  0  0  0  0  0  0  0
   48.5613    7.5165   12.0820 O   0  0  0  0  0  0  0  0  0  0  0  0
   43.2032    6.3582   12.9350 H   0  0  0  0  0  0  0  0  0  0  0  0
   41.6224    5.8582   12.3430 H   0  0  0  0  0  0  0  0  0  0  0  0
   42.8720    6.3273   11.1881 H   0  0  0  0  0  0  0  0  0  0  0  0
   42.9522    3.8988   13.0586 H   0  0  0  0  0  0  0  0  0  0  0  0
   42.5004    3.8284   11.3660 H   0  0  0  0  0  0  0  0  0  0  0  0
   44.7440    3.0128   11.6966 H   0  0  0  0  0  0  0  0  0  0  0  0
   46.6126    4.2418   12.5002 H   0  0  0  0  0  0  0  0  0  0  0  0
   45.3280    4.3636   13.7249 H   0  0  0  0  0  0  0  0  0  0  0  0
   44.2304    4.1359    9.5525 H   0  0  0  0  0  0  0  0  0  0  0  0
   44.8492    5.6731   10.1766 H   0  0  0  0  0  0  0  0  0  0  0  0
   45.9383    4.2948    9.9813 H   0  0  0  0  0  0  0  0  0  0  0  0
   44.4138    3.4010   10.5731 H   0  0  0  0  0  0  0  0  0  0  0  0
   43.0691    2.4887   11.2661 H   0  0  0  0  0  0  0  0  0  0  0  0
   44.6588    2.4328   12.0396 H   0  0  0  0  0  0  0  0  0  0  0  0
   43.0327    3.8853   13.2620 H   0  0  0  0  0  0  0  0  0  0  0  0
   43.0224    5.5606   10.6996 H   0  0  0  0  0  0  0  0  0  0  0  0
   42.3226    6.0589   12.2520 H   0  0  0  0  0  0  0  0  0  0  0  0
   41.6729    4.6559   11.3932 H   0  0  0  0  0  0  0  0  0  0  0  0
   44.4601    5.8217   13.6126 H   0  0  0  0  0  0  0  0  0  0  0  0
   45.4023    4.3593   13.5270 H   0  0  0  0  0  0  0  0  0  0  0  0
   46.0888    4.9111   11.1820 H   0  0  0  0  0  0  0  0  0  0  0  0
   45.1212    6.4128   11.2700 H   0  0  0  0  0  0  0  0  0  0  0  0
  1  2  1  0
  2  3  1  0
  3  4  1  0
  4  5  1  0
  5  6  1  0
  6  7  2  0
  3  8  1  0
  9 10  1  0
 10 11  1  0
 10 12  1  0
 12 13  1  0
 13 14  1  0
 14 15  1  0
 15 16  2  0
  1 17  1  0
  1 18  1  0
  1 19  1  0
  2 20  1  0
  2 21  1  0
  3 22  1  1
  4 23  1  0
  4 24  1  0
  8 25  1  0
  8 26  1  0
  8 27  1  0
  9 28  1  0
  9 29  1  0
  9 30  1  0
 10 31  1  0
 11 32  1  0
 11 33  1  0
 11 34  1  0
 12 35  1  0
 12 36  1  0
 13 37  1  0
 13 38  1  0
M  END
> <Uni-Dock RESULT> 
ENERGY=   -4.138  LOWER_BOUND=    3.365  UPPER_BOUND=    4.204
INTER + INTRA:          -4.138
INTER:                  -4.138
INTRA:                   0.000
UNBOUND:                 0.000

$$$$

     RDKit          3D

 38 36  0  0  0  0  0  0  0  0999 V2000
   42.9398    5.3425   12.7910 C   0  0  0  0  0  0  0  0  0  0  0  0
   43.2470    4.0673   12.0198 C   0  0  0  0  0  0  0  0  0  0  0  0
   44.6819    3.9223   11.4725 C   0  0  2  0  0  0  0  0  0  0  0  0
   45.7513    3.8438   12.5756 C   0  0  0  0  0  0  0  0  0  0  0  0
   45.9595    5.1168   13.1781 O   0  0  0  0  0  0  0  0  0  0  0  0
   46.9533    4.9885   14.1988 N   0  0  0  0  0  0  0  0  0  0  0  0
   47.1553    6.0726   14.7538 O   0  0  0  0  0  0  0  0  0  0  0  0
   45.0130    5.0048   10.4421 C   0  0  0  0  0  0  0  0  0  0  0  0
   43.9242    3.1694   10.8675 C   0  0  0  0  0  0  0  0  0  0  0  0
   43.6630    3.8198   12.2259 C   0  0  0  0  0  0  0  0  0  0  0  0
   42.7730    5.0523   12.0658 C   0  0  0  0  0  0  0  0  0  0  0  0
   44.9643    4.1334   12.9836 C   0  0  0  0  0  0  0  0  0  0  0  0
   45.8983    5.1353   12.3066 C   0  0  0  0  0  0  0  0  0  0  0  0
   47.0427    5.3024   13.1437 O   0  0  0  0  0  0  0  0  0  0  0  0
   47.9314    6.2386   12.5267 N   0  0  0  0  0  0  0  0  0  0  0  0
   48.9377    6.4123   13.2205 O   0  0  0  0  0  0  0  0  0  0  0  0
   43.5071    5.3959   13.7240 H   0  0  0  0  0  0  0  0  0  0  0  0
   41.8777    5.3652   13.0580 H   0  0  0  0  0  0  0  0  0  0  0  0
   43.1492    6.2374   12.1988 H   0  0  0  0  0  0  0  0  0  0  0  0
   43.0267    3.2095   12.6675 H   0  0  0  0  0  0  0  0  0  0  0  0
   42.5459    3.9995   11.1780 H   0  0  0  0  0  0  0  0  0  0  0  0
   44.7069    2.9583   10.9459 H   0  0  0  0  0  0  0  0  0  0  0  0
   46.6947    3.5010   12.1300 H   0  0  0  0  0  0  0  0  0  0  0  0
   45.4452    3.1133   13.3356 H   0  0  0  0  0  0  0  0  0  0  0  0
   44.2708    5.0122    9.6369 H   0  0  0  0  0  0  0  0  0  0  0  0
   45.0409    6.0051   10.8844 H   0  0  0  0  0  0  0  0  0  0  0  0
   45.9920    4.8145    9.9891 H   0  0  0  0  0  0  0  0  0  0  0  0
   44.3987    3.8644   10.1675 H   0  0  0  0  0  0  0  0  0  0  0  0
   42.9840    2.8358   10.4152 H   0  0  0  0  0  0  0  0  0  0  0  0
   44.5723    2.2931   10.9730 H   0  0  0  0  0  0  0  0  0  0  0  0
   43.1085    3.0934   12.8346 H   0  0  0  0  0  0  0  0  0  0  0  0
   43.2194    5.7929   11.3947 H   0  0  0  0  0  0  0  0  0  0  0  0
   42.5924    5.5312   13.0337 H   0  0  0  0  0  0  0  0  0  0  0  0
   41.8007    4.7710   11.6468 H   0  0  0  0  0  0  0  0  0  0  0  0
   44.7173    4.5054   13.9869 H   0  0  0  0  0  0  0  0  0  0  0  0
   45.5158    3.1994   13.1559 H   0  0  0  0  0  0  0  0  0  0  0  0
   46.2174    4.7610   11.3272 H   0  0  0  0  0  0  0  0  0  0  0  0
   45.3974    6.1021   12.1806 H   0  0  0  0  0  0  0  0  0  0  0  0
  1  2  1  0
  2  3  1  0
  3  4  1  0
  4  5  1  0
  5  6  1  0
  6  7  2  0
  3  8  1  0
  9 10  1  0
 10 11  1  0
 10 12  1  0
 12 13  1  0
 13 14  1  0
 14 15  1  0
 15 16  2  0
  1 17  1  0
  1 18  1  0
  1 19  1  0
  2 20  1  0
  2 21  1  0
  3 22  1  1
  4 23  1  0
  4 24  1  0
  8 25  1  0
  8 26  1  0
  8 27  1  0
  9 28  1  0
  9 29  1  0
  9 30  1  0
 10 31  1  0
 11 32  1  0
 11 33  1  0
 11 34  1  0
 12 35  1  0
 12 36  1  0
 13 37  1  0
 13 38  1  0
M  END
> <Uni-Dock RESULT> 
ENERGY=   -4.096  LOWER_BOUND=    3.391  UPPER_BOUND=    4.173
INTER + INTRA:          -4.096
INTER:                  -4.096
INTRA:                   0.000
UNBOUND:                 0.000

$$$$

     RDKit          3D

 38 36  0  0  0  0  0  0  0  0999 V2000
   49.7606    2.4655   16.9736 C   0  0  0  0  0  0  0  0  0  0  0  0
   49.0171    3.0745   18.1533 C   0  0  0  0  0  0  0  0  0  0  0  0
   48.2542    4.3875   17.8827 C   0  0  2  0  0  0  0  0  0  0  0  0
   47.0989    4.2272   16.8796 C   0  0  0  0  0  0  0  0  0  0  0  0
   47.5909    4.0754   15.5523 O   0  0  0  0  0  0  0  0  0  0  0  0
   46.4816    3.9223   14.6624 N   0  0  0  0  0  0  0  0  0  0  0  0
   46.8686    3.7772   13.4992 O   0  0  0  0  0  0  0  0  0  0  0  0
   49.1970    5.5242   17.4800 C   0  0  0  0  0  0  0  0  0  0  0  0
   48.4541    4.2593   19.0871 C   0  0  0  0  0  0  0  0  0  0  0  0
   48.5103    3.1517   18.0352 C   0  0  0  0  0  0  0  0  0  0  0  0
   49.9580    2.8684   17.6345 C   0  0  0  0  0  0  0  0  0  0  0  0
   47.6164    3.4536   16.8204 C   0  0  0  0  0  0  0  0  0  0  0  0
   47.9911    4.6980   16.0169 C   0  0  0  0  0  0  0  0  0  0  0  0
   47.0628    4.8197   14.9391 O   0  0  0  0  0  0  0  0  0  0  0  0
   47.3969    5.9810   14.1730 N   0  0  0  0  0  0  0  0  0  0  0  0
   46.6157    6.1236   13.2277 O   0  0  0  0  0  0  0  0  0  0  0  0
   49.0725    2.1300   16.1932 H   0  0  0  0  0  0  0  0  0  0  0  0
   50.3235    1.5867   17.3064 H   0  0  0  0  0  0  0  0  0  0  0  0
   50.4755    3.1675   16.5361 H   0  0  0  0  0  0  0  0  0  0  0  0
   48.3118    2.3284   18.5403 H   0  0  0  0  0  0  0  0  0  0  0  0
   49.7413    3.2533   18.9584 H   0  0  0  0  0  0  0  0  0  0  0  0
   47.7972    4.6727   18.8404 H   0  0  0  0  0  0  0  0  0  0  0  0
   46.4641    5.1222   16.9251 H   0  0  0  0  0  0  0  0  0  0  0  0
   46.4876    3.3584   17.1560 H   0  0  0  0  0  0  0  0  0  0  0  0
   49.9828    5.6592   18.2307 H   0  0  0  0  0  0  0  0  0  0  0  0
   49.6799    5.3417   16.5152 H   0  0  0  0  0  0  0  0  0  0  0  0
   48.6465    6.4680   17.4025 H   0  0  0  0  0  0  0  0  0  0  0  0
   48.9135    5.1857   18.7283 H   0  0  0  0  0  0  0  0  0  0  0  0
   48.9893    3.9548   19.9932 H   0  0  0  0  0  0  0  0  0  0  0  0
   47.4187    4.4768   19.3693 H   0  0  0  0  0  0  0  0  0  0  0  0
   48.1156    2.2389   18.5006 H   0  0  0  0  0  0  0  0  0  0  0  0
   50.4539    3.7612   17.2405 H   0  0  0  0  0  0  0  0  0  0  0  0
   50.0051    2.0848   16.8712 H   0  0  0  0  0  0  0  0  0  0  0  0
   50.5350    2.5252   18.5001 H   0  0  0  0  0  0  0  0  0  0  0  0
   47.6178    2.5864   16.1466 H   0  0  0  0  0  0  0  0  0  0  0  0
   46.5746    3.5511   17.1541 H   0  0  0  0  0  0  0  0  0  0  0  0
   47.9341    5.5930   16.6470 H   0  0  0  0  0  0  0  0  0  0  0  0
   49.0053    4.6023   15.6124 H   0  0  0  0  0  0  0  0  0  0  0  0
  1  2  1  0
  2  3  1  0
  3  4  1  0
  4  5  1  0
  5  6  1  0
  6  7  2  0
  3  8  1  0
  9 10  1  0
 10 11  1  0
 10 12  1  0
 12 13  1  0
 13 14  1  0
 14 15  1  0
 15 16  2  0
  1 17  1  0
  1 18  1  0
  1 19  1  0
  2 20  1  0
  2 21  1  0
  3 22  1  1
  4 23  1  0
  4 24  1  0
  8 25  1  0
  8 26  1  0
  8 27  1  0
  9 28  1  0
  9 29  1  0
  9 30  1  0
 10 31  1  0
 11 32  1  0
 11 33  1  0
 11 34  1  0
 12 35  1  0
 12 36  1  0
 13 37  1  0
 13 38  1  0
M  END
> <Uni-Dock RESULT> 
ENERGY=   -3.891  LOWER_BOUND=    5.672  UPPER_BOUND=    6.824
INTER + INTRA:          -3.891
INTER:                  -3.891
INTRA:                   0.000
UNBOUND:                 0.000

$$$$

     RDKit          3D

 38 36  0  0  0  0  0  0  0  0999 V2000
   44.2621    3.2992   12.6130 C   0  0  0  0  0  0  0  0  0  0  0  0
   44.2284    3.5486   11.1124 C   0  0  0  0  0  0  0  0  0  0  0  0
   44.2942    5.0210   10.6575 C   0  0  2  0  0  0  0  0  0  0  0  0
   45.6171    5.7152   11.0243 C   0  0  0  0  0  0  0  0  0  0  0  0
   45.6778    5.9969   12.4185 O   0  0  0  0  0  0  0  0  0  0  0  0
   46.9261    6.6323   12.7082 N   0  0  0  0  0  0  0  0  0  0  0  0
   47.0216    6.8841   13.9129 O   0  0  0  0  0  0  0  0  0  0  0  0
   43.0834    5.8234   11.1405 C   0  0  0  0  0  0  0  0  0  0  0  0
   43.8377    4.3236    9.7561 C   0  0  0  0  0  0  0  0  0  0  0  0
   44.6419    3.8366   10.9614 C   0  0  0  0  0  0  0  0  0  0  0  0
   43.7087    3.2816   12.0373 C   0  0  0  0  0  0  0  0  0  0  0  0
   45.5869    4.9194   11.5096 C   0  0  0  0  0  0  0  0  0  0  0  0
   44.9083    6.1788   12.0464 C   0  0  0  0  0  0  0  0  0  0  0  0
   45.9291    7.0635   12.5084 O   0  0  0  0  0  0  0  0  0  0  0  0
   45.3136    8.2510   13.0161 N   0  0  0  0  0  0  0  0  0  0  0  0
   46.1644    9.0457   13.4273 O   0  0  0  0  0  0  0  0  0  0  0  0
   45.2211    3.5918   13.0488 H   0  0  0  0  0  0  0  0  0  0  0  0
   44.1305    2.2302   12.8122 H   0  0  0  0  0  0  0  0  0  0  0  0
   43.4610    3.8316   13.1327 H   0  0  0  0  0  0  0  0  0  0  0  0
   45.0580    2.9981   10.6513 H   0  0  0  0  0  0  0  0  0  0  0  0
   43.3089    3.1023   10.7122 H   0  0  0  0  0  0  0  0  0  0  0  0
   44.2484    4.9990    9.5598 H   0  0  0  0  0  0  0  0  0  0  0  0
   45.6885    6.6582   10.4659 H   0  0  0  0  0  0  0  0  0  0  0  0
   46.4619    5.0783   10.7319 H   0  0  0  0  0  0  0  0  0  0  0  0
   42.1508    5.3433   10.8261 H   0  0  0  0  0  0  0  0  0  0  0  0
   43.0599    5.9254   12.2296 H   0  0  0  0  0  0  0  0  0  0  0  0
   43.0980    6.8318   10.7129 H   0  0  0  0  0  0  0  0  0  0  0  0
   43.1139    5.0961   10.0345 H   0  0  0  0  0  0  0  0  0  0  0  0
   43.2797    3.4946    9.3074 H   0  0  0  0  0  0  0  0  0  0  0  0
   44.4993    4.7349    8.9865 H   0  0  0  0  0  0  0  0  0  0  0  0
   45.2746    3.0073   10.6184 H   0  0  0  0  0  0  0  0  0  0  0  0
   42.9815    4.0287   12.3710 H   0  0  0  0  0  0  0  0  0  0  0  0
   44.2772    2.9428   12.9097 H   0  0  0  0  0  0  0  0  0  0  0  0
   43.1471    2.4236   11.6521 H   0  0  0  0  0  0  0  0  0  0  0  0
   46.2074    4.4876   12.3062 H   0  0  0  0  0  0  0  0  0  0  0  0
   46.2970    5.2103   10.7239 H   0  0  0  0  0  0  0  0  0  0  0  0
   44.3329    6.6716   11.2545 H   0  0  0  0  0  0  0  0  0  0  0  0
   44.2409    5.9294   12.8793 H   0  0  0  0  0  0  0  0  0  0  0  0
  1  2  1  0
  2  3  1  0
  3  4  1  0
  4  5  1  0
  5  6  1  0
  6  7  2  0
  3  8  1  0
  9 10  1  0
 10 11  1  0
 10 12  1  0
 12 13  1  0
 13 14  1  0
 14 15  1  0
 15 16  2  0
  1 17  1  0
  1 18  1  0
  1 19  1  0
  2 20  1  0
  2 21  1  0
  3 22  1  1
  4 23  1  0
  4 24  1  0
  8 25  1  0
  8 26  1  0
  8 27  1  0
  9 28  1  0
  9 29  1  0
  9 30  1  0
 10 31  1  0
 11 32  1  0
 11 33  1  0
 11 34  1  0
 12 35  1  0
 12 36  1  0
 13 37  1  0
 13 38  1  0
M  END
> <Uni-Dock RESULT> 
ENERGY=   -3.716  LOWER_BOUND=    3.542  UPPER_BOUND=    4.350
INTER + INTRA:          -3.716
INTER:                  -3.716
INTRA:                   0.000
UNBOUND:                 0.000

$$$$

     RDKit          3D

 38 36  0  0  0  0  0  0  0  0999 V2000
   47.2675    4.3629   15.8848 C   0  0  0  0  0  0  0  0  0  0  0  0
   47.3867    3.4557   17.1006 C   0  0  0  0  0  0  0  0  0  0  0  0
   48.2615    3.9718   18.2615 C   0  0  2  0  0  0  0  0  0  0  0  0
   47.7109    5.2480   18.9208 C   0  0  0  0  0  0  0  0  0  0  0  0
   47.9072    6.3823   18.0831 O   0  0  0  0  0  0  0  0  0  0  0  0
   47.3726    7.5374   18.7356 N   0  0  0  0  0  0  0  0  0  0  0  0
   47.5147    8.5432   18.0342 O   0  0  0  0  0  0  0  0  0  0  0  0
   49.7248    4.1388   17.8446 C   0  0  0  0  0  0  0  0  0  0  0  0
   48.1231    2.7551   18.3494 C   0  0  0  0  0  0  0  0  0  0  0  0
   47.2485    3.7115   17.5389 C   0  0  0  0  0  0  0  0  0  0  0  0
   47.6542    3.6878   16.0654 C   0  0  0  0  0  0  0  0  0  0  0  0
   47.2447    5.1353   18.1210 C   0  0  0  0  0  0  0  0  0  0  0  0
   48.5964    5.8475   18.1344 C   0  0  0  0  0  0  0  0  0  0  0  0
   48.4036    7.1429   18.7027 O   0  0  0  0  0  0  0  0  0  0  0  0
   49.6597    7.8275   18.7244 N   0  0  0  0  0  0  0  0  0  0  0  0
   49.5370    8.9558   19.2103 O   0  0  0  0  0  0  0  0  0  0  0  0
   46.7407    5.2904   16.1241 H   0  0  0  0  0  0  0  0  0  0  0  0
   46.6908    3.8575   15.1026 H   0  0  0  0  0  0  0  0  0  0  0  0
   48.2456    4.6109   15.4638 H   0  0  0  0  0  0  0  0  0  0  0  0
   46.3778    3.2521   17.4807 H   0  0  0  0  0  0  0  0  0  0  0  0
   47.7863    2.4891   16.7679 H   0  0  0  0  0  0  0  0  0  0  0  0
   48.2336    3.1875   19.0307 H   0  0  0  0  0  0  0  0  0  0  0  0
   48.2368    5.4105   19.8711 H   0  0  0  0  0  0  0  0  0  0  0  0
   46.6423    5.1205   19.1372 H   0  0  0  0  0  0  0  0  0  0  0  0
   50.1164    3.2058   17.4255 H   0  0  0  0  0  0  0  0  0  0  0  0
   49.8566    4.9262   17.0964 H   0  0  0  0  0  0  0  0  0  0  0  0
   50.3421    4.3978   18.7116 H   0  0  0  0  0  0  0  0  0  0  0  0
   49.1854    3.0058   18.2671 H   0  0  0  0  0  0  0  0  0  0  0  0
   47.9980    1.7267   17.9936 H   0  0  0  0  0  0  0  0  0  0  0  0
   47.8466    2.7769   19.4087 H   0  0  0  0  0  0  0  0  0  0  0  0
   46.2165    3.3412   17.5995 H   0  0  0  0  0  0  0  0  0  0  0  0
   48.7053    3.9609   15.9277 H   0  0  0  0  0  0  0  0  0  0  0  0
   47.0404    4.3807   15.4807 H   0  0  0  0  0  0  0  0  0  0  0  0
   47.5161    2.6852   15.6460 H   0  0  0  0  0  0  0  0  0  0  0  0
   46.5279    5.7519   17.5623 H   0  0  0  0  0  0  0  0  0  0  0  0
   46.8530    5.1051   19.1466 H   0  0  0  0  0  0  0  0  0  0  0  0
   49.3181    5.2892   18.7415 H   0  0  0  0  0  0  0  0  0  0  0  0
   48.9842    5.9534   17.1147 H   0  0  0  0  0  0  0  0  0  0  0  0
  1  2  1  0
  2  3  1  0
  3  4  1  0
  4  5  1  0
  5  6  1  0
  6  7  2  0
  3  8  1  0
  9 10  1  0
 10 11  1  0
 10 12  1  0
 12 13  1  0
 13 14  1  0
 14 15  1  0
 15 16  2  0
  1 17  1  0
  1 18  1  0
  1 19  1  0
  2 20  1  0
  2 21  1  0
  3 22  1  1
  4 23  1  0
  4 24  1  0
  8 25  1  0
  8 26  1  0
  8 27  1  0
  9 28  1  0
  9 29  1  0
  9 30  1  0
 10 31  1  0
 11 32  1  0
 11 33  1  0
 11 34  1  0
 12 35  1  0
 12 36  1  0
 13 37  1  0
 13 38  1  0
M  END
> <Uni-Dock RESULT> 
ENERGY=   -3.687  LOWER_BOUND=    7.756  UPPER_BOUND=    9.116
INTER + INTRA:          -3.687
INTER:                  -3.687
INTRA:                   0.000
UNBOUND:                 0.000

$$$$
