
     RDKit          3D

 38 36  0  0  0  0  0  0  0  0999 V2000
   48.2227    2.7541    6.2092 C   0  0  0  0  0  0  0  0  0  0  0  0
   46.7289    2.6963    5.9205 C   0  0  0  0  0  0  0  0  0  0  0  0
   45.8192    2.6425    7.1613 C   0  0  2  0  0  0  0  0  0  0  0  0
   45.9561    3.8984    8.0358 C   0  0  0  0  0  0  0  0  0  0  0  0
   44.9332    3.8863    9.0309 O   0  0  0  0  0  0  0  0  0  0  0  0
   45.0652    5.0576    9.8417 N   0  0  0  0  0  0  0  0  0  0  0  0
   44.1988    5.0835   10.7206 O   0  0  0  0  0  0  0  0  0  0  0  0
   46.0459    1.3698    7.9838 C   0  0  0  0  0  0  0  0  0  0  0  0
   47.4825    3.3697    5.3830 C   0  0  0  0  0  0  0  0  0  0  0  0
   47.2949    2.9253    6.8355 C   0  0  0  0  0  0  0  0  0  0  0  0
   47.4233    1.4045    6.9310 C   0  0  0  0  0  0  0  0  0  0  0  0
   45.9448    3.4342    7.3665 C   0  0  0  0  0  0  0  0  0  0  0  0
   45.7247    3.1616    8.8532 C   0  0  0  0  0  0  0  0  0  0  0  0
   44.4974    3.7788    9.2382 O   0  0  0  0  0  0  0  0  0  0  0  0
   44.2827    3.5451   10.6332 N   0  0  0  0  0  0  0  0  0  0  0  0
   43.2274    4.0640   11.0086 O   0  0  0  0  0  0  0  0  0  0  0  0
   48.7817    2.7857    5.2681 H   0  0  0  0  0  0  0  0  0  0  0  0
   48.5601    1.8738    6.7636 H   0  0  0  0  0  0  0  0  0  0  0  0
   48.4880    3.6486    6.7799 H   0  0  0  0  0  0  0  0  0  0  0  0
   46.5290    1.8182    5.2937 H   0  0  0  0  0  0  0  0  0  0  0  0
   46.4566    3.5716    5.3176 H   0  0  0  0  0  0  0  0  0  0  0  0
   44.7818    2.5988    6.8017 H   0  0  0  0  0  0  0  0  0  0  0  0
   46.9386    3.9236    8.5233 H   0  0  0  0  0  0  0  0  0  0  0  0
   45.8443    4.7955    7.4135 H   0  0  0  0  0  0  0  0  0  0  0  0
   45.2832    1.2679    8.7632 H   0  0  0  0  0  0  0  0  0  0  0  0
   47.0236    1.3747    8.4759 H   0  0  0  0  0  0  0  0  0  0  0  0
   45.9872    0.4802    7.3478 H   0  0  0  0  0  0  0  0  0  0  0  0
   48.4573    3.0488    5.0003 H   0  0  0  0  0  0  0  0  0  0  0  0
   47.4359    4.4607    5.3003 H   0  0  0  0  0  0  0  0  0  0  0  0
   46.7077    2.9467    4.7344 H   0  0  0  0  0  0  0  0  0  0  0  0
   48.0993    3.3757    7.4308 H   0  0  0  0  0  0  0  0  0  0  0  0
   47.4183    1.0688    7.9724 H   0  0  0  0  0  0  0  0  0  0  0  0
   46.6031    0.9030    6.4062 H   0  0  0  0  0  0  0  0  0  0  0  0
   48.3655    1.0658    6.4866 H   0  0  0  0  0  0  0  0  0  0  0  0
   45.8696    4.5166    7.1976 H   0  0  0  0  0  0  0  0  0  0  0  0
   45.1184    2.9926    6.7939 H   0  0  0  0  0  0  0  0  0  0  0  0
   46.5514    3.5844    9.4375 H   0  0  0  0  0  0  0  0  0  0  0  0
   45.6616    2.0837    9.0409 H   0  0  0  0  0  0  0  0  0  0  0  0
  1  2  1  0
  2  3  1  0
  3  4  1  0
  4  5  1  0
  5  6  1  0
  6  7  2  0
  3  8  1  0
  9 10  1  0
 10 11  1  0
 10 12  1  0
 12 13  1  0
 13 14  1  0
 14 15  1  0
 15 16  2  0
  1 17  1  0
  1 18  1  0
  1 19  1  0
  2 20  1  0
  2 21  1  0
  3 22  1  1
  4 23  1  0
  4 24  1  0
  8 25  1  0
  8 26  1  0
  8 27  1  0
  9 28  1  0
  9 29  1  0
  9 30  1  0
 10 31  1  0
 11 32  1  0
 11 33  1  0
 11 34  1  0
 12 35  1  0
 12 36  1  0
 13 37  1  0
 13 38  1  0
M  END
> <Uni-Dock RESULT> 
ENERGY=   -6.669  LOWER_BOUND=    0.000  UPPER_BOUND=    0.000
INTER + INTRA:          -6.669
INTER:                  -6.669
INTRA:                   0.000
UNBOUND:                 0.000

$$$$

     RDKit          3D

 38 36  0  0  0  0  0  0  0  0999 V2000
   44.6322    3.2986   11.7977 C   0  0  0  0  0  0  0  0  0  0  0  0
   43.7425    3.4866   10.5766 C   0  0  0  0  0  0  0  0  0  0  0  0
   44.4851    3.7498    9.2540 C   0  0  2  0  0  0  0  0  0  0  0  0
   45.3857    2.5721    8.8503 C   0  0  0  0  0  0  0  0  0  0  0  0
   45.8598    2.7832    7.5209 O   0  0  0  0  0  0  0  0  0  0  0  0
   46.6971    1.6840    7.1502 N   0  0  0  0  0  0  0  0  0  0  0  0
   47.1328    1.8303    6.0045 O   0  0  0  0  0  0  0  0  0  0  0  0
   45.2758    5.0616    9.2915 C   0  0  0  0  0  0  0  0  0  0  0  0
   43.5970    2.6911   11.3867 C   0  0  0  0  0  0  0  0  0  0  0  0
   44.8187    3.2843   10.6809 C   0  0  0  0  0  0  0  0  0  0  0  0
   44.8988    4.7855   10.9613 C   0  0  0  0  0  0  0  0  0  0  0  0
   44.7554    2.9714    9.1770 C   0  0  0  0  0  0  0  0  0  0  0  0
   46.0013    3.4011    8.4048 C   0  0  0  0  0  0  0  0  0  0  0  0
   45.8612    2.9546    7.0571 O   0  0  0  0  0  0  0  0  0  0  0  0
   47.0276    3.3368    6.3222 N   0  0  0  0  0  0  0  0  0  0  0  0
   46.9470    2.9686    5.1467 O   0  0  0  0  0  0  0  0  0  0  0  0
   44.0136    3.1220   12.6839 H   0  0  0  0  0  0  0  0  0  0  0  0
   45.2415    4.1857   11.9926 H   0  0  0  0  0  0  0  0  0  0  0  0
   45.2965    2.4374   11.6830 H   0  0  0  0  0  0  0  0  0  0  0  0
   43.0553    4.3196   10.7712 H   0  0  0  0  0  0  0  0  0  0  0  0
   43.1162    2.5933   10.4611 H   0  0  0  0  0  0  0  0  0  0  0  0
   43.7228    3.8692    8.4717 H   0  0  0  0  0  0  0  0  0  0  0  0
   46.2403    2.4885    9.5331 H   0  0  0  0  0  0  0  0  0  0  0  0
   44.8099    1.6383    8.8846 H   0  0  0  0  0  0  0  0  0  0  0  0
   45.6596    5.3144    8.2973 H   0  0  0  0  0  0  0  0  0  0  0  0
   46.1319    4.9990    9.9707 H   0  0  0  0  0  0  0  0  0  0  0  0
   44.6391    5.8902    9.6188 H   0  0  0  0  0  0  0  0  0  0  0  0
   43.6452    2.8710   12.4660 H   0  0  0  0  0  0  0  0  0  0  0  0
   43.5458    1.6081   11.2323 H   0  0  0  0  0  0  0  0  0  0  0  0
   42.6674    3.1320   11.0107 H   0  0  0  0  0  0  0  0  0  0  0  0
   45.7135    2.8084   11.1018 H   0  0  0  0  0  0  0  0  0  0  0  0
   45.8282    5.2141   10.5744 H   0  0  0  0  0  0  0  0  0  0  0  0
   44.0593    5.3202   10.5041 H   0  0  0  0  0  0  0  0  0  0  0  0
   44.8767    4.9808   12.0389 H   0  0  0  0  0  0  0  0  0  0  0  0
   44.6136    1.8920    9.0334 H   0  0  0  0  0  0  0  0  0  0  0  0
   43.8723    3.4431    8.7258 H   0  0  0  0  0  0  0  0  0  0  0  0
   46.8942    2.9491    8.8541 H   0  0  0  0  0  0  0  0  0  0  0  0
   46.1023    4.4924    8.4154 H   0  0  0  0  0  0  0  0  0  0  0  0
  1  2  1  0
  2  3  1  0
  3  4  1  0
  4  5  1  0
  5  6  1  0
  6  7  2  0
  3  8  1  0
  9 10  1  0
 10 11  1  0
 10 12  1  0
 12 13  1  0
 13 14  1  0
 14 15  1  0
 15 16  2  0
  1 17  1  0
  1 18  1  0
  1 19  1  0
  2 20  1  0
  2 21  1  0
  3 22  1  1
  4 23  1  0
  4 24  1  0
  8 25  1  0
  8 26  1  0
  8 27  1  0
  9 28  1  0
  9 29  1  0
  9 30  1  0
 10 31  1  0
 11 32  1  0
 11 33  1  0
 11 34  1  0
 12 35  1  0
 12 36  1  0
 13 37  1  0
 13 38  1  0
M  END
> <Uni-Dock RESULT> 
ENERGY=   -5.581  LOWER_BOUND=    2.933  UPPER_BOUND=    4.767
INTER + INTRA:          -5.581
INTER:                  -5.581
INTRA:                   0.000
UNBOUND:                 0.000

$$$$

     RDKit          3D

 38 36  0  0  0  0  0  0  0  0999 V2000
   42.4873    5.4967   11.7209 C   0  0  0  0  0  0  0  0  0  0  0  0
   44.0004    5.6665   11.7255 C   0  0  0  0  0  0  0  0  0  0  0  0
   44.7929    4.5347   11.0464 C   0  0  2  0  0  0  0  0  0  0  0  0
   44.4613    4.4108    9.5512 C   0  0  0  0  0  0  0  0  0  0  0  0
   45.3848    3.5086    8.9430 O   0  0  0  0  0  0  0  0  0  0  0  0
   45.0718    3.3973    7.5516 N   0  0  0  0  0  0  0  0  0  0  0  0
   45.8474    2.6200    6.9875 O   0  0  0  0  0  0  0  0  0  0  0  0
   44.6088    3.1943   11.7655 C   0  0  0  0  0  0  0  0  0  0  0  0
   43.2411    6.4942   11.5051 C   0  0  0  0  0  0  0  0  0  0  0  0
   43.3338    5.0086   11.1485 C   0  0  0  0  0  0  0  0  0  0  0  0
   43.3371    4.1699   12.4271 C   0  0  0  0  0  0  0  0  0  0  0  0
   44.5768    4.7574   10.2793 C   0  0  0  0  0  0  0  0  0  0  0  0
   44.6828    3.3271    9.7539 C   0  0  0  0  0  0  0  0  0  0  0  0
   45.8077    3.2605    8.8788 O   0  0  0  0  0  0  0  0  0  0  0  0
   45.9133    1.9292    8.3658 N   0  0  0  0  0  0  0  0  0  0  0  0
   46.8775    1.8277    7.6016 O   0  0  0  0  0  0  0  0  0  0  0  0
   42.0170    6.3460   12.2275 H   0  0  0  0  0  0  0  0  0  0  0  0
   42.1823    4.5884   12.2481 H   0  0  0  0  0  0  0  0  0  0  0  0
   42.0896    5.4594   10.7027 H   0  0  0  0  0  0  0  0  0  0  0  0
   44.3369    5.7628   12.7654 H   0  0  0  0  0  0  0  0  0  0  0  0
   44.2458    6.6165   11.2347 H   0  0  0  0  0  0  0  0  0  0  0  0
   45.8586    4.7885   11.1311 H   0  0  0  0  0  0  0  0  0  0  0  0
   43.4399    4.0352    9.4126 H   0  0  0  0  0  0  0  0  0  0  0  0
   44.5474    5.3940    9.0713 H   0  0  0  0  0  0  0  0  0  0  0  0
   45.3025    2.4428   11.3736 H   0  0  0  0  0  0  0  0  0  0  0  0
   43.5936    2.8044   11.6415 H   0  0  0  0  0  0  0  0  0  0  0  0
   44.8072    3.2977   12.8375 H   0  0  0  0  0  0  0  0  0  0  0  0
   42.3393    6.6983   12.0922 H   0  0  0  0  0  0  0  0  0  0  0  0
   43.1949    7.1097   10.6004 H   0  0  0  0  0  0  0  0  0  0  0  0
   44.1079    6.8173   12.0917 H   0  0  0  0  0  0  0  0  0  0  0  0
   42.4400    4.7463   10.5683 H   0  0  0  0  0  0  0  0  0  0  0  0
   43.2767    3.1007   12.2025 H   0  0  0  0  0  0  0  0  0  0  0  0
   44.2447    4.3451   13.0147 H   0  0  0  0  0  0  0  0  0  0  0  0
   42.4749    4.4173   13.0559 H   0  0  0  0  0  0  0  0  0  0  0  0
   44.5677    5.4423    9.4210 H   0  0  0  0  0  0  0  0  0  0  0  0
   45.4894    5.0037   10.8381 H   0  0  0  0  0  0  0  0  0  0  0  0
   43.7706    3.0613    9.2057 H   0  0  0  0  0  0  0  0  0  0  0  0
   44.8269    2.6235   10.5818 H   0  0  0  0  0  0  0  0  0  0  0  0
  1  2  1  0
  2  3  1  0
  3  4  1  0
  4  5  1  0
  5  6  1  0
  6  7  2  0
  3  8  1  0
  9 10  1  0
 10 11  1  0
 10 12  1  0
 12 13  1  0
 13 14  1  0
 14 15  1  0
 15 16  2  0
  1 17  1  0
  1 18  1  0
  1 19  1  0
  2 20  1  0
  2 21  1  0
  3 22  1  1
  4 23  1  0
  4 24  1  0
  8 25  1  0
  8 26  1  0
  8 27  1  0
  9 28  1  0
  9 29  1  0
  9 30  1  0
 10 31  1  0
 11 32  1  0
 11 33  1  0
 11 34  1  0
 12 35  1  0
 12 36  1  0
 13 37  1  0
 13 38  1  0
M  END
> <Uni-Dock RESULT> 
ENERGY=   -5.162  LOWER_BOUND=    3.292  UPPER_BOUND=    5.068
INTER + INTRA:          -5.162
INTER:                  -5.162
INTRA:                   0.000
UNBOUND:                 0.000

$$$$

     RDKit          3D

 38 36  0  0  0  0  0  0  0  0999 V2000
   46.8519    2.2314    5.5830 C   0  0  0  0  0  0  0  0  0  0  0  0
   47.5780    2.4290    6.9066 C   0  0  0  0  0  0  0  0  0  0  0  0
   46.7171    2.9888    8.0536 C   0  0  2  0  0  0  0  0  0  0  0  0
   45.5636    2.0448    8.4270 C   0  0  0  0  0  0  0  0  0  0  0  0
   44.9532    2.5094    9.6304 O   0  0  0  0  0  0  0  0  0  0  0  0
   43.8807    1.6271    9.9735 N   0  0  0  0  0  0  0  0  0  0  0  0
   43.3214    1.9973   11.0099 O   0  0  0  0  0  0  0  0  0  0  0  0
   46.1998    4.3981    7.7472 C   0  0  0  0  0  0  0  0  0  0  0  0
   47.6856    1.5189    6.2208 C   0  0  0  0  0  0  0  0  0  0  0  0
   46.5089    2.3989    6.6491 C   0  0  0  0  0  0  0  0  0  0  0  0
   46.7523    3.8406    6.2010 C   0  0  0  0  0  0  0  0  0  0  0  0
   46.2977    2.2846    8.1677 C   0  0  0  0  0  0  0  0  0  0  0  0
   45.0573    3.0179    8.6745 C   0  0  0  0  0  0  0  0  0  0  0  0
   44.9179    2.7393   10.0667 O   0  0  0  0  0  0  0  0  0  0  0  0
   43.7512    3.4079   10.5551 N   0  0  0  0  0  0  0  0  0  0  0  0
   43.5932    3.1927   11.7604 O   0  0  0  0  0  0  0  0  0  0  0  0
   47.5462    1.8356    4.8343 H   0  0  0  0  0  0  0  0  0  0  0  0
   46.4537    3.1741    5.1973 H   0  0  0  0  0  0  0  0  0  0  0  0
   46.0285    1.5178    5.6782 H   0  0  0  0  0  0  0  0  0  0  0  0
   48.4296    3.1004    6.7398 H   0  0  0  0  0  0  0  0  0  0  0  0
   48.0028    1.4665    7.2179 H   0  0  0  0  0  0  0  0  0  0  0  0
   47.3690    3.0820    8.9332 H   0  0  0  0  0  0  0  0  0  0  0  0
   44.8146    2.0156    7.6260 H   0  0  0  0  0  0  0  0  0  0  0  0
   45.9532    1.0314    8.5875 H   0  0  0  0  0  0  0  0  0  0  0  0
   45.7326    4.8432    8.6322 H   0  0  0  0  0  0  0  0  0  0  0  0
   45.4528    4.3900    6.9472 H   0  0  0  0  0  0  0  0  0  0  0  0
   47.0206    5.0559    7.4425 H   0  0  0  0  0  0  0  0  0  0  0  0
   47.8262    1.5577    5.1353 H   0  0  0  0  0  0  0  0  0  0  0  0
   47.5105    0.4734    6.4959 H   0  0  0  0  0  0  0  0  0  0  0  0
   48.6182    1.8431    6.6952 H   0  0  0  0  0  0  0  0  0  0  0  0
   45.6100    2.0284    6.1401 H   0  0  0  0  0  0  0  0  0  0  0  0
   45.8742    4.4678    6.3821 H   0  0  0  0  0  0  0  0  0  0  0  0
   47.6033    4.2826    6.7303 H   0  0  0  0  0  0  0  0  0  0  0  0
   46.9638    3.8828    5.1271 H   0  0  0  0  0  0  0  0  0  0  0  0
   46.2128    1.2260    8.4467 H   0  0  0  0  0  0  0  0  0  0  0  0
   47.1800    2.6570    8.7049 H   0  0  0  0  0  0  0  0  0  0  0  0
   44.1687    2.6668    8.1355 H   0  0  0  0  0  0  0  0  0  0  0  0
   45.1651    4.0992    8.5313 H   0  0  0  0  0  0  0  0  0  0  0  0
  1  2  1  0
  2  3  1  0
  3  4  1  0
  4  5  1  0
  5  6  1  0
  6  7  2  0
  3  8  1  0
  9 10  1  0
 10 11  1  0
 10 12  1  0
 12 13  1  0
 13 14  1  0
 14 15  1  0
 15 16  2  0
  1 17  1  0
  1 18  1  0
  1 19  1  0
  2 20  1  0
  2 21  1  0
  3 22  1  1
  4 23  1  0
  4 24  1  0
  8 25  1  0
  8 26  1  0
  8 27  1  0
  9 28  1  0
  9 29  1  0
  9 30  1  0
 10 31  1  0
 11 32  1  0
 11 33  1  0
 11 34  1  0
 12 35  1  0
 12 36  1  0
 13 37  1  0
 13 38  1  0
M  END
> <Uni-Dock RESULT> 
ENERGY=   -5.125  LOWER_BOUND=    1.208  UPPER_BOUND=    1.987
INTER + INTRA:          -5.125
INTER:                  -5.125
INTRA:                   0.000
UNBOUND:                 0.000

$$$$

     RDKit          3D

 38 36  0  0  0  0  0  0  0  0999 V2000
   44.9143    2.6767    9.8493 C   0  0  0  0  0  0  0  0  0  0  0  0
   44.0831    3.8870    9.4464 C   0  0  0  0  0  0  0  0  0  0  0  0
   44.0459    5.0329   10.4738 C   0  0  2  0  0  0  0  0  0  0  0  0
   45.4378    5.6341   10.7228 C   0  0  0  0  0  0  0  0  0  0  0  0
   45.2990    6.8231   11.4998 O   0  0  0  0  0  0  0  0  0  0  0  0
   46.5974    7.3786   11.7281 N   0  0  0  0  0  0  0  0  0  0  0  0
   46.5218    8.4096   12.4027 O   0  0  0  0  0  0  0  0  0  0  0  0
   43.3872    4.6030   11.7887 C   0  0  0  0  0  0  0  0  0  0  0  0
   44.7972    3.3147    8.7589 C   0  0  0  0  0  0  0  0  0  0  0  0
   44.8433    3.7416   10.2280 C   0  0  0  0  0  0  0  0  0  0  0  0
   43.6875    3.0931   10.9908 C   0  0  0  0  0  0  0  0  0  0  0  0
   44.8230    5.2757   10.3263 C   0  0  0  0  0  0  0  0  0  0  0  0
   45.0069    5.8050   11.7473 C   0  0  0  0  0  0  0  0  0  0  0  0
   45.0818    7.2282   11.6820 O   0  0  0  0  0  0  0  0  0  0  0  0
   45.2685    7.7401   13.0048 N   0  0  0  0  0  0  0  0  0  0  0  0
   45.3385    8.9726   12.9934 O   0  0  0  0  0  0  0  0  0  0  0  0
   44.8749    1.9197    9.0591 H   0  0  0  0  0  0  0  0  0  0  0  0
   44.5366    2.2159   10.7664 H   0  0  0  0  0  0  0  0  0  0  0  0
   45.9648    2.9418    9.9991 H   0  0  0  0  0  0  0  0  0  0  0  0
   43.0569    3.5539    9.2468 H   0  0  0  0  0  0  0  0  0  0  0  0
   44.4700    4.2744    8.4956 H   0  0  0  0  0  0  0  0  0  0  0  0
   43.4113    5.8254   10.0535 H   0  0  0  0  0  0  0  0  0  0  0  0
   46.0757    4.9206   11.2590 H   0  0  0  0  0  0  0  0  0  0  0  0
   45.9096    5.8824    9.7634 H   0  0  0  0  0  0  0  0  0  0  0  0
   43.2203    5.4661   12.4419 H   0  0  0  0  0  0  0  0  0  0  0  0
   44.0079    3.8876   12.3374 H   0  0  0  0  0  0  0  0  0  0  0  0
   42.4132    4.1385   11.6020 H   0  0  0  0  0  0  0  0  0  0  0  0
   44.8503    2.2244    8.6683 H   0  0  0  0  0  0  0  0  0  0  0  0
   45.6425    3.7357    8.2043 H   0  0  0  0  0  0  0  0  0  0  0  0
   43.8732    3.6504    8.2760 H   0  0  0  0  0  0  0  0  0  0  0  0
   45.7852    3.3742   10.6549 H   0  0  0  0  0  0  0  0  0  0  0  0
   43.7659    3.2786   12.0662 H   0  0  0  0  0  0  0  0  0  0  0  0
   42.7205    3.4761   10.6473 H   0  0  0  0  0  0  0  0  0  0  0  0
   43.6899    2.0069   10.8491 H   0  0  0  0  0  0  0  0  0  0  0  0
   45.6187    5.6934    9.6951 H   0  0  0  0  0  0  0  0  0  0  0  0
   43.8861    5.6723    9.9133 H   0  0  0  0  0  0  0  0  0  0  0  0
   45.9325    5.4045   12.1789 H   0  0  0  0  0  0  0  0  0  0  0  0
   44.1579    5.5163   12.3774 H   0  0  0  0  0  0  0  0  0  0  0  0
  1  2  1  0
  2  3  1  0
  3  4  1  0
  4  5  1  0
  5  6  1  0
  6  7  2  0
  3  8  1  0
  9 10  1  0
 10 11  1  0
 10 12  1  0
 12 13  1  0
 13 14  1  0
 14 15  1  0
 15 16  2  0
  1 17  1  0
  1 18  1  0
  1 19  1  0
  2 20  1  0
  2 21  1  0
  3 22  1  1
  4 23  1  0
  4 24  1  0
  8 25  1  0
  8 26  1  0
  8 27  1  0
  9 28  1  0
  9 29  1  0
  9 30  1  0
 10 31  1  0
 11 32  1  0
 11 33  1  0
 11 34  1  0
 12 35  1  0
 12 36  1  0
 13 37  1  0
 13 38  1  0
M  END
> <Uni-Dock RESULT> 
ENERGY=   -4.577  LOWER_BOUND=    3.251  UPPER_BOUND=    4.521
INTER + INTRA:          -4.577
INTER:                  -4.577
INTRA:                   0.000
UNBOUND:                 0.000

$$$$

     RDKit          3D

 38 36  0  0  0  0  0  0  0  0999 V2000
   48.6805    7.8654   11.9472 C   0  0  0  0  0  0  0  0  0  0  0  0
   47.8844    7.4277   13.1689 C   0  0  0  0  0  0  0  0  0  0  0  0
   46.3573    7.3813   12.9788 C   0  0  2  0  0  0  0  0  0  0  0  0
   45.9369    6.3640   11.9068 C   0  0  0  0  0  0  0  0  0  0  0  0
   44.5187    6.2089   11.9432 O   0  0  0  0  0  0  0  0  0  0  0  0
   44.1331    5.2608   10.9437 N   0  0  0  0  0  0  0  0  0  0  0  0
   42.9091    5.1006   10.9390 O   0  0  0  0  0  0  0  0  0  0  0  0
   45.7739    8.7670   12.6837 C   0  0  0  0  0  0  0  0  0  0  0  0
   48.8543    6.9436   12.8014 C   0  0  0  0  0  0  0  0  0  0  0  0
   47.6158    7.5136   12.1056 C   0  0  0  0  0  0  0  0  0  0  0  0
   47.4746    8.9994   12.4384 C   0  0  0  0  0  0  0  0  0  0  0  0
   46.3728    6.7024   12.5061 C   0  0  0  0  0  0  0  0  0  0  0  0
   45.1053    7.1055   11.7551 C   0  0  0  0  0  0  0  0  0  0  0  0
   44.0630    6.2084   12.1349 O   0  0  0  0  0  0  0  0  0  0  0  0
   42.8704    6.5635   11.4289 N   0  0  0  0  0  0  0  0  0  0  0  0
   41.9404    5.8095   11.7297 O   0  0  0  0  0  0  0  0  0  0  0  0
   49.7498    7.8697   12.1831 H   0  0  0  0  0  0  0  0  0  0  0  0
   48.4088    8.8763   11.6304 H   0  0  0  0  0  0  0  0  0  0  0  0
   48.5320    7.1840   11.1047 H   0  0  0  0  0  0  0  0  0  0  0  0
   48.1196    8.1054   13.9991 H   0  0  0  0  0  0  0  0  0  0  0  0
   48.2349    6.4343   13.4754 H   0  0  0  0  0  0  0  0  0  0  0  0
   45.9209    7.0579   13.9340 H   0  0  0  0  0  0  0  0  0  0  0  0
   46.2408    6.7066   10.9099 H   0  0  0  0  0  0  0  0  0  0  0  0
   46.4116    5.3956   12.1106 H   0  0  0  0  0  0  0  0  0  0  0  0
   44.6794    8.7443   12.7154 H   0  0  0  0  0  0  0  0  0  0  0  0
   46.0689    9.1279   11.6934 H   0  0  0  0  0  0  0  0  0  0  0  0
   46.1095    9.4968   13.4280 H   0  0  0  0  0  0  0  0  0  0  0  0
   49.7561    7.4855   12.4969 H   0  0  0  0  0  0  0  0  0  0  0  0
   48.9965    5.8893   12.5412 H   0  0  0  0  0  0  0  0  0  0  0  0
   48.7670    7.0156   13.8908 H   0  0  0  0  0  0  0  0  0  0  0  0
   47.7650    7.4170   11.0227 H   0  0  0  0  0  0  0  0  0  0  0  0
   46.6719    9.4633   11.8573 H   0  0  0  0  0  0  0  0  0  0  0  0
   47.2578    9.1495   13.5015 H   0  0  0  0  0  0  0  0  0  0  0  0
   48.3980    9.5395   12.2026 H   0  0  0  0  0  0  0  0  0  0  0  0
   46.5583    5.6352   12.3253 H   0  0  0  0  0  0  0  0  0  0  0  0
   46.1932    6.7873   13.5860 H   0  0  0  0  0  0  0  0  0  0  0  0
   45.2746    7.0402   10.6732 H   0  0  0  0  0  0  0  0  0  0  0  0
   44.8137    8.1294   12.0158 H   0  0  0  0  0  0  0  0  0  0  0  0
  1  2  1  0
  2  3  1  0
  3  4  1  0
  4  5  1  0
  5  6  1  0
  6  7  2  0
  3  8  1  0
  9 10  1  0
 10 11  1  0
 10 12  1  0
 12 13  1  0
 13 14  1  0
 14 15  1  0
 15 16  2  0
  1 17  1  0
  1 18  1  0
  1 19  1  0
  2 20  1  0
  2 21  1  0
  3 22  1  1
  4 23  1  0
  4 24  1  0
  8 25  1  0
  8 26  1  0
  8 27  1  0
  9 28  1  0
  9 29  1  0
  9 30  1  0
 10 31  1  0
 11 32  1  0
 11 33  1  0
 11 34  1  0
 12 35  1  0
 12 36  1  0
 13 37  1  0
 13 38  1  0
M  END
> <Uni-Dock RESULT> 
ENERGY=   -4.358  LOWER_BOUND=    5.102  UPPER_BOUND=    6.163
INTER + INTRA:          -4.358
INTER:                  -4.358
INTRA:                   0.000
UNBOUND:                 0.000

$$$$

     RDKit          3D

 38 36  0  0  0  0  0  0  0  0999 V2000
   48.8703    7.8715   11.7596 C   0  0  0  0  0  0  0  0  0  0  0  0
   48.4038    7.6251   13.1878 C   0  0  0  0  0  0  0  0  0  0  0  0
   46.9003    7.3362   13.3497 C   0  0  2  0  0  0  0  0  0  0  0  0
   46.4741    6.0538   12.6184 C   0  0  0  0  0  0  0  0  0  0  0  0
   45.1369    5.7263   12.9944 O   0  0  0  0  0  0  0  0  0  0  0  0
   44.7455    4.5319   12.3111 N   0  0  0  0  0  0  0  0  0  0  0  0
   43.5894    4.2156   12.6063 O   0  0  0  0  0  0  0  0  0  0  0  0
   46.0380    8.5282   12.9218 C   0  0  0  0  0  0  0  0  0  0  0  0
   49.3585    7.2013   12.7198 C   0  0  0  0  0  0  0  0  0  0  0  0
   47.9321    7.4287   12.2136 C   0  0  0  0  0  0  0  0  0  0  0  0
   47.5960    8.9195   12.2690 C   0  0  0  0  0  0  0  0  0  0  0  0
   46.9470    6.5750   13.0287 C   0  0  0  0  0  0  0  0  0  0  0  0
   45.5116    6.6249   12.5091 C   0  0  0  0  0  0  0  0  0  0  0  0
   44.7319    5.7099   13.2775 O   0  0  0  0  0  0  0  0  0  0  0  0
   43.3857    5.7337   12.7939 N   0  0  0  0  0  0  0  0  0  0  0  0
   42.6747    4.9534   13.4339 O   0  0  0  0  0  0  0  0  0  0  0  0
   49.9471    8.0703   11.7499 H   0  0  0  0  0  0  0  0  0  0  0  0
   48.3712    8.7380   11.3167 H   0  0  0  0  0  0  0  0  0  0  0  0
   48.6904    7.0015   11.1217 H   0  0  0  0  0  0  0  0  0  0  0  0
   48.6659    8.5001   13.7957 H   0  0  0  0  0  0  0  0  0  0  0  0
   48.9741    6.7835   13.6002 H   0  0  0  0  0  0  0  0  0  0  0  0
   46.7121    7.1862   14.4219 H   0  0  0  0  0  0  0  0  0  0  0  0
   46.5230    6.1954   11.5316 H   0  0  0  0  0  0  0  0  0  0  0  0
   47.1410    5.2290   12.9005 H   0  0  0  0  0  0  0  0  0  0  0  0
   44.9896    8.3698   13.1963 H   0  0  0  0  0  0  0  0  0  0  0  0
   46.0764    8.6877   11.8396 H   0  0  0  0  0  0  0  0  0  0  0  0
   46.3721    9.4469   13.4153 H   0  0  0  0  0  0  0  0  0  0  0  0
   50.0788    7.7725   12.1244 H   0  0  0  0  0  0  0  0  0  0  0  0
   49.6332    6.1435   12.6483 H   0  0  0  0  0  0  0  0  0  0  0  0
   49.4633    7.5094   13.7657 H   0  0  0  0  0  0  0  0  0  0  0  0
   47.8927    7.1067   11.1653 H   0  0  0  0  0  0  0  0  0  0  0  0
   46.6307    9.1281   11.7979 H   0  0  0  0  0  0  0  0  0  0  0  0
   47.5570    9.2796   13.3026 H   0  0  0  0  0  0  0  0  0  0  0  0
   48.3502    9.5075   11.7348 H   0  0  0  0  0  0  0  0  0  0  0  0
   47.2805    5.5287   13.0261 H   0  0  0  0  0  0  0  0  0  0  0  0
   46.9585    6.8811   14.0832 H   0  0  0  0  0  0  0  0  0  0  0  0
   45.4864    6.3359   11.4512 H   0  0  0  0  0  0  0  0  0  0  0  0
   45.0980    7.6338   12.6198 H   0  0  0  0  0  0  0  0  0  0  0  0
  1  2  1  0
  2  3  1  0
  3  4  1  0
  4  5  1  0
  5  6  1  0
  6  7  2  0
  3  8  1  0
  9 10  1  0
 10 11  1  0
 10 12  1  0
 12 13  1  0
 13 14  1  0
 14 15  1  0
 15 16  2  0
  1 17  1  0
  1 18  1  0
  1 19  1  0
  2 20  1  0
  2 21  1  0
  3 22  1  1
  4 23  1  0
  4 24  1  0
  8 25  1  0
  8 26  1  0
  8 27  1  0
  9 28  1  0
  9 29  1  0
  9 30  1  0
 10 31  1  0
 11 32  1  0
 11 33  1  0
 11 34  1  0
 12 35  1  0
 12 36  1  0
 13 37  1  0
 13 38  1  0
M  END
> <Uni-Dock RESULT> 
ENERGY=   -4.182  LOWER_BOUND=    5.504  UPPER_BOUND=    6.339
INTER + INTRA:          -4.182
INTER:                  -4.182
INTRA:                   0.000
UNBOUND:                 0.000

$$$$

     RDKit          3D

 38 36  0  0  0  0  0  0  0  0999 V2000
   47.1821    8.7518   13.6538 C   0  0  0  0  0  0  0  0  0  0  0  0
   47.3206    8.0177   12.3271 C   0  0  0  0  0  0  0  0  0  0  0  0
   46.4939    6.7253   12.1993 C   0  0  2  0  0  0  0  0  0  0  0  0
   44.9834    6.9912   12.2938 C   0  0  0  0  0  0  0  0  0  0  0  0
   44.2786    5.8009   11.9431 O   0  0  0  0  0  0  0  0  0  0  0  0
   42.8734    6.0542   12.0323 N   0  0  0  0  0  0  0  0  0  0  0  0
   42.2255    5.0449   11.7401 O   0  0  0  0  0  0  0  0  0  0  0  0
   46.9315    5.6621   13.2121 C   0  0  0  0  0  0  0  0  0  0  0  0
   47.2106    9.1505   12.4497 C   0  0  0  0  0  0  0  0  0  0  0  0
   46.5856    7.9367   13.1416 C   0  0  0  0  0  0  0  0  0  0  0  0
   47.6792    7.1060   13.8145 C   0  0  0  0  0  0  0  0  0  0  0  0
   45.7702    7.1198   12.1261 C   0  0  0  0  0  0  0  0  0  0  0  0
   44.9912    5.9629   12.7488 C   0  0  0  0  0  0  0  0  0  0  0  0
   44.1970    5.3643   11.7259 O   0  0  0  0  0  0  0  0  0  0  0  0
   43.4490    4.2862   12.2960 N   0  0  0  0  0  0  0  0  0  0  0  0
   42.7459    3.7388   11.4416 O   0  0  0  0  0  0  0  0  0  0  0  0
   47.8078    9.6504   13.6479 H   0  0  0  0  0  0  0  0  0  0  0  0
   47.5056    8.1304   14.4937 H   0  0  0  0  0  0  0  0  0  0  0  0
   46.1509    9.0699   13.8321 H   0  0  0  0  0  0  0  0  0  0  0  0
   48.3801    7.7800   12.1695 H   0  0  0  0  0  0  0  0  0  0  0  0
   47.0366    8.7029   11.5187 H   0  0  0  0  0  0  0  0  0  0  0  0
   46.6966    6.3073   11.2035 H   0  0  0  0  0  0  0  0  0  0  0  0
   44.7078    7.2915   13.3123 H   0  0  0  0  0  0  0  0  0  0  0  0
   44.7057    7.7937   11.5984 H   0  0  0  0  0  0  0  0  0  0  0  0
   46.4516    4.7007   13.0004 H   0  0  0  0  0  0  0  0  0  0  0  0
   46.6677    5.9455   14.2359 H   0  0  0  0  0  0  0  0  0  0  0  0
   48.0145    5.5059   13.1684 H   0  0  0  0  0  0  0  0  0  0  0  0
   47.7638    9.7658   13.1673 H   0  0  0  0  0  0  0  0  0  0  0  0
   46.4382    9.7813   11.9971 H   0  0  0  0  0  0  0  0  0  0  0  0
   47.9048    8.8442   11.6597 H   0  0  0  0  0  0  0  0  0  0  0  0
   45.9074    8.3069   13.9209 H   0  0  0  0  0  0  0  0  0  0  0  0
   47.2521    6.3019   14.4213 H   0  0  0  0  0  0  0  0  0  0  0  0
   48.3489    6.6565   13.0735 H   0  0  0  0  0  0  0  0  0  0  0  0
   48.2840    7.7288   14.4825 H   0  0  0  0  0  0  0  0  0  0  0  0
   45.0588    7.7800   11.6123 H   0  0  0  0  0  0  0  0  0  0  0  0
   46.4256    6.7283   11.3368 H   0  0  0  0  0  0  0  0  0  0  0  0
   44.3425    6.3372   13.5503 H   0  0  0  0  0  0  0  0  0  0  0  0
   45.6783    5.2135   13.1580 H   0  0  0  0  0  0  0  0  0  0  0  0
  1  2  1  0
  2  3  1  0
  3  4  1  0
  4  5  1  0
  5  6  1  0
  6  7  2  0
  3  8  1  0
  9 10  1  0
 10 11  1  0
 10 12  1  0
 12 13  1  0
 13 14  1  0
 14 15  1  0
 15 16  2  0
  1 17  1  0
  1 18  1  0
  1 19  1  0
  2 20  1  0
  2 21  1  0
  3 22  1  1
  4 23  1  0
  4 24  1  0
  8 25  1  0
  8 26  1  0
  8 27  1  0
  9 28  1  0
  9 29  1  0
  9 30  1  0
 10 31  1  0
 11 32  1  0
 11 33  1  0
 11 34  1  0
 12 35  1  0
 12 36  1  0
 13 37  1  0
 13 38  1  0
M  END
> <Uni-Dock RESULT> 
ENERGY=   -4.097  LOWER_BOUND=    5.441  UPPER_BOUND=    6.174
INTER + INTRA:          -4.097
INTER:                  -4.097
INTRA:                   0.000
UNBOUND:                 0.000

$$$$

     RDKit          3D

 38 36  0  0  0  0  0  0  0  0999 V2000
   44.1438    3.4740   11.1923 C   0  0  0  0  0  0  0  0  0  0  0  0
   43.7519    4.0445   12.5484 C   0  0  0  0  0  0  0  0  0  0  0  0
   44.7379    5.0659   13.1439 C   0  0  2  0  0  0  0  0  0  0  0  0
   44.8754    6.3193   12.2657 C   0  0  0  0  0  0  0  0  0  0  0  0
   45.6166    7.3084   12.9792 O   0  0  0  0  0  0  0  0  0  0  0  0
   45.7411    8.4727   12.1574 N   0  0  0  0  0  0  0  0  0  0  0  0
   46.3819    9.3538   12.7380 O   0  0  0  0  0  0  0  0  0  0  0  0
   46.1068    4.4409   13.4318 C   0  0  0  0  0  0  0  0  0  0  0  0
   43.0410    3.8859   11.6655 C   0  0  0  0  0  0  0  0  0  0  0  0
   44.4879    4.3673   11.7973 C   0  0  0  0  0  0  0  0  0  0  0  0
   45.3459    3.2616   12.4135 C   0  0  0  0  0  0  0  0  0  0  0  0
   44.5322    5.6684   12.6152 C   0  0  0  0  0  0  0  0  0  0  0  0
   45.9186    6.3056   12.6852 C   0  0  0  0  0  0  0  0  0  0  0  0
   45.7978    7.5515   13.3698 O   0  0  0  0  0  0  0  0  0  0  0  0
   47.0867    8.1692   13.4318 N   0  0  0  0  0  0  0  0  0  0  0  0
   47.0267    9.2536   14.0187 O   0  0  0  0  0  0  0  0  0  0  0  0
   43.3853    2.7587   10.8574 H   0  0  0  0  0  0  0  0  0  0  0  0
   45.0991    2.9437   11.2393 H   0  0  0  0  0  0  0  0  0  0  0  0
   44.2163    4.2569   10.4320 H   0  0  0  0  0  0  0  0  0  0  0  0
   43.6306    3.2132   13.2542 H   0  0  0  0  0  0  0  0  0  0  0  0
   42.7650    4.5149   12.4564 H   0  0  0  0  0  0  0  0  0  0  0  0
   44.3311    5.3824   14.1143 H   0  0  0  0  0  0  0  0  0  0  0  0
   45.3948    6.0793   11.3297 H   0  0  0  0  0  0  0  0  0  0  0  0
   43.8795    6.7152   12.0289 H   0  0  0  0  0  0  0  0  0  0  0  0
   46.7381    5.1301   14.0027 H   0  0  0  0  0  0  0  0  0  0  0  0
   46.6399    4.1911   12.5090 H   0  0  0  0  0  0  0  0  0  0  0  0
   45.9998    3.5259   14.0237 H   0  0  0  0  0  0  0  0  0  0  0  0
   42.9862    2.9801   11.0521 H   0  0  0  0  0  0  0  0  0  0  0  0
   42.4186    4.6494   11.1868 H   0  0  0  0  0  0  0  0  0  0  0  0
   42.6065    3.6587   12.6450 H   0  0  0  0  0  0  0  0  0  0  0  0
   44.8663    4.5733   10.7880 H   0  0  0  0  0  0  0  0  0  0  0  0
   46.4068    3.5294   12.4054 H   0  0  0  0  0  0  0  0  0  0  0  0
   45.0517    3.0613   13.4493 H   0  0  0  0  0  0  0  0  0  0  0  0
   45.2434    2.3296   11.8471 H   0  0  0  0  0  0  0  0  0  0  0  0
   43.8368    6.3982   12.1798 H   0  0  0  0  0  0  0  0  0  0  0  0
   44.1663    5.4908   13.6351 H   0  0  0  0  0  0  0  0  0  0  0  0
   46.3040    6.4752   11.6722 H   0  0  0  0  0  0  0  0  0  0  0  0
   46.6119    5.6576   13.2336 H   0  0  0  0  0  0  0  0  0  0  0  0
  1  2  1  0
  2  3  1  0
  3  4  1  0
  4  5  1  0
  5  6  1  0
  6  7  2  0
  3  8  1  0
  9 10  1  0
 10 11  1  0
 10 12  1  0
 12 13  1  0
 13 14  1  0
 14 15  1  0
 15 16  2  0
  1 17  1  0
  1 18  1  0
  1 19  1  0
  2 20  1  0
  2 21  1  0
  3 22  1  1
  4 23  1  0
  4 24  1  0
  8 25  1  0
  8 26  1  0
  8 27  1  0
  9 28  1  0
  9 29  1  0
  9 30  1  0
 10 31  1  0
 11 32  1  0
 11 33  1  0
 11 34  1  0
 12 35  1  0
 12 36  1  0
 13 37  1  0
 13 38  1  0
M  END
> <Uni-Dock RESULT> 
ENERGY=   -3.936  LOWER_BOUND=    4.973  UPPER_BOUND=    6.059
INTER + INTRA:          -3.936
INTER:                  -3.936
INTRA:                   0.000
UNBOUND:                 0.000

$$$$
