
     RDKit          3D

 38 36  0  0  0  0  0  0  0  0999 V2000
   46.9357    2.0353    6.6502 C   0  0  0  0  0  0  0  0  0  0  0  0
   46.4762    3.4247    7.0690 C   0  0  0  0  0  0  0  0  0  0  0  0
   46.1693    3.5490    8.5723 C   0  0  2  0  0  0  0  0  0  0  0  0
   44.9875    2.6637    9.0016 C   0  0  0  0  0  0  0  0  0  0  0  0
   44.7873    2.7942   10.4087 O   0  0  0  0  0  0  0  0  0  0  0  0
   43.6679    1.9902   10.7919 N   0  0  0  0  0  0  0  0  0  0  0  0
   43.4580    2.0787   12.0052 O   0  0  0  0  0  0  0  0  0  0  0  0
   45.8987    5.0186    8.9199 C   0  0  0  0  0  0  0  0  0  0  0  0
   46.7556    1.9780    6.5343 C   0  0  0  0  0  0  0  0  0  0  0  0
   46.2808    2.6108    7.8459 C   0  0  0  0  0  0  0  0  0  0  0  0
   45.6171    1.5449    8.7175 C   0  0  0  0  0  0  0  0  0  0  0  0
   45.3582    3.8082    7.5373 C   0  0  0  0  0  0  0  0  0  0  0  0
   44.9259    4.6081    8.7670 C   0  0  0  0  0  0  0  0  0  0  0  0
   43.8811    3.9183    9.4456 O   0  0  0  0  0  0  0  0  0  0  0  0
   43.5028    4.6742   10.5997 N   0  0  0  0  0  0  0  0  0  0  0  0
   42.6071    4.1005   11.2262 O   0  0  0  0  0  0  0  0  0  0  0  0
   47.2498    2.0455    5.6013 H   0  0  0  0  0  0  0  0  0  0  0  0
   46.1323    1.2993    6.7442 H   0  0  0  0  0  0  0  0  0  0  0  0
   47.7856    1.7031    7.2545 H   0  0  0  0  0  0  0  0  0  0  0  0
   47.2687    4.1362    6.8050 H   0  0  0  0  0  0  0  0  0  0  0  0
   45.5939    3.7041    6.4802 H   0  0  0  0  0  0  0  0  0  0  0  0
   47.0556    3.2434    9.1439 H   0  0  0  0  0  0  0  0  0  0  0  0
   44.0777    2.9655    8.4662 H   0  0  0  0  0  0  0  0  0  0  0  0
   45.1990    1.6125    8.7750 H   0  0  0  0  0  0  0  0  0  0  0  0
   45.7532    5.1528    9.9966 H   0  0  0  0  0  0  0  0  0  0  0  0
   46.7434    5.6498    8.6233 H   0  0  0  0  0  0  0  0  0  0  0  0
   45.0038    5.3878    8.4073 H   0  0  0  0  0  0  0  0  0  0  0  0
   47.2759    2.7139    5.9121 H   0  0  0  0  0  0  0  0  0  0  0  0
   47.4528    1.1558    6.7279 H   0  0  0  0  0  0  0  0  0  0  0  0
   45.9136    1.5801    5.9575 H   0  0  0  0  0  0  0  0  0  0  0  0
   47.1672    2.9811    8.3766 H   0  0  0  0  0  0  0  0  0  0  0  0
   45.4283    1.9190    9.7278 H   0  0  0  0  0  0  0  0  0  0  0  0
   44.6658    1.2142    8.2872 H   0  0  0  0  0  0  0  0  0  0  0  0
   46.2644    0.6669    8.8192 H   0  0  0  0  0  0  0  0  0  0  0  0
   44.4700    3.4548    6.9985 H   0  0  0  0  0  0  0  0  0  0  0  0
   45.8967    4.4899    6.8668 H   0  0  0  0  0  0  0  0  0  0  0  0
   45.7796    4.7709    9.4366 H   0  0  0  0  0  0  0  0  0  0  0  0
   44.5476    5.5834    8.4356 H   0  0  0  0  0  0  0  0  0  0  0  0
  1  2  1  0
  2  3  1  0
  3  4  1  0
  4  5  1  0
  5  6  1  0
  6  7  2  0
  3  8  1  0
  9 10  1  0
 10 11  1  0
 10 12  1  0
 12 13  1  0
 13 14  1  0
 14 15  1  0
 15 16  2  0
  1 17  1  0
  1 18  1  0
  1 19  1  0
  2 20  1  0
  2 21  1  0
  3 22  1  1
  4 23  1  0
  4 24  1  0
  8 25  1  0
  8 26  1  0
  8 27  1  0
  9 28  1  0
  9 29  1  0
  9 30  1  0
 10 31  1  0
 11 32  1  0
 11 33  1  0
 11 34  1  0
 12 35  1  0
 12 36  1  0
 13 37  1  0
 13 38  1  0
M  END
> <Uni-Dock RESULT> 
ENERGY=   -5.550  LOWER_BOUND=    0.000  UPPER_BOUND=    0.000
INTER + INTRA:          -5.550
INTER:                  -5.550
INTRA:                   0.000
UNBOUND:                 0.000

$$$$

     RDKit          3D

 38 36  0  0  0  0  0  0  0  0999 V2000
   43.5203    2.7079   11.8480 C   0  0  0  0  0  0  0  0  0  0  0  0
   43.2411    4.2015   11.7591 C   0  0  0  0  0  0  0  0  0  0  0  0
   44.5044    5.0570   11.5552 C   0  0  2  0  0  0  0  0  0  0  0  0
   45.4680    4.9688   12.7504 C   0  0  0  0  0  0  0  0  0  0  0  0
   46.6321    5.7476   12.4761 O   0  0  0  0  0  0  0  0  0  0  0  0
   47.5074    5.6824   13.6058 N   0  0  0  0  0  0  0  0  0  0  0  0
   48.5281    6.3487   13.4099 O   0  0  0  0  0  0  0  0  0  0  0  0
   44.0997    6.5135   11.2929 C   0  0  0  0  0  0  0  0  0  0  0  0
   43.4732    2.6814   12.0631 C   0  0  0  0  0  0  0  0  0  0  0  0
   44.3391    3.9377   11.9296 C   0  0  0  0  0  0  0  0  0  0  0  0
   45.7048    3.6882   12.5691 C   0  0  0  0  0  0  0  0  0  0  0  0
   43.5935    5.1455   12.5343 C   0  0  0  0  0  0  0  0  0  0  0  0
   44.3001    6.4879   12.3406 C   0  0  0  0  0  0  0  0  0  0  0  0
   45.3613    6.6124   13.2820 O   0  0  0  0  0  0  0  0  0  0  0  0
   46.0183    7.8658   13.0736 N   0  0  0  0  0  0  0  0  0  0  0  0
   46.9575    8.0059   13.8625 O   0  0  0  0  0  0  0  0  0  0  0  0
   42.5774    2.1518   11.8723 H   0  0  0  0  0  0  0  0  0  0  0  0
   44.0734    2.4542   12.7568 H   0  0  0  0  0  0  0  0  0  0  0  0
   44.0944    2.3626   10.9825 H   0  0  0  0  0  0  0  0  0  0  0  0
   42.5564    4.3674   10.9180 H   0  0  0  0  0  0  0  0  0  0  0  0
   42.7109    4.5225   12.6641 H   0  0  0  0  0  0  0  0  0  0  0  0
   45.0325    4.7058   10.6589 H   0  0  0  0  0  0  0  0  0  0  0  0
   44.9759    5.3413   13.6584 H   0  0  0  0  0  0  0  0  0  0  0  0
   45.7740    3.9294   12.9151 H   0  0  0  0  0  0  0  0  0  0  0  0
   44.9724    7.1346   11.0666 H   0  0  0  0  0  0  0  0  0  0  0  0
   43.4206    6.5796   10.4361 H   0  0  0  0  0  0  0  0  0  0  0  0
   43.5914    6.9452   12.1619 H   0  0  0  0  0  0  0  0  0  0  0  0
   42.5048    2.8211   11.5710 H   0  0  0  0  0  0  0  0  0  0  0  0
   43.9612    1.8198   11.5951 H   0  0  0  0  0  0  0  0  0  0  0  0
   43.2878    2.4365   13.1146 H   0  0  0  0  0  0  0  0  0  0  0  0
   44.4932    4.1234   10.8589 H   0  0  0  0  0  0  0  0  0  0  0  0
   46.4059    4.4948   12.3359 H   0  0  0  0  0  0  0  0  0  0  0  0
   45.6251    3.6026   13.6580 H   0  0  0  0  0  0  0  0  0  0  0  0
   46.1488    2.7613   12.1896 H   0  0  0  0  0  0  0  0  0  0  0  0
   43.4243    4.9710   13.6044 H   0  0  0  0  0  0  0  0  0  0  0  0
   42.6087    5.2133   12.0551 H   0  0  0  0  0  0  0  0  0  0  0  0
   44.6813    6.5747   11.3154 H   0  0  0  0  0  0  0  0  0  0  0  0
   43.5763    7.2937   12.5162 H   0  0  0  0  0  0  0  0  0  0  0  0
  1  2  1  0
  2  3  1  0
  3  4  1  0
  4  5  1  0
  5  6  1  0
  6  7  2  0
  3  8  1  0
  9 10  1  0
 10 11  1  0
 10 12  1  0
 12 13  1  0
 13 14  1  0
 14 15  1  0
 15 16  2  0
  1 17  1  0
  1 18  1  0
  1 19  1  0
  2 20  1  0
  2 21  1  0
  3 22  1  1
  4 23  1  0
  4 24  1  0
  8 25  1  0
  8 26  1  0
  8 27  1  0
  9 28  1  0
  9 29  1  0
  9 30  1  0
 10 31  1  0
 11 32  1  0
 11 33  1  0
 11 34  1  0
 12 35  1  0
 12 36  1  0
 13 37  1  0
 13 38  1  0
M  END
> <Uni-Dock RESULT> 
ENERGY=   -4.172  LOWER_BOUND=    4.599  UPPER_BOUND=    5.205
INTER + INTRA:          -4.172
INTER:                  -4.172
INTRA:                   0.000
UNBOUND:                 0.000

$$$$

     RDKit          3D

 38 36  0  0  0  0  0  0  0  0999 V2000
   45.2205    9.3854   12.1482 C   0  0  0  0  0  0  0  0  0  0  0  0
   46.5365    8.8121   12.6544 C   0  0  0  0  0  0  0  0  0  0  0  0
   46.7883    7.3581   12.2163 C   0  0  2  0  0  0  0  0  0  0  0  0
   45.7529    6.3842   12.8032 C   0  0  0  0  0  0  0  0  0  0  0  0
   46.0192    5.0669   12.3228 O   0  0  0  0  0  0  0  0  0  0  0  0
   45.0691    4.1653   12.8981 N   0  0  0  0  0  0  0  0  0  0  0  0
   45.2681    3.0105   12.5098 O   0  0  0  0  0  0  0  0  0  0  0  0
   48.2099    6.9417   12.6157 C   0  0  0  0  0  0  0  0  0  0  0  0
   45.1152    9.3952   12.3432 C   0  0  0  0  0  0  0  0  0  0  0  0
   45.8051    8.0304   12.2566 C   0  0  0  0  0  0  0  0  0  0  0  0
   44.7500    6.9295   12.1507 C   0  0  0  0  0  0  0  0  0  0  0  0
   46.7529    7.8535   13.4610 C   0  0  0  0  0  0  0  0  0  0  0  0
   47.6032    6.5831   13.4167 C   0  0  0  0  0  0  0  0  0  0  0  0
   46.8161    5.4644   13.8126 O   0  0  0  0  0  0  0  0  0  0  0  0
   47.6244    4.2859   13.7489 N   0  0  0  0  0  0  0  0  0  0  0  0
   46.9724    3.2882   14.0708 O   0  0  0  0  0  0  0  0  0  0  0  0
   45.1584   10.4512   12.3918 H   0  0  0  0  0  0  0  0  0  0  0  0
   44.3610    8.8930   12.6119 H   0  0  0  0  0  0  0  0  0  0  0  0
   45.1379    9.2815   11.0619 H   0  0  0  0  0  0  0  0  0  0  0  0
   47.3485    9.4459   12.2764 H   0  0  0  0  0  0  0  0  0  0  0  0
   46.5635    8.8857   13.7485 H   0  0  0  0  0  0  0  0  0  0  0  0
   46.7344    7.3009   11.1210 H   0  0  0  0  0  0  0  0  0  0  0  0
   45.8031    6.3982   13.8999 H   0  0  0  0  0  0  0  0  0  0  0  0
   44.7423    6.6719   12.4917 H   0  0  0  0  0  0  0  0  0  0  0  0
   48.4485    5.9379   12.2495 H   0  0  0  0  0  0  0  0  0  0  0  0
   48.9496    7.6288   12.1909 H   0  0  0  0  0  0  0  0  0  0  0  0
   48.3314    6.9442   13.7043 H   0  0  0  0  0  0  0  0  0  0  0  0
   45.8531   10.2039   12.3737 H   0  0  0  0  0  0  0  0  0  0  0  0
   44.4745    9.5643   11.4712 H   0  0  0  0  0  0  0  0  0  0  0  0
   44.4925    9.4693   13.2413 H   0  0  0  0  0  0  0  0  0  0  0  0
   46.4038    8.0179   11.3368 H   0  0  0  0  0  0  0  0  0  0  0  0
   45.2054    5.9649   11.9085 H   0  0  0  0  0  0  0  0  0  0  0  0
   44.1901    6.8232   13.0859 H   0  0  0  0  0  0  0  0  0  0  0  0
   44.0336    7.1525   11.3524 H   0  0  0  0  0  0  0  0  0  0  0  0
   46.1694    7.8723   14.3901 H   0  0  0  0  0  0  0  0  0  0  0  0
   47.4354    8.7125   13.4870 H   0  0  0  0  0  0  0  0  0  0  0  0
   48.0112    6.4312   12.4096 H   0  0  0  0  0  0  0  0  0  0  0  0
   48.4372    6.6947   14.1211 H   0  0  0  0  0  0  0  0  0  0  0  0
  1  2  1  0
  2  3  1  0
  3  4  1  0
  4  5  1  0
  5  6  1  0
  6  7  2  0
  3  8  1  0
  9 10  1  0
 10 11  1  0
 10 12  1  0
 12 13  1  0
 13 14  1  0
 14 15  1  0
 15 16  2  0
  1 17  1  0
  1 18  1  0
  1 19  1  0
  2 20  1  0
  2 21  1  0
  3 22  1  1
  4 23  1  0
  4 24  1  0
  8 25  1  0
  8 26  1  0
  8 27  1  0
  9 28  1  0
  9 29  1  0
  9 30  1  0
 10 31  1  0
 11 32  1  0
 11 33  1  0
 11 34  1  0
 12 35  1  0
 12 36  1  0
 13 37  1  0
 13 38  1  0
M  END
> <Uni-Dock RESULT> 
ENERGY=   -4.124  LOWER_BOUND=    5.040  UPPER_BOUND=    6.155
INTER + INTRA:          -4.124
INTER:                  -4.124
INTRA:                   0.000
UNBOUND:                 0.000

$$$$

     RDKit          3D

 38 36  0  0  0  0  0  0  0  0999 V2000
   43.4213    3.0588   11.7456 C   0  0  0  0  0  0  0  0  0  0  0  0
   44.7701    3.2686   12.4191 C   0  0  0  0  0  0  0  0  0  0  0  0
   44.8843    4.6050   13.1744 C   0  0  2  0  0  0  0  0  0  0  0  0
   44.7898    5.8172   12.2329 C   0  0  0  0  0  0  0  0  0  0  0  0
   44.8587    7.0178   13.0016 O   0  0  0  0  0  0  0  0  0  0  0  0
   44.7998    8.1380   12.1137 N   0  0  0  0  0  0  0  0  0  0  0  0
   44.8609    9.1996   12.7409 O   0  0  0  0  0  0  0  0  0  0  0  0
   46.1986    4.6355   13.9654 C   0  0  0  0  0  0  0  0  0  0  0  0
   43.4896    3.0774   11.5355 C   0  0  0  0  0  0  0  0  0  0  0  0
   44.1344    4.2136   12.3348 C   0  0  0  0  0  0  0  0  0  0  0  0
   43.5501    5.5522   11.8839 C   0  0  0  0  0  0  0  0  0  0  0  0
   45.6689    4.1388   12.1929 C   0  0  0  0  0  0  0  0  0  0  0  0
   46.4346    5.1422   13.0566 C   0  0  0  0  0  0  0  0  0  0  0  0
   46.3945    6.4288   12.4477 O   0  0  0  0  0  0  0  0  0  0  0  0
   47.1016    7.3545   13.2781 N   0  0  0  0  0  0  0  0  0  0  0  0
   47.0768    8.4887   12.7914 O   0  0  0  0  0  0  0  0  0  0  0  0
   43.3636    2.0470   11.3309 H   0  0  0  0  0  0  0  0  0  0  0  0
   43.2689    3.7600   10.9203 H   0  0  0  0  0  0  0  0  0  0  0  0
   42.6015    3.1783   12.4608 H   0  0  0  0  0  0  0  0  0  0  0  0
   44.9269    2.4434   13.1251 H   0  0  0  0  0  0  0  0  0  0  0  0
   45.5636    3.1929   11.6657 H   0  0  0  0  0  0  0  0  0  0  0  0
   44.0689    4.6719   13.9068 H   0  0  0  0  0  0  0  0  0  0  0  0
   45.6115    5.7930   11.5051 H   0  0  0  0  0  0  0  0  0  0  0  0
   43.8371    5.8035   11.6913 H   0  0  0  0  0  0  0  0  0  0  0  0
   46.2749    5.5410   14.5760 H   0  0  0  0  0  0  0  0  0  0  0  0
   46.2637    3.7778   14.6435 H   0  0  0  0  0  0  0  0  0  0  0  0
   47.0643    4.6036   13.2950 H   0  0  0  0  0  0  0  0  0  0  0  0
   43.8599    2.1037   11.8736 H   0  0  0  0  0  0  0  0  0  0  0  0
   42.4017    3.0800   11.6620 H   0  0  0  0  0  0  0  0  0  0  0  0
   43.7070    3.1708   10.4659 H   0  0  0  0  0  0  0  0  0  0  0  0
   43.8743    4.0670   13.3909 H   0  0  0  0  0  0  0  0  0  0  0  0
   43.8538    6.3634   12.5519 H   0  0  0  0  0  0  0  0  0  0  0  0
   43.8687    5.8035   10.8667 H   0  0  0  0  0  0  0  0  0  0  0  0
   42.4550    5.5228   11.8966 H   0  0  0  0  0  0  0  0  0  0  0  0
   45.9448    4.2755   11.1397 H   0  0  0  0  0  0  0  0  0  0  0  0
   45.9898    3.1312   12.4861 H   0  0  0  0  0  0  0  0  0  0  0  0
   46.0089    5.1797   14.0671 H   0  0  0  0  0  0  0  0  0  0  0  0
   47.4805    4.8177   13.1271 H   0  0  0  0  0  0  0  0  0  0  0  0
  1  2  1  0
  2  3  1  0
  3  4  1  0
  4  5  1  0
  5  6  1  0
  6  7  2  0
  3  8  1  0
  9 10  1  0
 10 11  1  0
 10 12  1  0
 12 13  1  0
 13 14  1  0
 14 15  1  0
 15 16  2  0
  1 17  1  0
  1 18  1  0
  1 19  1  0
  2 20  1  0
  2 21  1  0
  3 22  1  1
  4 23  1  0
  4 24  1  0
  8 25  1  0
  8 26  1  0
  8 27  1  0
  9 28  1  0
  9 29  1  0
  9 30  1  0
 10 31  1  0
 11 32  1  0
 11 33  1  0
 11 34  1  0
 12 35  1  0
 12 36  1  0
 13 37  1  0
 13 38  1  0
M  END
> <Uni-Dock RESULT> 
ENERGY=   -4.104  LOWER_BOUND=    4.651  UPPER_BOUND=    5.521
INTER + INTRA:          -4.104
INTER:                  -4.104
INTRA:                   0.000
UNBOUND:                 0.000

$$$$

     RDKit          3D

 38 36  0  0  0  0  0  0  0  0999 V2000
   48.1614    6.7663   13.8382 C   0  0  0  0  0  0  0  0  0  0  0  0
   47.1703    7.2208   12.7761 C   0  0  0  0  0  0  0  0  0  0  0  0
   45.8049    6.5151   12.8601 C   0  0  2  0  0  0  0  0  0  0  0  0
   45.9113    5.0047   12.5918 C   0  0  0  0  0  0  0  0  0  0  0  0
   44.6214    4.4094   12.7285 O   0  0  0  0  0  0  0  0  0  0  0  0
   44.7268    3.0106   12.4479 N   0  0  0  0  0  0  0  0  0  0  0  0
   43.6280    2.4575   12.5515 O   0  0  0  0  0  0  0  0  0  0  0  0
   44.8276    7.1718   11.8764 C   0  0  0  0  0  0  0  0  0  0  0  0
   48.3013    6.6583   13.7042 C   0  0  0  0  0  0  0  0  0  0  0  0
   46.8774    6.2547   13.3098 C   0  0  0  0  0  0  0  0  0  0  0  0
   46.6469    4.7845   13.6591 C   0  0  0  0  0  0  0  0  0  0  0  0
   46.6454    6.5710   11.8177 C   0  0  0  0  0  0  0  0  0  0  0  0
   45.2131    6.3367   11.3357 C   0  0  0  0  0  0  0  0  0  0  0  0
   45.0000    4.9451   11.1216 O   0  0  0  0  0  0  0  0  0  0  0  0
   43.6517    4.7462   10.6873 N   0  0  0  0  0  0  0  0  0  0  0  0
   43.4213    3.5472   10.5050 O   0  0  0  0  0  0  0  0  0  0  0  0
   49.0628    7.3867   13.7987 H   0  0  0  0  0  0  0  0  0  0  0  0
   48.4710    5.7288   13.6834 H   0  0  0  0  0  0  0  0  0  0  0  0
   47.7324    6.8564   14.8410 H   0  0  0  0  0  0  0  0  0  0  0  0
   47.0227    8.3019   12.8927 H   0  0  0  0  0  0  0  0  0  0  0  0
   47.6122    7.0691   11.7837 H   0  0  0  0  0  0  0  0  0  0  0  0
   45.3901    6.6589   13.8666 H   0  0  0  0  0  0  0  0  0  0  0  0
   46.2973    4.8290   11.5791 H   0  0  0  0  0  0  0  0  0  0  0  0
   46.5898    4.5378   13.3148 H   0  0  0  0  0  0  0  0  0  0  0  0
   43.8241    6.7438   11.9667 H   0  0  0  0  0  0  0  0  0  0  0  0
   44.7432    8.2463   12.0718 H   0  0  0  0  0  0  0  0  0  0  0  0
   45.1611    7.0411   10.8412 H   0  0  0  0  0  0  0  0  0  0  0  0
   48.4746    7.7212   13.5051 H   0  0  0  0  0  0  0  0  0  0  0  0
   48.4728    6.4892   14.7726 H   0  0  0  0  0  0  0  0  0  0  0  0
   49.0468    6.0820   13.1455 H   0  0  0  0  0  0  0  0  0  0  0  0
   46.1827    6.8594   13.9067 H   0  0  0  0  0  0  0  0  0  0  0  0
   45.5923    4.5126   13.5573 H   0  0  0  0  0  0  0  0  0  0  0  0
   47.2384    4.1248   13.0155 H   0  0  0  0  0  0  0  0  0  0  0  0
   46.9286    4.5827   14.6984 H   0  0  0  0  0  0  0  0  0  0  0  0
   47.3394    5.9794   11.2074 H   0  0  0  0  0  0  0  0  0  0  0  0
   46.8857    7.6289   11.6519 H   0  0  0  0  0  0  0  0  0  0  0  0
   44.4949    6.7294   12.0663 H   0  0  0  0  0  0  0  0  0  0  0  0
   45.0723    6.8656   10.3846 H   0  0  0  0  0  0  0  0  0  0  0  0
  1  2  1  0
  2  3  1  0
  3  4  1  0
  4  5  1  0
  5  6  1  0
  6  7  2  0
  3  8  1  0
  9 10  1  0
 10 11  1  0
 10 12  1  0
 12 13  1  0
 13 14  1  0
 14 15  1  0
 15 16  2  0
  1 17  1  0
  1 18  1  0
  1 19  1  0
  2 20  1  0
  2 21  1  0
  3 22  1  1
  4 23  1  0
  4 24  1  0
  8 25  1  0
  8 26  1  0
  8 27  1  0
  9 28  1  0
  9 29  1  0
  9 30  1  0
 10 31  1  0
 11 32  1  0
 11 33  1  0
 11 34  1  0
 12 35  1  0
 12 36  1  0
 13 37  1  0
 13 38  1  0
M  END
> <Uni-Dock RESULT> 
ENERGY=   -3.951  LOWER_BOUND=    3.993  UPPER_BOUND=    4.978
INTER + INTRA:          -3.951
INTER:                  -3.951
INTRA:                   0.000
UNBOUND:                 0.000

$$$$

     RDKit          3D

 38 36  0  0  0  0  0  0  0  0999 V2000
   47.2584    3.5954   17.1098 C   0  0  0  0  0  0  0  0  0  0  0  0
   48.3755    4.4316   17.7180 C   0  0  0  0  0  0  0  0  0  0  0  0
   49.7797    4.0475   17.2178 C   0  0  2  0  0  0  0  0  0  0  0  0
   50.1736    2.6181   17.6256 C   0  0  0  0  0  0  0  0  0  0  0  0
   51.4628    2.3143   17.0939 O   0  0  0  0  0  0  0  0  0  0  0  0
   51.8316    0.9943   17.5040 N   0  0  0  0  0  0  0  0  0  0  0  0
   52.9462    0.6936   17.0666 O   0  0  0  0  0  0  0  0  0  0  0  0
   50.8050    5.0615   17.7416 C   0  0  0  0  0  0  0  0  0  0  0  0
   47.2029    3.4825   17.2924 C   0  0  0  0  0  0  0  0  0  0  0  0
   48.7313    3.4812   17.1942 C   0  0  0  0  0  0  0  0  0  0  0  0
   49.2243    2.0636   16.9045 C   0  0  0  0  0  0  0  0  0  0  0  0
   49.3321    4.0852   18.4805 C   0  0  0  0  0  0  0  0  0  0  0  0
   50.8507    4.2629   18.4476 C   0  0  0  0  0  0  0  0  0  0  0  0
   51.4860    3.0105   18.6835 O   0  0  0  0  0  0  0  0  0  0  0  0
   52.9035    3.1954   18.6328 N   0  0  0  0  0  0  0  0  0  0  0  0
   53.4928    2.1265   18.8177 O   0  0  0  0  0  0  0  0  0  0  0  0
   46.2849    3.9946   17.4128 H   0  0  0  0  0  0  0  0  0  0  0  0
   47.3046    2.5554   17.4452 H   0  0  0  0  0  0  0  0  0  0  0  0
   47.3052    3.6118   16.0165 H   0  0  0  0  0  0  0  0  0  0  0  0
   48.1825    5.4832   17.4715 H   0  0  0  0  0  0  0  0  0  0  0  0
   48.3301    4.3514   18.8110 H   0  0  0  0  0  0  0  0  0  0  0  0
   49.7981    4.1116   16.1218 H   0  0  0  0  0  0  0  0  0  0  0  0
   50.1919    2.5309   18.7200 H   0  0  0  0  0  0  0  0  0  0  0  0
   49.4520    1.8969   17.2255 H   0  0  0  0  0  0  0  0  0  0  0  0
   51.8037    4.8616   17.3401 H   0  0  0  0  0  0  0  0  0  0  0  0
   50.5312    6.0796   17.4442 H   0  0  0  0  0  0  0  0  0  0  0  0
   50.8662    5.0331   18.8349 H   0  0  0  0  0  0  0  0  0  0  0  0
   46.8233    4.4970   17.4544 H   0  0  0  0  0  0  0  0  0  0  0  0
   46.7524    3.1039   16.3687 H   0  0  0  0  0  0  0  0  0  0  0  0
   46.8574    2.8543   18.1207 H   0  0  0  0  0  0  0  0  0  0  0  0
   49.0108    4.1189   16.3459 H   0  0  0  0  0  0  0  0  0  0  0  0
   50.2885    2.0570   16.6519 H   0  0  0  0  0  0  0  0  0  0  0  0
   49.0683    1.4041   17.7648 H   0  0  0  0  0  0  0  0  0  0  0  0
   48.6917    1.6336   16.0491 H   0  0  0  0  0  0  0  0  0  0  0  0
   49.0540    3.4625   19.3402 H   0  0  0  0  0  0  0  0  0  0  0  0
   48.8825    5.0743   18.6352 H   0  0  0  0  0  0  0  0  0  0  0  0
   51.1659    4.6802   17.4830 H   0  0  0  0  0  0  0  0  0  0  0  0
   51.1394    4.9605   19.2440 H   0  0  0  0  0  0  0  0  0  0  0  0
  1  2  1  0
  2  3  1  0
  3  4  1  0
  4  5  1  0
  5  6  1  0
  6  7  2  0
  3  8  1  0
  9 10  1  0
 10 11  1  0
 10 12  1  0
 12 13  1  0
 13 14  1  0
 14 15  1  0
 15 16  2  0
  1 17  1  0
  1 18  1  0
  1 19  1  0
  2 20  1  0
  2 21  1  0
  3 22  1  1
  4 23  1  0
  4 24  1  0
  8 25  1  0
  8 26  1  0
  8 27  1  0
  9 28  1  0
  9 29  1  0
  9 30  1  0
 10 31  1  0
 11 32  1  0
 11 33  1  0
 11 34  1  0
 12 35  1  0
 12 36  1  0
 13 37  1  0
 13 38  1  0
M  END
> <Uni-Dock RESULT> 
ENERGY=   -3.945  LOWER_BOUND=   10.051  UPPER_BOUND=   10.832
INTER + INTRA:          -3.945
INTER:                  -3.945
INTRA:                   0.000
UNBOUND:                 0.000

$$$$

     RDKit          3D

 38 36  0  0  0  0  0  0  0  0999 V2000
   45.9173    9.2475   12.3336 C   0  0  0  0  0  0  0  0  0  0  0  0
   44.9169    8.1948   11.8777 C   0  0  0  0  0  0  0  0  0  0  0  0
   44.8493    6.9638   12.7995 C   0  0  2  0  0  0  0  0  0  0  0  0
   46.1715    6.1790   12.8228 C   0  0  0  0  0  0  0  0  0  0  0  0
   46.0525    5.0812   13.7269 O   0  0  0  0  0  0  0  0  0  0  0  0
   47.2769    4.3415   13.7182 N   0  0  0  0  0  0  0  0  0  0  0  0
   47.2136    3.3777   14.4870 O   0  0  0  0  0  0  0  0  0  0  0  0
   43.6906    6.0588   12.3611 C   0  0  0  0  0  0  0  0  0  0  0  0
   46.0657    9.2201   12.1711 C   0  0  0  0  0  0  0  0  0  0  0  0
   45.6579    7.8292   12.6661 C   0  0  0  0  0  0  0  0  0  0  0  0
   46.8433    7.1684   13.3694 C   0  0  0  0  0  0  0  0  0  0  0  0
   45.1098    7.0010   11.4854 C   0  0  0  0  0  0  0  0  0  0  0  0
   44.5429    5.6360   11.8782 C   0  0  0  0  0  0  0  0  0  0  0  0
   45.6090    4.7159   12.0892 O   0  0  0  0  0  0  0  0  0  0  0  0
   45.0588    3.4518   12.4707 N   0  0  0  0  0  0  0  0  0  0  0  0
   45.9542    2.6278   12.6786 O   0  0  0  0  0  0  0  0  0  0  0  0
   45.8309   10.1417   11.7076 H   0  0  0  0  0  0  0  0  0  0  0  0
   46.9469    8.8882   12.2509 H   0  0  0  0  0  0  0  0  0  0  0  0
   45.7330    9.5422   13.3714 H   0  0  0  0  0  0  0  0  0  0  0  0
   43.9268    8.6658   11.8357 H   0  0  0  0  0  0  0  0  0  0  0  0
   45.1618    7.8857   10.8541 H   0  0  0  0  0  0  0  0  0  0  0  0
   44.6263    7.2956   13.8222 H   0  0  0  0  0  0  0  0  0  0  0  0
   46.4069    5.8090   11.8162 H   0  0  0  0  0  0  0  0  0  0  0  0
   46.9897    6.8242   13.1626 H   0  0  0  0  0  0  0  0  0  0  0  0
   43.5661    5.2124   13.0442 H   0  0  0  0  0  0  0  0  0  0  0  0
   42.7462    6.6135   12.3528 H   0  0  0  0  0  0  0  0  0  0  0  0
   43.8585    5.6613   11.3543 H   0  0  0  0  0  0  0  0  0  0  0  0
   45.2177    9.7317   11.7035 H   0  0  0  0  0  0  0  0  0  0  0  0
   46.4114    9.8439   13.0023 H   0  0  0  0  0  0  0  0  0  0  0  0
   46.8737    9.1585   11.4341 H   0  0  0  0  0  0  0  0  0  0  0  0
   44.8549    7.9602   13.4026 H   0  0  0  0  0  0  0  0  0  0  0  0
   46.5384    6.2551   13.8885 H   0  0  0  0  0  0  0  0  0  0  0  0
   47.6369    6.9144   12.6587 H   0  0  0  0  0  0  0  0  0  0  0  0
   47.2692    7.8370   14.1255 H   0  0  0  0  0  0  0  0  0  0  0  0
   45.8997    6.8682   10.7353 H   0  0  0  0  0  0  0  0  0  0  0  0
   44.3032    7.5748   11.0116 H   0  0  0  0  0  0  0  0  0  0  0  0
   43.9247    5.7242   12.7803 H   0  0  0  0  0  0  0  0  0  0  0  0
   43.9159    5.2672   11.0566 H   0  0  0  0  0  0  0  0  0  0  0  0
  1  2  1  0
  2  3  1  0
  3  4  1  0
  4  5  1  0
  5  6  1  0
  6  7  2  0
  3  8  1  0
  9 10  1  0
 10 11  1  0
 10 12  1  0
 12 13  1  0
 13 14  1  0
 14 15  1  0
 15 16  2  0
  1 17  1  0
  1 18  1  0
  1 19  1  0
  2 20  1  0
  2 21  1  0
  3 22  1  1
  4 23  1  0
  4 24  1  0
  8 25  1  0
  8 26  1  0
  8 27  1  0
  9 28  1  0
  9 29  1  0
  9 30  1  0
 10 31  1  0
 11 32  1  0
 11 33  1  0
 11 34  1  0
 12 35  1  0
 12 36  1  0
 13 37  1  0
 13 38  1  0
M  END
> <Uni-Dock RESULT> 
ENERGY=   -3.735  LOWER_BOUND=    4.398  UPPER_BOUND=    5.802
INTER + INTRA:          -3.735
INTER:                  -3.735
INTRA:                   0.000
UNBOUND:                 0.000

$$$$

     RDKit          3D

 38 36  0  0  0  0  0  0  0  0999 V2000
   47.4527   13.5766   17.8983 C   0  0  0  0  0  0  0  0  0  0  0  0
   47.0622   12.2013   18.4205 C   0  0  0  0  0  0  0  0  0  0  0  0
   46.8200   12.1612   19.9401 C   0  0  2  0  0  0  0  0  0  0  0  0
   48.0944   12.4727   20.7424 C   0  0  0  0  0  0  0  0  0  0  0  0
   47.7885   12.4617   22.1364 O   0  0  0  0  0  0  0  0  0  0  0  0
   48.9864   12.7230   22.8736 N   0  0  0  0  0  0  0  0  0  0  0  0
   48.7649   12.7180   24.0881 O   0  0  0  0  0  0  0  0  0  0  0  0
   46.2553   10.7898   20.3327 C   0  0  0  0  0  0  0  0  0  0  0  0
   47.6636   13.5306   17.8478 C   0  0  0  0  0  0  0  0  0  0  0  0
   47.3792   12.9397   19.2319 C   0  0  0  0  0  0  0  0  0  0  0  0
   48.1770   13.7039   20.2883 C   0  0  0  0  0  0  0  0  0  0  0  0
   47.6774   11.4261   19.2186 C   0  0  0  0  0  0  0  0  0  0  0  0
   47.3033   10.6953   20.5089 C   0  0  0  0  0  0  0  0  0  0  0  0
   48.2989   10.9299   21.4996 O   0  0  0  0  0  0  0  0  0  0  0  0
   47.9225   10.2519   22.7016 N   0  0  0  0  0  0  0  0  0  0  0  0
   48.7547   10.4436   23.5931 O   0  0  0  0  0  0  0  0  0  0  0  0
   47.4929   13.5638   16.8042 H   0  0  0  0  0  0  0  0  0  0  0  0
   48.4398   13.8797   18.2587 H   0  0  0  0  0  0  0  0  0  0  0  0
   46.7231   14.3342   18.2010 H   0  0  0  0  0  0  0  0  0  0  0  0
   46.1454   11.8916   17.9033 H   0  0  0  0  0  0  0  0  0  0  0  0
   47.8389   11.4779   18.1438 H   0  0  0  0  0  0  0  0  0  0  0  0
   46.0572   12.9071   20.1998 H   0  0  0  0  0  0  0  0  0  0  0  0
   48.8680   11.7247   20.5247 H   0  0  0  0  0  0  0  0  0  0  0  0
   48.4770   13.4647   20.4767 H   0  0  0  0  0  0  0  0  0  0  0  0
   45.9987   10.7545   21.3964 H   0  0  0  0  0  0  0  0  0  0  0  0
   45.3422   10.5699   19.7691 H   0  0  0  0  0  0  0  0  0  0  0  0
   46.9781    9.9919   20.1307 H   0  0  0  0  0  0  0  0  0  0  0  0
   47.0670   13.0280   17.0790 H   0  0  0  0  0  0  0  0  0  0  0  0
   47.4110   14.5959   17.8191 H   0  0  0  0  0  0  0  0  0  0  0  0
   48.7206   13.4252   17.5803 H   0  0  0  0  0  0  0  0  0  0  0  0
   46.3115   13.0830   19.4419 H   0  0  0  0  0  0  0  0  0  0  0  0
   47.8635   13.4281   21.2993 H   0  0  0  0  0  0  0  0  0  0  0  0
   49.2507   13.5103   20.1937 H   0  0  0  0  0  0  0  0  0  0  0  0
   48.0191   14.7835   20.1898 H   0  0  0  0  0  0  0  0  0  0  0  0
   48.7410   11.2659   19.0013 H   0  0  0  0  0  0  0  0  0  0  0  0
   47.1052   10.9729   18.3991 H   0  0  0  0  0  0  0  0  0  0  0  0
   46.3194   11.0264   20.8641 H   0  0  0  0  0  0  0  0  0  0  0  0
   47.2585    9.6186   20.3017 H   0  0  0  0  0  0  0  0  0  0  0  0
  1  2  1  0
  2  3  1  0
  3  4  1  0
  4  5  1  0
  5  6  1  0
  6  7  2  0
  3  8  1  0
  9 10  1  0
 10 11  1  0
 10 12  1  0
 12 13  1  0
 13 14  1  0
 14 15  1  0
 15 16  2  0
  1 17  1  0
  1 18  1  0
  1 19  1  0
  2 20  1  0
  2 21  1  0
  3 22  1  1
  4 23  1  0
  4 24  1  0
  8 25  1  0
  8 26  1  0
  8 27  1  0
  9 28  1  0
  9 29  1  0
  9 30  1  0
 10 31  1  0
 11 32  1  0
 11 33  1  0
 11 34  1  0
 12 35  1  0
 12 36  1  0
 13 37  1  0
 13 38  1  0
M  END
> <Uni-Dock RESULT> 
ENERGY=   -3.734  LOWER_BOUND=   14.081  UPPER_BOUND=   15.217
INTER + INTRA:          -3.734
INTER:                  -3.734
INTRA:                   0.000
UNBOUND:                 0.000

$$$$

     RDKit          3D

 38 36  0  0  0  0  0  0  0  0999 V2000
   48.1429    6.5325   14.0566 C   0  0  0  0  0  0  0  0  0  0  0  0
   47.1405    5.9058   13.0978 C   0  0  0  0  0  0  0  0  0  0  0  0
   46.5913    6.8871   12.0468 C   0  0  2  0  0  0  0  0  0  0  0  0
   45.7773    8.0268   12.6818 C   0  0  0  0  0  0  0  0  0  0  0  0
   45.3376    8.9193   11.6584 O   0  0  0  0  0  0  0  0  0  0  0  0
   44.5571    9.9583   12.2566 N   0  0  0  0  0  0  0  0  0  0  0  0
   44.1528   10.7518   11.4016 O   0  0  0  0  0  0  0  0  0  0  0  0
   45.7422    6.1203   11.0245 C   0  0  0  0  0  0  0  0  0  0  0  0
   48.0166    6.5284   14.2388 C   0  0  0  0  0  0  0  0  0  0  0  0
   47.1517    7.0477   13.0863 C   0  0  0  0  0  0  0  0  0  0  0  0
   46.8143    8.5197   13.3225 C   0  0  0  0  0  0  0  0  0  0  0  0
   45.9043    6.1527   12.9328 C   0  0  0  0  0  0  0  0  0  0  0  0
   45.0277    6.4894   11.7257 C   0  0  0  0  0  0  0  0  0  0  0  0
   44.2293    7.6323   12.0159 O   0  0  0  0  0  0  0  0  0  0  0  0
   43.4299    7.9396   10.8702 N   0  0  0  0  0  0  0  0  0  0  0  0
   42.7321    8.9369   11.0762 O   0  0  0  0  0  0  0  0  0  0  0  0
   48.5814    5.7601   14.6970 H   0  0  0  0  0  0  0  0  0  0  0  0
   47.6690    7.2698   14.7107 H   0  0  0  0  0  0  0  0  0  0  0  0
   48.9562    7.0215   13.5113 H   0  0  0  0  0  0  0  0  0  0  0  0
   47.6387    5.0734   12.5851 H   0  0  0  0  0  0  0  0  0  0  0  0
   46.3150    5.4709   13.6746 H   0  0  0  0  0  0  0  0  0  0  0  0
   47.4327    7.3284   11.4964 H   0  0  0  0  0  0  0  0  0  0  0  0
   44.9104    7.6171   13.2166 H   0  0  0  0  0  0  0  0  0  0  0  0
   46.3977    8.5869   13.3906 H   0  0  0  0  0  0  0  0  0  0  0  0
   45.3999    6.7773   10.2185 H   0  0  0  0  0  0  0  0  0  0  0  0
   46.3230    5.3138   10.5642 H   0  0  0  0  0  0  0  0  0  0  0  0
   44.8604    5.6749   11.4977 H   0  0  0  0  0  0  0  0  0  0  0  0
   48.3093    5.4869   14.0682 H   0  0  0  0  0  0  0  0  0  0  0  0
   48.9340    7.1189   14.3345 H   0  0  0  0  0  0  0  0  0  0  0  0
   47.4797    6.5786   15.1923 H   0  0  0  0  0  0  0  0  0  0  0  0
   47.7463    6.9780   12.1664 H   0  0  0  0  0  0  0  0  0  0  0  0
   46.3524    8.9682   12.4383 H   0  0  0  0  0  0  0  0  0  0  0  0
   46.1306    8.6406   14.1695 H   0  0  0  0  0  0  0  0  0  0  0  0
   47.7205    9.0973   13.5356 H   0  0  0  0  0  0  0  0  0  0  0  0
   45.3029    6.2052   13.8491 H   0  0  0  0  0  0  0  0  0  0  0  0
   46.2412    5.1141   12.8227 H   0  0  0  0  0  0  0  0  0  0  0  0
   45.6497    6.6678   10.8396 H   0  0  0  0  0  0  0  0  0  0  0  0
   44.3653    5.6379   11.5250 H   0  0  0  0  0  0  0  0  0  0  0  0
  1  2  1  0
  2  3  1  0
  3  4  1  0
  4  5  1  0
  5  6  1  0
  6  7  2  0
  3  8  1  0
  9 10  1  0
 10 11  1  0
 10 12  1  0
 12 13  1  0
 13 14  1  0
 14 15  1  0
 15 16  2  0
  1 17  1  0
  1 18  1  0
  1 19  1  0
  2 20  1  0
  2 21  1  0
  3 22  1  1
  4 23  1  0
  4 24  1  0
  8 25  1  0
  8 26  1  0
  8 27  1  0
  9 28  1  0
  9 29  1  0
  9 30  1  0
 10 31  1  0
 11 32  1  0
 11 33  1  0
 11 34  1  0
 12 35  1  0
 12 36  1  0
 13 37  1  0
 13 38  1  0
M  END
> <Uni-Dock RESULT> 
ENERGY=   -3.569  LOWER_BOUND=    4.835  UPPER_BOUND=    6.500
INTER + INTRA:          -3.569
INTER:                  -3.569
INTRA:                   0.000
UNBOUND:                 0.000

$$$$
