
     RDKit          3D

 38 36  0  0  0  0  0  0  0  0999 V2000
   44.8941    6.0024   11.1309 C   0  0  0  0  0  0  0  0  0  0  0  0
   43.9583    4.8510   11.4662 C   0  0  0  0  0  0  0  0  0  0  0  0
   44.4867    3.4549   11.0746 C   0  0  2  0  0  0  0  0  0  0  0  0
   44.6673    3.2769    9.5577 C   0  0  0  0  0  0  0  0  0  0  0  0
   45.8244    3.9871    9.1245 O   0  0  0  0  0  0  0  0  0  0  0  0
   45.9583    3.8327    7.7085 N   0  0  0  0  0  0  0  0  0  0  0  0
   46.9434    4.4483    7.2908 O   0  0  0  0  0  0  0  0  0  0  0  0
   43.5224    2.3886   11.6038 C   0  0  0  0  0  0  0  0  0  0  0  0
   43.2870    5.5519   11.9677 C   0  0  0  0  0  0  0  0  0  0  0  0
   44.3374    4.7894   11.1545 C   0  0  0  0  0  0  0  0  0  0  0  0
   44.7203    3.5050   11.8895 C   0  0  0  0  0  0  0  0  0  0  0  0
   43.8054    4.5408    9.7279 C   0  0  0  0  0  0  0  0  0  0  0  0
   44.8190    3.9039    8.7759 C   0  0  0  0  0  0  0  0  0  0  0  0
   44.9099    2.5068    9.0357 O   0  0  0  0  0  0  0  0  0  0  0  0
   45.8732    1.9340    8.1470 N   0  0  0  0  0  0  0  0  0  0  0  0
   45.9933    0.7224    8.3510 O   0  0  0  0  0  0  0  0  0  0  0  0
   44.5262    6.9272   11.5876 H   0  0  0  0  0  0  0  0  0  0  0  0
   44.9486    6.1746   10.0525 H   0  0  0  0  0  0  0  0  0  0  0  0
   45.9033    5.8165   11.5111 H   0  0  0  0  0  0  0  0  0  0  0  0
   42.9865    5.0313   10.9902 H   0  0  0  0  0  0  0  0  0  0  0  0
   43.7821    4.8685   12.5494 H   0  0  0  0  0  0  0  0  0  0  0  0
   45.4592    3.3118   11.5637 H   0  0  0  0  0  0  0  0  0  0  0  0
   43.7782    3.6389    9.0250 H   0  0  0  0  0  0  0  0  0  0  0  0
   44.8054    2.2131    9.3244 H   0  0  0  0  0  0  0  0  0  0  0  0
   43.4019    2.4746   12.6889 H   0  0  0  0  0  0  0  0  0  0  0  0
   42.5332    2.4838   11.1432 H   0  0  0  0  0  0  0  0  0  0  0  0
   43.9000    1.3824   11.3923 H   0  0  0  0  0  0  0  0  0  0  0  0
   42.3677    4.9666   12.0773 H   0  0  0  0  0  0  0  0  0  0  0  0
   43.6628    5.7841   12.9700 H   0  0  0  0  0  0  0  0  0  0  0  0
   43.0305    6.4996   11.4824 H   0  0  0  0  0  0  0  0  0  0  0  0
   45.2310    5.4229   11.0880 H   0  0  0  0  0  0  0  0  0  0  0  0
   44.9860    3.7171   12.9310 H   0  0  0  0  0  0  0  0  0  0  0  0
   43.8940    2.7863   11.8922 H   0  0  0  0  0  0  0  0  0  0  0  0
   45.5914    3.0290   11.4301 H   0  0  0  0  0  0  0  0  0  0  0  0
   43.5070    5.5070    9.3019 H   0  0  0  0  0  0  0  0  0  0  0  0
   42.9057    3.9146    9.7781 H   0  0  0  0  0  0  0  0  0  0  0  0
   44.4712    4.0494    7.7453 H   0  0  0  0  0  0  0  0  0  0  0  0
   45.8002    4.3820    8.8870 H   0  0  0  0  0  0  0  0  0  0  0  0
  1  2  1  0
  2  3  1  0
  3  4  1  0
  4  5  1  0
  5  6  1  0
  6  7  2  0
  3  8  1  0
  9 10  1  0
 10 11  1  0
 10 12  1  0
 12 13  1  0
 13 14  1  0
 14 15  1  0
 15 16  2  0
  1 17  1  0
  1 18  1  0
  1 19  1  0
  2 20  1  0
  2 21  1  0
  3 22  1  6
  4 23  1  0
  4 24  1  0
  8 25  1  0
  8 26  1  0
  8 27  1  0
  9 28  1  0
  9 29  1  0
  9 30  1  0
 10 31  1  0
 11 32  1  0
 11 33  1  0
 11 34  1  0
 12 35  1  0
 12 36  1  0
 13 37  1  0
 13 38  1  0
M  END
> <Uni-Dock RESULT> 
ENERGY=   -5.121  LOWER_BOUND=    0.000  UPPER_BOUND=    0.000
INTER + INTRA:          -5.121
INTER:                  -5.121
INTRA:                   0.000
UNBOUND:                 0.000

$$$$

     RDKit          3D

 38 36  0  0  0  0  0  0  0  0999 V2000
   45.1334    3.1091   11.1592 C   0  0  0  0  0  0  0  0  0  0  0  0
   43.8077    3.7348   11.5652 C   0  0  0  0  0  0  0  0  0  0  0  0
   43.8092    5.2773   11.6105 C   0  0  2  0  0  0  0  0  0  0  0  0
   44.7624    5.8534   12.6711 C   0  0  0  0  0  0  0  0  0  0  0  0
   46.1101    5.7287   12.2249 O   0  0  0  0  0  0  0  0  0  0  0  0
   46.9812    6.2433   13.2364 N   0  0  0  0  0  0  0  0  0  0  0  0
   48.1625    6.1386   12.8935 O   0  0  0  0  0  0  0  0  0  0  0  0
   42.3844    5.7712   11.8807 C   0  0  0  0  0  0  0  0  0  0  0  0
   43.3484    2.7435   11.5670 C   0  0  0  0  0  0  0  0  0  0  0  0
   44.2258    3.9991   11.5666 C   0  0  0  0  0  0  0  0  0  0  0  0
   43.5029    5.1283   10.8326 C   0  0  0  0  0  0  0  0  0  0  0  0
   44.6100    4.3611   13.0162 C   0  0  0  0  0  0  0  0  0  0  0  0
   45.5984    5.5218   13.1385 C   0  0  0  0  0  0  0  0  0  0  0  0
   44.9126    6.7572   12.9623 O   0  0  0  0  0  0  0  0  0  0  0  0
   45.8562    7.8274   13.0644 N   0  0  0  0  0  0  0  0  0  0  0  0
   45.3022    8.9186   12.9016 O   0  0  0  0  0  0  0  0  0  0  0  0
   45.0025    2.0352   10.9890 H   0  0  0  0  0  0  0  0  0  0  0  0
   45.8875    3.2220   11.9429 H   0  0  0  0  0  0  0  0  0  0  0  0
   45.5147    3.5533   10.2346 H   0  0  0  0  0  0  0  0  0  0  0  0
   43.5067    3.3312   12.5399 H   0  0  0  0  0  0  0  0  0  0  0  0
   43.0484    3.4055   10.8443 H   0  0  0  0  0  0  0  0  0  0  0  0
   44.1186    5.6445   10.6231 H   0  0  0  0  0  0  0  0  0  0  0  0
   44.6286    5.3285   13.6260 H   0  0  0  0  0  0  0  0  0  0  0  0
   44.5445    6.9184   12.8242 H   0  0  0  0  0  0  0  0  0  0  0  0
   41.6909    5.3996   11.1188 H   0  0  0  0  0  0  0  0  0  0  0  0
   42.0262    5.4347   12.8596 H   0  0  0  0  0  0  0  0  0  0  0  0
   42.3410    6.8654   11.8610 H   0  0  0  0  0  0  0  0  0  0  0  0
   42.4088    2.9157   12.1029 H   0  0  0  0  0  0  0  0  0  0  0  0
   43.1044    2.4380   10.5440 H   0  0  0  0  0  0  0  0  0  0  0  0
   43.8655    1.9066   12.0482 H   0  0  0  0  0  0  0  0  0  0  0  0
   45.1427    3.7641   11.0111 H   0  0  0  0  0  0  0  0  0  0  0  0
   43.1519    4.7921    9.8507 H   0  0  0  0  0  0  0  0  0  0  0  0
   42.6339    5.4792   11.3991 H   0  0  0  0  0  0  0  0  0  0  0  0
   44.1684    5.9786   10.6579 H   0  0  0  0  0  0  0  0  0  0  0  0
   45.0710    3.4786   13.4775 H   0  0  0  0  0  0  0  0  0  0  0  0
   43.7018    4.5909   13.5876 H   0  0  0  0  0  0  0  0  0  0  0  0
   46.0387    5.5027   14.1435 H   0  0  0  0  0  0  0  0  0  0  0  0
   46.4030    5.4179   12.3998 H   0  0  0  0  0  0  0  0  0  0  0  0
  1  2  1  0
  2  3  1  0
  3  4  1  0
  4  5  1  0
  5  6  1  0
  6  7  2  0
  3  8  1  0
  9 10  1  0
 10 11  1  0
 10 12  1  0
 12 13  1  0
 13 14  1  0
 14 15  1  0
 15 16  2  0
  1 17  1  0
  1 18  1  0
  1 19  1  0
  2 20  1  0
  2 21  1  0
  3 22  1  6
  4 23  1  0
  4 24  1  0
  8 25  1  0
  8 26  1  0
  8 27  1  0
  9 28  1  0
  9 29  1  0
  9 30  1  0
 10 31  1  0
 11 32  1  0
 11 33  1  0
 11 34  1  0
 12 35  1  0
 12 36  1  0
 13 37  1  0
 13 38  1  0
M  END
> <Uni-Dock RESULT> 
ENERGY=   -4.319  LOWER_BOUND=    3.537  UPPER_BOUND=    4.726
INTER + INTRA:          -4.319
INTER:                  -4.319
INTRA:                   0.000
UNBOUND:                 0.000

$$$$

     RDKit          3D

 38 36  0  0  0  0  0  0  0  0999 V2000
   42.6204    5.7082   11.7794 C   0  0  0  0  0  0  0  0  0  0  0  0
   43.8230    4.7877   11.9212 C   0  0  0  0  0  0  0  0  0  0  0  0
   44.8891    5.2692   12.9277 C   0  0  2  0  0  0  0  0  0  0  0  0
   45.5573    6.5927   12.5187 C   0  0  0  0  0  0  0  0  0  0  0  0
   44.6582    7.6752   12.7440 O   0  0  0  0  0  0  0  0  0  0  0  0
   45.2872    8.8920   12.3309 N   0  0  0  0  0  0  0  0  0  0  0  0
   44.5321    9.8546   12.4959 O   0  0  0  0  0  0  0  0  0  0  0  0
   45.9580    4.1827   13.0824 C   0  0  0  0  0  0  0  0  0  0  0  0
   43.3399    4.0659   11.2585 C   0  0  0  0  0  0  0  0  0  0  0  0
   43.8351    5.2517   12.0922 C   0  0  0  0  0  0  0  0  0  0  0  0
   44.4265    4.7419   13.4062 C   0  0  0  0  0  0  0  0  0  0  0  0
   44.8284    6.0890   11.2600 C   0  0  0  0  0  0  0  0  0  0  0  0
   45.2919    7.3795   11.9375 C   0  0  0  0  0  0  0  0  0  0  0  0
   46.2873    7.0803   12.9107 O   0  0  0  0  0  0  0  0  0  0  0  0
   46.6951    8.2970   13.5427 N   0  0  0  0  0  0  0  0  0  0  0  0
   47.5492    8.0783   14.4069 O   0  0  0  0  0  0  0  0  0  0  0  0
   41.8437    5.2179   11.1830 H   0  0  0  0  0  0  0  0  0  0  0  0
   42.8837    6.6367   11.2655 H   0  0  0  0  0  0  0  0  0  0  0  0
   42.1916    5.9535   12.7559 H   0  0  0  0  0  0  0  0  0  0  0  0
   44.2783    4.6413   10.9339 H   0  0  0  0  0  0  0  0  0  0  0  0
   43.4552    3.8049   12.2429 H   0  0  0  0  0  0  0  0  0  0  0  0
   44.3981    5.4090   13.8998 H   0  0  0  0  0  0  0  0  0  0  0  0
   45.8520    6.5577   11.4616 H   0  0  0  0  0  0  0  0  0  0  0  0
   46.4566    6.7560   13.1268 H   0  0  0  0  0  0  0  0  0  0  0  0
   45.5098    3.2368   13.4048 H   0  0  0  0  0  0  0  0  0  0  0  0
   46.4838    4.0054   12.1380 H   0  0  0  0  0  0  0  0  0  0  0  0
   46.6997    4.4702   13.8353 H   0  0  0  0  0  0  0  0  0  0  0  0
   44.1642    3.3953   10.9928 H   0  0  0  0  0  0  0  0  0  0  0  0
   42.5945    3.4846   11.8115 H   0  0  0  0  0  0  0  0  0  0  0  0
   42.8700    4.4104   10.3311 H   0  0  0  0  0  0  0  0  0  0  0  0
   42.9654    5.8773   12.3302 H   0  0  0  0  0  0  0  0  0  0  0  0
   43.7287    4.0639   13.9099 H   0  0  0  0  0  0  0  0  0  0  0  0
   45.3620    4.1982   13.2374 H   0  0  0  0  0  0  0  0  0  0  0  0
   44.6248    5.5652   14.0985 H   0  0  0  0  0  0  0  0  0  0  0  0
   44.3377    6.3630   10.3176 H   0  0  0  0  0  0  0  0  0  0  0  0
   45.7010    5.4739   11.0066 H   0  0  0  0  0  0  0  0  0  0  0  0
   45.7293    8.0375   11.1759 H   0  0  0  0  0  0  0  0  0  0  0  0
   44.4411    7.8946   12.4009 H   0  0  0  0  0  0  0  0  0  0  0  0
  1  2  1  0
  2  3  1  0
  3  4  1  0
  4  5  1  0
  5  6  1  0
  6  7  2  0
  3  8  1  0
  9 10  1  0
 10 11  1  0
 10 12  1  0
 12 13  1  0
 13 14  1  0
 14 15  1  0
 15 16  2  0
  1 17  1  0
  1 18  1  0
  1 19  1  0
  2 20  1  0
  2 21  1  0
  3 22  1  6
  4 23  1  0
  4 24  1  0
  8 25  1  0
  8 26  1  0
  8 27  1  0
  9 28  1  0
  9 29  1  0
  9 30  1  0
 10 31  1  0
 11 32  1  0
 11 33  1  0
 11 34  1  0
 12 35  1  0
 12 36  1  0
 13 37  1  0
 13 38  1  0
M  END
> <Uni-Dock RESULT> 
ENERGY=   -3.960  LOWER_BOUND=    4.337  UPPER_BOUND=    5.121
INTER + INTRA:          -3.960
INTER:                  -3.960
INTRA:                   0.000
UNBOUND:                 0.000

$$$$

     RDKit          3D

 38 36  0  0  0  0  0  0  0  0999 V2000
   48.7149    7.1062   12.9326 C   0  0  0  0  0  0  0  0  0  0  0  0
   47.7051    8.1231   12.4228 C   0  0  0  0  0  0  0  0  0  0  0  0
   46.2569    7.8910   12.9026 C   0  0  2  0  0  0  0  0  0  0  0  0
   45.6524    6.5713   12.3943 C   0  0  0  0  0  0  0  0  0  0  0  0
   46.2121    5.4767   13.1153 O   0  0  0  0  0  0  0  0  0  0  0  0
   45.6590    4.2585   12.6086 N   0  0  0  0  0  0  0  0  0  0  0  0
   46.1320    3.2827   13.1986 O   0  0  0  0  0  0  0  0  0  0  0  0
   45.3840    9.0637   12.4445 C   0  0  0  0  0  0  0  0  0  0  0  0
   48.5184    8.6903   11.9642 C   0  0  0  0  0  0  0  0  0  0  0  0
   47.5579    7.6952   12.6225 C   0  0  0  0  0  0  0  0  0  0  0  0
   46.5389    8.4537   13.4726 C   0  0  0  0  0  0  0  0  0  0  0  0
   46.9096    6.8090   11.5388 C   0  0  0  0  0  0  0  0  0  0  0  0
   46.0297    5.6832   12.0841 C   0  0  0  0  0  0  0  0  0  0  0  0
   44.7657    6.2087   12.4764 O   0  0  0  0  0  0  0  0  0  0  0  0
   43.9651    5.1440   12.9975 N   0  0  0  0  0  0  0  0  0  0  0  0
   42.8630    5.5622   13.3644 O   0  0  0  0  0  0  0  0  0  0  0  0
   49.7307    7.4347   12.6891 H   0  0  0  0  0  0  0  0  0  0  0  0
   48.5712    6.1283   12.4649 H   0  0  0  0  0  0  0  0  0  0  0  0
   48.6484    6.9919   14.0190 H   0  0  0  0  0  0  0  0  0  0  0  0
   47.7389    8.1402   11.3265 H   0  0  0  0  0  0  0  0  0  0  0  0
   48.0316    9.1155   12.7596 H   0  0  0  0  0  0  0  0  0  0  0  0
   46.2625    7.8753   14.0005 H   0  0  0  0  0  0  0  0  0  0  0  0
   45.8442    6.4556   11.3195 H   0  0  0  0  0  0  0  0  0  0  0  0
   44.5667    6.5753   12.5571 H   0  0  0  0  0  0  0  0  0  0  0  0
   45.7769   10.0139   12.8215 H   0  0  0  0  0  0  0  0  0  0  0  0
   45.3406    9.1233   11.3516 H   0  0  0  0  0  0  0  0  0  0  0  0
   44.3605    8.9574   12.8197 H   0  0  0  0  0  0  0  0  0  0  0  0
   47.9865    9.3675   11.2873 H   0  0  0  0  0  0  0  0  0  0  0  0
   49.0289    9.2974   12.7193 H   0  0  0  0  0  0  0  0  0  0  0  0
   49.2867    8.1662   11.3857 H   0  0  0  0  0  0  0  0  0  0  0  0
   48.1484    7.0545   13.2898 H   0  0  0  0  0  0  0  0  0  0  0  0
   47.0411    9.1514   14.1518 H   0  0  0  0  0  0  0  0  0  0  0  0
   45.8487    9.0299   12.8474 H   0  0  0  0  0  0  0  0  0  0  0  0
   45.9537    7.7705   14.0950 H   0  0  0  0  0  0  0  0  0  0  0  0
   47.7126    6.3503   10.9480 H   0  0  0  0  0  0  0  0  0  0  0  0
   46.3216    7.4371   10.8578 H   0  0  0  0  0  0  0  0  0  0  0  0
   45.8730    4.9441   11.2881 H   0  0  0  0  0  0  0  0  0  0  0  0
   46.5223    5.1892   12.9308 H   0  0  0  0  0  0  0  0  0  0  0  0
  1  2  1  0
  2  3  1  0
  3  4  1  0
  4  5  1  0
  5  6  1  0
  6  7  2  0
  3  8  1  0
  9 10  1  0
 10 11  1  0
 10 12  1  0
 12 13  1  0
 13 14  1  0
 14 15  1  0
 15 16  2  0
  1 17  1  0
  1 18  1  0
  1 19  1  0
  2 20  1  0
  2 21  1  0
  3 22  1  6
  4 23  1  0
  4 24  1  0
  8 25  1  0
  8 26  1  0
  8 27  1  0
  9 28  1  0
  9 29  1  0
  9 30  1  0
 10 31  1  0
 11 32  1  0
 11 33  1  0
 11 34  1  0
 12 35  1  0
 12 36  1  0
 13 37  1  0
 13 38  1  0
M  END
> <Uni-Dock RESULT> 
ENERGY=   -3.908  LOWER_BOUND=    3.954  UPPER_BOUND=    5.376
INTER + INTRA:          -3.908
INTER:                  -3.908
INTRA:                   0.000
UNBOUND:                 0.000

$$$$

     RDKit          3D

 38 36  0  0  0  0  0  0  0  0999 V2000
   47.0368    3.1196   17.7573 C   0  0  0  0  0  0  0  0  0  0  0  0
   48.3893    3.4982   17.1734 C   0  0  0  0  0  0  0  0  0  0  0  0
   49.5561    3.4805   18.1833 C   0  0  2  0  0  0  0  0  0  0  0  0
   49.4020    4.5178   19.3083 C   0  0  0  0  0  0  0  0  0  0  0  0
   48.4125    4.0787   20.2352 O   0  0  0  0  0  0  0  0  0  0  0  0
   48.2641    5.0693   21.2566 N   0  0  0  0  0  0  0  0  0  0  0  0
   47.4018    4.7323   22.0732 O   0  0  0  0  0  0  0  0  0  0  0  0
   50.8695    3.7287   17.4347 C   0  0  0  0  0  0  0  0  0  0  0  0
   47.9402    3.5399   16.1784 C   0  0  0  0  0  0  0  0  0  0  0  0
   48.3159    3.4893   17.6625 C   0  0  0  0  0  0  0  0  0  0  0  0
   49.6190    2.7090   17.8341 C   0  0  0  0  0  0  0  0  0  0  0  0
   48.3843    4.9234   18.2271 C   0  0  0  0  0  0  0  0  0  0  0  0
   48.6195    4.9993   19.7364 C   0  0  0  0  0  0  0  0  0  0  0  0
   49.9964    4.7721   20.0199 O   0  0  0  0  0  0  0  0  0  0  0  0
   50.1918    4.8315   21.4356 N   0  0  0  0  0  0  0  0  0  0  0  0
   51.3738    4.6238   21.7251 O   0  0  0  0  0  0  0  0  0  0  0  0
   46.3051    2.9932   16.9524 H   0  0  0  0  0  0  0  0  0  0  0  0
   46.6539    3.8989   18.4219 H   0  0  0  0  0  0  0  0  0  0  0  0
   47.0941    2.1781   18.3122 H   0  0  0  0  0  0  0  0  0  0  0  0
   48.3118    4.4882   16.7071 H   0  0  0  0  0  0  0  0  0  0  0  0
   48.6140    2.7905   16.3651 H   0  0  0  0  0  0  0  0  0  0  0  0
   49.6002    2.4793   18.6318 H   0  0  0  0  0  0  0  0  0  0  0  0
   49.1228    5.4933   18.8888 H   0  0  0  0  0  0  0  0  0  0  0  0
   50.3544    4.6272   19.8431 H   0  0  0  0  0  0  0  0  0  0  0  0
   51.0178    2.9818   16.6476 H   0  0  0  0  0  0  0  0  0  0  0  0
   50.8801    4.7202   16.9692 H   0  0  0  0  0  0  0  0  0  0  0  0
   51.7245    3.6644   18.1162 H   0  0  0  0  0  0  0  0  0  0  0  0
   48.7016    4.0673   15.5936 H   0  0  0  0  0  0  0  0  0  0  0  0
   47.8364    2.5299   15.7677 H   0  0  0  0  0  0  0  0  0  0  0  0
   46.9846    4.0555   16.0353 H   0  0  0  0  0  0  0  0  0  0  0  0
   47.5213    2.9449   18.1884 H   0  0  0  0  0  0  0  0  0  0  0  0
   49.5633    1.7413   17.3236 H   0  0  0  0  0  0  0  0  0  0  0  0
   50.4704    3.2597   17.4204 H   0  0  0  0  0  0  0  0  0  0  0  0
   49.8213    2.5006   18.8887 H   0  0  0  0  0  0  0  0  0  0  0  0
   47.4303    5.4208   18.0113 H   0  0  0  0  0  0  0  0  0  0  0  0
   49.1698    5.4838   17.7047 H   0  0  0  0  0  0  0  0  0  0  0  0
   48.3490    6.0048   20.0830 H   0  0  0  0  0  0  0  0  0  0  0  0
   47.9916    4.2665   20.2583 H   0  0  0  0  0  0  0  0  0  0  0  0
  1  2  1  0
  2  3  1  0
  3  4  1  0
  4  5  1  0
  5  6  1  0
  6  7  2  0
  3  8  1  0
  9 10  1  0
 10 11  1  0
 10 12  1  0
 12 13  1  0
 13 14  1  0
 14 15  1  0
 15 16  2  0
  1 17  1  0
  1 18  1  0
  1 19  1  0
  2 20  1  0
  2 21  1  0
  3 22  1  6
  4 23  1  0
  4 24  1  0
  8 25  1  0
  8 26  1  0
  8 27  1  0
  9 28  1  0
  9 29  1  0
  9 30  1  0
 10 31  1  0
 11 32  1  0
 11 33  1  0
 11 34  1  0
 12 35  1  0
 12 36  1  0
 13 37  1  0
 13 38  1  0
M  END
> <Uni-Dock RESULT> 
ENERGY=   -3.658  LOWER_BOUND=    9.935  UPPER_BOUND=   10.914
INTER + INTRA:          -3.658
INTER:                  -3.658
INTRA:                   0.000
UNBOUND:                 0.000

$$$$

     RDKit          3D

 38 36  0  0  0  0  0  0  0  0999 V2000
   48.3720    7.5893   12.0438 C   0  0  0  0  0  0  0  0  0  0  0  0
   47.2010    6.8127   12.6264 C   0  0  0  0  0  0  0  0  0  0  0  0
   45.8178    7.2240   12.0795 C   0  0  2  0  0  0  0  0  0  0  0  0
   45.4333    8.6722   12.4260 C   0  0  0  0  0  0  0  0  0  0  0  0
   46.1762    9.5752   11.6112 O   0  0  0  0  0  0  0  0  0  0  0  0
   45.8256   10.9154   11.9684 N   0  0  0  0  0  0  0  0  0  0  0  0
   46.4615   11.7304   11.2936 O   0  0  0  0  0  0  0  0  0  0  0  0
   44.7567    6.2667   12.6316 C   0  0  0  0  0  0  0  0  0  0  0  0
   47.9029    6.1743   13.1678 C   0  0  0  0  0  0  0  0  0  0  0  0
   47.1294    7.2344   12.3780 C   0  0  0  0  0  0  0  0  0  0  0  0
   46.0104    6.5638   11.5814 C   0  0  0  0  0  0  0  0  0  0  0  0
   46.6222    8.3278   13.3410 C   0  0  0  0  0  0  0  0  0  0  0  0
   45.9482    9.5155   12.6522 C   0  0  0  0  0  0  0  0  0  0  0  0
   44.6201    9.1634   12.2782 O   0  0  0  0  0  0  0  0  0  0  0  0
   44.0139   10.2808   11.6225 N   0  0  0  0  0  0  0  0  0  0  0  0
   42.8628   10.0104   11.2675 O   0  0  0  0  0  0  0  0  0  0  0  0
   49.3160    7.1281   12.3525 H   0  0  0  0  0  0  0  0  0  0  0  0
   48.3858    8.6228   12.4007 H   0  0  0  0  0  0  0  0  0  0  0  0
   48.3401    7.5931   10.9499 H   0  0  0  0  0  0  0  0  0  0  0  0
   47.2166    6.9106   13.7189 H   0  0  0  0  0  0  0  0  0  0  0  0
   47.3632    5.7496   12.4070 H   0  0  0  0  0  0  0  0  0  0  0  0
   45.8408    7.1181   10.9869 H   0  0  0  0  0  0  0  0  0  0  0  0
   45.6271    8.8721   13.4880 H   0  0  0  0  0  0  0  0  0  0  0  0
   44.3643    8.8276   12.2306 H   0  0  0  0  0  0  0  0  0  0  0  0
   44.9920    5.2297   12.3698 H   0  0  0  0  0  0  0  0  0  0  0  0
   44.6893    6.3351   13.7227 H   0  0  0  0  0  0  0  0  0  0  0  0
   43.7701    6.4967   12.2153 H   0  0  0  0  0  0  0  0  0  0  0  0
   47.2571    5.6712   13.8955 H   0  0  0  0  0  0  0  0  0  0  0  0
   48.3160    5.4129   12.4976 H   0  0  0  0  0  0  0  0  0  0  0  0
   48.7395    6.6261   13.7114 H   0  0  0  0  0  0  0  0  0  0  0  0
   47.8267    7.6932   11.6656 H   0  0  0  0  0  0  0  0  0  0  0  0
   46.3993    5.7233   10.9960 H   0  0  0  0  0  0  0  0  0  0  0  0
   45.2260    6.1799   12.2422 H   0  0  0  0  0  0  0  0  0  0  0  0
   45.5549    7.2609   10.8721 H   0  0  0  0  0  0  0  0  0  0  0  0
   47.4819    8.7114   13.9048 H   0  0  0  0  0  0  0  0  0  0  0  0
   45.9291    7.8825   14.0658 H   0  0  0  0  0  0  0  0  0  0  0  0
   45.9052   10.3530   13.3602 H   0  0  0  0  0  0  0  0  0  0  0  0
   46.5272    9.8267   11.7738 H   0  0  0  0  0  0  0  0  0  0  0  0
  1  2  1  0
  2  3  1  0
  3  4  1  0
  4  5  1  0
  5  6  1  0
  6  7  2  0
  3  8  1  0
  9 10  1  0
 10 11  1  0
 10 12  1  0
 12 13  1  0
 13 14  1  0
 14 15  1  0
 15 16  2  0
  1 17  1  0
  1 18  1  0
  1 19  1  0
  2 20  1  0
  2 21  1  0
  3 22  1  6
  4 23  1  0
  4 24  1  0
  8 25  1  0
  8 26  1  0
  8 27  1  0
  9 28  1  0
  9 29  1  0
  9 30  1  0
 10 31  1  0
 11 32  1  0
 11 33  1  0
 11 34  1  0
 12 35  1  0
 12 36  1  0
 13 37  1  0
 13 38  1  0
M  END
> <Uni-Dock RESULT> 
ENERGY=   -3.621  LOWER_BOUND=    5.405  UPPER_BOUND=    6.404
INTER + INTRA:          -3.621
INTER:                  -3.621
INTRA:                   0.000
UNBOUND:                 0.000

$$$$

     RDKit          3D

 38 36  0  0  0  0  0  0  0  0999 V2000
   47.1820    9.0061   19.7126 C   0  0  0  0  0  0  0  0  0  0  0  0
   47.2066   10.2842   20.5370 C   0  0  0  0  0  0  0  0  0  0  0  0
   46.8503   11.5648   19.7530 C   0  0  2  0  0  0  0  0  0  0  0  0
   47.8570   11.8947   18.6381 C   0  0  0  0  0  0  0  0  0  0  0  0
   47.6676   11.0057   17.5405 O   0  0  0  0  0  0  0  0  0  0  0  0
   48.6310   11.3102   16.5276 N   0  0  0  0  0  0  0  0  0  0  0  0
   48.5098   10.5491   15.5633 O   0  0  0  0  0  0  0  0  0  0  0  0
   46.7645   12.7418   20.7298 C   0  0  0  0  0  0  0  0  0  0  0  0
   47.3956    9.6925   21.4357 C   0  0  0  0  0  0  0  0  0  0  0  0
   47.2026   10.2993   20.0426 C   0  0  0  0  0  0  0  0  0  0  0  0
   46.1005   11.3572   20.0934 C   0  0  0  0  0  0  0  0  0  0  0  0
   48.5498   10.8457   19.5262 C   0  0  0  0  0  0  0  0  0  0  0  0
   48.5153   11.3576   18.0854 C   0  0  0  0  0  0  0  0  0  0  0  0
   47.9234   12.6522   18.0497 O   0  0  0  0  0  0  0  0  0  0  0  0
   47.8863   13.1053   16.6935 N   0  0  0  0  0  0  0  0  0  0  0  0
   47.3645   14.2215   16.6173 O   0  0  0  0  0  0  0  0  0  0  0  0
   47.2780    8.1359   20.3705 H   0  0  0  0  0  0  0  0  0  0  0  0
   48.0144    8.9688   19.0046 H   0  0  0  0  0  0  0  0  0  0  0  0
   46.2426    8.9091   19.1597 H   0  0  0  0  0  0  0  0  0  0  0  0
   48.1953   10.3907   21.0001 H   0  0  0  0  0  0  0  0  0  0  0  0
   46.4893   10.1650   21.3592 H   0  0  0  0  0  0  0  0  0  0  0  0
   45.8601   11.4205   19.3012 H   0  0  0  0  0  0  0  0  0  0  0  0
   48.8837   11.8147   19.0186 H   0  0  0  0  0  0  0  0  0  0  0  0
   47.6942   12.9215   18.2852 H   0  0  0  0  0  0  0  0  0  0  0  0
   46.0290   12.5437   21.5168 H   0  0  0  0  0  0  0  0  0  0  0  0
   47.7313   12.9324   21.2081 H   0  0  0  0  0  0  0  0  0  0  0  0
   46.4557   13.6562   20.2120 H   0  0  0  0  0  0  0  0  0  0  0  0
   47.7200   10.4499   22.1575 H   0  0  0  0  0  0  0  0  0  0  0  0
   46.4619    9.2527   21.8023 H   0  0  0  0  0  0  0  0  0  0  0  0
   48.1497    8.8987   21.4143 H   0  0  0  0  0  0  0  0  0  0  0  0
   46.8723    9.4955   19.3724 H   0  0  0  0  0  0  0  0  0  0  0  0
   45.1979   10.9564   20.5675 H   0  0  0  0  0  0  0  0  0  0  0  0
   46.4185   12.2365   20.6636 H   0  0  0  0  0  0  0  0  0  0  0  0
   45.8143   11.6813   19.0887 H   0  0  0  0  0  0  0  0  0  0  0  0
   49.2882   10.0356   19.5763 H   0  0  0  0  0  0  0  0  0  0  0  0
   48.8979   11.6459   20.1916 H   0  0  0  0  0  0  0  0  0  0  0  0
   49.5456   11.4302   17.7145 H   0  0  0  0  0  0  0  0  0  0  0  0
   47.9593   10.6609   17.4457 H   0  0  0  0  0  0  0  0  0  0  0  0
  1  2  1  0
  2  3  1  0
  3  4  1  0
  4  5  1  0
  5  6  1  0
  6  7  2  0
  3  8  1  0
  9 10  1  0
 10 11  1  0
 10 12  1  0
 12 13  1  0
 13 14  1  0
 14 15  1  0
 15 16  2  0
  1 17  1  0
  1 18  1  0
  1 19  1  0
  2 20  1  0
  2 21  1  0
  3 22  1  6
  4 23  1  0
  4 24  1  0
  8 25  1  0
  8 26  1  0
  8 27  1  0
  9 28  1  0
  9 29  1  0
  9 30  1  0
 10 31  1  0
 11 32  1  0
 11 33  1  0
 11 34  1  0
 12 35  1  0
 12 36  1  0
 13 37  1  0
 13 38  1  0
M  END
> <Uni-Dock RESULT> 
ENERGY=   -3.479  LOWER_BOUND=   10.979  UPPER_BOUND=   12.327
INTER + INTRA:          -3.479
INTER:                  -3.479
INTRA:                   0.000
UNBOUND:                 0.000

$$$$

     RDKit          3D

 38 36  0  0  0  0  0  0  0  0999 V2000
   46.8414   12.3337   20.5001 C   0  0  0  0  0  0  0  0  0  0  0  0
   47.6748   13.0822   19.4711 C   0  0  0  0  0  0  0  0  0  0  0  0
   47.5815   12.5239   18.0354 C   0  0  2  0  0  0  0  0  0  0  0  0
   48.1335   11.0947   17.9021 C   0  0  0  0  0  0  0  0  0  0  0  0
   47.2111   10.1680   18.4690 O   0  0  0  0  0  0  0  0  0  0  0  0
   47.7554    8.8493   18.3608 N   0  0  0  0  0  0  0  0  0  0  0  0
   46.9907    8.0166   18.8565 O   0  0  0  0  0  0  0  0  0  0  0  0
   48.3403   13.4563   17.0858 C   0  0  0  0  0  0  0  0  0  0  0  0
   47.9412   13.8186   20.2328 C   0  0  0  0  0  0  0  0  0  0  0  0
   47.4904   12.6338   19.3730 C   0  0  0  0  0  0  0  0  0  0  0  0
   47.0001   13.1426   18.0176 C   0  0  0  0  0  0  0  0  0  0  0  0
   48.6392   11.6101   19.2614 C   0  0  0  0  0  0  0  0  0  0  0  0
   48.2660   10.3158   18.5370 C   0  0  0  0  0  0  0  0  0  0  0  0
   48.2636   10.5364   17.1302 O   0  0  0  0  0  0  0  0  0  0  0  0
   47.8972    9.3198   16.4732 N   0  0  0  0  0  0  0  0  0  0  0  0
   47.8684    9.4733   15.2486 O   0  0  0  0  0  0  0  0  0  0  0  0
   46.8297   12.8874   21.4448 H   0  0  0  0  0  0  0  0  0  0  0  0
   47.2572   11.3446   20.7110 H   0  0  0  0  0  0  0  0  0  0  0  0
   45.8064   12.2181   20.1638 H   0  0  0  0  0  0  0  0  0  0  0  0
   48.7209   13.0957   19.8011 H   0  0  0  0  0  0  0  0  0  0  0  0
   47.3374   14.1267   19.4641 H   0  0  0  0  0  0  0  0  0  0  0  0
   46.5236   12.5211   17.7415 H   0  0  0  0  0  0  0  0  0  0  0  0
   49.1071   11.0160   18.4034 H   0  0  0  0  0  0  0  0  0  0  0  0
   48.2660   10.8472   16.8407 H   0  0  0  0  0  0  0  0  0  0  0  0
   47.9435   14.4757   17.1391 H   0  0  0  0  0  0  0  0  0  0  0  0
   49.4067   13.4932   17.3332 H   0  0  0  0  0  0  0  0  0  0  0  0
   48.2439   13.1183   16.0484 H   0  0  0  0  0  0  0  0  0  0  0  0
   48.7831   14.3464   19.7720 H   0  0  0  0  0  0  0  0  0  0  0  0
   47.1244   14.5356   20.3679 H   0  0  0  0  0  0  0  0  0  0  0  0
   48.2544   13.4821   21.2269 H   0  0  0  0  0  0  0  0  0  0  0  0
   46.6449   12.1551   19.8832 H   0  0  0  0  0  0  0  0  0  0  0  0
   46.2652   13.9449   18.1457 H   0  0  0  0  0  0  0  0  0  0  0  0
   47.8270   13.5358   17.4169 H   0  0  0  0  0  0  0  0  0  0  0  0
   46.5071   12.3482   17.4497 H   0  0  0  0  0  0  0  0  0  0  0  0
   48.9598   11.3451   20.2768 H   0  0  0  0  0  0  0  0  0  0  0  0
   49.4964   12.0770   18.7601 H   0  0  0  0  0  0  0  0  0  0  0  0
   49.0183    9.5525   18.7733 H   0  0  0  0  0  0  0  0  0  0  0  0
   47.2848    9.9588   18.8737 H   0  0  0  0  0  0  0  0  0  0  0  0
  1  2  1  0
  2  3  1  0
  3  4  1  0
  4  5  1  0
  5  6  1  0
  6  7  2  0
  3  8  1  0
  9 10  1  0
 10 11  1  0
 10 12  1  0
 12 13  1  0
 13 14  1  0
 14 15  1  0
 15 16  2  0
  1 17  1  0
  1 18  1  0
  1 19  1  0
  2 20  1  0
  2 21  1  0
  3 22  1  6
  4 23  1  0
  4 24  1  0
  8 25  1  0
  8 26  1  0
  8 27  1  0
  9 28  1  0
  9 29  1  0
  9 30  1  0
 10 31  1  0
 11 32  1  0
 11 33  1  0
 11 34  1  0
 12 35  1  0
 12 36  1  0
 13 37  1  0
 13 38  1  0
M  END
> <Uni-Dock RESULT> 
ENERGY=   -3.420  LOWER_BOUND=   10.576  UPPER_BOUND=   11.975
INTER + INTRA:          -3.420
INTER:                  -3.420
INTRA:                   0.000
UNBOUND:                 0.000

$$$$

     RDKit          3D

 38 36  0  0  0  0  0  0  0  0999 V2000
   38.4782   14.1544   16.7402 C   0  0  0  0  0  0  0  0  0  0  0  0
   38.7204   13.3004   15.5050 C   0  0  0  0  0  0  0  0  0  0  0  0
   40.1889   13.2494   15.0334 C   0  0  2  0  0  0  0  0  0  0  0  0
   40.7285   14.6155   14.5773 C   0  0  0  0  0  0  0  0  0  0  0  0
   40.9788   15.4376   15.7142 O   0  0  0  0  0  0  0  0  0  0  0  0
   41.4523   16.7117   15.2678 N   0  0  0  0  0  0  0  0  0  0  0  0
   41.6664   17.4608   16.2255 O   0  0  0  0  0  0  0  0  0  0  0  0
   40.3111   12.2418   13.8858 C   0  0  0  0  0  0  0  0  0  0  0  0
   37.6750   12.9838   15.5276 C   0  0  0  0  0  0  0  0  0  0  0  0
   39.0604   13.6231   15.6629 C   0  0  0  0  0  0  0  0  0  0  0  0
   40.1368   12.5487   15.5102 C   0  0  0  0  0  0  0  0  0  0  0  0
   39.1992   14.7750   14.6461 C   0  0  0  0  0  0  0  0  0  0  0  0
   40.4925   15.5812   14.7749 C   0  0  0  0  0  0  0  0  0  0  0  0
   41.5676   14.8628   14.1783 O   0  0  0  0  0  0  0  0  0  0  0  0
   42.7688   15.6257   14.3235 N   0  0  0  0  0  0  0  0  0  0  0  0
   43.7306   15.0286   13.8311 O   0  0  0  0  0  0  0  0  0  0  0  0
   37.4564   14.0032   17.1038 H   0  0  0  0  0  0  0  0  0  0  0  0
   38.5879   15.2198   16.5197 H   0  0  0  0  0  0  0  0  0  0  0  0
   39.1668   13.8876   17.5478 H   0  0  0  0  0  0  0  0  0  0  0  0
   38.0775   13.6594   14.6918 H   0  0  0  0  0  0  0  0  0  0  0  0
   38.3899   12.2793   15.7350 H   0  0  0  0  0  0  0  0  0  0  0  0
   40.8012   12.8915   15.8715 H   0  0  0  0  0  0  0  0  0  0  0  0
   40.0083   15.1031   13.9074 H   0  0  0  0  0  0  0  0  0  0  0  0
   41.6726   14.4772   14.0343 H   0  0  0  0  0  0  0  0  0  0  0  0
   39.9620   11.2514   14.1966 H   0  0  0  0  0  0  0  0  0  0  0  0
   39.7196   12.5541   13.0183 H   0  0  0  0  0  0  0  0  0  0  0  0
   41.3538   12.1393   13.5668 H   0  0  0  0  0  0  0  0  0  0  0  0
   37.5375   12.5400   14.5357 H   0  0  0  0  0  0  0  0  0  0  0  0
   37.5347   12.1951   16.2745 H   0  0  0  0  0  0  0  0  0  0  0  0
   36.8857   13.7278   15.6792 H   0  0  0  0  0  0  0  0  0  0  0  0
   39.1369   14.0402   16.6751 H   0  0  0  0  0  0  0  0  0  0  0  0
   39.9368   11.7003   16.1739 H   0  0  0  0  0  0  0  0  0  0  0  0
   40.1791   12.1705   14.4833 H   0  0  0  0  0  0  0  0  0  0  0  0
   41.1246   12.9351   15.7776 H   0  0  0  0  0  0  0  0  0  0  0  0
   38.3585   15.4644   14.7949 H   0  0  0  0  0  0  0  0  0  0  0  0
   39.1164   14.3745   13.6279 H   0  0  0  0  0  0  0  0  0  0  0  0
   40.3663   16.5332   14.2438 H   0  0  0  0  0  0  0  0  0  0  0  0
   40.7075   15.7925   15.8298 H   0  0  0  0  0  0  0  0  0  0  0  0
  1  2  1  0
  2  3  1  0
  3  4  1  0
  4  5  1  0
  5  6  1  0
  6  7  2  0
  3  8  1  0
  9 10  1  0
 10 11  1  0
 10 12  1  0
 12 13  1  0
 13 14  1  0
 14 15  1  0
 15 16  2  0
  1 17  1  0
  1 18  1  0
  1 19  1  0
  2 20  1  0
  2 21  1  0
  3 22  1  6
  4 23  1  0
  4 24  1  0
  8 25  1  0
  8 26  1  0
  8 27  1  0
  9 28  1  0
  9 29  1  0
  9 30  1  0
 10 31  1  0
 11 32  1  0
 11 33  1  0
 11 34  1  0
 12 35  1  0
 12 36  1  0
 13 37  1  0
 13 38  1  0
M  END
> <Uni-Dock RESULT> 
ENERGY=   -3.389  LOWER_BOUND=   11.541  UPPER_BOUND=   13.069
INTER + INTRA:          -3.389
INTER:                  -3.389
INTRA:                   0.000
UNBOUND:                 0.000

$$$$
