
     RDKit          3D

 38 36  0  0  0  0  0  0  0  0999 V2000
   43.7466    5.9184   11.7845 C   0  0  0  0  0  0  0  0  0  0  0  0
   43.8876    5.1822   10.4592 C   0  0  0  0  0  0  0  0  0  0  0  0
   44.5272    3.7848   10.5926 C   0  0  2  0  0  0  0  0  0  0  0  0
   44.7370    3.1488    9.2072 C   0  0  0  0  0  0  0  0  0  0  0  0
   45.6459    3.9479    8.4528 O   0  0  0  0  0  0  0  0  0  0  0  0
   45.8189    3.3554    7.1624 N   0  0  0  0  0  0  0  0  0  0  0  0
   46.5975    4.0216    6.4737 O   0  0  0  0  0  0  0  0  0  0  0  0
   43.6892    2.8480   11.4648 C   0  0  0  0  0  0  0  0  0  0  0  0
   45.1724    5.4310   10.8015 C   0  0  0  0  0  0  0  0  0  0  0  0
   44.3311    4.3186   11.4272 C   0  0  0  0  0  0  0  0  0  0  0  0
   43.1738    4.9345   12.2191 C   0  0  0  0  0  0  0  0  0  0  0  0
   43.7746    3.3189   10.3923 C   0  0  0  0  0  0  0  0  0  0  0  0
   44.8439    2.5360    9.6290 C   0  0  0  0  0  0  0  0  0  0  0  0
   45.4010    3.3558    8.6066 O   0  0  0  0  0  0  0  0  0  0  0  0
   46.4085    2.6112    7.9161 N   0  0  0  0  0  0  0  0  0  0  0  0
   46.9285    3.2941    7.0287 O   0  0  0  0  0  0  0  0  0  0  0  0
   43.0240    5.4278   12.4428 H   0  0  0  0  0  0  0  0  0  0  0  0
   44.7076    5.9794   12.3048 H   0  0  0  0  0  0  0  0  0  0  0  0
   43.3910    6.9391   11.6095 H   0  0  0  0  0  0  0  0  0  0  0  0
   42.8998    5.0986    9.9898 H   0  0  0  0  0  0  0  0  0  0  0  0
   44.4999    5.8032    9.7946 H   0  0  0  0  0  0  0  0  0  0  0  0
   45.5124    3.9103   11.0610 H   0  0  0  0  0  0  0  0  0  0  0  0
   43.7780    3.0723    8.6779 H   0  0  0  0  0  0  0  0  0  0  0  0
   45.1567    2.1411    9.3229 H   0  0  0  0  0  0  0  0  0  0  0  0
   43.6274    3.2105   12.4952 H   0  0  0  0  0  0  0  0  0  0  0  0
   44.1357    1.8483   11.5017 H   0  0  0  0  0  0  0  0  0  0  0  0
   42.6706    2.7488   11.0749 H   0  0  0  0  0  0  0  0  0  0  0  0
   44.6235    5.9457   10.0058 H   0  0  0  0  0  0  0  0  0  0  0  0
   46.1025    5.0374   10.3815 H   0  0  0  0  0  0  0  0  0  0  0  0
   45.4534    6.1763   11.5537 H   0  0  0  0  0  0  0  0  0  0  0  0
   44.9648    3.7704   12.1361 H   0  0  0  0  0  0  0  0  0  0  0  0
   42.5047    5.5049   11.5658 H   0  0  0  0  0  0  0  0  0  0  0  0
   43.5484    5.6110   12.9947 H   0  0  0  0  0  0  0  0  0  0  0  0
   42.5830    4.1570   12.7148 H   0  0  0  0  0  0  0  0  0  0  0  0
   43.1439    2.5944   10.9230 H   0  0  0  0  0  0  0  0  0  0  0  0
   43.1314    3.8513    9.6803 H   0  0  0  0  0  0  0  0  0  0  0  0
   44.3723    1.6618    9.1627 H   0  0  0  0  0  0  0  0  0  0  0  0
   45.6266    2.1894   10.3153 H   0  0  0  0  0  0  0  0  0  0  0  0
  1  2  1  0
  2  3  1  0
  3  4  1  0
  4  5  1  0
  5  6  1  0
  6  7  2  0
  3  8  1  0
  9 10  1  0
 10 11  1  0
 10 12  1  0
 12 13  1  0
 13 14  1  0
 14 15  1  0
 15 16  2  0
  1 17  1  0
  1 18  1  0
  1 19  1  0
  2 20  1  0
  2 21  1  0
  3 22  1  1
  4 23  1  0
  4 24  1  0
  8 25  1  0
  8 26  1  0
  8 27  1  0
  9 28  1  0
  9 29  1  0
  9 30  1  0
 10 31  1  0
 11 32  1  0
 11 33  1  0
 11 34  1  0
 12 35  1  0
 12 36  1  0
 13 37  1  0
 13 38  1  0
M  END
> <Uni-Dock RESULT> 
ENERGY=   -5.422  LOWER_BOUND=    0.000  UPPER_BOUND=    0.000
INTER + INTRA:          -5.422
INTER:                  -5.422
INTRA:                   0.000
UNBOUND:                 0.000

$$$$

     RDKit          3D

 38 36  0  0  0  0  0  0  0  0999 V2000
   46.0093    4.0713    7.7044 C   0  0  0  0  0  0  0  0  0  0  0  0
   45.7576    4.0234    9.2053 C   0  0  0  0  0  0  0  0  0  0  0  0
   44.4899    3.2358    9.5953 C   0  0  2  0  0  0  0  0  0  0  0  0
   44.2411    3.3227   11.1114 C   0  0  0  0  0  0  0  0  0  0  0  0
   44.0102    4.6821   11.4755 O   0  0  0  0  0  0  0  0  0  0  0  0
   43.7975    4.7510   12.8884 N   0  0  0  0  0  0  0  0  0  0  0  0
   43.5981    5.9156   13.2465 O   0  0  0  0  0  0  0  0  0  0  0  0
   44.5704    1.7676    9.1728 C   0  0  0  0  0  0  0  0  0  0  0  0
   44.7352    4.7859    8.7545 C   0  0  0  0  0  0  0  0  0  0  0  0
   44.7744    3.2631    8.6267 C   0  0  0  0  0  0  0  0  0  0  0  0
   45.9206    2.8559    7.6959 C   0  0  0  0  0  0  0  0  0  0  0  0
   44.9277    2.5408    9.9813 C   0  0  0  0  0  0  0  0  0  0  0  0
   43.7668    2.7619   10.9521 C   0  0  0  0  0  0  0  0  0  0  0  0
   43.8917    4.0403   11.5668 O   0  0  0  0  0  0  0  0  0  0  0  0
   42.7894    4.2336   12.4576 N   0  0  0  0  0  0  0  0  0  0  0  0
   42.8526    5.3404   13.0009 O   0  0  0  0  0  0  0  0  0  0  0  0
   46.2552    3.0829    7.3057 H   0  0  0  0  0  0  0  0  0  0  0  0
   45.1343    4.4552    7.1708 H   0  0  0  0  0  0  0  0  0  0  0  0
   46.8549    4.7323    7.4878 H   0  0  0  0  0  0  0  0  0  0  0  0
   46.6348    3.5905    9.7014 H   0  0  0  0  0  0  0  0  0  0  0  0
   45.6717    5.0562    9.5636 H   0  0  0  0  0  0  0  0  0  0  0  0
   43.6361    3.7002    9.0843 H   0  0  0  0  0  0  0  0  0  0  0  0
   45.1083    2.9309   11.6592 H   0  0  0  0  0  0  0  0  0  0  0  0
   43.3586    2.7260   11.3759 H   0  0  0  0  0  0  0  0  0  0  0  0
   44.6201    1.6675    8.0844 H   0  0  0  0  0  0  0  0  0  0  0  0
   43.6834    1.2180    9.5062 H   0  0  0  0  0  0  0  0  0  0  0  0
   45.4516    1.2793    9.6023 H   0  0  0  0  0  0  0  0  0  0  0  0
   45.6010    5.1612    9.3103 H   0  0  0  0  0  0  0  0  0  0  0  0
   43.8262    5.1185    9.2639 H   0  0  0  0  0  0  0  0  0  0  0  0
   44.7376    5.2594    7.7666 H   0  0  0  0  0  0  0  0  0  0  0  0
   43.8356    2.9363    8.1614 H   0  0  0  0  0  0  0  0  0  0  0  0
   46.8905    3.1622    8.1026 H   0  0  0  0  0  0  0  0  0  0  0  0
   45.8050    3.3182    6.7097 H   0  0  0  0  0  0  0  0  0  0  0  0
   45.9398    1.7703    7.5527 H   0  0  0  0  0  0  0  0  0  0  0  0
   45.0010    1.4633    9.7869 H   0  0  0  0  0  0  0  0  0  0  0  0
   45.8670    2.8513   10.4559 H   0  0  0  0  0  0  0  0  0  0  0  0
   43.8093    1.9901   11.7310 H   0  0  0  0  0  0  0  0  0  0  0  0
   42.8075    2.6786   10.4261 H   0  0  0  0  0  0  0  0  0  0  0  0
  1  2  1  0
  2  3  1  0
  3  4  1  0
  4  5  1  0
  5  6  1  0
  6  7  2  0
  3  8  1  0
  9 10  1  0
 10 11  1  0
 10 12  1  0
 12 13  1  0
 13 14  1  0
 14 15  1  0
 15 16  2  0
  1 17  1  0
  1 18  1  0
  1 19  1  0
  2 20  1  0
  2 21  1  0
  3 22  1  1
  4 23  1  0
  4 24  1  0
  8 25  1  0
  8 26  1  0
  8 27  1  0
  9 28  1  0
  9 29  1  0
  9 30  1  0
 10 31  1  0
 11 32  1  0
 11 33  1  0
 11 34  1  0
 12 35  1  0
 12 36  1  0
 13 37  1  0
 13 38  1  0
M  END
> <Uni-Dock RESULT> 
ENERGY=   -4.902  LOWER_BOUND=    3.393  UPPER_BOUND=    4.397
INTER + INTRA:          -4.902
INTER:                  -4.902
INTRA:                   0.000
UNBOUND:                 0.000

$$$$

     RDKit          3D

 38 36  0  0  0  0  0  0  0  0999 V2000
   46.0121    3.4586    7.3340 C   0  0  0  0  0  0  0  0  0  0  0  0
   45.6231    3.9906    8.7065 C   0  0  0  0  0  0  0  0  0  0  0  0
   44.4926    3.1887    9.3835 C   0  0  2  0  0  0  0  0  0  0  0  0
   44.0798    3.8467   10.7118 C   0  0  0  0  0  0  0  0  0  0  0  0
   43.5626    5.1504   10.4530 O   0  0  0  0  0  0  0  0  0  0  0  0
   43.1988    5.7571   11.6963 N   0  0  0  0  0  0  0  0  0  0  0  0
   42.7496    6.8928   11.5163 O   0  0  0  0  0  0  0  0  0  0  0  0
   44.8891    1.7326    9.6347 C   0  0  0  0  0  0  0  0  0  0  0  0
   44.5270    4.2579    7.9603 C   0  0  0  0  0  0  0  0  0  0  0  0
   44.8635    2.8681    8.5006 C   0  0  0  0  0  0  0  0  0  0  0  0
   46.1539    2.3629    7.8482 C   0  0  0  0  0  0  0  0  0  0  0  0
   45.0115    2.8296   10.0357 C   0  0  0  0  0  0  0  0  0  0  0  0
   43.7375    3.1841   10.8041 C   0  0  0  0  0  0  0  0  0  0  0  0
   43.5579    4.5967   10.8103 O   0  0  0  0  0  0  0  0  0  0  0  0
   42.3544    4.9056   11.5190 N   0  0  0  0  0  0  0  0  0  0  0  0
   42.1538    6.1237   11.5339 O   0  0  0  0  0  0  0  0  0  0  0  0
   46.4779    2.4713    7.4020 H   0  0  0  0  0  0  0  0  0  0  0  0
   45.1392    3.3882    6.6775 H   0  0  0  0  0  0  0  0  0  0  0  0
   46.7363    4.1315    6.8633 H   0  0  0  0  0  0  0  0  0  0  0  0
   46.5112    4.0025    9.3502 H   0  0  0  0  0  0  0  0  0  0  0  0
   45.3094    5.0342    8.5846 H   0  0  0  0  0  0  0  0  0  0  0  0
   43.6231    3.2034    8.7130 H   0  0  0  0  0  0  0  0  0  0  0  0
   44.9451    3.9144   11.3844 H   0  0  0  0  0  0  0  0  0  0  0  0
   43.3025    3.2428   11.1976 H   0  0  0  0  0  0  0  0  0  0  0  0
   45.0666    1.1995    8.6959 H   0  0  0  0  0  0  0  0  0  0  0  0
   44.0917    1.1981   10.1623 H   0  0  0  0  0  0  0  0  0  0  0  0
   45.7981    1.6684   10.2422 H   0  0  0  0  0  0  0  0  0  0  0  0
   45.2463    5.0059    8.3100 H   0  0  0  0  0  0  0  0  0  0  0  0
   43.5250    4.5715    8.2670 H   0  0  0  0  0  0  0  0  0  0  0  0
   44.5406    4.2633    6.8648 H   0  0  0  0  0  0  0  0  0  0  0  0
   44.0547    2.1852    8.2108 H   0  0  0  0  0  0  0  0  0  0  0  0
   47.0030    3.0098    8.0942 H   0  0  0  0  0  0  0  0  0  0  0  0
   46.0543    2.3339    6.7579 H   0  0  0  0  0  0  0  0  0  0  0  0
   46.3906    1.3484    8.1863 H   0  0  0  0  0  0  0  0  0  0  0  0
   45.3047    1.8123   10.3247 H   0  0  0  0  0  0  0  0  0  0  0  0
   45.8231    3.5021   10.3409 H   0  0  0  0  0  0  0  0  0  0  0  0
   43.8448    2.8374   11.8397 H   0  0  0  0  0  0  0  0  0  0  0  0
   42.8691    2.6864   10.3546 H   0  0  0  0  0  0  0  0  0  0  0  0
  1  2  1  0
  2  3  1  0
  3  4  1  0
  4  5  1  0
  5  6  1  0
  6  7  2  0
  3  8  1  0
  9 10  1  0
 10 11  1  0
 10 12  1  0
 12 13  1  0
 13 14  1  0
 14 15  1  0
 15 16  2  0
  1 17  1  0
  1 18  1  0
  1 19  1  0
  2 20  1  0
  2 21  1  0
  3 22  1  1
  4 23  1  0
  4 24  1  0
  8 25  1  0
  8 26  1  0
  8 27  1  0
  9 28  1  0
  9 29  1  0
  9 30  1  0
 10 31  1  0
 11 32  1  0
 11 33  1  0
 11 34  1  0
 12 35  1  0
 12 36  1  0
 13 37  1  0
 13 38  1  0
M  END
> <Uni-Dock RESULT> 
ENERGY=   -4.817  LOWER_BOUND=    3.139  UPPER_BOUND=    4.308
INTER + INTRA:          -4.817
INTER:                  -4.817
INTRA:                   0.000
UNBOUND:                 0.000

$$$$

     RDKit          3D

 38 36  0  0  0  0  0  0  0  0999 V2000
   43.1861    3.6632   11.7701 C   0  0  0  0  0  0  0  0  0  0  0  0
   44.0093    4.9196   11.5213 C   0  0  0  0  0  0  0  0  0  0  0  0
   44.8524    5.3578   12.7364 C   0  0  2  0  0  0  0  0  0  0  0  0
   45.5691    6.6888   12.4490 C   0  0  0  0  0  0  0  0  0  0  0  0
   44.5987    7.7108   12.2305 O   0  0  0  0  0  0  0  0  0  0  0  0
   45.2773    8.9379   11.9479 N   0  0  0  0  0  0  0  0  0  0  0  0
   44.4703    9.8503   11.7470 O   0  0  0  0  0  0  0  0  0  0  0  0
   45.8809    4.2983   13.1369 C   0  0  0  0  0  0  0  0  0  0  0  0
   43.0985    5.3340   12.4315 C   0  0  0  0  0  0  0  0  0  0  0  0
   44.3273    4.4967   12.7859 C   0  0  0  0  0  0  0  0  0  0  0  0
   44.2129    3.1161   12.1325 C   0  0  0  0  0  0  0  0  0  0  0  0
   45.6572    5.1573   12.3679 C   0  0  0  0  0  0  0  0  0  0  0  0
   45.9505    6.4871   13.0644 C   0  0  0  0  0  0  0  0  0  0  0  0
   45.1895    7.5257   12.4562 O   0  0  0  0  0  0  0  0  0  0  0  0
   45.4658    8.7560   13.1315 N   0  0  0  0  0  0  0  0  0  0  0  0
   44.8117    9.6819   12.6425 O   0  0  0  0  0  0  0  0  0  0  0  0
   43.8232    2.7838   11.9013 H   0  0  0  0  0  0  0  0  0  0  0  0
   42.5574    3.7745   12.6590 H   0  0  0  0  0  0  0  0  0  0  0  0
   42.5312    3.4694   10.9143 H   0  0  0  0  0  0  0  0  0  0  0  0
   44.6601    4.7547   10.6538 H   0  0  0  0  0  0  0  0  0  0  0  0
   43.3172    5.7245   11.2464 H   0  0  0  0  0  0  0  0  0  0  0  0
   44.1676    5.5165   13.5800 H   0  0  0  0  0  0  0  0  0  0  0  0
   46.2119    6.5880   11.5645 H   0  0  0  0  0  0  0  0  0  0  0  0
   46.1936    6.9655   13.3083 H   0  0  0  0  0  0  0  0  0  0  0  0
   45.3953    3.3763   13.4700 H   0  0  0  0  0  0  0  0  0  0  0  0
   46.5014    4.6531   13.9670 H   0  0  0  0  0  0  0  0  0  0  0  0
   46.5439    4.0533   12.3003 H   0  0  0  0  0  0  0  0  0  0  0  0
   43.0930    5.6035   11.3700 H   0  0  0  0  0  0  0  0  0  0  0  0
   43.0607    6.2538   13.0222 H   0  0  0  0  0  0  0  0  0  0  0  0
   42.1767    4.7814   12.6438 H   0  0  0  0  0  0  0  0  0  0  0  0
   44.3372    4.3502   13.8736 H   0  0  0  0  0  0  0  0  0  0  0  0
   44.1904    3.1943   11.0402 H   0  0  0  0  0  0  0  0  0  0  0  0
   43.2987    2.6065   12.4551 H   0  0  0  0  0  0  0  0  0  0  0  0
   45.0614    2.4817   12.4102 H   0  0  0  0  0  0  0  0  0  0  0  0
   46.4732    4.4650   12.6109 H   0  0  0  0  0  0  0  0  0  0  0  0
   45.6661    5.3030   11.2804 H   0  0  0  0  0  0  0  0  0  0  0  0
   47.0172    6.7162   12.9475 H   0  0  0  0  0  0  0  0  0  0  0  0
   45.7210    6.4164   14.1350 H   0  0  0  0  0  0  0  0  0  0  0  0
  1  2  1  0
  2  3  1  0
  3  4  1  0
  4  5  1  0
  5  6  1  0
  6  7  2  0
  3  8  1  0
  9 10  1  0
 10 11  1  0
 10 12  1  0
 12 13  1  0
 13 14  1  0
 14 15  1  0
 15 16  2  0
  1 17  1  0
  1 18  1  0
  1 19  1  0
  2 20  1  0
  2 21  1  0
  3 22  1  1
  4 23  1  0
  4 24  1  0
  8 25  1  0
  8 26  1  0
  8 27  1  0
  9 28  1  0
  9 29  1  0
  9 30  1  0
 10 31  1  0
 11 32  1  0
 11 33  1  0
 11 34  1  0
 12 35  1  0
 12 36  1  0
 13 37  1  0
 13 38  1  0
M  END
> <Uni-Dock RESULT> 
ENERGY=   -4.477  LOWER_BOUND=    4.345  UPPER_BOUND=    5.154
INTER + INTRA:          -4.477
INTER:                  -4.477
INTRA:                   0.000
UNBOUND:                 0.000

$$$$

     RDKit          3D

 38 36  0  0  0  0  0  0  0  0999 V2000
   47.8196    5.4052   19.2237 C   0  0  0  0  0  0  0  0  0  0  0  0
   48.9371    4.7582   18.4171 C   0  0  0  0  0  0  0  0  0  0  0  0
   48.5697    3.3702   17.8533 C   0  0  2  0  0  0  0  0  0  0  0  0
   49.7790    2.7334   17.1461 C   0  0  0  0  0  0  0  0  0  0  0  0
   50.8267    2.5300   18.0921 O   0  0  0  0  0  0  0  0  0  0  0  0
   51.9498    1.9539   17.4191 N   0  0  0  0  0  0  0  0  0  0  0  0
   52.8836    1.7658   18.2044 O   0  0  0  0  0  0  0  0  0  0  0  0
   47.3865    3.4356   16.8857 C   0  0  0  0  0  0  0  0  0  0  0  0
   48.8558    3.9622   19.5079 C   0  0  0  0  0  0  0  0  0  0  0  0
   47.8670    3.9046   18.3436 C   0  0  0  0  0  0  0  0  0  0  0  0
   47.0840    5.2189   18.2701 C   0  0  0  0  0  0  0  0  0  0  0  0
   48.5409    3.6281   16.9837 C   0  0  0  0  0  0  0  0  0  0  0  0
   49.2437    2.2730   16.8887 C   0  0  0  0  0  0  0  0  0  0  0  0
   50.5021    2.3373   17.5519 O   0  0  0  0  0  0  0  0  0  0  0  0
   51.1351    1.0574   17.4654 N   0  0  0  0  0  0  0  0  0  0  0  0
   52.2259    1.0670   18.0436 O   0  0  0  0  0  0  0  0  0  0  0  0
   46.9648    5.6638   18.5921 H   0  0  0  0  0  0  0  0  0  0  0  0
   47.4751    4.7406   20.0222 H   0  0  0  0  0  0  0  0  0  0  0  0
   48.1788    6.3309   19.6851 H   0  0  0  0  0  0  0  0  0  0  0  0
   49.2234    5.4307   17.5993 H   0  0  0  0  0  0  0  0  0  0  0  0
   49.8129    4.6677   19.0708 H   0  0  0  0  0  0  0  0  0  0  0  0
   48.2941    2.7268   18.6994 H   0  0  0  0  0  0  0  0  0  0  0  0
   50.1287    3.3860   16.3353 H   0  0  0  0  0  0  0  0  0  0  0  0
   49.4892    1.7648   16.7185 H   0  0  0  0  0  0  0  0  0  0  0  0
   46.4745    3.7658   17.3919 H   0  0  0  0  0  0  0  0  0  0  0  0
   47.1782    2.4483   16.4592 H   0  0  0  0  0  0  0  0  0  0  0  0
   47.5882    4.1250   16.0590 H   0  0  0  0  0  0  0  0  0  0  0  0
   49.6621    4.6765   19.3104 H   0  0  0  0  0  0  0  0  0  0  0  0
   49.3013    2.9819   19.6996 H   0  0  0  0  0  0  0  0  0  0  0  0
   48.3523    4.2689   20.4312 H   0  0  0  0  0  0  0  0  0  0  0  0
   47.1484    3.1002   18.5468 H   0  0  0  0  0  0  0  0  0  0  0  0
   47.7493    6.0672   18.0756 H   0  0  0  0  0  0  0  0  0  0  0  0
   46.5553    5.4110   19.2099 H   0  0  0  0  0  0  0  0  0  0  0  0
   46.3363    5.1834   17.4707 H   0  0  0  0  0  0  0  0  0  0  0  0
   47.7665    3.6588   16.2067 H   0  0  0  0  0  0  0  0  0  0  0  0
   49.2572    4.4292   16.7621 H   0  0  0  0  0  0  0  0  0  0  0  0
   49.4141    2.0399   15.8301 H   0  0  0  0  0  0  0  0  0  0  0  0
   48.6166    1.4859   17.3258 H   0  0  0  0  0  0  0  0  0  0  0  0
  1  2  1  0
  2  3  1  0
  3  4  1  0
  4  5  1  0
  5  6  1  0
  6  7  2  0
  3  8  1  0
  9 10  1  0
 10 11  1  0
 10 12  1  0
 12 13  1  0
 13 14  1  0
 14 15  1  0
 15 16  2  0
  1 17  1  0
  1 18  1  0
  1 19  1  0
  2 20  1  0
  2 21  1  0
  3 22  1  1
  4 23  1  0
  4 24  1  0
  8 25  1  0
  8 26  1  0
  8 27  1  0
  9 28  1  0
  9 29  1  0
  9 30  1  0
 10 31  1  0
 11 32  1  0
 11 33  1  0
 11 34  1  0
 12 35  1  0
 12 36  1  0
 13 37  1  0
 13 38  1  0
M  END
> <Uni-Dock RESULT> 
ENERGY=   -4.359  LOWER_BOUND=    9.246  UPPER_BOUND=    9.782
INTER + INTRA:          -4.359
INTER:                  -4.359
INTRA:                   0.000
UNBOUND:                 0.000

$$$$

     RDKit          3D

 38 36  0  0  0  0  0  0  0  0999 V2000
   47.9186    7.4683   12.7898 C   0  0  0  0  0  0  0  0  0  0  0  0
   46.5137    6.9997   13.1428 C   0  0  0  0  0  0  0  0  0  0  0  0
   46.2852    5.4932   12.9024 C   0  0  2  0  0  0  0  0  0  0  0  0
   44.8187    5.1156   13.1760 C   0  0  0  0  0  0  0  0  0  0  0  0
   43.9730    5.8118   12.2628 O   0  0  0  0  0  0  0  0  0  0  0  0
   42.6128    5.4653   12.5386 N   0  0  0  0  0  0  0  0  0  0  0  0
   41.8452    6.0527   11.7705 O   0  0  0  0  0  0  0  0  0  0  0  0
   47.2064    4.6258   13.7624 C   0  0  0  0  0  0  0  0  0  0  0  0
   46.5449    6.8647   11.7972 C   0  0  0  0  0  0  0  0  0  0  0  0
   47.2071    5.8804   12.7612 C   0  0  0  0  0  0  0  0  0  0  0  0
   48.3467    6.5810   13.5071 C   0  0  0  0  0  0  0  0  0  0  0  0
   46.2232    5.2678   13.7794 C   0  0  0  0  0  0  0  0  0  0  0  0
   45.1106    4.4234   13.1562 C   0  0  0  0  0  0  0  0  0  0  0  0
   44.1018    5.2758   12.6238 O   0  0  0  0  0  0  0  0  0  0  0  0
   43.0801    4.4679   12.0325 N   0  0  0  0  0  0  0  0  0  0  0  0
   42.1912    5.1719   11.5441 O   0  0  0  0  0  0  0  0  0  0  0  0
   48.6669    7.0408   13.4633 H   0  0  0  0  0  0  0  0  0  0  0  0
   48.1777    7.1956   11.7620 H   0  0  0  0  0  0  0  0  0  0  0  0
   47.9827    8.5579   12.8772 H   0  0  0  0  0  0  0  0  0  0  0  0
   46.3071    7.2472   14.1912 H   0  0  0  0  0  0  0  0  0  0  0  0
   45.8056    7.5785   12.5379 H   0  0  0  0  0  0  0  0  0  0  0  0
   46.4971    5.2864   11.8451 H   0  0  0  0  0  0  0  0  0  0  0  0
   44.5484    5.3750   14.2081 H   0  0  0  0  0  0  0  0  0  0  0  0
   44.6832    4.0352   13.0374 H   0  0  0  0  0  0  0  0  0  0  0  0
   48.2577    4.7793   13.5012 H   0  0  0  0  0  0  0  0  0  0  0  0
   46.9898    3.5624   13.6132 H   0  0  0  0  0  0  0  0  0  0  0  0
   47.0817    4.8498   14.8271 H   0  0  0  0  0  0  0  0  0  0  0  0
   45.9955    7.6427   12.3378 H   0  0  0  0  0  0  0  0  0  0  0  0
   45.8500    6.3547   11.1238 H   0  0  0  0  0  0  0  0  0  0  0  0
   47.2944    7.3568   11.1678 H   0  0  0  0  0  0  0  0  0  0  0  0
   47.6471    5.0678   12.1689 H   0  0  0  0  0  0  0  0  0  0  0  0
   47.9720    7.4120   14.1146 H   0  0  0  0  0  0  0  0  0  0  0  0
   49.0852    6.9810   12.8040 H   0  0  0  0  0  0  0  0  0  0  0  0
   48.8662    5.8820   14.1710 H   0  0  0  0  0  0  0  0  0  0  0  0
   46.7935    4.6216   14.4586 H   0  0  0  0  0  0  0  0  0  0  0  0
   45.7805    6.0682   14.3856 H   0  0  0  0  0  0  0  0  0  0  0  0
   44.6659    3.7965   13.9393 H   0  0  0  0  0  0  0  0  0  0  0  0
   45.5184    3.7719   12.3732 H   0  0  0  0  0  0  0  0  0  0  0  0
  1  2  1  0
  2  3  1  0
  3  4  1  0
  4  5  1  0
  5  6  1  0
  6  7  2  0
  3  8  1  0
  9 10  1  0
 10 11  1  0
 10 12  1  0
 12 13  1  0
 13 14  1  0
 14 15  1  0
 15 16  2  0
  1 17  1  0
  1 18  1  0
  1 19  1  0
  2 20  1  0
  2 21  1  0
  3 22  1  1
  4 23  1  0
  4 24  1  0
  8 25  1  0
  8 26  1  0
  8 27  1  0
  9 28  1  0
  9 29  1  0
  9 30  1  0
 10 31  1  0
 11 32  1  0
 11 33  1  0
 11 34  1  0
 12 35  1  0
 12 36  1  0
 13 37  1  0
 13 38  1  0
M  END
> <Uni-Dock RESULT> 
ENERGY=   -4.335  LOWER_BOUND=    4.147  UPPER_BOUND=    4.965
INTER + INTRA:          -4.335
INTER:                  -4.335
INTRA:                   0.000
UNBOUND:                 0.000

$$$$

     RDKit          3D

 38 36  0  0  0  0  0  0  0  0999 V2000
   48.0155    5.9743   19.5507 C   0  0  0  0  0  0  0  0  0  0  0  0
   47.2552    5.3247   18.4025 C   0  0  0  0  0  0  0  0  0  0  0  0
   48.0862    4.2888   17.6178 C   0  0  2  0  0  0  0  0  0  0  0  0
   47.2927    3.7570   16.4114 C   0  0  0  0  0  0  0  0  0  0  0  0
   47.0197    4.8316   15.5143 O   0  0  0  0  0  0  0  0  0  0  0  0
   46.2677    4.3275   14.4067 N   0  0  0  0  0  0  0  0  0  0  0  0
   46.0056    5.2301   13.6063 O   0  0  0  0  0  0  0  0  0  0  0  0
   48.5270    3.1173   18.4975 C   0  0  0  0  0  0  0  0  0  0  0  0
   48.1929    6.0601   17.7624 C   0  0  0  0  0  0  0  0  0  0  0  0
   48.4854    4.7208   18.4387 C   0  0  0  0  0  0  0  0  0  0  0  0
   48.2798    4.8540   19.9507 C   0  0  0  0  0  0  0  0  0  0  0  0
   47.6197    3.5631   17.8997 C   0  0  0  0  0  0  0  0  0  0  0  0
   47.8404    3.2425   16.4206 C   0  0  0  0  0  0  0  0  0  0  0  0
   47.1521    4.1939   15.6152 O   0  0  0  0  0  0  0  0  0  0  0  0
   47.3841    3.8861   14.2377 N   0  0  0  0  0  0  0  0  0  0  0  0
   46.8150    4.6997   13.5040 O   0  0  0  0  0  0  0  0  0  0  0  0
   48.2407    5.2545   20.3428 H   0  0  0  0  0  0  0  0  0  0  0  0
   48.9548    6.4143   19.2015 H   0  0  0  0  0  0  0  0  0  0  0  0
   47.4120    6.7729   19.9946 H   0  0  0  0  0  0  0  0  0  0  0  0
   46.3459    4.8546   18.7965 H   0  0  0  0  0  0  0  0  0  0  0  0
   46.9282    6.1216   17.7240 H   0  0  0  0  0  0  0  0  0  0  0  0
   48.9823    4.7966   17.2373 H   0  0  0  0  0  0  0  0  0  0  0  0
   46.3515    3.3034   16.7490 H   0  0  0  0  0  0  0  0  0  0  0  0
   47.8833    2.9942   15.8877 H   0  0  0  0  0  0  0  0  0  0  0  0
   49.1997    3.4476   19.2947 H   0  0  0  0  0  0  0  0  0  0  0  0
   49.0696    2.3708   17.9074 H   0  0  0  0  0  0  0  0  0  0  0  0
   47.6660    2.6223   18.9591 H   0  0  0  0  0  0  0  0  0  0  0  0
   47.1266    6.3051   17.8089 H   0  0  0  0  0  0  0  0  0  0  0  0
   48.5004    6.0507   16.7128 H   0  0  0  0  0  0  0  0  0  0  0  0
   48.7466    6.8707   18.2488 H   0  0  0  0  0  0  0  0  0  0  0  0
   49.5414    4.4761   18.2668 H   0  0  0  0  0  0  0  0  0  0  0  0
   47.2409    5.1064   20.1895 H   0  0  0  0  0  0  0  0  0  0  0  0
   48.9230    5.6381   20.3641 H   0  0  0  0  0  0  0  0  0  0  0  0
   48.5281    3.9179   20.4620 H   0  0  0  0  0  0  0  0  0  0  0  0
   47.8587    2.6611   18.4772 H   0  0  0  0  0  0  0  0  0  0  0  0
   46.5599    3.7894   18.0719 H   0  0  0  0  0  0  0  0  0  0  0  0
   47.4333    2.2447   16.2137 H   0  0  0  0  0  0  0  0  0  0  0  0
   48.9121    3.2410   16.1857 H   0  0  0  0  0  0  0  0  0  0  0  0
  1  2  1  0
  2  3  1  0
  3  4  1  0
  4  5  1  0
  5  6  1  0
  6  7  2  0
  3  8  1  0
  9 10  1  0
 10 11  1  0
 10 12  1  0
 12 13  1  0
 13 14  1  0
 14 15  1  0
 15 16  2  0
  1 17  1  0
  1 18  1  0
  1 19  1  0
  2 20  1  0
  2 21  1  0
  3 22  1  1
  4 23  1  0
  4 24  1  0
  8 25  1  0
  8 26  1  0
  8 27  1  0
  9 28  1  0
  9 29  1  0
  9 30  1  0
 10 31  1  0
 11 32  1  0
 11 33  1  0
 11 34  1  0
 12 35  1  0
 12 36  1  0
 13 37  1  0
 13 38  1  0
M  END
> <Uni-Dock RESULT> 
ENERGY=   -4.091  LOWER_BOUND=    7.233  UPPER_BOUND=    7.836
INTER + INTRA:          -4.091
INTER:                  -4.091
INTRA:                   0.000
UNBOUND:                 0.000

$$$$

     RDKit          3D

 38 36  0  0  0  0  0  0  0  0999 V2000
   47.1532    3.4617   17.3163 C   0  0  0  0  0  0  0  0  0  0  0  0
   48.4611    3.0198   17.9584 C   0  0  0  0  0  0  0  0  0  0  0  0
   49.6933    3.7961   17.4501 C   0  0  2  0  0  0  0  0  0  0  0  0
   50.9854    3.2236   18.0589 C   0  0  0  0  0  0  0  0  0  0  0  0
   51.1477    1.8709   17.6374 O   0  0  0  0  0  0  0  0  0  0  0  0
   52.3423    1.3458   18.2234 N   0  0  0  0  0  0  0  0  0  0  0  0
   52.5175    0.1711   17.8864 O   0  0  0  0  0  0  0  0  0  0  0  0
   49.6004    5.2916   17.7590 C   0  0  0  0  0  0  0  0  0  0  0  0
   48.6068    2.6177   16.6750 C   0  0  0  0  0  0  0  0  0  0  0  0
   48.7743    4.0671   17.1311 C   0  0  0  0  0  0  0  0  0  0  0  0
   47.4324    4.6033   17.6388 C   0  0  0  0  0  0  0  0  0  0  0  0
   49.8478    4.2425   18.2251 C   0  0  0  0  0  0  0  0  0  0  0  0
   51.2646    3.8668   17.7884 C   0  0  0  0  0  0  0  0  0  0  0  0
   51.4125    2.4507   17.8049 O   0  0  0  0  0  0  0  0  0  0  0  0
   52.7374    2.1203   17.3787 N   0  0  0  0  0  0  0  0  0  0  0  0
   52.9018    0.8967   17.3643 O   0  0  0  0  0  0  0  0  0  0  0  0
   46.8847    4.4807   17.6096 H   0  0  0  0  0  0  0  0  0  0  0  0
   47.2164    3.4180   16.2246 H   0  0  0  0  0  0  0  0  0  0  0  0
   46.3386    2.8031   17.6350 H   0  0  0  0  0  0  0  0  0  0  0  0
   48.3772    3.1217   19.0472 H   0  0  0  0  0  0  0  0  0  0  0  0
   48.5911    1.9507   17.7519 H   0  0  0  0  0  0  0  0  0  0  0  0
   49.7453    3.6669   16.3609 H   0  0  0  0  0  0  0  0  0  0  0  0
   50.9394    3.2709   19.1550 H   0  0  0  0  0  0  0  0  0  0  0  0
   51.8471    3.8114   17.7170 H   0  0  0  0  0  0  0  0  0  0  0  0
   48.7598    5.7561   17.2348 H   0  0  0  0  0  0  0  0  0  0  0  0
   50.5084    5.8124   17.4360 H   0  0  0  0  0  0  0  0  0  0  0  0
   49.4739    5.4675   18.8326 H   0  0  0  0  0  0  0  0  0  0  0  0
   48.4221    1.9519   17.5246 H   0  0  0  0  0  0  0  0  0  0  0  0
   49.4950    2.2631   16.1442 H   0  0  0  0  0  0  0  0  0  0  0  0
   47.7632    2.5227   15.9825 H   0  0  0  0  0  0  0  0  0  0  0  0
   49.0638    4.6671   16.2588 H   0  0  0  0  0  0  0  0  0  0  0  0
   47.0827    4.0383   18.5096 H   0  0  0  0  0  0  0  0  0  0  0  0
   46.6653    4.5351   16.8599 H   0  0  0  0  0  0  0  0  0  0  0  0
   47.5175    5.6560   17.9286 H   0  0  0  0  0  0  0  0  0  0  0  0
   49.8588    5.2977   18.5261 H   0  0  0  0  0  0  0  0  0  0  0  0
   49.5680    3.6543   19.1081 H   0  0  0  0  0  0  0  0  0  0  0  0
   51.9778    4.3045   18.4983 H   0  0  0  0  0  0  0  0  0  0  0  0
   51.4744    4.2654   16.7880 H   0  0  0  0  0  0  0  0  0  0  0  0
  1  2  1  0
  2  3  1  0
  3  4  1  0
  4  5  1  0
  5  6  1  0
  6  7  2  0
  3  8  1  0
  9 10  1  0
 10 11  1  0
 10 12  1  0
 12 13  1  0
 13 14  1  0
 14 15  1  0
 15 16  2  0
  1 17  1  0
  1 18  1  0
  1 19  1  0
  2 20  1  0
  2 21  1  0
  3 22  1  1
  4 23  1  0
  4 24  1  0
  8 25  1  0
  8 26  1  0
  8 27  1  0
  9 28  1  0
  9 29  1  0
  9 30  1  0
 10 31  1  0
 11 32  1  0
 11 33  1  0
 11 34  1  0
 12 35  1  0
 12 36  1  0
 13 37  1  0
 13 38  1  0
M  END
> <Uni-Dock RESULT> 
ENERGY=   -4.044  LOWER_BOUND=    9.482  UPPER_BOUND=   10.100
INTER + INTRA:          -4.044
INTER:                  -4.044
INTRA:                   0.000
UNBOUND:                 0.000

$$$$

     RDKit          3D

 38 36  0  0  0  0  0  0  0  0999 V2000
   46.0472    6.3922   12.9171 C   0  0  0  0  0  0  0  0  0  0  0  0
   45.8469    5.7280   11.5618 C   0  0  0  0  0  0  0  0  0  0  0  0
   44.4483    5.1035   11.3793 C   0  0  2  0  0  0  0  0  0  0  0  0
   44.3567    4.3590   10.0357 C   0  0  0  0  0  0  0  0  0  0  0  0
   45.2929    3.2832   10.0265 O   0  0  0  0  0  0  0  0  0  0  0  0
   45.2097    2.6105    8.7668 N   0  0  0  0  0  0  0  0  0  0  0  0
   46.0104    1.6723    8.7158 O   0  0  0  0  0  0  0  0  0  0  0  0
   43.3346    6.1491   11.4624 C   0  0  0  0  0  0  0  0  0  0  0  0
   45.8329    4.6780   12.4146 C   0  0  0  0  0  0  0  0  0  0  0  0
   44.6489    5.6253   12.2203 C   0  0  0  0  0  0  0  0  0  0  0  0
   45.0286    7.0272   12.7064 C   0  0  0  0  0  0  0  0  0  0  0  0
   44.1607    5.7000   10.7588 C   0  0  0  0  0  0  0  0  0  0  0  0
   43.6241    4.3806   10.2018 C   0  0  0  0  0  0  0  0  0  0  0  0
   44.7109    3.5329    9.8443 O   0  0  0  0  0  0  0  0  0  0  0  0
   44.1883    2.3000    9.3413 N   0  0  0  0  0  0  0  0  0  0  0  0
   45.1020    1.5288    9.0335 O   0  0  0  0  0  0  0  0  0  0  0  0
   45.4147    7.2775   13.0290 H   0  0  0  0  0  0  0  0  0  0  0  0
   45.8227    5.6976   13.7326 H   0  0  0  0  0  0  0  0  0  0  0  0
   47.0875    6.7162   13.0250 H   0  0  0  0  0  0  0  0  0  0  0  0
   46.0340    6.4650   10.7713 H   0  0  0  0  0  0  0  0  0  0  0  0
   46.6122    4.9501   11.4537 H   0  0  0  0  0  0  0  0  0  0  0  0
   44.3006    4.3709   12.1838 H   0  0  0  0  0  0  0  0  0  0  0  0
   44.5700    5.0475    9.2074 H   0  0  0  0  0  0  0  0  0  0  0  0
   43.3446    3.9543    9.9056 H   0  0  0  0  0  0  0  0  0  0  0  0
   43.2920    6.6091   12.4542 H   0  0  0  0  0  0  0  0  0  0  0  0
   42.3568    5.6909   11.2780 H   0  0  0  0  0  0  0  0  0  0  0  0
   43.4804    6.9432   10.7225 H   0  0  0  0  0  0  0  0  0  0  0  0
   46.6540    4.9220   11.7323 H   0  0  0  0  0  0  0  0  0  0  0  0
   45.5408    3.6374   12.2465 H   0  0  0  0  0  0  0  0  0  0  0  0
   46.2161    4.7393   13.4391 H   0  0  0  0  0  0  0  0  0  0  0  0
   43.8213    5.2686   12.8468 H   0  0  0  0  0  0  0  0  0  0  0  0
   45.8593    7.4386   12.1227 H   0  0  0  0  0  0  0  0  0  0  0  0
   45.3312    7.0064   13.7589 H   0  0  0  0  0  0  0  0  0  0  0  0
   44.1796    7.7135   12.6194 H   0  0  0  0  0  0  0  0  0  0  0  0
   43.3513    6.4392   10.7069 H   0  0  0  0  0  0  0  0  0  0  0  0
   44.9756    6.0634   10.1202 H   0  0  0  0  0  0  0  0  0  0  0  0
   43.0326    4.5944    9.3025 H   0  0  0  0  0  0  0  0  0  0  0  0
   42.9776    3.8891   10.9395 H   0  0  0  0  0  0  0  0  0  0  0  0
  1  2  1  0
  2  3  1  0
  3  4  1  0
  4  5  1  0
  5  6  1  0
  6  7  2  0
  3  8  1  0
  9 10  1  0
 10 11  1  0
 10 12  1  0
 12 13  1  0
 13 14  1  0
 14 15  1  0
 15 16  2  0
  1 17  1  0
  1 18  1  0
  1 19  1  0
  2 20  1  0
  2 21  1  0
  3 22  1  1
  4 23  1  0
  4 24  1  0
  8 25  1  0
  8 26  1  0
  8 27  1  0
  9 28  1  0
  9 29  1  0
  9 30  1  0
 10 31  1  0
 11 32  1  0
 11 33  1  0
 11 34  1  0
 12 35  1  0
 12 36  1  0
 13 37  1  0
 13 38  1  0
M  END
> <Uni-Dock RESULT> 
ENERGY=   -3.931  LOWER_BOUND=    1.661  UPPER_BOUND=    2.373
INTER + INTRA:          -3.931
INTER:                  -3.931
INTRA:                   0.000
UNBOUND:                 0.000

$$$$
