
     RDKit          3D

 92 90  0  0  0  0  0  0  0  0999 V2000
   44.2778    4.0040    9.0640 C   0  0  0  0  0  0  0  0  0  0  0  0
   45.4395    1.8160    9.3590 N   0  0  0  0  0  0  0  0  0  0  0  0
   43.9709    4.5232   10.4510 C   0  0  0  0  0  0  0  0  0  0  0  0
   45.6078    3.2221    8.9638 C   0  0  1  0  0  0  0  0  0  0  0  0
   44.0369    5.8970   10.7260 C   0  0  0  0  0  0  0  0  0  0  0  0
   43.6111    3.6451   11.4811 C   0  0  0  0  0  0  0  0  0  0  0  0
   46.1458    3.2672    7.5319 C   0  0  0  0  0  0  0  0  0  0  0  0
   43.7453    6.3802   12.0038 C   0  0  0  0  0  0  0  0  0  0  0  0
   43.3214    4.1305   12.7578 C   0  0  0  0  0  0  0  0  0  0  0  0
   43.3858    5.4963   13.0192 C   0  0  0  0  0  0  0  0  0  0  0  0
   45.3315    2.9556   10.1922 C   0  0  0  0  0  0  0  0  0  0  0  0
   45.5623    1.6421    8.1052 N   0  0  0  0  0  0  0  0  0  0  0  0
   44.5895    4.0478   10.9255 C   0  0  0  0  0  0  0  0  0  0  0  0
   44.9406    2.8317    8.7041 C   0  0  2  0  0  0  0  0  0  0  0  0
   45.2346    5.2454   11.2597 C   0  0  0  0  0  0  0  0  0  0  0  0
   43.2418    3.8839   11.2728 C   0  0  0  0  0  0  0  0  0  0  0  0
   45.3617    4.0544    7.8874 C   0  0  0  0  0  0  0  0  0  0  0  0
   42.5532    4.8977   11.9399 C   0  0  0  0  0  0  0  0  0  0  0  0
   44.5450    6.2591   11.9254 C   0  0  0  0  0  0  0  0  0  0  0  0
   43.2050    6.0858   12.2625 C   0  0  0  0  0  0  0  0  0  0  0  0
   45.1365    5.0738   10.2997 C   0  0  0  0  0  0  0  0  0  0  0  0
   44.5187    2.6606   10.0468 C   0  0  0  0  0  0  0  0  0  0  0  0
   44.6808    5.1078   11.7289 C   0  0  0  0  0  0  0  0  0  0  0  0
   44.3359    4.0723    9.4765 C   0  0  2  0  0  0  0  0  0  0  0  0
   44.0023    2.2208   11.0607 O   0  0  0  0  0  0  0  0  0  0  0  0
   45.3904    4.9475   12.7069 O   0  0  0  0  0  0  0  0  0  0  0  0
   44.7693    4.1325    8.0528 N   0  0  0  0  0  0  0  0  0  0  0  0
   45.3657    1.8876    9.3288 O   0  0  0  0  0  0  0  0  0  0  0  0
   43.3723    5.3862   11.8629 O   0  0  0  0  0  0  0  0  0  0  0  0
   43.9419    3.1274    9.5705 C   0  0  0  0  0  0  0  0  0  0  0  0
   45.0873    1.6178    7.9729 N   0  0  0  0  0  0  0  0  0  0  0  0
   44.0836    4.1418   10.6814 C   0  0  0  0  0  0  0  0  0  0  0  0
   45.2863    2.7176    8.9284 C   0  0  1  0  0  0  0  0  0  0  0  0
   43.7490    5.4858   10.4676 C   0  0  0  0  0  0  0  0  0  0  0  0
   44.5662    3.7553   11.9384 C   0  0  0  0  0  0  0  0  0  0  0  0
   45.9591    3.8774    8.1919 C   0  0  0  0  0  0  0  0  0  0  0  0
   43.8976    6.4239   11.4905 C   0  0  0  0  0  0  0  0  0  0  0  0
   44.7119    4.6940   12.9609 C   0  0  0  0  0  0  0  0  0  0  0  0
   44.3795    6.0277   12.7361 C   0  0  0  0  0  0  0  0  0  0  0  0
   44.7290    3.6210   10.2870 S   0  0  0  0  0  0  0  0  0  0  0  0
   44.3862    2.4344    9.5424 O   0  0  0  0  0  0  0  0  0  0  0  0
   45.7540    3.6424   11.3003 O   0  0  0  0  0  0  0  0  0  0  0  0
   45.1179    4.7444    9.2090 O   0  0  0  0  0  0  0  0  0  0  0  0
   43.4003    4.2466   10.9342 O   0  0  0  0  0  0  0  0  0  0  0  0
   43.4349    3.3898    8.7200 H   0  0  0  0  0  0  0  0  0  0  0  0
   44.3083    4.8599    8.3759 H   0  0  0  0  0  0  0  0  0  0  0  0
   44.8085    1.3508    8.7087 H   0  0  0  0  0  0  0  0  0  0  0  0
   46.3328    1.3319    9.2820 H   0  0  0  0  0  0  0  0  0  0  0  0
   46.3568    3.6763    9.6255 H   0  0  0  0  0  0  0  0  0  0  0  0
   44.3153    6.6039    9.9478 H   0  0  0  0  0  0  0  0  0  0  0  0
   43.5621    2.5738   11.2965 H   0  0  0  0  0  0  0  0  0  0  0  0
   45.4412    2.8180    6.8234 H   0  0  0  0  0  0  0  0  0  0  0  0
   46.3327    4.3017    7.2202 H   0  0  0  0  0  0  0  0  0  0  0  0
   47.0943    2.7254    7.4507 H   0  0  0  0  0  0  0  0  0  0  0  0
   43.7973    7.4469   12.2038 H   0  0  0  0  0  0  0  0  0  0  0  0
   43.0449    3.4375   13.5476 H   0  0  0  0  0  0  0  0  0  0  0  0
   43.1587    5.8723   14.0128 H   0  0  0  0  0  0  0  0  0  0  0  0
   45.1274    2.0081   10.7099 H   0  0  0  0  0  0  0  0  0  0  0  0
   46.4140    3.1120   10.2865 H   0  0  0  0  0  0  0  0  0  0  0  0
   46.5768    1.7240    8.1470 H   0  0  0  0  0  0  0  0  0  0  0  0
   45.3183    0.8158    8.6480 H   0  0  0  0  0  0  0  0  0  0  0  0
   43.8545    2.7159    8.6160 H   0  0  0  0  0  0  0  0  0  0  0  0
   46.2789    5.3983   10.9990 H   0  0  0  0  0  0  0  0  0  0  0  0
   42.7184    2.9635   11.0241 H   0  0  0  0  0  0  0  0  0  0  0  0
   44.8423    4.9564    8.2272 H   0  0  0  0  0  0  0  0  0  0  0  0
   45.1192    3.9201    6.8268 H   0  0  0  0  0  0  0  0  0  0  0  0
   46.4387    4.2362    7.9650 H   0  0  0  0  0  0  0  0  0  0  0  0
   41.5082    4.7624   12.2038 H   0  0  0  0  0  0  0  0  0  0  0  0
   45.0544    7.1849   12.1800 H   0  0  0  0  0  0  0  0  0  0  0  0
   42.6678    6.8764   12.7769 H   0  0  0  0  0  0  0  0  0  0  0  0
   46.2027    4.8134   10.2973 H   0  0  0  0  0  0  0  0  0  0  0  0
   45.0445    6.0881    9.8938 H   0  0  0  0  0  0  0  0  0  0  0  0
   43.2639    4.2994    9.4969 H   0  0  0  0  0  0  0  0  0  0  0  0
   45.7202    3.7530    8.0044 H   0  0  0  0  0  0  0  0  0  0  0  0
   44.2134    3.4548    7.5260 H   0  0  0  0  0  0  0  0  0  0  0  0
   45.3871    1.0431    9.8239 H   0  0  0  0  0  0  0  0  0  0  0  0
   43.2162    5.3508   12.8316 H   0  0  0  0  0  0  0  0  0  0  0  0
   43.2591    3.5134    8.8015 H   0  0  0  0  0  0  0  0  0  0  0  0
   43.4434    2.2414    9.9874 H   0  0  0  0  0  0  0  0  0  0  0  0
   44.6071    0.8457    8.4342 H   0  0  0  0  0  0  0  0  0  0  0  0
   44.4733    1.9229    7.2179 H   0  0  0  0  0  0  0  0  0  0  0  0
   45.9713    2.3591    9.7056 H   0  0  0  0  0  0  0  0  0  0  0  0
   43.3762    5.8130    9.5005 H   0  0  0  0  0  0  0  0  0  0  0  0
   44.8320    2.7186   12.1303 H   0  0  0  0  0  0  0  0  0  0  0  0
   46.2217    4.6852    8.8824 H   0  0  0  0  0  0  0  0  0  0  0  0
   46.8880    3.5515    7.7116 H   0  0  0  0  0  0  0  0  0  0  0  0
   45.3076    4.2914    7.4157 H   0  0  0  0  0  0  0  0  0  0  0  0
   43.6415    7.4652   11.3140 H   0  0  0  0  0  0  0  0  0  0  0  0
   45.0849    4.3852   13.9339 H   0  0  0  0  0  0  0  0  0  0  0  0
   44.4971    6.7587   13.5314 H   0  0  0  0  0  0  0  0  0  0  0  0
   45.6411    4.3054    8.5026 H   0  0  0  0  0  0  0  0  0  0  0  0
   43.6178    5.1335   11.2910 H   0  0  0  0  0  0  0  0  0  0  0  0
  4  2  1  0
  3  1  1  0
  4  1  1  0
  5  3  2  0
  6  3  1  0
  4  7  1  0
  8  5  1  0
  9  6  2  0
 10  8  2  0
  9 10  1  0
 12 14  1  0
 13 11  1  0
 14 11  1  0
 15 13  2  0
 16 13  1  0
 17 14  1  0
 18 16  2  0
 19 15  1  0
 20 18  1  0
 19 20  2  0
 22 24  1  0
 23 21  1  0
 24 21  1  0
 25 22  2  0
 26 23  2  0
 27 24  1  0
 28 22  1  0
 29 23  1  0
 33 31  1  0
 32 30  1  0
 33 30  1  0
 34 32  2  0
 35 32  1  0
 33 36  1  0
 37 34  1  0
 38 35  2  0
 39 37  2  0
 38 39  1  0
 41 40  2  0
 42 40  2  0
 43 40  1  0
 44 40  1  0
  1 45  1  0
  1 46  1  0
  2 47  1  0
  2 48  1  0
  4 49  1  1
  5 50  1  0
  6 51  1  0
  7 52  1  0
  7 53  1  0
  7 54  1  0
  8 55  1  0
  9 56  1  0
 10 57  1  0
 11 58  1  0
 11 59  1  0
 12 60  1  0
 12 61  1  0
 14 62  1  6
 15 63  1  0
 16 64  1  0
 17 65  1  0
 17 66  1  0
 17 67  1  0
 18 68  1  0
 19 69  1  0
 20 70  1  0
 21 71  1  0
 21 72  1  0
 24 73  1  6
 27 74  1  0
 27 75  1  0
 28 76  1  0
 29 77  1  0
 30 78  1  0
 30 79  1  0
 31 80  1  0
 31 81  1  0
 33 82  1  1
 34 83  1  0
 35 84  1  0
 36 85  1  0
 36 86  1  0
 36 87  1  0
 37 88  1  0
 38 89  1  0
 39 90  1  0
 43 91  1  0
 44 92  1  0
M  END
> <Uni-Dock RESULT> 
ENERGY=  -10.378  LOWER_BOUND=    0.000  UPPER_BOUND=    0.000
INTER + INTRA:         -10.378
INTER:                 -10.378
INTRA:                   0.000
UNBOUND:                 0.000

$$$$

     RDKit          3D

 92 90  0  0  0  0  0  0  0  0999 V2000
   46.0583    6.3447   13.2124 C   0  0  0  0  0  0  0  0  0  0  0  0
   45.8675    8.4538   11.8935 N   0  0  0  0  0  0  0  0  0  0  0  0
   45.0200    5.3928   12.6616 C   0  0  0  0  0  0  0  0  0  0  0  0
   46.6963    7.2662   12.1474 C   0  0  1  0  0  0  0  0  0  0  0  0
   45.2869    4.0179   12.5840 C   0  0  0  0  0  0  0  0  0  0  0  0
   43.7754    5.8644   12.2256 C   0  0  0  0  0  0  0  0  0  0  0  0
   48.0834    7.7253   12.6023 C   0  0  0  0  0  0  0  0  0  0  0  0
   44.3266    3.1353   12.0841 C   0  0  0  0  0  0  0  0  0  0  0  0
   42.8177    4.9802   11.7251 C   0  0  0  0  0  0  0  0  0  0  0  0
   43.0911    3.6170   11.6562 C   0  0  0  0  0  0  0  0  0  0  0  0
   45.5479    7.1087   11.5881 C   0  0  0  0  0  0  0  0  0  0  0  0
   46.8041    9.0176   12.5435 N   0  0  0  0  0  0  0  0  0  0  0  0
   44.9013    5.7666   11.8371 C   0  0  0  0  0  0  0  0  0  0  0  0
   46.3590    7.6386   12.7898 C   0  0  2  0  0  0  0  0  0  0  0  0
   45.4220    4.6063   11.2501 C   0  0  0  0  0  0  0  0  0  0  0  0
   43.7775    5.6606   12.6675 C   0  0  0  0  0  0  0  0  0  0  0  0
   47.5923    6.7828   13.0831 C   0  0  0  0  0  0  0  0  0  0  0  0
   43.1873    4.4191   12.9067 C   0  0  0  0  0  0  0  0  0  0  0  0
   44.8322    3.3653   11.4909 C   0  0  0  0  0  0  0  0  0  0  0  0
   43.7175    3.2721   12.3205 C   0  0  0  0  0  0  0  0  0  0  0  0
   46.0103    5.0524   11.8947 C   0  0  0  0  0  0  0  0  0  0  0  0
   45.0684    7.3392   12.2851 C   0  0  0  0  0  0  0  0  0  0  0  0
   44.6998    4.5287   11.3850 C   0  0  0  0  0  0  0  0  0  0  0  0
   45.8134    6.1600   12.9223 C   0  0  2  0  0  0  0  0  0  0  0  0
   43.8769    7.3839   12.0274 O   0  0  0  0  0  0  0  0  0  0  0  0
   44.3667    4.4606   10.2145 O   0  0  0  0  0  0  0  0  0  0  0  0
   47.1357    6.5904   13.4559 N   0  0  0  0  0  0  0  0  0  0  0  0
   45.8671    8.3869   11.9773 O   0  0  0  0  0  0  0  0  0  0  0  0
   43.8934    4.0750   12.3604 O   0  0  0  0  0  0  0  0  0  0  0  0
   45.2112    6.9787   13.0770 C   0  0  0  0  0  0  0  0  0  0  0  0
   46.6045    9.0269   12.9949 N   0  0  0  0  0  0  0  0  0  0  0  0
   44.8015    5.6951   12.3932 C   0  0  0  0  0  0  0  0  0  0  0  0
   46.3697    7.7169   12.3696 C   0  0  1  0  0  0  0  0  0  0  0  0
   45.1728    4.4530   12.9253 C   0  0  0  0  0  0  0  0  0  0  0  0
   44.0561    5.7289   11.2075 C   0  0  0  0  0  0  0  0  0  0  0  0
   47.6777    6.9247   12.4097 C   0  0  0  0  0  0  0  0  0  0  0  0
   44.8078    3.2693   12.2818 C   0  0  0  0  0  0  0  0  0  0  0  0
   43.6899    4.5444   10.5667 C   0  0  0  0  0  0  0  0  0  0  0  0
   44.0672    3.3156   11.1027 C   0  0  0  0  0  0  0  0  0  0  0  0
   45.3197    6.3821   12.0726 S   0  0  0  0  0  0  0  0  0  0  0  0
   45.2859    7.6928   12.6734 O   0  0  0  0  0  0  0  0  0  0  0  0
   45.2090    6.1675   10.6515 O   0  0  0  0  0  0  0  0  0  0  0  0
   46.6933    5.6967   12.5403 O   0  0  0  0  0  0  0  0  0  0  0  0
   44.2342    5.4402   12.7868 O   0  0  0  0  0  0  0  0  0  0  0  0
   45.6061    6.9344   14.0211 H   0  0  0  0  0  0  0  0  0  0  0  0
   46.8460    5.7512   13.6964 H   0  0  0  0  0  0  0  0  0  0  0  0
   45.8143    9.0210   12.7378 H   0  0  0  0  0  0  0  0  0  0  0  0
   46.3160    9.0369   11.1884 H   0  0  0  0  0  0  0  0  0  0  0  0
   46.8095    6.7194   11.2024 H   0  0  0  0  0  0  0  0  0  0  0  0
   46.2447    3.6212   12.9127 H   0  0  0  0  0  0  0  0  0  0  0  0
   43.5470    6.9276   12.2660 H   0  0  0  0  0  0  0  0  0  0  0  0
   48.0330    8.2870   13.5415 H   0  0  0  0  0  0  0  0  0  0  0  0
   48.7468    6.8653   12.7523 H   0  0  0  0  0  0  0  0  0  0  0  0
   48.5505    8.3706   11.8504 H   0  0  0  0  0  0  0  0  0  0  0  0
   44.5441    2.0720   12.0315 H   0  0  0  0  0  0  0  0  0  0  0  0
   41.8570    5.3605   11.3893 H   0  0  0  0  0  0  0  0  0  0  0  0
   42.3442    2.9303   11.2677 H   0  0  0  0  0  0  0  0  0  0  0  0
   44.7507    7.8213   11.3351 H   0  0  0  0  0  0  0  0  0  0  0  0
   46.1856    7.0557   10.6961 H   0  0  0  0  0  0  0  0  0  0  0  0
   47.4156    9.0433   11.7291 H   0  0  0  0  0  0  0  0  0  0  0  0
   46.0020    9.6034   12.3189 H   0  0  0  0  0  0  0  0  0  0  0  0
   45.7273    7.6509   13.6851 H   0  0  0  0  0  0  0  0  0  0  0  0
   46.2947    4.6614   10.6041 H   0  0  0  0  0  0  0  0  0  0  0  0
   43.3546    6.5467   13.1354 H   0  0  0  0  0  0  0  0  0  0  0  0
   47.3091    5.7668   13.3773 H   0  0  0  0  0  0  0  0  0  0  0  0
   48.1779    7.2079   13.9065 H   0  0  0  0  0  0  0  0  0  0  0  0
   48.2467    6.7102   12.2082 H   0  0  0  0  0  0  0  0  0  0  0  0
   42.3173    4.3463   13.5531 H   0  0  0  0  0  0  0  0  0  0  0  0
   45.2439    2.4706   11.0310 H   0  0  0  0  0  0  0  0  0  0  0  0
   43.2614    2.3057   12.5108 H   0  0  0  0  0  0  0  0  0  0  0  0
   46.5790    5.4209   11.0313 H   0  0  0  0  0  0  0  0  0  0  0  0
   46.5667    4.2084   12.3192 H   0  0  0  0  0  0  0  0  0  0  0  0
   45.2178    5.8166   13.7758 H   0  0  0  0  0  0  0  0  0  0  0  0
   47.6308    7.0725   12.6989 H   0  0  0  0  0  0  0  0  0  0  0  0
   46.9718    7.3290   14.1439 H   0  0  0  0  0  0  0  0  0  0  0  0
   45.2554    9.0350   11.5714 H   0  0  0  0  0  0  0  0  0  0  0  0
   43.0798    3.7927   11.8888 H   0  0  0  0  0  0  0  0  0  0  0  0
   45.4782    6.7725   14.1224 H   0  0  0  0  0  0  0  0  0  0  0  0
   44.3278    7.6305   13.1231 H   0  0  0  0  0  0  0  0  0  0  0  0
   45.7353    9.5595   13.0112 H   0  0  0  0  0  0  0  0  0  0  0  0
   46.8779    8.9007   13.9693 H   0  0  0  0  0  0  0  0  0  0  0  0
   46.1066    7.8950   11.3204 H   0  0  0  0  0  0  0  0  0  0  0  0
   45.7547    4.3985   13.8417 H   0  0  0  0  0  0  0  0  0  0  0  0
   43.7547    6.6797   10.7746 H   0  0  0  0  0  0  0  0  0  0  0  0
   47.5844    5.9792   11.8658 H   0  0  0  0  0  0  0  0  0  0  0  0
   48.4917    7.4864   11.9388 H   0  0  0  0  0  0  0  0  0  0  0  0
   47.9778    6.6978   13.4378 H   0  0  0  0  0  0  0  0  0  0  0  0
   45.1052    2.3105   12.6983 H   0  0  0  0  0  0  0  0  0  0  0  0
   43.1095    4.5797    9.6484 H   0  0  0  0  0  0  0  0  0  0  0  0
   43.7853    2.3940   10.6010 H   0  0  0  0  0  0  0  0  0  0  0  0
   47.3907    6.3884   12.5144 H   0  0  0  0  0  0  0  0  0  0  0  0
   44.3817    4.5176   12.4900 H   0  0  0  0  0  0  0  0  0  0  0  0
  4  2  1  0
  3  1  1  0
  4  1  1  0
  5  3  2  0
  6  3  1  0
  4  7  1  0
  8  5  1  0
  9  6  2  0
 10  8  2  0
  9 10  1  0
 12 14  1  0
 13 11  1  0
 14 11  1  0
 15 13  2  0
 16 13  1  0
 17 14  1  0
 18 16  2  0
 19 15  1  0
 20 18  1  0
 19 20  2  0
 22 24  1  0
 23 21  1  0
 24 21  1  0
 25 22  2  0
 26 23  2  0
 27 24  1  0
 28 22  1  0
 29 23  1  0
 33 31  1  0
 32 30  1  0
 33 30  1  0
 34 32  2  0
 35 32  1  0
 33 36  1  0
 37 34  1  0
 38 35  2  0
 39 37  2  0
 38 39  1  0
 41 40  2  0
 42 40  2  0
 43 40  1  0
 44 40  1  0
  1 45  1  0
  1 46  1  0
  2 47  1  0
  2 48  1  0
  4 49  1  1
  5 50  1  0
  6 51  1  0
  7 52  1  0
  7 53  1  0
  7 54  1  0
  8 55  1  0
  9 56  1  0
 10 57  1  0
 11 58  1  0
 11 59  1  0
 12 60  1  0
 12 61  1  0
 14 62  1  6
 15 63  1  0
 16 64  1  0
 17 65  1  0
 17 66  1  0
 17 67  1  0
 18 68  1  0
 19 69  1  0
 20 70  1  0
 21 71  1  0
 21 72  1  0
 24 73  1  6
 27 74  1  0
 27 75  1  0
 28 76  1  0
 29 77  1  0
 30 78  1  0
 30 79  1  0
 31 80  1  0
 31 81  1  0
 33 82  1  1
 34 83  1  0
 35 84  1  0
 36 85  1  0
 36 86  1  0
 36 87  1  0
 37 88  1  0
 38 89  1  0
 39 90  1  0
 43 91  1  0
 44 92  1  0
M  END
> <Uni-Dock RESULT> 
ENERGY=   -9.216  LOWER_BOUND=    2.640  UPPER_BOUND=    4.466
INTER + INTRA:          -9.216
INTER:                  -9.216
INTRA:                   0.000
UNBOUND:                 0.000

$$$$

     RDKit          3D

 92 90  0  0  0  0  0  0  0  0999 V2000
   46.5328    6.6217   11.9936 C   0  0  0  0  0  0  0  0  0  0  0  0
   47.7158    5.9243   14.0763 N   0  0  0  0  0  0  0  0  0  0  0  0
   45.3518    5.6907   11.8326 C   0  0  0  0  0  0  0  0  0  0  0  0
   46.8722    6.9607   13.4633 C   0  0  1  0  0  0  0  0  0  0  0  0
   44.1385    6.1656   11.3133 C   0  0  0  0  0  0  0  0  0  0  0  0
   45.4495    4.3407   12.1927 C   0  0  0  0  0  0  0  0  0  0  0  0
   47.6061    8.3011   13.5450 C   0  0  0  0  0  0  0  0  0  0  0  0
   43.0488    5.3060   11.1552 C   0  0  0  0  0  0  0  0  0  0  0  0
   44.3584    3.4839   12.0349 C   0  0  0  0  0  0  0  0  0  0  0  0
   43.1599    3.9644   11.5147 C   0  0  0  0  0  0  0  0  0  0  0  0
   46.3701    5.7916   13.6569 C   0  0  0  0  0  0  0  0  0  0  0  0
   48.5985    6.8315   13.9523 N   0  0  0  0  0  0  0  0  0  0  0  0
   45.2685    5.4089   12.6971 C   0  0  0  0  0  0  0  0  0  0  0  0
   47.4800    6.6517   13.0158 C   0  0  2  0  0  0  0  0  0  0  0  0
   44.0162    6.0326   12.7663 C   0  0  0  0  0  0  0  0  0  0  0  0
   45.4861    4.4321   11.7162 C   0  0  0  0  0  0  0  0  0  0  0  0
   46.9776    8.0350   12.5991 C   0  0  0  0  0  0  0  0  0  0  0  0
   44.4721    4.0870   10.8220 C   0  0  0  0  0  0  0  0  0  0  0  0
   43.0033    5.6880   11.8711 C   0  0  0  0  0  0  0  0  0  0  0  0
   43.2325    4.7179   10.8985 C   0  0  0  0  0  0  0  0  0  0  0  0
   44.7651    6.6176   12.5264 C   0  0  0  0  0  0  0  0  0  0  0  0
   46.8690    5.3735   13.0696 C   0  0  0  0  0  0  0  0  0  0  0  0
   43.9547    5.3557   12.4767 C   0  0  0  0  0  0  0  0  0  0  0  0
   46.2114    6.3753   12.1127 C   0  0  2  0  0  0  0  0  0  0  0  0
   46.6855    4.1676   13.0876 O   0  0  0  0  0  0  0  0  0  0  0  0
   43.3014    4.8921   13.3953 O   0  0  0  0  0  0  0  0  0  0  0  0
   46.9531    7.6669   12.1007 N   0  0  0  0  0  0  0  0  0  0  0  0
   47.6982    5.9454   13.9727 O   0  0  0  0  0  0  0  0  0  0  0  0
   43.9657    4.7644   11.2693 O   0  0  0  0  0  0  0  0  0  0  0  0
   46.9501    5.6724   12.2440 C   0  0  0  0  0  0  0  0  0  0  0  0
   48.8088    6.6921   13.5281 N   0  0  0  0  0  0  0  0  0  0  0  0
   45.4673    5.3935   12.1636 C   0  0  0  0  0  0  0  0  0  0  0  0
   47.3457    6.5960   13.4179 C   0  0  1  0  0  0  0  0  0  0  0  0
   44.6733    6.0265   11.1978 C   0  0  0  0  0  0  0  0  0  0  0  0
   44.8615    4.5080   13.0645 C   0  0  0  0  0  0  0  0  0  0  0  0
   46.7821    8.0099   13.2640 C   0  0  0  0  0  0  0  0  0  0  0  0
   43.3007    5.7802   11.1372 C   0  0  0  0  0  0  0  0  0  0  0  0
   43.4894    4.2610   13.0011 C   0  0  0  0  0  0  0  0  0  0  0  0
   42.7094    4.8983   12.0391 C   0  0  0  0  0  0  0  0  0  0  0  0
   45.9530    5.7480   12.8577 S   0  0  0  0  0  0  0  0  0  0  0  0
   47.3829    5.5781   12.9385 O   0  0  0  0  0  0  0  0  0  0  0  0
   45.0689    5.4941   13.9675 O   0  0  0  0  0  0  0  0  0  0  0  0
   45.6950    7.2630   12.3955 O   0  0  0  0  0  0  0  0  0  0  0  0
   45.3893    4.9299   11.5973 O   0  0  0  0  0  0  0  0  0  0  0  0
   47.4010    6.1861   11.4810 H   0  0  0  0  0  0  0  0  0  0  0  0
   46.3147    7.5504   11.4488 H   0  0  0  0  0  0  0  0  0  0  0  0
   48.6144    5.8873   13.5982 H   0  0  0  0  0  0  0  0  0  0  0  0
   47.9192    6.1786   15.0419 H   0  0  0  0  0  0  0  0  0  0  0  0
   45.9475    7.0403   14.0495 H   0  0  0  0  0  0  0  0  0  0  0  0
   44.0305    7.2091   11.0264 H   0  0  0  0  0  0  0  0  0  0  0  0
   46.3765    3.9494   12.6071 H   0  0  0  0  0  0  0  0  0  0  0  0
   48.5460    8.2797   12.9826 H   0  0  0  0  0  0  0  0  0  0  0  0
   46.9839    9.1091   13.1424 H   0  0  0  0  0  0  0  0  0  0  0  0
   47.8424    8.5575   14.5834 H   0  0  0  0  0  0  0  0  0  0  0  0
   42.1149    5.6852   10.7493 H   0  0  0  0  0  0  0  0  0  0  0  0
   44.4483    2.4393   12.3198 H   0  0  0  0  0  0  0  0  0  0  0  0
   42.3125    3.2960   11.3913 H   0  0  0  0  0  0  0  0  0  0  0  0
   46.8029    4.8635   14.0552 H   0  0  0  0  0  0  0  0  0  0  0  0
   45.9443    6.3108   14.5254 H   0  0  0  0  0  0  0  0  0  0  0  0
   48.2767    7.3222   14.7851 H   0  0  0  0  0  0  0  0  0  0  0  0
   48.9343    5.9229   14.2663 H   0  0  0  0  0  0  0  0  0  0  0  0
   47.8724    6.1454   12.1269 H   0  0  0  0  0  0  0  0  0  0  0  0
   43.8230    6.7954   13.5164 H   0  0  0  0  0  0  0  0  0  0  0  0
   46.4499    3.9335   11.6416 H   0  0  0  0  0  0  0  0  0  0  0  0
   46.2118    7.9605   11.8200 H   0  0  0  0  0  0  0  0  0  0  0  0
   47.7946    8.6434   12.1942 H   0  0  0  0  0  0  0  0  0  0  0  0
   46.5444    8.5758   13.4468 H   0  0  0  0  0  0  0  0  0  0  0  0
   44.6503    3.3297   10.0639 H   0  0  0  0  0  0  0  0  0  0  0  0
   42.0350    6.1779   11.9327 H   0  0  0  0  0  0  0  0  0  0  0  0
   42.4454    4.4530   10.1996 H   0  0  0  0  0  0  0  0  0  0  0  0
   44.7148    7.0043   13.5523 H   0  0  0  0  0  0  0  0  0  0  0  0
   44.2811    7.3532   11.8732 H   0  0  0  0  0  0  0  0  0  0  0  0
   46.2767    5.9568   11.1019 H   0  0  0  0  0  0  0  0  0  0  0  0
   47.0470    7.9767   13.0732 H   0  0  0  0  0  0  0  0  0  0  0  0
   47.9162    7.4737   11.8162 H   0  0  0  0  0  0  0  0  0  0  0  0
   48.0160    5.1899   14.5085 H   0  0  0  0  0  0  0  0  0  0  0  0
   43.4248    3.9544   11.3927 H   0  0  0  0  0  0  0  0  0  0  0  0
   47.2985    6.1001   11.2941 H   0  0  0  0  0  0  0  0  0  0  0  0
   47.4678    4.7079   12.3388 H   0  0  0  0  0  0  0  0  0  0  0  0
   49.2094    5.7570   13.5960 H   0  0  0  0  0  0  0  0  0  0  0  0
   49.1930    7.1040   12.6779 H   0  0  0  0  0  0  0  0  0  0  0  0
   46.9712    6.1764   14.3589 H   0  0  0  0  0  0  0  0  0  0  0  0
   45.1173    6.7212   10.4895 H   0  0  0  0  0  0  0  0  0  0  0  0
   45.4555    4.0034   13.8227 H   0  0  0  0  0  0  0  0  0  0  0  0
   45.6876    8.0032   13.2790 H   0  0  0  0  0  0  0  0  0  0  0  0
   47.1102    8.6551   14.0861 H   0  0  0  0  0  0  0  0  0  0  0  0
   47.1068    8.4710   12.3257 H   0  0  0  0  0  0  0  0  0  0  0  0
   42.6915    6.2801   10.3888 H   0  0  0  0  0  0  0  0  0  0  0  0
   43.0279    3.5707   13.7024 H   0  0  0  0  0  0  0  0  0  0  0  0
   41.6405    4.7086   11.9931 H   0  0  0  0  0  0  0  0  0  0  0  0
   46.3422    7.8296   12.8705 H   0  0  0  0  0  0  0  0  0  0  0  0
   44.4540    5.1867   11.4547 H   0  0  0  0  0  0  0  0  0  0  0  0
  4  2  1  0
  3  1  1  0
  4  1  1  0
  5  3  2  0
  6  3  1  0
  4  7  1  0
  8  5  1  0
  9  6  2  0
 10  8  2  0
  9 10  1  0
 12 14  1  0
 13 11  1  0
 14 11  1  0
 15 13  2  0
 16 13  1  0
 17 14  1  0
 18 16  2  0
 19 15  1  0
 20 18  1  0
 19 20  2  0
 22 24  1  0
 23 21  1  0
 24 21  1  0
 25 22  2  0
 26 23  2  0
 27 24  1  0
 28 22  1  0
 29 23  1  0
 33 31  1  0
 32 30  1  0
 33 30  1  0
 34 32  2  0
 35 32  1  0
 33 36  1  0
 37 34  1  0
 38 35  2  0
 39 37  2  0
 38 39  1  0
 41 40  2  0
 42 40  2  0
 43 40  1  0
 44 40  1  0
  1 45  1  0
  1 46  1  0
  2 47  1  0
  2 48  1  0
  4 49  1  1
  5 50  1  0
  6 51  1  0
  7 52  1  0
  7 53  1  0
  7 54  1  0
  8 55  1  0
  9 56  1  0
 10 57  1  0
 11 58  1  0
 11 59  1  0
 12 60  1  0
 12 61  1  0
 14 62  1  6
 15 63  1  0
 16 64  1  0
 17 65  1  0
 17 66  1  0
 17 67  1  0
 18 68  1  0
 19 69  1  0
 20 70  1  0
 21 71  1  0
 21 72  1  0
 24 73  1  6
 27 74  1  0
 27 75  1  0
 28 76  1  0
 29 77  1  0
 30 78  1  0
 30 79  1  0
 31 80  1  0
 31 81  1  0
 33 82  1  1
 34 83  1  0
 35 84  1  0
 36 85  1  0
 36 86  1  0
 36 87  1  0
 37 88  1  0
 38 89  1  0
 39 90  1  0
 43 91  1  0
 44 92  1  0
M  END
> <Uni-Dock RESULT> 
ENERGY=   -8.651  LOWER_BOUND=    2.694  UPPER_BOUND=    4.251
INTER + INTRA:          -8.651
INTER:                  -8.651
INTRA:                   0.000
UNBOUND:                 0.000

$$$$

     RDKit          3D

 92 90  0  0  0  0  0  0  0  0999 V2000
   44.3598    5.7595   13.0280 C   0  0  0  0  0  0  0  0  0  0  0  0
   44.8720    3.5489   11.9913 N   0  0  0  0  0  0  0  0  0  0  0  0
   45.6533    6.5433   13.0407 C   0  0  0  0  0  0  0  0  0  0  0  0
   44.1931    4.8385   11.7975 C   0  0  1  0  0  0  0  0  0  0  0  0
   45.6459    7.9297   12.8281 C   0  0  0  0  0  0  0  0  0  0  0  0
   46.8772    5.9020   13.2696 C   0  0  0  0  0  0  0  0  0  0  0  0
   42.7102    4.5754   11.5260 C   0  0  0  0  0  0  0  0  0  0  0  0
   46.8380    8.6574   12.8481 C   0  0  0  0  0  0  0  0  0  0  0  0
   48.0675    6.6316   13.2878 C   0  0  0  0  0  0  0  0  0  0  0  0
   48.0488    8.0079   13.0798 C   0  0  0  0  0  0  0  0  0  0  0  0
   45.4782    4.8221   11.8649 C   0  0  0  0  0  0  0  0  0  0  0  0
   43.6717    3.1456   12.1105 N   0  0  0  0  0  0  0  0  0  0  0  0
   46.1013    6.0972   12.3819 C   0  0  0  0  0  0  0  0  0  0  0  0
   44.1264    4.4799   12.5268 C   0  0  2  0  0  0  0  0  0  0  0  0
   46.0895    7.2614   11.6031 C   0  0  0  0  0  0  0  0  0  0  0  0
   46.6909    6.1375   13.6525 C   0  0  0  0  0  0  0  0  0  0  0  0
   43.0330    5.4897   12.1744 C   0  0  0  0  0  0  0  0  0  0  0  0
   47.2561    7.3186   14.1348 C   0  0  0  0  0  0  0  0  0  0  0  0
   46.6535    8.4422   12.0865 C   0  0  0  0  0  0  0  0  0  0  0  0
   47.2338    8.4707   13.3522 C   0  0  0  0  0  0  0  0  0  0  0  0
   45.2095    6.9348   11.8855 C   0  0  0  0  0  0  0  0  0  0  0  0
   45.5278    4.5921   12.7095 C   0  0  0  0  0  0  0  0  0  0  0  0
   46.6610    7.2666   12.0711 C   0  0  0  0  0  0  0  0  0  0  0  0
   44.7363    5.8928   12.8915 C   0  0  2  0  0  0  0  0  0  0  0  0
   46.6781    4.3932   13.0638 O   0  0  0  0  0  0  0  0  0  0  0  0
   47.5210    7.2079   11.2093 O   0  0  0  0  0  0  0  0  0  0  0  0
   43.2757    5.6567   12.7200 N   0  0  0  0  0  0  0  0  0  0  0  0
   44.8412    3.6214   12.0640 O   0  0  0  0  0  0  0  0  0  0  0  0
   46.9531    7.6983   13.3104 O   0  0  0  0  0  0  0  0  0  0  0  0
   45.0728    5.0252   13.3283 C   0  0  0  0  0  0  0  0  0  0  0  0
   43.6266    3.1478   12.6021 N   0  0  0  0  0  0  0  0  0  0  0  0
   45.9305    6.1987   12.9157 C   0  0  0  0  0  0  0  0  0  0  0  0
   44.3082    4.3718   12.1553 C   0  0  1  0  0  0  0  0  0  0  0  0
   45.5219    7.5116   13.1866 C   0  0  0  0  0  0  0  0  0  0  0  0
   47.1412    5.9912   12.2420 C   0  0  0  0  0  0  0  0  0  0  0  0
   43.2630    5.3080   11.5460 C   0  0  0  0  0  0  0  0  0  0  0  0
   46.3079    8.5942   12.7886 C   0  0  0  0  0  0  0  0  0  0  0  0
   47.9271    7.0747   11.8469 C   0  0  0  0  0  0  0  0  0  0  0  0
   47.5095    8.3753   12.1185 C   0  0  0  0  0  0  0  0  0  0  0  0
   45.5421    5.5526   12.3912 S   0  0  0  0  0  0  0  0  0  0  0  0
   45.1049    4.2957   12.9471 O   0  0  0  0  0  0  0  0  0  0  0  0
   46.3495    5.6454   11.2007 O   0  0  0  0  0  0  0  0  0  0  0  0
   44.2202    6.4227   12.1249 O   0  0  0  0  0  0  0  0  0  0  0  0
   46.2677    6.4167   13.5325 O   0  0  0  0  0  0  0  0  0  0  0  0
   44.2833    5.1852   13.9610 H   0  0  0  0  0  0  0  0  0  0  0  0
   43.5254    6.4734   13.0617 H   0  0  0  0  0  0  0  0  0  0  0  0
   44.4357    3.0446   12.7612 H   0  0  0  0  0  0  0  0  0  0  0  0
   44.7427    2.9688   11.1636 H   0  0  0  0  0  0  0  0  0  0  0  0
   44.6230    5.3218   10.9105 H   0  0  0  0  0  0  0  0  0  0  0  0
   44.7119    8.4562   12.6456 H   0  0  0  0  0  0  0  0  0  0  0  0
   46.9113    4.8259   13.4276 H   0  0  0  0  0  0  0  0  0  0  0  0
   42.2267    4.0842   12.3775 H   0  0  0  0  0  0  0  0  0  0  0  0
   42.1801    5.5139   11.3253 H   0  0  0  0  0  0  0  0  0  0  0  0
   42.5788    3.9323   10.6491 H   0  0  0  0  0  0  0  0  0  0  0  0
   46.8192    9.7315   12.6847 H   0  0  0  0  0  0  0  0  0  0  0  0
   49.0097    6.1205   13.4654 H   0  0  0  0  0  0  0  0  0  0  0  0
   48.9758    8.5741   13.0957 H   0  0  0  0  0  0  0  0  0  0  0  0
   46.1938    4.0067   12.0390 H   0  0  0  0  0  0  0  0  0  0  0  0
   45.3611    4.8796   10.7749 H   0  0  0  0  0  0  0  0  0  0  0  0
   43.5293    3.1280   11.1019 H   0  0  0  0  0  0  0  0  0  0  0  0
   44.3951    2.4573   12.3103 H   0  0  0  0  0  0  0  0  0  0  0  0
   44.2423    4.4636   13.6163 H   0  0  0  0  0  0  0  0  0  0  0  0
   45.6358    7.2570   10.6151 H   0  0  0  0  0  0  0  0  0  0  0  0
   46.7124    5.2470   14.2767 H   0  0  0  0  0  0  0  0  0  0  0  0
   43.2751    6.4863   12.5580 H   0  0  0  0  0  0  0  0  0  0  0  0
   42.0724    5.1971   12.6141 H   0  0  0  0  0  0  0  0  0  0  0  0
   42.8958    5.5697   11.0911 H   0  0  0  0  0  0  0  0  0  0  0  0
   47.7095    7.3408   15.1216 H   0  0  0  0  0  0  0  0  0  0  0  0
   46.6390    9.3405   11.4747 H   0  0  0  0  0  0  0  0  0  0  0  0
   47.6689    9.3908   13.7295 H   0  0  0  0  0  0  0  0  0  0  0  0
   45.0812    6.5690   10.8587 H   0  0  0  0  0  0  0  0  0  0  0  0
   44.6381    7.8661   11.9769 H   0  0  0  0  0  0  0  0  0  0  0  0
   44.8894    6.2299   13.9230 H   0  0  0  0  0  0  0  0  0  0  0  0
   43.1447    5.1781   11.8231 H   0  0  0  0  0  0  0  0  0  0  0  0
   42.9872    4.9584   13.4091 H   0  0  0  0  0  0  0  0  0  0  0  0
   45.4781    2.8794   12.0136 H   0  0  0  0  0  0  0  0  0  0  0  0
   47.9230    7.8500   13.2905 H   0  0  0  0  0  0  0  0  0  0  0  0
   44.3675    5.3387   14.1098 H   0  0  0  0  0  0  0  0  0  0  0  0
   45.7278    4.2828   13.8050 H   0  0  0  0  0  0  0  0  0  0  0  0
   44.2998    2.5229   13.0446 H   0  0  0  0  0  0  0  0  0  0  0  0
   42.9390    3.3775   13.3194 H   0  0  0  0  0  0  0  0  0  0  0  0
   45.0158    4.0863   11.3681 H   0  0  0  0  0  0  0  0  0  0  0  0
   44.5850    7.7007   13.7041 H   0  0  0  0  0  0  0  0  0  0  0  0
   47.4811    4.9824   12.0206 H   0  0  0  0  0  0  0  0  0  0  0  0
   43.7334    6.1929   11.1056 H   0  0  0  0  0  0  0  0  0  0  0  0
   42.7074    4.8082   10.7451 H   0  0  0  0  0  0  0  0  0  0  0  0
   42.5402    5.6444   12.2961 H   0  0  0  0  0  0  0  0  0  0  0  0
   45.9804    9.6092   12.9975 H   0  0  0  0  0  0  0  0  0  0  0  0
   48.8661    6.9046   11.3267 H   0  0  0  0  0  0  0  0  0  0  0  0
   48.1199    9.2185   11.8068 H   0  0  0  0  0  0  0  0  0  0  0  0
   43.5343    5.8146   11.7711 H   0  0  0  0  0  0  0  0  0  0  0  0
   46.4077    7.3250   13.1913 H   0  0  0  0  0  0  0  0  0  0  0  0
  4  2  1  0
  3  1  1  0
  4  1  1  0
  5  3  2  0
  6  3  1  0
  4  7  1  0
  8  5  1  0
  9  6  2  0
 10  8  2  0
  9 10  1  0
 12 14  1  0
 13 11  1  0
 14 11  1  0
 15 13  2  0
 16 13  1  0
 17 14  1  0
 18 16  2  0
 19 15  1  0
 20 18  1  0
 19 20  2  0
 22 24  1  0
 23 21  1  0
 24 21  1  0
 25 22  2  0
 26 23  2  0
 27 24  1  0
 28 22  1  0
 29 23  1  0
 33 31  1  0
 32 30  1  0
 33 30  1  0
 34 32  2  0
 35 32  1  0
 33 36  1  0
 37 34  1  0
 38 35  2  0
 39 37  2  0
 38 39  1  0
 41 40  2  0
 42 40  2  0
 43 40  1  0
 44 40  1  0
  1 45  1  0
  1 46  1  0
  2 47  1  0
  2 48  1  0
  4 49  1  1
  5 50  1  0
  6 51  1  0
  7 52  1  0
  7 53  1  0
  7 54  1  0
  8 55  1  0
  9 56  1  0
 10 57  1  0
 11 58  1  0
 11 59  1  0
 12 60  1  0
 12 61  1  0
 14 62  1  6
 15 63  1  0
 16 64  1  0
 17 65  1  0
 17 66  1  0
 17 67  1  0
 18 68  1  0
 19 69  1  0
 20 70  1  0
 21 71  1  0
 21 72  1  0
 24 73  1  6
 27 74  1  0
 27 75  1  0
 28 76  1  0
 29 77  1  0
 30 78  1  0
 30 79  1  0
 31 80  1  0
 31 81  1  0
 33 82  1  1
 34 83  1  0
 35 84  1  0
 36 85  1  0
 36 86  1  0
 36 87  1  0
 37 88  1  0
 38 89  1  0
 39 90  1  0
 43 91  1  0
 44 92  1  0
M  END
> <Uni-Dock RESULT> 
ENERGY=   -7.523  LOWER_BOUND=    2.470  UPPER_BOUND=    4.022
INTER + INTRA:          -7.523
INTER:                  -7.523
INTRA:                   0.000
UNBOUND:                 0.000

$$$$
