
     RDKit          3D

 92 90  0  0  0  0  0  0  0  0999 V2000
   44.8082    2.6094    7.6899 C   0  0  0  0  0  0  0  0  0  0  0  0
   47.1479    1.9418    8.2372 N   0  0  0  0  0  0  0  0  0  0  0  0
   44.4334    3.2025    9.0295 C   0  0  0  0  0  0  0  0  0  0  0  0
   46.3071    2.7568    7.3513 C   0  0  1  0  0  0  0  0  0  0  0  0
   44.2459    4.5841    9.1696 C   0  0  0  0  0  0  0  0  0  0  0  0
   44.2848    2.3788   10.1533 C   0  0  0  0  0  0  0  0  0  0  0  0
   46.5705    2.3312    5.9079 C   0  0  0  0  0  0  0  0  0  0  0  0
   43.9124    5.1297   10.4100 C   0  0  0  0  0  0  0  0  0  0  0  0
   43.9538    2.9262   11.3929 C   0  0  0  0  0  0  0  0  0  0  0  0
   43.7666    4.3008   11.5209 C   0  0  0  0  0  0  0  0  0  0  0  0
   44.3898    3.4972    8.8325 C   0  0  0  0  0  0  0  0  0  0  0  0
   44.6273    2.6041   11.1504 N   0  0  0  0  0  0  0  0  0  0  0  0
   45.5387    2.8876    8.0601 C   0  0  0  0  0  0  0  0  0  0  0  0
   44.7240    3.8054   10.3091 C   0  0  2  0  0  0  0  0  0  0  0  0
   45.8980    1.5471    8.2504 C   0  0  0  0  0  0  0  0  0  0  0  0
   46.2631    3.6564    7.1383 C   0  0  0  0  0  0  0  0  0  0  0  0
   43.7702    4.8673   10.8611 C   0  0  0  0  0  0  0  0  0  0  0  0
   47.3192    3.0938    6.4188 C   0  0  0  0  0  0  0  0  0  0  0  0
   46.9551    0.9859    7.5320 C   0  0  0  0  0  0  0  0  0  0  0  0
   47.6645    1.7585    6.6153 C   0  0  0  0  0  0  0  0  0  0  0  0
   44.9488    3.3540    7.6302 C   0  0  0  0  0  0  0  0  0  0  0  0
   44.6196    3.1965   10.1649 C   0  0  0  0  0  0  0  0  0  0  0  0
   46.4119    3.6409    7.8141 C   0  0  0  0  0  0  0  0  0  0  0  0
   44.3415    2.5683    8.7924 C   0  0  2  0  0  0  0  0  0  0  0  0
   44.7966    2.5874   11.2097 O   0  0  0  0  0  0  0  0  0  0  0  0
   47.1736    3.1195    8.6115 O   0  0  0  0  0  0  0  0  0  0  0  0
   44.7847    1.1511    8.7795 N   0  0  0  0  0  0  0  0  0  0  0  0
   44.5808    4.5427   10.1646 O   0  0  0  0  0  0  0  0  0  0  0  0
   46.8593    4.5675    6.9438 O   0  0  0  0  0  0  0  0  0  0  0  0
   44.4129    2.7866    9.1918 C   0  0  0  0  0  0  0  0  0  0  0  0
   44.7088    5.0596   10.1800 N   0  0  0  0  0  0  0  0  0  0  0  0
   45.5056    2.6652    8.1526 C   0  0  0  0  0  0  0  0  0  0  0  0
   44.8194    3.6154   10.4309 C   0  0  1  0  0  0  0  0  0  0  0  0
   46.2298    1.4719    8.0194 C   0  0  0  0  0  0  0  0  0  0  0  0
   45.8153    3.7410    7.3104 C   0  0  0  0  0  0  0  0  0  0  0  0
   43.9330    3.2573   11.6257 C   0  0  0  0  0  0  0  0  0  0  0  0
   47.2384    1.3573    7.0605 C   0  0  0  0  0  0  0  0  0  0  0  0
   46.8250    3.6264    6.3536 C   0  0  0  0  0  0  0  0  0  0  0  0
   47.5350    2.4344    6.2275 C   0  0  0  0  0  0  0  0  0  0  0  0
   45.4319    3.5335    8.7525 S   0  0  0  0  0  0  0  0  0  0  0  0
   45.0841    4.3375    7.6087 O   0  0  0  0  0  0  0  0  0  0  0  0
   46.2300    4.0070    9.8542 O   0  0  0  0  0  0  0  0  0  0  0  0
   44.0797    2.9514    9.3905 O   0  0  0  0  0  0  0  0  0  0  0  0
   46.1043    2.1940    8.1796 O   0  0  0  0  0  0  0  0  0  0  0  0
   44.2048    3.1061    6.9187 H   0  0  0  0  0  0  0  0  0  0  0  0
   44.5114    1.5523    7.6558 H   0  0  0  0  0  0  0  0  0  0  0  0
   48.1294    2.1358    8.0452 H   0  0  0  0  0  0  0  0  0  0  0  0
   46.9876    2.2345    9.2027 H   0  0  0  0  0  0  0  0  0  0  0  0
   46.6076    3.8062    7.4626 H   0  0  0  0  0  0  0  0  0  0  0  0
   44.3557    5.2433    8.3120 H   0  0  0  0  0  0  0  0  0  0  0  0
   44.4310    1.3041   10.0663 H   0  0  0  0  0  0  0  0  0  0  0  0
   47.6287    2.4489    5.6487 H   0  0  0  0  0  0  0  0  0  0  0  0
   46.2967    1.2836    5.7399 H   0  0  0  0  0  0  0  0  0  0  0  0
   45.9907    2.9461    5.2118 H   0  0  0  0  0  0  0  0  0  0  0  0
   43.7649    6.2017   10.5103 H   0  0  0  0  0  0  0  0  0  0  0  0
   43.8405    2.2788   12.2587 H   0  0  0  0  0  0  0  0  0  0  0  0
   43.5060    4.7264   12.4861 H   0  0  0  0  0  0  0  0  0  0  0  0
   43.5154    2.8366    8.7582 H   0  0  0  0  0  0  0  0  0  0  0  0
   44.0899    4.4249    8.3280 H   0  0  0  0  0  0  0  0  0  0  0  0
   43.6649    2.2684   11.1662 H   0  0  0  0  0  0  0  0  0  0  0  0
   44.8613    2.8431   12.1134 H   0  0  0  0  0  0  0  0  0  0  0  0
   45.7472    4.1931   10.3808 H   0  0  0  0  0  0  0  0  0  0  0  0
   45.3592    0.9352    8.9706 H   0  0  0  0  0  0  0  0  0  0  0  0
   46.0074    4.6999    6.9701 H   0  0  0  0  0  0  0  0  0  0  0  0
   43.8608    5.7998   10.2935 H   0  0  0  0  0  0  0  0  0  0  0  0
   43.9978    5.0963   11.9083 H   0  0  0  0  0  0  0  0  0  0  0  0
   42.7265    4.5381   10.8068 H   0  0  0  0  0  0  0  0  0  0  0  0
   47.8708    3.6982    5.7033 H   0  0  0  0  0  0  0  0  0  0  0  0
   47.2257   -0.0542    7.6941 H   0  0  0  0  0  0  0  0  0  0  0  0
   48.4878    1.3211    6.0571 H   0  0  0  0  0  0  0  0  0  0  0  0
   44.4288    4.3161    7.5382 H   0  0  0  0  0  0  0  0  0  0  0  0
   44.8181    2.8081    6.6881 H   0  0  0  0  0  0  0  0  0  0  0  0
   43.2517    2.5598    8.6725 H   0  0  0  0  0  0  0  0  0  0  0  0
   45.7969    1.1384    8.9543 H   0  0  0  0  0  0  0  0  0  0  0  0
   44.3934    0.6972    9.6098 H   0  0  0  0  0  0  0  0  0  0  0  0
   44.7649    4.7784   11.0992 H   0  0  0  0  0  0  0  0  0  0  0  0
   47.8142    4.6503    7.1467 H   0  0  0  0  0  0  0  0  0  0  0  0
   44.1247    1.7752    9.5085 H   0  0  0  0  0  0  0  0  0  0  0  0
   43.5133    3.2042    8.7208 H   0  0  0  0  0  0  0  0  0  0  0  0
   45.0049    5.5719   11.0101 H   0  0  0  0  0  0  0  0  0  0  0  0
   43.7325    5.3082   10.0255 H   0  0  0  0  0  0  0  0  0  0  0  0
   45.8600    3.3935   10.6975 H   0  0  0  0  0  0  0  0  0  0  0  0
   46.0134    0.6213    8.6611 H   0  0  0  0  0  0  0  0  0  0  0  0
   45.2756    4.6807    7.4048 H   0  0  0  0  0  0  0  0  0  0  0  0
   44.0427    2.1992   11.8834 H   0  0  0  0  0  0  0  0  0  0  0  0
   44.2090    3.8400   12.5115 H   0  0  0  0  0  0  0  0  0  0  0  0
   42.8745    3.4431   11.4123 H   0  0  0  0  0  0  0  0  0  0  0  0
   47.7928    0.4277    6.9642 H   0  0  0  0  0  0  0  0  0  0  0  0
   47.0588    4.4710    5.7106 H   0  0  0  0  0  0  0  0  0  0  0  0
   48.3203    2.3454    5.4820 H   0  0  0  0  0  0  0  0  0  0  0  0
   44.2884    2.6771   10.3077 H   0  0  0  0  0  0  0  0  0  0  0  0
   45.7110    2.0259    7.2987 H   0  0  0  0  0  0  0  0  0  0  0  0
  4  2  1  0
  3  1  1  0
  4  1  1  0
  5  3  2  0
  6  3  1  0
  4  7  1  0
  8  5  1  0
  9  6  2  0
 10  8  2  0
  9 10  1  0
 12 14  1  0
 13 11  1  0
 14 11  1  0
 15 13  2  0
 16 13  1  0
 17 14  1  0
 18 16  2  0
 19 15  1  0
 20 18  1  0
 19 20  2  0
 22 24  1  0
 23 21  1  0
 24 21  1  0
 25 22  2  0
 26 23  2  0
 27 24  1  0
 28 22  1  0
 29 23  1  0
 33 31  1  0
 32 30  1  0
 33 30  1  0
 34 32  2  0
 35 32  1  0
 33 36  1  0
 37 34  1  0
 38 35  2  0
 39 37  2  0
 38 39  1  0
 41 40  2  0
 42 40  2  0
 43 40  1  0
 44 40  1  0
  1 45  1  0
  1 46  1  0
  2 47  1  0
  2 48  1  0
  4 49  1  1
  5 50  1  0
  6 51  1  0
  7 52  1  0
  7 53  1  0
  7 54  1  0
  8 55  1  0
  9 56  1  0
 10 57  1  0
 11 58  1  0
 11 59  1  0
 12 60  1  0
 12 61  1  0
 14 62  1  1
 15 63  1  0
 16 64  1  0
 17 65  1  0
 17 66  1  0
 17 67  1  0
 18 68  1  0
 19 69  1  0
 20 70  1  0
 21 71  1  0
 21 72  1  0
 24 73  1  6
 27 74  1  0
 27 75  1  0
 28 76  1  0
 29 77  1  0
 30 78  1  0
 30 79  1  0
 31 80  1  0
 31 81  1  0
 33 82  1  1
 34 83  1  0
 35 84  1  0
 36 85  1  0
 36 86  1  0
 36 87  1  0
 37 88  1  0
 38 89  1  0
 39 90  1  0
 43 91  1  0
 44 92  1  0
M  END
> <Uni-Dock RESULT> 
ENERGY=  -11.593  LOWER_BOUND=    0.000  UPPER_BOUND=    0.000
INTER + INTRA:         -11.593
INTER:                 -11.593
INTRA:                   0.000
UNBOUND:                 0.000

$$$$

     RDKit          3D

 92 90  0  0  0  0  0  0  0  0999 V2000
   43.5274    4.0938   10.0985 C   0  0  0  0  0  0  0  0  0  0  0  0
   45.1613    5.2331   11.5990 N   0  0  0  0  0  0  0  0  0  0  0  0
   44.5139    3.4804    9.1304 C   0  0  0  0  0  0  0  0  0  0  0  0
   44.0830    4.2387   11.5314 C   0  0  1  0  0  0  0  0  0  0  0  0
   44.7182    2.0943    9.1042 C   0  0  0  0  0  0  0  0  0  0  0  0
   45.2495    4.2927    8.2572 C   0  0  0  0  0  0  0  0  0  0  0  0
   42.9731    4.6626   12.4918 C   0  0  0  0  0  0  0  0  0  0  0  0
   45.6386    1.5324    8.2182 C   0  0  0  0  0  0  0  0  0  0  0  0
   46.1708    3.7296    7.3741 C   0  0  0  0  0  0  0  0  0  0  0  0
   46.3643    2.3500    7.3539 C   0  0  0  0  0  0  0  0  0  0  0  0
   44.3676    3.1768    9.2490 C   0  0  0  0  0  0  0  0  0  0  0  0
   46.2921    4.1721    8.0109 N   0  0  0  0  0  0  0  0  0  0  0  0
   44.2695    3.9793   10.5275 C   0  0  0  0  0  0  0  0  0  0  0  0
   45.8141    2.9885    8.7395 C   0  0  2  0  0  0  0  0  0  0  0  0
   44.4377    5.3699   10.5147 C   0  0  0  0  0  0  0  0  0  0  0  0
   44.0069    3.3423   11.7485 C   0  0  0  0  0  0  0  0  0  0  0  0
   45.8983    1.7752    7.8106 C   0  0  0  0  0  0  0  0  0  0  0  0
   43.9085    4.0818   12.9287 C   0  0  0  0  0  0  0  0  0  0  0  0
   44.3410    6.1084   11.6953 C   0  0  0  0  0  0  0  0  0  0  0  0
   44.0749    5.4647   12.9017 C   0  0  0  0  0  0  0  0  0  0  0  0
   43.6571    3.3910   10.3570 C   0  0  0  0  0  0  0  0  0  0  0  0
   45.5540    3.5594    8.6449 C   0  0  0  0  0  0  0  0  0  0  0  0
   44.6449    3.4086   11.4886 C   0  0  0  0  0  0  0  0  0  0  0  0
   44.1802    4.0755    9.0943 C   0  0  2  0  0  0  0  0  0  0  0  0
   46.4310    4.2242    8.1132 O   0  0  0  0  0  0  0  0  0  0  0  0
   45.6475    4.0967   11.5850 O   0  0  0  0  0  0  0  0  0  0  0  0
   44.2152    5.5516    9.2522 N   0  0  0  0  0  0  0  0  0  0  0  0
   45.7182    2.2333    8.8133 O   0  0  0  0  0  0  0  0  0  0  0  0
   44.2959    2.5632   12.4785 O   0  0  0  0  0  0  0  0  0  0  0  0
   44.5796    3.8887    8.9610 C   0  0  0  0  0  0  0  0  0  0  0  0
   45.8719    1.7532    8.9856 N   0  0  0  0  0  0  0  0  0  0  0  0
   44.2974    4.1934   10.4156 C   0  0  0  0  0  0  0  0  0  0  0  0
   45.9406    3.1975    8.7208 C   0  0  1  0  0  0  0  0  0  0  0  0
   44.4167    5.5027   10.9033 C   0  0  0  0  0  0  0  0  0  0  0  0
   43.9173    3.1753   11.2998 C   0  0  0  0  0  0  0  0  0  0  0  0
   46.3977    3.4085    7.2758 C   0  0  0  0  0  0  0  0  0  0  0  0
   44.1562    5.7865   12.2455 C   0  0  0  0  0  0  0  0  0  0  0  0
   43.6590    3.4593   12.6416 C   0  0  0  0  0  0  0  0  0  0  0  0
   43.7766    4.7647   13.1139 C   0  0  0  0  0  0  0  0  0  0  0  0
   44.8735    3.3473   10.1483 S   0  0  0  0  0  0  0  0  0  0  0  0
   43.8485    2.4543   10.6253 O   0  0  0  0  0  0  0  0  0  0  0  0
   46.2849    3.0781   10.2515 O   0  0  0  0  0  0  0  0  0  0  0  0
   44.5855    3.6669    8.6026 O   0  0  0  0  0  0  0  0  0  0  0  0
   44.5806    4.7755   10.8184 O   0  0  0  0  0  0  0  0  0  0  0  0
   42.6292    3.4624   10.1127 H   0  0  0  0  0  0  0  0  0  0  0  0
   43.1919    5.0686    9.7189 H   0  0  0  0  0  0  0  0  0  0  0  0
   45.5632    5.2334   12.5352 H   0  0  0  0  0  0  0  0  0  0  0  0
   45.9136    4.9449   10.9708 H   0  0  0  0  0  0  0  0  0  0  0  0
   44.4833    3.2748   11.8696 H   0  0  0  0  0  0  0  0  0  0  0  0
   44.1591    1.4437    9.7721 H   0  0  0  0  0  0  0  0  0  0  0  0
   45.1088    5.3716    8.2656 H   0  0  0  0  0  0  0  0  0  0  0  0
   43.3506    4.7510   13.5168 H   0  0  0  0  0  0  0  0  0  0  0  0
   42.5407    5.6285   12.2074 H   0  0  0  0  0  0  0  0  0  0  0  0
   42.1663    3.9226   12.5007 H   0  0  0  0  0  0  0  0  0  0  0  0
   45.7891    0.4563    8.2009 H   0  0  0  0  0  0  0  0  0  0  0  0
   46.7364    4.3682    6.7004 H   0  0  0  0  0  0  0  0  0  0  0  0
   47.0800    1.9117    6.6637 H   0  0  0  0  0  0  0  0  0  0  0  0
   43.7394    3.6464    8.4801 H   0  0  0  0  0  0  0  0  0  0  0  0
   43.9149    2.1925    9.4251 H   0  0  0  0  0  0  0  0  0  0  0  0
   45.7352    4.3088    7.1681 H   0  0  0  0  0  0  0  0  0  0  0  0
   47.2494    4.0153    7.6973 H   0  0  0  0  0  0  0  0  0  0  0  0
   46.4836    2.8159    9.5906 H   0  0  0  0  0  0  0  0  0  0  0  0
   44.6563    5.8840    9.5812 H   0  0  0  0  0  0  0  0  0  0  0  0
   43.8723    2.2640   11.7893 H   0  0  0  0  0  0  0  0  0  0  0  0
   45.6065    0.8623    8.3409 H   0  0  0  0  0  0  0  0  0  0  0  0
   46.9204    1.6296    7.4432 H   0  0  0  0  0  0  0  0  0  0  0  0
   45.2401    1.8870    6.9418 H   0  0  0  0  0  0  0  0  0  0  0  0
   43.6998    3.5778   13.8688 H   0  0  0  0  0  0  0  0  0  0  0  0
   44.4790    7.1861   11.6705 H   0  0  0  0  0  0  0  0  0  0  0  0
   44.0005    6.0402   13.8204 H   0  0  0  0  0  0  0  0  0  0  0  0
   43.4306    2.3419   10.1277 H   0  0  0  0  0  0  0  0  0  0  0  0
   42.7310    3.8696   10.6975 H   0  0  0  0  0  0  0  0  0  0  0  0
   43.4868    3.8620    8.2722 H   0  0  0  0  0  0  0  0  0  0  0  0
   44.9089    5.7721    9.9771 H   0  0  0  0  0  0  0  0  0  0  0  0
   44.6269    5.9440    8.4007 H   0  0  0  0  0  0  0  0  0  0  0  0
   46.6243    2.0688    8.4744 H   0  0  0  0  0  0  0  0  0  0  0  0
   44.9948    2.6797   13.1551 H   0  0  0  0  0  0  0  0  0  0  0  0
   44.5454    4.8314    8.3985 H   0  0  0  0  0  0  0  0  0  0  0  0
   43.7580    3.2848    8.5539 H   0  0  0  0  0  0  0  0  0  0  0  0
   46.7906    1.3370    8.8377 H   0  0  0  0  0  0  0  0  0  0  0  0
   45.2470    1.3096    8.3136 H   0  0  0  0  0  0  0  0  0  0  0  0
   46.6968    3.6315    9.3863 H   0  0  0  0  0  0  0  0  0  0  0  0
   44.7128    6.3126   10.2411 H   0  0  0  0  0  0  0  0  0  0  0  0
   43.8313    2.1500   10.9465 H   0  0  0  0  0  0  0  0  0  0  0  0
   46.5249    4.4748    7.0637 H   0  0  0  0  0  0  0  0  0  0  0  0
   47.3613    2.9212    7.0907 H   0  0  0  0  0  0  0  0  0  0  0  0
   45.6707    3.0081    6.5605 H   0  0  0  0  0  0  0  0  0  0  0  0
   44.2500    6.8047   12.6132 H   0  0  0  0  0  0  0  0  0  0  0  0
   43.3705    2.6588   13.3178 H   0  0  0  0  0  0  0  0  0  0  0  0
   43.5747    4.9855   14.1583 H   0  0  0  0  0  0  0  0  0  0  0  0
   45.4204    4.0062    8.2179 H   0  0  0  0  0  0  0  0  0  0  0  0
   43.6144    4.8336   10.9668 H   0  0  0  0  0  0  0  0  0  0  0  0
  4  2  1  0
  3  1  1  0
  4  1  1  0
  5  3  2  0
  6  3  1  0
  4  7  1  0
  8  5  1  0
  9  6  2  0
 10  8  2  0
  9 10  1  0
 12 14  1  0
 13 11  1  0
 14 11  1  0
 15 13  2  0
 16 13  1  0
 17 14  1  0
 18 16  2  0
 19 15  1  0
 20 18  1  0
 19 20  2  0
 22 24  1  0
 23 21  1  0
 24 21  1  0
 25 22  2  0
 26 23  2  0
 27 24  1  0
 28 22  1  0
 29 23  1  0
 33 31  1  0
 32 30  1  0
 33 30  1  0
 34 32  2  0
 35 32  1  0
 33 36  1  0
 37 34  1  0
 38 35  2  0
 39 37  2  0
 38 39  1  0
 41 40  2  0
 42 40  2  0
 43 40  1  0
 44 40  1  0
  1 45  1  0
  1 46  1  0
  2 47  1  0
  2 48  1  0
  4 49  1  1
  5 50  1  0
  6 51  1  0
  7 52  1  0
  7 53  1  0
  7 54  1  0
  8 55  1  0
  9 56  1  0
 10 57  1  0
 11 58  1  0
 11 59  1  0
 12 60  1  0
 12 61  1  0
 14 62  1  1
 15 63  1  0
 16 64  1  0
 17 65  1  0
 17 66  1  0
 17 67  1  0
 18 68  1  0
 19 69  1  0
 20 70  1  0
 21 71  1  0
 21 72  1  0
 24 73  1  6
 27 74  1  0
 27 75  1  0
 28 76  1  0
 29 77  1  0
 30 78  1  0
 30 79  1  0
 31 80  1  0
 31 81  1  0
 33 82  1  1
 34 83  1  0
 35 84  1  0
 36 85  1  0
 36 86  1  0
 36 87  1  0
 37 88  1  0
 38 89  1  0
 39 90  1  0
 43 91  1  0
 44 92  1  0
M  END
> <Uni-Dock RESULT> 
ENERGY=   -9.513  LOWER_BOUND=    1.075  UPPER_BOUND=    4.561
INTER + INTRA:          -9.513
INTER:                  -9.513
INTRA:                   0.000
UNBOUND:                 0.000

$$$$

     RDKit          3D

 92 90  0  0  0  0  0  0  0  0999 V2000
   44.9570    5.4672   13.3481 C   0  0  0  0  0  0  0  0  0  0  0  0
   45.3475    3.8830   11.4622 N   0  0  0  0  0  0  0  0  0  0  0  0
   46.1469    6.3723   13.1203 C   0  0  0  0  0  0  0  0  0  0  0  0
   44.4038    4.8424   12.0495 C   0  0  1  0  0  0  0  0  0  0  0  0
   45.9666    7.6842   12.6620 C   0  0  0  0  0  0  0  0  0  0  0  0
   47.4479    5.9048   13.3490 C   0  0  0  0  0  0  0  0  0  0  0  0
   43.0874    4.1184   12.3267 C   0  0  0  0  0  0  0  0  0  0  0  0
   47.0675    8.5129   12.4406 C   0  0  0  0  0  0  0  0  0  0  0  0
   48.5472    6.7337   13.1249 C   0  0  0  0  0  0  0  0  0  0  0  0
   48.3569    8.0374   12.6721 C   0  0  0  0  0  0  0  0  0  0  0  0
   45.8908    6.6175   13.0769 C   0  0  0  0  0  0  0  0  0  0  0  0
   48.3070    6.1006   12.7279 N   0  0  0  0  0  0  0  0  0  0  0  0
   45.1511    5.4278   12.5062 C   0  0  0  0  0  0  0  0  0  0  0  0
   47.1915    6.9661   12.3194 C   0  0  2  0  0  0  0  0  0  0  0  0
   45.6168    4.1245   12.7220 C   0  0  0  0  0  0  0  0  0  0  0  0
   43.9841    5.6114   11.7513 C   0  0  0  0  0  0  0  0  0  0  0  0
   47.5835    8.4230   12.5756 C   0  0  0  0  0  0  0  0  0  0  0  0
   43.2956    4.5144   11.2299 C   0  0  0  0  0  0  0  0  0  0  0  0
   44.9289    3.0283   12.1988 C   0  0  0  0  0  0  0  0  0  0  0  0
   43.7678    3.2231   11.4543 C   0  0  0  0  0  0  0  0  0  0  0  0
   44.6991    6.0399   12.9202 C   0  0  0  0  0  0  0  0  0  0  0  0
   47.2156    6.4619   12.7037 C   0  0  0  0  0  0  0  0  0  0  0  0
   44.6183    5.6367   11.4753 C   0  0  0  0  0  0  0  0  0  0  0  0
   46.0863    5.8255   13.5254 C   0  0  2  0  0  0  0  0  0  0  0  0
   48.3464    6.0166   12.5734 O   0  0  0  0  0  0  0  0  0  0  0  0
   45.4150    4.9555   10.8515 O   0  0  0  0  0  0  0  0  0  0  0  0
   46.3648    4.3838   13.7465 N   0  0  0  0  0  0  0  0  0  0  0  0
   46.8900    7.6512   12.1620 O   0  0  0  0  0  0  0  0  0  0  0  0
   43.4974    6.0950   10.8837 O   0  0  0  0  0  0  0  0  0  0  0  0
   46.4074    6.0460   13.2795 C   0  0  0  0  0  0  0  0  0  0  0  0
   46.7617    8.0438   11.8255 N   0  0  0  0  0  0  0  0  0  0  0  0
   45.2989    5.2646   12.6095 C   0  0  0  0  0  0  0  0  0  0  0  0
   47.3429    6.7758   12.2896 C   0  0  1  0  0  0  0  0  0  0  0  0
   45.3709    3.8674   12.5159 C   0  0  0  0  0  0  0  0  0  0  0  0
   44.1860    5.9214   12.0683 C   0  0  0  0  0  0  0  0  0  0  0  0
   48.6923    7.0688   12.9490 C   0  0  0  0  0  0  0  0  0  0  0  0
   44.3485    3.1439   11.8984 C   0  0  0  0  0  0  0  0  0  0  0  0
   43.1655    5.1978   11.4494 C   0  0  0  0  0  0  0  0  0  0  0  0
   43.2458    3.8094   11.3661 C   0  0  0  0  0  0  0  0  0  0  0  0
   45.6717    6.1504   12.1673 S   0  0  0  0  0  0  0  0  0  0  0  0
   44.4199    6.8290   12.3860 O   0  0  0  0  0  0  0  0  0  0  0  0
   46.5123    6.3665   11.0175 O   0  0  0  0  0  0  0  0  0  0  0  0
   46.6006    6.3765   13.4558 O   0  0  0  0  0  0  0  0  0  0  0  0
   45.3638    4.5798   12.2808 O   0  0  0  0  0  0  0  0  0  0  0  0
   44.1713    6.0574   13.8380 H   0  0  0  0  0  0  0  0  0  0  0  0
   45.2215    4.6804   14.0677 H   0  0  0  0  0  0  0  0  0  0  0  0
   44.9898    3.5633   10.5633 H   0  0  0  0  0  0  0  0  0  0  0  0
   46.2240    4.3668   11.2593 H   0  0  0  0  0  0  0  0  0  0  0  0
   44.2149    5.6330   11.3126 H   0  0  0  0  0  0  0  0  0  0  0  0
   44.9668    8.0693   12.4775 H   0  0  0  0  0  0  0  0  0  0  0  0
   47.6091    4.8877   13.7003 H   0  0  0  0  0  0  0  0  0  0  0  0
   42.6741    3.6858   11.4085 H   0  0  0  0  0  0  0  0  0  0  0  0
   43.2179    3.3076   13.0522 H   0  0  0  0  0  0  0  0  0  0  0  0
   42.3419    4.8122   12.7283 H   0  0  0  0  0  0  0  0  0  0  0  0
   46.9198    9.5304   12.0888 H   0  0  0  0  0  0  0  0  0  0  0  0
   49.5525    6.3618   13.3055 H   0  0  0  0  0  0  0  0  0  0  0  0
   49.2134    8.6836   12.5004 H   0  0  0  0  0  0  0  0  0  0  0  0
   46.0934    6.4387   14.1415 H   0  0  0  0  0  0  0  0  0  0  0  0
   45.2168    7.4837   13.0565 H   0  0  0  0  0  0  0  0  0  0  0  0
   48.5276    6.2598   13.7103 H   0  0  0  0  0  0  0  0  0  0  0  0
   49.1438    6.3536   12.2035 H   0  0  0  0  0  0  0  0  0  0  0  0
   47.0344    6.8377   11.2417 H   0  0  0  0  0  0  0  0  0  0  0  0
   46.5279    3.9586   13.2928 H   0  0  0  0  0  0  0  0  0  0  0  0
   43.5992    6.6117   11.5669 H   0  0  0  0  0  0  0  0  0  0  0  0
   46.7978    9.1013   12.2256 H   0  0  0  0  0  0  0  0  0  0  0  0
   48.5045    8.6837   12.0421 H   0  0  0  0  0  0  0  0  0  0  0  0
   47.7455    8.6147   13.6422 H   0  0  0  0  0  0  0  0  0  0  0  0
   42.3892    4.6686   10.6500 H   0  0  0  0  0  0  0  0  0  0  0  0
   45.3052    2.0232   12.3702 H   0  0  0  0  0  0  0  0  0  0  0  0
   43.2333    2.3693   11.0467 H   0  0  0  0  0  0  0  0  0  0  0  0
   44.4412    7.1047   12.9846 H   0  0  0  0  0  0  0  0  0  0  0  0
   43.9443    5.4752   13.4806 H   0  0  0  0  0  0  0  0  0  0  0  0
   46.1126    6.3071   14.5101 H   0  0  0  0  0  0  0  0  0  0  0  0
   46.4064    3.9287   12.8265 H   0  0  0  0  0  0  0  0  0  0  0  0
   47.3242    4.3042   14.0957 H   0  0  0  0  0  0  0  0  0  0  0  0
   47.7069    7.9200   11.6892 H   0  0  0  0  0  0  0  0  0  0  0  0
   43.5499    5.7542    9.9667 H   0  0  0  0  0  0  0  0  0  0  0  0
   46.9967    5.3511   13.8928 H   0  0  0  0  0  0  0  0  0  0  0  0
   45.9675    6.7535   13.9946 H   0  0  0  0  0  0  0  0  0  0  0  0
   47.3959    8.4842   11.1599 H   0  0  0  0  0  0  0  0  0  0  0  0
   46.6772    8.6905   12.6086 H   0  0  0  0  0  0  0  0  0  0  0  0
   47.5204    6.1401   11.4135 H   0  0  0  0  0  0  0  0  0  0  0  0
   46.2238    3.3309   12.9242 H   0  0  0  0  0  0  0  0  0  0  0  0
   44.1152    7.0058   12.1176 H   0  0  0  0  0  0  0  0  0  0  0  0
   49.1855    6.1382   13.2473 H   0  0  0  0  0  0  0  0  0  0  0  0
   49.3654    7.5887   12.2584 H   0  0  0  0  0  0  0  0  0  0  0  0
   48.5771    7.6898   13.8443 H   0  0  0  0  0  0  0  0  0  0  0  0
   44.4131    2.0612   11.8323 H   0  0  0  0  0  0  0  0  0  0  0  0
   42.3106    5.7207   11.0287 H   0  0  0  0  0  0  0  0  0  0  0  0
   42.4508    3.2466   10.8851 H   0  0  0  0  0  0  0  0  0  0  0  0
   47.5226    6.1874   13.1834 H   0  0  0  0  0  0  0  0  0  0  0  0
   44.6087    4.4759   12.8957 H   0  0  0  0  0  0  0  0  0  0  0  0
  4  2  1  0
  3  1  1  0
  4  1  1  0
  5  3  2  0
  6  3  1  0
  4  7  1  0
  8  5  1  0
  9  6  2  0
 10  8  2  0
  9 10  1  0
 12 14  1  0
 13 11  1  0
 14 11  1  0
 15 13  2  0
 16 13  1  0
 17 14  1  0
 18 16  2  0
 19 15  1  0
 20 18  1  0
 19 20  2  0
 22 24  1  0
 23 21  1  0
 24 21  1  0
 25 22  2  0
 26 23  2  0
 27 24  1  0
 28 22  1  0
 29 23  1  0
 33 31  1  0
 32 30  1  0
 33 30  1  0
 34 32  2  0
 35 32  1  0
 33 36  1  0
 37 34  1  0
 38 35  2  0
 39 37  2  0
 38 39  1  0
 41 40  2  0
 42 40  2  0
 43 40  1  0
 44 40  1  0
  1 45  1  0
  1 46  1  0
  2 47  1  0
  2 48  1  0
  4 49  1  1
  5 50  1  0
  6 51  1  0
  7 52  1  0
  7 53  1  0
  7 54  1  0
  8 55  1  0
  9 56  1  0
 10 57  1  0
 11 58  1  0
 11 59  1  0
 12 60  1  0
 12 61  1  0
 14 62  1  1
 15 63  1  0
 16 64  1  0
 17 65  1  0
 17 66  1  0
 17 67  1  0
 18 68  1  0
 19 69  1  0
 20 70  1  0
 21 71  1  0
 21 72  1  0
 24 73  1  6
 27 74  1  0
 27 75  1  0
 28 76  1  0
 29 77  1  0
 30 78  1  0
 30 79  1  0
 31 80  1  0
 31 81  1  0
 33 82  1  1
 34 83  1  0
 35 84  1  0
 36 85  1  0
 36 86  1  0
 36 87  1  0
 37 88  1  0
 38 89  1  0
 39 90  1  0
 43 91  1  0
 44 92  1  0
M  END
> <Uni-Dock RESULT> 
ENERGY=   -9.218  LOWER_BOUND=    3.764  UPPER_BOUND=    5.437
INTER + INTRA:          -9.218
INTER:                  -9.218
INTRA:                   0.000
UNBOUND:                 0.000

$$$$

     RDKit          3D

 92 90  0  0  0  0  0  0  0  0999 V2000
   44.9856    5.8756   11.0536 C   0  0  0  0  0  0  0  0  0  0  0  0
   43.4801    5.3214   12.9629 N   0  0  0  0  0  0  0  0  0  0  0  0
   45.7106    7.0445   11.6819 C   0  0  0  0  0  0  0  0  0  0  0  0
   44.5342    4.8117   12.0769 C   0  0  1  0  0  0  0  0  0  0  0  0
   47.0605    6.9353   12.0419 C   0  0  0  0  0  0  0  0  0  0  0  0
   45.0366    8.2481   11.9278 C   0  0  0  0  0  0  0  0  0  0  0  0
   44.0041    3.5728   11.3570 C   0  0  0  0  0  0  0  0  0  0  0  0
   47.7233    8.0118   12.6332 C   0  0  0  0  0  0  0  0  0  0  0  0
   45.7001    9.3222   12.5211 C   0  0  0  0  0  0  0  0  0  0  0  0
   47.0431    9.2044   12.8725 C   0  0  0  0  0  0  0  0  0  0  0  0
   45.9943    6.8334   11.6313 C   0  0  0  0  0  0  0  0  0  0  0  0
   45.1369    8.8584   12.8108 N   0  0  0  0  0  0  0  0  0  0  0  0
   44.9692    5.7565   11.9100 C   0  0  0  0  0  0  0  0  0  0  0  0
   46.1863    7.8294   12.7968 C   0  0  2  0  0  0  0  0  0  0  0  0
   43.5992    6.0466   11.8775 C   0  0  0  0  0  0  0  0  0  0  0  0
   45.3753    4.4475   12.2050 C   0  0  0  0  0  0  0  0  0  0  0  0
   47.5475    8.5203   12.6889 C   0  0  0  0  0  0  0  0  0  0  0  0
   44.4308    3.4502   12.4552 C   0  0  0  0  0  0  0  0  0  0  0  0
   42.6555    5.0494   12.1296 C   0  0  0  0  0  0  0  0  0  0  0  0
   43.0711    3.7512   12.4169 C   0  0  0  0  0  0  0  0  0  0  0  0
   45.6164    5.5835   11.3609 C   0  0  0  0  0  0  0  0  0  0  0  0
   45.6615    7.9018   12.4477 C   0  0  0  0  0  0  0  0  0  0  0  0
   45.3204    4.9416   12.6865 C   0  0  0  0  0  0  0  0  0  0  0  0
   45.1555    7.0389   11.2837 C   0  0  2  0  0  0  0  0  0  0  0  0
   45.0576    8.8274   12.9696 O   0  0  0  0  0  0  0  0  0  0  0  0
   44.5654    5.3489   13.5537 O   0  0  0  0  0  0  0  0  0  0  0  0
   43.6772    7.1351   11.1808 N   0  0  0  0  0  0  0  0  0  0  0  0
   46.9178    7.6094   12.8351 O   0  0  0  0  0  0  0  0  0  0  0  0
   45.9804    3.7770   12.8436 O   0  0  0  0  0  0  0  0  0  0  0  0
   45.3391    7.2865   11.6260 C   0  0  0  0  0  0  0  0  0  0  0  0
   47.3454    7.4390   13.1033 N   0  0  0  0  0  0  0  0  0  0  0  0
   44.7792    5.9018   11.8661 C   0  0  0  0  0  0  0  0  0  0  0  0
   45.9773    7.9276   12.8788 C   0  0  1  0  0  0  0  0  0  0  0  0
   43.3959    5.7057   11.9849 C   0  0  0  0  0  0  0  0  0  0  0  0
   45.6306    4.7948   11.9781 C   0  0  0  0  0  0  0  0  0  0  0  0
   46.0193    9.4505   12.7354 C   0  0  0  0  0  0  0  0  0  0  0  0
   42.8768    4.4283   12.2060 C   0  0  0  0  0  0  0  0  0  0  0  0
   45.1111    3.5187   12.2011 C   0  0  0  0  0  0  0  0  0  0  0  0
   43.7346    3.3353   12.3132 C   0  0  0  0  0  0  0  0  0  0  0  0
   45.6233    6.2389   12.4076 S   0  0  0  0  0  0  0  0  0  0  0  0
   46.4704    5.2705   11.7593 O   0  0  0  0  0  0  0  0  0  0  0  0
   45.7792    6.6521   13.7787 O   0  0  0  0  0  0  0  0  0  0  0  0
   45.6247    7.5805   11.5275 O   0  0  0  0  0  0  0  0  0  0  0  0
   44.1142    5.7350   12.1994 O   0  0  0  0  0  0  0  0  0  0  0  0
   45.6574    5.4171   10.3160 H   0  0  0  0  0  0  0  0  0  0  0  0
   44.1246    6.2396   10.4765 H   0  0  0  0  0  0  0  0  0  0  0  0
   43.2751    4.6269   13.6795 H   0  0  0  0  0  0  0  0  0  0  0  0
   43.8359    6.1403   13.4592 H   0  0  0  0  0  0  0  0  0  0  0  0
   45.3885    4.5121   12.6968 H   0  0  0  0  0  0  0  0  0  0  0  0
   47.6045    6.0116   11.8610 H   0  0  0  0  0  0  0  0  0  0  0  0
   43.9870    8.3512   11.6601 H   0  0  0  0  0  0  0  0  0  0  0  0
   43.6974    2.8016   12.0727 H   0  0  0  0  0  0  0  0  0  0  0  0
   43.1396    3.8112   10.7273 H   0  0  0  0  0  0  0  0  0  0  0  0
   44.7775    3.1379   10.7158 H   0  0  0  0  0  0  0  0  0  0  0  0
   48.7713    7.9211   12.9063 H   0  0  0  0  0  0  0  0  0  0  0  0
   45.1685   10.2518   12.7075 H   0  0  0  0  0  0  0  0  0  0  0  0
   47.5602   10.0423   13.3320 H   0  0  0  0  0  0  0  0  0  0  0  0
   45.7211    7.3600   10.7069 H   0  0  0  0  0  0  0  0  0  0  0  0
   46.9529    6.3467   11.4095 H   0  0  0  0  0  0  0  0  0  0  0  0
   45.1994    9.4288   11.9683 H   0  0  0  0  0  0  0  0  0  0  0  0
   45.2910    9.4911   13.5951 H   0  0  0  0  0  0  0  0  0  0  0  0
   46.1503    7.2897   13.7507 H   0  0  0  0  0  0  0  0  0  0  0  0
   43.2610    7.0584   11.6647 H   0  0  0  0  0  0  0  0  0  0  0  0
   46.4321    4.1930   12.2379 H   0  0  0  0  0  0  0  0  0  0  0  0
   48.3582    7.7852   12.7371 H   0  0  0  0  0  0  0  0  0  0  0  0
   47.6969    9.2288   13.5114 H   0  0  0  0  0  0  0  0  0  0  0  0
   47.6458    9.0712   11.7469 H   0  0  0  0  0  0  0  0  0  0  0  0
   44.7572    2.4376   12.6782 H   0  0  0  0  0  0  0  0  0  0  0  0
   41.5960    5.2906   12.1059 H   0  0  0  0  0  0  0  0  0  0  0  0
   42.3359    2.9757   12.6137 H   0  0  0  0  0  0  0  0  0  0  0  0
   46.7020    5.5431   11.2053 H   0  0  0  0  0  0  0  0  0  0  0  0
   45.1400    4.9877   10.5730 H   0  0  0  0  0  0  0  0  0  0  0  0
   45.5656    7.4838   10.3693 H   0  0  0  0  0  0  0  0  0  0  0  0
   43.2790    6.7797   12.0585 H   0  0  0  0  0  0  0  0  0  0  0  0
   43.4306    8.1289   11.1921 H   0  0  0  0  0  0  0  0  0  0  0  0
   47.0874    8.2441   13.5641 H   0  0  0  0  0  0  0  0  0  0  0  0
   45.6929    3.4516   13.7219 H   0  0  0  0  0  0  0  0  0  0  0  0
   44.5258    7.9287   11.2623 H   0  0  0  0  0  0  0  0  0  0  0  0
   46.0599    7.2448   10.7988 H   0  0  0  0  0  0  0  0  0  0  0  0
   47.7241    7.8664   13.9477 H   0  0  0  0  0  0  0  0  0  0  0  0
   47.9478    7.7389   12.3378 H   0  0  0  0  0  0  0  0  0  0  0  0
   45.3774    7.6830   13.7640 H   0  0  0  0  0  0  0  0  0  0  0  0
   42.7112    6.5464   11.9053 H   0  0  0  0  0  0  0  0  0  0  0  0
   46.7079    4.9253   11.9025 H   0  0  0  0  0  0  0  0  0  0  0  0
   45.0076    9.8559   12.6338 H   0  0  0  0  0  0  0  0  0  0  0  0
   46.4719    9.9182   13.6166 H   0  0  0  0  0  0  0  0  0  0  0  0
   46.5940    9.7566   11.8543 H   0  0  0  0  0  0  0  0  0  0  0  0
   41.8031    4.2867   12.2950 H   0  0  0  0  0  0  0  0  0  0  0  0
   45.7835    2.6696   12.2917 H   0  0  0  0  0  0  0  0  0  0  0  0
   43.3307    2.3417   12.4859 H   0  0  0  0  0  0  0  0  0  0  0  0
   45.3141    8.3063   12.1079 H   0  0  0  0  0  0  0  0  0  0  0  0
   44.0891    5.2338   11.3586 H   0  0  0  0  0  0  0  0  0  0  0  0
  4  2  1  0
  3  1  1  0
  4  1  1  0
  5  3  2  0
  6  3  1  0
  4  7  1  0
  8  5  1  0
  9  6  2  0
 10  8  2  0
  9 10  1  0
 12 14  1  0
 13 11  1  0
 14 11  1  0
 15 13  2  0
 16 13  1  0
 17 14  1  0
 18 16  2  0
 19 15  1  0
 20 18  1  0
 19 20  2  0
 22 24  1  0
 23 21  1  0
 24 21  1  0
 25 22  2  0
 26 23  2  0
 27 24  1  0
 28 22  1  0
 29 23  1  0
 33 31  1  0
 32 30  1  0
 33 30  1  0
 34 32  2  0
 35 32  1  0
 33 36  1  0
 37 34  1  0
 38 35  2  0
 39 37  2  0
 38 39  1  0
 41 40  2  0
 42 40  2  0
 43 40  1  0
 44 40  1  0
  1 45  1  0
  1 46  1  0
  2 47  1  0
  2 48  1  0
  4 49  1  1
  5 50  1  0
  6 51  1  0
  7 52  1  0
  7 53  1  0
  7 54  1  0
  8 55  1  0
  9 56  1  0
 10 57  1  0
 11 58  1  0
 11 59  1  0
 12 60  1  0
 12 61  1  0
 14 62  1  1
 15 63  1  0
 16 64  1  0
 17 65  1  0
 17 66  1  0
 17 67  1  0
 18 68  1  0
 19 69  1  0
 20 70  1  0
 21 71  1  0
 21 72  1  0
 24 73  1  6
 27 74  1  0
 27 75  1  0
 28 76  1  0
 29 77  1  0
 30 78  1  0
 30 79  1  0
 31 80  1  0
 31 81  1  0
 33 82  1  1
 34 83  1  0
 35 84  1  0
 36 85  1  0
 36 86  1  0
 36 87  1  0
 37 88  1  0
 38 89  1  0
 39 90  1  0
 43 91  1  0
 44 92  1  0
M  END
> <Uni-Dock RESULT> 
ENERGY=   -9.106  LOWER_BOUND=    3.990  UPPER_BOUND=    5.749
INTER + INTRA:          -9.106
INTER:                  -9.106
INTRA:                   0.000
UNBOUND:                 0.000

$$$$

     RDKit          3D

 92 90  0  0  0  0  0  0  0  0999 V2000
   48.7300    5.4224   18.4756 C   0  0  0  0  0  0  0  0  0  0  0  0
   47.3295    3.3718   18.2456 N   0  0  0  0  0  0  0  0  0  0  0  0
   48.6887    5.5448   19.9823 C   0  0  0  0  0  0  0  0  0  0  0  0
   48.6457    3.9643   17.9759 C   0  0  1  0  0  0  0  0  0  0  0  0
   49.8364    5.3014   20.7486 C   0  0  0  0  0  0  0  0  0  0  0  0
   47.4963    5.8876   20.6337 C   0  0  0  0  0  0  0  0  0  0  0  0
   48.9053    3.9019   16.4717 C   0  0  0  0  0  0  0  0  0  0  0  0
   49.7917    5.4029   22.1398 C   0  0  0  0  0  0  0  0  0  0  0  0
   47.4530    5.9862   22.0245 C   0  0  0  0  0  0  0  0  0  0  0  0
   48.6004    5.7451   22.7770 C   0  0  0  0  0  0  0  0  0  0  0  0
   49.0420    5.5059   19.9468 C   0  0  0  0  0  0  0  0  0  0  0  0
   47.1297    5.4518   21.5490 N   0  0  0  0  0  0  0  0  0  0  0  0
   48.6096    4.6273   18.7938 C   0  0  0  0  0  0  0  0  0  0  0  0
   48.5201    5.0330   21.3220 C   0  0  2  0  0  0  0  0  0  0  0  0
   47.2977    4.6808   18.3057 C   0  0  0  0  0  0  0  0  0  0  0  0
   49.5178    3.7441   18.1934 C   0  0  0  0  0  0  0  0  0  0  0  0
   49.3911    5.5986   22.4460 C   0  0  0  0  0  0  0  0  0  0  0  0
   49.1231    2.9376   17.1242 C   0  0  0  0  0  0  0  0  0  0  0  0
   46.9033    3.8729   17.2379 C   0  0  0  0  0  0  0  0  0  0  0  0
   47.8161    3.0026   16.6463 C   0  0  0  0  0  0  0  0  0  0  0  0
   49.3530    5.0667   18.7267 C   0  0  0  0  0  0  0  0  0  0  0  0
   48.0995    5.3219   20.9451 C   0  0  0  0  0  0  0  0  0  0  0  0
   49.1477    3.5788   18.7544 C   0  0  0  0  0  0  0  0  0  0  0  0
   48.2877    5.8333   19.5103 C   0  0  2  0  0  0  0  0  0  0  0  0
   47.0457    5.2930   21.5637 O   0  0  0  0  0  0  0  0  0  0  0  0
   48.1412    2.9769   19.0900 O   0  0  0  0  0  0  0  0  0  0  0  0
   46.9867    5.8386   18.7946 N   0  0  0  0  0  0  0  0  0  0  0  0
   49.2472    4.9532   21.5458 O   0  0  0  0  0  0  0  0  0  0  0  0
   50.2333    2.9098   18.3181 O   0  0  0  0  0  0  0  0  0  0  0  0
   48.2653    5.6829   19.9451 C   0  0  0  0  0  0  0  0  0  0  0  0
   49.6452    4.6750   21.7647 N   0  0  0  0  0  0  0  0  0  0  0  0
   48.3859    4.7220   18.7830 C   0  0  0  0  0  0  0  0  0  0  0  0
   48.2783    4.9942   21.3283 C   0  0  1  0  0  0  0  0  0  0  0  0
   47.2619    4.3971   18.0102 C   0  0  0  0  0  0  0  0  0  0  0  0
   49.6182    4.1380   18.4618 C   0  0  0  0  0  0  0  0  0  0  0  0
   47.6277    5.8966   22.3790 C   0  0  0  0  0  0  0  0  0  0  0  0
   47.3709    3.5108   16.9366 C   0  0  0  0  0  0  0  0  0  0  0  0
   49.7260    3.2506   17.3899 C   0  0  0  0  0  0  0  0  0  0  0  0
   48.6032    2.9386   16.6265 C   0  0  0  0  0  0  0  0  0  0  0  0
   48.8537    4.5055   19.7069 S   0  0  0  0  0  0  0  0  0  0  0  0
   50.1612    4.6424   19.1176 O   0  0  0  0  0  0  0  0  0  0  0  0
   48.5349    3.5565   20.7427 O   0  0  0  0  0  0  0  0  0  0  0  0
   48.3925    5.9423   20.2520 O   0  0  0  0  0  0  0  0  0  0  0  0
   47.8272    4.2924   18.4921 O   0  0  0  0  0  0  0  0  0  0  0  0
   49.6642    5.8799   18.1240 H   0  0  0  0  0  0  0  0  0  0  0  0
   47.9258    6.0250   18.0320 H   0  0  0  0  0  0  0  0  0  0  0  0
   47.3426    2.3864   17.9875 H   0  0  0  0  0  0  0  0  0  0  0  0
   47.1587    3.3959   19.2525 H   0  0  0  0  0  0  0  0  0  0  0  0
   49.4058    3.3573   18.4833 H   0  0  0  0  0  0  0  0  0  0  0  0
   50.7730    5.0341   20.2657 H   0  0  0  0  0  0  0  0  0  0  0  0
   46.5931    6.0757   20.0569 H   0  0  0  0  0  0  0  0  0  0  0  0
   48.8667    2.8692   16.1071 H   0  0  0  0  0  0  0  0  0  0  0  0
   48.1668    4.4853   15.9104 H   0  0  0  0  0  0  0  0  0  0  0  0
   49.8978    4.2981   16.2341 H   0  0  0  0  0  0  0  0  0  0  0  0
   50.6867    5.2163   22.7273 H   0  0  0  0  0  0  0  0  0  0  0  0
   46.5232    6.2529   22.5204 H   0  0  0  0  0  0  0  0  0  0  0  0
   48.5668    5.8248   23.8601 H   0  0  0  0  0  0  0  0  0  0  0  0
   48.7343    6.5409   19.7458 H   0  0  0  0  0  0  0  0  0  0  0  0
   50.1392    5.5331   19.9659 H   0  0  0  0  0  0  0  0  0  0  0  0
   47.0756    6.4690   21.5862 H   0  0  0  0  0  0  0  0  0  0  0  0
   46.8175    5.1166   22.4598 H   0  0  0  0  0  0  0  0  0  0  0  0
   48.5616    3.9384   21.3739 H   0  0  0  0  0  0  0  0  0  0  0  0
   46.5719    5.3483   18.7650 H   0  0  0  0  0  0  0  0  0  0  0  0
   50.5427    3.6804   18.5515 H   0  0  0  0  0  0  0  0  0  0  0  0
   50.4261    5.2551   22.3422 H   0  0  0  0  0  0  0  0  0  0  0  0
   49.0322    5.2690   23.4275 H   0  0  0  0  0  0  0  0  0  0  0  0
   49.3959    6.6943   22.4389 H   0  0  0  0  0  0  0  0  0  0  0  0
   49.8372    2.2599   16.6633 H   0  0  0  0  0  0  0  0  0  0  0  0
   45.8806    3.9217   16.8733 H   0  0  0  0  0  0  0  0  0  0  0  0
   47.5080    2.3735   15.8156 H   0  0  0  0  0  0  0  0  0  0  0  0
   50.3381    5.2761   19.1629 H   0  0  0  0  0  0  0  0  0  0  0  0
   49.3705    5.3950   17.6804 H   0  0  0  0  0  0  0  0  0  0  0  0
   48.6060    6.8791   19.5952 H   0  0  0  0  0  0  0  0  0  0  0  0
   46.6435    4.8709   18.7624 H   0  0  0  0  0  0  0  0  0  0  0  0
   46.3058    6.3134   19.3943 H   0  0  0  0  0  0  0  0  0  0  0  0
   48.9579    4.6679   22.4390 H   0  0  0  0  0  0  0  0  0  0  0  0
   49.9717    1.9667   18.3630 H   0  0  0  0  0  0  0  0  0  0  0  0
   47.3313    6.2489   19.8287 H   0  0  0  0  0  0  0  0  0  0  0  0
   49.0633    6.4338   19.8755 H   0  0  0  0  0  0  0  0  0  0  0  0
   49.6118    4.2039   22.6680 H   0  0  0  0  0  0  0  0  0  0  0  0
   50.1692    5.5366   21.9124 H   0  0  0  0  0  0  0  0  0  0  0  0
   47.7078    4.0586   21.2795 H   0  0  0  0  0  0  0  0  0  0  0  0
   46.2920    4.8326   18.2378 H   0  0  0  0  0  0  0  0  0  0  0  0
   50.5008    4.3651   19.0557 H   0  0  0  0  0  0  0  0  0  0  0  0
   46.5840    6.1000   22.1192 H   0  0  0  0  0  0  0  0  0  0  0  0
   47.6322    5.4211   23.3660 H   0  0  0  0  0  0  0  0  0  0  0  0
   48.1468    6.8579   22.4618 H   0  0  0  0  0  0  0  0  0  0  0  0
   46.4941    3.2667   16.3430 H   0  0  0  0  0  0  0  0  0  0  0  0
   50.6871    2.8004   17.1555 H   0  0  0  0  0  0  0  0  0  0  0  0
   48.6878    2.2485   15.7917 H   0  0  0  0  0  0  0  0  0  0  0  0
   47.6744    5.7878   20.9005 H   0  0  0  0  0  0  0  0  0  0  0  0
   48.1997    4.7545   17.7132 H   0  0  0  0  0  0  0  0  0  0  0  0
  4  2  1  0
  3  1  1  0
  4  1  1  0
  5  3  2  0
  6  3  1  0
  4  7  1  0
  8  5  1  0
  9  6  2  0
 10  8  2  0
  9 10  1  0
 12 14  1  0
 13 11  1  0
 14 11  1  0
 15 13  2  0
 16 13  1  0
 17 14  1  0
 18 16  2  0
 19 15  1  0
 20 18  1  0
 19 20  2  0
 22 24  1  0
 23 21  1  0
 24 21  1  0
 25 22  2  0
 26 23  2  0
 27 24  1  0
 28 22  1  0
 29 23  1  0
 33 31  1  0
 32 30  1  0
 33 30  1  0
 34 32  2  0
 35 32  1  0
 33 36  1  0
 37 34  1  0
 38 35  2  0
 39 37  2  0
 38 39  1  0
 41 40  2  0
 42 40  2  0
 43 40  1  0
 44 40  1  0
  1 45  1  0
  1 46  1  0
  2 47  1  0
  2 48  1  0
  4 49  1  1
  5 50  1  0
  6 51  1  0
  7 52  1  0
  7 53  1  0
  7 54  1  0
  8 55  1  0
  9 56  1  0
 10 57  1  0
 11 58  1  0
 11 59  1  0
 12 60  1  0
 12 61  1  0
 14 62  1  1
 15 63  1  0
 16 64  1  0
 17 65  1  0
 17 66  1  0
 17 67  1  0
 18 68  1  0
 19 69  1  0
 20 70  1  0
 21 71  1  0
 21 72  1  0
 24 73  1  6
 27 74  1  0
 27 75  1  0
 28 76  1  0
 29 77  1  0
 30 78  1  0
 30 79  1  0
 31 80  1  0
 31 81  1  0
 33 82  1  1
 34 83  1  0
 35 84  1  0
 36 85  1  0
 36 86  1  0
 36 87  1  0
 37 88  1  0
 38 89  1  0
 39 90  1  0
 43 91  1  0
 44 92  1  0
M  END
> <Uni-Dock RESULT> 
ENERGY=   -8.643  LOWER_BOUND=    9.557  UPPER_BOUND=   11.490
INTER + INTRA:          -8.643
INTER:                  -8.643
INTRA:                   0.000
UNBOUND:                 0.000

$$$$
