
     RDKit          3D

 92 90  0  0  0  0  0  0  0  0999 V2000
   43.2879    4.8397   11.0129 C   0  0  0  0  0  0  0  0  0  0  0  0
   43.4464    3.7804   13.2899 N   0  0  0  0  0  0  0  0  0  0  0  0
   44.1032    3.9736   10.0761 C   0  0  0  0  0  0  0  0  0  0  0  0
   43.7573    4.9670   12.4844 C   0  0  1  0  0  0  0  0  0  0  0  0
   44.3951    2.6373   10.3761 C   0  0  0  0  0  0  0  0  0  0  0  0
   44.5420    4.4926    8.8484 C   0  0  0  0  0  0  0  0  0  0  0  0
   45.2399    5.3127   12.6142 C   0  0  0  0  0  0  0  0  0  0  0  0
   45.1271    1.8479    9.4856 C   0  0  0  0  0  0  0  0  0  0  0  0
   45.2708    3.7022    7.9558 C   0  0  0  0  0  0  0  0  0  0  0  0
   45.5646    2.3796    8.2761 C   0  0  0  0  0  0  0  0  0  0  0  0
   43.4192    4.5987   11.1159 C   0  0  0  0  0  0  0  0  0  0  0  0
   42.8563    4.8092   13.5182 N   0  0  0  0  0  0  0  0  0  0  0  0
   44.2969    3.9465   10.0731 C   0  0  0  0  0  0  0  0  0  0  0  0
   43.8620    4.3136   12.5678 C   0  0  2  0  0  0  0  0  0  0  0  0
   45.2357    4.7008    9.3558 C   0  0  0  0  0  0  0  0  0  0  0  0
   44.1932    2.5724    9.8169 C   0  0  0  0  0  0  0  0  0  0  0  0
   45.2025    4.9685   12.9058 C   0  0  0  0  0  0  0  0  0  0  0  0
   45.0119    1.9670    8.8615 C   0  0  0  0  0  0  0  0  0  0  0  0
   46.0550    4.0917    8.4032 C   0  0  0  0  0  0  0  0  0  0  0  0
   45.9441    2.7252    8.1561 C   0  0  0  0  0  0  0  0  0  0  0  0
   43.9242    3.8142    9.8681 C   0  0  0  0  0  0  0  0  0  0  0  0
   44.4295    4.3690   12.3063 C   0  0  0  0  0  0  0  0  0  0  0  0
   44.9485    2.7436    9.6172 C   0  0  0  0  0  0  0  0  0  0  0  0
   44.4618    4.8557   10.8478 C   0  0  2  0  0  0  0  0  0  0  0  0
   44.3247    5.0861   13.2908 O   0  0  0  0  0  0  0  0  0  0  0  0
   46.1559    2.8270    9.7672 O   0  0  0  0  0  0  0  0  0  0  0  0
   43.6441    6.0944   10.7408 N   0  0  0  0  0  0  0  0  0  0  0  0
   44.5544    3.0401   12.4598 O   0  0  0  0  0  0  0  0  0  0  0  0
   44.3910    1.6083    9.1503 O   0  0  0  0  0  0  0  0  0  0  0  0
   43.1765    4.1615   11.3402 C   0  0  0  0  0  0  0  0  0  0  0  0
   43.1203    5.5131   13.4153 N   0  0  0  0  0  0  0  0  0  0  0  0
   43.9692    3.7420   10.1250 C   0  0  0  0  0  0  0  0  0  0  0  0
   43.9969    4.9751   12.3646 C   0  0  1  0  0  0  0  0  0  0  0  0
   44.4037    2.4176    9.9796 C   0  0  0  0  0  0  0  0  0  0  0  0
   44.2924    4.6759    9.1310 C   0  0  0  0  0  0  0  0  0  0  0  0
   45.0856    4.1363   13.0355 C   0  0  0  0  0  0  0  0  0  0  0  0
   45.1503    2.0360    8.8633 C   0  0  0  0  0  0  0  0  0  0  0  0
   45.0375    4.2920    8.0149 C   0  0  0  0  0  0  0  0  0  0  0  0
   45.4671    2.9727    7.8811 C   0  0  0  0  0  0  0  0  0  0  0  0
   44.7443    3.9750   10.5161 S   0  0  0  0  0  0  0  0  0  0  0  0
   45.8460    4.8990   10.6145 O   0  0  0  0  0  0  0  0  0  0  0  0
   44.7499    2.8161    9.6595 O   0  0  0  0  0  0  0  0  0  0  0  0
   43.4329    4.8454   10.2047 O   0  0  0  0  0  0  0  0  0  0  0  0
   44.4218    3.4361   11.9918 O   0  0  0  0  0  0  0  0  0  0  0  0
   42.2492    4.4829   10.9862 H   0  0  0  0  0  0  0  0  0  0  0  0
   43.2524    5.8582   10.6009 H   0  0  0  0  0  0  0  0  0  0  0  0
   43.7026    3.9511   14.2617 H   0  0  0  0  0  0  0  0  0  0  0  0
   42.4405    3.6172   13.2791 H   0  0  0  0  0  0  0  0  0  0  0  0
   43.1850    5.7935   12.9254 H   0  0  0  0  0  0  0  0  0  0  0  0
   44.0604    2.1957   11.3110 H   0  0  0  0  0  0  0  0  0  0  0  0
   44.3178    5.5210    8.5750 H   0  0  0  0  0  0  0  0  0  0  0  0
   45.4814    6.2059   12.0281 H   0  0  0  0  0  0  0  0  0  0  0  0
   45.8876    4.4980   12.2728 H   0  0  0  0  0  0  0  0  0  0  0  0
   45.4982    5.5228   13.6584 H   0  0  0  0  0  0  0  0  0  0  0  0
   45.3531    0.8165    9.7411 H   0  0  0  0  0  0  0  0  0  0  0  0
   45.6020    4.1171    7.0090 H   0  0  0  0  0  0  0  0  0  0  0  0
   46.1305    1.7630    7.5828 H   0  0  0  0  0  0  0  0  0  0  0  0
   42.3925    4.2357   10.9634 H   0  0  0  0  0  0  0  0  0  0  0  0
   43.3761    5.6827   10.9412 H   0  0  0  0  0  0  0  0  0  0  0  0
   41.9504    4.3920   13.3085 H   0  0  0  0  0  0  0  0  0  0  0  0
   42.7398    5.8159   13.4077 H   0  0  0  0  0  0  0  0  0  0  0  0
   43.9574    3.2321   12.7217 H   0  0  0  0  0  0  0  0  0  0  0  0
   45.3395    5.7679    9.5380 H   0  0  0  0  0  0  0  0  0  0  0  0
   43.4717    1.9643   10.3589 H   0  0  0  0  0  0  0  0  0  0  0  0
   45.1772    6.0524   12.7414 H   0  0  0  0  0  0  0  0  0  0  0  0
   46.0107    4.5510   12.2959 H   0  0  0  0  0  0  0  0  0  0  0  0
   45.4701    4.7933   13.9544 H   0  0  0  0  0  0  0  0  0  0  0  0
   44.9236    0.9012    8.6681 H   0  0  0  0  0  0  0  0  0  0  0  0
   46.7819    4.6839    7.8536 H   0  0  0  0  0  0  0  0  0  0  0  0
   46.5833    2.2523    7.4152 H   0  0  0  0  0  0  0  0  0  0  0  0
   43.6946    4.2684    8.8967 H   0  0  0  0  0  0  0  0  0  0  0  0
   43.0101    3.3530   10.2591 H   0  0  0  0  0  0  0  0  0  0  0  0
   45.4988    5.1188   10.6169 H   0  0  0  0  0  0  0  0  0  0  0  0
   42.6919    5.8940   11.0518 H   0  0  0  0  0  0  0  0  0  0  0  0
   44.0016    6.7607   11.4329 H   0  0  0  0  0  0  0  0  0  0  0  0
   44.5620    2.9123   13.4326 H   0  0  0  0  0  0  0  0  0  0  0  0
   45.1465    0.9916    9.0577 H   0  0  0  0  0  0  0  0  0  0  0  0
   42.7392    3.2773   11.8239 H   0  0  0  0  0  0  0  0  0  0  0  0
   42.3227    4.7583   10.9896 H   0  0  0  0  0  0  0  0  0  0  0  0
   42.6539    4.7487   13.8995 H   0  0  0  0  0  0  0  0  0  0  0  0
   42.3817    6.0731   12.9929 H   0  0  0  0  0  0  0  0  0  0  0  0
   44.4745    5.8257   11.8648 H   0  0  0  0  0  0  0  0  0  0  0  0
   44.1675    1.6755   10.7388 H   0  0  0  0  0  0  0  0  0  0  0  0
   43.9665    5.7098    9.2225 H   0  0  0  0  0  0  0  0  0  0  0  0
   44.6675    3.2520   13.5305 H   0  0  0  0  0  0  0  0  0  0  0  0
   45.8301    3.7973   12.3073 H   0  0  0  0  0  0  0  0  0  0  0  0
   45.6184    4.7240   13.7920 H   0  0  0  0  0  0  0  0  0  0  0  0
   45.4855    1.0072    8.7607 H   0  0  0  0  0  0  0  0  0  0  0  0
   45.2846    5.0236    7.2499 H   0  0  0  0  0  0  0  0  0  0  0  0
   46.0491    2.6767    7.0122 H   0  0  0  0  0  0  0  0  0  0  0  0
   43.4771    5.6510   10.7596 H   0  0  0  0  0  0  0  0  0  0  0  0
   44.3394    2.4614   11.9301 H   0  0  0  0  0  0  0  0  0  0  0  0
  4  2  1  0
  3  1  1  0
  4  1  1  0
  5  3  2  0
  6  3  1  0
  4  7  1  0
  8  5  1  0
  9  6  2  0
 10  8  2  0
  9 10  1  0
 12 14  1  0
 13 11  1  0
 14 11  1  0
 15 13  2  0
 16 13  1  0
 17 14  1  0
 18 16  2  0
 19 15  1  0
 20 18  1  0
 19 20  2  0
 22 24  1  0
 23 21  1  0
 24 21  1  0
 25 22  2  0
 26 23  2  0
 27 24  1  0
 28 22  1  0
 29 23  1  0
 33 31  1  0
 32 30  1  0
 33 30  1  0
 34 32  2  0
 35 32  1  0
 33 36  1  0
 37 34  1  0
 38 35  2  0
 39 37  2  0
 38 39  1  0
 41 40  2  0
 42 40  2  0
 43 40  1  0
 44 40  1  0
  1 45  1  0
  1 46  1  0
  2 47  1  0
  2 48  1  0
  4 49  1  1
  5 50  1  0
  6 51  1  0
  7 52  1  0
  7 53  1  0
  7 54  1  0
  8 55  1  0
  9 56  1  0
 10 57  1  0
 11 58  1  0
 11 59  1  0
 12 60  1  0
 12 61  1  0
 14 62  1  1
 15 63  1  0
 16 64  1  0
 17 65  1  0
 17 66  1  0
 17 67  1  0
 18 68  1  0
 19 69  1  0
 20 70  1  0
 21 71  1  0
 21 72  1  0
 24 73  1  1
 27 74  1  0
 27 75  1  0
 28 76  1  0
 29 77  1  0
 30 78  1  0
 30 79  1  0
 31 80  1  0
 31 81  1  0
 33 82  1  1
 34 83  1  0
 35 84  1  0
 36 85  1  0
 36 86  1  0
 36 87  1  0
 37 88  1  0
 38 89  1  0
 39 90  1  0
 43 91  1  0
 44 92  1  0
M  END
> <Uni-Dock RESULT> 
ENERGY=  -12.396  LOWER_BOUND=    0.000  UPPER_BOUND=    0.000
INTER + INTRA:         -12.396
INTER:                 -12.396
INTRA:                   0.000
UNBOUND:                 0.000

$$$$

     RDKit          3D

 92 90  0  0  0  0  0  0  0  0999 V2000
   44.8237    4.3061   12.0395 C   0  0  0  0  0  0  0  0  0  0  0  0
   44.1362    6.7191   12.2308 N   0  0  0  0  0  0  0  0  0  0  0  0
   45.0170    4.0279   10.5637 C   0  0  0  0  0  0  0  0  0  0  0  0
   43.7328    5.3258   12.4539 C   0  0  1  0  0  0  0  0  0  0  0  0
   45.2568    5.0579    9.6460 C   0  0  0  0  0  0  0  0  0  0  0  0
   45.0090    2.7053   10.0949 C   0  0  0  0  0  0  0  0  0  0  0  0
   42.3809    5.0612   11.7930 C   0  0  0  0  0  0  0  0  0  0  0  0
   45.4582    4.7769    8.2923 C   0  0  0  0  0  0  0  0  0  0  0  0
   45.2143    2.4237    8.7417 C   0  0  0  0  0  0  0  0  0  0  0  0
   45.4373    3.4609    7.8401 C   0  0  0  0  0  0  0  0  0  0  0  0
   44.7843    4.5219   11.8451 C   0  0  0  0  0  0  0  0  0  0  0  0
   44.0215    6.3214   13.3655 N   0  0  0  0  0  0  0  0  0  0  0  0
   44.8820    4.0224   10.4223 C   0  0  0  0  0  0  0  0  0  0  0  0
   43.9083    5.7841   12.0021 C   0  0  2  0  0  0  0  0  0  0  0  0
   44.1511    2.9008   10.0067 C   0  0  0  0  0  0  0  0  0  0  0  0
   45.6968    4.6829    9.4927 C   0  0  0  0  0  0  0  0  0  0  0  0
   42.4310    5.5051   11.7197 C   0  0  0  0  0  0  0  0  0  0  0  0
   45.7787    4.2288    8.1749 C   0  0  0  0  0  0  0  0  0  0  0  0
   44.2329    2.4511    8.6873 C   0  0  0  0  0  0  0  0  0  0  0  0
   45.0457    3.1147    7.7711 C   0  0  0  0  0  0  0  0  0  0  0  0
   45.3211    3.9827   10.4854 C   0  0  0  0  0  0  0  0  0  0  0  0
   43.5678    5.4878   11.5664 C   0  0  0  0  0  0  0  0  0  0  0  0
   45.1320    4.3441    9.0390 C   0  0  0  0  0  0  0  0  0  0  0  0
   43.9918    4.0471   11.2354 C   0  0  2  0  0  0  0  0  0  0  0  0
   42.8750    5.8224   12.5164 O   0  0  0  0  0  0  0  0  0  0  0  0
   44.1000    4.2855    8.3921 O   0  0  0  0  0  0  0  0  0  0  0  0
   44.1107    3.2818   12.5061 N   0  0  0  0  0  0  0  0  0  0  0  0
   43.9995    6.4163   10.6964 O   0  0  0  0  0  0  0  0  0  0  0  0
   46.2840    4.7393    8.4607 O   0  0  0  0  0  0  0  0  0  0  0  0
   45.0643    4.9918   11.8130 C   0  0  0  0  0  0  0  0  0  0  0  0
   43.5496    5.7790   13.6079 N   0  0  0  0  0  0  0  0  0  0  0  0
   45.2015    4.2229   10.5203 C   0  0  0  0  0  0  0  0  0  0  0  0
   43.6003    5.2029   12.2561 C   0  0  1  0  0  0  0  0  0  0  0  0
   45.5306    4.8839    9.3292 C   0  0  0  0  0  0  0  0  0  0  0  0
   44.9886    2.8378   10.4921 C   0  0  0  0  0  0  0  0  0  0  0  0
   42.8356    6.1327   11.3129 C   0  0  0  0  0  0  0  0  0  0  0  0
   45.6407    4.1734    8.1324 C   0  0  0  0  0  0  0  0  0  0  0  0
   45.1009    2.1290    9.2949 C   0  0  0  0  0  0  0  0  0  0  0  0
   45.4261    2.7964    8.1151 C   0  0  0  0  0  0  0  0  0  0  0  0
   44.3233    4.3041   10.3468 S   0  0  0  0  0  0  0  0  0  0  0  0
   43.0178    3.6966   10.2865 O   0  0  0  0  0  0  0  0  0  0  0  0
   45.2324    4.3525    9.2297 O   0  0  0  0  0  0  0  0  0  0  0  0
   45.0800    3.6579   11.6055 O   0  0  0  0  0  0  0  0  0  0  0  0
   44.1374    5.8203   10.8354 O   0  0  0  0  0  0  0  0  0  0  0  0
   45.7930    4.6124   12.4561 H   0  0  0  0  0  0  0  0  0  0  0  0
   44.5815    3.3590   12.5421 H   0  0  0  0  0  0  0  0  0  0  0  0
   43.4181    7.3445   12.5945 H   0  0  0  0  0  0  0  0  0  0  0  0
   44.9860    6.9148   12.7584 H   0  0  0  0  0  0  0  0  0  0  0  0
   43.5981    5.2173   13.5380 H   0  0  0  0  0  0  0  0  0  0  0  0
   45.2841    6.0937    9.9735 H   0  0  0  0  0  0  0  0  0  0  0  0
   44.8436    1.8794   10.7827 H   0  0  0  0  0  0  0  0  0  0  0  0
   42.0623    4.0275   11.9649 H   0  0  0  0  0  0  0  0  0  0  0  0
   42.4070    5.2325   10.7115 H   0  0  0  0  0  0  0  0  0  0  0  0
   41.6103    5.7185   12.2117 H   0  0  0  0  0  0  0  0  0  0  0  0
   45.6319    5.5905    7.5936 H   0  0  0  0  0  0  0  0  0  0  0  0
   45.2071    1.3954    8.3941 H   0  0  0  0  0  0  0  0  0  0  0  0
   45.5980    3.2437    6.7874 H   0  0  0  0  0  0  0  0  0  0  0  0
   45.8047    4.7328   12.1963 H   0  0  0  0  0  0  0  0  0  0  0  0
   44.4098    3.7199   12.4963 H   0  0  0  0  0  0  0  0  0  0  0  0
   44.9998    6.5089   13.5808 H   0  0  0  0  0  0  0  0  0  0  0  0
   43.7086    5.6249   14.0409 H   0  0  0  0  0  0  0  0  0  0  0  0
   44.2511    6.5629   11.3105 H   0  0  0  0  0  0  0  0  0  0  0  0
   43.5082    2.3724   10.7068 H   0  0  0  0  0  0  0  0  0  0  0  0
   46.2756    5.5553    9.7898 H   0  0  0  0  0  0  0  0  0  0  0  0
   42.0381    4.7095   12.3639 H   0  0  0  0  0  0  0  0  0  0  0  0
   42.2782    5.2051   10.6775 H   0  0  0  0  0  0  0  0  0  0  0  0
   41.8245    6.4031   11.8861 H   0  0  0  0  0  0  0  0  0  0  0  0
   46.4144    4.7461    7.4612 H   0  0  0  0  0  0  0  0  0  0  0  0
   43.6608    1.5821    8.3733 H   0  0  0  0  0  0  0  0  0  0  0  0
   45.1074    2.7642    6.7442 H   0  0  0  0  0  0  0  0  0  0  0  0
   45.7376    2.9685   10.5079 H   0  0  0  0  0  0  0  0  0  0  0  0
   46.0506    4.6663   10.9346 H   0  0  0  0  0  0  0  0  0  0  0  0
   43.1840    3.5982   10.6492 H   0  0  0  0  0  0  0  0  0  0  0  0
   44.7887    3.7456   13.1133 H   0  0  0  0  0  0  0  0  0  0  0  0
   43.2201    3.3725   13.0053 H   0  0  0  0  0  0  0  0  0  0  0  0
   43.6058    7.2526   11.0256 H   0  0  0  0  0  0  0  0  0  0  0  0
   46.0244    4.9710    7.5449 H   0  0  0  0  0  0  0  0  0  0  0  0
   45.5759    5.9603   11.7272 H   0  0  0  0  0  0  0  0  0  0  0  0
   45.6113    4.4372   12.5885 H   0  0  0  0  0  0  0  0  0  0  0  0
   44.0294    6.6767   13.6179 H   0  0  0  0  0  0  0  0  0  0  0  0
   44.0575    5.1794   14.2560 H   0  0  0  0  0  0  0  0  0  0  0  0
   43.0803    4.2386   12.2878 H   0  0  0  0  0  0  0  0  0  0  0  0
   45.6979    5.9585    9.3255 H   0  0  0  0  0  0  0  0  0  0  0  0
   44.7316    2.3033   11.4042 H   0  0  0  0  0  0  0  0  0  0  0  0
   43.3273    7.1081   11.2196 H   0  0  0  0  0  0  0  0  0  0  0  0
   42.7505    5.6984   10.3110 H   0  0  0  0  0  0  0  0  0  0  0  0
   41.8163    6.3042   11.6779 H   0  0  0  0  0  0  0  0  0  0  0  0
   45.8933    4.6951    7.2130 H   0  0  0  0  0  0  0  0  0  0  0  0
   44.9326    1.0552    9.2825 H   0  0  0  0  0  0  0  0  0  0  0  0
   45.5107    2.2425    7.1838 H   0  0  0  0  0  0  0  0  0  0  0  0
   44.4296    3.5877   12.3342 H   0  0  0  0  0  0  0  0  0  0  0  0
   44.6672    6.3834   10.2330 H   0  0  0  0  0  0  0  0  0  0  0  0
  4  2  1  0
  3  1  1  0
  4  1  1  0
  5  3  2  0
  6  3  1  0
  4  7  1  0
  8  5  1  0
  9  6  2  0
 10  8  2  0
  9 10  1  0
 12 14  1  0
 13 11  1  0
 14 11  1  0
 15 13  2  0
 16 13  1  0
 17 14  1  0
 18 16  2  0
 19 15  1  0
 20 18  1  0
 19 20  2  0
 22 24  1  0
 23 21  1  0
 24 21  1  0
 25 22  2  0
 26 23  2  0
 27 24  1  0
 28 22  1  0
 29 23  1  0
 33 31  1  0
 32 30  1  0
 33 30  1  0
 34 32  2  0
 35 32  1  0
 33 36  1  0
 37 34  1  0
 38 35  2  0
 39 37  2  0
 38 39  1  0
 41 40  2  0
 42 40  2  0
 43 40  1  0
 44 40  1  0
  1 45  1  0
  1 46  1  0
  2 47  1  0
  2 48  1  0
  4 49  1  1
  5 50  1  0
  6 51  1  0
  7 52  1  0
  7 53  1  0
  7 54  1  0
  8 55  1  0
  9 56  1  0
 10 57  1  0
 11 58  1  0
 11 59  1  0
 12 60  1  0
 12 61  1  0
 14 62  1  1
 15 63  1  0
 16 64  1  0
 17 65  1  0
 17 66  1  0
 17 67  1  0
 18 68  1  0
 19 69  1  0
 20 70  1  0
 21 71  1  0
 21 72  1  0
 24 73  1  1
 27 74  1  0
 27 75  1  0
 28 76  1  0
 29 77  1  0
 30 78  1  0
 30 79  1  0
 31 80  1  0
 31 81  1  0
 33 82  1  1
 34 83  1  0
 35 84  1  0
 36 85  1  0
 36 86  1  0
 36 87  1  0
 37 88  1  0
 38 89  1  0
 39 90  1  0
 43 91  1  0
 44 92  1  0
M  END
> <Uni-Dock RESULT> 
ENERGY=  -10.261  LOWER_BOUND=    1.006  UPPER_BOUND=    2.254
INTER + INTRA:         -10.261
INTER:                 -10.261
INTRA:                   0.000
UNBOUND:                 0.000

$$$$

     RDKit          3D

 92 90  0  0  0  0  0  0  0  0999 V2000
   44.5946    4.7988   12.8423 C   0  0  0  0  0  0  0  0  0  0  0  0
   42.5955    4.9595   11.3225 N   0  0  0  0  0  0  0  0  0  0  0  0
   45.3244    6.1213   12.7369 C   0  0  0  0  0  0  0  0  0  0  0  0
   43.8622    4.2664   11.5845 C   0  0  1  0  0  0  0  0  0  0  0  0
   44.6809    7.2838   12.2949 C   0  0  0  0  0  0  0  0  0  0  0  0
   46.6663    6.2128   13.1367 C   0  0  0  0  0  0  0  0  0  0  0  0
   44.7346    4.2807   10.3303 C   0  0  0  0  0  0  0  0  0  0  0  0
   45.3660    8.4996   12.2298 C   0  0  0  0  0  0  0  0  0  0  0  0
   47.3507    7.4296   13.0754 C   0  0  0  0  0  0  0  0  0  0  0  0
   46.6999    8.5729   12.6199 C   0  0  0  0  0  0  0  0  0  0  0  0
   44.4868    5.0104   12.6703 C   0  0  0  0  0  0  0  0  0  0  0  0
   42.5644    3.8056   11.6781 N   0  0  0  0  0  0  0  0  0  0  0  0
   45.4206    6.1953   12.5836 C   0  0  0  0  0  0  0  0  0  0  0  0
   43.5717    4.8484   11.4368 C   0  0  2  0  0  0  0  0  0  0  0  0
   46.7776    6.0152   12.2820 C   0  0  0  0  0  0  0  0  0  0  0  0
   44.9391    7.4950   12.7912 C   0  0  0  0  0  0  0  0  0  0  0  0
   44.3549    4.4739   10.1773 C   0  0  0  0  0  0  0  0  0  0  0  0
   45.7990    8.5912   12.6999 C   0  0  0  0  0  0  0  0  0  0  0  0
   47.6343    7.1139   12.1884 C   0  0  0  0  0  0  0  0  0  0  0  0
   47.1457    8.4017   12.3966 C   0  0  0  0  0  0  0  0  0  0  0  0
   45.3038    6.2952   13.0016 C   0  0  0  0  0  0  0  0  0  0  0  0
   44.0929    5.0362   11.1424 C   0  0  0  0  0  0  0  0  0  0  0  0
   45.5702    7.6036   12.3122 C   0  0  0  0  0  0  0  0  0  0  0  0
   45.3619    5.1389   12.0049 C   0  0  2  0  0  0  0  0  0  0  0  0
   43.6525    4.0082   10.6487 O   0  0  0  0  0  0  0  0  0  0  0  0
   46.1618    7.7768   11.2599 O   0  0  0  0  0  0  0  0  0  0  0  0
   45.5372    3.8618   12.7484 N   0  0  0  0  0  0  0  0  0  0  0  0
   43.4652    6.2035   10.9219 O   0  0  0  0  0  0  0  0  0  0  0  0
   45.0953    8.6521   13.0140 O   0  0  0  0  0  0  0  0  0  0  0  0
   44.0015    5.2600   12.7197 C   0  0  0  0  0  0  0  0  0  0  0  0
   43.0930    3.2779   11.5443 N   0  0  0  0  0  0  0  0  0  0  0  0
   45.1140    6.2776   12.8095 C   0  0  0  0  0  0  0  0  0  0  0  0
   44.0821    4.3628   11.4656 C   0  0  1  0  0  0  0  0  0  0  0  0
   44.8704    7.6274   12.5220 C   0  0  0  0  0  0  0  0  0  0  0  0
   46.4097    5.8830   13.1698 C   0  0  0  0  0  0  0  0  0  0  0  0
   43.8311    5.1438   10.1748 C   0  0  0  0  0  0  0  0  0  0  0  0
   45.9040    8.5634   12.5898 C   0  0  0  0  0  0  0  0  0  0  0  0
   47.4415    6.8206   13.2387 C   0  0  0  0  0  0  0  0  0  0  0  0
   47.1892    8.1604   12.9481 C   0  0  0  0  0  0  0  0  0  0  0  0
   45.3634    6.1205   11.9604 S   0  0  0  0  0  0  0  0  0  0  0  0
   46.3049    5.5321   11.0414 O   0  0  0  0  0  0  0  0  0  0  0  0
   45.4635    7.4733   12.4468 O   0  0  0  0  0  0  0  0  0  0  0  0
   45.2508    5.1244   13.2132 O   0  0  0  0  0  0  0  0  0  0  0  0
   43.9001    5.9856   11.3180 O   0  0  0  0  0  0  0  0  0  0  0  0
   43.8871    4.8683   13.6799 H   0  0  0  0  0  0  0  0  0  0  0  0
   45.3177    4.0265   13.1404 H   0  0  0  0  0  0  0  0  0  0  0  0
   42.1206    4.5166   10.5367 H   0  0  0  0  0  0  0  0  0  0  0  0
   41.9801    4.8576   12.1285 H   0  0  0  0  0  0  0  0  0  0  0  0
   43.6003    3.2211   11.7936 H   0  0  0  0  0  0  0  0  0  0  0  0
   43.6382    7.2555   11.9898 H   0  0  0  0  0  0  0  0  0  0  0  0
   47.1920    5.3338   13.5022 H   0  0  0  0  0  0  0  0  0  0  0  0
   45.6778    3.7536   10.5094 H   0  0  0  0  0  0  0  0  0  0  0  0
   44.9721    5.2982   10.0014 H   0  0  0  0  0  0  0  0  0  0  0  0
   44.2268    3.7767    9.5000 H   0  0  0  0  0  0  0  0  0  0  0  0
   44.8527    9.3884   11.8736 H   0  0  0  0  0  0  0  0  0  0  0  0
   48.3882    7.4853   13.3898 H   0  0  0  0  0  0  0  0  0  0  0  0
   47.2303    9.5203   12.5724 H   0  0  0  0  0  0  0  0  0  0  0  0
   43.8726    5.1342   13.5740 H   0  0  0  0  0  0  0  0  0  0  0  0
   45.0661    4.0909   12.8330 H   0  0  0  0  0  0  0  0  0  0  0  0
   42.0330    4.0290   12.5185 H   0  0  0  0  0  0  0  0  0  0  0  0
   43.0236    2.9137   11.8590 H   0  0  0  0  0  0  0  0  0  0  0  0
   43.0370    5.7863   11.2449 H   0  0  0  0  0  0  0  0  0  0  0  0
   47.1762    5.0177   12.1122 H   0  0  0  0  0  0  0  0  0  0  0  0
   43.8901    7.6623   13.0279 H   0  0  0  0  0  0  0  0  0  0  0  0
   44.9365    3.5553   10.3195 H   0  0  0  0  0  0  0  0  0  0  0  0
   45.0466    5.2731    9.8903 H   0  0  0  0  0  0  0  0  0  0  0  0
   43.6789    4.3162    9.3287 H   0  0  0  0  0  0  0  0  0  0  0  0
   45.4174    9.5955   12.8641 H   0  0  0  0  0  0  0  0  0  0  0  0
   48.6845    6.9651   11.9517 H   0  0  0  0  0  0  0  0  0  0  0  0
   47.8135    9.2560   12.3222 H   0  0  0  0  0  0  0  0  0  0  0  0
   46.0689    6.1839   13.7793 H   0  0  0  0  0  0  0  0  0  0  0  0
   44.3216    6.3373   13.4861 H   0  0  0  0  0  0  0  0  0  0  0  0
   46.2101    5.2470   11.3217 H   0  0  0  0  0  0  0  0  0  0  0  0
   44.7062    3.6896   13.3171 H   0  0  0  0  0  0  0  0  0  0  0  0
   45.5353    3.1018   12.0608 H   0  0  0  0  0  0  0  0  0  0  0  0
   42.7217    5.9658   10.3275 H   0  0  0  0  0  0  0  0  0  0  0  0
   45.3025    9.4285   12.4535 H   0  0  0  0  0  0  0  0  0  0  0  0
   43.0278    5.7673   12.7587 H   0  0  0  0  0  0  0  0  0  0  0  0
   44.0465    4.6384   13.6251 H   0  0  0  0  0  0  0  0  0  0  0  0
   42.1558    3.6703   11.6089 H   0  0  0  0  0  0  0  0  0  0  0  0
   43.2359    2.7443   12.4001 H   0  0  0  0  0  0  0  0  0  0  0  0
   45.0745    3.9017   11.4033 H   0  0  0  0  0  0  0  0  0  0  0  0
   43.8737    7.9573   12.2377 H   0  0  0  0  0  0  0  0  0  0  0  0
   46.6229    4.8406   13.3969 H   0  0  0  0  0  0  0  0  0  0  0  0
   42.8598    5.6519   10.1917 H   0  0  0  0  0  0  0  0  0  0  0  0
   44.6067    5.8997   10.0116 H   0  0  0  0  0  0  0  0  0  0  0  0
   43.8449    4.4747    9.3066 H   0  0  0  0  0  0  0  0  0  0  0  0
   45.7062    9.6076   12.3620 H   0  0  0  0  0  0  0  0  0  0  0  0
   48.4435    6.5050   13.5175 H   0  0  0  0  0  0  0  0  0  0  0  0
   47.9947    8.8882   13.0003 H   0  0  0  0  0  0  0  0  0  0  0  0
   45.2365    4.2108   12.8610 H   0  0  0  0  0  0  0  0  0  0  0  0
   43.4683    6.8616   11.4001 H   0  0  0  0  0  0  0  0  0  0  0  0
  4  2  1  0
  3  1  1  0
  4  1  1  0
  5  3  2  0
  6  3  1  0
  4  7  1  0
  8  5  1  0
  9  6  2  0
 10  8  2  0
  9 10  1  0
 12 14  1  0
 13 11  1  0
 14 11  1  0
 15 13  2  0
 16 13  1  0
 17 14  1  0
 18 16  2  0
 19 15  1  0
 20 18  1  0
 19 20  2  0
 22 24  1  0
 23 21  1  0
 24 21  1  0
 25 22  2  0
 26 23  2  0
 27 24  1  0
 28 22  1  0
 29 23  1  0
 33 31  1  0
 32 30  1  0
 33 30  1  0
 34 32  2  0
 35 32  1  0
 33 36  1  0
 37 34  1  0
 38 35  2  0
 39 37  2  0
 38 39  1  0
 41 40  2  0
 42 40  2  0
 43 40  1  0
 44 40  1  0
  1 45  1  0
  1 46  1  0
  2 47  1  0
  2 48  1  0
  4 49  1  1
  5 50  1  0
  6 51  1  0
  7 52  1  0
  7 53  1  0
  7 54  1  0
  8 55  1  0
  9 56  1  0
 10 57  1  0
 11 58  1  0
 11 59  1  0
 12 60  1  0
 12 61  1  0
 14 62  1  1
 15 63  1  0
 16 64  1  0
 17 65  1  0
 17 66  1  0
 17 67  1  0
 18 68  1  0
 19 69  1  0
 20 70  1  0
 21 71  1  0
 21 72  1  0
 24 73  1  1
 27 74  1  0
 27 75  1  0
 28 76  1  0
 29 77  1  0
 30 78  1  0
 30 79  1  0
 31 80  1  0
 31 81  1  0
 33 82  1  1
 34 83  1  0
 35 84  1  0
 36 85  1  0
 36 86  1  0
 36 87  1  0
 37 88  1  0
 38 89  1  0
 39 90  1  0
 43 91  1  0
 44 92  1  0
M  END
> <Uni-Dock RESULT> 
ENERGY=   -9.728  LOWER_BOUND=    2.086  UPPER_BOUND=    4.614
INTER + INTRA:          -9.728
INTER:                  -9.728
INTRA:                   0.000
UNBOUND:                 0.000

$$$$
