
     RDKit          3D

 92 90  0  0  0  0  0  0  0  0999 V2000
   45.6079    6.9023   11.5153 C   0  0  0  0  0  0  0  0  0  0  0  0
   46.6544    7.4289   13.7176 N   0  0  0  0  0  0  0  0  0  0  0  0
   44.9986    5.5292   11.6867 C   0  0  0  0  0  0  0  0  0  0  0  0
   45.5633    7.7690   12.7940 C   0  0  1  0  0  0  0  0  0  0  0  0
   45.6911    4.5196   12.3685 C   0  0  0  0  0  0  0  0  0  0  0  0
   43.7263    5.2471   11.1677 C   0  0  0  0  0  0  0  0  0  0  0  0
   45.6691    9.2530   12.4364 C   0  0  0  0  0  0  0  0  0  0  0  0
   45.1254    3.2530   12.5240 C   0  0  0  0  0  0  0  0  0  0  0  0
   43.1633    3.9783   11.3217 C   0  0  0  0  0  0  0  0  0  0  0  0
   43.8636    2.9816   11.9990 C   0  0  0  0  0  0  0  0  0  0  0  0
   44.7228    7.0956   12.8280 C   0  0  0  0  0  0  0  0  0  0  0  0
   47.1897    6.9044   13.1350 N   0  0  0  0  0  0  0  0  0  0  0  0
   44.4588    5.7431   12.2057 C   0  0  0  0  0  0  0  0  0  0  0  0
   46.1159    7.6661   12.4854 C   0  0  2  0  0  0  0  0  0  0  0  0
   44.7048    4.5676   12.9275 C   0  0  0  0  0  0  0  0  0  0  0  0
   43.9829    5.6465   10.8914 C   0  0  0  0  0  0  0  0  0  0  0  0
   46.2196    9.1237   12.9309 C   0  0  0  0  0  0  0  0  0  0  0  0
   43.7545    4.3977   10.3128 C   0  0  0  0  0  0  0  0  0  0  0  0
   44.4815    3.3196   12.3451 C   0  0  0  0  0  0  0  0  0  0  0  0
   44.0059    3.2346   11.0388 C   0  0  0  0  0  0  0  0  0  0  0  0
   44.5494    5.4966   13.2341 C   0  0  0  0  0  0  0  0  0  0  0  0
   45.5602    7.5625   12.1680 C   0  0  0  0  0  0  0  0  0  0  0  0
   43.6093    5.3491   12.0688 C   0  0  0  0  0  0  0  0  0  0  0  0
   45.8370    6.2667   12.9404 C   0  0  2  0  0  0  0  0  0  0  0  0
   44.5807    8.2810   12.2852 O   0  0  0  0  0  0  0  0  0  0  0  0
   42.3931    5.2871   12.1413 O   0  0  0  0  0  0  0  0  0  0  0  0
   46.8334    5.4171   12.2370 N   0  0  0  0  0  0  0  0  0  0  0  0
   46.5614    7.9105   11.3271 O   0  0  0  0  0  0  0  0  0  0  0  0
   44.2179    5.1927   10.8787 O   0  0  0  0  0  0  0  0  0  0  0  0
   45.5253    6.7397   13.0746 C   0  0  0  0  0  0  0  0  0  0  0  0
   45.0652    8.5057   11.3717 N   0  0  0  0  0  0  0  0  0  0  0  0
   44.8163    5.5000   12.5750 C   0  0  0  0  0  0  0  0  0  0  0  0
   46.0951    7.6300   11.9469 C   0  0  1  0  0  0  0  0  0  0  0  0
   45.4115    4.2381   12.7136 C   0  0  0  0  0  0  0  0  0  0  0  0
   43.5573    5.5890   11.9684 C   0  0  0  0  0  0  0  0  0  0  0  0
   47.2339    8.5028   12.4782 C   0  0  0  0  0  0  0  0  0  0  0  0
   44.7601    3.0911   12.2560 C   0  0  0  0  0  0  0  0  0  0  0  0
   42.9068    4.4422   11.5099 C   0  0  0  0  0  0  0  0  0  0  0  0
   43.5073    3.1939   11.6550 C   0  0  0  0  0  0  0  0  0  0  0  0
   45.1196    6.2937   11.7819 S   0  0  0  0  0  0  0  0  0  0  0  0
   43.8671    6.3542   11.0728 O   0  0  0  0  0  0  0  0  0  0  0  0
   46.3761    6.0340   11.1233 O   0  0  0  0  0  0  0  0  0  0  0  0
   45.2910    7.6191   12.6714 O   0  0  0  0  0  0  0  0  0  0  0  0
   44.9625    5.1702   12.9173 O   0  0  0  0  0  0  0  0  0  0  0  0
   46.6386    6.7962   11.1486 H   0  0  0  0  0  0  0  0  0  0  0  0
   45.0698    7.4178   10.7086 H   0  0  0  0  0  0  0  0  0  0  0  0
   47.5534    7.6362   13.2846 H   0  0  0  0  0  0  0  0  0  0  0  0
   46.5938    8.0198   14.5458 H   0  0  0  0  0  0  0  0  0  0  0  0
   44.6112    7.6098   13.3141 H   0  0  0  0  0  0  0  0  0  0  0  0
   46.6733    4.7209   12.7921 H   0  0  0  0  0  0  0  0  0  0  0  0
   43.1640    6.0134   10.6394 H   0  0  0  0  0  0  0  0  0  0  0  0
   46.6016    9.4735   11.9067 H   0  0  0  0  0  0  0  0  0  0  0  0
   44.8363    9.5547   11.7927 H   0  0  0  0  0  0  0  0  0  0  0  0
   45.6341    9.8787   13.3357 H   0  0  0  0  0  0  0  0  0  0  0  0
   45.6700    2.4799   13.0596 H   0  0  0  0  0  0  0  0  0  0  0  0
   42.1784    3.7682   10.9124 H   0  0  0  0  0  0  0  0  0  0  0  0
   43.4252    1.9949   12.1203 H   0  0  0  0  0  0  0  0  0  0  0  0
   44.5907    7.0323   13.9161 H   0  0  0  0  0  0  0  0  0  0  0  0
   43.9447    7.7888   12.4804 H   0  0  0  0  0  0  0  0  0  0  0  0
   48.0944    7.2688   12.8403 H   0  0  0  0  0  0  0  0  0  0  0  0
   47.1533    5.9402   12.8012 H   0  0  0  0  0  0  0  0  0  0  0  0
   46.2728    7.6246   11.4013 H   0  0  0  0  0  0  0  0  0  0  0  0
   45.0774    4.6208   13.9479 H   0  0  0  0  0  0  0  0  0  0  0  0
   43.7824    6.5443   10.3125 H   0  0  0  0  0  0  0  0  0  0  0  0
   47.1969    9.5452   12.6700 H   0  0  0  0  0  0  0  0  0  0  0  0
   45.4553    9.7334   12.4376 H   0  0  0  0  0  0  0  0  0  0  0  0
   46.0833    9.2249   14.0132 H   0  0  0  0  0  0  0  0  0  0  0  0
   43.3797    4.3311    9.2957 H   0  0  0  0  0  0  0  0  0  0  0  0
   44.6777    2.4134   12.9125 H   0  0  0  0  0  0  0  0  0  0  0  0
   43.8300    2.2625   10.5865 H   0  0  0  0  0  0  0  0  0  0  0  0
   44.7706    4.4975   13.6256 H   0  0  0  0  0  0  0  0  0  0  0  0
   43.9975    6.0388   14.0120 H   0  0  0  0  0  0  0  0  0  0  0  0
   46.2969    6.5655   13.8902 H   0  0  0  0  0  0  0  0  0  0  0  0
   47.5811    6.0402   11.9147 H   0  0  0  0  0  0  0  0  0  0  0  0
   46.3961    5.0874   11.3700 H   0  0  0  0  0  0  0  0  0  0  0  0
   46.2516    8.7517   10.9297 H   0  0  0  0  0  0  0  0  0  0  0  0
   43.4683    5.0586   10.2579 H   0  0  0  0  0  0  0  0  0  0  0  0
   44.8401    7.3098   13.7164 H   0  0  0  0  0  0  0  0  0  0  0  0
   46.3430    6.4251   13.7370 H   0  0  0  0  0  0  0  0  0  0  0  0
   45.4730    9.0603   10.6198 H   0  0  0  0  0  0  0  0  0  0  0  0
   44.7457    9.1720   12.0741 H   0  0  0  0  0  0  0  0  0  0  0  0
   46.4942    6.9970   11.1456 H   0  0  0  0  0  0  0  0  0  0  0  0
   46.3885    4.1386   13.1809 H   0  0  0  0  0  0  0  0  0  0  0  0
   43.0796    6.5580   11.8440 H   0  0  0  0  0  0  0  0  0  0  0  0
   48.0511    7.8811   12.8582 H   0  0  0  0  0  0  0  0  0  0  0  0
   47.6471    9.1392   11.6873 H   0  0  0  0  0  0  0  0  0  0  0  0
   46.8944    9.1496   13.2944 H   0  0  0  0  0  0  0  0  0  0  0  0
   45.2312    2.1185   12.3668 H   0  0  0  0  0  0  0  0  0  0  0  0
   41.9319    4.5260   11.0364 H   0  0  0  0  0  0  0  0  0  0  0  0
   43.0009    2.3026   11.2949 H   0  0  0  0  0  0  0  0  0  0  0  0
   45.9119    7.4292   13.3989 H   0  0  0  0  0  0  0  0  0  0  0  0
   44.7424    4.3260   12.4699 H   0  0  0  0  0  0  0  0  0  0  0  0
  4  2  1  0
  3  1  1  0
  4  1  1  0
  5  3  2  0
  6  3  1  0
  4  7  1  0
  8  5  1  0
  9  6  2  0
 10  8  2  0
  9 10  1  0
 12 14  1  0
 13 11  1  0
 14 11  1  0
 15 13  2  0
 16 13  1  0
 17 14  1  0
 18 16  2  0
 19 15  1  0
 20 18  1  0
 19 20  2  0
 22 24  1  0
 23 21  1  0
 24 21  1  0
 25 22  2  0
 26 23  2  0
 27 24  1  0
 28 22  1  0
 29 23  1  0
 33 31  1  0
 32 30  1  0
 33 30  1  0
 34 32  2  0
 35 32  1  0
 33 36  1  0
 37 34  1  0
 38 35  2  0
 39 37  2  0
 38 39  1  0
 41 40  2  0
 42 40  2  0
 43 40  1  0
 44 40  1  0
  1 45  1  0
  1 46  1  0
  2 47  1  0
  2 48  1  0
  4 49  1  6
  5 50  1  0
  6 51  1  0
  7 52  1  0
  7 53  1  0
  7 54  1  0
  8 55  1  0
  9 56  1  0
 10 57  1  0
 11 58  1  0
 11 59  1  0
 12 60  1  0
 12 61  1  0
 14 62  1  1
 15 63  1  0
 16 64  1  0
 17 65  1  0
 17 66  1  0
 17 67  1  0
 18 68  1  0
 19 69  1  0
 20 70  1  0
 21 71  1  0
 21 72  1  0
 24 73  1  6
 27 74  1  0
 27 75  1  0
 28 76  1  0
 29 77  1  0
 30 78  1  0
 30 79  1  0
 31 80  1  0
 31 81  1  0
 33 82  1  1
 34 83  1  0
 35 84  1  0
 36 85  1  0
 36 86  1  0
 36 87  1  0
 37 88  1  0
 38 89  1  0
 39 90  1  0
 43 91  1  0
 44 92  1  0
M  END
> <Uni-Dock RESULT> 
ENERGY=   -9.749  LOWER_BOUND=    0.000  UPPER_BOUND=    0.000
INTER + INTRA:          -9.749
INTER:                  -9.749
INTRA:                   0.000
UNBOUND:                 0.000

$$$$

     RDKit          3D

 92 90  0  0  0  0  0  0  0  0999 V2000
   44.3503    4.0078    9.0312 C   0  0  0  0  0  0  0  0  0  0  0  0
   45.8811    2.0386    8.9964 N   0  0  0  0  0  0  0  0  0  0  0  0
   44.0450    4.2440   10.4931 C   0  0  0  0  0  0  0  0  0  0  0  0
   45.7812    3.4868    8.7686 C   0  0  1  0  0  0  0  0  0  0  0  0
   43.7871    3.1678   11.3528 C   0  0  0  0  0  0  0  0  0  0  0  0
   44.0196    5.5472   11.0116 C   0  0  0  0  0  0  0  0  0  0  0  0
   46.2019    3.7861    7.3282 C   0  0  0  0  0  0  0  0  0  0  0  0
   43.5050    3.3902   12.7016 C   0  0  0  0  0  0  0  0  0  0  0  0
   43.7342    5.7677   12.3608 C   0  0  0  0  0  0  0  0  0  0  0  0
   43.4761    4.6891   13.2049 C   0  0  0  0  0  0  0  0  0  0  0  0
   45.8117    4.0835    9.6655 C   0  0  0  0  0  0  0  0  0  0  0  0
   44.9568    1.8267    9.0389 N   0  0  0  0  0  0  0  0  0  0  0  0
   44.7678    4.4517   10.6954 C   0  0  0  0  0  0  0  0  0  0  0  0
   45.2701    3.1724    8.5429 C   0  0  2  0  0  0  0  0  0  0  0  0
   44.6383    3.7065   11.8750 C   0  0  0  0  0  0  0  0  0  0  0  0
   43.9025    5.5313   10.4752 C   0  0  0  0  0  0  0  0  0  0  0  0
   46.2952    3.0460    7.4172 C   0  0  0  0  0  0  0  0  0  0  0  0
   42.9293    5.8606   11.4192 C   0  0  0  0  0  0  0  0  0  0  0  0
   43.6606    4.0336   12.8150 C   0  0  0  0  0  0  0  0  0  0  0  0
   42.8071    5.1105   12.5877 C   0  0  0  0  0  0  0  0  0  0  0  0
   45.3984    3.7998   11.2467 C   0  0  0  0  0  0  0  0  0  0  0  0
   45.1991    3.7921    8.7197 C   0  0  0  0  0  0  0  0  0  0  0  0
   44.8096    5.1835   11.2940 C   0  0  0  0  0  0  0  0  0  0  0  0
   45.0361    2.9783   10.0094 C   0  0  2  0  0  0  0  0  0  0  0  0
   46.0417    4.6482    8.5044 O   0  0  0  0  0  0  0  0  0  0  0  0
   45.3254    6.1570   11.8180 O   0  0  0  0  0  0  0  0  0  0  0  0
   43.6713    2.3996   10.1182 N   0  0  0  0  0  0  0  0  0  0  0  0
   44.3222    3.4428    7.7502 O   0  0  0  0  0  0  0  0  0  0  0  0
   43.5722    5.2801   10.7736 O   0  0  0  0  0  0  0  0  0  0  0  0
   45.5002    3.2325    9.7667 C   0  0  0  0  0  0  0  0  0  0  0  0
   45.2564    4.7541    7.8031 N   0  0  0  0  0  0  0  0  0  0  0  0
   44.7862    3.9242   10.9071 C   0  0  0  0  0  0  0  0  0  0  0  0
   44.8469    3.4692    8.3860 C   0  0  1  0  0  0  0  0  0  0  0  0
   44.0249    3.1824   11.8214 C   0  0  0  0  0  0  0  0  0  0  0  0
   44.8727    5.3123   11.0709 C   0  0  0  0  0  0  0  0  0  0  0  0
   45.2294    2.3508    7.4144 C   0  0  0  0  0  0  0  0  0  0  0  0
   43.3661    3.8162   12.8767 C   0  0  0  0  0  0  0  0  0  0  0  0
   44.2129    5.9458   12.1253 C   0  0  0  0  0  0  0  0  0  0  0  0
   43.4612    5.1980   13.0284 C   0  0  0  0  0  0  0  0  0  0  0  0
   44.4494    4.1949    9.8281 S   0  0  0  0  0  0  0  0  0  0  0  0
   44.4404    5.6278    9.9768 O   0  0  0  0  0  0  0  0  0  0  0  0
   43.3073    3.4539    9.3524 O   0  0  0  0  0  0  0  0  0  0  0  0
   45.7225    3.7598    8.9522 O   0  0  0  0  0  0  0  0  0  0  0  0
   44.8261    3.5767   11.2606 O   0  0  0  0  0  0  0  0  0  0  0  0
   43.5998    3.3226    8.6123 H   0  0  0  0  0  0  0  0  0  0  0  0
   44.2043    4.9541    8.4934 H   0  0  0  0  0  0  0  0  0  0  0  0
   45.2888    1.5409    8.3330 H   0  0  0  0  0  0  0  0  0  0  0  0
   46.8354    1.7317    8.8126 H   0  0  0  0  0  0  0  0  0  0  0  0
   46.4858    3.9895    9.4419 H   0  0  0  0  0  0  0  0  0  0  0  0
   43.8160    2.1475   10.9749 H   0  0  0  0  0  0  0  0  0  0  0  0
   44.2219    6.4005   10.3687 H   0  0  0  0  0  0  0  0  0  0  0  0
   45.5283    3.3132    6.6061 H   0  0  0  0  0  0  0  0  0  0  0  0
   46.1937    4.8648    7.1405 H   0  0  0  0  0  0  0  0  0  0  0  0
   47.2178    3.4248    7.1311 H   0  0  0  0  0  0  0  0  0  0  0  0
   43.3121    2.5469   13.3596 H   0  0  0  0  0  0  0  0  0  0  0  0
   43.7129    6.7816   12.7525 H   0  0  0  0  0  0  0  0  0  0  0  0
   43.2554    4.8603   14.2550 H   0  0  0  0  0  0  0  0  0  0  0  0
   46.6692    3.6115   10.1628 H   0  0  0  0  0  0  0  0  0  0  0  0
   46.2036    5.0126    9.2295 H   0  0  0  0  0  0  0  0  0  0  0  0
   44.5465    1.2723    8.2889 H   0  0  0  0  0  0  0  0  0  0  0  0
   44.2357    1.9038    9.7576 H   0  0  0  0  0  0  0  0  0  0  0  0
   44.3535    3.6074    8.1276 H   0  0  0  0  0  0  0  0  0  0  0  0
   45.2981    2.8626   12.0634 H   0  0  0  0  0  0  0  0  0  0  0  0
   43.9852    6.1256    9.5689 H   0  0  0  0  0  0  0  0  0  0  0  0
   45.9100    2.4206    6.6040 H   0  0  0  0  0  0  0  0  0  0  0  0
   46.5280    4.0292    6.9951 H   0  0  0  0  0  0  0  0  0  0  0  0
   47.2317    2.6028    7.7731 H   0  0  0  0  0  0  0  0  0  0  0  0
   42.2663    6.7028   11.2441 H   0  0  0  0  0  0  0  0  0  0  0  0
   43.5666    3.4479   13.7259 H   0  0  0  0  0  0  0  0  0  0  0  0
   42.0472    5.3661   13.3211 H   0  0  0  0  0  0  0  0  0  0  0  0
   45.1130    3.2735   12.1643 H   0  0  0  0  0  0  0  0  0  0  0  0
   46.4883    3.9250   11.2660 H   0  0  0  0  0  0  0  0  0  0  0  0
   45.7286    2.1314    9.9298 H   0  0  0  0  0  0  0  0  0  0  0  0
   43.4319    2.0263    9.1937 H   0  0  0  0  0  0  0  0  0  0  0  0
   43.0181    3.1797   10.2460 H   0  0  0  0  0  0  0  0  0  0  0  0
   44.5604    4.0253    6.9983 H   0  0  0  0  0  0  0  0  0  0  0  0
   43.3313    6.2184   10.9374 H   0  0  0  0  0  0  0  0  0  0  0  0
   46.5533    3.5450    9.7614 H   0  0  0  0  0  0  0  0  0  0  0  0
   45.5225    2.1548    9.9777 H   0  0  0  0  0  0  0  0  0  0  0  0
   44.7900    4.8834    6.9059 H   0  0  0  0  0  0  0  0  0  0  0  0
   46.2560    4.7409    7.6038 H   0  0  0  0  0  0  0  0  0  0  0  0
   43.7557    3.4723    8.4919 H   0  0  0  0  0  0  0  0  0  0  0  0
   43.9401    2.1031   11.7191 H   0  0  0  0  0  0  0  0  0  0  0  0
   45.4519    5.9087   10.3698 H   0  0  0  0  0  0  0  0  0  0  0  0
   44.8823    1.3814    7.7864 H   0  0  0  0  0  0  0  0  0  0  0  0
   44.7717    2.5071    6.4308 H   0  0  0  0  0  0  0  0  0  0  0  0
   46.3149    2.2917    7.2803 H   0  0  0  0  0  0  0  0  0  0  0  0
   42.7773    3.2321   13.5783 H   0  0  0  0  0  0  0  0  0  0  0  0
   44.2844    7.0247   12.2380 H   0  0  0  0  0  0  0  0  0  0  0  0
   42.9458    5.6930   13.8468 H   0  0  0  0  0  0  0  0  0  0  0  0
   45.9361    2.8296    9.1519 H   0  0  0  0  0  0  0  0  0  0  0  0
   44.1515    3.8840   11.9023 H   0  0  0  0  0  0  0  0  0  0  0  0
  4  2  1  0
  3  1  1  0
  4  1  1  0
  5  3  2  0
  6  3  1  0
  4  7  1  0
  8  5  1  0
  9  6  2  0
 10  8  2  0
  9 10  1  0
 12 14  1  0
 13 11  1  0
 14 11  1  0
 15 13  2  0
 16 13  1  0
 17 14  1  0
 18 16  2  0
 19 15  1  0
 20 18  1  0
 19 20  2  0
 22 24  1  0
 23 21  1  0
 24 21  1  0
 25 22  2  0
 26 23  2  0
 27 24  1  0
 28 22  1  0
 29 23  1  0
 33 31  1  0
 32 30  1  0
 33 30  1  0
 34 32  2  0
 35 32  1  0
 33 36  1  0
 37 34  1  0
 38 35  2  0
 39 37  2  0
 38 39  1  0
 41 40  2  0
 42 40  2  0
 43 40  1  0
 44 40  1  0
  1 45  1  0
  1 46  1  0
  2 47  1  0
  2 48  1  0
  4 49  1  6
  5 50  1  0
  6 51  1  0
  7 52  1  0
  7 53  1  0
  7 54  1  0
  8 55  1  0
  9 56  1  0
 10 57  1  0
 11 58  1  0
 11 59  1  0
 12 60  1  0
 12 61  1  0
 14 62  1  1
 15 63  1  0
 16 64  1  0
 17 65  1  0
 17 66  1  0
 17 67  1  0
 18 68  1  0
 19 69  1  0
 20 70  1  0
 21 71  1  0
 21 72  1  0
 24 73  1  6
 27 74  1  0
 27 75  1  0
 28 76  1  0
 29 77  1  0
 30 78  1  0
 30 79  1  0
 31 80  1  0
 31 81  1  0
 33 82  1  1
 34 83  1  0
 35 84  1  0
 36 85  1  0
 36 86  1  0
 36 87  1  0
 37 88  1  0
 38 89  1  0
 39 90  1  0
 43 91  1  0
 44 92  1  0
M  END
> <Uni-Dock RESULT> 
ENERGY=   -8.905  LOWER_BOUND=    2.397  UPPER_BOUND=    4.175
INTER + INTRA:          -8.905
INTER:                  -8.905
INTRA:                   0.000
UNBOUND:                 0.000

$$$$

     RDKit          3D

 92 90  0  0  0  0  0  0  0  0999 V2000
   46.3908    6.6615   13.3487 C   0  0  0  0  0  0  0  0  0  0  0  0
   47.5135    8.0446   11.6025 N   0  0  0  0  0  0  0  0  0  0  0  0
   45.1582    6.1014   12.6756 C   0  0  0  0  0  0  0  0  0  0  0  0
   47.6030    6.8155   12.4027 C   0  0  1  0  0  0  0  0  0  0  0  0
   44.3738    6.9047   11.8371 C   0  0  0  0  0  0  0  0  0  0  0  0
   44.7839    4.7647   12.8784 C   0  0  0  0  0  0  0  0  0  0  0  0
   48.9053    6.8476   13.2055 C   0  0  0  0  0  0  0  0  0  0  0  0
   43.2362    6.3839   11.2181 C   0  0  0  0  0  0  0  0  0  0  0  0
   43.6437    4.2464   12.2606 C   0  0  0  0  0  0  0  0  0  0  0  0
   42.8699    5.0566   11.4314 C   0  0  0  0  0  0  0  0  0  0  0  0
   47.0050    5.9980   12.0347 C   0  0  0  0  0  0  0  0  0  0  0  0
   46.8172    8.4839   12.0749 N   0  0  0  0  0  0  0  0  0  0  0  0
   45.5396    5.6503   12.1680 C   0  0  0  0  0  0  0  0  0  0  0  0
   47.3902    7.3120   12.7482 C   0  0  2  0  0  0  0  0  0  0  0  0
   44.6269    6.0212   11.1716 C   0  0  0  0  0  0  0  0  0  0  0  0
   45.0712    4.9695   13.2994 C   0  0  0  0  0  0  0  0  0  0  0  0
   48.9090    7.4720   12.7878 C   0  0  0  0  0  0  0  0  0  0  0  0
   43.7162    4.6629   13.4286 C   0  0  0  0  0  0  0  0  0  0  0  0
   43.2714    5.7190   11.3055 C   0  0  0  0  0  0  0  0  0  0  0  0
   42.8164    5.0395   12.4329 C   0  0  0  0  0  0  0  0  0  0  0  0
   45.6105    5.9082   11.1409 C   0  0  0  0  0  0  0  0  0  0  0  0
   47.2181    6.7133   12.9279 C   0  0  0  0  0  0  0  0  0  0  0  0
   45.1568    4.7937   12.0440 C   0  0  0  0  0  0  0  0  0  0  0  0
   46.2047    7.1239   11.8524 C   0  0  2  0  0  0  0  0  0  0  0  0
   47.9769    5.7586   12.8821 O   0  0  0  0  0  0  0  0  0  0  0  0
   45.1679    3.6059   11.7663 O   0  0  0  0  0  0  0  0  0  0  0  0
   45.1440    8.0019   12.4120 N   0  0  0  0  0  0  0  0  0  0  0  0
   47.2569    7.5622   13.9809 O   0  0  0  0  0  0  0  0  0  0  0  0
   44.6256    5.2037   13.2106 O   0  0  0  0  0  0  0  0  0  0  0  0
   46.7082    6.8333   11.8208 C   0  0  0  0  0  0  0  0  0  0  0  0
   47.8970    6.0870   13.8848 N   0  0  0  0  0  0  0  0  0  0  0  0
   45.4048    6.0651   11.8032 C   0  0  0  0  0  0  0  0  0  0  0  0
   47.1946    7.2048   13.2401 C   0  0  1  0  0  0  0  0  0  0  0  0
   44.2205    6.6873   11.3836 C   0  0  0  0  0  0  0  0  0  0  0  0
   45.3572    4.7239   12.2030 C   0  0  0  0  0  0  0  0  0  0  0  0
   48.1408    8.4058   13.1839 C   0  0  0  0  0  0  0  0  0  0  0  0
   43.0158    5.9818   11.3636 C   0  0  0  0  0  0  0  0  0  0  0  0
   44.1524    4.0192   12.1841 C   0  0  0  0  0  0  0  0  0  0  0  0
   42.9828    4.6474   11.7633 C   0  0  0  0  0  0  0  0  0  0  0  0
   45.9105    6.2287   12.8369 S   0  0  0  0  0  0  0  0  0  0  0  0
   45.8046    4.8776   13.3254 O   0  0  0  0  0  0  0  0  0  0  0  0
   45.4149    7.3647   13.5742 O   0  0  0  0  0  0  0  0  0  0  0  0
   47.4341    6.5284   12.4297 O   0  0  0  0  0  0  0  0  0  0  0  0
   45.1878    6.2679   11.4044 O   0  0  0  0  0  0  0  0  0  0  0  0
   46.1384    7.6205   13.8227 H   0  0  0  0  0  0  0  0  0  0  0  0
   46.6607    5.9951   14.1788 H   0  0  0  0  0  0  0  0  0  0  0  0
   47.5450    8.8599   12.2133 H   0  0  0  0  0  0  0  0  0  0  0  0
   48.3281    8.1128   10.9938 H   0  0  0  0  0  0  0  0  0  0  0  0
   47.6457    5.9614   11.7163 H   0  0  0  0  0  0  0  0  0  0  0  0
   44.6539    7.9403   11.6540 H   0  0  0  0  0  0  0  0  0  0  0  0
   45.3774    4.1170   13.5191 H   0  0  0  0  0  0  0  0  0  0  0  0
   48.9189    7.6801   13.9164 H   0  0  0  0  0  0  0  0  0  0  0  0
   49.0323    5.9189   13.7714 H   0  0  0  0  0  0  0  0  0  0  0  0
   49.7734    6.9521   12.5445 H   0  0  0  0  0  0  0  0  0  0  0  0
   42.6390    7.0154   10.5656 H   0  0  0  0  0  0  0  0  0  0  0  0
   43.3595    3.2105   12.4270 H   0  0  0  0  0  0  0  0  0  0  0  0
   41.9836    4.6533   10.9494 H   0  0  0  0  0  0  0  0  0  0  0  0
   47.2773    6.0441   10.9721 H   0  0  0  0  0  0  0  0  0  0  0  0
   47.5920    5.1673   12.4496 H   0  0  0  0  0  0  0  0  0  0  0  0
   47.0397    9.3256   12.6043 H   0  0  0  0  0  0  0  0  0  0  0  0
   45.7995    8.4036   12.0905 H   0  0  0  0  0  0  0  0  0  0  0  0
   47.0183    7.2921   13.7792 H   0  0  0  0  0  0  0  0  0  0  0  0
   44.9698    6.5531   10.2871 H   0  0  0  0  0  0  0  0  0  0  0  0
   45.7604    4.6693   14.0844 H   0  0  0  0  0  0  0  0  0  0  0  0
   49.1933    8.3902   13.3140 H   0  0  0  0  0  0  0  0  0  0  0  0
   49.3719    6.6321   13.3165 H   0  0  0  0  0  0  0  0  0  0  0  0
   49.3364    7.5112   11.7798 H   0  0  0  0  0  0  0  0  0  0  0  0
   43.3617    4.1295   14.3057 H   0  0  0  0  0  0  0  0  0  0  0  0
   42.5709    6.0130   10.5281 H   0  0  0  0  0  0  0  0  0  0  0  0
   41.7610    4.8025   12.5357 H   0  0  0  0  0  0  0  0  0  0  0  0
   44.7675    6.1995   10.5045 H   0  0  0  0  0  0  0  0  0  0  0  0
   46.3831    5.4838   10.4877 H   0  0  0  0  0  0  0  0  0  0  0  0
   46.7569    7.7282   11.1223 H   0  0  0  0  0  0  0  0  0  0  0  0
   45.6111    8.6817   13.0212 H   0  0  0  0  0  0  0  0  0  0  0  0
   44.5864    7.4336   13.0583 H   0  0  0  0  0  0  0  0  0  0  0  0
   47.9512    7.1840   14.5609 H   0  0  0  0  0  0  0  0  0  0  0  0
   44.3409    4.3651   13.6358 H   0  0  0  0  0  0  0  0  0  0  0  0
   47.4718    6.2551   11.2830 H   0  0  0  0  0  0  0  0  0  0  0  0
   46.5753    7.7503   11.2310 H   0  0  0  0  0  0  0  0  0  0  0  0
   48.1830    6.3626   14.8237 H   0  0  0  0  0  0  0  0  0  0  0  0
   48.7558    5.8786   13.3767 H   0  0  0  0  0  0  0  0  0  0  0  0
   46.3346    7.4755   13.8638 H   0  0  0  0  0  0  0  0  0  0  0  0
   44.2275    7.7278   11.0673 H   0  0  0  0  0  0  0  0  0  0  0  0
   46.2622    4.2229   12.5389 H   0  0  0  0  0  0  0  0  0  0  0  0
   47.6303    9.2798   12.7664 H   0  0  0  0  0  0  0  0  0  0  0  0
   48.4929    8.6797   14.1851 H   0  0  0  0  0  0  0  0  0  0  0  0
   49.0162    8.1963   12.5598 H   0  0  0  0  0  0  0  0  0  0  0  0
   42.1037    6.4740   11.0384 H   0  0  0  0  0  0  0  0  0  0  0  0
   44.1287    2.9798   12.5018 H   0  0  0  0  0  0  0  0  0  0  0  0
   42.0453    4.0983   11.7520 H   0  0  0  0  0  0  0  0  0  0  0  0
   47.4474    7.2605   11.7858 H   0  0  0  0  0  0  0  0  0  0  0  0
   44.2575    5.9867   11.5344 H   0  0  0  0  0  0  0  0  0  0  0  0
  4  2  1  0
  3  1  1  0
  4  1  1  0
  5  3  2  0
  6  3  1  0
  4  7  1  0
  8  5  1  0
  9  6  2  0
 10  8  2  0
  9 10  1  0
 12 14  1  0
 13 11  1  0
 14 11  1  0
 15 13  2  0
 16 13  1  0
 17 14  1  0
 18 16  2  0
 19 15  1  0
 20 18  1  0
 19 20  2  0
 22 24  1  0
 23 21  1  0
 24 21  1  0
 25 22  2  0
 26 23  2  0
 27 24  1  0
 28 22  1  0
 29 23  1  0
 33 31  1  0
 32 30  1  0
 33 30  1  0
 34 32  2  0
 35 32  1  0
 33 36  1  0
 37 34  1  0
 38 35  2  0
 39 37  2  0
 38 39  1  0
 41 40  2  0
 42 40  2  0
 43 40  1  0
 44 40  1  0
  1 45  1  0
  1 46  1  0
  2 47  1  0
  2 48  1  0
  4 49  1  6
  5 50  1  0
  6 51  1  0
  7 52  1  0
  7 53  1  0
  7 54  1  0
  8 55  1  0
  9 56  1  0
 10 57  1  0
 11 58  1  0
 11 59  1  0
 12 60  1  0
 12 61  1  0
 14 62  1  1
 15 63  1  0
 16 64  1  0
 17 65  1  0
 17 66  1  0
 17 67  1  0
 18 68  1  0
 19 69  1  0
 20 70  1  0
 21 71  1  0
 21 72  1  0
 24 73  1  6
 27 74  1  0
 27 75  1  0
 28 76  1  0
 29 77  1  0
 30 78  1  0
 30 79  1  0
 31 80  1  0
 31 81  1  0
 33 82  1  1
 34 83  1  0
 35 84  1  0
 36 85  1  0
 36 86  1  0
 36 87  1  0
 37 88  1  0
 38 89  1  0
 39 90  1  0
 43 91  1  0
 44 92  1  0
M  END
> <Uni-Dock RESULT> 
ENERGY=   -8.740  LOWER_BOUND=    1.274  UPPER_BOUND=    2.540
INTER + INTRA:          -8.740
INTER:                  -8.740
INTRA:                   0.000
UNBOUND:                 0.000

$$$$

     RDKit          3D

 92 90  0  0  0  0  0  0  0  0999 V2000
   45.5998    3.5704    9.8275 C   0  0  0  0  0  0  0  0  0  0  0  0
   44.2739    3.7169    7.7197 N   0  0  0  0  0  0  0  0  0  0  0  0
   44.6990    4.1396   10.9002 C   0  0  0  0  0  0  0  0  0  0  0  0
   44.8434    2.8032    8.7197 C   0  0  1  0  0  0  0  0  0  0  0  0
   43.9350    5.2889   10.6568 C   0  0  0  0  0  0  0  0  0  0  0  0
   44.6122    3.5212   12.1563 C   0  0  0  0  0  0  0  0  0  0  0  0
   45.7833    1.8257    8.0108 C   0  0  0  0  0  0  0  0  0  0  0  0
   43.1051    5.8116   11.6500 C   0  0  0  0  0  0  0  0  0  0  0  0
   43.7836    4.0475   13.1497 C   0  0  0  0  0  0  0  0  0  0  0  0
   43.0312    5.1931   12.8963 C   0  0  0  0  0  0  0  0  0  0  0  0
   44.2672    2.7174    9.6262 C   0  0  0  0  0  0  0  0  0  0  0  0
   44.7346    4.5115    7.9591 N   0  0  0  0  0  0  0  0  0  0  0  0
   44.1656    3.5730   10.8687 C   0  0  0  0  0  0  0  0  0  0  0  0
   45.2461    3.2802    8.5733 C   0  0  2  0  0  0  0  0  0  0  0  0
   43.1544    4.5354   10.9891 C   0  0  0  0  0  0  0  0  0  0  0  0
   45.0936    3.4285   11.9084 C   0  0  0  0  0  0  0  0  0  0  0  0
   45.4888    2.2536    7.4681 C   0  0  0  0  0  0  0  0  0  0  0  0
   45.0082    4.2294   13.0478 C   0  0  0  0  0  0  0  0  0  0  0  0
   43.0743    5.3394   12.1265 C   0  0  0  0  0  0  0  0  0  0  0  0
   44.0001    5.1860   13.1557 C   0  0  0  0  0  0  0  0  0  0  0  0
   43.2173    3.7284   10.4182 C   0  0  0  0  0  0  0  0  0  0  0  0
   45.2935    3.0033    9.1576 C   0  0  0  0  0  0  0  0  0  0  0  0
   43.8454    3.2922   11.7139 C   0  0  0  0  0  0  0  0  0  0  0  0
   44.2006    4.0700    9.2986 C   0  0  2  0  0  0  0  0  0  0  0  0
   45.1635    1.8037    9.3403 O   0  0  0  0  0  0  0  0  0  0  0  0
   43.3606    2.5027   12.5074 O   0  0  0  0  0  0  0  0  0  0  0  0
   44.7838    5.4253    9.4783 N   0  0  0  0  0  0  0  0  0  0  0  0
   46.4800    3.5024    8.7405 O   0  0  0  0  0  0  0  0  0  0  0  0
   44.9979    3.9197   12.0129 O   0  0  0  0  0  0  0  0  0  0  0  0
   44.1752    3.5024    9.1715 C   0  0  0  0  0  0  0  0  0  0  0  0
   46.1931    2.0464    9.3673 N   0  0  0  0  0  0  0  0  0  0  0  0
   43.8689    3.9627   10.5799 C   0  0  0  0  0  0  0  0  0  0  0  0
   45.6847    3.3371    8.8833 C   0  0  1  0  0  0  0  0  0  0  0  0
   43.4351    5.2743   10.8189 C   0  0  0  0  0  0  0  0  0  0  0  0
   44.0112    3.0907   11.6664 C   0  0  0  0  0  0  0  0  0  0  0  0
   45.9561    3.4339    7.3807 C   0  0  0  0  0  0  0  0  0  0  0  0
   43.1491    5.7028   12.1165 C   0  0  0  0  0  0  0  0  0  0  0  0
   43.7265    3.5198   12.9638 C   0  0  0  0  0  0  0  0  0  0  0  0
   43.2943    4.8246   13.1885 C   0  0  0  0  0  0  0  0  0  0  0  0
   44.9663    3.6581   10.3480 S   0  0  0  0  0  0  0  0  0  0  0  0
   45.1868    2.8199   11.4987 O   0  0  0  0  0  0  0  0  0  0  0  0
   45.8349    4.7579   10.0074 O   0  0  0  0  0  0  0  0  0  0  0  0
   44.7984    2.7369    9.0441 O   0  0  0  0  0  0  0  0  0  0  0  0
   43.4910    4.2736   10.4913 O   0  0  0  0  0  0  0  0  0  0  0  0
   46.2073    4.3803    9.3996 H   0  0  0  0  0  0  0  0  0  0  0  0
   46.3212    2.8960   10.3081 H   0  0  0  0  0  0  0  0  0  0  0  0
   45.0216    4.2147    7.2382 H   0  0  0  0  0  0  0  0  0  0  0  0
   43.7855    3.1769    7.0065 H   0  0  0  0  0  0  0  0  0  0  0  0
   44.0234    2.2270    9.1645 H   0  0  0  0  0  0  0  0  0  0  0  0
   43.9759    5.7763    9.6845 H   0  0  0  0  0  0  0  0  0  0  0  0
   45.1893    2.6248   12.3707 H   0  0  0  0  0  0  0  0  0  0  0  0
   46.6300    2.3448    7.5497 H   0  0  0  0  0  0  0  0  0  0  0  0
   46.1827    1.0926    8.7192 H   0  0  0  0  0  0  0  0  0  0  0  0
   45.2567    1.2720    7.2250 H   0  0  0  0  0  0  0  0  0  0  0  0
   42.5133    6.7003   11.4473 H   0  0  0  0  0  0  0  0  0  0  0  0
   43.7261    3.5634   14.1213 H   0  0  0  0  0  0  0  0  0  0  0  0
   42.3853    5.6019   13.6685 H   0  0  0  0  0  0  0  0  0  0  0  0
   43.2690    2.5829    9.1893 H   0  0  0  0  0  0  0  0  0  0  0  0
   44.5898    1.7121    9.9296 H   0  0  0  0  0  0  0  0  0  0  0  0
   45.4295    4.8874    7.3158 H   0  0  0  0  0  0  0  0  0  0  0  0
   44.6180    5.2158    8.6891 H   0  0  0  0  0  0  0  0  0  0  0  0
   46.2067    3.5075    9.0500 H   0  0  0  0  0  0  0  0  0  0  0  0
   42.4262    4.6656   10.1918 H   0  0  0  0  0  0  0  0  0  0  0  0
   45.8854    2.6872   11.8390 H   0  0  0  0  0  0  0  0  0  0  0  0
   46.2017    2.6347    6.7282 H   0  0  0  0  0  0  0  0  0  0  0  0
   45.9066    1.3307    7.8837 H   0  0  0  0  0  0  0  0  0  0  0  0
   44.5606    1.9971    6.9458 H   0  0  0  0  0  0  0  0  0  0  0  0
   45.7275    4.1072   13.8522 H   0  0  0  0  0  0  0  0  0  0  0  0
   42.2875    6.0848   12.2094 H   0  0  0  0  0  0  0  0  0  0  0  0
   43.9360    5.8109   14.0422 H   0  0  0  0  0  0  0  0  0  0  0  0
   42.5513    4.5731   10.6266 H   0  0  0  0  0  0  0  0  0  0  0  0
   42.5915    2.8932   10.0796 H   0  0  0  0  0  0  0  0  0  0  0  0
   43.6605    4.0869    8.3441 H   0  0  0  0  0  0  0  0  0  0  0  0
   45.5556    5.5084    8.8085 H   0  0  0  0  0  0  0  0  0  0  0  0
   45.2480    5.4393   10.3926 H   0  0  0  0  0  0  0  0  0  0  0  0
   47.0581    2.7127    8.6807 H   0  0  0  0  0  0  0  0  0  0  0  0
   45.2287    3.5582   12.8968 H   0  0  0  0  0  0  0  0  0  0  0  0
   43.6333    2.5675    8.9745 H   0  0  0  0  0  0  0  0  0  0  0  0
   43.7497    4.2331    8.4704 H   0  0  0  0  0  0  0  0  0  0  0  0
   47.1930    1.9836    9.1786 H   0  0  0  0  0  0  0  0  0  0  0  0
   45.7580    1.2858    8.8464 H   0  0  0  0  0  0  0  0  0  0  0  0
   46.2438    4.1361    9.3843 H   0  0  0  0  0  0  0  0  0  0  0  0
   43.3153    5.9733    9.9944 H   0  0  0  0  0  0  0  0  0  0  0  0
   44.3529    2.0709   11.5055 H   0  0  0  0  0  0  0  0  0  0  0  0
   45.6476    4.4112    6.9953 H   0  0  0  0  0  0  0  0  0  0  0  0
   47.0242    3.3185    7.1630 H   0  0  0  0  0  0  0  0  0  0  0  0
   45.4095    2.6642    6.8253 H   0  0  0  0  0  0  0  0  0  0  0  0
   42.8155    6.7219   12.2907 H   0  0  0  0  0  0  0  0  0  0  0  0
   43.8459    2.8340   13.7988 H   0  0  0  0  0  0  0  0  0  0  0  0
   43.0759    5.1578   14.1993 H   0  0  0  0  0  0  0  0  0  0  0  0
   44.3034    3.2374    8.3693 H   0  0  0  0  0  0  0  0  0  0  0  0
   43.4599    4.7749   11.3334 H   0  0  0  0  0  0  0  0  0  0  0  0
  4  2  1  0
  3  1  1  0
  4  1  1  0
  5  3  2  0
  6  3  1  0
  4  7  1  0
  8  5  1  0
  9  6  2  0
 10  8  2  0
  9 10  1  0
 12 14  1  0
 13 11  1  0
 14 11  1  0
 15 13  2  0
 16 13  1  0
 17 14  1  0
 18 16  2  0
 19 15  1  0
 20 18  1  0
 19 20  2  0
 22 24  1  0
 23 21  1  0
 24 21  1  0
 25 22  2  0
 26 23  2  0
 27 24  1  0
 28 22  1  0
 29 23  1  0
 33 31  1  0
 32 30  1  0
 33 30  1  0
 34 32  2  0
 35 32  1  0
 33 36  1  0
 37 34  1  0
 38 35  2  0
 39 37  2  0
 38 39  1  0
 41 40  2  0
 42 40  2  0
 43 40  1  0
 44 40  1  0
  1 45  1  0
  1 46  1  0
  2 47  1  0
  2 48  1  0
  4 49  1  6
  5 50  1  0
  6 51  1  0
  7 52  1  0
  7 53  1  0
  7 54  1  0
  8 55  1  0
  9 56  1  0
 10 57  1  0
 11 58  1  0
 11 59  1  0
 12 60  1  0
 12 61  1  0
 14 62  1  1
 15 63  1  0
 16 64  1  0
 17 65  1  0
 17 66  1  0
 17 67  1  0
 18 68  1  0
 19 69  1  0
 20 70  1  0
 21 71  1  0
 21 72  1  0
 24 73  1  6
 27 74  1  0
 27 75  1  0
 28 76  1  0
 29 77  1  0
 30 78  1  0
 30 79  1  0
 31 80  1  0
 31 81  1  0
 33 82  1  1
 34 83  1  0
 35 84  1  0
 36 85  1  0
 36 86  1  0
 36 87  1  0
 37 88  1  0
 38 89  1  0
 39 90  1  0
 43 91  1  0
 44 92  1  0
M  END
> <Uni-Dock RESULT> 
ENERGY=   -8.715  LOWER_BOUND=    2.502  UPPER_BOUND=    4.482
INTER + INTRA:          -8.715
INTER:                  -8.715
INTRA:                   0.000
UNBOUND:                 0.000

$$$$

     RDKit          3D

 92 90  0  0  0  0  0  0  0  0999 V2000
   45.3888    5.2017   11.4680 C   0  0  0  0  0  0  0  0  0  0  0  0
   42.9940    5.0868   12.1567 N   0  0  0  0  0  0  0  0  0  0  0  0
   45.8694    6.5561   11.9377 C   0  0  0  0  0  0  0  0  0  0  0  0
   44.3412    4.5532   12.4008 C   0  0  1  0  0  0  0  0  0  0  0  0
   45.0638    7.6928   11.7866 C   0  0  0  0  0  0  0  0  0  0  0  0
   47.1304    6.6936   12.5367 C   0  0  0  0  0  0  0  0  0  0  0  0
   44.3117    3.0369   12.1972 C   0  0  0  0  0  0  0  0  0  0  0  0
   45.5115    8.9415   12.2210 C   0  0  0  0  0  0  0  0  0  0  0  0
   47.5777    7.9443   12.9679 C   0  0  0  0  0  0  0  0  0  0  0  0
   46.7684    9.0679   12.8089 C   0  0  0  0  0  0  0  0  0  0  0  0
   44.9692    5.1854   13.0067 C   0  0  0  0  0  0  0  0  0  0  0  0
   43.1532    5.5328   11.3340 N   0  0  0  0  0  0  0  0  0  0  0  0
   45.8072    6.4057   12.6994 C   0  0  0  0  0  0  0  0  0  0  0  0
   44.2226    4.6289   11.7752 C   0  0  2  0  0  0  0  0  0  0  0  0
   45.2899    7.6926   12.8986 C   0  0  0  0  0  0  0  0  0  0  0  0
   47.1059    6.2663   12.1924 C   0  0  0  0  0  0  0  0  0  0  0  0
   43.6044    3.2691   12.0957 C   0  0  0  0  0  0  0  0  0  0  0  0
   47.8727    7.3932   11.8944 C   0  0  0  0  0  0  0  0  0  0  0  0
   46.0560    8.8183   12.5943 C   0  0  0  0  0  0  0  0  0  0  0  0
   47.3469    8.6688   12.0933 C   0  0  0  0  0  0  0  0  0  0  0  0
   45.0245    6.8198   13.2845 C   0  0  0  0  0  0  0  0  0  0  0  0
   44.8374    4.6549   11.9791 C   0  0  0  0  0  0  0  0  0  0  0  0
   46.5253    6.7343   13.2210 C   0  0  0  0  0  0  0  0  0  0  0  0
   44.2808    6.0700   12.1792 C   0  0  2  0  0  0  0  0  0  0  0  0
   45.2844    3.9224   12.8469 O   0  0  0  0  0  0  0  0  0  0  0  0
   47.2786    6.7534   14.1804 O   0  0  0  0  0  0  0  0  0  0  0  0
   44.2761    6.8372   10.9061 N   0  0  0  0  0  0  0  0  0  0  0  0
   44.7501    4.2195   10.7010 O   0  0  0  0  0  0  0  0  0  0  0  0
   47.0300    6.7219   11.9735 O   0  0  0  0  0  0  0  0  0  0  0  0
   44.3144    5.6117   12.5367 C   0  0  0  0  0  0  0  0  0  0  0  0
   45.6082    3.5738   11.9017 N   0  0  0  0  0  0  0  0  0  0  0  0
   45.3364    6.7212   12.6531 C   0  0  0  0  0  0  0  0  0  0  0  0
   44.6400    4.5761   11.4365 C   0  0  1  0  0  0  0  0  0  0  0  0
   45.0346    8.0139   12.2019 C   0  0  0  0  0  0  0  0  0  0  0  0
   46.5973    6.4792   13.2123 C   0  0  0  0  0  0  0  0  0  0  0  0
   43.3681    3.8525   10.9898 C   0  0  0  0  0  0  0  0  0  0  0  0
   45.9738    9.0414   12.3092 C   0  0  0  0  0  0  0  0  0  0  0  0
   47.5366    7.5064   13.3183 C   0  0  0  0  0  0  0  0  0  0  0  0
   47.2244    8.7870   12.8684 C   0  0  0  0  0  0  0  0  0  0  0  0
   45.6039    5.8234   11.9652 S   0  0  0  0  0  0  0  0  0  0  0  0
   46.9406    5.5931   12.4504 O   0  0  0  0  0  0  0  0  0  0  0  0
   45.3064    6.0279   10.5689 O   0  0  0  0  0  0  0  0  0  0  0  0
   44.6331    4.6690   12.5149 O   0  0  0  0  0  0  0  0  0  0  0  0
   45.0373    7.1084   12.7422 O   0  0  0  0  0  0  0  0  0  0  0  0
   45.0001    5.2923   10.4439 H   0  0  0  0  0  0  0  0  0  0  0  0
   46.2603    4.5387   11.3848 H   0  0  0  0  0  0  0  0  0  0  0  0
   42.6933    4.8518   11.2116 H   0  0  0  0  0  0  0  0  0  0  0  0
   42.3317    4.6362   12.7869 H   0  0  0  0  0  0  0  0  0  0  0  0
   44.6050    4.7525   13.4462 H   0  0  0  0  0  0  0  0  0  0  0  0
   44.0760    7.6066   11.3379 H   0  0  0  0  0  0  0  0  0  0  0  0
   47.7739    5.8275   12.6721 H   0  0  0  0  0  0  0  0  0  0  0  0
   44.0586    2.7748   11.1647 H   0  0  0  0  0  0  0  0  0  0  0  0
   45.2882    2.5982   12.4266 H   0  0  0  0  0  0  0  0  0  0  0  0
   43.5748    2.5648   12.8571 H   0  0  0  0  0  0  0  0  0  0  0  0
   44.8752    9.8147   12.1033 H   0  0  0  0  0  0  0  0  0  0  0  0
   48.5582    8.0414   13.4273 H   0  0  0  0  0  0  0  0  0  0  0  0
   47.1155   10.0408   13.1456 H   0  0  0  0  0  0  0  0  0  0  0  0
   44.2606    5.4187   13.8122 H   0  0  0  0  0  0  0  0  0  0  0  0
   45.6316    4.4111   13.4173 H   0  0  0  0  0  0  0  0  0  0  0  0
   42.7227    5.1657   10.4866 H   0  0  0  0  0  0  0  0  0  0  0  0
   43.5698    6.4274   11.0722 H   0  0  0  0  0  0  0  0  0  0  0  0
   44.9278    4.5006   10.9458 H   0  0  0  0  0  0  0  0  0  0  0  0
   44.2828    7.8224   13.2881 H   0  0  0  0  0  0  0  0  0  0  0  0
   47.5298    5.2784   12.0317 H   0  0  0  0  0  0  0  0  0  0  0  0
   43.0927    2.8545   11.2199 H   0  0  0  0  0  0  0  0  0  0  0  0
   44.3782    2.5542   12.3945 H   0  0  0  0  0  0  0  0  0  0  0  0
   42.8781    3.3393   12.9128 H   0  0  0  0  0  0  0  0  0  0  0  0
   48.8808    7.2770   11.5076 H   0  0  0  0  0  0  0  0  0  0  0  0
   45.6449    9.8124   12.7501 H   0  0  0  0  0  0  0  0  0  0  0  0
   47.9439    9.5457   11.8585 H   0  0  0  0  0  0  0  0  0  0  0  0
   44.7411    7.8781   13.2997 H   0  0  0  0  0  0  0  0  0  0  0  0
   44.7291    6.3873   14.2486 H   0  0  0  0  0  0  0  0  0  0  0  0
   43.2314    5.9501   12.4751 H   0  0  0  0  0  0  0  0  0  0  0  0
   43.9298    6.2036   10.1782 H   0  0  0  0  0  0  0  0  0  0  0  0
   45.2540    7.0019   10.6451 H   0  0  0  0  0  0  0  0  0  0  0  0
   45.1198    3.3121   10.7371 H   0  0  0  0  0  0  0  0  0  0  0  0
   48.0010    6.7201   12.1231 H   0  0  0  0  0  0  0  0  0  0  0  0
   44.2027    5.1238   13.5144 H   0  0  0  0  0  0  0  0  0  0  0  0
   43.3358    6.0656   12.3299 H   0  0  0  0  0  0  0  0  0  0  0  0
   45.8130    2.9231   11.1442 H   0  0  0  0  0  0  0  0  0  0  0  0
   45.1975    3.0171   12.6504 H   0  0  0  0  0  0  0  0  0  0  0  0
   45.0666    5.0874   10.5656 H   0  0  0  0  0  0  0  0  0  0  0  0
   44.0633    8.2311   11.7635 H   0  0  0  0  0  0  0  0  0  0  0  0
   46.8559    5.4827   13.5626 H   0  0  0  0  0  0  0  0  0  0  0  0
   42.6451    4.5632   10.5762 H   0  0  0  0  0  0  0  0  0  0  0  0
   43.5857    3.1149   10.2088 H   0  0  0  0  0  0  0  0  0  0  0  0
   42.8892    3.3325   11.8265 H   0  0  0  0  0  0  0  0  0  0  0  0
   45.7301   10.0389   11.9547 H   0  0  0  0  0  0  0  0  0  0  0  0
   48.5135    7.3036   13.7500 H   0  0  0  0  0  0  0  0  0  0  0  0
   47.9577    9.5846   12.9490 H   0  0  0  0  0  0  0  0  0  0  0  0
   43.7166    5.0018   12.5080 H   0  0  0  0  0  0  0  0  0  0  0  0
   45.6403    7.8581   12.5534 H   0  0  0  0  0  0  0  0  0  0  0  0
  4  2  1  0
  3  1  1  0
  4  1  1  0
  5  3  2  0
  6  3  1  0
  4  7  1  0
  8  5  1  0
  9  6  2  0
 10  8  2  0
  9 10  1  0
 12 14  1  0
 13 11  1  0
 14 11  1  0
 15 13  2  0
 16 13  1  0
 17 14  1  0
 18 16  2  0
 19 15  1  0
 20 18  1  0
 19 20  2  0
 22 24  1  0
 23 21  1  0
 24 21  1  0
 25 22  2  0
 26 23  2  0
 27 24  1  0
 28 22  1  0
 29 23  1  0
 33 31  1  0
 32 30  1  0
 33 30  1  0
 34 32  2  0
 35 32  1  0
 33 36  1  0
 37 34  1  0
 38 35  2  0
 39 37  2  0
 38 39  1  0
 41 40  2  0
 42 40  2  0
 43 40  1  0
 44 40  1  0
  1 45  1  0
  1 46  1  0
  2 47  1  0
  2 48  1  0
  4 49  1  6
  5 50  1  0
  6 51  1  0
  7 52  1  0
  7 53  1  0
  7 54  1  0
  8 55  1  0
  9 56  1  0
 10 57  1  0
 11 58  1  0
 11 59  1  0
 12 60  1  0
 12 61  1  0
 14 62  1  1
 15 63  1  0
 16 64  1  0
 17 65  1  0
 17 66  1  0
 17 67  1  0
 18 68  1  0
 19 69  1  0
 20 70  1  0
 21 71  1  0
 21 72  1  0
 24 73  1  6
 27 74  1  0
 27 75  1  0
 28 76  1  0
 29 77  1  0
 30 78  1  0
 30 79  1  0
 31 80  1  0
 31 81  1  0
 33 82  1  1
 34 83  1  0
 35 84  1  0
 36 85  1  0
 36 86  1  0
 36 87  1  0
 37 88  1  0
 38 89  1  0
 39 90  1  0
 43 91  1  0
 44 92  1  0
M  END
> <Uni-Dock RESULT> 
ENERGY=   -8.449  LOWER_BOUND=    1.267  UPPER_BOUND=    4.251
INTER + INTRA:          -8.449
INTER:                  -8.449
INTRA:                   0.000
UNBOUND:                 0.000

$$$$

     RDKit          3D

 92 90  0  0  0  0  0  0  0  0999 V2000
   44.7309    6.0446   12.9964 C   0  0  0  0  0  0  0  0  0  0  0  0
   44.9370    4.1960   11.3343 N   0  0  0  0  0  0  0  0  0  0  0  0
   45.9710    6.8880   12.8037 C   0  0  0  0  0  0  0  0  0  0  0  0
   44.1961    5.4137   11.6911 C   0  0  1  0  0  0  0  0  0  0  0  0
   47.2215    6.2867   12.6081 C   0  0  0  0  0  0  0  0  0  0  0  0
   45.8861    8.2882   12.8141 C   0  0  0  0  0  0  0  0  0  0  0  0
   42.7145    5.0603   11.8375 C   0  0  0  0  0  0  0  0  0  0  0  0
   48.3641    7.0689   12.4312 C   0  0  0  0  0  0  0  0  0  0  0  0
   47.0308    9.0690   12.6400 C   0  0  0  0  0  0  0  0  0  0  0  0
   48.2694    8.4589   12.4496 C   0  0  0  0  0  0  0  0  0  0  0  0
   44.6936    6.3328   11.4282 C   0  0  0  0  0  0  0  0  0  0  0  0
   45.3985    4.0532   12.1515 N   0  0  0  0  0  0  0  0  0  0  0  0
   45.7903    7.1374   12.0884 C   0  0  0  0  0  0  0  0  0  0  0  0
   44.3226    5.0506   12.2042 C   0  0  2  0  0  0  0  0  0  0  0  0
   47.1271    6.9670   11.7048 C   0  0  0  0  0  0  0  0  0  0  0  0
   45.4866    8.0505   13.1068 C   0  0  0  0  0  0  0  0  0  0  0  0
   43.0547    4.4249   11.6254 C   0  0  0  0  0  0  0  0  0  0  0  0
   46.5011    8.7811   13.7261 C   0  0  0  0  0  0  0  0  0  0  0  0
   48.1409    7.6941   12.3295 C   0  0  0  0  0  0  0  0  0  0  0  0
   47.8281    8.6013   13.3390 C   0  0  0  0  0  0  0  0  0  0  0  0
   46.2840    6.7598   11.2281 C   0  0  0  0  0  0  0  0  0  0  0  0
   44.2455    5.6888   12.2880 C   0  0  0  0  0  0  0  0  0  0  0  0
   45.9793    8.0521   11.9357 C   0  0  0  0  0  0  0  0  0  0  0  0
   45.7147    5.5041   11.8886 C   0  0  2  0  0  0  0  0  0  0  0  0
   43.4084    6.3443   11.6889 O   0  0  0  0  0  0  0  0  0  0  0  0
   45.8335    9.1380   11.3991 O   0  0  0  0  0  0  0  0  0  0  0  0
   46.5422    5.0722   13.0453 N   0  0  0  0  0  0  0  0  0  0  0  0
   43.8982    4.9914   13.3942 O   0  0  0  0  0  0  0  0  0  0  0  0
   45.9597    7.9606   13.2782 O   0  0  0  0  0  0  0  0  0  0  0  0
   45.2378    5.6157   11.5739 C   0  0  0  0  0  0  0  0  0  0  0  0
   43.0674    6.1695   12.6752 N   0  0  0  0  0  0  0  0  0  0  0  0
   46.1745    6.7491   11.9306 C   0  0  0  0  0  0  0  0  0  0  0  0
   44.2267    5.2670   12.6896 C   0  0  1  0  0  0  0  0  0  0  0  0
   47.5204    6.4905   12.2265 C   0  0  0  0  0  0  0  0  0  0  0  0
   45.7171    8.0721   11.9707 C   0  0  0  0  0  0  0  0  0  0  0  0
   43.7262    3.8302   12.5280 C   0  0  0  0  0  0  0  0  0  0  0  0
   48.3889    7.5334   12.5541 C   0  0  0  0  0  0  0  0  0  0  0  0
   46.5854    9.1144   12.2995 C   0  0  0  0  0  0  0  0  0  0  0  0
   47.9208    8.8453   12.5895 C   0  0  0  0  0  0  0  0  0  0  0  0
   45.2856    6.5483   12.6520 S   0  0  0  0  0  0  0  0  0  0  0  0
   44.8325    7.9086   12.7919 O   0  0  0  0  0  0  0  0  0  0  0  0
   45.6079    5.7142   13.7836 O   0  0  0  0  0  0  0  0  0  0  0  0
   44.2607    5.7406   11.7169 O   0  0  0  0  0  0  0  0  0  0  0  0
   46.5965    6.5828   11.7266 O   0  0  0  0  0  0  0  0  0  0  0  0
   44.9341    5.2721   13.7514 H   0  0  0  0  0  0  0  0  0  0  0  0
   43.9509    6.6782   13.4394 H   0  0  0  0  0  0  0  0  0  0  0  0
   44.8014    3.4843   12.0511 H   0  0  0  0  0  0  0  0  0  0  0  0
   44.5566    3.8083   10.4720 H   0  0  0  0  0  0  0  0  0  0  0  0
   44.2966    6.1304   10.8673 H   0  0  0  0  0  0  0  0  0  0  0  0
   47.3082    5.2021   12.5818 H   0  0  0  0  0  0  0  0  0  0  0  0
   44.9277    8.7814   12.9579 H   0  0  0  0  0  0  0  0  0  0  0  0
   42.5497    4.3489   12.6532 H   0  0  0  0  0  0  0  0  0  0  0  0
   42.1232    5.9574   12.0479 H   0  0  0  0  0  0  0  0  0  0  0  0
   42.3224    4.6157   10.9156 H   0  0  0  0  0  0  0  0  0  0  0  0
   49.3274    6.5908   12.2748 H   0  0  0  0  0  0  0  0  0  0  0  0
   46.9554   10.1534   12.6536 H   0  0  0  0  0  0  0  0  0  0  0  0
   49.1599    9.0661   12.3126 H   0  0  0  0  0  0  0  0  0  0  0  0
   44.9858    6.0874   10.3987 H   0  0  0  0  0  0  0  0  0  0  0  0
   43.8081    6.9759   11.3337 H   0  0  0  0  0  0  0  0  0  0  0  0
   45.1463    3.2474   12.7218 H   0  0  0  0  0  0  0  0  0  0  0  0
   46.2338    4.4517   12.5825 H   0  0  0  0  0  0  0  0  0  0  0  0
   44.1359    5.2992   13.2553 H   0  0  0  0  0  0  0  0  0  0  0  0
   47.3843    6.2608   10.9186 H   0  0  0  0  0  0  0  0  0  0  0  0
   44.4568    8.2017   13.4199 H   0  0  0  0  0  0  0  0  0  0  0  0
   42.7693    3.5272   12.1853 H   0  0  0  0  0  0  0  0  0  0  0  0
   42.2173    5.1283   11.6810 H   0  0  0  0  0  0  0  0  0  0  0  0
   43.1878    4.1431   10.5752 H   0  0  0  0  0  0  0  0  0  0  0  0
   46.2571    9.4915   14.5105 H   0  0  0  0  0  0  0  0  0  0  0  0
   49.1752    7.5530   12.0264 H   0  0  0  0  0  0  0  0  0  0  0  0
   48.6177    9.1689   13.8237 H   0  0  0  0  0  0  0  0  0  0  0  0
   47.3703    6.6817   11.1081 H   0  0  0  0  0  0  0  0  0  0  0  0
   45.8485    6.8447   10.2246 H   0  0  0  0  0  0  0  0  0  0  0  0
   45.7367    4.6806   11.1645 H   0  0  0  0  0  0  0  0  0  0  0  0
   46.0079    4.3506   13.5404 H   0  0  0  0  0  0  0  0  0  0  0  0
   46.5732    5.8544   13.7077 H   0  0  0  0  0  0  0  0  0  0  0  0
   42.9452    5.1921   13.5078 H   0  0  0  0  0  0  0  0  0  0  0  0
   45.8050    8.8874   13.5652 H   0  0  0  0  0  0  0  0  0  0  0  0
   44.7194    5.8611   10.6370 H   0  0  0  0  0  0  0  0  0  0  0  0
   45.8431    4.7289   11.3424 H   0  0  0  0  0  0  0  0  0  0  0  0
   42.4356    5.9220   13.4361 H   0  0  0  0  0  0  0  0  0  0  0  0
   42.5382    6.0395   11.8137 H   0  0  0  0  0  0  0  0  0  0  0  0
   44.7153    5.3513   13.6674 H   0  0  0  0  0  0  0  0  0  0  0  0
   47.9035    5.4729   12.2029 H   0  0  0  0  0  0  0  0  0  0  0  0
   44.6756    8.2954   11.7516 H   0  0  0  0  0  0  0  0  0  0  0  0
   44.5581    3.1220   12.5979 H   0  0  0  0  0  0  0  0  0  0  0  0
   43.0080    3.5703   13.3142 H   0  0  0  0  0  0  0  0  0  0  0  0
   43.2386    3.6835   11.5582 H   0  0  0  0  0  0  0  0  0  0  0  0
   49.4294    7.3216   12.7834 H   0  0  0  0  0  0  0  0  0  0  0  0
   46.2161   10.1363   12.3318 H   0  0  0  0  0  0  0  0  0  0  0  0
   48.5947    9.6574   12.8482 H   0  0  0  0  0  0  0  0  0  0  0  0
   44.7263    4.9760   11.3304 H   0  0  0  0  0  0  0  0  0  0  0  0
   47.2571    7.1556   12.1705 H   0  0  0  0  0  0  0  0  0  0  0  0
  4  2  1  0
  3  1  1  0
  4  1  1  0
  5  3  2  0
  6  3  1  0
  4  7  1  0
  8  5  1  0
  9  6  2  0
 10  8  2  0
  9 10  1  0
 12 14  1  0
 13 11  1  0
 14 11  1  0
 15 13  2  0
 16 13  1  0
 17 14  1  0
 18 16  2  0
 19 15  1  0
 20 18  1  0
 19 20  2  0
 22 24  1  0
 23 21  1  0
 24 21  1  0
 25 22  2  0
 26 23  2  0
 27 24  1  0
 28 22  1  0
 29 23  1  0
 33 31  1  0
 32 30  1  0
 33 30  1  0
 34 32  2  0
 35 32  1  0
 33 36  1  0
 37 34  1  0
 38 35  2  0
 39 37  2  0
 38 39  1  0
 41 40  2  0
 42 40  2  0
 43 40  1  0
 44 40  1  0
  1 45  1  0
  1 46  1  0
  2 47  1  0
  2 48  1  0
  4 49  1  6
  5 50  1  0
  6 51  1  0
  7 52  1  0
  7 53  1  0
  7 54  1  0
  8 55  1  0
  9 56  1  0
 10 57  1  0
 11 58  1  0
 11 59  1  0
 12 60  1  0
 12 61  1  0
 14 62  1  1
 15 63  1  0
 16 64  1  0
 17 65  1  0
 17 66  1  0
 17 67  1  0
 18 68  1  0
 19 69  1  0
 20 70  1  0
 21 71  1  0
 21 72  1  0
 24 73  1  6
 27 74  1  0
 27 75  1  0
 28 76  1  0
 29 77  1  0
 30 78  1  0
 30 79  1  0
 31 80  1  0
 31 81  1  0
 33 82  1  1
 34 83  1  0
 35 84  1  0
 36 85  1  0
 36 86  1  0
 36 87  1  0
 37 88  1  0
 38 89  1  0
 39 90  1  0
 43 91  1  0
 44 92  1  0
M  END
> <Uni-Dock RESULT> 
ENERGY=   -8.027  LOWER_BOUND=    1.139  UPPER_BOUND=    4.098
INTER + INTRA:          -8.027
INTER:                  -8.027
INTRA:                   0.000
UNBOUND:                 0.000

$$$$

     RDKit          3D

 92 90  0  0  0  0  0  0  0  0999 V2000
   48.5290    5.8130   19.3747 C   0  0  0  0  0  0  0  0  0  0  0  0
   49.4844    4.8890   21.4856 N   0  0  0  0  0  0  0  0  0  0  0  0
   48.6157    4.6821   18.3747 C   0  0  0  0  0  0  0  0  0  0  0  0
   48.2556    5.3464   20.8223 C   0  0  1  0  0  0  0  0  0  0  0  0
   49.7584    3.8739   18.3065 C   0  0  0  0  0  0  0  0  0  0  0  0
   47.5488    4.4230   17.5016 C   0  0  0  0  0  0  0  0  0  0  0  0
   47.6503    6.4861   21.6446 C   0  0  0  0  0  0  0  0  0  0  0  0
   49.8348    2.8313   17.3814 C   0  0  0  0  0  0  0  0  0  0  0  0
   47.6284    3.3814   16.5747 C   0  0  0  0  0  0  0  0  0  0  0  0
   48.7718    2.5866   16.5145 C   0  0  0  0  0  0  0  0  0  0  0  0
   47.8107    4.6238   20.1581 C   0  0  0  0  0  0  0  0  0  0  0  0
   50.1241    5.2232   20.8690 N   0  0  0  0  0  0  0  0  0  0  0  0
   48.1020    4.2177   18.7311 C   0  0  0  0  0  0  0  0  0  0  0  0
   48.7561    5.7238   20.6872 C   0  0  2  0  0  0  0  0  0  0  0  0
   48.9261    3.1178   18.4585 C   0  0  0  0  0  0  0  0  0  0  0  0
   47.5676    4.9482   17.6616 C   0  0  0  0  0  0  0  0  0  0  0  0
   48.2550    6.2583   22.0279 C   0  0  0  0  0  0  0  0  0  0  0  0
   47.8497    4.5820   16.3451 C   0  0  0  0  0  0  0  0  0  0  0  0
   49.2120    2.7568   17.1414 C   0  0  0  0  0  0  0  0  0  0  0  0
   48.6735    3.4879   16.0854 C   0  0  0  0  0  0  0  0  0  0  0  0
   48.4125    3.3581   19.2707 C   0  0  0  0  0  0  0  0  0  0  0  0
   48.2708    5.6882   20.2589 C   0  0  0  0  0  0  0  0  0  0  0  0
   47.5054    3.7748   18.1450 C   0  0  0  0  0  0  0  0  0  0  0  0
   49.1814    4.4949   19.9442 C   0  0  2  0  0  0  0  0  0  0  0  0
   47.0957    5.6372   20.5844 O   0  0  0  0  0  0  0  0  0  0  0  0
   46.4603    3.2268   17.8355 O   0  0  0  0  0  0  0  0  0  0  0  0
   50.3608    4.9086   19.1397 N   0  0  0  0  0  0  0  0  0  0  0  0
   48.9078    6.8803   20.1981 O   0  0  0  0  0  0  0  0  0  0  0  0
   47.9759    4.7903   17.3976 O   0  0  0  0  0  0  0  0  0  0  0  0
   48.7106    4.5454   20.2828 C   0  0  0  0  0  0  0  0  0  0  0  0
   47.3195    6.6177   20.2554 N   0  0  0  0  0  0  0  0  0  0  0  0
   48.5709    3.9447   18.9013 C   0  0  0  0  0  0  0  0  0  0  0  0
   48.6904    6.0908   20.2965 C   0  0  1  0  0  0  0  0  0  0  0  0
   49.6751    3.3561   18.2688 C   0  0  0  0  0  0  0  0  0  0  0  0
   47.3411    3.9642   18.2316 C   0  0  0  0  0  0  0  0  0  0  0  0
   49.3784    6.6237   21.5549 C   0  0  0  0  0  0  0  0  0  0  0  0
   49.5504    2.7986   16.9948 C   0  0  0  0  0  0  0  0  0  0  0  0
   47.2171    3.4079   16.9574 C   0  0  0  0  0  0  0  0  0  0  0  0
   48.3207    2.8242   16.3400 C   0  0  0  0  0  0  0  0  0  0  0  0
   48.3958    5.0893   19.0025 S   0  0  0  0  0  0  0  0  0  0  0  0
   47.1725    5.1704   18.2460 O   0  0  0  0  0  0  0  0  0  0  0  0
   49.5503    5.9012   18.7062 O   0  0  0  0  0  0  0  0  0  0  0  0
   48.0655    5.2488   20.5653 O   0  0  0  0  0  0  0  0  0  0  0  0
   48.8871    3.5626   18.9383 O   0  0  0  0  0  0  0  0  0  0  0  0
   49.4491    6.4119   19.3222 H   0  0  0  0  0  0  0  0  0  0  0  0
   47.7276    6.4924   19.0549 H   0  0  0  0  0  0  0  0  0  0  0  0
   50.1409    5.6637   21.5731 H   0  0  0  0  0  0  0  0  0  0  0  0
   49.2661    4.5916   22.4356 H   0  0  0  0  0  0  0  0  0  0  0  0
   47.5409    4.5149   20.8127 H   0  0  0  0  0  0  0  0  0  0  0  0
   50.5920    4.0478   18.9843 H   0  0  0  0  0  0  0  0  0  0  0  0
   46.6476    5.0305   17.5366 H   0  0  0  0  0  0  0  0  0  0  0  0
   48.3194    7.3518   21.6853 H   0  0  0  0  0  0  0  0  0  0  0  0
   46.7009    6.8139   21.2087 H   0  0  0  0  0  0  0  0  0  0  0  0
   47.4477    6.1656   22.6731 H   0  0  0  0  0  0  0  0  0  0  0  0
   50.7241    2.2079   17.3419 H   0  0  0  0  0  0  0  0  0  0  0  0
   46.7980    3.1909   15.8995 H   0  0  0  0  0  0  0  0  0  0  0  0
   48.8334    1.7752   15.7945 H   0  0  0  0  0  0  0  0  0  0  0  0
   47.8491    3.7394   20.8077 H   0  0  0  0  0  0  0  0  0  0  0  0
   46.7713    4.9759   20.2073 H   0  0  0  0  0  0  0  0  0  0  0  0
   50.7323    5.9871   21.1600 H   0  0  0  0  0  0  0  0  0  0  0  0
   50.4797    4.9105   19.9644 H   0  0  0  0  0  0  0  0  0  0  0  0
   48.7866    6.5555   19.9738 H   0  0  0  0  0  0  0  0  0  0  0  0
   49.3535    2.5397   19.2746 H   0  0  0  0  0  0  0  0  0  0  0  0
   46.9237    5.8038   17.8480 H   0  0  0  0  0  0  0  0  0  0  0  0
   48.9064    7.0570   22.4001 H   0  0  0  0  0  0  0  0  0  0  0  0
   47.2477    6.6753   21.9248 H   0  0  0  0  0  0  0  0  0  0  0  0
   48.2161    5.4693   22.7869 H   0  0  0  0  0  0  0  0  0  0  0  0
   47.4267    5.1494   15.5214 H   0  0  0  0  0  0  0  0  0  0  0  0
   49.8543    1.9033   16.9403 H   0  0  0  0  0  0  0  0  0  0  0  0
   48.8947    3.2051   15.0599 H   0  0  0  0  0  0  0  0  0  0  0  0
   49.0976    2.5907   18.8936 H   0  0  0  0  0  0  0  0  0  0  0  0
   47.7731    2.8843   20.0259 H   0  0  0  0  0  0  0  0  0  0  0  0
   49.5693    4.1401   20.9068 H   0  0  0  0  0  0  0  0  0  0  0  0
   50.7116    5.7794   19.5519 H   0  0  0  0  0  0  0  0  0  0  0  0
   50.0163    5.1937   18.2168 H   0  0  0  0  0  0  0  0  0  0  0  0
   48.2133    7.5294   20.4383 H   0  0  0  0  0  0  0  0  0  0  0  0
   47.2961    4.8869   16.6949 H   0  0  0  0  0  0  0  0  0  0  0  0
   47.9244    4.1368   20.9321 H   0  0  0  0  0  0  0  0  0  0  0  0
   49.6545    4.1908   20.7185 H   0  0  0  0  0  0  0  0  0  0  0  0
   47.3482    7.6367   20.2444 H   0  0  0  0  0  0  0  0  0  0  0  0
   46.8229    6.3572   21.1067 H   0  0  0  0  0  0  0  0  0  0  0  0
   49.2314    6.4728   19.4228 H   0  0  0  0  0  0  0  0  0  0  0  0
   50.6424    3.3263   18.7649 H   0  0  0  0  0  0  0  0  0  0  0  0
   46.4728    4.4216   18.7000 H   0  0  0  0  0  0  0  0  0  0  0  0
   50.4247    6.3030   21.5875 H   0  0  0  0  0  0  0  0  0  0  0  0
   49.3710    7.7195   21.5764 H   0  0  0  0  0  0  0  0  0  0  0  0
   48.8859    6.2611   22.4637 H   0  0  0  0  0  0  0  0  0  0  0  0
   50.4128    2.3468   16.5131 H   0  0  0  0  0  0  0  0  0  0  0  0
   46.2578    3.4343   16.4467 H   0  0  0  0  0  0  0  0  0  0  0  0
   48.2231    2.3943   15.3470 H   0  0  0  0  0  0  0  0  0  0  0  0
   48.7869    4.8425   21.0804 H   0  0  0  0  0  0  0  0  0  0  0  0
   49.0128    3.3316   17.9937 H   0  0  0  0  0  0  0  0  0  0  0  0
  4  2  1  0
  3  1  1  0
  4  1  1  0
  5  3  2  0
  6  3  1  0
  4  7  1  0
  8  5  1  0
  9  6  2  0
 10  8  2  0
  9 10  1  0
 12 14  1  0
 13 11  1  0
 14 11  1  0
 15 13  2  0
 16 13  1  0
 17 14  1  0
 18 16  2  0
 19 15  1  0
 20 18  1  0
 19 20  2  0
 22 24  1  0
 23 21  1  0
 24 21  1  0
 25 22  2  0
 26 23  2  0
 27 24  1  0
 28 22  1  0
 29 23  1  0
 33 31  1  0
 32 30  1  0
 33 30  1  0
 34 32  2  0
 35 32  1  0
 33 36  1  0
 37 34  1  0
 38 35  2  0
 39 37  2  0
 38 39  1  0
 41 40  2  0
 42 40  2  0
 43 40  1  0
 44 40  1  0
  1 45  1  0
  1 46  1  0
  2 47  1  0
  2 48  1  0
  4 49  1  6
  5 50  1  0
  6 51  1  0
  7 52  1  0
  7 53  1  0
  7 54  1  0
  8 55  1  0
  9 56  1  0
 10 57  1  0
 11 58  1  0
 11 59  1  0
 12 60  1  0
 12 61  1  0
 14 62  1  1
 15 63  1  0
 16 64  1  0
 17 65  1  0
 17 66  1  0
 17 67  1  0
 18 68  1  0
 19 69  1  0
 20 70  1  0
 21 71  1  0
 21 72  1  0
 24 73  1  6
 27 74  1  0
 27 75  1  0
 28 76  1  0
 29 77  1  0
 30 78  1  0
 30 79  1  0
 31 80  1  0
 31 81  1  0
 33 82  1  1
 34 83  1  0
 35 84  1  0
 36 85  1  0
 36 86  1  0
 36 87  1  0
 37 88  1  0
 38 89  1  0
 39 90  1  0
 43 91  1  0
 44 92  1  0
M  END
> <Uni-Dock RESULT> 
ENERGY=   -7.542  LOWER_BOUND=    7.004  UPPER_BOUND=    7.967
INTER + INTRA:          -7.542
INTER:                  -7.542
INTRA:                   0.000
UNBOUND:                 0.000

$$$$

     RDKit          3D

 92 90  0  0  0  0  0  0  0  0999 V2000
   48.4471   10.0875   21.1670 C   0  0  0  0  0  0  0  0  0  0  0  0
   46.9650    8.2409   20.3821 N   0  0  0  0  0  0  0  0  0  0  0  0
   48.1243   11.2606   20.2693 C   0  0  0  0  0  0  0  0  0  0  0  0
   47.2313    9.1851   21.4761 C   0  0  1  0  0  0  0  0  0  0  0  0
   47.9382   11.0776   18.8925 C   0  0  0  0  0  0  0  0  0  0  0  0
   48.0023   12.5516   20.8043 C   0  0  0  0  0  0  0  0  0  0  0  0
   47.4702    8.3902   22.7616 C   0  0  0  0  0  0  0  0  0  0  0  0
   47.6410   12.1633   18.0671 C   0  0  0  0  0  0  0  0  0  0  0  0
   47.7079   13.6371   19.9763 C   0  0  0  0  0  0  0  0  0  0  0  0
   47.5283   13.4425   18.6079 C   0  0  0  0  0  0  0  0  0  0  0  0
   46.8610   10.1826   21.3057 C   0  0  0  0  0  0  0  0  0  0  0  0
   47.7732    8.3408   19.8942 N   0  0  0  0  0  0  0  0  0  0  0  0
   47.3959   11.3622   20.5257 C   0  0  0  0  0  0  0  0  0  0  0  0
   47.7718    8.9379   21.2353 C   0  0  2  0  0  0  0  0  0  0  0  0
   46.9777   11.5927   19.2084 C   0  0  0  0  0  0  0  0  0  0  0  0
   48.3324   12.2298   21.1031 C   0  0  0  0  0  0  0  0  0  0  0  0
   47.3073    7.8800   22.2349 C   0  0  0  0  0  0  0  0  0  0  0  0
   48.8371   13.3091   20.3769 C   0  0  0  0  0  0  0  0  0  0  0  0
   47.4882   12.6690   18.4818 C   0  0  0  0  0  0  0  0  0  0  0  0
   48.4166   13.5271   19.0659 C   0  0  0  0  0  0  0  0  0  0  0  0
   46.5573   11.0761   19.9415 C   0  0  0  0  0  0  0  0  0  0  0  0
   47.7964    9.5222   21.5150 C   0  0  0  0  0  0  0  0  0  0  0  0
   47.1479   12.2677   20.6450 C   0  0  0  0  0  0  0  0  0  0  0  0
   47.3585    9.7803   20.0680 C   0  0  2  0  0  0  0  0  0  0  0  0
   47.1704    9.8064   22.5233 O   0  0  0  0  0  0  0  0  0  0  0  0
   46.5149   13.1862   21.1388 O   0  0  0  0  0  0  0  0  0  0  0  0
   48.5177    9.7617   19.1378 N   0  0  0  0  0  0  0  0  0  0  0  0
   48.9779    8.8698   21.6101 O   0  0  0  0  0  0  0  0  0  0  0  0
   48.4927   12.3157   20.6254 O   0  0  0  0  0  0  0  0  0  0  0  0
   47.0537    9.6987   20.5572 C   0  0  0  0  0  0  0  0  0  0  0  0
   48.1819    9.6352   22.7829 N   0  0  0  0  0  0  0  0  0  0  0  0
   47.2613   11.1042   20.0372 C   0  0  0  0  0  0  0  0  0  0  0  0
   48.2374    9.1613   21.3933 C   0  0  1  0  0  0  0  0  0  0  0  0
   47.5270   11.3257   18.6784 C   0  0  0  0  0  0  0  0  0  0  0  0
   47.1913   12.2057   20.8991 C   0  0  0  0  0  0  0  0  0  0  0  0
   48.2359    7.6313   21.4011 C   0  0  0  0  0  0  0  0  0  0  0  0
   47.7172   12.6212   18.1936 C   0  0  0  0  0  0  0  0  0  0  0  0
   47.3827   13.5006   20.4143 C   0  0  0  0  0  0  0  0  0  0  0  0
   47.6440   13.7082   19.0622 C   0  0  0  0  0  0  0  0  0  0  0  0
   48.0337   10.7042   20.8081 S   0  0  0  0  0  0  0  0  0  0  0  0
   48.0590   11.8526   21.6775 O   0  0  0  0  0  0  0  0  0  0  0  0
   49.2270   10.1418   20.2253 O   0  0  0  0  0  0  0  0  0  0  0  0
   47.2228    9.5161   21.5210 O   0  0  0  0  0  0  0  0  0  0  0  0
   47.0578   11.0625   19.5853 O   0  0  0  0  0  0  0  0  0  0  0  0
   49.2647    9.5052   20.7192 H   0  0  0  0  0  0  0  0  0  0  0  0
   48.8573   10.4785   22.1077 H   0  0  0  0  0  0  0  0  0  0  0  0
   47.7523    7.6026   20.2748 H   0  0  0  0  0  0  0  0  0  0  0  0
   46.1601    7.6634   20.6214 H   0  0  0  0  0  0  0  0  0  0  0  0
   46.3386    9.8056   21.6189 H   0  0  0  0  0  0  0  0  0  0  0  0
   48.0137   10.0823   18.4585 H   0  0  0  0  0  0  0  0  0  0  0  0
   48.1358   12.7218   21.8700 H   0  0  0  0  0  0  0  0  0  0  0  0
   48.3570    7.7531   22.6814 H   0  0  0  0  0  0  0  0  0  0  0  0
   47.6162    9.0657   23.6109 H   0  0  0  0  0  0  0  0  0  0  0  0
   46.6121    7.7491   22.9939 H   0  0  0  0  0  0  0  0  0  0  0  0
   47.4933   12.0077   17.0016 H   0  0  0  0  0  0  0  0  0  0  0  0
   47.6194   14.6344   20.3996 H   0  0  0  0  0  0  0  0  0  0  0  0
   47.2978   14.2865   17.9637 H   0  0  0  0  0  0  0  0  0  0  0  0
   45.8493    9.9383   20.9561 H   0  0  0  0  0  0  0  0  0  0  0  0
   46.7401   10.4924   22.3527 H   0  0  0  0  0  0  0  0  0  0  0  0
   48.4285    7.5611   19.8674 H   0  0  0  0  0  0  0  0  0  0  0  0
   48.1299    9.0301   19.2309 H   0  0  0  0  0  0  0  0  0  0  0  0
   48.8005    9.2215   21.4861 H   0  0  0  0  0  0  0  0  0  0  0  0
   46.2541   10.9290   18.7407 H   0  0  0  0  0  0  0  0  0  0  0  0
   48.6701   12.0729   22.1242 H   0  0  0  0  0  0  0  0  0  0  0  0
   47.9625    7.0019   22.2097 H   0  0  0  0  0  0  0  0  0  0  0  0
   47.3278    8.2775   23.2550 H   0  0  0  0  0  0  0  0  0  0  0  0
   46.2849    7.5479   22.0240 H   0  0  0  0  0  0  0  0  0  0  0  0
   49.5581   13.9808   20.8335 H   0  0  0  0  0  0  0  0  0  0  0  0
   47.1592   12.8380   17.4597 H   0  0  0  0  0  0  0  0  0  0  0  0
   48.8122   14.3664   18.5005 H   0  0  0  0  0  0  0  0  0  0  0  0
   46.4023   11.3403   18.8895 H   0  0  0  0  0  0  0  0  0  0  0  0
   45.5685   10.9107   20.3872 H   0  0  0  0  0  0  0  0  0  0  0  0
   46.7173    8.9369   19.7842 H   0  0  0  0  0  0  0  0  0  0  0  0
   49.1013    8.9623   19.4057 H   0  0  0  0  0  0  0  0  0  0  0  0
   49.0995   10.5768   19.3584 H   0  0  0  0  0  0  0  0  0  0  0  0
   49.1094    8.7633   22.5759 H   0  0  0  0  0  0  0  0  0  0  0  0
   48.6945   13.1678   21.0709 H   0  0  0  0  0  0  0  0  0  0  0  0
   46.1189    9.6644   21.1330 H   0  0  0  0  0  0  0  0  0  0  0  0
   46.8853    9.0352   19.6982 H   0  0  0  0  0  0  0  0  0  0  0  0
   48.9876    9.2782   23.2953 H   0  0  0  0  0  0  0  0  0  0  0  0
   47.3587    9.2522   23.2465 H   0  0  0  0  0  0  0  0  0  0  0  0
   49.1822    9.5004   20.9524 H   0  0  0  0  0  0  0  0  0  0  0  0
   47.5869   10.4895   17.9858 H   0  0  0  0  0  0  0  0  0  0  0  0
   46.9933   12.0571   21.9581 H   0  0  0  0  0  0  0  0  0  0  0  0
   48.3408    7.2405   20.3838 H   0  0  0  0  0  0  0  0  0  0  0  0
   49.0715    7.2375   21.9910 H   0  0  0  0  0  0  0  0  0  0  0  0
   47.3050    7.2347   21.8206 H   0  0  0  0  0  0  0  0  0  0  0  0
   47.9243   12.7814   17.1393 H   0  0  0  0  0  0  0  0  0  0  0  0
   47.3305   14.3463   21.0953 H   0  0  0  0  0  0  0  0  0  0  0  0
   47.7956   14.7166   18.6870 H   0  0  0  0  0  0  0  0  0  0  0  0
   46.8939    8.9065   20.8347 H   0  0  0  0  0  0  0  0  0  0  0  0
   47.4174   11.8608   19.1438 H   0  0  0  0  0  0  0  0  0  0  0  0
  4  2  1  0
  3  1  1  0
  4  1  1  0
  5  3  2  0
  6  3  1  0
  4  7  1  0
  8  5  1  0
  9  6  2  0
 10  8  2  0
  9 10  1  0
 12 14  1  0
 13 11  1  0
 14 11  1  0
 15 13  2  0
 16 13  1  0
 17 14  1  0
 18 16  2  0
 19 15  1  0
 20 18  1  0
 19 20  2  0
 22 24  1  0
 23 21  1  0
 24 21  1  0
 25 22  2  0
 26 23  2  0
 27 24  1  0
 28 22  1  0
 29 23  1  0
 33 31  1  0
 32 30  1  0
 33 30  1  0
 34 32  2  0
 35 32  1  0
 33 36  1  0
 37 34  1  0
 38 35  2  0
 39 37  2  0
 38 39  1  0
 41 40  2  0
 42 40  2  0
 43 40  1  0
 44 40  1  0
  1 45  1  0
  1 46  1  0
  2 47  1  0
  2 48  1  0
  4 49  1  6
  5 50  1  0
  6 51  1  0
  7 52  1  0
  7 53  1  0
  7 54  1  0
  8 55  1  0
  9 56  1  0
 10 57  1  0
 11 58  1  0
 11 59  1  0
 12 60  1  0
 12 61  1  0
 14 62  1  1
 15 63  1  0
 16 64  1  0
 17 65  1  0
 17 66  1  0
 17 67  1  0
 18 68  1  0
 19 69  1  0
 20 70  1  0
 21 71  1  0
 21 72  1  0
 24 73  1  6
 27 74  1  0
 27 75  1  0
 28 76  1  0
 29 77  1  0
 30 78  1  0
 30 79  1  0
 31 80  1  0
 31 81  1  0
 33 82  1  1
 34 83  1  0
 35 84  1  0
 36 85  1  0
 36 86  1  0
 36 87  1  0
 37 88  1  0
 38 89  1  0
 39 90  1  0
 43 91  1  0
 44 92  1  0
M  END
> <Uni-Dock RESULT> 
ENERGY=   -7.307  LOWER_BOUND=    9.225  UPPER_BOUND=   10.811
INTER + INTRA:          -7.307
INTER:                  -7.307
INTRA:                   0.000
UNBOUND:                 0.000

$$$$

     RDKit          3D

 92 90  0  0  0  0  0  0  0  0999 V2000
   54.2916    8.4250    6.7350 C   0  0  0  0  0  0  0  0  0  0  0  0
   52.3600    9.9331    7.2007 N   0  0  0  0  0  0  0  0  0  0  0  0
   54.2026    7.3362    7.7804 C   0  0  0  0  0  0  0  0  0  0  0  0
   52.9174    8.9497    6.2618 C   0  0  1  0  0  0  0  0  0  0  0  0
   53.8876    7.6458    9.1103 C   0  0  0  0  0  0  0  0  0  0  0  0
   54.4307    5.9967    7.4318 C   0  0  0  0  0  0  0  0  0  0  0  0
   53.0418    9.6039    4.8841 C   0  0  0  0  0  0  0  0  0  0  0  0
   53.8071    6.6377   10.0726 C   0  0  0  0  0  0  0  0  0  0  0  0
   54.3526    4.9900    8.3966 C   0  0  0  0  0  0  0  0  0  0  0  0
   54.0417    5.3112    9.7167 C   0  0  0  0  0  0  0  0  0  0  0  0
   52.7878    7.9227    6.5612 C   0  0  0  0  0  0  0  0  0  0  0  0
   53.1345   10.1012    7.7232 N   0  0  0  0  0  0  0  0  0  0  0  0
   53.5387    7.0247    7.5182 C   0  0  0  0  0  0  0  0  0  0  0  0
   53.3653    9.3524    6.4818 C   0  0  2  0  0  0  0  0  0  0  0  0
   53.1025    6.8720    8.8410 C   0  0  0  0  0  0  0  0  0  0  0  0
   54.6924    6.3483    7.1007 C   0  0  0  0  0  0  0  0  0  0  0  0
   52.7265   10.1223    5.3271 C   0  0  0  0  0  0  0  0  0  0  0  0
   55.3933    5.5322    7.9891 C   0  0  0  0  0  0  0  0  0  0  0  0
   53.8082    6.0603    9.7297 C   0  0  0  0  0  0  0  0  0  0  0  0
   54.9525    5.3901    9.3039 C   0  0  0  0  0  0  0  0  0  0  0  0
   52.6192    7.1680    8.0287 C   0  0  0  0  0  0  0  0  0  0  0  0
   53.5483    8.7610    6.2894 C   0  0  0  0  0  0  0  0  0  0  0  0
   53.5245    6.0784    7.5217 C   0  0  0  0  0  0  0  0  0  0  0  0
   53.0912    8.5939    7.7438 C   0  0  2  0  0  0  0  0  0  0  0  0
   53.0770    8.2013    5.3126 O   0  0  0  0  0  0  0  0  0  0  0  0
   53.1653    4.9753    7.1444 O   0  0  0  0  0  0  0  0  0  0  0  0
   54.1480    9.0205    8.6980 N   0  0  0  0  0  0  0  0  0  0  0  0
   54.5415    9.6675    6.1396 O   0  0  0  0  0  0  0  0  0  0  0  0
   54.8369    6.3681    7.5906 O   0  0  0  0  0  0  0  0  0  0  0  0
   52.8086    8.5328    7.2385 C   0  0  0  0  0  0  0  0  0  0  0  0
   54.0322    8.5823    5.0635 N   0  0  0  0  0  0  0  0  0  0  0  0
   53.3140    7.3029    7.9603 C   0  0  0  0  0  0  0  0  0  0  0  0
   53.8804    9.2326    6.3722 C   0  0  1  0  0  0  0  0  0  0  0  0
   53.5352    7.3337    9.3445 C   0  0  0  0  0  0  0  0  0  0  0  0
   53.5682    6.1155    7.2628 C   0  0  0  0  0  0  0  0  0  0  0  0
   53.5108   10.6999    6.1459 C   0  0  0  0  0  0  0  0  0  0  0  0
   53.9995    6.2006   10.0152 C   0  0  0  0  0  0  0  0  0  0  0  0
   54.0336    4.9832    7.9334 C   0  0  0  0  0  0  0  0  0  0  0  0
   54.2477    5.0253    9.3090 C   0  0  0  0  0  0  0  0  0  0  0  0
   54.0162    7.7775    7.1650 S   0  0  0  0  0  0  0  0  0  0  0  0
   54.3747    6.5677    6.4698 O   0  0  0  0  0  0  0  0  0  0  0  0
   54.9979    8.6892    7.6990 O   0  0  0  0  0  0  0  0  0  0  0  0
   52.9918    8.6240    6.2644 O   0  0  0  0  0  0  0  0  0  0  0  0
   53.0771    7.3516    8.3949 O   0  0  0  0  0  0  0  0  0  0  0  0
   54.9136    9.2451    7.1207 H   0  0  0  0  0  0  0  0  0  0  0  0
   54.8449    8.0283    5.8733 H   0  0  0  0  0  0  0  0  0  0  0  0
   52.9615   10.7549    7.2406 H   0  0  0  0  0  0  0  0  0  0  0  0
   51.4572   10.2569    6.8560 H   0  0  0  0  0  0  0  0  0  0  0  0
   52.2118    8.1143    6.1809 H   0  0  0  0  0  0  0  0  0  0  0  0
   53.6924    8.6766    9.3999 H   0  0  0  0  0  0  0  0  0  0  0  0
   54.6710    5.7271    6.4061 H   0  0  0  0  0  0  0  0  0  0  0  0
   53.7417   10.4457    4.9005 H   0  0  0  0  0  0  0  0  0  0  0  0
   53.4017    8.8807    4.1451 H   0  0  0  0  0  0  0  0  0  0  0  0
   52.0717    9.9765    4.5355 H   0  0  0  0  0  0  0  0  0  0  0  0
   53.5565    6.8898   11.0996 H   0  0  0  0  0  0  0  0  0  0  0  0
   54.5350    3.9553    8.1175 H   0  0  0  0  0  0  0  0  0  0  0  0
   53.9794    4.5280   10.4673 H   0  0  0  0  0  0  0  0  0  0  0  0
   51.7264    7.9523    6.8400 H   0  0  0  0  0  0  0  0  0  0  0  0
   52.8143    7.4585    5.5658 H   0  0  0  0  0  0  0  0  0  0  0  0
   53.5794   11.0156    7.6591 H   0  0  0  0  0  0  0  0  0  0  0  0
   53.6023    9.6146    8.4892 H   0  0  0  0  0  0  0  0  0  0  0  0
   54.4462    9.3022    6.3068 H   0  0  0  0  0  0  0  0  0  0  0  0
   52.2111    7.3911    9.1858 H   0  0  0  0  0  0  0  0  0  0  0  0
   55.0489    6.4492    6.0788 H   0  0  0  0  0  0  0  0  0  0  0  0
   53.1477   11.1308    5.2473 H   0  0  0  0  0  0  0  0  0  0  0  0
   52.9092    9.6124    4.3754 H   0  0  0  0  0  0  0  0  0  0  0  0
   51.6425   10.2153    5.4558 H   0  0  0  0  0  0  0  0  0  0  0  0
   56.2833    5.0063    7.6563 H   0  0  0  0  0  0  0  0  0  0  0  0
   53.4631    5.9501   10.7545 H   0  0  0  0  0  0  0  0  0  0  0  0
   55.5004    4.7563    9.9957 H   0  0  0  0  0  0  0  0  0  0  0  0
   52.4635    7.0135    9.1021 H   0  0  0  0  0  0  0  0  0  0  0  0
   51.6512    7.0236    7.5328 H   0  0  0  0  0  0  0  0  0  0  0  0
   52.2484    9.2818    7.8836 H   0  0  0  0  0  0  0  0  0  0  0  0
   54.5382    9.8974    8.3373 H   0  0  0  0  0  0  0  0  0  0  0  0
   54.9222    8.3532    8.6147 H   0  0  0  0  0  0  0  0  0  0  0  0
   54.7067    9.6761    5.1731 H   0  0  0  0  0  0  0  0  0  0  0  0
   55.2669    5.5418    7.2780 H   0  0  0  0  0  0  0  0  0  0  0  0
   51.9331    8.2589    6.6344 H   0  0  0  0  0  0  0  0  0  0  0  0
   52.4291    9.2403    7.9881 H   0  0  0  0  0  0  0  0  0  0  0  0
   54.7602    9.0576    4.5311 H   0  0  0  0  0  0  0  0  0  0  0  0
   53.1734    8.6855    4.5240 H   0  0  0  0  0  0  0  0  0  0  0  0
   54.8479    9.1987    6.8867 H   0  0  0  0  0  0  0  0  0  0  0  0
   53.3462    8.2418    9.9121 H   0  0  0  0  0  0  0  0  0  0  0  0
   53.4104    6.0707    6.1877 H   0  0  0  0  0  0  0  0  0  0  0  0
   53.4513   11.2341    7.0997 H   0  0  0  0  0  0  0  0  0  0  0  0
   54.2639   11.2079    5.5325 H   0  0  0  0  0  0  0  0  0  0  0  0
   52.5415   10.7953    5.6447 H   0  0  0  0  0  0  0  0  0  0  0  0
   54.1693    6.2359   11.0876 H   0  0  0  0  0  0  0  0  0  0  0  0
   54.2316    4.0694    7.3790 H   0  0  0  0  0  0  0  0  0  0  0  0
   54.6127    4.1440    9.8290 H   0  0  0  0  0  0  0  0  0  0  0  0
   52.4813    9.2175    6.8457 H   0  0  0  0  0  0  0  0  0  0  0  0
   53.5885    6.7321    8.9571 H   0  0  0  0  0  0  0  0  0  0  0  0
  4  2  1  0
  3  1  1  0
  4  1  1  0
  5  3  2  0
  6  3  1  0
  4  7  1  0
  8  5  1  0
  9  6  2  0
 10  8  2  0
  9 10  1  0
 12 14  1  0
 13 11  1  0
 14 11  1  0
 15 13  2  0
 16 13  1  0
 17 14  1  0
 18 16  2  0
 19 15  1  0
 20 18  1  0
 19 20  2  0
 22 24  1  0
 23 21  1  0
 24 21  1  0
 25 22  2  0
 26 23  2  0
 27 24  1  0
 28 22  1  0
 29 23  1  0
 33 31  1  0
 32 30  1  0
 33 30  1  0
 34 32  2  0
 35 32  1  0
 33 36  1  0
 37 34  1  0
 38 35  2  0
 39 37  2  0
 38 39  1  0
 41 40  2  0
 42 40  2  0
 43 40  1  0
 44 40  1  0
  1 45  1  0
  1 46  1  0
  2 47  1  0
  2 48  1  0
  4 49  1  6
  5 50  1  0
  6 51  1  0
  7 52  1  0
  7 53  1  0
  7 54  1  0
  8 55  1  0
  9 56  1  0
 10 57  1  0
 11 58  1  0
 11 59  1  0
 12 60  1  0
 12 61  1  0
 14 62  1  1
 15 63  1  0
 16 64  1  0
 17 65  1  0
 17 66  1  0
 17 67  1  0
 18 68  1  0
 19 69  1  0
 20 70  1  0
 21 71  1  0
 21 72  1  0
 24 73  1  6
 27 74  1  0
 27 75  1  0
 28 76  1  0
 29 77  1  0
 30 78  1  0
 30 79  1  0
 31 80  1  0
 31 81  1  0
 33 82  1  1
 34 83  1  0
 35 84  1  0
 36 85  1  0
 36 86  1  0
 36 87  1  0
 37 88  1  0
 38 89  1  0
 39 90  1  0
 43 91  1  0
 44 92  1  0
M  END
> <Uni-Dock RESULT> 
ENERGY=   -7.281  LOWER_BOUND=    9.185  UPPER_BOUND=   10.291
INTER + INTRA:          -7.281
INTER:                  -7.281
INTRA:                   0.000
UNBOUND:                 0.000

$$$$
