
     RDKit          3D

 92 90  0  0  0  0  0  0  0  0999 V2000
   44.7828    5.6553   11.1978 C   0  0  0  0  0  0  0  0  0  0  0  0
   43.1054    5.1493   12.9713 N   0  0  0  0  0  0  0  0  0  0  0  0
   45.5515    6.7416   11.9159 C   0  0  0  0  0  0  0  0  0  0  0  0
   44.1885    4.5947   12.1486 C   0  0  1  0  0  0  0  0  0  0  0  0
   46.8676    6.5176   12.3426 C   0  0  0  0  0  0  0  0  0  0  0  0
   44.9519    7.9806   12.1806 C   0  0  0  0  0  0  0  0  0  0  0  0
   43.6366    3.4147   11.3509 C   0  0  0  0  0  0  0  0  0  0  0  0
   47.5692    7.5156   13.0214 C   0  0  0  0  0  0  0  0  0  0  0  0
   45.6553    8.9766   12.8602 C   0  0  0  0  0  0  0  0  0  0  0  0
   46.9633    8.7441   13.2810 C   0  0  0  0  0  0  0  0  0  0  0  0
   44.7014    7.3021   11.9221 C   0  0  0  0  0  0  0  0  0  0  0  0
   45.8945    9.2341   12.9126 N   0  0  0  0  0  0  0  0  0  0  0  0
   44.4255    5.8174   11.9672 C   0  0  0  0  0  0  0  0  0  0  0  0
   45.7942    7.7671   12.9091 C   0  0  2  0  0  0  0  0  0  0  0  0
   44.7991    4.9914   10.8977 C   0  0  0  0  0  0  0  0  0  0  0  0
   43.7944    5.2436   13.0798 C   0  0  0  0  0  0  0  0  0  0  0  0
   47.1694    7.1944   12.5645 C   0  0  0  0  0  0  0  0  0  0  0  0
   43.5459    3.8706   13.1233 C   0  0  0  0  0  0  0  0  0  0  0  0
   44.5492    3.6188   10.9424 C   0  0  0  0  0  0  0  0  0  0  0  0
   43.9234    3.0592   12.0550 C   0  0  0  0  0  0  0  0  0  0  0  0
   44.0370    6.1691   12.5112 C   0  0  0  0  0  0  0  0  0  0  0  0
   46.4416    6.9010   12.5126 C   0  0  0  0  0  0  0  0  0  0  0  0
   43.7556    4.6989   12.6237 C   0  0  0  0  0  0  0  0  0  0  0  0
   45.2652    6.4367   11.6425 C   0  0  2  0  0  0  0  0  0  0  0  0
   46.9186    8.0281   12.5297 O   0  0  0  0  0  0  0  0  0  0  0  0
   42.7158    4.1427   12.3095 O   0  0  0  0  0  0  0  0  0  0  0  0
   44.9590    7.5090   10.6542 N   0  0  0  0  0  0  0  0  0  0  0  0
   46.9614    5.9359   13.2908 O   0  0  0  0  0  0  0  0  0  0  0  0
   44.7592    3.9951   13.1734 O   0  0  0  0  0  0  0  0  0  0  0  0
   45.4956    6.6267   13.0411 C   0  0  0  0  0  0  0  0  0  0  0  0
   44.9651    8.4600   11.4326 N   0  0  0  0  0  0  0  0  0  0  0  0
   44.8148    5.4079   12.4589 C   0  0  0  0  0  0  0  0  0  0  0  0
   46.0335    7.6096   11.9774 C   0  0  1  0  0  0  0  0  0  0  0  0
   43.5145    5.4930   11.9438 C   0  0  0  0  0  0  0  0  0  0  0  0
   45.4761    4.1723   12.4262 C   0  0  0  0  0  0  0  0  0  0  0  0
   47.1159    8.5076   12.5805 C   0  0  0  0  0  0  0  0  0  0  0  0
   42.8868    4.3663   11.4110 C   0  0  0  0  0  0  0  0  0  0  0  0
   44.8462    3.0447   11.8955 C   0  0  0  0  0  0  0  0  0  0  0  0
   43.5515    3.1418   11.3891 C   0  0  0  0  0  0  0  0  0  0  0  0
   45.4601    5.9341   12.4415 S   0  0  0  0  0  0  0  0  0  0  0  0
   46.6941    6.0032   11.7016 O   0  0  0  0  0  0  0  0  0  0  0  0
   45.3223    5.2696   13.7119 O   0  0  0  0  0  0  0  0  0  0  0  0
   44.9400    7.4432   12.5999 O   0  0  0  0  0  0  0  0  0  0  0  0
   44.3307    5.3177   11.4837 O   0  0  0  0  0  0  0  0  0  0  0  0
   45.4645    5.1720   10.4852 H   0  0  0  0  0  0  0  0  0  0  0  0
   43.9920    6.1045   10.5816 H   0  0  0  0  0  0  0  0  0  0  0  0
   42.7862    4.4444   13.6355 H   0  0  0  0  0  0  0  0  0  0  0  0
   43.4815    5.9158   13.5324 H   0  0  0  0  0  0  0  0  0  0  0  0
   44.9725    4.2209   12.8186 H   0  0  0  0  0  0  0  0  0  0  0  0
   47.3545    5.5642   12.1484 H   0  0  0  0  0  0  0  0  0  0  0  0
   43.9290    8.1736   11.8610 H   0  0  0  0  0  0  0  0  0  0  0  0
   42.8405    3.7291   10.6658 H   0  0  0  0  0  0  0  0  0  0  0  0
   43.2256    2.6458   12.0151 H   0  0  0  0  0  0  0  0  0  0  0  0
   44.4286    2.9468   10.7548 H   0  0  0  0  0  0  0  0  0  0  0  0
   48.5896    7.3348   13.3487 H   0  0  0  0  0  0  0  0  0  0  0  0
   45.1801    9.9333   13.0629 H   0  0  0  0  0  0  0  0  0  0  0  0
   47.5098    9.5198   13.8103 H   0  0  0  0  0  0  0  0  0  0  0  0
   44.9695    7.6012   10.9001 H   0  0  0  0  0  0  0  0  0  0  0  0
   43.7583    7.8201   12.1425 H   0  0  0  0  0  0  0  0  0  0  0  0
   44.9751    9.6415   13.0761 H   0  0  0  0  0  0  0  0  0  0  0  0
   46.1936    9.5622   11.9956 H   0  0  0  0  0  0  0  0  0  0  0  0
   45.5350    7.4513   13.9264 H   0  0  0  0  0  0  0  0  0  0  0  0
   45.2907    5.4107   10.0230 H   0  0  0  0  0  0  0  0  0  0  0  0
   43.4922    5.8632   13.9210 H   0  0  0  0  0  0  0  0  0  0  0  0
   47.9358    7.5800   13.2460 H   0  0  0  0  0  0  0  0  0  0  0  0
   47.1775    6.1033   12.6548 H   0  0  0  0  0  0  0  0  0  0  0  0
   47.4680    7.4518   11.5423 H   0  0  0  0  0  0  0  0  0  0  0  0
   43.0593    3.4345   13.9915 H   0  0  0  0  0  0  0  0  0  0  0  0
   44.8439    2.9862   10.1087 H   0  0  0  0  0  0  0  0  0  0  0  0
   43.7304    1.9906   12.0890 H   0  0  0  0  0  0  0  0  0  0  0  0
   43.1369    6.6142   12.0662 H   0  0  0  0  0  0  0  0  0  0  0  0
   44.1279    6.5849   13.5222 H   0  0  0  0  0  0  0  0  0  0  0  0
   45.5876    5.5551   11.0765 H   0  0  0  0  0  0  0  0  0  0  0  0
   44.8210    8.3835   11.1681 H   0  0  0  0  0  0  0  0  0  0  0  0
   45.8030    7.6832   10.1040 H   0  0  0  0  0  0  0  0  0  0  0  0
   47.6994    6.3698   13.7678 H   0  0  0  0  0  0  0  0  0  0  0  0
   44.4202    3.0762   13.2149 H   0  0  0  0  0  0  0  0  0  0  0  0
   44.8030    7.1338   13.7266 H   0  0  0  0  0  0  0  0  0  0  0  0
   46.3249    6.2854   13.6753 H   0  0  0  0  0  0  0  0  0  0  0  0
   45.3566    9.0947   10.7383 H   0  0  0  0  0  0  0  0  0  0  0  0
   44.5786    9.0453   12.1719 H   0  0  0  0  0  0  0  0  0  0  0  0
   46.4779    7.0464   11.1482 H   0  0  0  0  0  0  0  0  0  0  0  0
   42.9874    6.4442   11.9492 H   0  0  0  0  0  0  0  0  0  0  0  0
   46.4870    4.0780   12.8141 H   0  0  0  0  0  0  0  0  0  0  0  0
   47.5133    9.2030   11.8328 H   0  0  0  0  0  0  0  0  0  0  0  0
   46.7283    9.0959   13.4201 H   0  0  0  0  0  0  0  0  0  0  0  0
   47.9556    7.9073   12.9489 H   0  0  0  0  0  0  0  0  0  0  0  0
   41.8798    4.4471   11.0097 H   0  0  0  0  0  0  0  0  0  0  0  0
   45.3663    2.0913   11.8766 H   0  0  0  0  0  0  0  0  0  0  0  0
   43.0616    2.2648   10.9746 H   0  0  0  0  0  0  0  0  0  0  0  0
   45.2636    7.9455   11.8243 H   0  0  0  0  0  0  0  0  0  0  0  0
   43.6058    4.9984   12.0604 H   0  0  0  0  0  0  0  0  0  0  0  0
  4  2  1  0
  3  1  1  0
  4  1  1  0
  5  3  2  0
  6  3  1  0
  4  7  1  0
  8  5  1  0
  9  6  2  0
 10  8  2  0
  9 10  1  0
 12 14  1  0
 13 11  1  0
 14 11  1  0
 15 13  2  0
 16 13  1  0
 17 14  1  0
 18 16  2  0
 19 15  1  0
 20 18  1  0
 19 20  2  0
 22 24  1  0
 23 21  1  0
 24 21  1  0
 25 22  2  0
 26 23  2  0
 27 24  1  0
 28 22  1  0
 29 23  1  0
 33 31  1  0
 32 30  1  0
 33 30  1  0
 34 32  2  0
 35 32  1  0
 33 36  1  0
 37 34  1  0
 38 35  2  0
 39 37  2  0
 38 39  1  0
 41 40  2  0
 42 40  2  0
 43 40  1  0
 44 40  1  0
  1 45  1  0
  1 46  1  0
  2 47  1  0
  2 48  1  0
  4 49  1  1
  5 50  1  0
  6 51  1  0
  7 52  1  0
  7 53  1  0
  7 54  1  0
  8 55  1  0
  9 56  1  0
 10 57  1  0
 11 58  1  0
 11 59  1  0
 12 60  1  0
 12 61  1  0
 14 62  1  1
 15 63  1  0
 16 64  1  0
 17 65  1  0
 17 66  1  0
 17 67  1  0
 18 68  1  0
 19 69  1  0
 20 70  1  0
 21 71  1  0
 21 72  1  0
 24 73  1  6
 27 74  1  0
 27 75  1  0
 28 76  1  0
 29 77  1  0
 30 78  1  0
 30 79  1  0
 31 80  1  0
 31 81  1  0
 33 82  1  6
 34 83  1  0
 35 84  1  0
 36 85  1  0
 36 86  1  0
 36 87  1  0
 37 88  1  0
 38 89  1  0
 39 90  1  0
 43 91  1  0
 44 92  1  0
M  END
> <Uni-Dock RESULT> 
ENERGY=   -9.775  LOWER_BOUND=    0.000  UPPER_BOUND=    0.000
INTER + INTRA:          -9.775
INTER:                  -9.775
INTRA:                   0.000
UNBOUND:                 0.000

$$$$

     RDKit          3D

 92 90  0  0  0  0  0  0  0  0999 V2000
   45.1101    5.6587   12.9303 C   0  0  0  0  0  0  0  0  0  0  0  0
   45.1949    4.7574   10.6076 N   0  0  0  0  0  0  0  0  0  0  0  0
   46.0226    6.8501   12.7448 C   0  0  0  0  0  0  0  0  0  0  0  0
   44.3176    5.2902   11.6582 C   0  0  1  0  0  0  0  0  0  0  0  0
   45.5095    8.1533   12.7962 C   0  0  0  0  0  0  0  0  0  0  0  0
   47.3906    6.6665   12.5008 C   0  0  0  0  0  0  0  0  0  0  0  0
   43.2531    4.2427   11.9793 C   0  0  0  0  0  0  0  0  0  0  0  0
   46.3507    9.2512   12.6066 C   0  0  0  0  0  0  0  0  0  0  0  0
   48.2295    7.7660   12.3108 C   0  0  0  0  0  0  0  0  0  0  0  0
   47.7097    9.0580   12.3632 C   0  0  0  0  0  0  0  0  0  0  0  0
   46.7784    6.2034   12.5268 C   0  0  0  0  0  0  0  0  0  0  0  0
   48.4216    8.0528   12.3953 N   0  0  0  0  0  0  0  0  0  0  0  0
   45.4210    5.6761   12.1248 C   0  0  0  0  0  0  0  0  0  0  0  0
   47.0326    7.6670   12.1050 C   0  0  2  0  0  0  0  0  0  0  0  0
   44.4409    5.4210   13.0944 C   0  0  0  0  0  0  0  0  0  0  0  0
   45.1205    5.4365   10.7765 C   0  0  0  0  0  0  0  0  0  0  0  0
   46.1040    8.6475   12.8221 C   0  0  0  0  0  0  0  0  0  0  0  0
   43.8637    4.9555   10.4055 C   0  0  0  0  0  0  0  0  0  0  0  0
   43.1849    4.9393   12.7218 C   0  0  0  0  0  0  0  0  0  0  0  0
   42.8968    4.7073   11.3780 C   0  0  0  0  0  0  0  0  0  0  0  0
   45.9037    5.6143   11.5471 C   0  0  0  0  0  0  0  0  0  0  0  0
   46.0009    7.9160   12.5523 C   0  0  0  0  0  0  0  0  0  0  0  0
   44.5672    5.1116   11.0840 C   0  0  0  0  0  0  0  0  0  0  0  0
   45.7783    6.4240   12.8368 C   0  0  2  0  0  0  0  0  0  0  0  0
   46.9681    8.5764   12.9083 O   0  0  0  0  0  0  0  0  0  0  0  0
   44.2678    3.9439   10.8940 O   0  0  0  0  0  0  0  0  0  0  0  0
   46.8067    5.9733   13.8163 N   0  0  0  0  0  0  0  0  0  0  0  0
   45.0043    8.4964   11.8616 O   0  0  0  0  0  0  0  0  0  0  0  0
   43.6809    6.0873   10.8247 O   0  0  0  0  0  0  0  0  0  0  0  0
   46.0200    7.2230   11.6755 C   0  0  0  0  0  0  0  0  0  0  0  0
   47.7868    6.4781   13.2735 N   0  0  0  0  0  0  0  0  0  0  0  0
   44.9688    6.1375   11.7457 C   0  0  0  0  0  0  0  0  0  0  0  0
   46.7425    7.4805   13.0167 C   0  0  1  0  0  0  0  0  0  0  0  0
   45.3368    4.7856   11.7566 C   0  0  0  0  0  0  0  0  0  0  0  0
   43.6078    6.4690   11.8007 C   0  0  0  0  0  0  0  0  0  0  0  0
   47.3846    8.8696   13.0179 C   0  0  0  0  0  0  0  0  0  0  0  0
   44.3651    3.7859   11.8171 C   0  0  0  0  0  0  0  0  0  0  0  0
   42.6360    5.4680   11.8584 C   0  0  0  0  0  0  0  0  0  0  0  0
   43.0148    4.1268   11.8655 C   0  0  0  0  0  0  0  0  0  0  0  0
   45.3114    6.8144   12.0895 S   0  0  0  0  0  0  0  0  0  0  0  0
   45.0039    7.6405   13.2288 O   0  0  0  0  0  0  0  0  0  0  0  0
   44.8119    7.0610   10.7613 O   0  0  0  0  0  0  0  0  0  0  0  0
   46.9107    6.7142   12.0190 O   0  0  0  0  0  0  0  0  0  0  0  0
   44.9229    5.2992   12.4447 O   0  0  0  0  0  0  0  0  0  0  0  0
   44.4122    5.8899   13.7462 H   0  0  0  0  0  0  0  0  0  0  0  0
   45.6916    4.7962   13.2835 H   0  0  0  0  0  0  0  0  0  0  0  0
   44.6517    4.5931    9.7603 H   0  0  0  0  0  0  0  0  0  0  0  0
   45.8854    5.4706   10.3662 H   0  0  0  0  0  0  0  0  0  0  0  0
   43.8150    6.1831   11.2665 H   0  0  0  0  0  0  0  0  0  0  0  0
   44.4511    8.3211   12.9846 H   0  0  0  0  0  0  0  0  0  0  0  0
   47.8087    5.6622   12.4531 H   0  0  0  0  0  0  0  0  0  0  0  0
   43.7003    3.3211   12.3700 H   0  0  0  0  0  0  0  0  0  0  0  0
   42.6715    3.9834   11.0873 H   0  0  0  0  0  0  0  0  0  0  0  0
   42.5520    4.6220   12.7316 H   0  0  0  0  0  0  0  0  0  0  0  0
   45.9456   10.2588   12.6484 H   0  0  0  0  0  0  0  0  0  0  0  0
   49.2888    7.6127   12.1194 H   0  0  0  0  0  0  0  0  0  0  0  0
   48.3633    9.9130   12.2147 H   0  0  0  0  0  0  0  0  0  0  0  0
   46.9135    6.0986   13.6115 H   0  0  0  0  0  0  0  0  0  0  0  0
   47.5347    5.5499   12.0715 H   0  0  0  0  0  0  0  0  0  0  0  0
   49.0605    7.3757   11.9814 H   0  0  0  0  0  0  0  0  0  0  0  0
   48.5855    8.0231   13.4005 H   0  0  0  0  0  0  0  0  0  0  0  0
   46.8788    7.7747   11.0249 H   0  0  0  0  0  0  0  0  0  0  0  0
   44.6477    5.5989   14.1471 H   0  0  0  0  0  0  0  0  0  0  0  0
   45.8645    5.6236   10.0056 H   0  0  0  0  0  0  0  0  0  0  0  0
   46.3387    9.6816   12.5465 H   0  0  0  0  0  0  0  0  0  0  0  0
   45.0578    8.4715   12.5514 H   0  0  0  0  0  0  0  0  0  0  0  0
   46.1911    8.5615   13.9108 H   0  0  0  0  0  0  0  0  0  0  0  0
   43.6389    4.7761    9.3576 H   0  0  0  0  0  0  0  0  0  0  0  0
   42.4309    4.7459   13.4810 H   0  0  0  0  0  0  0  0  0  0  0  0
   41.9185    4.3334   11.0893 H   0  0  0  0  0  0  0  0  0  0  0  0
   46.5232    4.7208   11.7031 H   0  0  0  0  0  0  0  0  0  0  0  0
   46.3659    6.1799   10.7288 H   0  0  0  0  0  0  0  0  0  0  0  0
   44.7997    6.3115   13.3177 H   0  0  0  0  0  0  0  0  0  0  0  0
   47.7275    6.2288   13.4492 H   0  0  0  0  0  0  0  0  0  0  0  0
   46.7152    6.5463   14.6582 H   0  0  0  0  0  0  0  0  0  0  0  0
   45.2756    9.4337   11.7711 H   0  0  0  0  0  0  0  0  0  0  0  0
   42.8844    5.6156   10.5019 H   0  0  0  0  0  0  0  0  0  0  0  0
   46.7413    6.9759   10.8846 H   0  0  0  0  0  0  0  0  0  0  0  0
   45.5343    8.1487   11.3389 H   0  0  0  0  0  0  0  0  0  0  0  0
   48.2416    6.6811   14.1624 H   0  0  0  0  0  0  0  0  0  0  0  0
   48.5105    6.5424   12.5588 H   0  0  0  0  0  0  0  0  0  0  0  0
   46.0179    7.4369   13.8385 H   0  0  0  0  0  0  0  0  0  0  0  0
   46.3874    4.5064   11.7257 H   0  0  0  0  0  0  0  0  0  0  0  0
   43.2937    7.5095   11.7988 H   0  0  0  0  0  0  0  0  0  0  0  0
   47.8919    9.0688   13.9684 H   0  0  0  0  0  0  0  0  0  0  0  0
   48.1198    8.9732   12.2117 H   0  0  0  0  0  0  0  0  0  0  0  0
   46.6244    9.6473   12.8826 H   0  0  0  0  0  0  0  0  0  0  0  0
   44.6641    2.7409   11.8304 H   0  0  0  0  0  0  0  0  0  0  0  0
   41.5839    5.7350   11.8987 H   0  0  0  0  0  0  0  0  0  0  0  0
   42.2588    3.3475   11.9119 H   0  0  0  0  0  0  0  0  0  0  0  0
   47.2481    6.7975   12.9342 H   0  0  0  0  0  0  0  0  0  0  0  0
   44.8467    4.8143   11.5967 H   0  0  0  0  0  0  0  0  0  0  0  0
  4  2  1  0
  3  1  1  0
  4  1  1  0
  5  3  2  0
  6  3  1  0
  4  7  1  0
  8  5  1  0
  9  6  2  0
 10  8  2  0
  9 10  1  0
 12 14  1  0
 13 11  1  0
 14 11  1  0
 15 13  2  0
 16 13  1  0
 17 14  1  0
 18 16  2  0
 19 15  1  0
 20 18  1  0
 19 20  2  0
 22 24  1  0
 23 21  1  0
 24 21  1  0
 25 22  2  0
 26 23  2  0
 27 24  1  0
 28 22  1  0
 29 23  1  0
 33 31  1  0
 32 30  1  0
 33 30  1  0
 34 32  2  0
 35 32  1  0
 33 36  1  0
 37 34  1  0
 38 35  2  0
 39 37  2  0
 38 39  1  0
 41 40  2  0
 42 40  2  0
 43 40  1  0
 44 40  1  0
  1 45  1  0
  1 46  1  0
  2 47  1  0
  2 48  1  0
  4 49  1  1
  5 50  1  0
  6 51  1  0
  7 52  1  0
  7 53  1  0
  7 54  1  0
  8 55  1  0
  9 56  1  0
 10 57  1  0
 11 58  1  0
 11 59  1  0
 12 60  1  0
 12 61  1  0
 14 62  1  1
 15 63  1  0
 16 64  1  0
 17 65  1  0
 17 66  1  0
 17 67  1  0
 18 68  1  0
 19 69  1  0
 20 70  1  0
 21 71  1  0
 21 72  1  0
 24 73  1  6
 27 74  1  0
 27 75  1  0
 28 76  1  0
 29 77  1  0
 30 78  1  0
 30 79  1  0
 31 80  1  0
 31 81  1  0
 33 82  1  6
 34 83  1  0
 35 84  1  0
 36 85  1  0
 36 86  1  0
 36 87  1  0
 37 88  1  0
 38 89  1  0
 39 90  1  0
 43 91  1  0
 44 92  1  0
M  END
> <Uni-Dock RESULT> 
ENERGY=   -9.022  LOWER_BOUND=    1.264  UPPER_BOUND=    2.268
INTER + INTRA:          -9.022
INTER:                  -9.022
INTRA:                   0.000
UNBOUND:                 0.000

$$$$

     RDKit          3D

 92 90  0  0  0  0  0  0  0  0999 V2000
   43.6691    4.6399   10.2970 C   0  0  0  0  0  0  0  0  0  0  0  0
   45.4435    5.7594   11.6435 N   0  0  0  0  0  0  0  0  0  0  0  0
   44.5531    3.7519    9.4503 C   0  0  0  0  0  0  0  0  0  0  0  0
   44.2436    4.9144   11.7029 C   0  0  1  0  0  0  0  0  0  0  0  0
   44.5421    2.3617    9.6274 C   0  0  0  0  0  0  0  0  0  0  0  0
   45.4087    4.3088    8.4899 C   0  0  0  0  0  0  0  0  0  0  0  0
   43.2020    5.6110   12.5765 C   0  0  0  0  0  0  0  0  0  0  0  0
   45.3725    1.5453    8.8572 C   0  0  0  0  0  0  0  0  0  0  0  0
   46.2384    3.4905    7.7215 C   0  0  0  0  0  0  0  0  0  0  0  0
   46.2208    2.1092    7.9054 C   0  0  0  0  0  0  0  0  0  0  0  0
   44.9729    4.5916    9.0557 C   0  0  0  0  0  0  0  0  0  0  0  0
   46.3297    3.2566    7.4699 N   0  0  0  0  0  0  0  0  0  0  0  0
   44.5011    4.7846   10.4778 C   0  0  0  0  0  0  0  0  0  0  0  0
   45.7807    3.2943    8.8335 C   0  0  2  0  0  0  0  0  0  0  0  0
   43.1401    4.6774   10.7968 C   0  0  0  0  0  0  0  0  0  0  0  0
   45.4173    5.0710   11.4996 C   0  0  0  0  0  0  0  0  0  0  0  0
   44.9328    2.0393    9.0427 C   0  0  0  0  0  0  0  0  0  0  0  0
   44.9811    5.2426   12.8145 C   0  0  0  0  0  0  0  0  0  0  0  0
   42.7055    4.8501   12.1120 C   0  0  0  0  0  0  0  0  0  0  0  0
   43.6259    5.1320   13.1199 C   0  0  0  0  0  0  0  0  0  0  0  0
   45.2129    5.0273   10.4064 C   0  0  0  0  0  0  0  0  0  0  0  0
   44.9412    2.7419    9.3960 C   0  0  0  0  0  0  0  0  0  0  0  0
   44.8081    5.2082   11.8406 C   0  0  0  0  0  0  0  0  0  0  0  0
   44.2572    4.0883    9.6717 C   0  0  2  0  0  0  0  0  0  0  0  0
   45.2832    2.3241    8.2975 O   0  0  0  0  0  0  0  0  0  0  0  0
   44.5529    6.2705   12.3841 O   0  0  0  0  0  0  0  0  0  0  0  0
   43.8624    4.6912    8.3676 N   0  0  0  0  0  0  0  0  0  0  0  0
   45.1408    1.9939   10.4951 O   0  0  0  0  0  0  0  0  0  0  0  0
   44.7931    4.0663   12.5480 O   0  0  0  0  0  0  0  0  0  0  0  0
   45.5254    3.5000    9.9735 C   0  0  0  0  0  0  0  0  0  0  0  0
   44.9242    4.5158    7.7743 N   0  0  0  0  0  0  0  0  0  0  0  0
   44.6908    4.2615   10.9793 C   0  0  0  0  0  0  0  0  0  0  0  0
   44.8331    3.3069    8.6059 C   0  0  1  0  0  0  0  0  0  0  0  0
   44.5654    5.6546   10.8957 C   0  0  0  0  0  0  0  0  0  0  0  0
   44.0293    3.5833   12.0125 C   0  0  0  0  0  0  0  0  0  0  0  0
   45.4688    2.1400    7.8468 C   0  0  0  0  0  0  0  0  0  0  0  0
   43.7984    6.3555   11.8272 C   0  0  0  0  0  0  0  0  0  0  0  0
   43.2643    4.2857   12.9459 C   0  0  0  0  0  0  0  0  0  0  0  0
   43.1500    5.6715   12.8537 C   0  0  0  0  0  0  0  0  0  0  0  0
   44.7300    3.6664   10.3980 S   0  0  0  0  0  0  0  0  0  0  0  0
   43.8110    2.6792    9.8922 O   0  0  0  0  0  0  0  0  0  0  0  0
   45.6375    3.4321   11.4916 O   0  0  0  0  0  0  0  0  0  0  0  0
   45.5771    4.1862    9.1389 O   0  0  0  0  0  0  0  0  0  0  0  0
   43.8979    4.9848   10.7753 O   0  0  0  0  0  0  0  0  0  0  0  0
   42.6881    4.1546   10.3872 H   0  0  0  0  0  0  0  0  0  0  0  0
   43.4767    5.5843    9.7699 H   0  0  0  0  0  0  0  0  0  0  0  0
   45.8365    5.8603   12.5790 H   0  0  0  0  0  0  0  0  0  0  0  0
   46.1543    5.2785   11.0891 H   0  0  0  0  0  0  0  0  0  0  0  0
   44.5149    3.9651   12.1811 H   0  0  0  0  0  0  0  0  0  0  0  0
   43.8864    1.9060   10.3664 H   0  0  0  0  0  0  0  0  0  0  0  0
   45.4353    5.3869    8.3392 H   0  0  0  0  0  0  0  0  0  0  0  0
   42.8971    6.5735   12.1492 H   0  0  0  0  0  0  0  0  0  0  0  0
   43.5915    5.7976   13.5839 H   0  0  0  0  0  0  0  0  0  0  0  0
   42.3054    4.9890   12.6794 H   0  0  0  0  0  0  0  0  0  0  0  0
   45.3580    0.4680    8.9998 H   0  0  0  0  0  0  0  0  0  0  0  0
   46.9005    3.9327    6.9810 H   0  0  0  0  0  0  0  0  0  0  0  0
   46.8674    1.4731    7.3072 H   0  0  0  0  0  0  0  0  0  0  0  0
   44.1151    4.6191    8.3706 H   0  0  0  0  0  0  0  0  0  0  0  0
   45.5889    5.4615    8.7910 H   0  0  0  0  0  0  0  0  0  0  0  0
   46.8465    4.1146    7.2831 H   0  0  0  0  0  0  0  0  0  0  0  0
   45.5696    3.2275    6.7921 H   0  0  0  0  0  0  0  0  0  0  0  0
   46.6259    3.2588    9.5309 H   0  0  0  0  0  0  0  0  0  0  0  0
   42.4086    4.4553   10.0234 H   0  0  0  0  0  0  0  0  0  0  0  0
   46.4781    5.1621   11.2776 H   0  0  0  0  0  0  0  0  0  0  0  0
   45.5129    1.1349    8.8283 H   0  0  0  0  0  0  0  0  0  0  0  0
   44.5882    1.9629   10.0792 H   0  0  0  0  0  0  0  0  0  0  0  0
   44.0515    2.0359    8.3918 H   0  0  0  0  0  0  0  0  0  0  0  0
   45.6992    5.4610   13.6003 H   0  0  0  0  0  0  0  0  0  0  0  0
   41.6480    4.7637   12.3498 H   0  0  0  0  0  0  0  0  0  0  0  0
   43.2864    5.2652   14.1433 H   0  0  0  0  0  0  0  0  0  0  0  0
   45.1969    6.0311    9.9607 H   0  0  0  0  0  0  0  0  0  0  0  0
   46.2550    4.6862   10.3788 H   0  0  0  0  0  0  0  0  0  0  0  0
   43.3356    3.8935   10.2323 H   0  0  0  0  0  0  0  0  0  0  0  0
   44.6920    4.7222    7.7687 H   0  0  0  0  0  0  0  0  0  0  0  0
   43.2436    4.0330    7.8886 H   0  0  0  0  0  0  0  0  0  0  0  0
   45.5637    1.1735   10.1657 H   0  0  0  0  0  0  0  0  0  0  0  0
   44.5523    4.3441   13.4569 H   0  0  0  0  0  0  0  0  0  0  0  0
   46.4940    4.0040    9.8532 H   0  0  0  0  0  0  0  0  0  0  0  0
   45.7667    2.5180   10.4023 H   0  0  0  0  0  0  0  0  0  0  0  0
   44.4604    4.3506    6.8823 H   0  0  0  0  0  0  0  0  0  0  0  0
   45.9004    4.7140    7.5586 H   0  0  0  0  0  0  0  0  0  0  0  0
   43.7720    3.0780    8.7604 H   0  0  0  0  0  0  0  0  0  0  0  0
   45.0612    6.1993   10.0956 H   0  0  0  0  0  0  0  0  0  0  0  0
   44.1047    2.5025   12.0988 H   0  0  0  0  0  0  0  0  0  0  0  0
   44.9795    1.9859    6.8787 H   0  0  0  0  0  0  0  0  0  0  0  0
   46.5358    2.3125    7.6650 H   0  0  0  0  0  0  0  0  0  0  0  0
   45.3702    1.2087    8.4160 H   0  0  0  0  0  0  0  0  0  0  0  0
   43.7048    7.4355   11.7479 H   0  0  0  0  0  0  0  0  0  0  0  0
   42.7571    3.7512   13.7440 H   0  0  0  0  0  0  0  0  0  0  0  0
   42.5534    6.2184   13.5790 H   0  0  0  0  0  0  0  0  0  0  0  0
   45.0051    4.1027    8.3489 H   0  0  0  0  0  0  0  0  0  0  0  0
   44.4564    5.5153   11.3808 H   0  0  0  0  0  0  0  0  0  0  0  0
  4  2  1  0
  3  1  1  0
  4  1  1  0
  5  3  2  0
  6  3  1  0
  4  7  1  0
  8  5  1  0
  9  6  2  0
 10  8  2  0
  9 10  1  0
 12 14  1  0
 13 11  1  0
 14 11  1  0
 15 13  2  0
 16 13  1  0
 17 14  1  0
 18 16  2  0
 19 15  1  0
 20 18  1  0
 19 20  2  0
 22 24  1  0
 23 21  1  0
 24 21  1  0
 25 22  2  0
 26 23  2  0
 27 24  1  0
 28 22  1  0
 29 23  1  0
 33 31  1  0
 32 30  1  0
 33 30  1  0
 34 32  2  0
 35 32  1  0
 33 36  1  0
 37 34  1  0
 38 35  2  0
 39 37  2  0
 38 39  1  0
 41 40  2  0
 42 40  2  0
 43 40  1  0
 44 40  1  0
  1 45  1  0
  1 46  1  0
  2 47  1  0
  2 48  1  0
  4 49  1  1
  5 50  1  0
  6 51  1  0
  7 52  1  0
  7 53  1  0
  7 54  1  0
  8 55  1  0
  9 56  1  0
 10 57  1  0
 11 58  1  0
 11 59  1  0
 12 60  1  0
 12 61  1  0
 14 62  1  1
 15 63  1  0
 16 64  1  0
 17 65  1  0
 17 66  1  0
 17 67  1  0
 18 68  1  0
 19 69  1  0
 20 70  1  0
 21 71  1  0
 21 72  1  0
 24 73  1  6
 27 74  1  0
 27 75  1  0
 28 76  1  0
 29 77  1  0
 30 78  1  0
 30 79  1  0
 31 80  1  0
 31 81  1  0
 33 82  1  6
 34 83  1  0
 35 84  1  0
 36 85  1  0
 36 86  1  0
 36 87  1  0
 37 88  1  0
 38 89  1  0
 39 90  1  0
 43 91  1  0
 44 92  1  0
M  END
> <Uni-Dock RESULT> 
ENERGY=   -8.611  LOWER_BOUND=    2.287  UPPER_BOUND=    4.411
INTER + INTRA:          -8.611
INTER:                  -8.611
INTRA:                   0.000
UNBOUND:                 0.000

$$$$

     RDKit          3D

 92 90  0  0  0  0  0  0  0  0999 V2000
   46.5941    6.0897   12.9592 C   0  0  0  0  0  0  0  0  0  0  0  0
   46.1228    8.5215   13.2405 N   0  0  0  0  0  0  0  0  0  0  0  0
   45.3224    5.6934   12.2434 C   0  0  0  0  0  0  0  0  0  0  0  0
   47.0420    7.5355   12.6571 C   0  0  1  0  0  0  0  0  0  0  0  0
   45.3559    5.3057   10.8970 C   0  0  0  0  0  0  0  0  0  0  0  0
   44.0908    5.7263   12.9117 C   0  0  0  0  0  0  0  0  0  0  0  0
   48.4415    7.7866   13.2155 C   0  0  0  0  0  0  0  0  0  0  0  0
   44.1781    4.9577   10.2331 C   0  0  0  0  0  0  0  0  0  0  0  0
   42.9145    5.3786   12.2453 C   0  0  0  0  0  0  0  0  0  0  0  0
   42.9579    4.9949   10.9063 C   0  0  0  0  0  0  0  0  0  0  0  0
   44.8009    5.9707   13.0729 C   0  0  0  0  0  0  0  0  0  0  0  0
   42.6718    5.1689   12.0921 N   0  0  0  0  0  0  0  0  0  0  0  0
   46.0683    6.7705   12.8825 C   0  0  0  0  0  0  0  0  0  0  0  0
   43.9533    5.8240   11.7904 C   0  0  2  0  0  0  0  0  0  0  0  0
   47.3205    6.1418   12.9310 C   0  0  0  0  0  0  0  0  0  0  0  0
   46.0110    8.1522   12.6519 C   0  0  0  0  0  0  0  0  0  0  0  0
   44.6667    5.0062   10.7133 C   0  0  0  0  0  0  0  0  0  0  0  0
   47.1823    8.8891   12.4695 C   0  0  0  0  0  0  0  0  0  0  0  0
   48.4910    6.8803   12.7492 C   0  0  0  0  0  0  0  0  0  0  0  0
   48.4214    8.2530   12.5181 C   0  0  0  0  0  0  0  0  0  0  0  0
   45.4846    7.2353   12.9999 C   0  0  0  0  0  0  0  0  0  0  0  0
   44.9241    5.5191   11.2511 C   0  0  0  0  0  0  0  0  0  0  0  0
   46.7066    8.0794   12.7820 C   0  0  0  0  0  0  0  0  0  0  0  0
   45.7118    5.7962   12.5392 C   0  0  2  0  0  0  0  0  0  0  0  0
   43.9460    4.7899   11.1526 O   0  0  0  0  0  0  0  0  0  0  0  0
   47.3103    8.7008   13.6414 O   0  0  0  0  0  0  0  0  0  0  0  0
   45.2417    4.8509   13.5907 N   0  0  0  0  0  0  0  0  0  0  0  0
   45.4091    6.1484   10.1666 O   0  0  0  0  0  0  0  0  0  0  0  0
   47.0898    8.1574   11.4968 O   0  0  0  0  0  0  0  0  0  0  0  0
   44.8768    6.5574   11.6624 C   0  0  0  0  0  0  0  0  0  0  0  0
   44.0337    5.0017   13.4228 N   0  0  0  0  0  0  0  0  0  0  0  0
   46.2017    7.0505   12.2006 C   0  0  0  0  0  0  0  0  0  0  0  0
   44.5496    5.0979   12.0496 C   0  0  1  0  0  0  0  0  0  0  0  0
   46.3329    7.4240   13.5447 C   0  0  0  0  0  0  0  0  0  0  0  0
   47.3202    7.1416   11.3606 C   0  0  0  0  0  0  0  0  0  0  0  0
   43.5087    4.5132   11.0922 C   0  0  0  0  0  0  0  0  0  0  0  0
   47.5550    7.8827   14.0380 C   0  0  0  0  0  0  0  0  0  0  0  0
   48.5420    7.6033   11.8543 C   0  0  0  0  0  0  0  0  0  0  0  0
   48.6588    7.9747   13.1924 C   0  0  0  0  0  0  0  0  0  0  0  0
   45.7714    6.4430   11.8272 S   0  0  0  0  0  0  0  0  0  0  0  0
   46.1101    5.1712   11.2416 O   0  0  0  0  0  0  0  0  0  0  0  0
   45.7335    7.6806   11.0914 O   0  0  0  0  0  0  0  0  0  0  0  0
   44.3575    6.2446   12.5584 O   0  0  0  0  0  0  0  0  0  0  0  0
   46.7361    6.6933   13.0840 O   0  0  0  0  0  0  0  0  0  0  0  0
   47.3843    5.3882   12.6600 H   0  0  0  0  0  0  0  0  0  0  0  0
   46.4729    5.9436   14.0412 H   0  0  0  0  0  0  0  0  0  0  0  0
   46.4074    9.4602   12.9615 H   0  0  0  0  0  0  0  0  0  0  0  0
   45.1936    8.3779   12.8408 H   0  0  0  0  0  0  0  0  0  0  0  0
   47.0710    7.6923   11.5718 H   0  0  0  0  0  0  0  0  0  0  0  0
   46.2999    5.2720   10.3572 H   0  0  0  0  0  0  0  0  0  0  0  0
   44.0424    6.0284   13.9567 H   0  0  0  0  0  0  0  0  0  0  0  0
   48.4713    7.6506   14.3030 H   0  0  0  0  0  0  0  0  0  0  0  0
   48.7790    8.8055   12.9938 H   0  0  0  0  0  0  0  0  0  0  0  0
   49.1655    7.0949   12.7697 H   0  0  0  0  0  0  0  0  0  0  0  0
   44.2121    4.6575    9.1891 H   0  0  0  0  0  0  0  0  0  0  0  0
   41.9638    5.4100   12.7721 H   0  0  0  0  0  0  0  0  0  0  0  0
   42.0417    4.7249   10.3884 H   0  0  0  0  0  0  0  0  0  0  0  0
   45.0425    4.9783   13.4763 H   0  0  0  0  0  0  0  0  0  0  0  0
   44.2096    6.4693   13.8527 H   0  0  0  0  0  0  0  0  0  0  0  0
   42.2057    5.6590   12.8540 H   0  0  0  0  0  0  0  0  0  0  0  0
   42.8384    4.2196   12.4225 H   0  0  0  0  0  0  0  0  0  0  0  0
   43.7287    6.8146   11.3779 H   0  0  0  0  0  0  0  0  0  0  0  0
   47.3933    5.0712   13.1075 H   0  0  0  0  0  0  0  0  0  0  0  0
   45.0520    8.6639   12.6126 H   0  0  0  0  0  0  0  0  0  0  0  0
   44.0255    4.8716    9.8352 H   0  0  0  0  0  0  0  0  0  0  0  0
   45.5776    5.5094   10.3730 H   0  0  0  0  0  0  0  0  0  0  0  0
   44.9460    4.0128   11.0813 H   0  0  0  0  0  0  0  0  0  0  0  0
   47.1276    9.9591   12.2879 H   0  0  0  0  0  0  0  0  0  0  0  0
   49.4574    6.3835   12.7871 H   0  0  0  0  0  0  0  0  0  0  0  0
   49.3331    8.8265   12.3758 H   0  0  0  0  0  0  0  0  0  0  0  0
   45.2805    7.2747   14.0784 H   0  0  0  0  0  0  0  0  0  0  0  0
   44.6350    7.7165   12.5001 H   0  0  0  0  0  0  0  0  0  0  0  0
   46.7674    5.5712   12.3479 H   0  0  0  0  0  0  0  0  0  0  0  0
   44.2237    4.9336   13.6591 H   0  0  0  0  0  0  0  0  0  0  0  0
   45.3837    3.8984   13.2469 H   0  0  0  0  0  0  0  0  0  0  0  0
   44.8236    5.8683    9.4324 H   0  0  0  0  0  0  0  0  0  0  0  0
   47.8621    8.7613   11.5075 H   0  0  0  0  0  0  0  0  0  0  0  0
   44.0786    7.2368   11.9911 H   0  0  0  0  0  0  0  0  0  0  0  0
   44.8962    6.6492   10.5681 H   0  0  0  0  0  0  0  0  0  0  0  0
   43.8275    4.0280   13.6411 H   0  0  0  0  0  0  0  0  0  0  0  0
   43.1513    5.5062   13.4965 H   0  0  0  0  0  0  0  0  0  0  0  0
   45.4581    4.4877   11.9825 H   0  0  0  0  0  0  0  0  0  0  0  0
   45.4807    7.3507   14.2164 H   0  0  0  0  0  0  0  0  0  0  0  0
   47.2488    6.8539   10.3149 H   0  0  0  0  0  0  0  0  0  0  0  0
   43.2754    3.4742   11.3499 H   0  0  0  0  0  0  0  0  0  0  0  0
   42.5751    5.0870   11.1144 H   0  0  0  0  0  0  0  0  0  0  0  0
   43.8836    4.5195   10.0624 H   0  0  0  0  0  0  0  0  0  0  0  0
   47.6449    8.1641   15.0840 H   0  0  0  0  0  0  0  0  0  0  0  0
   49.4024    7.6722   11.1949 H   0  0  0  0  0  0  0  0  0  0  0  0
   49.6100    8.3326   13.5774 H   0  0  0  0  0  0  0  0  0  0  0  0
   44.3042    5.3085   12.8397 H   0  0  0  0  0  0  0  0  0  0  0  0
   46.7121    7.6531   13.2797 H   0  0  0  0  0  0  0  0  0  0  0  0
  4  2  1  0
  3  1  1  0
  4  1  1  0
  5  3  2  0
  6  3  1  0
  4  7  1  0
  8  5  1  0
  9  6  2  0
 10  8  2  0
  9 10  1  0
 12 14  1  0
 13 11  1  0
 14 11  1  0
 15 13  2  0
 16 13  1  0
 17 14  1  0
 18 16  2  0
 19 15  1  0
 20 18  1  0
 19 20  2  0
 22 24  1  0
 23 21  1  0
 24 21  1  0
 25 22  2  0
 26 23  2  0
 27 24  1  0
 28 22  1  0
 29 23  1  0
 33 31  1  0
 32 30  1  0
 33 30  1  0
 34 32  2  0
 35 32  1  0
 33 36  1  0
 37 34  1  0
 38 35  2  0
 39 37  2  0
 38 39  1  0
 41 40  2  0
 42 40  2  0
 43 40  1  0
 44 40  1  0
  1 45  1  0
  1 46  1  0
  2 47  1  0
  2 48  1  0
  4 49  1  1
  5 50  1  0
  6 51  1  0
  7 52  1  0
  7 53  1  0
  7 54  1  0
  8 55  1  0
  9 56  1  0
 10 57  1  0
 11 58  1  0
 11 59  1  0
 12 60  1  0
 12 61  1  0
 14 62  1  1
 15 63  1  0
 16 64  1  0
 17 65  1  0
 17 66  1  0
 17 67  1  0
 18 68  1  0
 19 69  1  0
 20 70  1  0
 21 71  1  0
 21 72  1  0
 24 73  1  6
 27 74  1  0
 27 75  1  0
 28 76  1  0
 29 77  1  0
 30 78  1  0
 30 79  1  0
 31 80  1  0
 31 81  1  0
 33 82  1  6
 34 83  1  0
 35 84  1  0
 36 85  1  0
 36 86  1  0
 36 87  1  0
 37 88  1  0
 38 89  1  0
 39 90  1  0
 43 91  1  0
 44 92  1  0
M  END
> <Uni-Dock RESULT> 
ENERGY=   -7.392  LOWER_BOUND=    1.186  UPPER_BOUND=    4.211
INTER + INTRA:          -7.392
INTER:                  -7.392
INTRA:                   0.000
UNBOUND:                 0.000

$$$$

     RDKit          3D

 92 90  0  0  0  0  0  0  0  0999 V2000
   46.8309    6.2977   11.7894 C   0  0  0  0  0  0  0  0  0  0  0  0
   47.3383    6.8128   14.1752 N   0  0  0  0  0  0  0  0  0  0  0  0
   45.3464    6.0426   11.9231 C   0  0  0  0  0  0  0  0  0  0  0  0
   47.3683    7.3316   12.8015 C   0  0  1  0  0  0  0  0  0  0  0  0
   44.4191    6.9344   11.3672 C   0  0  0  0  0  0  0  0  0  0  0  0
   44.8779    4.9207   12.6205 C   0  0  0  0  0  0  0  0  0  0  0  0
   48.8069    7.7140   12.4583 C   0  0  0  0  0  0  0  0  0  0  0  0
   43.0489    6.7065   11.5076 C   0  0  0  0  0  0  0  0  0  0  0  0
   43.5074    4.6954   12.7600 C   0  0  0  0  0  0  0  0  0  0  0  0
   42.5930    5.5882   12.2042 C   0  0  0  0  0  0  0  0  0  0  0  0
   45.5637    5.2547   12.5305 C   0  0  0  0  0  0  0  0  0  0  0  0
   43.1765    4.6061   12.6659 N   0  0  0  0  0  0  0  0  0  0  0  0
   46.5887    6.3612   12.6159 C   0  0  0  0  0  0  0  0  0  0  0  0
   44.1018    5.7471   12.6018 C   0  0  2  0  0  0  0  0  0  0  0  0
   47.3564    6.7082   11.4953 C   0  0  0  0  0  0  0  0  0  0  0  0
   46.7854    7.0589   13.8160 C   0  0  0  0  0  0  0  0  0  0  0  0
   43.7192    6.6063   11.3962 C   0  0  0  0  0  0  0  0  0  0  0  0
   47.7281    8.0856   13.8921 C   0  0  0  0  0  0  0  0  0  0  0  0
   48.2993    7.7345   11.5733 C   0  0  0  0  0  0  0  0  0  0  0  0
   48.4842    8.4228   12.7711 C   0  0  0  0  0  0  0  0  0  0  0  0
   46.3662    6.1608   13.3094 C   0  0  0  0  0  0  0  0  0  0  0  0
   44.3859    6.5299   11.8062 C   0  0  0  0  0  0  0  0  0  0  0  0
   47.3533    7.2830   13.4506 C   0  0  0  0  0  0  0  0  0  0  0  0
   45.8438    6.0547   11.8774 C   0  0  2  0  0  0  0  0  0  0  0  0
   43.4100    5.8190   11.6055 O   0  0  0  0  0  0  0  0  0  0  0  0
   48.5039    7.1794   13.8437 O   0  0  0  0  0  0  0  0  0  0  0  0
   45.8989    4.6360   11.4252 N   0  0  0  0  0  0  0  0  0  0  0  0
   44.2335    7.8555   11.9702 O   0  0  0  0  0  0  0  0  0  0  0  0
   46.8480    8.4907   13.1496 O   0  0  0  0  0  0  0  0  0  0  0  0
   44.8972    6.6052   12.7973 C   0  0  0  0  0  0  0  0  0  0  0  0
   44.9560    4.2123   12.0898 N   0  0  0  0  0  0  0  0  0  0  0  0
   46.3359    7.0616   12.6972 C   0  0  0  0  0  0  0  0  0  0  0  0
   44.4972    5.5619   11.7303 C   0  0  1  0  0  0  0  0  0  0  0  0
   47.3777    6.2493   13.1642 C   0  0  0  0  0  0  0  0  0  0  0  0
   46.6487    8.3069   12.1347 C   0  0  0  0  0  0  0  0  0  0  0  0
   42.9770    5.5334   11.5566 C   0  0  0  0  0  0  0  0  0  0  0  0
   48.7039    6.6743   13.0747 C   0  0  0  0  0  0  0  0  0  0  0  0
   47.9757    8.7326   12.0480 C   0  0  0  0  0  0  0  0  0  0  0  0
   49.0028    7.9168   12.5190 C   0  0  0  0  0  0  0  0  0  0  0  0
   45.6201    6.8870   12.3089 S   0  0  0  0  0  0  0  0  0  0  0  0
   45.1469    6.9996   10.9530 O   0  0  0  0  0  0  0  0  0  0  0  0
   45.4742    7.9234   13.2984 O   0  0  0  0  0  0  0  0  0  0  0  0
   44.9943    5.5325   12.8977 O   0  0  0  0  0  0  0  0  0  0  0  0
   47.1798    6.5147   12.2703 O   0  0  0  0  0  0  0  0  0  0  0  0
   47.0240    6.6474   10.7664 H   0  0  0  0  0  0  0  0  0  0  0  0
   47.3806    5.3509   11.8795 H   0  0  0  0  0  0  0  0  0  0  0  0
   47.6308    7.5442   14.8228 H   0  0  0  0  0  0  0  0  0  0  0  0
   46.3714    6.5902   14.4190 H   0  0  0  0  0  0  0  0  0  0  0  0
   46.7524    8.2386   12.7628 H   0  0  0  0  0  0  0  0  0  0  0  0
   44.7585    7.8121   10.8211 H   0  0  0  0  0  0  0  0  0  0  0  0
   45.5817    4.2176   13.0633 H   0  0  0  0  0  0  0  0  0  0  0  0
   49.4728    6.8436   12.4883 H   0  0  0  0  0  0  0  0  0  0  0  0
   49.1960    8.4605   13.1601 H   0  0  0  0  0  0  0  0  0  0  0  0
   48.8626    8.1461   11.4525 H   0  0  0  0  0  0  0  0  0  0  0  0
   42.3357    7.4022   11.0733 H   0  0  0  0  0  0  0  0  0  0  0  0
   43.1542    3.8235   13.3053 H   0  0  0  0  0  0  0  0  0  0  0  0
   41.5265    5.4124   12.3138 H   0  0  0  0  0  0  0  0  0  0  0  0
   45.7174    4.6733   11.6116 H   0  0  0  0  0  0  0  0  0  0  0  0
   45.7605    4.5576   13.3561 H   0  0  0  0  0  0  0  0  0  0  0  0
   43.4508    3.9827   13.4235 H   0  0  0  0  0  0  0  0  0  0  0  0
   43.2418    4.0598   11.8084 H   0  0  0  0  0  0  0  0  0  0  0  0
   43.9543    6.3434   13.5098 H   0  0  0  0  0  0  0  0  0  0  0  0
   47.2233    6.1835   10.5521 H   0  0  0  0  0  0  0  0  0  0  0  0
   46.2045    6.8069   14.7002 H   0  0  0  0  0  0  0  0  0  0  0  0
   42.6644    6.8990   11.4433 H   0  0  0  0  0  0  0  0  0  0  0  0
   44.3084    7.5285   11.3646 H   0  0  0  0  0  0  0  0  0  0  0  0
   43.8778    6.0707   10.4537 H   0  0  0  0  0  0  0  0  0  0  0  0
   47.8710    8.6230   14.8257 H   0  0  0  0  0  0  0  0  0  0  0  0
   48.8889    7.9973   10.6984 H   0  0  0  0  0  0  0  0  0  0  0  0
   49.2177    9.2221   12.8302 H   0  0  0  0  0  0  0  0  0  0  0  0
   46.9049    5.2485   13.5995 H   0  0  0  0  0  0  0  0  0  0  0  0
   45.5678    6.3041   14.0477 H   0  0  0  0  0  0  0  0  0  0  0  0
   46.4300    6.6463   11.1647 H   0  0  0  0  0  0  0  0  0  0  0  0
   45.2236    4.1008   11.9779 H   0  0  0  0  0  0  0  0  0  0  0  0
   45.5226    4.5913   10.4755 H   0  0  0  0  0  0  0  0  0  0  0  0
   43.2692    8.0085   11.8859 H   0  0  0  0  0  0  0  0  0  0  0  0
   47.5843    9.1145   13.3225 H   0  0  0  0  0  0  0  0  0  0  0  0
   44.7106    6.2201   13.8091 H   0  0  0  0  0  0  0  0  0  0  0  0
   44.2506    7.4882   12.7049 H   0  0  0  0  0  0  0  0  0  0  0  0
   44.6728    3.5530   11.3664 H   0  0  0  0  0  0  0  0  0  0  0  0
   44.4997    3.9098   12.9494 H   0  0  0  0  0  0  0  0  0  0  0  0
   44.9473    5.8304   10.7672 H   0  0  0  0  0  0  0  0  0  0  0  0
   47.1583    5.2748   13.5941 H   0  0  0  0  0  0  0  0  0  0  0  0
   45.8613    8.9555   11.7598 H   0  0  0  0  0  0  0  0  0  0  0  0
   42.6807    4.8041   10.7944 H   0  0  0  0  0  0  0  0  0  0  0  0
   42.4704    5.2719   12.4926 H   0  0  0  0  0  0  0  0  0  0  0  0
   42.6059    6.5131   11.2349 H   0  0  0  0  0  0  0  0  0  0  0  0
   49.5033    6.0323   13.4357 H   0  0  0  0  0  0  0  0  0  0  0  0
   48.2077    9.7002   11.6123 H   0  0  0  0  0  0  0  0  0  0  0  0
   50.0358    8.2471   12.4502 H   0  0  0  0  0  0  0  0  0  0  0  0
   44.8723    4.9174   12.1459 H   0  0  0  0  0  0  0  0  0  0  0  0
   47.5512    6.7354   13.1498 H   0  0  0  0  0  0  0  0  0  0  0  0
  4  2  1  0
  3  1  1  0
  4  1  1  0
  5  3  2  0
  6  3  1  0
  4  7  1  0
  8  5  1  0
  9  6  2  0
 10  8  2  0
  9 10  1  0
 12 14  1  0
 13 11  1  0
 14 11  1  0
 15 13  2  0
 16 13  1  0
 17 14  1  0
 18 16  2  0
 19 15  1  0
 20 18  1  0
 19 20  2  0
 22 24  1  0
 23 21  1  0
 24 21  1  0
 25 22  2  0
 26 23  2  0
 27 24  1  0
 28 22  1  0
 29 23  1  0
 33 31  1  0
 32 30  1  0
 33 30  1  0
 34 32  2  0
 35 32  1  0
 33 36  1  0
 37 34  1  0
 38 35  2  0
 39 37  2  0
 38 39  1  0
 41 40  2  0
 42 40  2  0
 43 40  1  0
 44 40  1  0
  1 45  1  0
  1 46  1  0
  2 47  1  0
  2 48  1  0
  4 49  1  1
  5 50  1  0
  6 51  1  0
  7 52  1  0
  7 53  1  0
  7 54  1  0
  8 55  1  0
  9 56  1  0
 10 57  1  0
 11 58  1  0
 11 59  1  0
 12 60  1  0
 12 61  1  0
 14 62  1  1
 15 63  1  0
 16 64  1  0
 17 65  1  0
 17 66  1  0
 17 67  1  0
 18 68  1  0
 19 69  1  0
 20 70  1  0
 21 71  1  0
 21 72  1  0
 24 73  1  6
 27 74  1  0
 27 75  1  0
 28 76  1  0
 29 77  1  0
 30 78  1  0
 30 79  1  0
 31 80  1  0
 31 81  1  0
 33 82  1  6
 34 83  1  0
 35 84  1  0
 36 85  1  0
 36 86  1  0
 36 87  1  0
 37 88  1  0
 38 89  1  0
 39 90  1  0
 43 91  1  0
 44 92  1  0
M  END
> <Uni-Dock RESULT> 
ENERGY=   -7.382  LOWER_BOUND=    1.388  UPPER_BOUND=    4.223
INTER + INTRA:          -7.382
INTER:                  -7.382
INTRA:                   0.000
UNBOUND:                 0.000

$$$$

     RDKit          3D

 92 90  0  0  0  0  0  0  0  0999 V2000
   45.5671    7.5676   12.5244 C   0  0  0  0  0  0  0  0  0  0  0  0
   47.7030    7.0264   11.3585 N   0  0  0  0  0  0  0  0  0  0  0  0
   44.8036    6.3039   12.1974 C   0  0  0  0  0  0  0  0  0  0  0  0
   47.0892    7.3475   12.6536 C   0  0  1  0  0  0  0  0  0  0  0  0
   44.4932    5.3802   13.2047 C   0  0  0  0  0  0  0  0  0  0  0  0
   44.4121    6.0309   10.8795 C   0  0  0  0  0  0  0  0  0  0  0  0
   47.7623    8.5996   13.2127 C   0  0  0  0  0  0  0  0  0  0  0  0
   43.8041    4.2056   12.8974 C   0  0  0  0  0  0  0  0  0  0  0  0
   43.7238    4.8553   10.5748 C   0  0  0  0  0  0  0  0  0  0  0  0
   43.4203    3.9426   11.5832 C   0  0  0  0  0  0  0  0  0  0  0  0
   44.8684    6.5518   11.2119 C   0  0  0  0  0  0  0  0  0  0  0  0
   43.4520    4.6268   10.5590 N   0  0  0  0  0  0  0  0  0  0  0  0
   46.0423    7.0516   12.0207 C   0  0  0  0  0  0  0  0  0  0  0  0
   44.4975    5.0786   11.4891 C   0  0  2  0  0  0  0  0  0  0  0  0
   45.8532    7.9918   13.0434 C   0  0  0  0  0  0  0  0  0  0  0  0
   47.3374    6.5809   11.7624 C   0  0  0  0  0  0  0  0  0  0  0  0
   43.9925    4.8658   12.9166 C   0  0  0  0  0  0  0  0  0  0  0  0
   48.4206    7.0384   12.5148 C   0  0  0  0  0  0  0  0  0  0  0  0
   46.9374    8.4489   13.7943 C   0  0  0  0  0  0  0  0  0  0  0  0
   48.2201    7.9718   13.5301 C   0  0  0  0  0  0  0  0  0  0  0  0
   46.2881    6.6869   11.4066 C   0  0  0  0  0  0  0  0  0  0  0  0
   44.5428    5.3370   12.6105 C   0  0  0  0  0  0  0  0  0  0  0  0
   47.4902    7.1291   12.1895 C   0  0  0  0  0  0  0  0  0  0  0  0
   45.0172    6.7523   12.2523 C   0  0  2  0  0  0  0  0  0  0  0  0
   43.5392    4.7869   12.1766 O   0  0  0  0  0  0  0  0  0  0  0  0
   48.2447    8.0401   11.8895 O   0  0  0  0  0  0  0  0  0  0  0  0
   43.9356    7.4307   11.4841 N   0  0  0  0  0  0  0  0  0  0  0  0
   45.3316    4.7026   13.4952 O   0  0  0  0  0  0  0  0  0  0  0  0
   47.7316    6.3830   13.2802 O   0  0  0  0  0  0  0  0  0  0  0  0
   45.4950    5.4225   12.0313 C   0  0  0  0  0  0  0  0  0  0  0  0
   43.6915    6.5181   10.6982 N   0  0  0  0  0  0  0  0  0  0  0  0
   46.3732    6.5670   12.4863 C   0  0  0  0  0  0  0  0  0  0  0  0
   43.9962    5.7852   11.9356 C   0  0  1  0  0  0  0  0  0  0  0  0
   46.7237    7.5949   11.6009 C   0  0  0  0  0  0  0  0  0  0  0  0
   46.8509    6.6160   13.8033 C   0  0  0  0  0  0  0  0  0  0  0  0
   43.1377    4.5191   11.9802 C   0  0  0  0  0  0  0  0  0  0  0  0
   47.5376    8.6475   12.0217 C   0  0  0  0  0  0  0  0  0  0  0  0
   47.6675    7.6681   14.2228 C   0  0  0  0  0  0  0  0  0  0  0  0
   48.0115    8.6829   13.3316 C   0  0  0  0  0  0  0  0  0  0  0  0
   45.6719    6.1295   12.5876 S   0  0  0  0  0  0  0  0  0  0  0  0
   44.5995    6.1388   13.5494 O   0  0  0  0  0  0  0  0  0  0  0  0
   46.8541    5.3162   12.7119 O   0  0  0  0  0  0  0  0  0  0  0  0
   45.0006    5.8333   11.1612 O   0  0  0  0  0  0  0  0  0  0  0  0
   46.1795    7.6371   12.3825 O   0  0  0  0  0  0  0  0  0  0  0  0
   45.1707    7.9690   13.4667 H   0  0  0  0  0  0  0  0  0  0  0  0
   45.3532    8.3371   11.7702 H   0  0  0  0  0  0  0  0  0  0  0  0
   48.6921    6.8170   11.4921 H   0  0  0  0  0  0  0  0  0  0  0  0
   47.2790    6.1688   10.9999 H   0  0  0  0  0  0  0  0  0  0  0  0
   47.2834    6.5156   13.3419 H   0  0  0  0  0  0  0  0  0  0  0  0
   44.7861    5.5702   14.2352 H   0  0  0  0  0  0  0  0  0  0  0  0
   44.6468    6.7336   10.0815 H   0  0  0  0  0  0  0  0  0  0  0  0
   47.6069    9.4660   12.5592 H   0  0  0  0  0  0  0  0  0  0  0  0
   48.8424    8.4514   13.3251 H   0  0  0  0  0  0  0  0  0  0  0  0
   47.3586    8.8468   14.2014 H   0  0  0  0  0  0  0  0  0  0  0  0
   43.5665    3.4942   13.6840 H   0  0  0  0  0  0  0  0  0  0  0  0
   43.4270    4.6516    9.5488 H   0  0  0  0  0  0  0  0  0  0  0  0
   42.8850    3.0277   11.3449 H   0  0  0  0  0  0  0  0  0  0  0  0
   43.9953    7.1953   11.3838 H   0  0  0  0  0  0  0  0  0  0  0  0
   45.1214    6.6767   10.1504 H   0  0  0  0  0  0  0  0  0  0  0  0
   43.7383    4.8182    9.6002 H   0  0  0  0  0  0  0  0  0  0  0  0
   42.5978    5.1600   10.7141 H   0  0  0  0  0  0  0  0  0  0  0  0
   45.3748    4.4393   11.3356 H   0  0  0  0  0  0  0  0  0  0  0  0
   44.8589    8.3727   13.2649 H   0  0  0  0  0  0  0  0  0  0  0  0
   47.5109    5.8536   10.9726 H   0  0  0  0  0  0  0  0  0  0  0  0
   43.6866    3.8253   13.0723 H   0  0  0  0  0  0  0  0  0  0  0  0
   44.7754    5.0847   13.6500 H   0  0  0  0  0  0  0  0  0  0  0  0
   43.1318    5.5063   13.1386 H   0  0  0  0  0  0  0  0  0  0  0  0
   49.4202    6.6652   12.3095 H   0  0  0  0  0  0  0  0  0  0  0  0
   46.7805    9.1771   14.5864 H   0  0  0  0  0  0  0  0  0  0  0  0
   49.0630    8.3276   14.1159 H   0  0  0  0  0  0  0  0  0  0  0  0
   46.2228    7.3668   10.5465 H   0  0  0  0  0  0  0  0  0  0  0  0
   46.4839    5.6857   11.0034 H   0  0  0  0  0  0  0  0  0  0  0  0
   45.1538    7.3118   13.1850 H   0  0  0  0  0  0  0  0  0  0  0  0
   43.6810    6.8287   10.6964 H   0  0  0  0  0  0  0  0  0  0  0  0
   43.0931    7.4394   12.0633 H   0  0  0  0  0  0  0  0  0  0  0  0
   44.9014    3.8333   13.6352 H   0  0  0  0  0  0  0  0  0  0  0  0
   48.5528    6.7614   13.6592 H   0  0  0  0  0  0  0  0  0  0  0  0
   45.8669    5.0426   11.0700 H   0  0  0  0  0  0  0  0  0  0  0  0
   45.6248    4.5902   12.7360 H   0  0  0  0  0  0  0  0  0  0  0  0
   42.6969    6.7374   10.6690 H   0  0  0  0  0  0  0  0  0  0  0  0
   43.8793    5.9255    9.8906 H   0  0  0  0  0  0  0  0  0  0  0  0
   43.7167    6.4191   12.7855 H   0  0  0  0  0  0  0  0  0  0  0  0
   46.3551    7.5823   10.5779 H   0  0  0  0  0  0  0  0  0  0  0  0
   46.5910    5.8349   14.5130 H   0  0  0  0  0  0  0  0  0  0  0  0
   42.0711    4.7636   11.9235 H   0  0  0  0  0  0  0  0  0  0  0  0
   43.3760    3.8426   11.1515 H   0  0  0  0  0  0  0  0  0  0  0  0
   43.3000    3.9745   12.9172 H   0  0  0  0  0  0  0  0  0  0  0  0
   47.7976    9.4416   11.3264 H   0  0  0  0  0  0  0  0  0  0  0  0
   48.0343    7.6960   15.2448 H   0  0  0  0  0  0  0  0  0  0  0  0
   48.6457    9.5027   13.6582 H   0  0  0  0  0  0  0  0  0  0  0  0
   44.0889    6.1890   11.1891 H   0  0  0  0  0  0  0  0  0  0  0  0
   47.0723    7.5891   11.9817 H   0  0  0  0  0  0  0  0  0  0  0  0
  4  2  1  0
  3  1  1  0
  4  1  1  0
  5  3  2  0
  6  3  1  0
  4  7  1  0
  8  5  1  0
  9  6  2  0
 10  8  2  0
  9 10  1  0
 12 14  1  0
 13 11  1  0
 14 11  1  0
 15 13  2  0
 16 13  1  0
 17 14  1  0
 18 16  2  0
 19 15  1  0
 20 18  1  0
 19 20  2  0
 22 24  1  0
 23 21  1  0
 24 21  1  0
 25 22  2  0
 26 23  2  0
 27 24  1  0
 28 22  1  0
 29 23  1  0
 33 31  1  0
 32 30  1  0
 33 30  1  0
 34 32  2  0
 35 32  1  0
 33 36  1  0
 37 34  1  0
 38 35  2  0
 39 37  2  0
 38 39  1  0
 41 40  2  0
 42 40  2  0
 43 40  1  0
 44 40  1  0
  1 45  1  0
  1 46  1  0
  2 47  1  0
  2 48  1  0
  4 49  1  1
  5 50  1  0
  6 51  1  0
  7 52  1  0
  7 53  1  0
  7 54  1  0
  8 55  1  0
  9 56  1  0
 10 57  1  0
 11 58  1  0
 11 59  1  0
 12 60  1  0
 12 61  1  0
 14 62  1  1
 15 63  1  0
 16 64  1  0
 17 65  1  0
 17 66  1  0
 17 67  1  0
 18 68  1  0
 19 69  1  0
 20 70  1  0
 21 71  1  0
 21 72  1  0
 24 73  1  6
 27 74  1  0
 27 75  1  0
 28 76  1  0
 29 77  1  0
 30 78  1  0
 30 79  1  0
 31 80  1  0
 31 81  1  0
 33 82  1  6
 34 83  1  0
 35 84  1  0
 36 85  1  0
 36 86  1  0
 36 87  1  0
 37 88  1  0
 38 89  1  0
 39 90  1  0
 43 91  1  0
 44 92  1  0
M  END
> <Uni-Dock RESULT> 
ENERGY=   -6.963  LOWER_BOUND=    1.016  UPPER_BOUND=    4.170
INTER + INTRA:          -6.963
INTER:                  -6.963
INTRA:                   0.000
UNBOUND:                 0.000

$$$$

     RDKit          3D

 92 90  0  0  0  0  0  0  0  0999 V2000
   41.6200   11.7802    9.9568 C   0  0  0  0  0  0  0  0  0  0  0  0
   42.8615    9.6577   10.3670 N   0  0  0  0  0  0  0  0  0  0  0  0
   40.4894   11.5753   10.9398 C   0  0  0  0  0  0  0  0  0  0  0  0
   42.9443   11.1237   10.4009 C   0  0  1  0  0  0  0  0  0  0  0  0
   40.3937   12.3717   12.0891 C   0  0  0  0  0  0  0  0  0  0  0  0
   39.5324   10.5742   10.7239 C   0  0  0  0  0  0  0  0  0  0  0  0
   44.0889   11.5665    9.4914 C   0  0  0  0  0  0  0  0  0  0  0  0
   39.3594   12.1687   13.0045 C   0  0  0  0  0  0  0  0  0  0  0  0
   38.4995   10.3728   11.6411 C   0  0  0  0  0  0  0  0  0  0  0  0
   38.4132   11.1694   12.7813 C   0  0  0  0  0  0  0  0  0  0  0  0
   40.2035   10.7605   10.4001 C   0  0  0  0  0  0  0  0  0  0  0  0
   38.1963   10.4358   11.8154 N   0  0  0  0  0  0  0  0  0  0  0  0
   41.6923   11.0102   10.3412 C   0  0  0  0  0  0  0  0  0  0  0  0
   39.6105   10.8385   11.8238 C   0  0  2  0  0  0  0  0  0  0  0  0
   42.1946   12.1839    9.7616 C   0  0  0  0  0  0  0  0  0  0  0  0
   42.5932   10.0737   10.8672 C   0  0  0  0  0  0  0  0  0  0  0  0
   39.7037   12.2455   12.4152 C   0  0  0  0  0  0  0  0  0  0  0  0
   43.9683   10.3085   10.8182 C   0  0  0  0  0  0  0  0  0  0  0  0
   43.5700   12.4168    9.7126 C   0  0  0  0  0  0  0  0  0  0  0  0
   44.4559   11.4796   10.2412 C   0  0  0  0  0  0  0  0  0  0  0  0
   41.5582   10.2884   10.5187 C   0  0  0  0  0  0  0  0  0  0  0  0
   40.1804   11.8319   11.9460 C   0  0  0  0  0  0  0  0  0  0  0  0
   43.0458   10.4897   10.5090 C   0  0  0  0  0  0  0  0  0  0  0  0
   40.8153   11.6229   10.5641 C   0  0  2  0  0  0  0  0  0  0  0  0
   38.9820   11.8102   12.1941 O   0  0  0  0  0  0  0  0  0  0  0  0
   43.8177   10.0845    9.6553 O   0  0  0  0  0  0  0  0  0  0  0  0
   39.7311   11.6306    9.5420 N   0  0  0  0  0  0  0  0  0  0  0  0
   41.0687   12.0714   12.9262 O   0  0  0  0  0  0  0  0  0  0  0  0
   43.5123   11.1375   11.5895 O   0  0  0  0  0  0  0  0  0  0  0  0
   40.7944   10.9089   11.8030 C   0  0  0  0  0  0  0  0  0  0  0  0
   38.9557   10.8691   10.1157 N   0  0  0  0  0  0  0  0  0  0  0  0
   42.0470   11.1418   10.9876 C   0  0  0  0  0  0  0  0  0  0  0  0
   39.5415   11.6151   11.2388 C   0  0  1  0  0  0  0  0  0  0  0  0
   42.2552   10.4541    9.7847 C   0  0  0  0  0  0  0  0  0  0  0  0
   43.0205   12.0509   11.4247 C   0  0  0  0  0  0  0  0  0  0  0  0
   38.4807   11.7713   12.3308 C   0  0  0  0  0  0  0  0  0  0  0  0
   43.4135   10.6675    9.0363 C   0  0  0  0  0  0  0  0  0  0  0  0
   44.1805   12.2618   10.6767 C   0  0  0  0  0  0  0  0  0  0  0  0
   44.3772   11.5693    9.4834 C   0  0  0  0  0  0  0  0  0  0  0  0
   41.3628   11.4597   11.3403 S   0  0  0  0  0  0  0  0  0  0  0  0
   40.8265   12.7869   11.5011 O   0  0  0  0  0  0  0  0  0  0  0  0
   42.2338   10.8250   12.2959 O   0  0  0  0  0  0  0  0  0  0  0  0
   40.1108   10.4926   11.0754 O   0  0  0  0  0  0  0  0  0  0  0  0
   42.1140   11.3864    9.9250 O   0  0  0  0  0  0  0  0  0  0  0  0
   41.7678   12.8611    9.8304 H   0  0  0  0  0  0  0  0  0  0  0  0
   41.3225   11.4117    8.9656 H   0  0  0  0  0  0  0  0  0  0  0  0
   43.7253    9.2585   10.7338 H   0  0  0  0  0  0  0  0  0  0  0  0
   42.1199    9.3579   11.0025 H   0  0  0  0  0  0  0  0  0  0  0  0
   43.1812   11.4312   11.4270 H   0  0  0  0  0  0  0  0  0  0  0  0
   41.1244   13.1553   12.2782 H   0  0  0  0  0  0  0  0  0  0  0  0
   39.5908    9.9421    9.8392 H   0  0  0  0  0  0  0  0  0  0  0  0
   43.9093   11.2782    8.4490 H   0  0  0  0  0  0  0  0  0  0  0  0
   45.0393   11.1201    9.8056 H   0  0  0  0  0  0  0  0  0  0  0  0
   44.2093   12.6555    9.5237 H   0  0  0  0  0  0  0  0  0  0  0  0
   39.2914   12.7905   13.8932 H   0  0  0  0  0  0  0  0  0  0  0  0
   37.7637    9.5917   11.4657 H   0  0  0  0  0  0  0  0  0  0  0  0
   37.6092   11.0115   13.4948 H   0  0  0  0  0  0  0  0  0  0  0  0
   39.6804   11.4638    9.7386 H   0  0  0  0  0  0  0  0  0  0  0  0
   40.0186    9.7644    9.9759 H   0  0  0  0  0  0  0  0  0  0  0  0
   38.1001    9.5266   11.3659 H   0  0  0  0  0  0  0  0  0  0  0  0
   37.6538   11.0909   11.2545 H   0  0  0  0  0  0  0  0  0  0  0  0
   40.1461   10.1500   12.4878 H   0  0  0  0  0  0  0  0  0  0  0  0
   41.5177   12.9271    9.3468 H   0  0  0  0  0  0  0  0  0  0  0  0
   42.2289    9.1541   11.3195 H   0  0  0  0  0  0  0  0  0  0  0  0
   39.2299   12.2872   13.4022 H   0  0  0  0  0  0  0  0  0  0  0  0
   40.7468   12.5516   12.5453 H   0  0  0  0  0  0  0  0  0  0  0  0
   39.2113   12.9850   11.7741 H   0  0  0  0  0  0  0  0  0  0  0  0
   44.6587    9.5782   11.2317 H   0  0  0  0  0  0  0  0  0  0  0  0
   43.9499   13.3307    9.2623 H   0  0  0  0  0  0  0  0  0  0  0  0
   45.5261   11.6625   10.2033 H   0  0  0  0  0  0  0  0  0  0  0  0
   41.3232    9.7394    9.5968 H   0  0  0  0  0  0  0  0  0  0  0  0
   41.3016    9.6261   11.3546 H   0  0  0  0  0  0  0  0  0  0  0  0
   41.4655   12.4803   10.3550 H   0  0  0  0  0  0  0  0  0  0  0  0
   39.0266   10.9427    9.8222 H   0  0  0  0  0  0  0  0  0  0  0  0
   39.2372   12.5233    9.6107 H   0  0  0  0  0  0  0  0  0  0  0  0
   40.5246   12.1969   13.7315 H   0  0  0  0  0  0  0  0  0  0  0  0
   44.4841   11.1594   11.4615 H   0  0  0  0  0  0  0  0  0  0  0  0
   40.6230    9.8281   11.9000 H   0  0  0  0  0  0  0  0  0  0  0  0
   40.9818   11.2604   12.8265 H   0  0  0  0  0  0  0  0  0  0  0  0
   38.1328   11.3622    9.7723 H   0  0  0  0  0  0  0  0  0  0  0  0
   38.6316    9.9581   10.4376 H   0  0  0  0  0  0  0  0  0  0  0  0
   39.8138   12.6147   10.8798 H   0  0  0  0  0  0  0  0  0  0  0  0
   41.5078    9.7526    9.4216 H   0  0  0  0  0  0  0  0  0  0  0  0
   42.8831   12.6020   12.3514 H   0  0  0  0  0  0  0  0  0  0  0  0
   37.5903   12.2806   11.9457 H   0  0  0  0  0  0  0  0  0  0  0  0
   38.1702   10.7995   12.7313 H   0  0  0  0  0  0  0  0  0  0  0  0
   38.8673   12.3708   13.1627 H   0  0  0  0  0  0  0  0  0  0  0  0
   43.5603   10.1317    8.1020 H   0  0  0  0  0  0  0  0  0  0  0  0
   44.9299   12.9669   11.0248 H   0  0  0  0  0  0  0  0  0  0  0  0
   45.2792   11.7343    8.9001 H   0  0  0  0  0  0  0  0  0  0  0  0
   39.4194   11.0262   10.6329 H   0  0  0  0  0  0  0  0  0  0  0  0
   42.7151   10.6133    9.9569 H   0  0  0  0  0  0  0  0  0  0  0  0
  4  2  1  0
  3  1  1  0
  4  1  1  0
  5  3  2  0
  6  3  1  0
  4  7  1  0
  8  5  1  0
  9  6  2  0
 10  8  2  0
  9 10  1  0
 12 14  1  0
 13 11  1  0
 14 11  1  0
 15 13  2  0
 16 13  1  0
 17 14  1  0
 18 16  2  0
 19 15  1  0
 20 18  1  0
 19 20  2  0
 22 24  1  0
 23 21  1  0
 24 21  1  0
 25 22  2  0
 26 23  2  0
 27 24  1  0
 28 22  1  0
 29 23  1  0
 33 31  1  0
 32 30  1  0
 33 30  1  0
 34 32  2  0
 35 32  1  0
 33 36  1  0
 37 34  1  0
 38 35  2  0
 39 37  2  0
 38 39  1  0
 41 40  2  0
 42 40  2  0
 43 40  1  0
 44 40  1  0
  1 45  1  0
  1 46  1  0
  2 47  1  0
  2 48  1  0
  4 49  1  1
  5 50  1  0
  6 51  1  0
  7 52  1  0
  7 53  1  0
  7 54  1  0
  8 55  1  0
  9 56  1  0
 10 57  1  0
 11 58  1  0
 11 59  1  0
 12 60  1  0
 12 61  1  0
 14 62  1  1
 15 63  1  0
 16 64  1  0
 17 65  1  0
 17 66  1  0
 17 67  1  0
 18 68  1  0
 19 69  1  0
 20 70  1  0
 21 71  1  0
 21 72  1  0
 24 73  1  6
 27 74  1  0
 27 75  1  0
 28 76  1  0
 29 77  1  0
 30 78  1  0
 30 79  1  0
 31 80  1  0
 31 81  1  0
 33 82  1  6
 34 83  1  0
 35 84  1  0
 36 85  1  0
 36 86  1  0
 36 87  1  0
 37 88  1  0
 38 89  1  0
 39 90  1  0
 43 91  1  0
 44 92  1  0
M  END
> <Uni-Dock RESULT> 
ENERGY=   -6.800  LOWER_BOUND=    5.541  UPPER_BOUND=    7.443
INTER + INTRA:          -6.800
INTER:                  -6.800
INTRA:                   0.000
UNBOUND:                 0.000

$$$$
