
     RDKit          3D

 92 90  0  0  0  0  0  0  0  0999 V2000
   45.5964    3.2641    9.8358 C   0  0  0  0  0  0  0  0  0  0  0  0
   45.5168    5.1519    8.2094 N   0  0  0  0  0  0  0  0  0  0  0  0
   44.7884    3.8861   10.9528 C   0  0  0  0  0  0  0  0  0  0  0  0
   45.1730    3.7411    8.4298 C   0  0  1  0  0  0  0  0  0  0  0  0
   45.3098    4.9503   11.7010 C   0  0  0  0  0  0  0  0  0  0  0  0
   43.5012    3.4156   11.2466 C   0  0  0  0  0  0  0  0  0  0  0  0
   45.8590    2.8992    7.3543 C   0  0  0  0  0  0  0  0  0  0  0  0
   44.5619    5.5251   12.7296 C   0  0  0  0  0  0  0  0  0  0  0  0
   42.7535    3.9933   12.2741 C   0  0  0  0  0  0  0  0  0  0  0  0
   43.2840    5.0478   13.0149 C   0  0  0  0  0  0  0  0  0  0  0  0
   44.5302    4.6723    8.9503 C   0  0  0  0  0  0  0  0  0  0  0  0
   45.9978    3.9595    7.1035 N   0  0  0  0  0  0  0  0  0  0  0  0
   44.3169    4.7458   10.4447 C   0  0  0  0  0  0  0  0  0  0  0  0
   45.7297    3.7943    8.5394 C   0  0  2  0  0  0  0  0  0  0  0  0
   45.1654    5.5235   11.2450 C   0  0  0  0  0  0  0  0  0  0  0  0
   43.2749    4.0334   11.0541 C   0  0  0  0  0  0  0  0  0  0  0  0
   45.4824    2.3104    8.8167 C   0  0  0  0  0  0  0  0  0  0  0  0
   43.0892    4.0939   12.4363 C   0  0  0  0  0  0  0  0  0  0  0  0
   44.9766    5.5831   12.6264 C   0  0  0  0  0  0  0  0  0  0  0  0
   43.9391    4.8689   13.2229 C   0  0  0  0  0  0  0  0  0  0  0  0
   43.8344    4.0442   10.6357 C   0  0  0  0  0  0  0  0  0  0  0  0
   45.4363    4.1348    8.7324 C   0  0  0  0  0  0  0  0  0  0  0  0
   44.0028    5.4975   10.9692 C   0  0  0  0  0  0  0  0  0  0  0  0
   45.1302    3.4682   10.0770 C   0  0  2  0  0  0  0  0  0  0  0  0
   44.9922    3.8010    7.6445 O   0  0  0  0  0  0  0  0  0  0  0  0
   43.5334    6.4346   10.3469 O   0  0  0  0  0  0  0  0  0  0  0  0
   45.0199    2.0017    9.8752 N   0  0  0  0  0  0  0  0  0  0  0  0
   46.2431    5.2094    8.8472 O   0  0  0  0  0  0  0  0  0  0  0  0
   44.7495    5.7000   12.0689 O   0  0  0  0  0  0  0  0  0  0  0  0
   45.3520    4.6639    9.1590 C   0  0  0  0  0  0  0  0  0  0  0  0
   43.9097    2.7423    8.4920 N   0  0  0  0  0  0  0  0  0  0  0  0
   44.8205    4.8812   10.5582 C   0  0  0  0  0  0  0  0  0  0  0  0
   45.2929    3.1907    8.7028 C   0  0  1  0  0  0  0  0  0  0  0  0
   45.6092    4.5710   11.6754 C   0  0  0  0  0  0  0  0  0  0  0  0
   43.5269    5.3836   10.7565 C   0  0  0  0  0  0  0  0  0  0  0  0
   46.0681    3.0038    7.4002 C   0  0  0  0  0  0  0  0  0  0  0  0
   45.1151    4.7645   12.9662 C   0  0  0  0  0  0  0  0  0  0  0  0
   43.0342    5.5758   12.0476 C   0  0  0  0  0  0  0  0  0  0  0  0
   43.8277    5.2654   13.1506 C   0  0  0  0  0  0  0  0  0  0  0  0
   44.6441    4.4817    9.8442 S   0  0  0  0  0  0  0  0  0  0  0  0
   43.3271    5.0003   10.1254 O   0  0  0  0  0  0  0  0  0  0  0  0
   45.3782    4.7765    8.6376 O   0  0  0  0  0  0  0  0  0  0  0  0
   45.5677    4.8356   11.1099 O   0  0  0  0  0  0  0  0  0  0  0  0
   44.5742    2.8825    9.9404 O   0  0  0  0  0  0  0  0  0  0  0  0
   45.4877    2.1731    9.9071 H   0  0  0  0  0  0  0  0  0  0  0  0
   46.6652    3.4614    9.9977 H   0  0  0  0  0  0  0  0  0  0  0  0
   45.1539    5.4529    7.3055 H   0  0  0  0  0  0  0  0  0  0  0  0
   45.0327    5.7197    8.9071 H   0  0  0  0  0  0  0  0  0  0  0  0
   44.0875    3.6316    8.3145 H   0  0  0  0  0  0  0  0  0  0  0  0
   46.3034    5.3377   11.4844 H   0  0  0  0  0  0  0  0  0  0  0  0
   43.0734    2.5946   10.6767 H   0  0  0  0  0  0  0  0  0  0  0  0
   45.5551    3.2154    6.3498 H   0  0  0  0  0  0  0  0  0  0  0  0
   46.9508    2.9806    7.4155 H   0  0  0  0  0  0  0  0  0  0  0  0
   45.5918    1.8423    7.4614 H   0  0  0  0  0  0  0  0  0  0  0  0
   44.9771    6.3464   13.3075 H   0  0  0  0  0  0  0  0  0  0  0  0
   41.7583    3.6168   12.4991 H   0  0  0  0  0  0  0  0  0  0  0  0
   42.7028    5.4976   13.8148 H   0  0  0  0  0  0  0  0  0  0  0  0
   43.6170    4.3134    8.4588 H   0  0  0  0  0  0  0  0  0  0  0  0
   44.6768    5.6997    8.5900 H   0  0  0  0  0  0  0  0  0  0  0  0
   46.8078    3.3972    6.8452 H   0  0  0  0  0  0  0  0  0  0  0  0
   46.2530    4.9283    6.9133 H   0  0  0  0  0  0  0  0  0  0  0  0
   46.6254    4.1062    9.0897 H   0  0  0  0  0  0  0  0  0  0  0  0
   45.9784    6.0900   10.7966 H   0  0  0  0  0  0  0  0  0  0  0  0
   42.6006    3.4245   10.4552 H   0  0  0  0  0  0  0  0  0  0  0  0
   45.3532    2.1260    9.8879 H   0  0  0  0  0  0  0  0  0  0  0  0
   46.3325    1.7005    8.4875 H   0  0  0  0  0  0  0  0  0  0  0  0
   44.5837    1.9539    8.3001 H   0  0  0  0  0  0  0  0  0  0  0  0
   42.2779    3.5387   12.8989 H   0  0  0  0  0  0  0  0  0  0  0  0
   45.6399    6.1878   13.2386 H   0  0  0  0  0  0  0  0  0  0  0  0
   43.7906    4.9198   14.2982 H   0  0  0  0  0  0  0  0  0  0  0  0
   43.5159    3.5218   11.5450 H   0  0  0  0  0  0  0  0  0  0  0  0
   43.0136    3.9560    9.9135 H   0  0  0  0  0  0  0  0  0  0  0  0
   45.9732    3.6413   10.7547 H   0  0  0  0  0  0  0  0  0  0  0  0
   44.4383    1.8297    9.0502 H   0  0  0  0  0  0  0  0  0  0  0  0
   44.5435    1.5703   10.6649 H   0  0  0  0  0  0  0  0  0  0  0  0
   46.3336    5.5353    7.9261 H   0  0  0  0  0  0  0  0  0  0  0  0
   44.7881    6.6764   12.1618 H   0  0  0  0  0  0  0  0  0  0  0  0
   44.8071    5.3041    8.4518 H   0  0  0  0  0  0  0  0  0  0  0  0
   46.3907    5.0205    9.1329 H   0  0  0  0  0  0  0  0  0  0  0  0
   43.3956    2.8396    9.3691 H   0  0  0  0  0  0  0  0  0  0  0  0
   43.9050    1.7474    8.2721 H   0  0  0  0  0  0  0  0  0  0  0  0
   45.7482    2.5506    9.4675 H   0  0  0  0  0  0  0  0  0  0  0  0
   46.6149    4.1785   11.5456 H   0  0  0  0  0  0  0  0  0  0  0  0
   42.8945    5.6226    9.9034 H   0  0  0  0  0  0  0  0  0  0  0  0
   46.0517    1.9563    7.0778 H   0  0  0  0  0  0  0  0  0  0  0  0
   45.6511    3.6143    6.5914 H   0  0  0  0  0  0  0  0  0  0  0  0
   47.1165    3.2928    7.5312 H   0  0  0  0  0  0  0  0  0  0  0  0
   45.7349    4.5268   13.8274 H   0  0  0  0  0  0  0  0  0  0  0  0
   42.0315    5.9689   12.1921 H   0  0  0  0  0  0  0  0  0  0  0  0
   43.4423    5.4133   14.1552 H   0  0  0  0  0  0  0  0  0  0  0  0
   45.0190    4.7327   11.9153 H   0  0  0  0  0  0  0  0  0  0  0  0
   45.0717    2.5319    9.1655 H   0  0  0  0  0  0  0  0  0  0  0  0
  4  2  1  0
  3  1  1  0
  4  1  1  0
  5  3  2  0
  6  3  1  0
  4  7  1  0
  8  5  1  0
  9  6  2  0
 10  8  2  0
  9 10  1  0
 12 14  1  0
 13 11  1  0
 14 11  1  0
 15 13  2  0
 16 13  1  0
 17 14  1  0
 18 16  2  0
 19 15  1  0
 20 18  1  0
 19 20  2  0
 22 24  1  0
 23 21  1  0
 24 21  1  0
 25 22  2  0
 26 23  2  0
 27 24  1  0
 28 22  1  0
 29 23  1  0
 33 31  1  0
 32 30  1  0
 33 30  1  0
 34 32  2  0
 35 32  1  0
 33 36  1  0
 37 34  1  0
 38 35  2  0
 39 37  2  0
 38 39  1  0
 41 40  2  0
 42 40  2  0
 43 40  1  0
 44 40  1  0
  1 45  1  0
  1 46  1  0
  2 47  1  0
  2 48  1  0
  4 49  1  1
  5 50  1  0
  6 51  1  0
  7 52  1  0
  7 53  1  0
  7 54  1  0
  8 55  1  0
  9 56  1  0
 10 57  1  0
 11 58  1  0
 11 59  1  0
 12 60  1  0
 12 61  1  0
 14 62  1  6
 15 63  1  0
 16 64  1  0
 17 65  1  0
 17 66  1  0
 17 67  1  0
 18 68  1  0
 19 69  1  0
 20 70  1  0
 21 71  1  0
 21 72  1  0
 24 73  1  6
 27 74  1  0
 27 75  1  0
 28 76  1  0
 29 77  1  0
 30 78  1  0
 30 79  1  0
 31 80  1  0
 31 81  1  0
 33 82  1  6
 34 83  1  0
 35 84  1  0
 36 85  1  0
 36 86  1  0
 36 87  1  0
 37 88  1  0
 38 89  1  0
 39 90  1  0
 43 91  1  0
 44 92  1  0
M  END
> <Uni-Dock RESULT> 
ENERGY=   -9.604  LOWER_BOUND=    0.000  UPPER_BOUND=    0.000
INTER + INTRA:          -9.604
INTER:                  -9.604
INTRA:                   0.000
UNBOUND:                 0.000

$$$$

     RDKit          3D

 92 90  0  0  0  0  0  0  0  0999 V2000
   44.5198    4.3168    9.0455 C   0  0  0  0  0  0  0  0  0  0  0  0
   44.6902    1.8622    9.4473 N   0  0  0  0  0  0  0  0  0  0  0  0
   44.3320    4.7733   10.4751 C   0  0  0  0  0  0  0  0  0  0  0  0
   45.3820    3.0429    8.9139 C   0  0  1  0  0  0  0  0  0  0  0  0
   43.1409    4.4970   11.1600 C   0  0  0  0  0  0  0  0  0  0  0  0
   45.3522    5.4677   11.1398 C   0  0  0  0  0  0  0  0  0  0  0  0
   45.7266    2.7839    7.4474 C   0  0  0  0  0  0  0  0  0  0  0  0
   42.9702    4.9164   12.4800 C   0  0  0  0  0  0  0  0  0  0  0  0
   45.1808    5.8843   12.4610 C   0  0  0  0  0  0  0  0  0  0  0  0
   43.9900    5.6083   13.1305 C   0  0  0  0  0  0  0  0  0  0  0  0
   45.2538    2.8419   10.1363 C   0  0  0  0  0  0  0  0  0  0  0  0
   45.3421    1.8512    7.8817 N   0  0  0  0  0  0  0  0  0  0  0  0
   44.6256    3.8738   11.0445 C   0  0  0  0  0  0  0  0  0  0  0  0
   44.8773    3.0145    8.6507 C   0  0  2  0  0  0  0  0  0  0  0  0
   43.2657    3.7932   11.3758 C   0  0  0  0  0  0  0  0  0  0  0  0
   45.3882    4.9293   11.5627 C   0  0  0  0  0  0  0  0  0  0  0  0
   45.4938    4.2744    8.0403 C   0  0  0  0  0  0  0  0  0  0  0  0
   44.8010    5.8875   12.3909 C   0  0  0  0  0  0  0  0  0  0  0  0
   42.6816    4.7518   12.2049 C   0  0  0  0  0  0  0  0  0  0  0  0
   43.4482    5.7990   12.7128 C   0  0  0  0  0  0  0  0  0  0  0  0
   45.1676    4.5569   11.0142 C   0  0  0  0  0  0  0  0  0  0  0  0
   44.8739    2.9502    9.1357 C   0  0  0  0  0  0  0  0  0  0  0  0
   44.3112    3.7600   11.9539 C   0  0  0  0  0  0  0  0  0  0  0  0
   44.6769    4.4028    9.5795 C   0  0  2  0  0  0  0  0  0  0  0  0
   45.8998    2.4682    8.6800 O   0  0  0  0  0  0  0  0  0  0  0  0
   44.6319    2.7255   12.5132 O   0  0  0  0  0  0  0  0  0  0  0  0
   45.4264    5.2949    8.6596 N   0  0  0  0  0  0  0  0  0  0  0  0
   43.7832    2.1834    9.3385 O   0  0  0  0  0  0  0  0  0  0  0  0
   43.0968    4.3043   12.1460 O   0  0  0  0  0  0  0  0  0  0  0  0
   44.5181    2.8938    9.7181 C   0  0  0  0  0  0  0  0  0  0  0  0
   46.7044    3.9384    9.1297 N   0  0  0  0  0  0  0  0  0  0  0  0
   44.1282    3.7975   10.8665 C   0  0  0  0  0  0  0  0  0  0  0  0
   45.3609    3.6043    8.6379 C   0  0  1  0  0  0  0  0  0  0  0  0
   43.0688    4.7059   10.7294 C   0  0  0  0  0  0  0  0  0  0  0  0
   44.8298    3.7477   12.0792 C   0  0  0  0  0  0  0  0  0  0  0  0
   45.5022    2.7177    7.4024 C   0  0  0  0  0  0  0  0  0  0  0  0
   42.7147    5.5449   11.7870 C   0  0  0  0  0  0  0  0  0  0  0  0
   44.4748    4.5877   13.1352 C   0  0  0  0  0  0  0  0  0  0  0  0
   43.4191    5.4856   12.9881 C   0  0  0  0  0  0  0  0  0  0  0  0
   44.7820    3.5925   10.3858 S   0  0  0  0  0  0  0  0  0  0  0  0
   45.4529    3.5931   11.6634 O   0  0  0  0  0  0  0  0  0  0  0  0
   44.7215    2.4435    9.5154 O   0  0  0  0  0  0  0  0  0  0  0  0
   43.2886    4.1270   10.6399 O   0  0  0  0  0  0  0  0  0  0  0  0
   45.3988    4.7827    9.5056 O   0  0  0  0  0  0  0  0  0  0  0  0
   44.9846    5.1403    8.4861 H   0  0  0  0  0  0  0  0  0  0  0  0
   43.5391    4.1618    8.5745 H   0  0  0  0  0  0  0  0  0  0  0  0
   45.3164    1.0584    9.4160 H   0  0  0  0  0  0  0  0  0  0  0  0
   44.4884    2.0200   10.4362 H   0  0  0  0  0  0  0  0  0  0  0  0
   46.3181    3.1718    9.4714 H   0  0  0  0  0  0  0  0  0  0  0  0
   42.3389    3.9513   10.6665 H   0  0  0  0  0  0  0  0  0  0  0  0
   46.2871    5.6893   10.6311 H   0  0  0  0  0  0  0  0  0  0  0  0
   46.3531    1.8911    7.3394 H   0  0  0  0  0  0  0  0  0  0  0  0
   44.8241    2.6356    6.8424 H   0  0  0  0  0  0  0  0  0  0  0  0
   46.2820    3.6285    7.0255 H   0  0  0  0  0  0  0  0  0  0  0  0
   42.0408    4.7018   13.0007 H   0  0  0  0  0  0  0  0  0  0  0  0
   45.9755    6.4285   12.9660 H   0  0  0  0  0  0  0  0  0  0  0  0
   43.8560    5.9325   14.1586 H   0  0  0  0  0  0  0  0  0  0  0  0
   46.3452    2.8572   10.2508 H   0  0  0  0  0  0  0  0  0  0  0  0
   44.9321    1.8537   10.4923 H   0  0  0  0  0  0  0  0  0  0  0  0
   45.0664    1.9600    6.9065 H   0  0  0  0  0  0  0  0  0  0  0  0
   44.8723    1.0106    8.2171 H   0  0  0  0  0  0  0  0  0  0  0  0
   43.7874    3.0758    8.5475 H   0  0  0  0  0  0  0  0  0  0  0  0
   42.6527    2.9814   10.9911 H   0  0  0  0  0  0  0  0  0  0  0  0
   46.4464    5.0133   11.3231 H   0  0  0  0  0  0  0  0  0  0  0  0
   45.1160    5.1762    8.5324 H   0  0  0  0  0  0  0  0  0  0  0  0
   45.2416    4.3613    6.9764 H   0  0  0  0  0  0  0  0  0  0  0  0
   46.5858    4.2684    8.1348 H   0  0  0  0  0  0  0  0  0  0  0  0
   45.4012    6.7014   12.7882 H   0  0  0  0  0  0  0  0  0  0  0  0
   41.6268    4.6817   12.4553 H   0  0  0  0  0  0  0  0  0  0  0  0
   42.9931    6.5422   13.3620 H   0  0  0  0  0  0  0  0  0  0  0  0
   45.1476    5.6029   11.3408 H   0  0  0  0  0  0  0  0  0  0  0  0
   46.2022    4.2092   11.1224 H   0  0  0  0  0  0  0  0  0  0  0  0
   43.6156    4.6573    9.4872 H   0  0  0  0  0  0  0  0  0  0  0  0
   46.3617    4.9032    8.5169 H   0  0  0  0  0  0  0  0  0  0  0  0
   45.5542    6.2125    9.0820 H   0  0  0  0  0  0  0  0  0  0  0  0
   44.0598    1.2941    9.0299 H   0  0  0  0  0  0  0  0  0  0  0  0
   42.6458    3.6854   12.7599 H   0  0  0  0  0  0  0  0  0  0  0  0
   45.0539    2.0153   10.1029 H   0  0  0  0  0  0  0  0  0  0  0  0
   43.5958    2.4987    9.2708 H   0  0  0  0  0  0  0  0  0  0  0  0
   46.6142    4.5543    9.9392 H   0  0  0  0  0  0  0  0  0  0  0  0
   47.2014    4.4762    8.4211 H   0  0  0  0  0  0  0  0  0  0  0  0
   44.8645    4.5345    8.3373 H   0  0  0  0  0  0  0  0  0  0  0  0
   42.5117    4.7632    9.7975 H   0  0  0  0  0  0  0  0  0  0  0  0
   45.6611    3.0563   12.2040 H   0  0  0  0  0  0  0  0  0  0  0  0
   46.0807    3.2211    6.6192 H   0  0  0  0  0  0  0  0  0  0  0  0
   46.0029    1.7723    7.6393 H   0  0  0  0  0  0  0  0  0  0  0  0
   44.5180    2.4795    6.9846 H   0  0  0  0  0  0  0  0  0  0  0  0
   41.8884    6.2427   11.6748 H   0  0  0  0  0  0  0  0  0  0  0  0
   45.0219    4.5399   14.0729 H   0  0  0  0  0  0  0  0  0  0  0  0
   43.1452    6.1405   13.8101 H   0  0  0  0  0  0  0  0  0  0  0  0
   43.3383    4.8359   11.3147 H   0  0  0  0  0  0  0  0  0  0  0  0
   45.5465    4.4175    8.6025 H   0  0  0  0  0  0  0  0  0  0  0  0
  4  2  1  0
  3  1  1  0
  4  1  1  0
  5  3  2  0
  6  3  1  0
  4  7  1  0
  8  5  1  0
  9  6  2  0
 10  8  2  0
  9 10  1  0
 12 14  1  0
 13 11  1  0
 14 11  1  0
 15 13  2  0
 16 13  1  0
 17 14  1  0
 18 16  2  0
 19 15  1  0
 20 18  1  0
 19 20  2  0
 22 24  1  0
 23 21  1  0
 24 21  1  0
 25 22  2  0
 26 23  2  0
 27 24  1  0
 28 22  1  0
 29 23  1  0
 33 31  1  0
 32 30  1  0
 33 30  1  0
 34 32  2  0
 35 32  1  0
 33 36  1  0
 37 34  1  0
 38 35  2  0
 39 37  2  0
 38 39  1  0
 41 40  2  0
 42 40  2  0
 43 40  1  0
 44 40  1  0
  1 45  1  0
  1 46  1  0
  2 47  1  0
  2 48  1  0
  4 49  1  1
  5 50  1  0
  6 51  1  0
  7 52  1  0
  7 53  1  0
  7 54  1  0
  8 55  1  0
  9 56  1  0
 10 57  1  0
 11 58  1  0
 11 59  1  0
 12 60  1  0
 12 61  1  0
 14 62  1  6
 15 63  1  0
 16 64  1  0
 17 65  1  0
 17 66  1  0
 17 67  1  0
 18 68  1  0
 19 69  1  0
 20 70  1  0
 21 71  1  0
 21 72  1  0
 24 73  1  6
 27 74  1  0
 27 75  1  0
 28 76  1  0
 29 77  1  0
 30 78  1  0
 30 79  1  0
 31 80  1  0
 31 81  1  0
 33 82  1  6
 34 83  1  0
 35 84  1  0
 36 85  1  0
 36 86  1  0
 36 87  1  0
 37 88  1  0
 38 89  1  0
 39 90  1  0
 43 91  1  0
 44 92  1  0
M  END
> <Uni-Dock RESULT> 
ENERGY=   -9.470  LOWER_BOUND=    0.946  UPPER_BOUND=    2.246
INTER + INTRA:          -9.470
INTER:                  -9.470
INTRA:                   0.000
UNBOUND:                 0.000

$$$$

     RDKit          3D

 92 90  0  0  0  0  0  0  0  0999 V2000
   46.3111    6.5026   13.1048 C   0  0  0  0  0  0  0  0  0  0  0  0
   45.2695    8.7165   12.6261 N   0  0  0  0  0  0  0  0  0  0  0  0
   45.3028    5.6164   12.4080 C   0  0  0  0  0  0  0  0  0  0  0  0
   46.4704    7.8901   12.4467 C   0  0  1  0  0  0  0  0  0  0  0  0
   44.0114    5.4607   12.9299 C   0  0  0  0  0  0  0  0  0  0  0  0
   45.6415    4.9489   11.2230 C   0  0  0  0  0  0  0  0  0  0  0  0
   47.6647    8.6298   13.0490 C   0  0  0  0  0  0  0  0  0  0  0  0
   43.0812    4.6449   12.2843 C   0  0  0  0  0  0  0  0  0  0  0  0
   44.7091    4.1352   10.5772 C   0  0  0  0  0  0  0  0  0  0  0  0
   43.4294    3.9838   11.1080 C   0  0  0  0  0  0  0  0  0  0  0  0
   45.4237    7.6929   11.8010 C   0  0  0  0  0  0  0  0  0  0  0  0
   46.8004    9.3076   13.0540 N   0  0  0  0  0  0  0  0  0  0  0  0
   44.7431    6.3435   11.7935 C   0  0  0  0  0  0  0  0  0  0  0  0
   46.3625    7.9051   13.0061 C   0  0  2  0  0  0  0  0  0  0  0  0
   43.6825    6.0790   12.6714 C   0  0  0  0  0  0  0  0  0  0  0  0
   45.1649    5.3348   10.9166 C   0  0  0  0  0  0  0  0  0  0  0  0
   47.6038    7.0140   12.9364 C   0  0  0  0  0  0  0  0  0  0  0  0
   44.5419    4.0856   10.9218 C   0  0  0  0  0  0  0  0  0  0  0  0
   43.0607    4.8297   12.6735 C   0  0  0  0  0  0  0  0  0  0  0  0
   43.4895    3.8326   11.7993 C   0  0  0  0  0  0  0  0  0  0  0  0
   45.3144    5.8079   11.4086 C   0  0  0  0  0  0  0  0  0  0  0  0
   45.9801    7.8209   12.7128 C   0  0  0  0  0  0  0  0  0  0  0  0
   43.8498    6.1243   11.4888 C   0  0  0  0  0  0  0  0  0  0  0  0
   46.0372    6.2913   12.6603 C   0  0  2  0  0  0  0  0  0  0  0  0
   46.7458    8.5907   12.1528 O   0  0  0  0  0  0  0  0  0  0  0  0
   43.2670    6.9858   10.8533 O   0  0  0  0  0  0  0  0  0  0  0  0
   47.4578    5.8606   12.6570 N   0  0  0  0  0  0  0  0  0  0  0  0
   44.9346    8.2862   13.4264 O   0  0  0  0  0  0  0  0  0  0  0  0
   43.1911    5.3409   12.3607 O   0  0  0  0  0  0  0  0  0  0  0  0
   45.3241    7.6377   12.6412 C   0  0  0  0  0  0  0  0  0  0  0  0
   47.3851    7.2208   11.3010 N   0  0  0  0  0  0  0  0  0  0  0  0
   44.5601    6.3795   12.2936 C   0  0  0  0  0  0  0  0  0  0  0  0
   46.8550    7.4416   12.6533 C   0  0  1  0  0  0  0  0  0  0  0  0
   44.3596    5.3796   13.2561 C   0  0  0  0  0  0  0  0  0  0  0  0
   44.0536    6.1908   11.0002 C   0  0  0  0  0  0  0  0  0  0  0  0
   47.5451    8.6654   13.2520 C   0  0  0  0  0  0  0  0  0  0  0  0
   43.6612    4.2156   12.9323 C   0  0  0  0  0  0  0  0  0  0  0  0
   43.3562    5.0261   10.6780 C   0  0  0  0  0  0  0  0  0  0  0  0
   43.1615    4.0397   11.6432 C   0  0  0  0  0  0  0  0  0  0  0  0
   45.2239    6.8307   12.0560 S   0  0  0  0  0  0  0  0  0  0  0  0
   44.6688    6.5700   10.7497 O   0  0  0  0  0  0  0  0  0  0  0  0
   45.4371    8.1564   12.5837 O   0  0  0  0  0  0  0  0  0  0  0  0
   44.3542    5.9885   13.1118 O   0  0  0  0  0  0  0  0  0  0  0  0
   46.6407    6.0850   12.1464 O   0  0  0  0  0  0  0  0  0  0  0  0
   47.2768    5.9787   13.1070 H   0  0  0  0  0  0  0  0  0  0  0  0
   46.0375    6.6136   14.1632 H   0  0  0  0  0  0  0  0  0  0  0  0
   45.3793    9.5912   12.1142 H   0  0  0  0  0  0  0  0  0  0  0  0
   44.4761    8.2389   12.1949 H   0  0  0  0  0  0  0  0  0  0  0  0
   46.6452    7.7700   11.3703 H   0  0  0  0  0  0  0  0  0  0  0  0
   43.7237    5.9766   13.8439 H   0  0  0  0  0  0  0  0  0  0  0  0
   46.6354    5.0582   10.7962 H   0  0  0  0  0  0  0  0  0  0  0  0
   47.8008    9.6109   12.5797 H   0  0  0  0  0  0  0  0  0  0  0  0
   47.5377    8.7882   14.1266 H   0  0  0  0  0  0  0  0  0  0  0  0
   48.5885    8.0613   12.8969 H   0  0  0  0  0  0  0  0  0  0  0  0
   42.0841    4.5264   12.6998 H   0  0  0  0  0  0  0  0  0  0  0  0
   44.9835    3.6159    9.6619 H   0  0  0  0  0  0  0  0  0  0  0  0
   42.7034    3.3505   10.6060 H   0  0  0  0  0  0  0  0  0  0  0  0
   45.9769    7.8385   10.8645 H   0  0  0  0  0  0  0  0  0  0  0  0
   44.6346    8.4572   11.8013 H   0  0  0  0  0  0  0  0  0  0  0  0
   47.3986    9.4460   13.8676 H   0  0  0  0  0  0  0  0  0  0  0  0
   45.9914    9.9131   13.1906 H   0  0  0  0  0  0  0  0  0  0  0  0
   45.8282    7.6846   13.9378 H   0  0  0  0  0  0  0  0  0  0  0  0
   43.3325    6.8460   13.3584 H   0  0  0  0  0  0  0  0  0  0  0  0
   45.9841    5.5152   10.2234 H   0  0  0  0  0  0  0  0  0  0  0  0
   47.3311    5.9546   12.9760 H   0  0  0  0  0  0  0  0  0  0  0  0
   48.2737    7.2035   13.7840 H   0  0  0  0  0  0  0  0  0  0  0  0
   48.1649    7.1856   12.0104 H   0  0  0  0  0  0  0  0  0  0  0  0
   44.8758    3.3106   10.2373 H   0  0  0  0  0  0  0  0  0  0  0  0
   42.2402    4.6337   13.3581 H   0  0  0  0  0  0  0  0  0  0  0  0
   43.0014    2.8617   11.7990 H   0  0  0  0  0  0  0  0  0  0  0  0
   45.4209    4.7260   11.2697 H   0  0  0  0  0  0  0  0  0  0  0  0
   45.7146    6.2859   10.5061 H   0  0  0  0  0  0  0  0  0  0  0  0
   45.5777    5.8913   13.5706 H   0  0  0  0  0  0  0  0  0  0  0  0
   47.9708    6.4367   11.9835 H   0  0  0  0  0  0  0  0  0  0  0  0
   47.5351    4.8970   12.3373 H   0  0  0  0  0  0  0  0  0  0  0  0
   45.0174    9.2615   13.3567 H   0  0  0  0  0  0  0  0  0  0  0  0
   42.2633    5.6590   12.3228 H   0  0  0  0  0  0  0  0  0  0  0  0
   45.0485    8.4428   11.9466 H   0  0  0  0  0  0  0  0  0  0  0  0
   44.9844    7.9773   13.6292 H   0  0  0  0  0  0  0  0  0  0  0  0
   46.9462    6.3865   10.9082 H   0  0  0  0  0  0  0  0  0  0  0  0
   48.3815    7.0149   11.3561 H   0  0  0  0  0  0  0  0  0  0  0  0
   47.1090    6.5699   13.2678 H   0  0  0  0  0  0  0  0  0  0  0  0
   44.7450    5.5036   14.2652 H   0  0  0  0  0  0  0  0  0  0  0  0
   44.2055    6.9502   10.2353 H   0  0  0  0  0  0  0  0  0  0  0  0
   48.6322    8.5284   13.2862 H   0  0  0  0  0  0  0  0  0  0  0  0
   47.3354    9.5710   12.6719 H   0  0  0  0  0  0  0  0  0  0  0  0
   47.2016    8.8380   14.2777 H   0  0  0  0  0  0  0  0  0  0  0  0
   43.5050    3.4474   13.6857 H   0  0  0  0  0  0  0  0  0  0  0  0
   42.9639    4.8897    9.6738 H   0  0  0  0  0  0  0  0  0  0  0  0
   42.6205    3.1326   11.3906 H   0  0  0  0  0  0  0  0  0  0  0  0
   44.1280    5.1318   12.6931 H   0  0  0  0  0  0  0  0  0  0  0  0
   47.2682    6.7221   12.5602 H   0  0  0  0  0  0  0  0  0  0  0  0
  4  2  1  0
  3  1  1  0
  4  1  1  0
  5  3  2  0
  6  3  1  0
  4  7  1  0
  8  5  1  0
  9  6  2  0
 10  8  2  0
  9 10  1  0
 12 14  1  0
 13 11  1  0
 14 11  1  0
 15 13  2  0
 16 13  1  0
 17 14  1  0
 18 16  2  0
 19 15  1  0
 20 18  1  0
 19 20  2  0
 22 24  1  0
 23 21  1  0
 24 21  1  0
 25 22  2  0
 26 23  2  0
 27 24  1  0
 28 22  1  0
 29 23  1  0
 33 31  1  0
 32 30  1  0
 33 30  1  0
 34 32  2  0
 35 32  1  0
 33 36  1  0
 37 34  1  0
 38 35  2  0
 39 37  2  0
 38 39  1  0
 41 40  2  0
 42 40  2  0
 43 40  1  0
 44 40  1  0
  1 45  1  0
  1 46  1  0
  2 47  1  0
  2 48  1  0
  4 49  1  1
  5 50  1  0
  6 51  1  0
  7 52  1  0
  7 53  1  0
  7 54  1  0
  8 55  1  0
  9 56  1  0
 10 57  1  0
 11 58  1  0
 11 59  1  0
 12 60  1  0
 12 61  1  0
 14 62  1  6
 15 63  1  0
 16 64  1  0
 17 65  1  0
 17 66  1  0
 17 67  1  0
 18 68  1  0
 19 69  1  0
 20 70  1  0
 21 71  1  0
 21 72  1  0
 24 73  1  6
 27 74  1  0
 27 75  1  0
 28 76  1  0
 29 77  1  0
 30 78  1  0
 30 79  1  0
 31 80  1  0
 31 81  1  0
 33 82  1  6
 34 83  1  0
 35 84  1  0
 36 85  1  0
 36 86  1  0
 36 87  1  0
 37 88  1  0
 38 89  1  0
 39 90  1  0
 43 91  1  0
 44 92  1  0
M  END
> <Uni-Dock RESULT> 
ENERGY=   -9.390  LOWER_BOUND=    2.413  UPPER_BOUND=    4.248
INTER + INTRA:          -9.390
INTER:                  -9.390
INTRA:                   0.000
UNBOUND:                 0.000

$$$$

     RDKit          3D

 92 90  0  0  0  0  0  0  0  0999 V2000
   45.1635    6.9935   13.0326 C   0  0  0  0  0  0  0  0  0  0  0  0
   44.4190    8.3006   11.0445 N   0  0  0  0  0  0  0  0  0  0  0  0
   44.7622    5.6121   12.5655 C   0  0  0  0  0  0  0  0  0  0  0  0
   45.5702    7.9389   11.8818 C   0  0  1  0  0  0  0  0  0  0  0  0
   43.4094    5.2603   12.4633 C   0  0  0  0  0  0  0  0  0  0  0  0
   45.7377    4.6685   12.2154 C   0  0  0  0  0  0  0  0  0  0  0  0
   46.1876    9.2208   12.4404 C   0  0  0  0  0  0  0  0  0  0  0  0
   43.0406    3.9862   12.0294 C   0  0  0  0  0  0  0  0  0  0  0  0
   45.3670    3.3953   11.7792 C   0  0  0  0  0  0  0  0  0  0  0  0
   44.0188    3.0549   11.6863 C   0  0  0  0  0  0  0  0  0  0  0  0
   45.0654    7.1456   11.0651 C   0  0  0  0  0  0  0  0  0  0  0  0
   45.4220    9.4988   11.7036 N   0  0  0  0  0  0  0  0  0  0  0  0
   44.5877    5.7753   11.4873 C   0  0  0  0  0  0  0  0  0  0  0  0
   45.1721    8.1496   12.2309 C   0  0  2  0  0  0  0  0  0  0  0  0
   43.2384    5.5601   11.8013 C   0  0  0  0  0  0  0  0  0  0  0  0
   45.4846    4.7022   11.5791 C   0  0  0  0  0  0  0  0  0  0  0  0
   46.3007    7.7933   13.1998 C   0  0  0  0  0  0  0  0  0  0  0  0
   45.0416    3.4412   11.9819 C   0  0  0  0  0  0  0  0  0  0  0  0
   42.7981    4.2981   12.2025 C   0  0  0  0  0  0  0  0  0  0  0  0
   43.6986    3.2383   12.2930 C   0  0  0  0  0  0  0  0  0  0  0  0
   45.3089    5.3577   11.7458 C   0  0  0  0  0  0  0  0  0  0  0  0
   45.0199    7.8255   11.8975 C   0  0  0  0  0  0  0  0  0  0  0  0
   44.0247    5.1588   10.9956 C   0  0  0  0  0  0  0  0  0  0  0  0
   45.1929    6.5359   12.7056 C   0  0  2  0  0  0  0  0  0  0  0  0
   45.9169    8.4988   11.4135 O   0  0  0  0  0  0  0  0  0  0  0  0
   43.8339    5.4185    9.8200 O   0  0  0  0  0  0  0  0  0  0  0  0
   46.4054    6.6559   13.5535 N   0  0  0  0  0  0  0  0  0  0  0  0
   43.7274    8.1604   11.7076 O   0  0  0  0  0  0  0  0  0  0  0  0
   43.0463    4.6413   11.7589 O   0  0  0  0  0  0  0  0  0  0  0  0
   44.5243    7.4179   11.6583 C   0  0  0  0  0  0  0  0  0  0  0  0
   47.0040    7.2065   11.8120 N   0  0  0  0  0  0  0  0  0  0  0  0
   44.1582    5.9532   11.7496 C   0  0  0  0  0  0  0  0  0  0  0  0
   45.8054    7.7793   12.4394 C   0  0  1  0  0  0  0  0  0  0  0  0
   43.5254    5.4476   12.8943 C   0  0  0  0  0  0  0  0  0  0  0  0
   44.4588    5.0791   10.6957 C   0  0  0  0  0  0  0  0  0  0  0  0
   45.9742    9.2952   12.5159 C   0  0  0  0  0  0  0  0  0  0  0  0
   43.1949    4.0945   12.9808 C   0  0  0  0  0  0  0  0  0  0  0  0
   44.1283    3.7265   10.7842 C   0  0  0  0  0  0  0  0  0  0  0  0
   43.4980    3.2353   11.9261 C   0  0  0  0  0  0  0  0  0  0  0  0
   44.8133    6.4591   11.6250 S   0  0  0  0  0  0  0  0  0  0  0  0
   45.0850    5.5025   10.5793 O   0  0  0  0  0  0  0  0  0  0  0  0
   44.6173    7.8686   11.3875 O   0  0  0  0  0  0  0  0  0  0  0  0
   43.5617    5.8975   12.4608 O   0  0  0  0  0  0  0  0  0  0  0  0
   45.9911    6.3522   12.7080 O   0  0  0  0  0  0  0  0  0  0  0  0
   45.9999    6.8825   13.7364 H   0  0  0  0  0  0  0  0  0  0  0  0
   44.3470    7.4379   13.6185 H   0  0  0  0  0  0  0  0  0  0  0  0
   44.7366    8.8591   10.2530 H   0  0  0  0  0  0  0  0  0  0  0  0
   44.0250    7.4476   10.6435 H   0  0  0  0  0  0  0  0  0  0  0  0
   46.3149    7.4456   11.2448 H   0  0  0  0  0  0  0  0  0  0  0  0
   42.6349    5.9801   12.7213 H   0  0  0  0  0  0  0  0  0  0  0  0
   46.7933    4.9197   12.2814 H   0  0  0  0  0  0  0  0  0  0  0  0
   46.4970    9.8956   11.6340 H   0  0  0  0  0  0  0  0  0  0  0  0
   45.4797    9.7631   13.0785 H   0  0  0  0  0  0  0  0  0  0  0  0
   47.0767    8.9932   13.0383 H   0  0  0  0  0  0  0  0  0  0  0  0
   41.9891    3.7214   11.9586 H   0  0  0  0  0  0  0  0  0  0  0  0
   46.1314    2.6677   11.5163 H   0  0  0  0  0  0  0  0  0  0  0  0
   43.7298    2.0641   11.3472 H   0  0  0  0  0  0  0  0  0  0  0  0
   46.0317    7.0634   10.5514 H   0  0  0  0  0  0  0  0  0  0  0  0
   44.3596    7.5200   10.3111 H   0  0  0  0  0  0  0  0  0  0  0  0
   45.4645   10.1605   12.4777 H   0  0  0  0  0  0  0  0  0  0  0  0
   44.6347    9.7901   11.1246 H   0  0  0  0  0  0  0  0  0  0  0  0
   44.2288    8.1732   12.7895 H   0  0  0  0  0  0  0  0  0  0  0  0
   42.5209    6.3746   11.7334 H   0  0  0  0  0  0  0  0  0  0  0  0
   46.5366    4.8421   11.3384 H   0  0  0  0  0  0  0  0  0  0  0  0
   46.1186    6.8257   13.6782 H   0  0  0  0  0  0  0  0  0  0  0  0
   46.3811    8.5366   14.0024 H   0  0  0  0  0  0  0  0  0  0  0  0
   47.2661    7.7401   12.6833 H   0  0  0  0  0  0  0  0  0  0  0  0
   45.7448    2.6156   12.0490 H   0  0  0  0  0  0  0  0  0  0  0  0
   41.7507    4.1411   12.4447 H   0  0  0  0  0  0  0  0  0  0  0  0
   43.3534    2.2551   12.6013 H   0  0  0  0  0  0  0  0  0  0  0  0
   45.5423    4.4254   12.2726 H   0  0  0  0  0  0  0  0  0  0  0  0
   46.1081    5.5173   11.0116 H   0  0  0  0  0  0  0  0  0  0  0  0
   44.3351    6.4250   13.3777 H   0  0  0  0  0  0  0  0  0  0  0  0
   47.1664    7.0327   12.9813 H   0  0  0  0  0  0  0  0  0  0  0  0
   46.7063    5.7374   13.8735 H   0  0  0  0  0  0  0  0  0  0  0  0
   43.7731    8.9799   11.1699 H   0  0  0  0  0  0  0  0  0  0  0  0
   42.2741    4.5771   11.1564 H   0  0  0  0  0  0  0  0  0  0  0  0
   44.6255    7.7098   10.6041 H   0  0  0  0  0  0  0  0  0  0  0  0
   43.6770    8.0025   12.0417 H   0  0  0  0  0  0  0  0  0  0  0  0
   46.9069    6.1902   11.7848 H   0  0  0  0  0  0  0  0  0  0  0  0
   47.8169    7.3957   12.3966 H   0  0  0  0  0  0  0  0  0  0  0  0
   45.7344    7.3903   13.4620 H   0  0  0  0  0  0  0  0  0  0  0  0
   43.2842    6.1068   13.7247 H   0  0  0  0  0  0  0  0  0  0  0  0
   44.9577    5.4487    9.8017 H   0  0  0  0  0  0  0  0  0  0  0  0
   46.8697    9.5645   13.0878 H   0  0  0  0  0  0  0  0  0  0  0  0
   46.0610    9.7422   11.5192 H   0  0  0  0  0  0  0  0  0  0  0  0
   45.1135    9.7539   13.0145 H   0  0  0  0  0  0  0  0  0  0  0  0
   42.6992    3.7112   13.8694 H   0  0  0  0  0  0  0  0  0  0  0  0
   44.3619    3.0566    9.9610 H   0  0  0  0  0  0  0  0  0  0  0  0
   43.2433    2.1818   11.9948 H   0  0  0  0  0  0  0  0  0  0  0  0
   43.6574    4.9240   12.5196 H   0  0  0  0  0  0  0  0  0  0  0  0
   46.2462    7.2756   12.9385 H   0  0  0  0  0  0  0  0  0  0  0  0
  4  2  1  0
  3  1  1  0
  4  1  1  0
  5  3  2  0
  6  3  1  0
  4  7  1  0
  8  5  1  0
  9  6  2  0
 10  8  2  0
  9 10  1  0
 12 14  1  0
 13 11  1  0
 14 11  1  0
 15 13  2  0
 16 13  1  0
 17 14  1  0
 18 16  2  0
 19 15  1  0
 20 18  1  0
 19 20  2  0
 22 24  1  0
 23 21  1  0
 24 21  1  0
 25 22  2  0
 26 23  2  0
 27 24  1  0
 28 22  1  0
 29 23  1  0
 33 31  1  0
 32 30  1  0
 33 30  1  0
 34 32  2  0
 35 32  1  0
 33 36  1  0
 37 34  1  0
 38 35  2  0
 39 37  2  0
 38 39  1  0
 41 40  2  0
 42 40  2  0
 43 40  1  0
 44 40  1  0
  1 45  1  0
  1 46  1  0
  2 47  1  0
  2 48  1  0
  4 49  1  1
  5 50  1  0
  6 51  1  0
  7 52  1  0
  7 53  1  0
  7 54  1  0
  8 55  1  0
  9 56  1  0
 10 57  1  0
 11 58  1  0
 11 59  1  0
 12 60  1  0
 12 61  1  0
 14 62  1  6
 15 63  1  0
 16 64  1  0
 17 65  1  0
 17 66  1  0
 17 67  1  0
 18 68  1  0
 19 69  1  0
 20 70  1  0
 21 71  1  0
 21 72  1  0
 24 73  1  6
 27 74  1  0
 27 75  1  0
 28 76  1  0
 29 77  1  0
 30 78  1  0
 30 79  1  0
 31 80  1  0
 31 81  1  0
 33 82  1  6
 34 83  1  0
 35 84  1  0
 36 85  1  0
 36 86  1  0
 36 87  1  0
 37 88  1  0
 38 89  1  0
 39 90  1  0
 43 91  1  0
 44 92  1  0
M  END
> <Uni-Dock RESULT> 
ENERGY=   -9.026  LOWER_BOUND=    2.352  UPPER_BOUND=    4.090
INTER + INTRA:          -9.026
INTER:                  -9.026
INTRA:                   0.000
UNBOUND:                 0.000

$$$$

     RDKit          3D

 92 90  0  0  0  0  0  0  0  0999 V2000
   45.5199    7.5126   11.4362 C   0  0  0  0  0  0  0  0  0  0  0  0
   47.4234    6.8507   12.9037 N   0  0  0  0  0  0  0  0  0  0  0  0
   44.7026    6.2435   11.5299 C   0  0  0  0  0  0  0  0  0  0  0  0
   46.3339    7.8168   12.7123 C   0  0  1  0  0  0  0  0  0  0  0  0
   45.1517    5.0614   10.9256 C   0  0  0  0  0  0  0  0  0  0  0  0
   43.4907    6.2284   12.2340 C   0  0  0  0  0  0  0  0  0  0  0  0
   46.9352    9.2200   12.6369 C   0  0  0  0  0  0  0  0  0  0  0  0
   44.3978    3.8904   11.0154 C   0  0  0  0  0  0  0  0  0  0  0  0
   42.7391    5.0557   12.3249 C   0  0  0  0  0  0  0  0  0  0  0  0
   43.1930    3.8873   11.7158 C   0  0  0  0  0  0  0  0  0  0  0  0
   46.1304    6.6532   13.1073 C   0  0  0  0  0  0  0  0  0  0  0  0
   47.7303    8.5185   12.9235 N   0  0  0  0  0  0  0  0  0  0  0  0
   45.1665    5.7342   12.3930 C   0  0  0  0  0  0  0  0  0  0  0  0
   46.6400    7.8160   12.2316 C   0  0  2  0  0  0  0  0  0  0  0  0
   45.6338    4.8175   11.4408 C   0  0  0  0  0  0  0  0  0  0  0  0
   43.7925    5.7885   12.6645 C   0  0  0  0  0  0  0  0  0  0  0  0
   45.5377    8.8283   11.9154 C   0  0  0  0  0  0  0  0  0  0  0  0
   42.9040    4.9466   11.9932 C   0  0  0  0  0  0  0  0  0  0  0  0
   44.7435    3.9763   10.7721 C   0  0  0  0  0  0  0  0  0  0  0  0
   43.3788    4.0400   11.0475 C   0  0  0  0  0  0  0  0  0  0  0  0
   44.3859    6.1125   12.4881 C   0  0  0  0  0  0  0  0  0  0  0  0
   46.5283    7.3783   12.4192 C   0  0  0  0  0  0  0  0  0  0  0  0
   45.0671    4.7755   12.4922 C   0  0  0  0  0  0  0  0  0  0  0  0
   45.2014    7.1278   11.6963 C   0  0  2  0  0  0  0  0  0  0  0  0
   46.7130    8.1653   13.3350 O   0  0  0  0  0  0  0  0  0  0  0  0
   45.6400    4.2661   13.4398 O   0  0  0  0  0  0  0  0  0  0  0  0
   44.4720    8.4141   11.5657 N   0  0  0  0  0  0  0  0  0  0  0  0
   47.5277    6.5879   11.9776 O   0  0  0  0  0  0  0  0  0  0  0  0
   44.9915    4.1449   11.3071 O   0  0  0  0  0  0  0  0  0  0  0  0
   46.5088    6.6972   12.3498 C   0  0  0  0  0  0  0  0  0  0  0  0
   44.9911    8.3639   13.4157 N   0  0  0  0  0  0  0  0  0  0  0  0
   45.4814    5.6544   11.9695 C   0  0  0  0  0  0  0  0  0  0  0  0
   45.9557    8.1380   12.3307 C   0  0  1  0  0  0  0  0  0  0  0  0
   45.1489    5.4401   10.6242 C   0  0  0  0  0  0  0  0  0  0  0  0
   44.8384    4.8972   12.9587 C   0  0  0  0  0  0  0  0  0  0  0  0
   47.0924    9.1480   12.4730 C   0  0  0  0  0  0  0  0  0  0  0  0
   44.1951    4.4830   10.2748 C   0  0  0  0  0  0  0  0  0  0  0  0
   43.8847    3.9413   12.6077 C   0  0  0  0  0  0  0  0  0  0  0  0
   43.5633    3.7357   11.2671 C   0  0  0  0  0  0  0  0  0  0  0  0
   45.5775    6.3393   12.4410 S   0  0  0  0  0  0  0  0  0  0  0  0
   44.8803    5.5191   13.4021 O   0  0  0  0  0  0  0  0  0  0  0  0
   46.8889    6.8963   12.6677 O   0  0  0  0  0  0  0  0  0  0  0  0
   45.5941    5.5268   11.0553 O   0  0  0  0  0  0  0  0  0  0  0  0
   44.6284    7.5778   12.0706 O   0  0  0  0  0  0  0  0  0  0  0  0
   44.8317    8.3431   11.2269 H   0  0  0  0  0  0  0  0  0  0  0  0
   46.1866    7.4601   10.5642 H   0  0  0  0  0  0  0  0  0  0  0  0
   47.8881    7.0341   13.7924 H   0  0  0  0  0  0  0  0  0  0  0  0
   47.0209    5.9155   12.9875 H   0  0  0  0  0  0  0  0  0  0  0  0
   45.6765    7.7690   13.5893 H   0  0  0  0  0  0  0  0  0  0  0  0
   46.0941    5.0477   10.3815 H   0  0  0  0  0  0  0  0  0  0  0  0
   43.1242    7.1316   12.7155 H   0  0  0  0  0  0  0  0  0  0  0  0
   47.5028    9.4570   13.5441 H   0  0  0  0  0  0  0  0  0  0  0  0
   47.6132    9.3215   11.7811 H   0  0  0  0  0  0  0  0  0  0  0  0
   46.1470    9.9738   12.5357 H   0  0  0  0  0  0  0  0  0  0  0  0
   44.7520    2.9803   10.5389 H   0  0  0  0  0  0  0  0  0  0  0  0
   41.7967    5.0556   12.8676 H   0  0  0  0  0  0  0  0  0  0  0  0
   42.6084    2.9744   11.7860 H   0  0  0  0  0  0  0  0  0  0  0  0
   45.6657    7.0470   14.0201 H   0  0  0  0  0  0  0  0  0  0  0  0
   46.9767    6.0401   13.4460 H   0  0  0  0  0  0  0  0  0  0  0  0
   48.0795    9.2682   12.3278 H   0  0  0  0  0  0  0  0  0  0  0  0
   48.5129    7.8798   13.0636 H   0  0  0  0  0  0  0  0  0  0  0  0
   47.0346    7.4251   11.2862 H   0  0  0  0  0  0  0  0  0  0  0  0
   46.6957    4.7516   11.2151 H   0  0  0  0  0  0  0  0  0  0  0  0
   43.4043    6.4891   13.4010 H   0  0  0  0  0  0  0  0  0  0  0  0
   44.7352    8.3672   11.3308 H   0  0  0  0  0  0  0  0  0  0  0  0
   45.9276    9.6631   11.3203 H   0  0  0  0  0  0  0  0  0  0  0  0
   45.0979    9.2366   12.8327 H   0  0  0  0  0  0  0  0  0  0  0  0
   41.8408    4.9959   12.2116 H   0  0  0  0  0  0  0  0  0  0  0  0
   45.1149    3.2697   10.0351 H   0  0  0  0  0  0  0  0  0  0  0  0
   42.6872    3.3812   10.5293 H   0  0  0  0  0  0  0  0  0  0  0  0
   43.3821    5.9808   12.0683 H   0  0  0  0  0  0  0  0  0  0  0  0
   44.2564    6.4291   13.5302 H   0  0  0  0  0  0  0  0  0  0  0  0
   45.4155    6.7705   10.6833 H   0  0  0  0  0  0  0  0  0  0  0  0
   44.5049    8.8995   12.4667 H   0  0  0  0  0  0  0  0  0  0  0  0
   43.4893    8.2448   11.3596 H   0  0  0  0  0  0  0  0  0  0  0  0
   48.2940    6.8441   12.5343 H   0  0  0  0  0  0  0  0  0  0  0  0
   45.4799    3.3048   11.4455 H   0  0  0  0  0  0  0  0  0  0  0  0
   46.9272    6.4626   13.3380 H   0  0  0  0  0  0  0  0  0  0  0  0
   47.3513    6.6125   11.6499 H   0  0  0  0  0  0  0  0  0  0  0  0
   44.2153    7.7087   13.3073 H   0  0  0  0  0  0  0  0  0  0  0  0
   44.5877    9.2951   13.3230 H   0  0  0  0  0  0  0  0  0  0  0  0
   45.4488    8.3245   11.3767 H   0  0  0  0  0  0  0  0  0  0  0  0
   45.6335    6.0169    9.8402 H   0  0  0  0  0  0  0  0  0  0  0  0
   45.0750    5.0536   14.0096 H   0  0  0  0  0  0  0  0  0  0  0  0
   46.7137   10.1761   12.4386 H   0  0  0  0  0  0  0  0  0  0  0  0
   47.6328    9.0169   13.4171 H   0  0  0  0  0  0  0  0  0  0  0  0
   47.8133    9.0340   11.6562 H   0  0  0  0  0  0  0  0  0  0  0  0
   43.9469    4.3188    9.2291 H   0  0  0  0  0  0  0  0  0  0  0  0
   43.3937    3.3564   13.3808 H   0  0  0  0  0  0  0  0  0  0  0  0
   42.8191    2.9929   10.9953 H   0  0  0  0  0  0  0  0  0  0  0  0
   44.7325    5.0677   10.9706 H   0  0  0  0  0  0  0  0  0  0  0  0
   45.1998    8.3806   12.0724 H   0  0  0  0  0  0  0  0  0  0  0  0
  4  2  1  0
  3  1  1  0
  4  1  1  0
  5  3  2  0
  6  3  1  0
  4  7  1  0
  8  5  1  0
  9  6  2  0
 10  8  2  0
  9 10  1  0
 12 14  1  0
 13 11  1  0
 14 11  1  0
 15 13  2  0
 16 13  1  0
 17 14  1  0
 18 16  2  0
 19 15  1  0
 20 18  1  0
 19 20  2  0
 22 24  1  0
 23 21  1  0
 24 21  1  0
 25 22  2  0
 26 23  2  0
 27 24  1  0
 28 22  1  0
 29 23  1  0
 33 31  1  0
 32 30  1  0
 33 30  1  0
 34 32  2  0
 35 32  1  0
 33 36  1  0
 37 34  1  0
 38 35  2  0
 39 37  2  0
 38 39  1  0
 41 40  2  0
 42 40  2  0
 43 40  1  0
 44 40  1  0
  1 45  1  0
  1 46  1  0
  2 47  1  0
  2 48  1  0
  4 49  1  1
  5 50  1  0
  6 51  1  0
  7 52  1  0
  7 53  1  0
  7 54  1  0
  8 55  1  0
  9 56  1  0
 10 57  1  0
 11 58  1  0
 11 59  1  0
 12 60  1  0
 12 61  1  0
 14 62  1  6
 15 63  1  0
 16 64  1  0
 17 65  1  0
 17 66  1  0
 17 67  1  0
 18 68  1  0
 19 69  1  0
 20 70  1  0
 21 71  1  0
 21 72  1  0
 24 73  1  6
 27 74  1  0
 27 75  1  0
 28 76  1  0
 29 77  1  0
 30 78  1  0
 30 79  1  0
 31 80  1  0
 31 81  1  0
 33 82  1  6
 34 83  1  0
 35 84  1  0
 36 85  1  0
 36 86  1  0
 36 87  1  0
 37 88  1  0
 38 89  1  0
 39 90  1  0
 43 91  1  0
 44 92  1  0
M  END
> <Uni-Dock RESULT> 
ENERGY=   -8.807  LOWER_BOUND=    2.474  UPPER_BOUND=    4.358
INTER + INTRA:          -8.807
INTER:                  -8.807
INTRA:                   0.000
UNBOUND:                 0.000

$$$$

     RDKit          3D

 92 90  0  0  0  0  0  0  0  0999 V2000
   50.0664    4.3750   19.6339 C   0  0  0  0  0  0  0  0  0  0  0  0
   48.3378    4.8972   21.3527 N   0  0  0  0  0  0  0  0  0  0  0  0
   49.1809    4.3721   18.4078 C   0  0  0  0  0  0  0  0  0  0  0  0
   49.5915    5.3479   20.7345 C   0  0  1  0  0  0  0  0  0  0  0  0
   48.2418    3.3507   18.2104 C   0  0  0  0  0  0  0  0  0  0  0  0
   49.2776    5.3986   17.4582 C   0  0  0  0  0  0  0  0  0  0  0  0
   50.6541    5.4750   21.8258 C   0  0  0  0  0  0  0  0  0  0  0  0
   47.4234    3.3510   17.0799 C   0  0  0  0  0  0  0  0  0  0  0  0
   48.4565    5.3987   16.3293 C   0  0  0  0  0  0  0  0  0  0  0  0
   47.5298    4.3751   16.1408 C   0  0  0  0  0  0  0  0  0  0  0  0
   48.4917    5.4469   20.1584 C   0  0  0  0  0  0  0  0  0  0  0  0
   49.6864    5.2797   22.3072 N   0  0  0  0  0  0  0  0  0  0  0  0
   48.2642    4.8592   18.7848 C   0  0  0  0  0  0  0  0  0  0  0  0
   49.6783    4.8137   20.9131 C   0  0  2  0  0  0  0  0  0  0  0  0
   47.6830    3.5913   18.6430 C   0  0  0  0  0  0  0  0  0  0  0  0
   48.6366    5.5668   17.6337 C   0  0  0  0  0  0  0  0  0  0  0  0
   51.0237    5.1688   20.2777 C   0  0  0  0  0  0  0  0  0  0  0  0
   48.4364    5.0149   16.3672 C   0  0  0  0  0  0  0  0  0  0  0  0
   47.4829    3.0426   17.3756 C   0  0  0  0  0  0  0  0  0  0  0  0
   47.8592    3.7533   16.2374 C   0  0  0  0  0  0  0  0  0  0  0  0
   48.8008    5.3046   18.2602 C   0  0  0  0  0  0  0  0  0  0  0  0
   49.2607    4.8977   20.6726 C   0  0  0  0  0  0  0  0  0  0  0  0
   47.4229    4.7141   18.3266 C   0  0  0  0  0  0  0  0  0  0  0  0
   49.7317    4.6065   19.2445 C   0  0  2  0  0  0  0  0  0  0  0  0
   49.5396    5.8843   21.3367 O   0  0  0  0  0  0  0  0  0  0  0  0
   46.4400    5.2420   18.8175 O   0  0  0  0  0  0  0  0  0  0  0  0
   51.1286    5.0843   19.0896 N   0  0  0  0  0  0  0  0  0  0  0  0
   48.4291    3.9531   21.1573 O   0  0  0  0  0  0  0  0  0  0  0  0
   47.3487    3.4922   17.7704 O   0  0  0  0  0  0  0  0  0  0  0  0
   48.7004    4.6515   20.3652 C   0  0  0  0  0  0  0  0  0  0  0  0
   50.2188    6.5729   19.8961 N   0  0  0  0  0  0  0  0  0  0  0  0
   48.2577    4.3518   18.9504 C   0  0  0  0  0  0  0  0  0  0  0  0
   50.1343    5.2157   20.4523 C   0  0  1  0  0  0  0  0  0  0  0  0
   48.6871    3.1847   18.3023 C   0  0  0  0  0  0  0  0  0  0  0  0
   47.4226    5.2440   18.2635 C   0  0  0  0  0  0  0  0  0  0  0  0
   50.6048    5.2556   21.9047 C   0  0  0  0  0  0  0  0  0  0  0  0
   48.2844    2.9128   16.9940 C   0  0  0  0  0  0  0  0  0  0  0  0
   47.0215    4.9709   16.9554 C   0  0  0  0  0  0  0  0  0  0  0  0
   47.4532    3.8069   16.3218 C   0  0  0  0  0  0  0  0  0  0  0  0
   48.6445    4.9374   19.4066 S   0  0  0  0  0  0  0  0  0  0  0  0
   47.7821    5.8042   18.6403 O   0  0  0  0  0  0  0  0  0  0  0  0
   48.6341    4.8705   20.8477 O   0  0  0  0  0  0  0  0  0  0  0  0
   48.4596    3.4535   18.8196 O   0  0  0  0  0  0  0  0  0  0  0  0
   50.1596    5.2565   18.9891 O   0  0  0  0  0  0  0  0  0  0  0  0
   51.0836    4.6413   19.3154 H   0  0  0  0  0  0  0  0  0  0  0  0
   50.1448    3.3555   20.0363 H   0  0  0  0  0  0  0  0  0  0  0  0
   48.0142    5.6000   22.0165 H   0  0  0  0  0  0  0  0  0  0  0  0
   47.6174    4.8434   20.6304 H   0  0  0  0  0  0  0  0  0  0  0  0
   49.4211    6.3410   20.3006 H   0  0  0  0  0  0  0  0  0  0  0  0
   48.1431    2.5485   18.9392 H   0  0  0  0  0  0  0  0  0  0  0  0
   49.9949    6.2045   17.5921 H   0  0  0  0  0  0  0  0  0  0  0  0
   50.3381    6.1760   22.6069 H   0  0  0  0  0  0  0  0  0  0  0  0
   50.8569    4.5093   22.3040 H   0  0  0  0  0  0  0  0  0  0  0  0
   51.5947    5.8501   21.4081 H   0  0  0  0  0  0  0  0  0  0  0  0
   46.7020    2.5516   16.9333 H   0  0  0  0  0  0  0  0  0  0  0  0
   48.5438    6.1958   15.5947 H   0  0  0  0  0  0  0  0  0  0  0  0
   46.8907    4.3745   15.2624 H   0  0  0  0  0  0  0  0  0  0  0  0
   48.6318    6.5327   20.0827 H   0  0  0  0  0  0  0  0  0  0  0  0
   47.5651    5.3067   20.7316 H   0  0  0  0  0  0  0  0  0  0  0  0
   50.4569    4.8366   22.8061 H   0  0  0  0  0  0  0  0  0  0  0  0
   48.8330    4.9737   22.7742 H   0  0  0  0  0  0  0  0  0  0  0  0
   49.5749    3.7222   20.9210 H   0  0  0  0  0  0  0  0  0  0  0  0
   47.3803    3.0235   19.5198 H   0  0  0  0  0  0  0  0  0  0  0  0
   49.0872    6.5539   17.7161 H   0  0  0  0  0  0  0  0  0  0  0  0
   51.0952    4.7733   19.2595 H   0  0  0  0  0  0  0  0  0  0  0  0
   51.8554    4.7367   20.8475 H   0  0  0  0  0  0  0  0  0  0  0  0
   51.1671    6.2545   20.2309 H   0  0  0  0  0  0  0  0  0  0  0  0
   48.7278    5.5720   15.4810 H   0  0  0  0  0  0  0  0  0  0  0  0
   47.0327    2.0588   17.2757 H   0  0  0  0  0  0  0  0  0  0  0  0
   47.6987    3.3266   15.2509 H   0  0  0  0  0  0  0  0  0  0  0  0
   49.1590    5.2153   17.2283 H   0  0  0  0  0  0  0  0  0  0  0  0
   48.7200    6.3766   18.4778 H   0  0  0  0  0  0  0  0  0  0  0  0
   49.7395    3.5219   19.0917 H   0  0  0  0  0  0  0  0  0  0  0  0
   51.1980    6.0229   19.4929 H   0  0  0  0  0  0  0  0  0  0  0  0
   51.3662    5.1707   18.1033 H   0  0  0  0  0  0  0  0  0  0  0  0
   48.2011    4.2782   22.0546 H   0  0  0  0  0  0  0  0  0  0  0  0
   46.4124    3.2243   17.8928 H   0  0  0  0  0  0  0  0  0  0  0  0
   47.9894    5.3430   20.8376 H   0  0  0  0  0  0  0  0  0  0  0  0
   48.6303    3.7214   20.9454 H   0  0  0  0  0  0  0  0  0  0  0  0
   49.9316    6.5450   18.9164 H   0  0  0  0  0  0  0  0  0  0  0  0
   51.1905    6.8799   19.8956 H   0  0  0  0  0  0  0  0  0  0  0  0
   50.8180    4.5706   19.8881 H   0  0  0  0  0  0  0  0  0  0  0  0
   49.3365    2.4793   18.8149 H   0  0  0  0  0  0  0  0  0  0  0  0
   47.0848    6.1601   18.7445 H   0  0  0  0  0  0  0  0  0  0  0  0
   51.6310    5.6342   21.9771 H   0  0  0  0  0  0  0  0  0  0  0  0
   49.9627    5.8964   22.5194 H   0  0  0  0  0  0  0  0  0  0  0  0
   50.5918    4.2512   22.3415 H   0  0  0  0  0  0  0  0  0  0  0  0
   48.6170    2.0030   16.5003 H   0  0  0  0  0  0  0  0  0  0  0  0
   46.3712    5.6663   16.4316 H   0  0  0  0  0  0  0  0  0  0  0  0
   47.1422    3.5966   15.3027 H   0  0  0  0  0  0  0  0  0  0  0  0
   48.3609    3.5295   17.8476 H   0  0  0  0  0  0  0  0  0  0  0  0
   50.6796    5.2959   19.8252 H   0  0  0  0  0  0  0  0  0  0  0  0
  4  2  1  0
  3  1  1  0
  4  1  1  0
  5  3  2  0
  6  3  1  0
  4  7  1  0
  8  5  1  0
  9  6  2  0
 10  8  2  0
  9 10  1  0
 12 14  1  0
 13 11  1  0
 14 11  1  0
 15 13  2  0
 16 13  1  0
 17 14  1  0
 18 16  2  0
 19 15  1  0
 20 18  1  0
 19 20  2  0
 22 24  1  0
 23 21  1  0
 24 21  1  0
 25 22  2  0
 26 23  2  0
 27 24  1  0
 28 22  1  0
 29 23  1  0
 33 31  1  0
 32 30  1  0
 33 30  1  0
 34 32  2  0
 35 32  1  0
 33 36  1  0
 37 34  1  0
 38 35  2  0
 39 37  2  0
 38 39  1  0
 41 40  2  0
 42 40  2  0
 43 40  1  0
 44 40  1  0
  1 45  1  0
  1 46  1  0
  2 47  1  0
  2 48  1  0
  4 49  1  1
  5 50  1  0
  6 51  1  0
  7 52  1  0
  7 53  1  0
  7 54  1  0
  8 55  1  0
  9 56  1  0
 10 57  1  0
 11 58  1  0
 11 59  1  0
 12 60  1  0
 12 61  1  0
 14 62  1  6
 15 63  1  0
 16 64  1  0
 17 65  1  0
 17 66  1  0
 17 67  1  0
 18 68  1  0
 19 69  1  0
 20 70  1  0
 21 71  1  0
 21 72  1  0
 24 73  1  6
 27 74  1  0
 27 75  1  0
 28 76  1  0
 29 77  1  0
 30 78  1  0
 30 79  1  0
 31 80  1  0
 31 81  1  0
 33 82  1  6
 34 83  1  0
 35 84  1  0
 36 85  1  0
 36 86  1  0
 36 87  1  0
 37 88  1  0
 38 89  1  0
 39 90  1  0
 43 91  1  0
 44 92  1  0
M  END
> <Uni-Dock RESULT> 
ENERGY=   -7.804  LOWER_BOUND=    8.045  UPPER_BOUND=   10.340
INTER + INTRA:          -7.804
INTER:                  -7.804
INTRA:                   0.000
UNBOUND:                 0.000

$$$$

     RDKit          3D

 92 90  0  0  0  0  0  0  0  0999 V2000
   44.4644    4.6999   12.9909 C   0  0  0  0  0  0  0  0  0  0  0  0
   45.3372    3.5764   10.9437 N   0  0  0  0  0  0  0  0  0  0  0  0
   45.2739    5.9754   12.9185 C   0  0  0  0  0  0  0  0  0  0  0  0
   44.1357    4.0995   11.6071 C   0  0  1  0  0  0  0  0  0  0  0  0
   46.6557    5.9556   13.1519 C   0  0  0  0  0  0  0  0  0  0  0  0
   44.6556    7.1933   12.6037 C   0  0  0  0  0  0  0  0  0  0  0  0
   43.1237    2.9627   11.7480 C   0  0  0  0  0  0  0  0  0  0  0  0
   47.4019    7.1329   13.0819 C   0  0  0  0  0  0  0  0  0  0  0  0
   45.4038    8.3695   12.5317 C   0  0  0  0  0  0  0  0  0  0  0  0
   46.7765    8.3387   12.7706 C   0  0  0  0  0  0  0  0  0  0  0  0
   44.9899    4.8452   11.0918 C   0  0  0  0  0  0  0  0  0  0  0  0
   43.9568    2.6082   11.1263 N   0  0  0  0  0  0  0  0  0  0  0  0
   45.6574    5.9462   11.8833 C   0  0  0  0  0  0  0  0  0  0  0  0
   44.3794    3.7347   11.9708 C   0  0  2  0  0  0  0  0  0  0  0  0
   46.9052    5.7310   12.4850 C   0  0  0  0  0  0  0  0  0  0  0  0
   45.0379    7.1943   12.0347 C   0  0  0  0  0  0  0  0  0  0  0  0
   43.1667    4.2254   12.7635 C   0  0  0  0  0  0  0  0  0  0  0  0
   45.6520    8.2044   12.7773 C   0  0  0  0  0  0  0  0  0  0  0  0
   47.5173    6.7430   13.2257 C   0  0  0  0  0  0  0  0  0  0  0  0
   46.8917    7.9797   13.3724 C   0  0  0  0  0  0  0  0  0  0  0  0
   45.0122    6.4979   12.0854 C   0  0  0  0  0  0  0  0  0  0  0  0
   44.6773    4.0541   11.7505 C   0  0  0  0  0  0  0  0  0  0  0  0
   46.4482    6.4560   11.6520 C   0  0  0  0  0  0  0  0  0  0  0  0
   44.6205    5.1945   12.7713 C   0  0  2  0  0  0  0  0  0  0  0  0
   43.7905    3.7385   10.9718 O   0  0  0  0  0  0  0  0  0  0  0  0
   46.8478    6.3466   10.5056 O   0  0  0  0  0  0  0  0  0  0  0  0
   43.2471    5.2758   13.3289 N   0  0  0  0  0  0  0  0  0  0  0  0
   45.8642    3.4137   11.7396 O   0  0  0  0  0  0  0  0  0  0  0  0
   47.3092    6.5567   12.6797 O   0  0  0  0  0  0  0  0  0  0  0  0
   45.2962    4.3436   11.7031 C   0  0  0  0  0  0  0  0  0  0  0  0
   42.9695    5.1973   11.4287 N   0  0  0  0  0  0  0  0  0  0  0  0
   45.9589    5.6179   12.1769 C   0  0  0  0  0  0  0  0  0  0  0  0
   43.8182    4.2255   12.1315 C   0  0  1  0  0  0  0  0  0  0  0  0
   46.4004    5.7404   13.5022 C   0  0  0  0  0  0  0  0  0  0  0  0
   46.1286    6.6986   11.3002 C   0  0  0  0  0  0  0  0  0  0  0  0
   43.2897    2.8217   11.8444 C   0  0  0  0  0  0  0  0  0  0  0  0
   47.0048    6.9194   13.9406 C   0  0  0  0  0  0  0  0  0  0  0  0
   46.7324    7.8768   11.7403 C   0  0  0  0  0  0  0  0  0  0  0  0
   47.1689    7.9867   13.0594 C   0  0  0  0  0  0  0  0  0  0  0  0
   45.2535    5.3372   11.8244 S   0  0  0  0  0  0  0  0  0  0  0  0
   45.4675    6.4868   10.9788 O   0  0  0  0  0  0  0  0  0  0  0  0
   45.1685    3.9851   11.3285 O   0  0  0  0  0  0  0  0  0  0  0  0
   46.3651    5.3934   12.9827 O   0  0  0  0  0  0  0  0  0  0  0  0
   43.9095    5.5865   12.6630 O   0  0  0  0  0  0  0  0  0  0  0  0
   43.5336    4.9206   13.5314 H   0  0  0  0  0  0  0  0  0  0  0  0
   44.9922    3.9610   13.6098 H   0  0  0  0  0  0  0  0  0  0  0  0
   45.0967    3.2608   10.0046 H   0  0  0  0  0  0  0  0  0  0  0  0
   46.0017    4.3421   10.8187 H   0  0  0  0  0  0  0  0  0  0  0  0
   43.6991    4.8733   10.9635 H   0  0  0  0  0  0  0  0  0  0  0  0
   47.1582    5.0198   13.3890 H   0  0  0  0  0  0  0  0  0  0  0  0
   43.5860    7.2329   12.4136 H   0  0  0  0  0  0  0  0  0  0  0  0
   42.8675    2.5369   10.7711 H   0  0  0  0  0  0  0  0  0  0  0  0
   43.5140    2.1523   12.3752 H   0  0  0  0  0  0  0  0  0  0  0  0
   42.1953    3.3254   12.2024 H   0  0  0  0  0  0  0  0  0  0  0  0
   48.4719    7.1080   13.2696 H   0  0  0  0  0  0  0  0  0  0  0  0
   44.9139    9.3108   12.2935 H   0  0  0  0  0  0  0  0  0  0  0  0
   47.3592    9.2538   12.7149 H   0  0  0  0  0  0  0  0  0  0  0  0
   44.2198    5.2698   10.4355 H   0  0  0  0  0  0  0  0  0  0  0  0
   45.7484    4.4183   10.4215 H   0  0  0  0  0  0  0  0  0  0  0  0
   43.5792    1.8679   11.7164 H   0  0  0  0  0  0  0  0  0  0  0  0
   44.7698    2.2098   10.6569 H   0  0  0  0  0  0  0  0  0  0  0  0
   45.1307    3.3647   12.6786 H   0  0  0  0  0  0  0  0  0  0  0  0
   47.4096    4.7733   12.3787 H   0  0  0  0  0  0  0  0  0  0  0  0
   44.0705    7.3880   11.5756 H   0  0  0  0  0  0  0  0  0  0  0  0
   43.4486    5.0163   13.4657 H   0  0  0  0  0  0  0  0  0  0  0  0
   42.7277    3.4133   13.3560 H   0  0  0  0  0  0  0  0  0  0  0  0
   42.3913    4.6227   12.0982 H   0  0  0  0  0  0  0  0  0  0  0  0
   45.1639    9.1688   12.8879 H   0  0  0  0  0  0  0  0  0  0  0  0
   48.4840    6.5666   13.6892 H   0  0  0  0  0  0  0  0  0  0  0  0
   47.3716    8.7683   13.9458 H   0  0  0  0  0  0  0  0  0  0  0  0
   44.8826    7.3612   12.7480 H   0  0  0  0  0  0  0  0  0  0  0  0
   44.3962    6.6829   11.1969 H   0  0  0  0  0  0  0  0  0  0  0  0
   45.2953    4.9572   13.6008 H   0  0  0  0  0  0  0  0  0  0  0  0
   42.5782    5.2185   12.5557 H   0  0  0  0  0  0  0  0  0  0  0  0
   43.0998    6.1778   13.7778 H   0  0  0  0  0  0  0  0  0  0  0  0
   45.7593    2.7354   11.0383 H   0  0  0  0  0  0  0  0  0  0  0  0
   48.1959    6.5033   12.2621 H   0  0  0  0  0  0  0  0  0  0  0  0
   45.3840    4.2639   10.6110 H   0  0  0  0  0  0  0  0  0  0  0  0
   45.8688    3.4959   12.1033 H   0  0  0  0  0  0  0  0  0  0  0  0
   43.3029    6.1389   11.6412 H   0  0  0  0  0  0  0  0  0  0  0  0
   42.0198    5.1460   11.7945 H   0  0  0  0  0  0  0  0  0  0  0  0
   43.7318    4.4106   13.2087 H   0  0  0  0  0  0  0  0  0  0  0  0
   46.2777    4.9159   14.2003 H   0  0  0  0  0  0  0  0  0  0  0  0
   45.7851    6.6281   10.2697 H   0  0  0  0  0  0  0  0  0  0  0  0
   42.2465    2.7191   12.1650 H   0  0  0  0  0  0  0  0  0  0  0  0
   43.3415    2.5817   10.7765 H   0  0  0  0  0  0  0  0  0  0  0  0
   43.8768    2.0712   12.3848 H   0  0  0  0  0  0  0  0  0  0  0  0
   47.3497    7.0046   14.9683 H   0  0  0  0  0  0  0  0  0  0  0  0
   46.8631    8.7083   11.0530 H   0  0  0  0  0  0  0  0  0  0  0  0
   47.6367    8.9051   13.4015 H   0  0  0  0  0  0  0  0  0  0  0  0
   46.4863    6.3333   13.2319 H   0  0  0  0  0  0  0  0  0  0  0  0
   43.4002    4.7435   12.6356 H   0  0  0  0  0  0  0  0  0  0  0  0
  4  2  1  0
  3  1  1  0
  4  1  1  0
  5  3  2  0
  6  3  1  0
  4  7  1  0
  8  5  1  0
  9  6  2  0
 10  8  2  0
  9 10  1  0
 12 14  1  0
 13 11  1  0
 14 11  1  0
 15 13  2  0
 16 13  1  0
 17 14  1  0
 18 16  2  0
 19 15  1  0
 20 18  1  0
 19 20  2  0
 22 24  1  0
 23 21  1  0
 24 21  1  0
 25 22  2  0
 26 23  2  0
 27 24  1  0
 28 22  1  0
 29 23  1  0
 33 31  1  0
 32 30  1  0
 33 30  1  0
 34 32  2  0
 35 32  1  0
 33 36  1  0
 37 34  1  0
 38 35  2  0
 39 37  2  0
 38 39  1  0
 41 40  2  0
 42 40  2  0
 43 40  1  0
 44 40  1  0
  1 45  1  0
  1 46  1  0
  2 47  1  0
  2 48  1  0
  4 49  1  1
  5 50  1  0
  6 51  1  0
  7 52  1  0
  7 53  1  0
  7 54  1  0
  8 55  1  0
  9 56  1  0
 10 57  1  0
 11 58  1  0
 11 59  1  0
 12 60  1  0
 12 61  1  0
 14 62  1  6
 15 63  1  0
 16 64  1  0
 17 65  1  0
 17 66  1  0
 17 67  1  0
 18 68  1  0
 19 69  1  0
 20 70  1  0
 21 71  1  0
 21 72  1  0
 24 73  1  6
 27 74  1  0
 27 75  1  0
 28 76  1  0
 29 77  1  0
 30 78  1  0
 30 79  1  0
 31 80  1  0
 31 81  1  0
 33 82  1  6
 34 83  1  0
 35 84  1  0
 36 85  1  0
 36 86  1  0
 36 87  1  0
 37 88  1  0
 38 89  1  0
 39 90  1  0
 43 91  1  0
 44 92  1  0
M  END
> <Uni-Dock RESULT> 
ENERGY=   -7.775  LOWER_BOUND=    2.064  UPPER_BOUND=    3.591
INTER + INTRA:          -7.775
INTER:                  -7.775
INTRA:                   0.000
UNBOUND:                 0.000

$$$$

     RDKit          3D

 92 90  0  0  0  0  0  0  0  0999 V2000
   44.5407    6.1412   11.2477 C   0  0  0  0  0  0  0  0  0  0  0  0
   44.0400    4.9608   13.3857 N   0  0  0  0  0  0  0  0  0  0  0  0
   45.7193    6.9687   11.7102 C   0  0  0  0  0  0  0  0  0  0  0  0
   44.4156    4.7861   11.9766 C   0  0  1  0  0  0  0  0  0  0  0  0
   45.5354    8.0315   12.6050 C   0  0  0  0  0  0  0  0  0  0  0  0
   47.0142    6.6755   11.2606 C   0  0  0  0  0  0  0  0  0  0  0  0
   43.3617    3.9125   11.2967 C   0  0  0  0  0  0  0  0  0  0  0  0
   46.6243    8.7923   13.0330 C   0  0  0  0  0  0  0  0  0  0  0  0
   48.1025    7.4359   11.6917 C   0  0  0  0  0  0  0  0  0  0  0  0
   47.9071    8.4938   12.5778 C   0  0  0  0  0  0  0  0  0  0  0  0
   45.2233    5.1854   12.8365 C   0  0  0  0  0  0  0  0  0  0  0  0
   43.1584    3.9218   12.3761 N   0  0  0  0  0  0  0  0  0  0  0  0
   45.9819    6.4814   12.6658 C   0  0  0  0  0  0  0  0  0  0  0  0
   43.9415    5.1021   11.9830 C   0  0  2  0  0  0  0  0  0  0  0  0
   45.5090    7.6629   13.2537 C   0  0  0  0  0  0  0  0  0  0  0  0
   47.1631    6.5245   11.9125 C   0  0  0  0  0  0  0  0  0  0  0  0
   44.2477    5.0022   10.4877 C   0  0  0  0  0  0  0  0  0  0  0  0
   47.8538    7.7262   11.7467 C   0  0  0  0  0  0  0  0  0  0  0  0
   46.2022    8.8626   13.0872 C   0  0  0  0  0  0  0  0  0  0  0  0
   47.3744    8.8953   12.3341 C   0  0  0  0  0  0  0  0  0  0  0  0
   46.4879    6.3529   11.9666 C   0  0  0  0  0  0  0  0  0  0  0  0
   44.2920    5.2290   12.2999 C   0  0  0  0  0  0  0  0  0  0  0  0
   46.4831    6.9749   13.3321 C   0  0  0  0  0  0  0  0  0  0  0  0
   45.0670    6.2238   11.4307 C   0  0  2  0  0  0  0  0  0  0  0  0
   44.2904    4.0135   12.1778 O   0  0  0  0  0  0  0  0  0  0  0  0
   46.7023    6.3979   14.3832 O   0  0  0  0  0  0  0  0  0  0  0  0
   45.0671    5.7411   10.0269 N   0  0  0  0  0  0  0  0  0  0  0  0
   43.6065    5.8223   13.2983 O   0  0  0  0  0  0  0  0  0  0  0  0
   46.2062    8.2905   13.3081 O   0  0  0  0  0  0  0  0  0  0  0  0
   44.5394    5.6795   12.7525 C   0  0  0  0  0  0  0  0  0  0  0  0
   45.5920    4.1978   11.0453 N   0  0  0  0  0  0  0  0  0  0  0  0
   45.5599    6.7958   12.7550 C   0  0  0  0  0  0  0  0  0  0  0  0
   44.3967    4.9827   11.3827 C   0  0  1  0  0  0  0  0  0  0  0  0
   45.2413    8.0528   12.2212 C   0  0  0  0  0  0  0  0  0  0  0  0
   46.8426    6.5842   13.2795 C   0  0  0  0  0  0  0  0  0  0  0  0
   43.1870    4.0504   11.3817 C   0  0  0  0  0  0  0  0  0  0  0  0
   46.1861    9.0799   12.2170 C   0  0  0  0  0  0  0  0  0  0  0  0
   47.7862    7.6119   13.2738 C   0  0  0  0  0  0  0  0  0  0  0  0
   47.4578    8.8577   12.7421 C   0  0  0  0  0  0  0  0  0  0  0  0
   45.4489    6.0091   12.4917 S   0  0  0  0  0  0  0  0  0  0  0  0
   46.7846    5.8673   13.0192 O   0  0  0  0  0  0  0  0  0  0  0  0
   44.3220    5.2337   12.9504 O   0  0  0  0  0  0  0  0  0  0  0  0
   45.0729    7.5684   12.5797 O   0  0  0  0  0  0  0  0  0  0  0  0
   45.5207    5.7897   10.9048 O   0  0  0  0  0  0  0  0  0  0  0  0
   44.6484    5.9741   10.1672 H   0  0  0  0  0  0  0  0  0  0  0  0
   43.6141    6.7207   11.3618 H   0  0  0  0  0  0  0  0  0  0  0  0
   44.0435    4.0549   13.8533 H   0  0  0  0  0  0  0  0  0  0  0  0
   44.7603    5.5168   13.8500 H   0  0  0  0  0  0  0  0  0  0  0  0
   45.3769    4.2583   11.9419 H   0  0  0  0  0  0  0  0  0  0  0  0
   44.5401    8.2713   12.9741 H   0  0  0  0  0  0  0  0  0  0  0  0
   47.1825    5.8527   10.5703 H   0  0  0  0  0  0  0  0  0  0  0  0
   43.2732    2.9394   11.7934 H   0  0  0  0  0  0  0  0  0  0  0  0
   42.3739    4.3882   11.3127 H   0  0  0  0  0  0  0  0  0  0  0  0
   43.6303    3.7250   10.2515 H   0  0  0  0  0  0  0  0  0  0  0  0
   46.4706    9.6178   13.7229 H   0  0  0  0  0  0  0  0  0  0  0  0
   49.1025    7.2051   11.3320 H   0  0  0  0  0  0  0  0  0  0  0  0
   48.7537    9.0860   12.9133 H   0  0  0  0  0  0  0  0  0  0  0  0
   45.8795    4.3350   12.6117 H   0  0  0  0  0  0  0  0  0  0  0  0
   44.9712    5.0919   13.9017 H   0  0  0  0  0  0  0  0  0  0  0  0
   42.3006    3.8885   11.8266 H   0  0  0  0  0  0  0  0  0  0  0  0
   42.8682    4.0135   13.3494 H   0  0  0  0  0  0  0  0  0  0  0  0
   43.3228    5.9914   12.1525 H   0  0  0  0  0  0  0  0  0  0  0  0
   44.5976    7.6558   13.8472 H   0  0  0  0  0  0  0  0  0  0  0  0
   47.5530    5.6210   11.4480 H   0  0  0  0  0  0  0  0  0  0  0  0
   44.7651    5.8983   10.1307 H   0  0  0  0  0  0  0  0  0  0  0  0
   43.3252    4.9108    9.9013 H   0  0  0  0  0  0  0  0  0  0  0  0
   44.8809    4.1347   10.2687 H   0  0  0  0  0  0  0  0  0  0  0  0
   48.7691    7.7489   11.1616 H   0  0  0  0  0  0  0  0  0  0  0  0
   45.8274    9.7734   13.5458 H   0  0  0  0  0  0  0  0  0  0  0  0
   47.9156    9.8293   12.2090 H   0  0  0  0  0  0  0  0  0  0  0  0
   47.1141    6.9717   11.3138 H   0  0  0  0  0  0  0  0  0  0  0  0
   46.9770    5.3741   12.0427 H   0  0  0  0  0  0  0  0  0  0  0  0
   44.5423    7.1852   11.4445 H   0  0  0  0  0  0  0  0  0  0  0  0
   45.2943    4.7427   10.0263 H   0  0  0  0  0  0  0  0  0  0  0  0
   45.7966    6.2081    9.4917 H   0  0  0  0  0  0  0  0  0  0  0  0
   43.1837    5.0735   13.7710 H   0  0  0  0  0  0  0  0  0  0  0  0
   46.2229    8.5612   14.2514 H   0  0  0  0  0  0  0  0  0  0  0  0
   44.7914    4.9449   13.5294 H   0  0  0  0  0  0  0  0  0  0  0  0
   43.5731    6.1043   13.0567 H   0  0  0  0  0  0  0  0  0  0  0  0
   46.3987    4.8234   11.0175 H   0  0  0  0  0  0  0  0  0  0  0  0
   45.4960    3.8207   10.1036 H   0  0  0  0  0  0  0  0  0  0  0  0
   44.2492    5.7365   10.6005 H   0  0  0  0  0  0  0  0  0  0  0  0
   44.2533    8.2391   11.8075 H   0  0  0  0  0  0  0  0  0  0  0  0
   47.1139    5.6135   13.6907 H   0  0  0  0  0  0  0  0  0  0  0  0
   43.0624    3.5663   10.4061 H   0  0  0  0  0  0  0  0  0  0  0  0
   43.2818    3.2655   12.1403 H   0  0  0  0  0  0  0  0  0  0  0  0
   42.2692    4.6102   11.5922 H   0  0  0  0  0  0  0  0  0  0  0  0
   45.9296   10.0534   11.8064 H   0  0  0  0  0  0  0  0  0  0  0  0
   48.7770    7.4401   13.6857 H   0  0  0  0  0  0  0  0  0  0  0  0
   48.1939    9.6563   12.7362 H   0  0  0  0  0  0  0  0  0  0  0  0
   45.8812    8.0805   12.3687 H   0  0  0  0  0  0  0  0  0  0  0  0
   44.7630    5.2065   10.6667 H   0  0  0  0  0  0  0  0  0  0  0  0
  4  2  1  0
  3  1  1  0
  4  1  1  0
  5  3  2  0
  6  3  1  0
  4  7  1  0
  8  5  1  0
  9  6  2  0
 10  8  2  0
  9 10  1  0
 12 14  1  0
 13 11  1  0
 14 11  1  0
 15 13  2  0
 16 13  1  0
 17 14  1  0
 18 16  2  0
 19 15  1  0
 20 18  1  0
 19 20  2  0
 22 24  1  0
 23 21  1  0
 24 21  1  0
 25 22  2  0
 26 23  2  0
 27 24  1  0
 28 22  1  0
 29 23  1  0
 33 31  1  0
 32 30  1  0
 33 30  1  0
 34 32  2  0
 35 32  1  0
 33 36  1  0
 37 34  1  0
 38 35  2  0
 39 37  2  0
 38 39  1  0
 41 40  2  0
 42 40  2  0
 43 40  1  0
 44 40  1  0
  1 45  1  0
  1 46  1  0
  2 47  1  0
  2 48  1  0
  4 49  1  1
  5 50  1  0
  6 51  1  0
  7 52  1  0
  7 53  1  0
  7 54  1  0
  8 55  1  0
  9 56  1  0
 10 57  1  0
 11 58  1  0
 11 59  1  0
 12 60  1  0
 12 61  1  0
 14 62  1  6
 15 63  1  0
 16 64  1  0
 17 65  1  0
 17 66  1  0
 17 67  1  0
 18 68  1  0
 19 69  1  0
 20 70  1  0
 21 71  1  0
 21 72  1  0
 24 73  1  6
 27 74  1  0
 27 75  1  0
 28 76  1  0
 29 77  1  0
 30 78  1  0
 30 79  1  0
 31 80  1  0
 31 81  1  0
 33 82  1  6
 34 83  1  0
 35 84  1  0
 36 85  1  0
 36 86  1  0
 36 87  1  0
 37 88  1  0
 38 89  1  0
 39 90  1  0
 43 91  1  0
 44 92  1  0
M  END
> <Uni-Dock RESULT> 
ENERGY=   -7.721  LOWER_BOUND=    2.485  UPPER_BOUND=    4.292
INTER + INTRA:          -7.721
INTER:                  -7.721
INTRA:                   0.000
UNBOUND:                 0.000

$$$$

     RDKit          3D

 92 90  0  0  0  0  0  0  0  0999 V2000
   47.4021    5.7416   20.0000 C   0  0  0  0  0  0  0  0  0  0  0  0
   47.8942    7.8849   18.8255 N   0  0  0  0  0  0  0  0  0  0  0  0
   47.9167    4.7797   18.9524 C   0  0  0  0  0  0  0  0  0  0  0  0
   48.1614    7.0855   20.0283 C   0  0  1  0  0  0  0  0  0  0  0  0
   47.2368    4.6201   17.7373 C   0  0  0  0  0  0  0  0  0  0  0  0
   49.0885    4.0441   19.1767 C   0  0  0  0  0  0  0  0  0  0  0  0
   47.7530    7.9007   21.2551 C   0  0  0  0  0  0  0  0  0  0  0  0
   47.7144    3.7342   16.7705 C   0  0  0  0  0  0  0  0  0  0  0  0
   49.5662    3.1602   18.2076 C   0  0  0  0  0  0  0  0  0  0  0  0
   48.8791    3.0059   17.0050 C   0  0  0  0  0  0  0  0  0  0  0  0
   48.6648    6.8129   18.9221 C   0  0  0  0  0  0  0  0  0  0  0  0
   47.6889    8.5504   20.3718 N   0  0  0  0  0  0  0  0  0  0  0  0
   48.5057    5.4459   18.2976 C   0  0  0  0  0  0  0  0  0  0  0  0
   47.5953    7.1352   19.9856 C   0  0  2  0  0  0  0  0  0  0  0  0
   47.4934    5.2091   17.3570 C   0  0  0  0  0  0  0  0  0  0  0  0
   49.3603    4.3935   18.6533 C   0  0  0  0  0  0  0  0  0  0  0  0
   47.7545    6.2799   21.2438 C   0  0  0  0  0  0  0  0  0  0  0  0
   49.2018    3.1290   18.0836 C   0  0  0  0  0  0  0  0  0  0  0  0
   47.3381    3.9443   16.7882 C   0  0  0  0  0  0  0  0  0  0  0  0
   48.1916    2.9038   17.1507 C   0  0  0  0  0  0  0  0  0  0  0  0
   48.9206    4.9032   18.8406 C   0  0  0  0  0  0  0  0  0  0  0  0
   47.8353    7.0196   19.5752 C   0  0  0  0  0  0  0  0  0  0  0  0
   48.6879    5.1792   17.3841 C   0  0  0  0  0  0  0  0  0  0  0  0
   47.7966    5.4923   19.6847 C   0  0  2  0  0  0  0  0  0  0  0  0
   48.5298    7.7728   20.2406 O   0  0  0  0  0  0  0  0  0  0  0  0
   49.3036    5.9774   16.6987 O   0  0  0  0  0  0  0  0  0  0  0  0
   47.9406    5.1063   21.1108 N   0  0  0  0  0  0  0  0  0  0  0  0
   47.0341    7.4998   18.6025 O   0  0  0  0  0  0  0  0  0  0  0  0
   47.6961    4.4368   16.8617 O   0  0  0  0  0  0  0  0  0  0  0  0
   47.8169    6.8118   18.9229 C   0  0  0  0  0  0  0  0  0  0  0  0
   49.3624    6.3686   20.8289 N   0  0  0  0  0  0  0  0  0  0  0  0
   47.9908    5.5101   18.1727 C   0  0  0  0  0  0  0  0  0  0  0  0
   47.9736    6.6641   20.4512 C   0  0  1  0  0  0  0  0  0  0  0  0
   46.9495    4.5721   18.1239 C   0  0  0  0  0  0  0  0  0  0  0  0
   49.2005    5.2186   17.5271 C   0  0  0  0  0  0  0  0  0  0  0  0
   47.5400    7.9463   21.1586 C   0  0  0  0  0  0  0  0  0  0  0  0
   47.1136    3.3678   17.4379 C   0  0  0  0  0  0  0  0  0  0  0  0
   49.3630    4.0140   16.8423 C   0  0  0  0  0  0  0  0  0  0  0  0
   48.3206    3.0897   16.7991 C   0  0  0  0  0  0  0  0  0  0  0  0
   48.3336    5.9643   18.7865 S   0  0  0  0  0  0  0  0  0  0  0  0
   49.5457    5.5988   18.0940 O   0  0  0  0  0  0  0  0  0  0  0  0
   47.9203    7.3287   19.0084 O   0  0  0  0  0  0  0  0  0  0  0  0
   47.1307    5.1693   18.0783 O   0  0  0  0  0  0  0  0  0  0  0  0
   48.3642    5.2704   20.2319 O   0  0  0  0  0  0  0  0  0  0  0  0
   47.4807    5.2490   20.9788 H   0  0  0  0  0  0  0  0  0  0  0  0
   46.3279    5.9156   19.8470 H   0  0  0  0  0  0  0  0  0  0  0  0
   48.4701    8.7259   18.8414 H   0  0  0  0  0  0  0  0  0  0  0  0
   48.1971    7.3551   18.0063 H   0  0  0  0  0  0  0  0  0  0  0  0
   49.2411    6.8982   20.0814 H   0  0  0  0  0  0  0  0  0  0  0  0
   46.3299    5.1878   17.5380 H   0  0  0  0  0  0  0  0  0  0  0  0
   49.6360    4.1547   20.1094 H   0  0  0  0  0  0  0  0  0  0  0  0
   48.2967    8.8514   21.2980 H   0  0  0  0  0  0  0  0  0  0  0  0
   46.6803    8.1278   21.2480 H   0  0  0  0  0  0  0  0  0  0  0  0
   47.9769    7.3519   22.1762 H   0  0  0  0  0  0  0  0  0  0  0  0
   47.1772    3.6136   15.8336 H   0  0  0  0  0  0  0  0  0  0  0  0
   50.4726    2.5888   18.3937 H   0  0  0  0  0  0  0  0  0  0  0  0
   49.2503    2.3180   16.2506 H   0  0  0  0  0  0  0  0  0  0  0  0
   49.6676    6.9117   19.3569 H   0  0  0  0  0  0  0  0  0  0  0  0
   48.6198    7.5509   18.1096 H   0  0  0  0  0  0  0  0  0  0  0  0
   46.9624    8.7620   21.0546 H   0  0  0  0  0  0  0  0  0  0  0  0
   47.4965    9.1387   19.5614 H   0  0  0  0  0  0  0  0  0  0  0  0
   46.5947    6.9620   19.5719 H   0  0  0  0  0  0  0  0  0  0  0  0
   46.8200    6.0098   17.0599 H   0  0  0  0  0  0  0  0  0  0  0  0
   50.1557    4.5516   19.3789 H   0  0  0  0  0  0  0  0  0  0  0  0
   47.6155    5.2178   21.0184 H   0  0  0  0  0  0  0  0  0  0  0  0
   47.0059    6.5469   21.9997 H   0  0  0  0  0  0  0  0  0  0  0  0
   48.7494    6.4055   21.6865 H   0  0  0  0  0  0  0  0  0  0  0  0
   49.8702    2.3200   18.3654 H   0  0  0  0  0  0  0  0  0  0  0  0
   46.5501    3.7700   16.0609 H   0  0  0  0  0  0  0  0  0  0  0  0
   48.0723    1.9206   16.7036 H   0  0  0  0  0  0  0  0  0  0  0  0
   49.0019    3.8182   18.9718 H   0  0  0  0  0  0  0  0  0  0  0  0
   49.8927    5.3310   19.1146 H   0  0  0  0  0  0  0  0  0  0  0  0
   46.8147    5.1411   19.3496 H   0  0  0  0  0  0  0  0  0  0  0  0
   48.7053    5.6509   21.5195 H   0  0  0  0  0  0  0  0  0  0  0  0
   48.2051    4.1261   21.1875 H   0  0  0  0  0  0  0  0  0  0  0  0
   47.1751    8.4702   18.6391 H   0  0  0  0  0  0  0  0  0  0  0  0
   47.6441    4.7230   15.9242 H   0  0  0  0  0  0  0  0  0  0  0  0
   48.5239    7.5591   18.5377 H   0  0  0  0  0  0  0  0  0  0  0  0
   46.8193    7.2070   18.6873 H   0  0  0  0  0  0  0  0  0  0  0  0
   49.6465    5.4965   20.3798 H   0  0  0  0  0  0  0  0  0  0  0  0
   49.4125    6.1976   21.8322 H   0  0  0  0  0  0  0  0  0  0  0  0
   47.3392    5.8443   20.8082 H   0  0  0  0  0  0  0  0  0  0  0  0
   46.0031    4.7760   18.6188 H   0  0  0  0  0  0  0  0  0  0  0  0
   50.0248    5.9288   17.5599 H   0  0  0  0  0  0  0  0  0  0  0  0
   47.6261    7.8454   22.2467 H   0  0  0  0  0  0  0  0  0  0  0  0
   48.1477    8.8036   20.8483 H   0  0  0  0  0  0  0  0  0  0  0  0
   46.4939    8.1774   20.9300 H   0  0  0  0  0  0  0  0  0  0  0  0
   46.2996    2.6480   17.3998 H   0  0  0  0  0  0  0  0  0  0  0  0
   50.3030    3.7977   16.3417 H   0  0  0  0  0  0  0  0  0  0  0  0
   48.4492    2.1514   16.2677 H   0  0  0  0  0  0  0  0  0  0  0  0
   47.4642    4.2797   17.8382 H   0  0  0  0  0  0  0  0  0  0  0  0
   48.0689    5.9530   20.8782 H   0  0  0  0  0  0  0  0  0  0  0  0
  4  2  1  0
  3  1  1  0
  4  1  1  0
  5  3  2  0
  6  3  1  0
  4  7  1  0
  8  5  1  0
  9  6  2  0
 10  8  2  0
  9 10  1  0
 12 14  1  0
 13 11  1  0
 14 11  1  0
 15 13  2  0
 16 13  1  0
 17 14  1  0
 18 16  2  0
 19 15  1  0
 20 18  1  0
 19 20  2  0
 22 24  1  0
 23 21  1  0
 24 21  1  0
 25 22  2  0
 26 23  2  0
 27 24  1  0
 28 22  1  0
 29 23  1  0
 33 31  1  0
 32 30  1  0
 33 30  1  0
 34 32  2  0
 35 32  1  0
 33 36  1  0
 37 34  1  0
 38 35  2  0
 39 37  2  0
 38 39  1  0
 41 40  2  0
 42 40  2  0
 43 40  1  0
 44 40  1  0
  1 45  1  0
  1 46  1  0
  2 47  1  0
  2 48  1  0
  4 49  1  1
  5 50  1  0
  6 51  1  0
  7 52  1  0
  7 53  1  0
  7 54  1  0
  8 55  1  0
  9 56  1  0
 10 57  1  0
 11 58  1  0
 11 59  1  0
 12 60  1  0
 12 61  1  0
 14 62  1  6
 15 63  1  0
 16 64  1  0
 17 65  1  0
 17 66  1  0
 17 67  1  0
 18 68  1  0
 19 69  1  0
 20 70  1  0
 21 71  1  0
 21 72  1  0
 24 73  1  6
 27 74  1  0
 27 75  1  0
 28 76  1  0
 29 77  1  0
 30 78  1  0
 30 79  1  0
 31 80  1  0
 31 81  1  0
 33 82  1  6
 34 83  1  0
 35 84  1  0
 36 85  1  0
 36 86  1  0
 36 87  1  0
 37 88  1  0
 38 89  1  0
 39 90  1  0
 43 91  1  0
 44 92  1  0
M  END
> <Uni-Dock RESULT> 
ENERGY=   -7.714  LOWER_BOUND=    7.794  UPPER_BOUND=   10.002
INTER + INTRA:          -7.714
INTER:                  -7.714
INTRA:                   0.000
UNBOUND:                 0.000

$$$$
