
     RDKit          3D

 92 90  0  0  0  0  0  0  0  0999 V2000
   43.6739    4.8306   10.2213 C   0  0  0  0  0  0  0  0  0  0  0  0
   43.5465    6.0687   12.3472 N   0  0  0  0  0  0  0  0  0  0  0  0
   44.5400    4.0728    9.2412 C   0  0  0  0  0  0  0  0  0  0  0  0
   44.3899    5.1715   11.5448 C   0  0  1  0  0  0  0  0  0  0  0  0
   44.3348    2.7042    9.0205 C   0  0  0  0  0  0  0  0  0  0  0  0
   45.5652    4.7269    8.5438 C   0  0  0  0  0  0  0  0  0  0  0  0
   44.6969    3.9254   12.3762 C   0  0  0  0  0  0  0  0  0  0  0  0
   45.1409    2.0036    8.1218 C   0  0  0  0  0  0  0  0  0  0  0  0
   46.3699    4.0245    7.6455 C   0  0  0  0  0  0  0  0  0  0  0  0
   46.1580    2.6634    7.4351 C   0  0  0  0  0  0  0  0  0  0  0  0
   45.5749    3.4739    9.7885 C   0  0  0  0  0  0  0  0  0  0  0  0
   43.9991    3.3554    7.8573 N   0  0  0  0  0  0  0  0  0  0  0  0
   44.7495    4.1105   10.8838 C   0  0  0  0  0  0  0  0  0  0  0  0
   45.2237    3.9830    8.3731 C   0  0  2  0  0  0  0  0  0  0  0  0
   45.2608    5.1848   11.6255 C   0  0  0  0  0  0  0  0  0  0  0  0
   43.4583    3.6467   11.1666 C   0  0  0  0  0  0  0  0  0  0  0  0
   46.3706    3.6923    7.4031 C   0  0  0  0  0  0  0  0  0  0  0  0
   42.6968    4.2387   12.1755 C   0  0  0  0  0  0  0  0  0  0  0  0
   44.4984    5.7755   12.6351 C   0  0  0  0  0  0  0  0  0  0  0  0
   43.2173    5.3018   12.9106 C   0  0  0  0  0  0  0  0  0  0  0  0
   43.9470    3.9170   10.5837 C   0  0  0  0  0  0  0  0  0  0  0  0
   45.5521    4.1614    8.6998 C   0  0  0  0  0  0  0  0  0  0  0  0
   43.9324    5.3804   10.9139 C   0  0  0  0  0  0  0  0  0  0  0  0
   45.3173    3.5035   10.0625 C   0  0  2  0  0  0  0  0  0  0  0  0
   45.1715    3.7406    7.6177 O   0  0  0  0  0  0  0  0  0  0  0  0
   43.3983    6.2588   10.2591 O   0  0  0  0  0  0  0  0  0  0  0  0
   45.4091    2.0314    9.9104 N   0  0  0  0  0  0  0  0  0  0  0  0
   46.2087    5.3347    8.7900 O   0  0  0  0  0  0  0  0  0  0  0  0
   44.5890    5.6663   12.0522 O   0  0  0  0  0  0  0  0  0  0  0  0
   44.6250    4.5345    9.0709 C   0  0  0  0  0  0  0  0  0  0  0  0
   45.0247    2.0808    8.8557 N   0  0  0  0  0  0  0  0  0  0  0  0
   44.4905    4.7431   10.5625 C   0  0  0  0  0  0  0  0  0  0  0  0
   45.6181    3.4149    8.6890 C   0  0  1  0  0  0  0  0  0  0  0  0
   45.2012    5.7676   11.2037 C   0  0  0  0  0  0  0  0  0  0  0  0
   43.6649    3.9103   11.3287 C   0  0  0  0  0  0  0  0  0  0  0  0
   46.0669    3.5745    7.2351 C   0  0  0  0  0  0  0  0  0  0  0  0
   45.0798    5.9594   12.5813 C   0  0  0  0  0  0  0  0  0  0  0  0
   43.5453    4.1023   12.7061 C   0  0  0  0  0  0  0  0  0  0  0  0
   44.2513    5.1276   13.3319 C   0  0  0  0  0  0  0  0  0  0  0  0
   44.8574    3.7128    9.9557 S   0  0  0  0  0  0  0  0  0  0  0  0
   43.8301    3.1025    9.1509 O   0  0  0  0  0  0  0  0  0  0  0  0
   45.9982    3.0026   10.4752 O   0  0  0  0  0  0  0  0  0  0  0  0
   45.4360    4.9806    9.1609 O   0  0  0  0  0  0  0  0  0  0  0  0
   44.1083    4.4307   11.1791 O   0  0  0  0  0  0  0  0  0  0  0  0
   42.7558    4.2628   10.4239 H   0  0  0  0  0  0  0  0  0  0  0  0
   43.3448    5.7546    9.7258 H   0  0  0  0  0  0  0  0  0  0  0  0
   44.0339    6.3136   13.2087 H   0  0  0  0  0  0  0  0  0  0  0  0
   43.4024    6.9430   11.8432 H   0  0  0  0  0  0  0  0  0  0  0  0
   45.3322    5.6920   11.3354 H   0  0  0  0  0  0  0  0  0  0  0  0
   43.5463    2.1740    9.5502 H   0  0  0  0  0  0  0  0  0  0  0  0
   45.7408    5.7896    8.6943 H   0  0  0  0  0  0  0  0  0  0  0  0
   45.1663    4.1951   13.3292 H   0  0  0  0  0  0  0  0  0  0  0  0
   43.7871    3.3562   12.5978 H   0  0  0  0  0  0  0  0  0  0  0  0
   45.3927    3.2620   11.8525 H   0  0  0  0  0  0  0  0  0  0  0  0
   44.9744    0.9422    7.9579 H   0  0  0  0  0  0  0  0  0  0  0  0
   47.1616    4.5400    7.1083 H   0  0  0  0  0  0  0  0  0  0  0  0
   46.7845    2.1171    6.7350 H   0  0  0  0  0  0  0  0  0  0  0  0
   45.4741    2.3814    9.8459 H   0  0  0  0  0  0  0  0  0  0  0  0
   46.6344    3.6741    9.9981 H   0  0  0  0  0  0  0  0  0  0  0  0
   44.1454    2.3536    7.7415 H   0  0  0  0  0  0  0  0  0  0  0  0
   43.7933    3.7230    6.9293 H   0  0  0  0  0  0  0  0  0  0  0  0
   45.0655    5.0678    8.4024 H   0  0  0  0  0  0  0  0  0  0  0  0
   46.2572    5.5693   11.4220 H   0  0  0  0  0  0  0  0  0  0  0  0
   43.0354    2.8261   10.5912 H   0  0  0  0  0  0  0  0  0  0  0  0
   46.5777    2.6183    7.3355 H   0  0  0  0  0  0  0  0  0  0  0  0
   47.2888    4.1927    7.7295 H   0  0  0  0  0  0  0  0  0  0  0  0
   46.1378    4.0573    6.3964 H   0  0  0  0  0  0  0  0  0  0  0  0
   41.6951    3.8722   12.3826 H   0  0  0  0  0  0  0  0  0  0  0  0
   44.9040    6.6069   13.2053 H   0  0  0  0  0  0  0  0  0  0  0  0
   42.6231    5.7630   13.6946 H   0  0  0  0  0  0  0  0  0  0  0  0
   43.1583    3.7271    9.8451 H   0  0  0  0  0  0  0  0  0  0  0  0
   43.6718    3.3625   11.4891 H   0  0  0  0  0  0  0  0  0  0  0  0
   46.1188    3.8126   10.7428 H   0  0  0  0  0  0  0  0  0  0  0  0
   45.0326    1.5678   10.7350 H   0  0  0  0  0  0  0  0  0  0  0  0
   44.8279    1.7456    9.1181 H   0  0  0  0  0  0  0  0  0  0  0  0
   46.2617    5.6475    7.8620 H   0  0  0  0  0  0  0  0  0  0  0  0
   44.5142    6.6408   12.1386 H   0  0  0  0  0  0  0  0  0  0  0  0
   43.6333    4.3393    8.6405 H   0  0  0  0  0  0  0  0  0  0  0  0
   44.9498    5.4823    8.6207 H   0  0  0  0  0  0  0  0  0  0  0  0
   45.7118    1.3696    8.6094 H   0  0  0  0  0  0  0  0  0  0  0  0
   44.2475    1.9636    8.2073 H   0  0  0  0  0  0  0  0  0  0  0  0
   46.5052    3.4770    9.3309 H   0  0  0  0  0  0  0  0  0  0  0  0
   45.8545    6.4241   10.6341 H   0  0  0  0  0  0  0  0  0  0  0  0
   43.1185    3.0983   10.8540 H   0  0  0  0  0  0  0  0  0  0  0  0
   46.7797    2.7912    6.9541 H   0  0  0  0  0  0  0  0  0  0  0  0
   46.5646    4.5392    7.0881 H   0  0  0  0  0  0  0  0  0  0  0  0
   45.2175    3.5247    6.5443 H   0  0  0  0  0  0  0  0  0  0  0  0
   45.6338    6.7569   13.0690 H   0  0  0  0  0  0  0  0  0  0  0  0
   42.9044    3.4471   13.2896 H   0  0  0  0  0  0  0  0  0  0  0  0
   44.1591    5.2750   14.4044 H   0  0  0  0  0  0  0  0  0  0  0  0
   46.2997    5.2053    9.5650 H   0  0  0  0  0  0  0  0  0  0  0  0
   43.2062    4.6583   10.8719 H   0  0  0  0  0  0  0  0  0  0  0  0
  4  2  1  0
  3  1  1  0
  4  1  1  0
  5  3  2  0
  6  3  1  0
  4  7  1  0
  8  5  1  0
  9  6  2  0
 10  8  2  0
  9 10  1  0
 12 14  1  0
 13 11  1  0
 14 11  1  0
 15 13  2  0
 16 13  1  0
 17 14  1  0
 18 16  2  0
 19 15  1  0
 20 18  1  0
 19 20  2  0
 22 24  1  0
 23 21  1  0
 24 21  1  0
 25 22  2  0
 26 23  2  0
 27 24  1  0
 28 22  1  0
 29 23  1  0
 33 31  1  0
 32 30  1  0
 33 30  1  0
 34 32  2  0
 35 32  1  0
 33 36  1  0
 37 34  1  0
 38 35  2  0
 39 37  2  0
 38 39  1  0
 41 40  2  0
 42 40  2  0
 43 40  1  0
 44 40  1  0
  1 45  1  0
  1 46  1  0
  2 47  1  0
  2 48  1  0
  4 49  1  6
  5 50  1  0
  6 51  1  0
  7 52  1  0
  7 53  1  0
  7 54  1  0
  8 55  1  0
  9 56  1  0
 10 57  1  0
 11 58  1  0
 11 59  1  0
 12 60  1  0
 12 61  1  0
 14 62  1  1
 15 63  1  0
 16 64  1  0
 17 65  1  0
 17 66  1  0
 17 67  1  0
 18 68  1  0
 19 69  1  0
 20 70  1  0
 21 71  1  0
 21 72  1  0
 24 73  1  6
 27 74  1  0
 27 75  1  0
 28 76  1  0
 29 77  1  0
 30 78  1  0
 30 79  1  0
 31 80  1  0
 31 81  1  0
 33 82  1  6
 34 83  1  0
 35 84  1  0
 36 85  1  0
 36 86  1  0
 36 87  1  0
 37 88  1  0
 38 89  1  0
 39 90  1  0
 43 91  1  0
 44 92  1  0
M  END
> <Uni-Dock RESULT> 
ENERGY=   -8.947  LOWER_BOUND=    0.000  UPPER_BOUND=    0.000
INTER + INTRA:          -8.947
INTER:                  -8.947
INTRA:                   0.000
UNBOUND:                 0.000

$$$$

     RDKit          3D

 92 90  0  0  0  0  0  0  0  0999 V2000
   45.0828    6.5473   11.1819 C   0  0  0  0  0  0  0  0  0  0  0  0
   42.9674    5.2864   11.1166 N   0  0  0  0  0  0  0  0  0  0  0  0
   46.1751    7.1549   12.0320 C   0  0  0  0  0  0  0  0  0  0  0  0
   44.0945    5.6701   11.9784 C   0  0  1  0  0  0  0  0  0  0  0  0
   47.4839    6.6576   11.9712 C   0  0  0  0  0  0  0  0  0  0  0  0
   45.8931    8.2204   12.8982 C   0  0  0  0  0  0  0  0  0  0  0  0
   44.7498    4.3958   12.5123 C   0  0  0  0  0  0  0  0  0  0  0  0
   48.4897    7.2137   12.7631 C   0  0  0  0  0  0  0  0  0  0  0  0
   46.9004    8.7751   13.6890 C   0  0  0  0  0  0  0  0  0  0  0  0
   48.1979    8.2716   13.6218 C   0  0  0  0  0  0  0  0  0  0  0  0
   46.3674    6.5426   13.1797 C   0  0  0  0  0  0  0  0  0  0  0  0
   47.5102    7.9283   11.4476 N   0  0  0  0  0  0  0  0  0  0  0  0
   45.3213    5.7829   12.3957 C   0  0  0  0  0  0  0  0  0  0  0  0
   46.6423    7.9608   12.6331 C   0  0  2  0  0  0  0  0  0  0  0  0
   43.9943    5.7322   12.8452 C   0  0  0  0  0  0  0  0  0  0  0  0
   45.6573    5.1291   11.2031 C   0  0  0  0  0  0  0  0  0  0  0  0
   47.3083    8.8250   13.7057 C   0  0  0  0  0  0  0  0  0  0  0  0
   44.6888    4.4319   10.4790 C   0  0  0  0  0  0  0  0  0  0  0  0
   43.0267    5.0336   12.1204 C   0  0  0  0  0  0  0  0  0  0  0  0
   43.3743    4.3828   10.9384 C   0  0  0  0  0  0  0  0  0  0  0  0
   45.6823    5.8337   11.5965 C   0  0  0  0  0  0  0  0  0  0  0  0
   46.3080    7.8116   12.9682 C   0  0  0  0  0  0  0  0  0  0  0  0
   44.2496    6.2502   11.4396 C   0  0  0  0  0  0  0  0  0  0  0  0
   46.2212    6.2828   12.9486 C   0  0  2  0  0  0  0  0  0  0  0  0
   47.2280    8.4899   12.5363 O   0  0  0  0  0  0  0  0  0  0  0  0
   43.8393    7.1622   10.7426 O   0  0  0  0  0  0  0  0  0  0  0  0
   47.5694    5.7191   13.2003 N   0  0  0  0  0  0  0  0  0  0  0  0
   45.2078    8.3928   13.4855 O   0  0  0  0  0  0  0  0  0  0  0  0
   43.4036    5.4981   12.1657 O   0  0  0  0  0  0  0  0  0  0  0  0
   45.8532    7.5366   12.0441 C   0  0  0  0  0  0  0  0  0  0  0  0
   48.0676    6.5995   12.7111 N   0  0  0  0  0  0  0  0  0  0  0  0
   44.9448    6.3279   12.0326 C   0  0  0  0  0  0  0  0  0  0  0  0
   46.9579    7.4712   13.1216 C   0  0  1  0  0  0  0  0  0  0  0  0
   43.6993    6.3689   12.6752 C   0  0  0  0  0  0  0  0  0  0  0  0
   45.3369    5.1456   11.3917 C   0  0  0  0  0  0  0  0  0  0  0  0
   47.5104    8.8698   13.4032 C   0  0  0  0  0  0  0  0  0  0  0  0
   42.8609    5.2524   12.6676 C   0  0  0  0  0  0  0  0  0  0  0  0
   44.4984    4.0297   11.3857 C   0  0  0  0  0  0  0  0  0  0  0  0
   43.2600    4.0837   12.0221 C   0  0  0  0  0  0  0  0  0  0  0  0
   46.1179    6.4097   12.4587 S   0  0  0  0  0  0  0  0  0  0  0  0
   47.1020    6.6638   11.4377 O   0  0  0  0  0  0  0  0  0  0  0  0
   46.4146    5.7830   13.7216 O   0  0  0  0  0  0  0  0  0  0  0  0
   45.3760    7.7903   12.8009 O   0  0  0  0  0  0  0  0  0  0  0  0
   44.9338    5.5893   11.7528 O   0  0  0  0  0  0  0  0  0  0  0  0
   45.5275    5.9666   10.3626 H   0  0  0  0  0  0  0  0  0  0  0  0
   44.5429    7.3729   10.6977 H   0  0  0  0  0  0  0  0  0  0  0  0
   42.3030    4.7297   11.6534 H   0  0  0  0  0  0  0  0  0  0  0  0
   42.4646    6.1222   10.8203 H   0  0  0  0  0  0  0  0  0  0  0  0
   43.6928    6.2374   12.8266 H   0  0  0  0  0  0  0  0  0  0  0  0
   47.7276    5.8309   11.3075 H   0  0  0  0  0  0  0  0  0  0  0  0
   44.8862    8.6269   12.9595 H   0  0  0  0  0  0  0  0  0  0  0  0
   44.0198    3.7692   13.0372 H   0  0  0  0  0  0  0  0  0  0  0  0
   45.1860    3.7992   11.7031 H   0  0  0  0  0  0  0  0  0  0  0  0
   45.5449    4.6297   13.2276 H   0  0  0  0  0  0  0  0  0  0  0  0
   49.5016    6.8207   12.7094 H   0  0  0  0  0  0  0  0  0  0  0  0
   46.6729    9.6017   14.3569 H   0  0  0  0  0  0  0  0  0  0  0  0
   48.9821    8.7043   14.2373 H   0  0  0  0  0  0  0  0  0  0  0  0
   47.2935    5.9527   13.2164 H   0  0  0  0  0  0  0  0  0  0  0  0
   46.0309    6.6103   14.2231 H   0  0  0  0  0  0  0  0  0  0  0  0
   48.4290    7.5675   11.7005 H   0  0  0  0  0  0  0  0  0  0  0  0
   47.6597    8.8781   11.1093 H   0  0  0  0  0  0  0  0  0  0  0  0
   45.6947    8.4348   12.3499 H   0  0  0  0  0  0  0  0  0  0  0  0
   43.7047    6.2368   13.7637 H   0  0  0  0  0  0  0  0  0  0  0  0
   46.6771    5.1709   10.8270 H   0  0  0  0  0  0  0  0  0  0  0  0
   48.2626    8.3964   14.0321 H   0  0  0  0  0  0  0  0  0  0  0  0
   46.6613    8.9159   14.5850 H   0  0  0  0  0  0  0  0  0  0  0  0
   47.5003    9.8375   13.3333 H   0  0  0  0  0  0  0  0  0  0  0  0
   44.9614    3.9321    9.5535 H   0  0  0  0  0  0  0  0  0  0  0  0
   42.0011    4.9991   12.4776 H   0  0  0  0  0  0  0  0  0  0  0  0
   42.6209    3.8412   10.3731 H   0  0  0  0  0  0  0  0  0  0  0  0
   46.2554    6.2673   10.7675 H   0  0  0  0  0  0  0  0  0  0  0  0
   45.7332    4.7443   11.4797 H   0  0  0  0  0  0  0  0  0  0  0  0
   45.5727    5.9587   13.7702 H   0  0  0  0  0  0  0  0  0  0  0  0
   47.5869    4.7288   12.9646 H   0  0  0  0  0  0  0  0  0  0  0  0
   48.2406    6.1830   12.5826 H   0  0  0  0  0  0  0  0  0  0  0  0
   45.3904    9.3533   13.4094 H   0  0  0  0  0  0  0  0  0  0  0  0
   42.5190    5.8816   11.9839 H   0  0  0  0  0  0  0  0  0  0  0  0
   46.2905    7.6719   11.0454 H   0  0  0  0  0  0  0  0  0  0  0  0
   45.2337    8.4287   12.2075 H   0  0  0  0  0  0  0  0  0  0  0  0
   48.7681    6.5693   13.4508 H   0  0  0  0  0  0  0  0  0  0  0  0
   48.5325    6.9918   11.8936 H   0  0  0  0  0  0  0  0  0  0  0  0
   46.5380    7.0738   14.0536 H   0  0  0  0  0  0  0  0  0  0  0  0
   43.3732    7.2714   13.1863 H   0  0  0  0  0  0  0  0  0  0  0  0
   46.3066    5.0866   10.9023 H   0  0  0  0  0  0  0  0  0  0  0  0
   48.2891    8.8386   14.1735 H   0  0  0  0  0  0  0  0  0  0  0  0
   46.7171    9.5328   13.7652 H   0  0  0  0  0  0  0  0  0  0  0  0
   47.9416    9.3208   12.5023 H   0  0  0  0  0  0  0  0  0  0  0  0
   41.8970    5.2943   13.1674 H   0  0  0  0  0  0  0  0  0  0  0  0
   44.8158    3.1176   10.8881 H   0  0  0  0  0  0  0  0  0  0  0  0
   42.6088    3.2141   12.0186 H   0  0  0  0  0  0  0  0  0  0  0  0
   44.9332    7.6734   13.6669 H   0  0  0  0  0  0  0  0  0  0  0  0
   44.9381    5.8344   10.8043 H   0  0  0  0  0  0  0  0  0  0  0  0
  4  2  1  0
  3  1  1  0
  4  1  1  0
  5  3  2  0
  6  3  1  0
  4  7  1  0
  8  5  1  0
  9  6  2  0
 10  8  2  0
  9 10  1  0
 12 14  1  0
 13 11  1  0
 14 11  1  0
 15 13  2  0
 16 13  1  0
 17 14  1  0
 18 16  2  0
 19 15  1  0
 20 18  1  0
 19 20  2  0
 22 24  1  0
 23 21  1  0
 24 21  1  0
 25 22  2  0
 26 23  2  0
 27 24  1  0
 28 22  1  0
 29 23  1  0
 33 31  1  0
 32 30  1  0
 33 30  1  0
 34 32  2  0
 35 32  1  0
 33 36  1  0
 37 34  1  0
 38 35  2  0
 39 37  2  0
 38 39  1  0
 41 40  2  0
 42 40  2  0
 43 40  1  0
 44 40  1  0
  1 45  1  0
  1 46  1  0
  2 47  1  0
  2 48  1  0
  4 49  1  6
  5 50  1  0
  6 51  1  0
  7 52  1  0
  7 53  1  0
  7 54  1  0
  8 55  1  0
  9 56  1  0
 10 57  1  0
 11 58  1  0
 11 59  1  0
 12 60  1  0
 12 61  1  0
 14 62  1  1
 15 63  1  0
 16 64  1  0
 17 65  1  0
 17 66  1  0
 17 67  1  0
 18 68  1  0
 19 69  1  0
 20 70  1  0
 21 71  1  0
 21 72  1  0
 24 73  1  6
 27 74  1  0
 27 75  1  0
 28 76  1  0
 29 77  1  0
 30 78  1  0
 30 79  1  0
 31 80  1  0
 31 81  1  0
 33 82  1  6
 34 83  1  0
 35 84  1  0
 36 85  1  0
 36 86  1  0
 36 87  1  0
 37 88  1  0
 38 89  1  0
 39 90  1  0
 43 91  1  0
 44 92  1  0
M  END
> <Uni-Dock RESULT> 
ENERGY=   -8.171  LOWER_BOUND=    2.345  UPPER_BOUND=    4.630
INTER + INTRA:          -8.171
INTER:                  -8.171
INTRA:                   0.000
UNBOUND:                 0.000

$$$$

     RDKit          3D

 92 90  0  0  0  0  0  0  0  0999 V2000
   44.8051    5.5926   13.2047 C   0  0  0  0  0  0  0  0  0  0  0  0
   43.4584    3.6472   12.5188 N   0  0  0  0  0  0  0  0  0  0  0  0
   46.0770    6.3879   13.0183 C   0  0  0  0  0  0  0  0  0  0  0  0
   44.6063    4.4866   12.1475 C   0  0  1  0  0  0  0  0  0  0  0  0
   46.0317    7.6953   12.5157 C   0  0  0  0  0  0  0  0  0  0  0  0
   47.3207    5.8267   13.3396 C   0  0  0  0  0  0  0  0  0  0  0  0
   44.3560    5.0569   10.7510 C   0  0  0  0  0  0  0  0  0  0  0  0
   47.2075    8.4255   12.3357 C   0  0  0  0  0  0  0  0  0  0  0  0
   48.4953    6.5586   13.1592 C   0  0  0  0  0  0  0  0  0  0  0  0
   48.4386    7.8572   12.6570 C   0  0  0  0  0  0  0  0  0  0  0  0
   46.5867    6.3125   11.8085 C   0  0  0  0  0  0  0  0  0  0  0  0
   46.4502    7.7795   13.8223 N   0  0  0  0  0  0  0  0  0  0  0  0
   45.2789    5.5539   11.8305 C   0  0  0  0  0  0  0  0  0  0  0  0
   47.1402    6.6334   13.2143 C   0  0  2  0  0  0  0  0  0  0  0  0
   45.2626    4.1612   11.6693 C   0  0  0  0  0  0  0  0  0  0  0  0
   44.0657    6.2268   12.0245 C   0  0  0  0  0  0  0  0  0  0  0  0
   48.6364    6.9444   13.1391 C   0  0  0  0  0  0  0  0  0  0  0  0
   42.8602    5.5237   12.0485 C   0  0  0  0  0  0  0  0  0  0  0  0
   44.0560    3.4591   11.6926 C   0  0  0  0  0  0  0  0  0  0  0  0
   42.8552    4.1405   11.8810 C   0  0  0  0  0  0  0  0  0  0  0  0
   44.8059    6.1062   12.3233 C   0  0  0  0  0  0  0  0  0  0  0  0
   47.2144    6.2332   12.9302 C   0  0  0  0  0  0  0  0  0  0  0  0
   44.6098    4.7407   12.9132 C   0  0  0  0  0  0  0  0  0  0  0  0
   46.2173    6.2473   11.7680 C   0  0  2  0  0  0  0  0  0  0  0  0
   47.5414    7.1909   13.6150 O   0  0  0  0  0  0  0  0  0  0  0  0
   44.5700    4.4710   14.1012 O   0  0  0  0  0  0  0  0  0  0  0  0
   46.3708    7.5156   11.0152 N   0  0  0  0  0  0  0  0  0  0  0  0
   47.7000    5.0033   13.1897 O   0  0  0  0  0  0  0  0  0  0  0  0
   44.4717    3.7825   11.9798 O   0  0  0  0  0  0  0  0  0  0  0  0
   46.2492    6.0514   13.3447 C   0  0  0  0  0  0  0  0  0  0  0  0
   46.6819    8.0694   11.9421 N   0  0  0  0  0  0  0  0  0  0  0  0
   45.2633    5.2522   12.5228 C   0  0  0  0  0  0  0  0  0  0  0  0
   47.2689    6.8404   12.4942 C   0  0  1  0  0  0  0  0  0  0  0  0
   45.4670    3.8825   12.3032 C   0  0  0  0  0  0  0  0  0  0  0  0
   44.1390    5.8681   11.9582 C   0  0  0  0  0  0  0  0  0  0  0  0
   48.4891    7.2150   13.3377 C   0  0  0  0  0  0  0  0  0  0  0  0
   44.5588    3.1441   11.5421 C   0  0  0  0  0  0  0  0  0  0  0  0
   43.2323    5.1291   11.1965 C   0  0  0  0  0  0  0  0  0  0  0  0
   43.4413    3.7671   10.9899 C   0  0  0  0  0  0  0  0  0  0  0  0
   45.9101    6.2672   12.1827 S   0  0  0  0  0  0  0  0  0  0  0  0
   45.5498    7.4654   12.8969 O   0  0  0  0  0  0  0  0  0  0  0  0
   46.5209    6.2634   10.8778 O   0  0  0  0  0  0  0  0  0  0  0  0
   46.8547    5.3797   13.1280 O   0  0  0  0  0  0  0  0  0  0  0  0
   44.5891    5.3590   12.1255 O   0  0  0  0  0  0  0  0  0  0  0  0
   43.9399    6.2692   13.2108 H   0  0  0  0  0  0  0  0  0  0  0  0
   44.8375    5.1479   14.2091 H   0  0  0  0  0  0  0  0  0  0  0  0
   43.3465    2.9013   11.8328 H   0  0  0  0  0  0  0  0  0  0  0  0
   43.6450    3.1888   13.4100 H   0  0  0  0  0  0  0  0  0  0  0  0
   45.4947    3.8448   12.1081 H   0  0  0  0  0  0  0  0  0  0  0  0
   45.0788    8.1526   12.2582 H   0  0  0  0  0  0  0  0  0  0  0  0
   47.3814    4.8157   13.7359 H   0  0  0  0  0  0  0  0  0  0  0  0
   44.1757    4.2550   10.0259 H   0  0  0  0  0  0  0  0  0  0  0  0
   43.4863    5.7235   10.7394 H   0  0  0  0  0  0  0  0  0  0  0  0
   45.2221    5.6233   10.3939 H   0  0  0  0  0  0  0  0  0  0  0  0
   47.1622    9.4385   11.9447 H   0  0  0  0  0  0  0  0  0  0  0  0
   49.4551    6.1159   13.4120 H   0  0  0  0  0  0  0  0  0  0  0  0
   49.3534    8.4269   12.5173 H   0  0  0  0  0  0  0  0  0  0  0  0
   46.4638    7.2314   11.2189 H   0  0  0  0  0  0  0  0  0  0  0  0
   47.3207    5.7132   11.2530 H   0  0  0  0  0  0  0  0  0  0  0  0
   46.6296    8.6213   13.2769 H   0  0  0  0  0  0  0  0  0  0  0  0
   46.8331    7.9539   14.7507 H   0  0  0  0  0  0  0  0  0  0  0  0
   47.0027    5.7648   13.8696 H   0  0  0  0  0  0  0  0  0  0  0  0
   46.1903    3.6131   11.5244 H   0  0  0  0  0  0  0  0  0  0  0  0
   44.0573    7.3049   12.1696 H   0  0  0  0  0  0  0  0  0  0  0  0
   48.8360    7.8055   12.4913 H   0  0  0  0  0  0  0  0  0  0  0  0
   49.1895    6.0871   12.7402 H   0  0  0  0  0  0  0  0  0  0  0  0
   49.0438    7.1647   14.1322 H   0  0  0  0  0  0  0  0  0  0  0  0
   41.9262    6.0569   12.2036 H   0  0  0  0  0  0  0  0  0  0  0  0
   44.0536    2.3800   11.5656 H   0  0  0  0  0  0  0  0  0  0  0  0
   41.9164    3.5939   11.9015 H   0  0  0  0  0  0  0  0  0  0  0  0
   44.6024    6.8474   13.1061 H   0  0  0  0  0  0  0  0  0  0  0  0
   44.0463    6.2516   11.5456 H   0  0  0  0  0  0  0  0  0  0  0  0
   46.4663    5.4286   11.0836 H   0  0  0  0  0  0  0  0  0  0  0  0
   45.5776    7.6537   10.3920 H   0  0  0  0  0  0  0  0  0  0  0  0
   46.3660    8.2947   11.6787 H   0  0  0  0  0  0  0  0  0  0  0  0
   48.2916    5.1408   13.9597 H   0  0  0  0  0  0  0  0  0  0  0  0
   44.3673    2.9538   12.4946 H   0  0  0  0  0  0  0  0  0  0  0  0
   45.7000    6.7239   14.0178 H   0  0  0  0  0  0  0  0  0  0  0  0
   46.7834    5.3578   14.0080 H   0  0  0  0  0  0  0  0  0  0  0  0
   47.3772    8.5543   11.3765 H   0  0  0  0  0  0  0  0  0  0  0  0
   46.4350    8.7059   12.6985 H   0  0  0  0  0  0  0  0  0  0  0  0
   47.6079    6.2179   11.6573 H   0  0  0  0  0  0  0  0  0  0  0  0
   46.3350    3.3807   12.7238 H   0  0  0  0  0  0  0  0  0  0  0  0
   43.9715    6.9334   12.1014 H   0  0  0  0  0  0  0  0  0  0  0  0
   49.2252    7.7674   12.7430 H   0  0  0  0  0  0  0  0  0  0  0  0
   48.9846    6.3162   13.7207 H   0  0  0  0  0  0  0  0  0  0  0  0
   48.2094    7.8371   14.1954 H   0  0  0  0  0  0  0  0  0  0  0  0
   44.7247    2.0827   11.3784 H   0  0  0  0  0  0  0  0  0  0  0  0
   42.3662    5.6196   10.7610 H   0  0  0  0  0  0  0  0  0  0  0  0
   42.7360    3.1931   10.3954 H   0  0  0  0  0  0  0  0  0  0  0  0
   47.3160    4.7352   12.5522 H   0  0  0  0  0  0  0  0  0  0  0  0
   44.0427    5.5945   12.9039 H   0  0  0  0  0  0  0  0  0  0  0  0
  4  2  1  0
  3  1  1  0
  4  1  1  0
  5  3  2  0
  6  3  1  0
  4  7  1  0
  8  5  1  0
  9  6  2  0
 10  8  2  0
  9 10  1  0
 12 14  1  0
 13 11  1  0
 14 11  1  0
 15 13  2  0
 16 13  1  0
 17 14  1  0
 18 16  2  0
 19 15  1  0
 20 18  1  0
 19 20  2  0
 22 24  1  0
 23 21  1  0
 24 21  1  0
 25 22  2  0
 26 23  2  0
 27 24  1  0
 28 22  1  0
 29 23  1  0
 33 31  1  0
 32 30  1  0
 33 30  1  0
 34 32  2  0
 35 32  1  0
 33 36  1  0
 37 34  1  0
 38 35  2  0
 39 37  2  0
 38 39  1  0
 41 40  2  0
 42 40  2  0
 43 40  1  0
 44 40  1  0
  1 45  1  0
  1 46  1  0
  2 47  1  0
  2 48  1  0
  4 49  1  6
  5 50  1  0
  6 51  1  0
  7 52  1  0
  7 53  1  0
  7 54  1  0
  8 55  1  0
  9 56  1  0
 10 57  1  0
 11 58  1  0
 11 59  1  0
 12 60  1  0
 12 61  1  0
 14 62  1  1
 15 63  1  0
 16 64  1  0
 17 65  1  0
 17 66  1  0
 17 67  1  0
 18 68  1  0
 19 69  1  0
 20 70  1  0
 21 71  1  0
 21 72  1  0
 24 73  1  6
 27 74  1  0
 27 75  1  0
 28 76  1  0
 29 77  1  0
 30 78  1  0
 30 79  1  0
 31 80  1  0
 31 81  1  0
 33 82  1  6
 34 83  1  0
 35 84  1  0
 36 85  1  0
 36 86  1  0
 36 87  1  0
 37 88  1  0
 38 89  1  0
 39 90  1  0
 43 91  1  0
 44 92  1  0
M  END
> <Uni-Dock RESULT> 
ENERGY=   -7.552  LOWER_BOUND=    2.437  UPPER_BOUND=    4.537
INTER + INTRA:          -7.552
INTER:                  -7.552
INTRA:                   0.000
UNBOUND:                 0.000

$$$$

     RDKit          3D

 92 90  0  0  0  0  0  0  0  0999 V2000
   45.8112    6.6707   11.1984 C   0  0  0  0  0  0  0  0  0  0  0  0
   47.5089    8.1819   12.1488 N   0  0  0  0  0  0  0  0  0  0  0  0
   44.8484    5.5300   11.4364 C   0  0  0  0  0  0  0  0  0  0  0  0
   46.4517    7.2196   12.4903 C   0  0  1  0  0  0  0  0  0  0  0  0
   43.4655    5.7329   11.3348 C   0  0  0  0  0  0  0  0  0  0  0  0
   45.3249    4.2541   11.7685 C   0  0  0  0  0  0  0  0  0  0  0  0
   45.4335    7.9202   13.3906 C   0  0  0  0  0  0  0  0  0  0  0  0
   42.5771    4.6810   11.5634 C   0  0  0  0  0  0  0  0  0  0  0  0
   44.4349    3.2035   11.9964 C   0  0  0  0  0  0  0  0  0  0  0  0
   43.0617    3.4171   11.8944 C   0  0  0  0  0  0  0  0  0  0  0  0
   44.3953    5.4561   12.6686 C   0  0  0  0  0  0  0  0  0  0  0  0
   43.8280    4.8999   10.3032 N   0  0  0  0  0  0  0  0  0  0  0  0
   45.2670    6.6855   12.5467 C   0  0  0  0  0  0  0  0  0  0  0  0
   44.5609    4.4611   11.4989 C   0  0  2  0  0  0  0  0  0  0  0  0
   46.4853    6.7638   13.2362 C   0  0  0  0  0  0  0  0  0  0  0  0
   44.8788    7.7591   11.7349 C   0  0  0  0  0  0  0  0  0  0  0  0
   44.0554    3.0748   11.9036 C   0  0  0  0  0  0  0  0  0  0  0  0
   45.6872    8.8912   11.6209 C   0  0  0  0  0  0  0  0  0  0  0  0
   47.2927    7.8972   13.1220 C   0  0  0  0  0  0  0  0  0  0  0  0
   46.8931    8.9609   12.3155 C   0  0  0  0  0  0  0  0  0  0  0  0
   45.0073    6.9623   11.7546 C   0  0  0  0  0  0  0  0  0  0  0  0
   44.8111    4.4890   11.9267 C   0  0  0  0  0  0  0  0  0  0  0  0
   46.5074    6.9579   11.7292 C   0  0  0  0  0  0  0  0  0  0  0  0
   44.4872    5.8181   12.6151 C   0  0  2  0  0  0  0  0  0  0  0  0
   44.1496    3.9452   11.0552 O   0  0  0  0  0  0  0  0  0  0  0  0
   47.2085    6.5986   10.7991 O   0  0  0  0  0  0  0  0  0  0  0  0
   43.0201    5.9179   12.8066 N   0  0  0  0  0  0  0  0  0  0  0  0
   45.9747    3.9524   12.3437 O   0  0  0  0  0  0  0  0  0  0  0  0
   47.0513    7.4071   12.8741 O   0  0  0  0  0  0  0  0  0  0  0  0
   45.2581    5.2604   11.3422 C   0  0  0  0  0  0  0  0  0  0  0  0
   42.8224    5.3104   11.8821 N   0  0  0  0  0  0  0  0  0  0  0  0
   45.8071    6.4699   12.0647 C   0  0  0  0  0  0  0  0  0  0  0  0
   44.0826    4.5801   12.0777 C   0  0  1  0  0  0  0  0  0  0  0  0
   46.9541    6.3604   12.8637 C   0  0  0  0  0  0  0  0  0  0  0  0
   45.1733    7.7146   11.9579 C   0  0  0  0  0  0  0  0  0  0  0  0
   43.9012    3.1453   11.5786 C   0  0  0  0  0  0  0  0  0  0  0  0
   47.4603    7.4760   13.5334 C   0  0  0  0  0  0  0  0  0  0  0  0
   45.6796    8.8289   12.6289 C   0  0  0  0  0  0  0  0  0  0  0  0
   46.8238    8.7100   13.4152 C   0  0  0  0  0  0  0  0  0  0  0  0
   44.6649    5.9683   12.1540 S   0  0  0  0  0  0  0  0  0  0  0  0
   43.8821    6.0605   10.9481 O   0  0  0  0  0  0  0  0  0  0  0  0
   44.0973    5.8305   13.4710 O   0  0  0  0  0  0  0  0  0  0  0  0
   45.7147    4.7670   11.9848 O   0  0  0  0  0  0  0  0  0  0  0  0
   45.6456    7.2377   12.1561 O   0  0  0  0  0  0  0  0  0  0  0  0
   45.3040    7.4794   10.6552 H   0  0  0  0  0  0  0  0  0  0  0  0
   46.5942    6.3062   10.5190 H   0  0  0  0  0  0  0  0  0  0  0  0
   47.9482    8.5221   13.0036 H   0  0  0  0  0  0  0  0  0  0  0  0
   48.2419    7.7101   11.6203 H   0  0  0  0  0  0  0  0  0  0  0  0
   46.9114    6.4000   13.0556 H   0  0  0  0  0  0  0  0  0  0  0  0
   43.0711    6.7140   11.0793 H   0  0  0  0  0  0  0  0  0  0  0  0
   46.3939    4.0705   11.8484 H   0  0  0  0  0  0  0  0  0  0  0  0
   45.9181    8.3383   14.2803 H   0  0  0  0  0  0  0  0  0  0  0  0
   44.9293    8.7391   12.8652 H   0  0  0  0  0  0  0  0  0  0  0  0
   44.6681    7.2205   13.7414 H   0  0  0  0  0  0  0  0  0  0  0  0
   41.5063    4.8484   11.4828 H   0  0  0  0  0  0  0  0  0  0  0  0
   44.8132    2.2174   12.2522 H   0  0  0  0  0  0  0  0  0  0  0  0
   42.3691    2.5985   12.0713 H   0  0  0  0  0  0  0  0  0  0  0  0
   43.3458    5.7638   12.7729 H   0  0  0  0  0  0  0  0  0  0  0  0
   44.6409    4.9548   13.6145 H   0  0  0  0  0  0  0  0  0  0  0  0
   42.8271    4.9085   10.4939 H   0  0  0  0  0  0  0  0  0  0  0  0
   43.9696    4.2267    9.5512 H   0  0  0  0  0  0  0  0  0  0  0  0
   45.6226    4.3764   11.2371 H   0  0  0  0  0  0  0  0  0  0  0  0
   46.8142    5.9419   13.8674 H   0  0  0  0  0  0  0  0  0  0  0  0
   43.9460    7.7114   11.1772 H   0  0  0  0  0  0  0  0  0  0  0  0
   42.9956    3.0985   12.1812 H   0  0  0  0  0  0  0  0  0  0  0  0
   44.6200    2.6930   12.7612 H   0  0  0  0  0  0  0  0  0  0  0  0
   44.1762    2.3566   11.0849 H   0  0  0  0  0  0  0  0  0  0  0  0
   45.3766    9.7156   10.9849 H   0  0  0  0  0  0  0  0  0  0  0  0
   48.2347    7.9489   13.6613 H   0  0  0  0  0  0  0  0  0  0  0  0
   47.5224    9.8419   12.2247 H   0  0  0  0  0  0  0  0  0  0  0  0
   44.6493    6.8867   10.7203 H   0  0  0  0  0  0  0  0  0  0  0  0
   44.6777    7.9378   12.1323 H   0  0  0  0  0  0  0  0  0  0  0  0
   44.9475    5.8182   13.6094 H   0  0  0  0  0  0  0  0  0  0  0  0
   42.7599    6.8732   13.0435 H   0  0  0  0  0  0  0  0  0  0  0  0
   42.5569    5.6949   11.9218 H   0  0  0  0  0  0  0  0  0  0  0  0
   46.0635    3.1359   11.8077 H   0  0  0  0  0  0  0  0  0  0  0  0
   48.0191    7.3382   12.7279 H   0  0  0  0  0  0  0  0  0  0  0  0
   44.9661    5.5477   10.3229 H   0  0  0  0  0  0  0  0  0  0  0  0
   46.0762    4.5391   11.2120 H   0  0  0  0  0  0  0  0  0  0  0  0
   42.0750    4.8420   12.3925 H   0  0  0  0  0  0  0  0  0  0  0  0
   42.5561    5.2853   10.8990 H   0  0  0  0  0  0  0  0  0  0  0  0
   44.2940    4.5453   13.1534 H   0  0  0  0  0  0  0  0  0  0  0  0
   47.4617    5.4048   12.9697 H   0  0  0  0  0  0  0  0  0  0  0  0
   44.2720    7.8176   11.3576 H   0  0  0  0  0  0  0  0  0  0  0  0
   43.0756    2.6478   12.0997 H   0  0  0  0  0  0  0  0  0  0  0  0
   44.8065    2.5558   11.7600 H   0  0  0  0  0  0  0  0  0  0  0  0
   43.6905    3.1171   10.5035 H   0  0  0  0  0  0  0  0  0  0  0  0
   48.3504    7.3814   14.1494 H   0  0  0  0  0  0  0  0  0  0  0  0
   45.1764    9.7878   12.5408 H   0  0  0  0  0  0  0  0  0  0  0  0
   47.2160    9.5774   13.9386 H   0  0  0  0  0  0  0  0  0  0  0  0
   46.0290    4.5296   12.8818 H   0  0  0  0  0  0  0  0  0  0  0  0
   45.7936    7.4898   11.2210 H   0  0  0  0  0  0  0  0  0  0  0  0
  4  2  1  0
  3  1  1  0
  4  1  1  0
  5  3  2  0
  6  3  1  0
  4  7  1  0
  8  5  1  0
  9  6  2  0
 10  8  2  0
  9 10  1  0
 12 14  1  0
 13 11  1  0
 14 11  1  0
 15 13  2  0
 16 13  1  0
 17 14  1  0
 18 16  2  0
 19 15  1  0
 20 18  1  0
 19 20  2  0
 22 24  1  0
 23 21  1  0
 24 21  1  0
 25 22  2  0
 26 23  2  0
 27 24  1  0
 28 22  1  0
 29 23  1  0
 33 31  1  0
 32 30  1  0
 33 30  1  0
 34 32  2  0
 35 32  1  0
 33 36  1  0
 37 34  1  0
 38 35  2  0
 39 37  2  0
 38 39  1  0
 41 40  2  0
 42 40  2  0
 43 40  1  0
 44 40  1  0
  1 45  1  0
  1 46  1  0
  2 47  1  0
  2 48  1  0
  4 49  1  6
  5 50  1  0
  6 51  1  0
  7 52  1  0
  7 53  1  0
  7 54  1  0
  8 55  1  0
  9 56  1  0
 10 57  1  0
 11 58  1  0
 11 59  1  0
 12 60  1  0
 12 61  1  0
 14 62  1  1
 15 63  1  0
 16 64  1  0
 17 65  1  0
 17 66  1  0
 17 67  1  0
 18 68  1  0
 19 69  1  0
 20 70  1  0
 21 71  1  0
 21 72  1  0
 24 73  1  6
 27 74  1  0
 27 75  1  0
 28 76  1  0
 29 77  1  0
 30 78  1  0
 30 79  1  0
 31 80  1  0
 31 81  1  0
 33 82  1  6
 34 83  1  0
 35 84  1  0
 36 85  1  0
 36 86  1  0
 36 87  1  0
 37 88  1  0
 38 89  1  0
 39 90  1  0
 43 91  1  0
 44 92  1  0
M  END
> <Uni-Dock RESULT> 
ENERGY=   -7.508  LOWER_BOUND=    2.368  UPPER_BOUND=    3.920
INTER + INTRA:          -7.508
INTER:                  -7.508
INTRA:                   0.000
UNBOUND:                 0.000

$$$$

     RDKit          3D

 92 90  0  0  0  0  0  0  0  0999 V2000
   49.5023    5.3255   20.1065 C   0  0  0  0  0  0  0  0  0  0  0  0
   49.2276    5.8973   22.4869 N   0  0  0  0  0  0  0  0  0  0  0  0
   48.8649    4.7849   18.8470 C   0  0  0  0  0  0  0  0  0  0  0  0
   48.4995    5.5629   21.2547 C   0  0  1  0  0  0  0  0  0  0  0  0
   48.6843    5.6112   17.7296 C   0  0  0  0  0  0  0  0  0  0  0  0
   48.4394    3.4509   18.7808 C   0  0  0  0  0  0  0  0  0  0  0  0
   47.5234    6.6992   20.9471 C   0  0  0  0  0  0  0  0  0  0  0  0
   48.0876    5.1134   16.5702 C   0  0  0  0  0  0  0  0  0  0  0  0
   47.8432    2.9549   17.6204 C   0  0  0  0  0  0  0  0  0  0  0  0
   47.6670    3.7860   16.5159 C   0  0  0  0  0  0  0  0  0  0  0  0
   47.5678    4.9869   18.7706 C   0  0  0  0  0  0  0  0  0  0  0  0
   49.6161    4.6618   17.3831 N   0  0  0  0  0  0  0  0  0  0  0  0
   48.0881    5.6535   20.0240 C   0  0  0  0  0  0  0  0  0  0  0  0
   48.5604    3.9816   18.1462 C   0  0  2  0  0  0  0  0  0  0  0  0
   47.7147    5.1780   21.2890 C   0  0  0  0  0  0  0  0  0  0  0  0
   48.9600    6.7470   19.9425 C   0  0  0  0  0  0  0  0  0  0  0  0
   47.8250    3.0164   17.2142 C   0  0  0  0  0  0  0  0  0  0  0  0
   49.4421    7.3580   21.1011 C   0  0  0  0  0  0  0  0  0  0  0  0
   48.1970    5.7907   22.4472 C   0  0  0  0  0  0  0  0  0  0  0  0
   49.0595    6.8811   22.3531 C   0  0  0  0  0  0  0  0  0  0  0  0
   48.8361    5.9854   19.7049 C   0  0  0  0  0  0  0  0  0  0  0  0
   48.2110    3.9068   18.4908 C   0  0  0  0  0  0  0  0  0  0  0  0
   49.1984    5.2732   20.9747 C   0  0  0  0  0  0  0  0  0  0  0  0
   47.7007    5.2601   18.9942 C   0  0  2  0  0  0  0  0  0  0  0  0
   48.8066    3.7019   17.4438 O   0  0  0  0  0  0  0  0  0  0  0  0
   50.1888    4.5859   21.1548 O   0  0  0  0  0  0  0  0  0  0  0  0
   47.2026    6.0479   17.8410 N   0  0  0  0  0  0  0  0  0  0  0  0
   47.9834    2.9037   19.3611 O   0  0  0  0  0  0  0  0  0  0  0  0
   48.2980    5.4621   21.9556 O   0  0  0  0  0  0  0  0  0  0  0  0
   49.0024    4.3502   19.0508 C   0  0  0  0  0  0  0  0  0  0  0  0
   47.9430    5.5660   17.1466 N   0  0  0  0  0  0  0  0  0  0  0  0
   48.6363    5.1881   20.2550 C   0  0  0  0  0  0  0  0  0  0  0  0
   47.9170    4.3370   17.9520 C   0  0  1  0  0  0  0  0  0  0  0  0
   48.1102    4.5855   21.4065 C   0  0  0  0  0  0  0  0  0  0  0  0
   48.8049    6.5786   20.2359 C   0  0  0  0  0  0  0  0  0  0  0  0
   48.1139    3.1371   17.0235 C   0  0  0  0  0  0  0  0  0  0  0  0
   47.7692    5.3586   22.5181 C   0  0  0  0  0  0  0  0  0  0  0  0
   48.4626    7.3505   21.3473 C   0  0  0  0  0  0  0  0  0  0  0  0
   47.9464    6.7404   22.4887 C   0  0  0  0  0  0  0  0  0  0  0  0
   48.2085    5.2886   19.0841 S   0  0  0  0  0  0  0  0  0  0  0  0
   49.2045    5.6866   18.1222 O   0  0  0  0  0  0  0  0  0  0  0  0
   46.7935    5.4920   18.9054 O   0  0  0  0  0  0  0  0  0  0  0  0
   48.4059    3.7282   19.4003 O   0  0  0  0  0  0  0  0  0  0  0  0
   48.6413    5.9444   20.4826 O   0  0  0  0  0  0  0  0  0  0  0  0
   50.0450    6.2533   19.8810 H   0  0  0  0  0  0  0  0  0  0  0  0
   50.2698    4.6058   20.4237 H   0  0  0  0  0  0  0  0  0  0  0  0
   48.5636    6.0270   23.2497 H   0  0  0  0  0  0  0  0  0  0  0  0
   49.8209    5.1133   22.7560 H   0  0  0  0  0  0  0  0  0  0  0  0
   47.9230    4.6489   21.4410 H   0  0  0  0  0  0  0  0  0  0  0  0
   49.0054    6.6503   17.7566 H   0  0  0  0  0  0  0  0  0  0  0  0
   48.5731    2.7886   19.6331 H   0  0  0  0  0  0  0  0  0  0  0  0
   46.8494    6.8776   21.7926 H   0  0  0  0  0  0  0  0  0  0  0  0
   48.0515    7.6354   20.7336 H   0  0  0  0  0  0  0  0  0  0  0  0
   46.8965    6.4589   20.0824 H   0  0  0  0  0  0  0  0  0  0  0  0
   47.9514    5.7622   15.7090 H   0  0  0  0  0  0  0  0  0  0  0  0
   47.5174    1.9190   17.5776 H   0  0  0  0  0  0  0  0  0  0  0  0
   47.2034    3.3992   15.6124 H   0  0  0  0  0  0  0  0  0  0  0  0
   47.2825    5.7572   18.0410 H   0  0  0  0  0  0  0  0  0  0  0  0
   46.6313    4.4705   19.0212 H   0  0  0  0  0  0  0  0  0  0  0  0
   49.2086    5.1495   16.5866 H   0  0  0  0  0  0  0  0  0  0  0  0
   50.2566    3.9694   16.9967 H   0  0  0  0  0  0  0  0  0  0  0  0
   49.0370    3.3951   18.9409 H   0  0  0  0  0  0  0  0  0  0  0  0
   47.0451    4.3264   21.3812 H   0  0  0  0  0  0  0  0  0  0  0  0
   49.2766    7.1205   18.9711 H   0  0  0  0  0  0  0  0  0  0  0  0
   47.3234    3.5490   16.3983 H   0  0  0  0  0  0  0  0  0  0  0  0
   47.0653    2.4512   17.7650 H   0  0  0  0  0  0  0  0  0  0  0  0
   48.5171    2.2914   16.7716 H   0  0  0  0  0  0  0  0  0  0  0  0
   50.1208    8.2031   21.0243 H   0  0  0  0  0  0  0  0  0  0  0  0
   47.9009    5.4156   23.4231 H   0  0  0  0  0  0  0  0  0  0  0  0
   49.4367    7.3564   23.2543 H   0  0  0  0  0  0  0  0  0  0  0  0
   49.7351    6.0428   19.0787 H   0  0  0  0  0  0  0  0  0  0  0  0
   48.5633    7.0164   19.9607 H   0  0  0  0  0  0  0  0  0  0  0  0
   46.8505    5.0863   19.6632 H   0  0  0  0  0  0  0  0  0  0  0  0
   47.0771    7.0224   18.1079 H   0  0  0  0  0  0  0  0  0  0  0  0
   47.9096    6.0316   17.1014 H   0  0  0  0  0  0  0  0  0  0  0  0
   48.3805    2.1193   18.9265 H   0  0  0  0  0  0  0  0  0  0  0  0
   48.6452    4.9388   22.7094 H   0  0  0  0  0  0  0  0  0  0  0  0
   49.9630    4.6967   18.6455 H   0  0  0  0  0  0  0  0  0  0  0  0
   49.1909    3.3235   19.3927 H   0  0  0  0  0  0  0  0  0  0  0  0
   47.2058    5.5279   16.4439 H   0  0  0  0  0  0  0  0  0  0  0  0
   48.8220    5.6267   16.6350 H   0  0  0  0  0  0  0  0  0  0  0  0
   46.9267    4.2534   18.4159 H   0  0  0  0  0  0  0  0  0  0  0  0
   47.9624    3.5091   21.4458 H   0  0  0  0  0  0  0  0  0  0  0  0
   49.1949    7.0682   19.3462 H   0  0  0  0  0  0  0  0  0  0  0  0
   47.3438    3.1108   16.2444 H   0  0  0  0  0  0  0  0  0  0  0  0
   48.0450    2.1989   17.5848 H   0  0  0  0  0  0  0  0  0  0  0  0
   49.0932    3.1650   16.5325 H   0  0  0  0  0  0  0  0  0  0  0  0
   47.3632    4.8823   23.4064 H   0  0  0  0  0  0  0  0  0  0  0  0
   48.5948    8.4285   21.3182 H   0  0  0  0  0  0  0  0  0  0  0  0
   47.6785    7.3423   23.3526 H   0  0  0  0  0  0  0  0  0  0  0  0
   47.5763    3.4098   19.8126 H   0  0  0  0  0  0  0  0  0  0  0  0
   49.6143    6.0562   20.4604 H   0  0  0  0  0  0  0  0  0  0  0  0
  4  2  1  0
  3  1  1  0
  4  1  1  0
  5  3  2  0
  6  3  1  0
  4  7  1  0
  8  5  1  0
  9  6  2  0
 10  8  2  0
  9 10  1  0
 12 14  1  0
 13 11  1  0
 14 11  1  0
 15 13  2  0
 16 13  1  0
 17 14  1  0
 18 16  2  0
 19 15  1  0
 20 18  1  0
 19 20  2  0
 22 24  1  0
 23 21  1  0
 24 21  1  0
 25 22  2  0
 26 23  2  0
 27 24  1  0
 28 22  1  0
 29 23  1  0
 33 31  1  0
 32 30  1  0
 33 30  1  0
 34 32  2  0
 35 32  1  0
 33 36  1  0
 37 34  1  0
 38 35  2  0
 39 37  2  0
 38 39  1  0
 41 40  2  0
 42 40  2  0
 43 40  1  0
 44 40  1  0
  1 45  1  0
  1 46  1  0
  2 47  1  0
  2 48  1  0
  4 49  1  6
  5 50  1  0
  6 51  1  0
  7 52  1  0
  7 53  1  0
  7 54  1  0
  8 55  1  0
  9 56  1  0
 10 57  1  0
 11 58  1  0
 11 59  1  0
 12 60  1  0
 12 61  1  0
 14 62  1  1
 15 63  1  0
 16 64  1  0
 17 65  1  0
 17 66  1  0
 17 67  1  0
 18 68  1  0
 19 69  1  0
 20 70  1  0
 21 71  1  0
 21 72  1  0
 24 73  1  6
 27 74  1  0
 27 75  1  0
 28 76  1  0
 29 77  1  0
 30 78  1  0
 30 79  1  0
 31 80  1  0
 31 81  1  0
 33 82  1  6
 34 83  1  0
 35 84  1  0
 36 85  1  0
 36 86  1  0
 36 87  1  0
 37 88  1  0
 38 89  1  0
 39 90  1  0
 43 91  1  0
 44 92  1  0
M  END
> <Uni-Dock RESULT> 
ENERGY=   -7.138  LOWER_BOUND=    8.163  UPPER_BOUND=   10.412
INTER + INTRA:          -7.138
INTER:                  -7.138
INTRA:                   0.000
UNBOUND:                 0.000

$$$$

     RDKit          3D

 92 90  0  0  0  0  0  0  0  0999 V2000
   47.2991    6.0220   12.2623 C   0  0  0  0  0  0  0  0  0  0  0  0
   49.2586    6.8196   13.5244 N   0  0  0  0  0  0  0  0  0  0  0  0
   45.7930    5.9219   12.1823 C   0  0  0  0  0  0  0  0  0  0  0  0
   47.7989    6.9370   13.3996 C   0  0  1  0  0  0  0  0  0  0  0  0
   45.0890    6.5808   11.1653 C   0  0  0  0  0  0  0  0  0  0  0  0
   45.0782    5.1738   13.1280 C   0  0  0  0  0  0  0  0  0  0  0  0
   47.4516    8.4063   13.1574 C   0  0  0  0  0  0  0  0  0  0  0  0
   43.6975    6.4948   11.0976 C   0  0  0  0  0  0  0  0  0  0  0  0
   43.6869    5.0889   13.0584 C   0  0  0  0  0  0  0  0  0  0  0  0
   42.9970    5.7496   12.0439 C   0  0  0  0  0  0  0  0  0  0  0  0
   45.1556    6.9038   12.7812 C   0  0  0  0  0  0  0  0  0  0  0  0
   44.9544    5.2313   10.9403 N   0  0  0  0  0  0  0  0  0  0  0  0
   46.6412    7.1747   12.8563 C   0  0  0  0  0  0  0  0  0  0  0  0
   44.8102    5.4511   12.3862 C   0  0  2  0  0  0  0  0  0  0  0  0
   47.3064    7.1508   14.0902 C   0  0  0  0  0  0  0  0  0  0  0  0
   47.3784    7.4411   11.6952 C   0  0  0  0  0  0  0  0  0  0  0  0
   43.3739    5.1159   12.7930 C   0  0  0  0  0  0  0  0  0  0  0  0
   48.7506    7.6869   11.7667 C   0  0  0  0  0  0  0  0  0  0  0  0
   48.6789    7.3978   14.1605 C   0  0  0  0  0  0  0  0  0  0  0  0
   49.4003    7.6668   12.9991 C   0  0  0  0  0  0  0  0  0  0  0  0
   46.8698    6.9219   12.0467 C   0  0  0  0  0  0  0  0  0  0  0  0
   44.8868    5.6455   12.8364 C   0  0  0  0  0  0  0  0  0  0  0  0
   47.8246    6.2451   12.9855 C   0  0  0  0  0  0  0  0  0  0  0  0
   45.4927    7.0439   12.6860 C   0  0  2  0  0  0  0  0  0  0  0  0
   44.2766    5.0250   11.9788 O   0  0  0  0  0  0  0  0  0  0  0  0
   48.2286    5.0986   12.8953 O   0  0  0  0  0  0  0  0  0  0  0  0
   44.5892    7.8748   11.8540 N   0  0  0  0  0  0  0  0  0  0  0  0
   45.1309    5.0951   14.0419 O   0  0  0  0  0  0  0  0  0  0  0  0
   48.2251    7.0442   13.9902 O   0  0  0  0  0  0  0  0  0  0  0  0
   45.8775    5.5181   12.4637 C   0  0  0  0  0  0  0  0  0  0  0  0
   44.2392    6.9776   11.2751 N   0  0  0  0  0  0  0  0  0  0  0  0
   46.9412    6.4856   12.9315 C   0  0  0  0  0  0  0  0  0  0  0  0
   44.4553    6.1204   12.4492 C   0  0  1  0  0  0  0  0  0  0  0  0
   47.3969    6.4542   14.2571 C   0  0  0  0  0  0  0  0  0  0  0  0
   47.4791    7.4353   12.0534 C   0  0  0  0  0  0  0  0  0  0  0  0
   43.4057    5.0073   12.4444 C   0  0  0  0  0  0  0  0  0  0  0  0
   48.3771    7.3490   14.6908 C   0  0  0  0  0  0  0  0  0  0  0  0
   48.4581    8.3300   12.4885 C   0  0  0  0  0  0  0  0  0  0  0  0
   48.9081    8.2858   13.8064 C   0  0  0  0  0  0  0  0  0  0  0  0
   45.8264    6.7461   12.4278 S   0  0  0  0  0  0  0  0  0  0  0  0
   45.6868    6.3343   11.0543 O   0  0  0  0  0  0  0  0  0  0  0  0
   45.0491    7.7969   13.0338 O   0  0  0  0  0  0  0  0  0  0  0  0
   45.6505    5.4548   13.3633 O   0  0  0  0  0  0  0  0  0  0  0  0
   47.3809    7.0764   12.6462 O   0  0  0  0  0  0  0  0  0  0  0  0
   47.7018    6.3627   11.2989 H   0  0  0  0  0  0  0  0  0  0  0  0
   47.6911    5.0049   12.4016 H   0  0  0  0  0  0  0  0  0  0  0  0
   49.5823    7.4045   14.2942 H   0  0  0  0  0  0  0  0  0  0  0  0
   49.5039    5.8616   13.7721 H   0  0  0  0  0  0  0  0  0  0  0  0
   47.3528    6.6255   14.3518 H   0  0  0  0  0  0  0  0  0  0  0  0
   45.6209    7.1682   10.4200 H   0  0  0  0  0  0  0  0  0  0  0  0
   45.6024    4.6494   13.9238 H   0  0  0  0  0  0  0  0  0  0  0  0
   47.8529    9.0414   13.9555 H   0  0  0  0  0  0  0  0  0  0  0  0
   47.8594    8.7637   12.2051 H   0  0  0  0  0  0  0  0  0  0  0  0
   46.3677    8.5590   13.1406 H   0  0  0  0  0  0  0  0  0  0  0  0
   43.1604    7.0098   10.3054 H   0  0  0  0  0  0  0  0  0  0  0  0
   43.1411    4.5057   13.7953 H   0  0  0  0  0  0  0  0  0  0  0  0
   41.9137    5.6826   11.9897 H   0  0  0  0  0  0  0  0  0  0  0  0
   44.6907    7.6174   12.0873 H   0  0  0  0  0  0  0  0  0  0  0  0
   44.7162    7.1318   13.7618 H   0  0  0  0  0  0  0  0  0  0  0  0
   44.2799    5.8030   10.4339 H   0  0  0  0  0  0  0  0  0  0  0  0
   44.7300    4.2620   10.7195 H   0  0  0  0  0  0  0  0  0  0  0  0
   45.4844    4.7595   12.9059 H   0  0  0  0  0  0  0  0  0  0  0  0
   46.7598    6.9395   15.0060 H   0  0  0  0  0  0  0  0  0  0  0  0
   46.8854    7.4467   10.7256 H   0  0  0  0  0  0  0  0  0  0  0  0
   42.6522    5.7807   12.3051 H   0  0  0  0  0  0  0  0  0  0  0  0
   43.2459    5.2163   13.8763 H   0  0  0  0  0  0  0  0  0  0  0  0
   43.1192    4.0840   12.5266 H   0  0  0  0  0  0  0  0  0  0  0  0
   49.3118    7.8886   10.8583 H   0  0  0  0  0  0  0  0  0  0  0  0
   49.1852    7.3782   15.1217 H   0  0  0  0  0  0  0  0  0  0  0  0
   50.4687    7.8567   13.0534 H   0  0  0  0  0  0  0  0  0  0  0  0
   46.8353    6.3390   11.1179 H   0  0  0  0  0  0  0  0  0  0  0  0
   47.2868    7.9029   11.7884 H   0  0  0  0  0  0  0  0  0  0  0  0
   45.5463    7.5101   13.6762 H   0  0  0  0  0  0  0  0  0  0  0  0
   45.0692    8.7188   11.5478 H   0  0  0  0  0  0  0  0  0  0  0  0
   44.3437    7.3503   11.0104 H   0  0  0  0  0  0  0  0  0  0  0  0
   44.7159    4.2083   13.9849 H   0  0  0  0  0  0  0  0  0  0  0  0
   48.8236    6.4808   14.5261 H   0  0  0  0  0  0  0  0  0  0  0  0
   46.1478    5.1332   11.4709 H   0  0  0  0  0  0  0  0  0  0  0  0
   45.8978    4.6412   13.1248 H   0  0  0  0  0  0  0  0  0  0  0  0
   43.2983    7.3678   11.3073 H   0  0  0  0  0  0  0  0  0  0  0  0
   44.2876    6.4189   10.4244 H   0  0  0  0  0  0  0  0  0  0  0  0
   44.3058    6.7294   13.3490 H   0  0  0  0  0  0  0  0  0  0  0  0
   46.9914    5.7321   14.9615 H   0  0  0  0  0  0  0  0  0  0  0  0
   47.1269    7.4885   11.0255 H   0  0  0  0  0  0  0  0  0  0  0  0
   42.3913    5.4217   12.4437 H   0  0  0  0  0  0  0  0  0  0  0  0
   43.5035    4.3803   13.3373 H   0  0  0  0  0  0  0  0  0  0  0  0
   43.5092    4.3608   11.5656 H   0  0  0  0  0  0  0  0  0  0  0  0
   48.7246    7.3161   15.7198 H   0  0  0  0  0  0  0  0  0  0  0  0
   48.8645    9.0642   11.7984 H   0  0  0  0  0  0  0  0  0  0  0  0
   49.6689    8.9838   14.1446 H   0  0  0  0  0  0  0  0  0  0  0  0
   45.4604    5.7776   14.2685 H   0  0  0  0  0  0  0  0  0  0  0  0
   47.8844    6.5343   12.0040 H   0  0  0  0  0  0  0  0  0  0  0  0
  4  2  1  0
  3  1  1  0
  4  1  1  0
  5  3  2  0
  6  3  1  0
  4  7  1  0
  8  5  1  0
  9  6  2  0
 10  8  2  0
  9 10  1  0
 12 14  1  0
 13 11  1  0
 14 11  1  0
 15 13  2  0
 16 13  1  0
 17 14  1  0
 18 16  2  0
 19 15  1  0
 20 18  1  0
 19 20  2  0
 22 24  1  0
 23 21  1  0
 24 21  1  0
 25 22  2  0
 26 23  2  0
 27 24  1  0
 28 22  1  0
 29 23  1  0
 33 31  1  0
 32 30  1  0
 33 30  1  0
 34 32  2  0
 35 32  1  0
 33 36  1  0
 37 34  1  0
 38 35  2  0
 39 37  2  0
 38 39  1  0
 41 40  2  0
 42 40  2  0
 43 40  1  0
 44 40  1  0
  1 45  1  0
  1 46  1  0
  2 47  1  0
  2 48  1  0
  4 49  1  6
  5 50  1  0
  6 51  1  0
  7 52  1  0
  7 53  1  0
  7 54  1  0
  8 55  1  0
  9 56  1  0
 10 57  1  0
 11 58  1  0
 11 59  1  0
 12 60  1  0
 12 61  1  0
 14 62  1  1
 15 63  1  0
 16 64  1  0
 17 65  1  0
 17 66  1  0
 17 67  1  0
 18 68  1  0
 19 69  1  0
 20 70  1  0
 21 71  1  0
 21 72  1  0
 24 73  1  6
 27 74  1  0
 27 75  1  0
 28 76  1  0
 29 77  1  0
 30 78  1  0
 30 79  1  0
 31 80  1  0
 31 81  1  0
 33 82  1  6
 34 83  1  0
 35 84  1  0
 36 85  1  0
 36 86  1  0
 36 87  1  0
 37 88  1  0
 38 89  1  0
 39 90  1  0
 43 91  1  0
 44 92  1  0
M  END
> <Uni-Dock RESULT> 
ENERGY=   -7.121  LOWER_BOUND=    2.979  UPPER_BOUND=    5.013
INTER + INTRA:          -7.121
INTER:                  -7.121
INTRA:                   0.000
UNBOUND:                 0.000

$$$$

     RDKit          3D

 92 90  0  0  0  0  0  0  0  0999 V2000
   46.5112    7.3007   13.4664 C   0  0  0  0  0  0  0  0  0  0  0  0
   48.4390    8.8338   13.4206 N   0  0  0  0  0  0  0  0  0  0  0  0
   45.4294    6.5945   12.6816 C   0  0  0  0  0  0  0  0  0  0  0  0
   47.5491    8.0202   12.5801 C   0  0  1  0  0  0  0  0  0  0  0  0
   45.4287    5.1976   12.5688 C   0  0  0  0  0  0  0  0  0  0  0  0
   44.4149    7.3272   12.0500 C   0  0  0  0  0  0  0  0  0  0  0  0
   48.4057    7.0402   11.7775 C   0  0  0  0  0  0  0  0  0  0  0  0
   44.4343    4.5472   11.8365 C   0  0  0  0  0  0  0  0  0  0  0  0
   43.4213    6.6749   11.3185 C   0  0  0  0  0  0  0  0  0  0  0  0
   43.4314    5.2856   11.2115 C   0  0  0  0  0  0  0  0  0  0  0  0
   45.7467    6.3472   11.4297 C   0  0  0  0  0  0  0  0  0  0  0  0
   44.3301    5.5424   13.3196 N   0  0  0  0  0  0  0  0  0  0  0  0
   46.9419    6.9666   12.1184 C   0  0  0  0  0  0  0  0  0  0  0  0
   44.4270    6.5079   12.2159 C   0  0  2  0  0  0  0  0  0  0  0  0
   47.3936    8.2412   11.7481 C   0  0  0  0  0  0  0  0  0  0  0  0
   47.6085    6.2840   13.1441 C   0  0  0  0  0  0  0  0  0  0  0  0
   43.2269    6.3139   11.2870 C   0  0  0  0  0  0  0  0  0  0  0  0
   48.7090    6.8596   13.7811 C   0  0  0  0  0  0  0  0  0  0  0  0
   48.4952    8.8155   12.3854 C   0  0  0  0  0  0  0  0  0  0  0  0
   49.1532    8.1243   13.4007 C   0  0  0  0  0  0  0  0  0  0  0  0
   46.8898    6.5494   12.8896 C   0  0  0  0  0  0  0  0  0  0  0  0
   44.6321    6.8097   11.8794 C   0  0  0  0  0  0  0  0  0  0  0  0
   47.0429    8.0075   13.2081 C   0  0  0  0  0  0  0  0  0  0  0  0
   46.0741    6.3665   11.6162 C   0  0  2  0  0  0  0  0  0  0  0  0
   43.7453    6.1308   12.3750 O   0  0  0  0  0  0  0  0  0  0  0  0
   46.4576    8.6154   14.0877 O   0  0  0  0  0  0  0  0  0  0  0  0
   46.0721    4.9486   11.1822 N   0  0  0  0  0  0  0  0  0  0  0  0
   44.4102    8.0968   11.5481 O   0  0  0  0  0  0  0  0  0  0  0  0
   47.9256    8.6283   12.4057 O   0  0  0  0  0  0  0  0  0  0  0  0
   45.1911    7.0262   12.7610 C   0  0  0  0  0  0  0  0  0  0  0  0
   45.1589    4.7246   11.7974 N   0  0  0  0  0  0  0  0  0  0  0  0
   46.6309    7.4589   12.5995 C   0  0  0  0  0  0  0  0  0  0  0  0
   44.6894    6.1067   11.6259 C   0  0  1  0  0  0  0  0  0  0  0  0
   46.9391    8.7124   12.0523 C   0  0  0  0  0  0  0  0  0  0  0  0
   47.6787    6.6113   12.9817 C   0  0  0  0  0  0  0  0  0  0  0  0
   43.1602    6.1037   11.5797 C   0  0  0  0  0  0  0  0  0  0  0  0
   48.2682    9.1119   11.9002 C   0  0  0  0  0  0  0  0  0  0  0  0
   49.0072    7.0113   12.8280 C   0  0  0  0  0  0  0  0  0  0  0  0
   49.3018    8.2619   12.2890 C   0  0  0  0  0  0  0  0  0  0  0  0
   46.0701    6.4459   12.1265 S   0  0  0  0  0  0  0  0  0  0  0  0
   45.6422    5.4901   13.1159 O   0  0  0  0  0  0  0  0  0  0  0  0
   46.3455    6.1106   10.7527 O   0  0  0  0  0  0  0  0  0  0  0  0
   45.0109    7.6504   12.0956 O   0  0  0  0  0  0  0  0  0  0  0  0
   47.3583    7.1827   12.7354 O   0  0  0  0  0  0  0  0  0  0  0  0
   47.0137    6.5875   14.1335 H   0  0  0  0  0  0  0  0  0  0  0  0
   46.0189    8.0262   14.1290 H   0  0  0  0  0  0  0  0  0  0  0  0
   49.1062    9.3289   12.8296 H   0  0  0  0  0  0  0  0  0  0  0  0
   47.8950    9.5512   13.8986 H   0  0  0  0  0  0  0  0  0  0  0  0
   47.0391    8.6923   11.8796 H   0  0  0  0  0  0  0  0  0  0  0  0
   46.2057    4.6069   13.0491 H   0  0  0  0  0  0  0  0  0  0  0  0
   44.3910    8.4119   12.1271 H   0  0  0  0  0  0  0  0  0  0  0  0
   49.1625    7.5711   11.1889 H   0  0  0  0  0  0  0  0  0  0  0  0
   48.9244    6.3307   12.4321 H   0  0  0  0  0  0  0  0  0  0  0  0
   47.7952    6.4669   11.0724 H   0  0  0  0  0  0  0  0  0  0  0  0
   44.4426    3.4635   11.7543 H   0  0  0  0  0  0  0  0  0  0  0  0
   42.6379    7.2510   10.8331 H   0  0  0  0  0  0  0  0  0  0  0  0
   42.6571    4.7781   10.6423 H   0  0  0  0  0  0  0  0  0  0  0  0
   45.9531    5.2874   11.2270 H   0  0  0  0  0  0  0  0  0  0  0  0
   45.6432    6.8121   10.4399 H   0  0  0  0  0  0  0  0  0  0  0  0
   44.2947    4.5941   12.9485 H   0  0  0  0  0  0  0  0  0  0  0  0
   43.4544    5.6857   13.8210 H   0  0  0  0  0  0  0  0  0  0  0  0
   44.3732    7.5180   12.6398 H   0  0  0  0  0  0  0  0  0  0  0  0
   46.8902    8.7960   10.9602 H   0  0  0  0  0  0  0  0  0  0  0  0
   47.2635    5.3017   13.4592 H   0  0  0  0  0  0  0  0  0  0  0  0
   43.2298    5.3183   10.8289 H   0  0  0  0  0  0  0  0  0  0  0  0
   43.2384    7.0557   10.4811 H   0  0  0  0  0  0  0  0  0  0  0  0
   42.2835    6.4347   11.8310 H   0  0  0  0  0  0  0  0  0  0  0  0
   49.2152    6.3215   14.5778 H   0  0  0  0  0  0  0  0  0  0  0  0
   48.8384    9.8034   12.0906 H   0  0  0  0  0  0  0  0  0  0  0  0
   50.0090    8.5722   13.8983 H   0  0  0  0  0  0  0  0  0  0  0  0
   46.4138    6.0615   13.7493 H   0  0  0  0  0  0  0  0  0  0  0  0
   47.8929    6.1159   12.7960 H   0  0  0  0  0  0  0  0  0  0  0  0
   46.4773    6.9611   10.7888 H   0  0  0  0  0  0  0  0  0  0  0  0
   47.0144    4.5654   11.2257 H   0  0  0  0  0  0  0  0  0  0  0  0
   45.5005    4.4056   11.8346 H   0  0  0  0  0  0  0  0  0  0  0  0
   43.4721    8.2451   11.7924 H   0  0  0  0  0  0  0  0  0  0  0  0
   47.9170    9.5613   12.7094 H   0  0  0  0  0  0  0  0  0  0  0  0
   45.0647    6.5422   13.7391 H   0  0  0  0  0  0  0  0  0  0  0  0
   44.5657    7.9280   12.8061 H   0  0  0  0  0  0  0  0  0  0  0  0
   44.8217    4.1524   11.0244 H   0  0  0  0  0  0  0  0  0  0  0  0
   44.7580    4.3249   12.6445 H   0  0  0  0  0  0  0  0  0  0  0  0
   45.0613    6.4768   10.6628 H   0  0  0  0  0  0  0  0  0  0  0  0
   46.1454    9.3871   11.7408 H   0  0  0  0  0  0  0  0  0  0  0  0
   47.4620    5.6274   13.3919 H   0  0  0  0  0  0  0  0  0  0  0  0
   42.7912    5.4619   10.7718 H   0  0  0  0  0  0  0  0  0  0  0  0
   42.7772    7.1136   11.3974 H   0  0  0  0  0  0  0  0  0  0  0  0
   42.7302    5.7451   12.5218 H   0  0  0  0  0  0  0  0  0  0  0  0
   48.4970   10.0858   11.4762 H   0  0  0  0  0  0  0  0  0  0  0  0
   49.8107    6.3430   13.1250 H   0  0  0  0  0  0  0  0  0  0  0  0
   50.3361    8.5715   12.1680 H   0  0  0  0  0  0  0  0  0  0  0  0
   45.1428    8.1295   11.2514 H   0  0  0  0  0  0  0  0  0  0  0  0
   47.2779    7.1459   13.7111 H   0  0  0  0  0  0  0  0  0  0  0  0
  4  2  1  0
  3  1  1  0
  4  1  1  0
  5  3  2  0
  6  3  1  0
  4  7  1  0
  8  5  1  0
  9  6  2  0
 10  8  2  0
  9 10  1  0
 12 14  1  0
 13 11  1  0
 14 11  1  0
 15 13  2  0
 16 13  1  0
 17 14  1  0
 18 16  2  0
 19 15  1  0
 20 18  1  0
 19 20  2  0
 22 24  1  0
 23 21  1  0
 24 21  1  0
 25 22  2  0
 26 23  2  0
 27 24  1  0
 28 22  1  0
 29 23  1  0
 33 31  1  0
 32 30  1  0
 33 30  1  0
 34 32  2  0
 35 32  1  0
 33 36  1  0
 37 34  1  0
 38 35  2  0
 39 37  2  0
 38 39  1  0
 41 40  2  0
 42 40  2  0
 43 40  1  0
 44 40  1  0
  1 45  1  0
  1 46  1  0
  2 47  1  0
  2 48  1  0
  4 49  1  6
  5 50  1  0
  6 51  1  0
  7 52  1  0
  7 53  1  0
  7 54  1  0
  8 55  1  0
  9 56  1  0
 10 57  1  0
 11 58  1  0
 11 59  1  0
 12 60  1  0
 12 61  1  0
 14 62  1  1
 15 63  1  0
 16 64  1  0
 17 65  1  0
 17 66  1  0
 17 67  1  0
 18 68  1  0
 19 69  1  0
 20 70  1  0
 21 71  1  0
 21 72  1  0
 24 73  1  6
 27 74  1  0
 27 75  1  0
 28 76  1  0
 29 77  1  0
 30 78  1  0
 30 79  1  0
 31 80  1  0
 31 81  1  0
 33 82  1  6
 34 83  1  0
 35 84  1  0
 36 85  1  0
 36 86  1  0
 36 87  1  0
 37 88  1  0
 38 89  1  0
 39 90  1  0
 43 91  1  0
 44 92  1  0
M  END
> <Uni-Dock RESULT> 
ENERGY=   -6.886  LOWER_BOUND=    2.802  UPPER_BOUND=    4.792
INTER + INTRA:          -6.886
INTER:                  -6.886
INTRA:                   0.000
UNBOUND:                 0.000

$$$$

     RDKit          3D

 92 90  0  0  0  0  0  0  0  0999 V2000
   48.4271    6.3742   19.1765 C   0  0  0  0  0  0  0  0  0  0  0  0
   47.8001    5.6458   16.9082 N   0  0  0  0  0  0  0  0  0  0  0  0
   48.4753    6.0426   20.6505 C   0  0  0  0  0  0  0  0  0  0  0  0
   48.0087    5.1843   18.2879 C   0  0  1  0  0  0  0  0  0  0  0  0
   49.7047    5.8834   21.3042 C   0  0  0  0  0  0  0  0  0  0  0  0
   47.2910    5.8833   21.3832 C   0  0  0  0  0  0  0  0  0  0  0  0
   49.0601    4.0741   18.2720 C   0  0  0  0  0  0  0  0  0  0  0  0
   49.7479    5.5685   22.6633 C   0  0  0  0  0  0  0  0  0  0  0  0
   47.3364    5.5688   22.7422 C   0  0  0  0  0  0  0  0  0  0  0  0
   48.5644    5.4110   23.3817 C   0  0  0  0  0  0  0  0  0  0  0  0
   48.5663    4.7568   20.9103 C   0  0  0  0  0  0  0  0  0  0  0  0
   49.1172    7.0144   21.8192 N   0  0  0  0  0  0  0  0  0  0  0  0
   48.6208    4.9525   19.4120 C   0  0  0  0  0  0  0  0  0  0  0  0
   48.0643    5.9989   21.6792 C   0  0  2  0  0  0  0  0  0  0  0  0
   47.5797    4.4871   18.5964 C   0  0  0  0  0  0  0  0  0  0  0  0
   49.7040    5.6116   18.8165 C   0  0  0  0  0  0  0  0  0  0  0  0
   47.5774    5.6007   23.0739 C   0  0  0  0  0  0  0  0  0  0  0  0
   49.7500    5.7945   17.4335 C   0  0  0  0  0  0  0  0  0  0  0  0
   47.6273    4.6700   17.2130 C   0  0  0  0  0  0  0  0  0  0  0  0
   48.7127    5.3225   16.6318 C   0  0  0  0  0  0  0  0  0  0  0  0
   49.1318    5.6663   19.3834 C   0  0  0  0  0  0  0  0  0  0  0  0
   47.8056    5.6215   21.4868 C   0  0  0  0  0  0  0  0  0  0  0  0
   47.9494    5.9584   18.5073 C   0  0  0  0  0  0  0  0  0  0  0  0
   48.7156    4.8025   20.5669 C   0  0  2  0  0  0  0  0  0  0  0  0
   48.1672    6.3946   22.3611 O   0  0  0  0  0  0  0  0  0  0  0  0
   47.3539    7.0195   18.4354 O   0  0  0  0  0  0  0  0  0  0  0  0
   49.8978    4.3471   21.3377 N   0  0  0  0  0  0  0  0  0  0  0  0
   46.4967    5.4535   21.2145 O   0  0  0  0  0  0  0  0  0  0  0  0
   47.5756    4.9020   17.7638 O   0  0  0  0  0  0  0  0  0  0  0  0
   48.0109    6.2253   20.6325 C   0  0  0  0  0  0  0  0  0  0  0  0
   49.8654    5.2587   21.9938 N   0  0  0  0  0  0  0  0  0  0  0  0
   48.1554    5.5357   19.2947 C   0  0  0  0  0  0  0  0  0  0  0  0
   48.4068    5.3377   21.8331 C   0  0  1  0  0  0  0  0  0  0  0  0
   47.0406    4.9622   18.6667 C   0  0  0  0  0  0  0  0  0  0  0  0
   49.4049    5.4478   18.6675 C   0  0  0  0  0  0  0  0  0  0  0  0
   47.7995    5.8879   23.1250 C   0  0  0  0  0  0  0  0  0  0  0  0
   47.1735    4.3229   17.4327 C   0  0  0  0  0  0  0  0  0  0  0  0
   49.5366    4.8073   17.4344 C   0  0  0  0  0  0  0  0  0  0  0  0
   48.4209    4.2464   16.8163 C   0  0  0  0  0  0  0  0  0  0  0  0
   48.7470    5.2772   20.3659 S   0  0  0  0  0  0  0  0  0  0  0  0
   49.6379    6.3162   20.8157 O   0  0  0  0  0  0  0  0  0  0  0  0
   48.8755    3.8918   20.7400 O   0  0  0  0  0  0  0  0  0  0  0  0
   47.2446    5.7072   20.7286 O   0  0  0  0  0  0  0  0  0  0  0  0
   48.7164    5.3680   18.7646 O   0  0  0  0  0  0  0  0  0  0  0  0
   49.4002    6.7654   18.8503 H   0  0  0  0  0  0  0  0  0  0  0  0
   47.7184    7.2041   19.0474 H   0  0  0  0  0  0  0  0  0  0  0  0
   47.4976    4.8626   16.3297 H   0  0  0  0  0  0  0  0  0  0  0  0
   47.0406    6.3255   16.8870 H   0  0  0  0  0  0  0  0  0  0  0  0
   47.0627    4.7636   18.6496 H   0  0  0  0  0  0  0  0  0  0  0  0
   50.6376    6.0011   20.7572 H   0  0  0  0  0  0  0  0  0  0  0  0
   46.3247    6.0068   20.8994 H   0  0  0  0  0  0  0  0  0  0  0  0
   48.7612    3.2598   17.6021 H   0  0  0  0  0  0  0  0  0  0  0  0
   50.0336    4.4477   17.9348 H   0  0  0  0  0  0  0  0  0  0  0  0
   49.1906    3.6385   19.2678 H   0  0  0  0  0  0  0  0  0  0  0  0
   50.7062    5.4464   23.1613 H   0  0  0  0  0  0  0  0  0  0  0  0
   46.4132    5.4483   23.3027 H   0  0  0  0  0  0  0  0  0  0  0  0
   48.5992    5.1667   24.4400 H   0  0  0  0  0  0  0  0  0  0  0  0
   49.5564    4.4479   21.2727 H   0  0  0  0  0  0  0  0  0  0  0  0
   47.9068    3.9039   21.1203 H   0  0  0  0  0  0  0  0  0  0  0  0
   49.8779    6.6486   22.3900 H   0  0  0  0  0  0  0  0  0  0  0  0
   48.7472    7.8214   22.3200 H   0  0  0  0  0  0  0  0  0  0  0  0
   47.2239    6.4502   21.1381 H   0  0  0  0  0  0  0  0  0  0  0  0
   46.7237    3.9786   19.0332 H   0  0  0  0  0  0  0  0  0  0  0  0
   50.5137    5.9964   19.4326 H   0  0  0  0  0  0  0  0  0  0  0  0
   48.3778    5.1381   23.6624 H   0  0  0  0  0  0  0  0  0  0  0  0
   46.7522    4.8836   23.0048 H   0  0  0  0  0  0  0  0  0  0  0  0
   47.2095    6.4723   23.6269 H   0  0  0  0  0  0  0  0  0  0  0  0
   50.5939    6.3108   16.9841 H   0  0  0  0  0  0  0  0  0  0  0  0
   46.8161    4.3047   16.5892 H   0  0  0  0  0  0  0  0  0  0  0  0
   48.7488    5.4669   15.5556 H   0  0  0  0  0  0  0  0  0  0  0  0
   49.5578    6.6231   19.7100 H   0  0  0  0  0  0  0  0  0  0  0  0
   49.8954    5.1741   18.7689 H   0  0  0  0  0  0  0  0  0  0  0  0
   48.1719    3.9079   20.2432 H   0  0  0  0  0  0  0  0  0  0  0  0
   50.6203    4.0067   20.7063 H   0  0  0  0  0  0  0  0  0  0  0  0
   50.2933    5.1479   21.8371 H   0  0  0  0  0  0  0  0  0  0  0  0
   46.0451    6.0481   21.8504 H   0  0  0  0  0  0  0  0  0  0  0  0
   46.7976    5.2222   17.2589 H   0  0  0  0  0  0  0  0  0  0  0  0
   48.5948    7.1559   20.6266 H   0  0  0  0  0  0  0  0  0  0  0  0
   46.9658    6.5451   20.7416 H   0  0  0  0  0  0  0  0  0  0  0  0
   50.0884    4.6547   22.7838 H   0  0  0  0  0  0  0  0  0  0  0  0
   50.2393    6.1784   22.2232 H   0  0  0  0  0  0  0  0  0  0  0  0
   48.0244    4.3214   21.6794 H   0  0  0  0  0  0  0  0  0  0  0  0
   46.0604    5.0098   19.1347 H   0  0  0  0  0  0  0  0  0  0  0  0
   50.2858    5.8704   19.1458 H   0  0  0  0  0  0  0  0  0  0  0  0
   48.0652    5.2613   23.9838 H   0  0  0  0  0  0  0  0  0  0  0  0
   46.7062    5.9086   23.0597 H   0  0  0  0  0  0  0  0  0  0  0  0
   48.1443    6.9079   23.3290 H   0  0  0  0  0  0  0  0  0  0  0  0
   46.3034    3.8824   16.9533 H   0  0  0  0  0  0  0  0  0  0  0  0
   50.5120    4.7428   16.9602 H   0  0  0  0  0  0  0  0  0  0  0  0
   48.5247    3.7465   15.8574 H   0  0  0  0  0  0  0  0  0  0  0  0
   46.6945    4.8976   20.6876 H   0  0  0  0  0  0  0  0  0  0  0  0
   48.9170    6.2963   18.5241 H   0  0  0  0  0  0  0  0  0  0  0  0
  4  2  1  0
  3  1  1  0
  4  1  1  0
  5  3  2  0
  6  3  1  0
  4  7  1  0
  8  5  1  0
  9  6  2  0
 10  8  2  0
  9 10  1  0
 12 14  1  0
 13 11  1  0
 14 11  1  0
 15 13  2  0
 16 13  1  0
 17 14  1  0
 18 16  2  0
 19 15  1  0
 20 18  1  0
 19 20  2  0
 22 24  1  0
 23 21  1  0
 24 21  1  0
 25 22  2  0
 26 23  2  0
 27 24  1  0
 28 22  1  0
 29 23  1  0
 33 31  1  0
 32 30  1  0
 33 30  1  0
 34 32  2  0
 35 32  1  0
 33 36  1  0
 37 34  1  0
 38 35  2  0
 39 37  2  0
 38 39  1  0
 41 40  2  0
 42 40  2  0
 43 40  1  0
 44 40  1  0
  1 45  1  0
  1 46  1  0
  2 47  1  0
  2 48  1  0
  4 49  1  6
  5 50  1  0
  6 51  1  0
  7 52  1  0
  7 53  1  0
  7 54  1  0
  8 55  1  0
  9 56  1  0
 10 57  1  0
 11 58  1  0
 11 59  1  0
 12 60  1  0
 12 61  1  0
 14 62  1  1
 15 63  1  0
 16 64  1  0
 17 65  1  0
 17 66  1  0
 17 67  1  0
 18 68  1  0
 19 69  1  0
 20 70  1  0
 21 71  1  0
 21 72  1  0
 24 73  1  6
 27 74  1  0
 27 75  1  0
 28 76  1  0
 29 77  1  0
 30 78  1  0
 30 79  1  0
 31 80  1  0
 31 81  1  0
 33 82  1  6
 34 83  1  0
 35 84  1  0
 36 85  1  0
 36 86  1  0
 36 87  1  0
 37 88  1  0
 38 89  1  0
 39 90  1  0
 43 91  1  0
 44 92  1  0
M  END
> <Uni-Dock RESULT> 
ENERGY=   -6.806  LOWER_BOUND=    8.520  UPPER_BOUND=   11.341
INTER + INTRA:          -6.806
INTER:                  -6.806
INTRA:                   0.000
UNBOUND:                 0.000

$$$$

     RDKit          3D

 92 90  0  0  0  0  0  0  0  0999 V2000
   49.1052    5.7921   19.1288 C   0  0  0  0  0  0  0  0  0  0  0  0
   49.3207    6.7958   21.3682 N   0  0  0  0  0  0  0  0  0  0  0  0
   49.1120    4.5317   18.2944 C   0  0  0  0  0  0  0  0  0  0  0  0
   49.1320    5.5282   20.6487 C   0  0  1  0  0  0  0  0  0  0  0  0
   47.9470    4.1021   17.6445 C   0  0  0  0  0  0  0  0  0  0  0  0
   50.2821    3.7709   18.1640 C   0  0  0  0  0  0  0  0  0  0  0  0
   47.8413    4.8773   21.1476 C   0  0  0  0  0  0  0  0  0  0  0  0
   47.9522    2.9334   16.8815 C   0  0  0  0  0  0  0  0  0  0  0  0
   50.2853    2.6027   17.4003 C   0  0  0  0  0  0  0  0  0  0  0  0
   49.1207    2.1840   16.7599 C   0  0  0  0  0  0  0  0  0  0  0  0
   48.7294    3.4541   18.9437 C   0  0  0  0  0  0  0  0  0  0  0  0
   48.8413    4.4712   16.6679 N   0  0  0  0  0  0  0  0  0  0  0  0
   48.5876    4.6475   19.8612 C   0  0  0  0  0  0  0  0  0  0  0  0
   49.5921    3.7334   17.6933 C   0  0  2  0  0  0  0  0  0  0  0  0
   49.4013    4.7719   20.9962 C   0  0  0  0  0  0  0  0  0  0  0  0
   47.6516    5.6529   19.5863 C   0  0  0  0  0  0  0  0  0  0  0  0
   50.0913    2.4204   17.0869 C   0  0  0  0  0  0  0  0  0  0  0  0
   47.5254    6.7556   20.4327 C   0  0  0  0  0  0  0  0  0  0  0  0
   49.2734    5.8750   21.8425 C   0  0  0  0  0  0  0  0  0  0  0  0
   48.3350    6.8659   21.5613 C   0  0  0  0  0  0  0  0  0  0  0  0
   48.2691    5.2290   19.2850 C   0  0  0  0  0  0  0  0  0  0  0  0
   49.7304    3.5726   18.1421 C   0  0  0  0  0  0  0  0  0  0  0  0
   49.4012    5.9132   19.9929 C   0  0  0  0  0  0  0  0  0  0  0  0
   48.5651    3.7438   19.1209 C   0  0  2  0  0  0  0  0  0  0  0  0
   49.6537    3.5464   16.9230 O   0  0  0  0  0  0  0  0  0  0  0  0
   50.2319    6.6431   19.4801 O   0  0  0  0  0  0  0  0  0  0  0  0
   47.3831    3.0184   18.5963 N   0  0  0  0  0  0  0  0  0  0  0  0
   50.9261    3.4954   18.7586 O   0  0  0  0  0  0  0  0  0  0  0  0
   49.4315    5.6468   21.3107 O   0  0  0  0  0  0  0  0  0  0  0  0
   49.6035    4.6199   18.2964 C   0  0  0  0  0  0  0  0  0  0  0  0
   47.7006    3.1974   17.5334 N   0  0  0  0  0  0  0  0  0  0  0  0
   49.1702    5.0875   19.6674 C   0  0  0  0  0  0  0  0  0  0  0  0
   49.1121    3.1990   17.9424 C   0  0  1  0  0  0  0  0  0  0  0  0
   50.0454    4.9957   20.7590 C   0  0  0  0  0  0  0  0  0  0  0  0
   47.8857    5.6076   19.8719 C   0  0  0  0  0  0  0  0  0  0  0  0
   49.9530    2.6123   16.8068 C   0  0  0  0  0  0  0  0  0  0  0  0
   49.6453    5.4247   22.0260 C   0  0  0  0  0  0  0  0  0  0  0  0
   47.4865    6.0350   21.1393 C   0  0  0  0  0  0  0  0  0  0  0  0
   48.3667    5.9451   22.2157 C   0  0  0  0  0  0  0  0  0  0  0  0
   48.6341    4.2227   18.9401 S   0  0  0  0  0  0  0  0  0  0  0  0
   48.0738    4.7416   17.7185 O   0  0  0  0  0  0  0  0  0  0  0  0
   48.2011    2.9993   19.5657 O   0  0  0  0  0  0  0  0  0  0  0  0
   50.2230    4.1000   18.7556 O   0  0  0  0  0  0  0  0  0  0  0  0
   48.5388    5.4046   20.0204 O   0  0  0  0  0  0  0  0  0  0  0  0
   48.2337    6.4074   18.8676 H   0  0  0  0  0  0  0  0  0  0  0  0
   49.9825    6.3862   18.8373 H   0  0  0  0  0  0  0  0  0  0  0  0
   49.3651    6.6146   22.3706 H   0  0  0  0  0  0  0  0  0  0  0  0
   50.2197    7.2027   21.1124 H   0  0  0  0  0  0  0  0  0  0  0  0
   49.9733    4.8704   20.8980 H   0  0  0  0  0  0  0  0  0  0  0  0
   47.0262    4.6748   17.7311 H   0  0  0  0  0  0  0  0  0  0  0  0
   51.2001    4.0862   18.6547 H   0  0  0  0  0  0  0  0  0  0  0  0
   47.8662    4.7385   22.2344 H   0  0  0  0  0  0  0  0  0  0  0  0
   46.9641    5.4879   20.9057 H   0  0  0  0  0  0  0  0  0  0  0  0
   47.6991    3.8879   20.7012 H   0  0  0  0  0  0  0  0  0  0  0  0
   47.0436    2.6082   16.3817 H   0  0  0  0  0  0  0  0  0  0  0  0
   51.1973    2.0197   17.3038 H   0  0  0  0  0  0  0  0  0  0  0  0
   49.1238    1.2747   16.1649 H   0  0  0  0  0  0  0  0  0  0  0  0
   47.7313    3.0959   18.6566 H   0  0  0  0  0  0  0  0  0  0  0  0
   49.1733    2.6307   19.5195 H   0  0  0  0  0  0  0  0  0  0  0  0
   48.0694    3.9007   16.3258 H   0  0  0  0  0  0  0  0  0  0  0  0
   49.4443    4.6468   15.8651 H   0  0  0  0  0  0  0  0  0  0  0  0
   50.4647    4.3343   17.9766 H   0  0  0  0  0  0  0  0  0  0  0  0
   50.1409    4.0099   21.2292 H   0  0  0  0  0  0  0  0  0  0  0  0
   47.0227    5.5851   18.7013 H   0  0  0  0  0  0  0  0  0  0  0  0
   49.2588    1.7738   16.7871 H   0  0  0  0  0  0  0  0  0  0  0  0
   50.7029    1.8692   17.8093 H   0  0  0  0  0  0  0  0  0  0  0  0
   50.7129    2.6052   16.2037 H   0  0  0  0  0  0  0  0  0  0  0  0
   46.7981    7.5305   20.2063 H   0  0  0  0  0  0  0  0  0  0  0  0
   49.9079    5.9618   22.7204 H   0  0  0  0  0  0  0  0  0  0  0  0
   48.2370    7.7255   22.2185 H   0  0  0  0  0  0  0  0  0  0  0  0
   48.1255    5.7231   18.3161 H   0  0  0  0  0  0  0  0  0  0  0  0
   47.3541    5.3998   19.8652 H   0  0  0  0  0  0  0  0  0  0  0  0
   48.8380    3.2781   20.0745 H   0  0  0  0  0  0  0  0  0  0  0  0
   46.5438    3.3033   19.0973 H   0  0  0  0  0  0  0  0  0  0  0  0
   47.2460    3.2780   17.6160 H   0  0  0  0  0  0  0  0  0  0  0  0
   51.5675    3.4173   18.0208 H   0  0  0  0  0  0  0  0  0  0  0  0
   50.2148    6.1371   21.6406 H   0  0  0  0  0  0  0  0  0  0  0  0
   49.2705    5.3464   17.5427 H   0  0  0  0  0  0  0  0  0  0  0  0
   50.7008    4.6493   18.2557 H   0  0  0  0  0  0  0  0  0  0  0  0
   47.4084    2.2441   17.3226 H   0  0  0  0  0  0  0  0  0  0  0  0
   47.5891    3.7276   16.6704 H   0  0  0  0  0  0  0  0  0  0  0  0
   49.2149    2.5467   18.8181 H   0  0  0  0  0  0  0  0  0  0  0  0
   51.0456    4.5895   20.6298 H   0  0  0  0  0  0  0  0  0  0  0  0
   47.1849    5.6711   19.0424 H   0  0  0  0  0  0  0  0  0  0  0  0
   49.6204    1.5997   16.5523 H   0  0  0  0  0  0  0  0  0  0  0  0
   51.0065    2.5477   17.0999 H   0  0  0  0  0  0  0  0  0  0  0  0
   49.8920    3.2276   15.9020 H   0  0  0  0  0  0  0  0  0  0  0  0
   50.3312    5.3506   22.8656 H   0  0  0  0  0  0  0  0  0  0  0  0
   46.4862    6.4332   21.2853 H   0  0  0  0  0  0  0  0  0  0  0  0
   48.0544    6.2763   23.2022 H   0  0  0  0  0  0  0  0  0  0  0  0
   50.5490    3.4953   19.4540 H   0  0  0  0  0  0  0  0  0  0  0  0
   48.5534    6.2501   19.5257 H   0  0  0  0  0  0  0  0  0  0  0  0
  4  2  1  0
  3  1  1  0
  4  1  1  0
  5  3  2  0
  6  3  1  0
  4  7  1  0
  8  5  1  0
  9  6  2  0
 10  8  2  0
  9 10  1  0
 12 14  1  0
 13 11  1  0
 14 11  1  0
 15 13  2  0
 16 13  1  0
 17 14  1  0
 18 16  2  0
 19 15  1  0
 20 18  1  0
 19 20  2  0
 22 24  1  0
 23 21  1  0
 24 21  1  0
 25 22  2  0
 26 23  2  0
 27 24  1  0
 28 22  1  0
 29 23  1  0
 33 31  1  0
 32 30  1  0
 33 30  1  0
 34 32  2  0
 35 32  1  0
 33 36  1  0
 37 34  1  0
 38 35  2  0
 39 37  2  0
 38 39  1  0
 41 40  2  0
 42 40  2  0
 43 40  1  0
 44 40  1  0
  1 45  1  0
  1 46  1  0
  2 47  1  0
  2 48  1  0
  4 49  1  6
  5 50  1  0
  6 51  1  0
  7 52  1  0
  7 53  1  0
  7 54  1  0
  8 55  1  0
  9 56  1  0
 10 57  1  0
 11 58  1  0
 11 59  1  0
 12 60  1  0
 12 61  1  0
 14 62  1  1
 15 63  1  0
 16 64  1  0
 17 65  1  0
 17 66  1  0
 17 67  1  0
 18 68  1  0
 19 69  1  0
 20 70  1  0
 21 71  1  0
 21 72  1  0
 24 73  1  6
 27 74  1  0
 27 75  1  0
 28 76  1  0
 29 77  1  0
 30 78  1  0
 30 79  1  0
 31 80  1  0
 31 81  1  0
 33 82  1  6
 34 83  1  0
 35 84  1  0
 36 85  1  0
 36 86  1  0
 36 87  1  0
 37 88  1  0
 38 89  1  0
 39 90  1  0
 43 91  1  0
 44 92  1  0
M  END
> <Uni-Dock RESULT> 
ENERGY=   -6.719  LOWER_BOUND=    8.190  UPPER_BOUND=   10.110
INTER + INTRA:          -6.719
INTER:                  -6.719
INTRA:                   0.000
UNBOUND:                 0.000

$$$$
