
     RDKit          3D

 92 90  0  0  0  0  0  0  0  0999 V2000
   46.2158    6.8651   11.3288 C   0  0  0  0  0  0  0  0  0  0  0  0
   48.5036    7.6368   11.8148 N   0  0  0  0  0  0  0  0  0  0  0  0
   45.0996    5.9008   11.6624 C   0  0  0  0  0  0  0  0  0  0  0  0
   47.3916    6.8221   12.3285 C   0  0  1  0  0  0  0  0  0  0  0  0
   43.9246    6.3518   12.2810 C   0  0  0  0  0  0  0  0  0  0  0  0
   45.2300    4.5372   11.3651 C   0  0  0  0  0  0  0  0  0  0  0  0
   46.9991    7.3325   13.7166 C   0  0  0  0  0  0  0  0  0  0  0  0
   42.9007    5.4560   12.5957 C   0  0  0  0  0  0  0  0  0  0  0  0
   44.2042    3.6425   11.6770 C   0  0  0  0  0  0  0  0  0  0  0  0
   43.0414    4.1022   12.2939 C   0  0  0  0  0  0  0  0  0  0  0  0
   45.5062    7.3811   12.0974 C   0  0  0  0  0  0  0  0  0  0  0  0
   47.0917    8.8879   13.2540 N   0  0  0  0  0  0  0  0  0  0  0  0
   44.9431    5.9847   11.9740 C   0  0  0  0  0  0  0  0  0  0  0  0
   46.7327    7.4799   13.0305 C   0  0  2  0  0  0  0  0  0  0  0  0
   45.1430    5.2363   10.8063 C   0  0  0  0  0  0  0  0  0  0  0  0
   44.2177    5.4158   13.0301 C   0  0  0  0  0  0  0  0  0  0  0  0
   47.9559    6.7571   12.4643 C   0  0  0  0  0  0  0  0  0  0  0  0
   43.7025    4.1237   12.9216 C   0  0  0  0  0  0  0  0  0  0  0  0
   44.6262    3.9441   10.6990 C   0  0  0  0  0  0  0  0  0  0  0  0
   43.9067    3.3892   11.7558 C   0  0  0  0  0  0  0  0  0  0  0  0
   46.0812    6.5728   13.2647 C   0  0  0  0  0  0  0  0  0  0  0  0
   44.6506    5.2753   11.6677 C   0  0  0  0  0  0  0  0  0  0  0  0
   45.8867    7.9114   12.6182 C   0  0  0  0  0  0  0  0  0  0  0  0
   46.0620    5.4452   12.2426 C   0  0  2  0  0  0  0  0  0  0  0  0
   43.8615    4.3827   11.9427 O   0  0  0  0  0  0  0  0  0  0  0  0
   45.0050    8.7112   12.8813 O   0  0  0  0  0  0  0  0  0  0  0  0
   46.4765    4.1796   12.9082 N   0  0  0  0  0  0  0  0  0  0  0  0
   44.3201    6.2321   10.7805 O   0  0  0  0  0  0  0  0  0  0  0  0
   46.8327    8.2052   11.7080 O   0  0  0  0  0  0  0  0  0  0  0  0
   44.6390    5.9913   12.7310 C   0  0  0  0  0  0  0  0  0  0  0  0
   45.1246    3.8400   11.5601 N   0  0  0  0  0  0  0  0  0  0  0  0
   45.9785    6.6734   12.8912 C   0  0  0  0  0  0  0  0  0  0  0  0
   44.5160    5.1719   11.4267 C   0  0  1  0  0  0  0  0  0  0  0  0
   46.1010    8.0525   12.6697 C   0  0  0  0  0  0  0  0  0  0  0  0
   47.1170    5.9429   13.2538 C   0  0  0  0  0  0  0  0  0  0  0  0
   43.0444    5.0012   11.0426 C   0  0  0  0  0  0  0  0  0  0  0  0
   47.3365    8.6862   12.8129 C   0  0  0  0  0  0  0  0  0  0  0  0
   48.3517    6.5781   13.3941 C   0  0  0  0  0  0  0  0  0  0  0  0
   48.4621    7.9506   13.1780 C   0  0  0  0  0  0  0  0  0  0  0  0
   45.9296    5.8211   12.2987 S   0  0  0  0  0  0  0  0  0  0  0  0
   46.9697    5.2954   13.1459 O   0  0  0  0  0  0  0  0  0  0  0  0
   45.9753    5.7209   10.8610 O   0  0  0  0  0  0  0  0  0  0  0  0
   44.5080    5.2384   12.7679 O   0  0  0  0  0  0  0  0  0  0  0  0
   45.7748    7.3856   12.6312 O   0  0  0  0  0  0  0  0  0  0  0  0
   45.8142    7.8862   11.2617 H   0  0  0  0  0  0  0  0  0  0  0  0
   46.5784    6.6216   10.3190 H   0  0  0  0  0  0  0  0  0  0  0  0
   49.2693    7.6260   12.4876 H   0  0  0  0  0  0  0  0  0  0  0  0
   48.2103    8.6099   11.7441 H   0  0  0  0  0  0  0  0  0  0  0  0
   47.7542    5.7923   12.4278 H   0  0  0  0  0  0  0  0  0  0  0  0
   43.8015    7.4044   12.5250 H   0  0  0  0  0  0  0  0  0  0  0  0
   46.1322    4.1651   10.8829 H   0  0  0  0  0  0  0  0  0  0  0  0
   46.2475    6.6845   14.1783 H   0  0  0  0  0  0  0  0  0  0  0  0
   46.5906    8.3486   13.6703 H   0  0  0  0  0  0  0  0  0  0  0  0
   47.8648    7.3464   14.3889 H   0  0  0  0  0  0  0  0  0  0  0  0
   41.9938    5.8152   13.0754 H   0  0  0  0  0  0  0  0  0  0  0  0
   44.3127    2.5875   11.4375 H   0  0  0  0  0  0  0  0  0  0  0  0
   42.2432    3.4056   12.5371 H   0  0  0  0  0  0  0  0  0  0  0  0
   44.7022    8.0318   12.4674 H   0  0  0  0  0  0  0  0  0  0  0  0
   45.7582    7.7709   11.1027 H   0  0  0  0  0  0  0  0  0  0  0  0
   47.3392    9.3300   12.3685 H   0  0  0  0  0  0  0  0  0  0  0  0
   46.2839    9.3957   13.6144 H   0  0  0  0  0  0  0  0  0  0  0  0
   46.4930    7.0385   14.0043 H   0  0  0  0  0  0  0  0  0  0  0  0
   45.7064    5.6521    9.9743 H   0  0  0  0  0  0  0  0  0  0  0  0
   44.0498    5.9774   13.9464 H   0  0  0  0  0  0  0  0  0  0  0  0
   48.2297    7.1371   11.4737 H   0  0  0  0  0  0  0  0  0  0  0  0
   48.8239    6.8797   13.1230 H   0  0  0  0  0  0  0  0  0  0  0  0
   47.7693    5.6824   12.3741 H   0  0  0  0  0  0  0  0  0  0  0  0
   43.1410    3.6912   13.7457 H   0  0  0  0  0  0  0  0  0  0  0  0
   44.7855    3.3700    9.7905 H   0  0  0  0  0  0  0  0  0  0  0  0
   43.5057    2.3830   11.6709 H   0  0  0  0  0  0  0  0  0  0  0  0
   45.2868    6.4403   14.0100 H   0  0  0  0  0  0  0  0  0  0  0  0
   47.0316    6.6053   13.8100 H   0  0  0  0  0  0  0  0  0  0  0  0
   46.7536    5.6248   11.4122 H   0  0  0  0  0  0  0  0  0  0  0  0
   46.4620    3.4340   12.2078 H   0  0  0  0  0  0  0  0  0  0  0  0
   45.7409    3.9111   13.5712 H   0  0  0  0  0  0  0  0  0  0  0  0
   43.4003    6.0160   10.5157 H   0  0  0  0  0  0  0  0  0  0  0  0
   46.5885    9.1006   11.3883 H   0  0  0  0  0  0  0  0  0  0  0  0
   43.8574    6.7624   12.7554 H   0  0  0  0  0  0  0  0  0  0  0  0
   44.4484    5.3601   13.6090 H   0  0  0  0  0  0  0  0  0  0  0  0
   45.0373    3.3379   10.6774 H   0  0  0  0  0  0  0  0  0  0  0  0
   44.6125    3.2941   12.2509 H   0  0  0  0  0  0  0  0  0  0  0  0
   45.0262    5.7003   10.6119 H   0  0  0  0  0  0  0  0  0  0  0  0
   45.2341    8.6439   12.3847 H   0  0  0  0  0  0  0  0  0  0  0  0
   47.0468    4.8704   13.4215 H   0  0  0  0  0  0  0  0  0  0  0  0
   42.9434    4.4190   10.1196 H   0  0  0  0  0  0  0  0  0  0  0  0
   42.4808    4.4937   11.8332 H   0  0  0  0  0  0  0  0  0  0  0  0
   42.5768    5.9765   10.8691 H   0  0  0  0  0  0  0  0  0  0  0  0
   47.4211    9.7543   12.6361 H   0  0  0  0  0  0  0  0  0  0  0  0
   49.2286    5.9986   13.6692 H   0  0  0  0  0  0  0  0  0  0  0  0
   49.4240    8.4440   13.2873 H   0  0  0  0  0  0  0  0  0  0  0  0
   43.8297    5.5907   12.1505 H   0  0  0  0  0  0  0  0  0  0  0  0
   46.5805    7.8437   12.3012 H   0  0  0  0  0  0  0  0  0  0  0  0
  4  2  1  0
  3  1  1  0
  4  1  1  0
  5  3  2  0
  6  3  1  0
  4  7  1  0
  8  5  1  0
  9  6  2  0
 10  8  2  0
  9 10  1  0
 12 14  1  0
 13 11  1  0
 14 11  1  0
 15 13  2  0
 16 13  1  0
 17 14  1  0
 18 16  2  0
 19 15  1  0
 20 18  1  0
 19 20  2  0
 22 24  1  0
 23 21  1  0
 24 21  1  0
 25 22  2  0
 26 23  2  0
 27 24  1  0
 28 22  1  0
 29 23  1  0
 33 31  1  0
 32 30  1  0
 33 30  1  0
 34 32  2  0
 35 32  1  0
 33 36  1  0
 37 34  1  0
 38 35  2  0
 39 37  2  0
 38 39  1  0
 41 40  2  0
 42 40  2  0
 43 40  1  0
 44 40  1  0
  1 45  1  0
  1 46  1  0
  2 47  1  0
  2 48  1  0
  4 49  1  6
  5 50  1  0
  6 51  1  0
  7 52  1  0
  7 53  1  0
  7 54  1  0
  8 55  1  0
  9 56  1  0
 10 57  1  0
 11 58  1  0
 11 59  1  0
 12 60  1  0
 12 61  1  0
 14 62  1  6
 15 63  1  0
 16 64  1  0
 17 65  1  0
 17 66  1  0
 17 67  1  0
 18 68  1  0
 19 69  1  0
 20 70  1  0
 21 71  1  0
 21 72  1  0
 24 73  1  1
 27 74  1  0
 27 75  1  0
 28 76  1  0
 29 77  1  0
 30 78  1  0
 30 79  1  0
 31 80  1  0
 31 81  1  0
 33 82  1  1
 34 83  1  0
 35 84  1  0
 36 85  1  0
 36 86  1  0
 36 87  1  0
 37 88  1  0
 38 89  1  0
 39 90  1  0
 43 91  1  0
 44 92  1  0
M  END
> <Uni-Dock RESULT> 
ENERGY=   -8.353  LOWER_BOUND=    0.000  UPPER_BOUND=    0.000
INTER + INTRA:          -8.353
INTER:                  -8.353
INTRA:                   0.000
UNBOUND:                 0.000

$$$$

     RDKit          3D

 92 90  0  0  0  0  0  0  0  0999 V2000
   44.0324    4.6003    9.0811 C   0  0  0  0  0  0  0  0  0  0  0  0
   44.1602    2.7466    7.4646 N   0  0  0  0  0  0  0  0  0  0  0  0
   44.1535    5.0437   10.5219 C   0  0  0  0  0  0  0  0  0  0  0  0
   44.5017    3.1497    8.8375 C   0  0  1  0  0  0  0  0  0  0  0  0
   45.2182    5.8586   10.9332 C   0  0  0  0  0  0  0  0  0  0  0  0
   43.2047    4.6364   11.4698 C   0  0  0  0  0  0  0  0  0  0  0  0
   46.0077    2.9783    9.0476 C   0  0  0  0  0  0  0  0  0  0  0  0
   45.3309    6.2576   12.2667 C   0  0  0  0  0  0  0  0  0  0  0  0
   43.3162    5.0387   12.8024 C   0  0  0  0  0  0  0  0  0  0  0  0
   44.3804    5.8471   13.2001 C   0  0  0  0  0  0  0  0  0  0  0  0
   45.1203    4.9840    9.2540 C   0  0  0  0  0  0  0  0  0  0  0  0
   46.3601    3.6255    7.5988 N   0  0  0  0  0  0  0  0  0  0  0  0
   44.4961    5.0514   10.6279 C   0  0  0  0  0  0  0  0  0  0  0  0
   45.5896    3.5693    8.8497 C   0  0  2  0  0  0  0  0  0  0  0  0
   43.1103    5.1989   10.7747 C   0  0  0  0  0  0  0  0  0  0  0  0
   45.2952    4.9604   11.7761 C   0  0  0  0  0  0  0  0  0  0  0  0
   44.4216    2.6022    8.6505 C   0  0  0  0  0  0  0  0  0  0  0  0
   44.7206    5.0152   13.0464 C   0  0  0  0  0  0  0  0  0  0  0  0
   42.5371    5.2544   12.0462 C   0  0  0  0  0  0  0  0  0  0  0  0
   43.3419    5.1628   13.1802 C   0  0  0  0  0  0  0  0  0  0  0  0
   45.5245    3.6980    9.9816 C   0  0  0  0  0  0  0  0  0  0  0  0
   43.9798    5.2063   11.2542 C   0  0  0  0  0  0  0  0  0  0  0  0
   45.7009    4.5973    8.7950 C   0  0  0  0  0  0  0  0  0  0  0  0
   44.1358    3.8332   10.5896 C   0  0  2  0  0  0  0  0  0  0  0  0
   43.9947    5.4329   12.4556 O   0  0  0  0  0  0  0  0  0  0  0  0
   46.5594    5.4535    8.6680 O   0  0  0  0  0  0  0  0  0  0  0  0
   43.9484    2.7684   11.6133 N   0  0  0  0  0  0  0  0  0  0  0  0
   43.8097    6.2074   10.3706 O   0  0  0  0  0  0  0  0  0  0  0  0
   44.8248    4.3494    7.8046 O   0  0  0  0  0  0  0  0  0  0  0  0
   45.2101    4.9436   11.0076 C   0  0  0  0  0  0  0  0  0  0  0  0
   43.0547    4.4044   12.1472 N   0  0  0  0  0  0  0  0  0  0  0  0
   45.2949    3.9918    9.8363 C   0  0  0  0  0  0  0  0  0  0  0  0
   43.7688    5.3973   11.3309 C   0  0  1  0  0  0  0  0  0  0  0  0
   45.7514    4.4431    8.5897 C   0  0  0  0  0  0  0  0  0  0  0  0
   44.9132    2.6512    9.9718 C   0  0  0  0  0  0  0  0  0  0  0  0
   43.7868    6.7290   12.0848 C   0  0  0  0  0  0  0  0  0  0  0  0
   45.8281    3.5689    7.5042 C   0  0  0  0  0  0  0  0  0  0  0  0
   44.9886    1.7794    8.8846 C   0  0  0  0  0  0  0  0  0  0  0  0
   45.4497    2.2360    7.6511 C   0  0  0  0  0  0  0  0  0  0  0  0
   44.4035    4.0367   10.3685 S   0  0  0  0  0  0  0  0  0  0  0  0
   44.5496    2.6132   10.5366 O   0  0  0  0  0  0  0  0  0  0  0  0
   43.1557    4.6484    9.9838 O   0  0  0  0  0  0  0  0  0  0  0  0
   44.9098    4.7895   11.6942 O   0  0  0  0  0  0  0  0  0  0  0  0
   45.4864    4.5125    9.2808 O   0  0  0  0  0  0  0  0  0  0  0  0
   44.5904    5.2916    8.4336 H   0  0  0  0  0  0  0  0  0  0  0  0
   42.9774    4.7033    8.7863 H   0  0  0  0  0  0  0  0  0  0  0  0
   44.4922    1.7972    7.2987 H   0  0  0  0  0  0  0  0  0  0  0  0
   44.6608    3.3354    6.8008 H   0  0  0  0  0  0  0  0  0  0  0  0
   43.9773    2.4723    9.5214 H   0  0  0  0  0  0  0  0  0  0  0  0
   45.9689    6.1846   10.2172 H   0  0  0  0  0  0  0  0  0  0  0  0
   42.3687    4.0057   11.1726 H   0  0  0  0  0  0  0  0  0  0  0  0
   46.2854    3.1649   10.0896 H   0  0  0  0  0  0  0  0  0  0  0  0
   46.5823    3.6637    8.4139 H   0  0  0  0  0  0  0  0  0  0  0  0
   46.3229    1.9553    8.8116 H   0  0  0  0  0  0  0  0  0  0  0  0
   46.1600    6.8890   12.5758 H   0  0  0  0  0  0  0  0  0  0  0  0
   42.5722    4.7217   13.5291 H   0  0  0  0  0  0  0  0  0  0  0  0
   44.4672    6.1597   14.2375 H   0  0  0  0  0  0  0  0  0  0  0  0
   45.9720    5.6776    9.2419 H   0  0  0  0  0  0  0  0  0  0  0  0
   44.4187    5.3755    8.5060 H   0  0  0  0  0  0  0  0  0  0  0  0
   45.7754    3.9858    6.8444 H   0  0  0  0  0  0  0  0  0  0  0  0
   47.1352    4.2804    7.7015 H   0  0  0  0  0  0  0  0  0  0  0  0
   46.2452    3.1611    9.6269 H   0  0  0  0  0  0  0  0  0  0  0  0
   42.4672    5.2667    9.9004 H   0  0  0  0  0  0  0  0  0  0  0  0
   46.3732    4.8453   11.6873 H   0  0  0  0  0  0  0  0  0  0  0  0
   43.7124    2.9708    7.9008 H   0  0  0  0  0  0  0  0  0  0  0  0
   44.7781    1.6190    8.3212 H   0  0  0  0  0  0  0  0  0  0  0  0
   43.8749    2.4497    9.5864 H   0  0  0  0  0  0  0  0  0  0  0  0
   45.3485    4.9442   13.9307 H   0  0  0  0  0  0  0  0  0  0  0  0
   41.4618    5.3688   12.1518 H   0  0  0  0  0  0  0  0  0  0  0  0
   42.8941    5.2055   14.1692 H   0  0  0  0  0  0  0  0  0  0  0  0
   46.3003    3.9522   10.7149 H   0  0  0  0  0  0  0  0  0  0  0  0
   45.7201    2.6719    9.6493 H   0  0  0  0  0  0  0  0  0  0  0  0
   43.3422    3.7188    9.8433 H   0  0  0  0  0  0  0  0  0  0  0  0
   43.0104    2.8708   12.0086 H   0  0  0  0  0  0  0  0  0  0  0  0
   44.5730    2.9694   12.4020 H   0  0  0  0  0  0  0  0  0  0  0  0
   43.7471    7.0160   10.9228 H   0  0  0  0  0  0  0  0  0  0  0  0
   45.0683    4.9908    7.1026 H   0  0  0  0  0  0  0  0  0  0  0  0
   45.8293    5.8217   10.7803 H   0  0  0  0  0  0  0  0  0  0  0  0
   45.6799    4.4790   11.8845 H   0  0  0  0  0  0  0  0  0  0  0  0
   42.1061    4.7318   12.3255 H   0  0  0  0  0  0  0  0  0  0  0  0
   43.5033    4.3194   13.0578 H   0  0  0  0  0  0  0  0  0  0  0  0
   43.2100    5.5369   10.3971 H   0  0  0  0  0  0  0  0  0  0  0  0
   46.0519    5.4795    8.4553 H   0  0  0  0  0  0  0  0  0  0  0  0
   44.5473    2.2819   10.9273 H   0  0  0  0  0  0  0  0  0  0  0  0
   42.7697    7.0608   12.3224 H   0  0  0  0  0  0  0  0  0  0  0  0
   44.3510    6.6513   13.0207 H   0  0  0  0  0  0  0  0  0  0  0  0
   44.2533    7.5099   11.4746 H   0  0  0  0  0  0  0  0  0  0  0  0
   46.1803    3.9293    6.5423 H   0  0  0  0  0  0  0  0  0  0  0  0
   44.6828    0.7433    9.0014 H   0  0  0  0  0  0  0  0  0  0  0  0
   45.5076    1.5564    6.8053 H   0  0  0  0  0  0  0  0  0  0  0  0
   44.7655    5.7517   11.5569 H   0  0  0  0  0  0  0  0  0  0  0  0
   45.2091    4.1576    8.4061 H   0  0  0  0  0  0  0  0  0  0  0  0
  4  2  1  0
  3  1  1  0
  4  1  1  0
  5  3  2  0
  6  3  1  0
  4  7  1  0
  8  5  1  0
  9  6  2  0
 10  8  2  0
  9 10  1  0
 12 14  1  0
 13 11  1  0
 14 11  1  0
 15 13  2  0
 16 13  1  0
 17 14  1  0
 18 16  2  0
 19 15  1  0
 20 18  1  0
 19 20  2  0
 22 24  1  0
 23 21  1  0
 24 21  1  0
 25 22  2  0
 26 23  2  0
 27 24  1  0
 28 22  1  0
 29 23  1  0
 33 31  1  0
 32 30  1  0
 33 30  1  0
 34 32  2  0
 35 32  1  0
 33 36  1  0
 37 34  1  0
 38 35  2  0
 39 37  2  0
 38 39  1  0
 41 40  2  0
 42 40  2  0
 43 40  1  0
 44 40  1  0
  1 45  1  0
  1 46  1  0
  2 47  1  0
  2 48  1  0
  4 49  1  6
  5 50  1  0
  6 51  1  0
  7 52  1  0
  7 53  1  0
  7 54  1  0
  8 55  1  0
  9 56  1  0
 10 57  1  0
 11 58  1  0
 11 59  1  0
 12 60  1  0
 12 61  1  0
 14 62  1  6
 15 63  1  0
 16 64  1  0
 17 65  1  0
 17 66  1  0
 17 67  1  0
 18 68  1  0
 19 69  1  0
 20 70  1  0
 21 71  1  0
 21 72  1  0
 24 73  1  1
 27 74  1  0
 27 75  1  0
 28 76  1  0
 29 77  1  0
 30 78  1  0
 30 79  1  0
 31 80  1  0
 31 81  1  0
 33 82  1  1
 34 83  1  0
 35 84  1  0
 36 85  1  0
 36 86  1  0
 36 87  1  0
 37 88  1  0
 38 89  1  0
 39 90  1  0
 43 91  1  0
 44 92  1  0
M  END
> <Uni-Dock RESULT> 
ENERGY=   -7.764  LOWER_BOUND=    2.267  UPPER_BOUND=    4.318
INTER + INTRA:          -7.764
INTER:                  -7.764
INTRA:                   0.000
UNBOUND:                 0.000

$$$$

     RDKit          3D

 92 90  0  0  0  0  0  0  0  0999 V2000
   45.7537    6.4140   13.6560 C   0  0  0  0  0  0  0  0  0  0  0  0
   46.8485    8.5814   14.0680 N   0  0  0  0  0  0  0  0  0  0  0  0
   44.9840    5.5394   12.6918 C   0  0  0  0  0  0  0  0  0  0  0  0
   46.2966    7.7110   13.0182 C   0  0  1  0  0  0  0  0  0  0  0  0
   45.5803    4.4057   12.1210 C   0  0  0  0  0  0  0  0  0  0  0  0
   43.6629    5.8575   12.3480 C   0  0  0  0  0  0  0  0  0  0  0  0
   47.3814    7.4404   11.9735 C   0  0  0  0  0  0  0  0  0  0  0  0
   44.8686    3.6066   11.2238 C   0  0  0  0  0  0  0  0  0  0  0  0
   42.9507    5.0559   11.4534 C   0  0  0  0  0  0  0  0  0  0  0  0
   43.5548    3.9324   10.8905 C   0  0  0  0  0  0  0  0  0  0  0  0
   46.5174    5.7444   13.0825 C   0  0  0  0  0  0  0  0  0  0  0  0
   48.5198    7.1976   13.1079 N   0  0  0  0  0  0  0  0  0  0  0  0
   45.1953    5.4172   12.4290 C   0  0  0  0  0  0  0  0  0  0  0  0
   47.1557    7.0570   12.5779 C   0  0  2  0  0  0  0  0  0  0  0  0
   43.9941    5.5726   13.1338 C   0  0  0  0  0  0  0  0  0  0  0  0
   45.1518    4.9595   11.1047 C   0  0  0  0  0  0  0  0  0  0  0  0
   46.3520    8.2917   12.9886 C   0  0  0  0  0  0  0  0  0  0  0  0
   43.9316    4.6633   10.4963 C   0  0  0  0  0  0  0  0  0  0  0  0
   42.7744    5.2750   12.5241 C   0  0  0  0  0  0  0  0  0  0  0  0
   42.7439    4.8208   11.2069 C   0  0  0  0  0  0  0  0  0  0  0  0
   46.4257    6.6112   11.8227 C   0  0  0  0  0  0  0  0  0  0  0  0
   44.4050    5.2098   12.3059 C   0  0  0  0  0  0  0  0  0  0  0  0
   47.2627    6.0992   12.9563 C   0  0  0  0  0  0  0  0  0  0  0  0
   44.9470    6.6389   12.1818 C   0  0  2  0  0  0  0  0  0  0  0  0
   43.6962    4.6333   11.4934 O   0  0  0  0  0  0  0  0  0  0  0  0
   48.0146    5.1404   12.9138 O   0  0  0  0  0  0  0  0  0  0  0  0
   44.2007    7.3555   11.1111 N   0  0  0  0  0  0  0  0  0  0  0  0
   44.7817    4.5961   13.4431 O   0  0  0  0  0  0  0  0  0  0  0  0
   47.1552    6.8400   14.0740 O   0  0  0  0  0  0  0  0  0  0  0  0
   45.5427    5.2285   11.7154 C   0  0  0  0  0  0  0  0  0  0  0  0
   43.1414    5.9024   11.8368 N   0  0  0  0  0  0  0  0  0  0  0  0
   46.3240    6.4401   12.1700 C   0  0  0  0  0  0  0  0  0  0  0  0
   44.1872    5.0617   12.4382 C   0  0  1  0  0  0  0  0  0  0  0  0
   47.4281    6.2912   13.0214 C   0  0  0  0  0  0  0  0  0  0  0  0
   45.9565    7.7271   11.7578 C   0  0  0  0  0  0  0  0  0  0  0  0
   43.7320    3.6015   12.3848 C   0  0  0  0  0  0  0  0  0  0  0  0
   48.1506    7.4074   13.4467 C   0  0  0  0  0  0  0  0  0  0  0  0
   46.6788    8.8417   12.1861 C   0  0  0  0  0  0  0  0  0  0  0  0
   47.7787    8.6830   13.0274 C   0  0  0  0  0  0  0  0  0  0  0  0
   45.2907    6.4534   12.2788 S   0  0  0  0  0  0  0  0  0  0  0  0
   45.3282    7.6790   11.5222 O   0  0  0  0  0  0  0  0  0  0  0  0
   44.5108    6.3086   13.4830 O   0  0  0  0  0  0  0  0  0  0  0  0
   44.8941    5.2352   11.3097 O   0  0  0  0  0  0  0  0  0  0  0  0
   46.8018    6.0821   12.6797 O   0  0  0  0  0  0  0  0  0  0  0  0
   46.5779    5.8379   14.1003 H   0  0  0  0  0  0  0  0  0  0  0  0
   45.0823    6.6641   14.4909 H   0  0  0  0  0  0  0  0  0  0  0  0
   47.2276    9.4262   13.6418 H   0  0  0  0  0  0  0  0  0  0  0  0
   47.6379    8.1186   14.5159 H   0  0  0  0  0  0  0  0  0  0  0  0
   45.4775    8.2553   12.5340 H   0  0  0  0  0  0  0  0  0  0  0  0
   46.6053    4.1403   12.3692 H   0  0  0  0  0  0  0  0  0  0  0  0
   43.1791    6.7314   12.7806 H   0  0  0  0  0  0  0  0  0  0  0  0
   46.9791    6.8853   11.1203 H   0  0  0  0  0  0  0  0  0  0  0  0
   48.2107    6.8615   12.3961 H   0  0  0  0  0  0  0  0  0  0  0  0
   47.7900    8.3784   11.5800 H   0  0  0  0  0  0  0  0  0  0  0  0
   45.3397    2.7300   10.7864 H   0  0  0  0  0  0  0  0  0  0  0  0
   41.9246    5.3082   11.1970 H   0  0  0  0  0  0  0  0  0  0  0  0
   43.0004    3.3089   10.1938 H   0  0  0  0  0  0  0  0  0  0  0  0
   47.1976    4.9024   12.8953 H   0  0  0  0  0  0  0  0  0  0  0  0
   46.3958    5.7802   14.1728 H   0  0  0  0  0  0  0  0  0  0  0  0
   48.4963    7.2358   14.1272 H   0  0  0  0  0  0  0  0  0  0  0  0
   49.0706    6.3750   12.8624 H   0  0  0  0  0  0  0  0  0  0  0  0
   47.2233    7.0389   11.4845 H   0  0  0  0  0  0  0  0  0  0  0  0
   43.9995    5.9309   14.1606 H   0  0  0  0  0  0  0  0  0  0  0  0
   46.0710    4.8312   10.5374 H   0  0  0  0  0  0  0  0  0  0  0  0
   46.2256    8.3511   14.0754 H   0  0  0  0  0  0  0  0  0  0  0  0
   46.8489    9.2113   12.6573 H   0  0  0  0  0  0  0  0  0  0  0  0
   45.3569    8.2812   12.5329 H   0  0  0  0  0  0  0  0  0  0  0  0
   43.9080    4.3086    9.4692 H   0  0  0  0  0  0  0  0  0  0  0  0
   41.8473    5.3982   13.0771 H   0  0  0  0  0  0  0  0  0  0  0  0
   41.7935    4.5903   10.7335 H   0  0  0  0  0  0  0  0  0  0  0  0
   46.6063    5.9667   10.9531 H   0  0  0  0  0  0  0  0  0  0  0  0
   46.7959    7.6102   11.5649 H   0  0  0  0  0  0  0  0  0  0  0  0
   44.7578    7.1628   13.1251 H   0  0  0  0  0  0  0  0  0  0  0  0
   43.2109    7.3686   11.3693 H   0  0  0  0  0  0  0  0  0  0  0  0
   44.2278    6.7798   10.2622 H   0  0  0  0  0  0  0  0  0  0  0  0
   44.3899    3.6987   13.3807 H   0  0  0  0  0  0  0  0  0  0  0  0
   47.7603    6.4026   14.7112 H   0  0  0  0  0  0  0  0  0  0  0  0
   46.1623    4.3380   11.8866 H   0  0  0  0  0  0  0  0  0  0  0  0
   45.4025    5.2771   10.6275 H   0  0  0  0  0  0  0  0  0  0  0  0
   42.2695    5.7765   12.3493 H   0  0  0  0  0  0  0  0  0  0  0  0
   42.9586    5.5962   10.8827 H   0  0  0  0  0  0  0  0  0  0  0  0
   44.2946    5.3513   13.4909 H   0  0  0  0  0  0  0  0  0  0  0  0
   47.7343    5.3039   13.3591 H   0  0  0  0  0  0  0  0  0  0  0  0
   45.0978    7.8666   11.1049 H   0  0  0  0  0  0  0  0  0  0  0  0
   42.7696    3.4702   12.8923 H   0  0  0  0  0  0  0  0  0  0  0  0
   43.6268    3.2527   11.3515 H   0  0  0  0  0  0  0  0  0  0  0  0
   44.4593    2.9536   12.8861 H   0  0  0  0  0  0  0  0  0  0  0  0
   49.0022    7.2812   14.1086 H   0  0  0  0  0  0  0  0  0  0  0  0
   46.3790    9.8354   11.8646 H   0  0  0  0  0  0  0  0  0  0  0  0
   48.3401    9.5516   13.3604 H   0  0  0  0  0  0  0  0  0  0  0  0
   44.8464    4.4250   11.8635 H   0  0  0  0  0  0  0  0  0  0  0  0
   47.1069    6.7415   13.3432 H   0  0  0  0  0  0  0  0  0  0  0  0
  4  2  1  0
  3  1  1  0
  4  1  1  0
  5  3  2  0
  6  3  1  0
  4  7  1  0
  8  5  1  0
  9  6  2  0
 10  8  2  0
  9 10  1  0
 12 14  1  0
 13 11  1  0
 14 11  1  0
 15 13  2  0
 16 13  1  0
 17 14  1  0
 18 16  2  0
 19 15  1  0
 20 18  1  0
 19 20  2  0
 22 24  1  0
 23 21  1  0
 24 21  1  0
 25 22  2  0
 26 23  2  0
 27 24  1  0
 28 22  1  0
 29 23  1  0
 33 31  1  0
 32 30  1  0
 33 30  1  0
 34 32  2  0
 35 32  1  0
 33 36  1  0
 37 34  1  0
 38 35  2  0
 39 37  2  0
 38 39  1  0
 41 40  2  0
 42 40  2  0
 43 40  1  0
 44 40  1  0
  1 45  1  0
  1 46  1  0
  2 47  1  0
  2 48  1  0
  4 49  1  6
  5 50  1  0
  6 51  1  0
  7 52  1  0
  7 53  1  0
  7 54  1  0
  8 55  1  0
  9 56  1  0
 10 57  1  0
 11 58  1  0
 11 59  1  0
 12 60  1  0
 12 61  1  0
 14 62  1  6
 15 63  1  0
 16 64  1  0
 17 65  1  0
 17 66  1  0
 17 67  1  0
 18 68  1  0
 19 69  1  0
 20 70  1  0
 21 71  1  0
 21 72  1  0
 24 73  1  1
 27 74  1  0
 27 75  1  0
 28 76  1  0
 29 77  1  0
 30 78  1  0
 30 79  1  0
 31 80  1  0
 31 81  1  0
 33 82  1  1
 34 83  1  0
 35 84  1  0
 36 85  1  0
 36 86  1  0
 36 87  1  0
 37 88  1  0
 38 89  1  0
 39 90  1  0
 43 91  1  0
 44 92  1  0
M  END
> <Uni-Dock RESULT> 
ENERGY=   -7.695  LOWER_BOUND=    1.073  UPPER_BOUND=    2.291
INTER + INTRA:          -7.695
INTER:                  -7.695
INTRA:                   0.000
UNBOUND:                 0.000

$$$$

     RDKit          3D

 92 90  0  0  0  0  0  0  0  0999 V2000
   45.4948    4.9544   12.7067 C   0  0  0  0  0  0  0  0  0  0  0  0
   44.6842    2.9778   11.4812 N   0  0  0  0  0  0  0  0  0  0  0  0
   46.0102    6.3743   12.6342 C   0  0  0  0  0  0  0  0  0  0  0  0
   44.9717    4.4153   11.3578 C   0  0  1  0  0  0  0  0  0  0  0  0
   45.2271    7.4445   13.0903 C   0  0  0  0  0  0  0  0  0  0  0  0
   47.2782    6.6404   12.0993 C   0  0  0  0  0  0  0  0  0  0  0  0
   43.7073    5.1383   10.8887 C   0  0  0  0  0  0  0  0  0  0  0  0
   45.7035    8.7548   13.0125 C   0  0  0  0  0  0  0  0  0  0  0  0
   47.7554    7.9507   12.0250 C   0  0  0  0  0  0  0  0  0  0  0  0
   46.9668    9.0070   12.4797 C   0  0  0  0  0  0  0  0  0  0  0  0
   44.5887    5.6778   12.8343 C   0  0  0  0  0  0  0  0  0  0  0  0
   42.7579    4.2969   11.9049 N   0  0  0  0  0  0  0  0  0  0  0  0
   45.7478    6.6046   12.5521 C   0  0  0  0  0  0  0  0  0  0  0  0
   43.9957    5.0165   11.5709 C   0  0  2  0  0  0  0  0  0  0  0  0
   47.0591    6.2213   12.8641 C   0  0  0  0  0  0  0  0  0  0  0  0
   45.5274    7.8595   11.9675 C   0  0  0  0  0  0  0  0  0  0  0  0
   44.9646    4.0279   10.9207 C   0  0  0  0  0  0  0  0  0  0  0  0
   46.5967    8.7147   11.6992 C   0  0  0  0  0  0  0  0  0  0  0  0
   48.1276    7.0783   12.5959 C   0  0  0  0  0  0  0  0  0  0  0  0
   47.8960    8.3235   12.0143 C   0  0  0  0  0  0  0  0  0  0  0  0
   44.5457    5.9880   11.3348 C   0  0  0  0  0  0  0  0  0  0  0  0
   46.4843    6.9783   12.5764 C   0  0  0  0  0  0  0  0  0  0  0  0
   43.8678    5.3869   12.5293 C   0  0  0  0  0  0  0  0  0  0  0  0
   46.0601    5.9867   11.4863 C   0  0  2  0  0  0  0  0  0  0  0  0
   46.9922    8.0758   12.3963 O   0  0  0  0  0  0  0  0  0  0  0  0
   43.0362    5.9364   13.2313 O   0  0  0  0  0  0  0  0  0  0  0  0
   46.6778    6.3866   10.1920 N   0  0  0  0  0  0  0  0  0  0  0  0
   46.2497    6.5286   13.8233 O   0  0  0  0  0  0  0  0  0  0  0  0
   44.2273    4.1111   12.7592 O   0  0  0  0  0  0  0  0  0  0  0  0
   45.2701    7.1732   12.2143 C   0  0  0  0  0  0  0  0  0  0  0  0
   47.7086    7.0654   11.6877 N   0  0  0  0  0  0  0  0  0  0  0  0
   44.6883    5.8792   11.6926 C   0  0  0  0  0  0  0  0  0  0  0  0
   46.7070    7.0264   12.7635 C   0  0  1  0  0  0  0  0  0  0  0  0
   43.7337    5.1791   12.4439 C   0  0  0  0  0  0  0  0  0  0  0  0
   45.0959    5.3546   10.4597 C   0  0  0  0  0  0  0  0  0  0  0  0
   47.0134    8.1484   13.7582 C   0  0  0  0  0  0  0  0  0  0  0  0
   43.1961    3.9820   11.9680 C   0  0  0  0  0  0  0  0  0  0  0  0
   44.5589    4.1565    9.9869 C   0  0  0  0  0  0  0  0  0  0  0  0
   43.6057    3.4711   10.7382 C   0  0  0  0  0  0  0  0  0  0  0  0
   45.7222    5.9826   11.7049 S   0  0  0  0  0  0  0  0  0  0  0  0
   45.6690    5.6687   10.2996 O   0  0  0  0  0  0  0  0  0  0  0  0
   46.6765    5.3762   12.5996 O   0  0  0  0  0  0  0  0  0  0  0  0
   45.8396    7.5732   11.8964 O   0  0  0  0  0  0  0  0  0  0  0  0
   44.2724    5.6779   12.3272 O   0  0  0  0  0  0  0  0  0  0  0  0
   44.7083    4.8854   13.4716 H   0  0  0  0  0  0  0  0  0  0  0  0
   46.3164    4.3176   13.0671 H   0  0  0  0  0  0  0  0  0  0  0  0
   44.3166    2.6295   10.5965 H   0  0  0  0  0  0  0  0  0  0  0  0
   43.9425    2.8349   12.1650 H   0  0  0  0  0  0  0  0  0  0  0  0
   45.7438    4.5333   10.5886 H   0  0  0  0  0  0  0  0  0  0  0  0
   44.2385    7.2638   13.5059 H   0  0  0  0  0  0  0  0  0  0  0  0
   47.9043    5.8251   11.7414 H   0  0  0  0  0  0  0  0  0  0  0  0
   43.9094    6.1936   10.6808 H   0  0  0  0  0  0  0  0  0  0  0  0
   42.9119    5.0855   11.6411 H   0  0  0  0  0  0  0  0  0  0  0  0
   43.3248    4.6977    9.9607 H   0  0  0  0  0  0  0  0  0  0  0  0
   45.0889    9.5777   13.3684 H   0  0  0  0  0  0  0  0  0  0  0  0
   48.7425    8.1464   11.6133 H   0  0  0  0  0  0  0  0  0  0  0  0
   47.3382   10.0268   12.4213 H   0  0  0  0  0  0  0  0  0  0  0  0
   43.8138    6.2623   13.3485 H   0  0  0  0  0  0  0  0  0  0  0  0
   44.8940    4.9072   13.5539 H   0  0  0  0  0  0  0  0  0  0  0  0
   42.9552    3.5568   12.5789 H   0  0  0  0  0  0  0  0  0  0  0  0
   42.1020    4.9330   12.3583 H   0  0  0  0  0  0  0  0  0  0  0  0
   43.7445    5.7871   10.8336 H   0  0  0  0  0  0  0  0  0  0  0  0
   47.2581    5.2513   13.3134 H   0  0  0  0  0  0  0  0  0  0  0  0
   44.5184    8.1789   11.7163 H   0  0  0  0  0  0  0  0  0  0  0  0
   45.2762    3.2445   11.6206 H   0  0  0  0  0  0  0  0  0  0  0  0
   44.5042    3.5400   10.0534 H   0  0  0  0  0  0  0  0  0  0  0  0
   45.8643    4.5385   10.5630 H   0  0  0  0  0  0  0  0  0  0  0  0
   46.4158    9.6859   11.2460 H   0  0  0  0  0  0  0  0  0  0  0  0
   49.1415    6.7740   12.8405 H   0  0  0  0  0  0  0  0  0  0  0  0
   48.7290    8.9891   11.8056 H   0  0  0  0  0  0  0  0  0  0  0  0
   44.1647    7.0095   11.2101 H   0  0  0  0  0  0  0  0  0  0  0  0
   44.2290    5.4170   10.4542 H   0  0  0  0  0  0  0  0  0  0  0  0
   46.4510    4.9975   11.7484 H   0  0  0  0  0  0  0  0  0  0  0  0
   47.6940    6.3769   10.3097 H   0  0  0  0  0  0  0  0  0  0  0  0
   46.4573    7.3744   10.0239 H   0  0  0  0  0  0  0  0  0  0  0  0
   46.5431    7.2595   14.4085 H   0  0  0  0  0  0  0  0  0  0  0  0
   43.7006    3.8512   13.5456 H   0  0  0  0  0  0  0  0  0  0  0  0
   44.6104    7.5496   13.0075 H   0  0  0  0  0  0  0  0  0  0  0  0
   45.2298    7.9321   11.4219 H   0  0  0  0  0  0  0  0  0  0  0  0
   48.6391    6.9502   12.0871 H   0  0  0  0  0  0  0  0  0  0  0  0
   47.7006    7.9810   11.2417 H   0  0  0  0  0  0  0  0  0  0  0  0
   46.8039    6.0664   13.2856 H   0  0  0  0  0  0  0  0  0  0  0  0
   43.4007    5.5619   13.4058 H   0  0  0  0  0  0  0  0  0  0  0  0
   45.8421    5.8763    9.8645 H   0  0  0  0  0  0  0  0  0  0  0  0
   48.0315    8.0570   14.1535 H   0  0  0  0  0  0  0  0  0  0  0  0
   46.9122    9.1348   13.2923 H   0  0  0  0  0  0  0  0  0  0  0  0
   46.3251    8.1062   14.6093 H   0  0  0  0  0  0  0  0  0  0  0  0
   42.4595    3.4461   12.5592 H   0  0  0  0  0  0  0  0  0  0  0  0
   44.8889    3.7568    9.0319 H   0  0  0  0  0  0  0  0  0  0  0  0
   43.1886    2.5381   10.3691 H   0  0  0  0  0  0  0  0  0  0  0  0
   45.9062    7.7472   12.8611 H   0  0  0  0  0  0  0  0  0  0  0  0
   44.1434    4.7026   12.3240 H   0  0  0  0  0  0  0  0  0  0  0  0
  4  2  1  0
  3  1  1  0
  4  1  1  0
  5  3  2  0
  6  3  1  0
  4  7  1  0
  8  5  1  0
  9  6  2  0
 10  8  2  0
  9 10  1  0
 12 14  1  0
 13 11  1  0
 14 11  1  0
 15 13  2  0
 16 13  1  0
 17 14  1  0
 18 16  2  0
 19 15  1  0
 20 18  1  0
 19 20  2  0
 22 24  1  0
 23 21  1  0
 24 21  1  0
 25 22  2  0
 26 23  2  0
 27 24  1  0
 28 22  1  0
 29 23  1  0
 33 31  1  0
 32 30  1  0
 33 30  1  0
 34 32  2  0
 35 32  1  0
 33 36  1  0
 37 34  1  0
 38 35  2  0
 39 37  2  0
 38 39  1  0
 41 40  2  0
 42 40  2  0
 43 40  1  0
 44 40  1  0
  1 45  1  0
  1 46  1  0
  2 47  1  0
  2 48  1  0
  4 49  1  6
  5 50  1  0
  6 51  1  0
  7 52  1  0
  7 53  1  0
  7 54  1  0
  8 55  1  0
  9 56  1  0
 10 57  1  0
 11 58  1  0
 11 59  1  0
 12 60  1  0
 12 61  1  0
 14 62  1  6
 15 63  1  0
 16 64  1  0
 17 65  1  0
 17 66  1  0
 17 67  1  0
 18 68  1  0
 19 69  1  0
 20 70  1  0
 21 71  1  0
 21 72  1  0
 24 73  1  1
 27 74  1  0
 27 75  1  0
 28 76  1  0
 29 77  1  0
 30 78  1  0
 30 79  1  0
 31 80  1  0
 31 81  1  0
 33 82  1  1
 34 83  1  0
 35 84  1  0
 36 85  1  0
 36 86  1  0
 36 87  1  0
 37 88  1  0
 38 89  1  0
 39 90  1  0
 43 91  1  0
 44 92  1  0
M  END
> <Uni-Dock RESULT> 
ENERGY=   -7.367  LOWER_BOUND=    0.944  UPPER_BOUND=    4.075
INTER + INTRA:          -7.367
INTER:                  -7.367
INTRA:                   0.000
UNBOUND:                 0.000

$$$$

     RDKit          3D

 92 90  0  0  0  0  0  0  0  0999 V2000
   49.3115    6.1381   19.6052 C   0  0  0  0  0  0  0  0  0  0  0  0
   49.5750    6.6938   21.9900 N   0  0  0  0  0  0  0  0  0  0  0  0
   48.7776    5.1676   18.5756 C   0  0  0  0  0  0  0  0  0  0  0  0
   48.8505    5.8290   21.0459 C   0  0  1  0  0  0  0  0  0  0  0  0
   47.6915    5.5152   17.7594 C   0  0  0  0  0  0  0  0  0  0  0  0
   49.3579    3.9000   18.4301 C   0  0  0  0  0  0  0  0  0  0  0  0
   47.3460    6.0335   21.2360 C   0  0  0  0  0  0  0  0  0  0  0  0
   47.1960    4.6120   16.8166 C   0  0  0  0  0  0  0  0  0  0  0  0
   48.8640    2.9986   17.4847 C   0  0  0  0  0  0  0  0  0  0  0  0
   47.7822    3.3546   16.6803 C   0  0  0  0  0  0  0  0  0  0  0  0
   48.2502    6.4977   19.2815 C   0  0  0  0  0  0  0  0  0  0  0  0
   47.5020    7.6481   21.3404 N   0  0  0  0  0  0  0  0  0  0  0  0
   48.4203    5.1863   18.5512 C   0  0  0  0  0  0  0  0  0  0  0  0
   47.8413    6.3396   20.7623 C   0  0  2  0  0  0  0  0  0  0  0  0
   49.6986    4.7084   18.2329 C   0  0  0  0  0  0  0  0  0  0  0  0
   47.3003    4.4257   18.1874 C   0  0  0  0  0  0  0  0  0  0  0  0
   48.9500    5.7138   21.6098 C   0  0  0  0  0  0  0  0  0  0  0  0
   47.4547    3.2107   17.5190 C   0  0  0  0  0  0  0  0  0  0  0  0
   49.8513    3.4932   17.5635 C   0  0  0  0  0  0  0  0  0  0  0  0
   48.7303    2.7458   17.2071 C   0  0  0  0  0  0  0  0  0  0  0  0
   47.5600    5.4290   20.1348 C   0  0  0  0  0  0  0  0  0  0  0  0
   48.7255    4.5743   18.0875 C   0  0  0  0  0  0  0  0  0  0  0  0
   47.8174    6.8842   19.8821 C   0  0  0  0  0  0  0  0  0  0  0  0
   48.6971    4.5579   19.6206 C   0  0  2  0  0  0  0  0  0  0  0  0
   48.3530    3.6741   17.3487 O   0  0  0  0  0  0  0  0  0  0  0  0
   47.0964    7.6391   19.2524 O   0  0  0  0  0  0  0  0  0  0  0  0
   48.4903    3.1611   20.0926 N   0  0  0  0  0  0  0  0  0  0  0  0
   49.2241    5.7161   17.5781 O   0  0  0  0  0  0  0  0  0  0  0  0
   48.9400    7.3359   20.4698 O   0  0  0  0  0  0  0  0  0  0  0  0
   47.6184    5.0365   18.5394 C   0  0  0  0  0  0  0  0  0  0  0  0
   49.2754    3.1815   18.3197 N   0  0  0  0  0  0  0  0  0  0  0  0
   47.8414    5.6138   19.9185 C   0  0  0  0  0  0  0  0  0  0  0  0
   48.9139    4.5322   17.8648 C   0  0  1  0  0  0  0  0  0  0  0  0
   47.8235    7.0020   20.1157 C   0  0  0  0  0  0  0  0  0  0  0  0
   48.0769    4.7777   21.0171 C   0  0  0  0  0  0  0  0  0  0  0  0
   48.7468    4.5079   16.3437 C   0  0  0  0  0  0  0  0  0  0  0  0
   48.0324    7.5400   21.3867 C   0  0  0  0  0  0  0  0  0  0  0  0
   48.2878    5.3179   22.2865 C   0  0  0  0  0  0  0  0  0  0  0  0
   48.2618    6.6988   22.4735 C   0  0  0  0  0  0  0  0  0  0  0  0
   48.5247    4.9168   19.5620 S   0  0  0  0  0  0  0  0  0  0  0  0
   48.2442    4.1765   20.7659 O   0  0  0  0  0  0  0  0  0  0  0  0
   49.8662    5.1363   19.0811 O   0  0  0  0  0  0  0  0  0  0  0  0
   47.6806    4.2998   18.3424 O   0  0  0  0  0  0  0  0  0  0  0  0
   47.8648    6.3733   19.7211 O   0  0  0  0  0  0  0  0  0  0  0  0
   49.0267    7.1634   19.3292 H   0  0  0  0  0  0  0  0  0  0  0  0
   50.4102    6.1109   19.5534 H   0  0  0  0  0  0  0  0  0  0  0  0
   49.2517    6.5045   22.9380 H   0  0  0  0  0  0  0  0  0  0  0  0
   49.3431    7.6690   21.8076 H   0  0  0  0  0  0  0  0  0  0  0  0
   49.0931    4.7897   21.2962 H   0  0  0  0  0  0  0  0  0  0  0  0
   47.2220    6.4914   17.8560 H   0  0  0  0  0  0  0  0  0  0  0  0
   50.2034    3.6096   19.0512 H   0  0  0  0  0  0  0  0  0  0  0  0
   46.7711    5.3288   20.6272 H   0  0  0  0  0  0  0  0  0  0  0  0
   47.0408    7.0496   20.9605 H   0  0  0  0  0  0  0  0  0  0  0  0
   47.0558    5.8645   22.2795 H   0  0  0  0  0  0  0  0  0  0  0  0
   46.3535    4.8906   16.1888 H   0  0  0  0  0  0  0  0  0  0  0  0
   49.3244    2.0196   17.3759 H   0  0  0  0  0  0  0  0  0  0  0  0
   47.3977    2.6527   15.9448 H   0  0  0  0  0  0  0  0  0  0  0  0
   47.4897    7.0806   18.7444 H   0  0  0  0  0  0  0  0  0  0  0  0
   49.1723    7.0884   19.2071 H   0  0  0  0  0  0  0  0  0  0  0  0
   48.3133    8.2657   21.3069 H   0  0  0  0  0  0  0  0  0  0  0  0
   46.7762    8.0940   20.7795 H   0  0  0  0  0  0  0  0  0  0  0  0
   46.9525    5.7028   20.8346 H   0  0  0  0  0  0  0  0  0  0  0  0
   50.5841    5.2764   18.5082 H   0  0  0  0  0  0  0  0  0  0  0  0
   46.2980    4.7760   18.4239 H   0  0  0  0  0  0  0  0  0  0  0  0
   49.8785    6.2932   21.5559 H   0  0  0  0  0  0  0  0  0  0  0  0
   48.6521    5.6537   22.6633 H   0  0  0  0  0  0  0  0  0  0  0  0
   49.1687    4.6939   21.2782 H   0  0  0  0  0  0  0  0  0  0  0  0
   46.5803    2.6282   17.2408 H   0  0  0  0  0  0  0  0  0  0  0  0
   50.8457    3.1292   17.3204 H   0  0  0  0  0  0  0  0  0  0  0  0
   48.8510    1.7998   16.6867 H   0  0  0  0  0  0  0  0  0  0  0  0
   46.6126    5.1652   19.6479 H   0  0  0  0  0  0  0  0  0  0  0  0
   47.4129    5.3030   21.2138 H   0  0  0  0  0  0  0  0  0  0  0  0
   49.6743    4.8904   19.9874 H   0  0  0  0  0  0  0  0  0  0  0  0
   49.2638    2.5906   19.7423 H   0  0  0  0  0  0  0  0  0  0  0  0
   47.6657    2.7808   19.6150 H   0  0  0  0  0  0  0  0  0  0  0  0
   49.1631    5.5998   16.6057 H   0  0  0  0  0  0  0  0  0  0  0  0
   48.9673    8.2886   20.2352 H   0  0  0  0  0  0  0  0  0  0  0  0
   47.1569    5.8126   17.9142 H   0  0  0  0  0  0  0  0  0  0  0  0
   46.8714    4.2341   18.6007 H   0  0  0  0  0  0  0  0  0  0  0  0
   50.1405    2.8915   17.8655 H   0  0  0  0  0  0  0  0  0  0  0  0
   48.5621    2.5161   18.0265 H   0  0  0  0  0  0  0  0  0  0  0  0
   49.7424    5.2082   18.1102 H   0  0  0  0  0  0  0  0  0  0  0  0
   47.6455    7.6748   19.2802 H   0  0  0  0  0  0  0  0  0  0  0  0
   48.1043    3.6983   20.8854 H   0  0  0  0  0  0  0  0  0  0  0  0
   49.6588    4.1493   15.8531 H   0  0  0  0  0  0  0  0  0  0  0  0
   47.9164    3.8598   16.0427 H   0  0  0  0  0  0  0  0  0  0  0  0
   48.5428    5.5147   15.9633 H   0  0  0  0  0  0  0  0  0  0  0  0
   48.0195    8.6166   21.5279 H   0  0  0  0  0  0  0  0  0  0  0  0
   48.4763    4.6583   23.1291 H   0  0  0  0  0  0  0  0  0  0  0  0
   48.4264    7.1181   23.4623 H   0  0  0  0  0  0  0  0  0  0  0  0
   47.9206    4.8062   17.5353 H   0  0  0  0  0  0  0  0  0  0  0  0
   48.3769    6.8617   20.4045 H   0  0  0  0  0  0  0  0  0  0  0  0
  4  2  1  0
  3  1  1  0
  4  1  1  0
  5  3  2  0
  6  3  1  0
  4  7  1  0
  8  5  1  0
  9  6  2  0
 10  8  2  0
  9 10  1  0
 12 14  1  0
 13 11  1  0
 14 11  1  0
 15 13  2  0
 16 13  1  0
 17 14  1  0
 18 16  2  0
 19 15  1  0
 20 18  1  0
 19 20  2  0
 22 24  1  0
 23 21  1  0
 24 21  1  0
 25 22  2  0
 26 23  2  0
 27 24  1  0
 28 22  1  0
 29 23  1  0
 33 31  1  0
 32 30  1  0
 33 30  1  0
 34 32  2  0
 35 32  1  0
 33 36  1  0
 37 34  1  0
 38 35  2  0
 39 37  2  0
 38 39  1  0
 41 40  2  0
 42 40  2  0
 43 40  1  0
 44 40  1  0
  1 45  1  0
  1 46  1  0
  2 47  1  0
  2 48  1  0
  4 49  1  6
  5 50  1  0
  6 51  1  0
  7 52  1  0
  7 53  1  0
  7 54  1  0
  8 55  1  0
  9 56  1  0
 10 57  1  0
 11 58  1  0
 11 59  1  0
 12 60  1  0
 12 61  1  0
 14 62  1  6
 15 63  1  0
 16 64  1  0
 17 65  1  0
 17 66  1  0
 17 67  1  0
 18 68  1  0
 19 69  1  0
 20 70  1  0
 21 71  1  0
 21 72  1  0
 24 73  1  1
 27 74  1  0
 27 75  1  0
 28 76  1  0
 29 77  1  0
 30 78  1  0
 30 79  1  0
 31 80  1  0
 31 81  1  0
 33 82  1  1
 34 83  1  0
 35 84  1  0
 36 85  1  0
 36 86  1  0
 36 87  1  0
 37 88  1  0
 38 89  1  0
 39 90  1  0
 43 91  1  0
 44 92  1  0
M  END
> <Uni-Dock RESULT> 
ENERGY=   -6.565  LOWER_BOUND=    6.476  UPPER_BOUND=    7.868
INTER + INTRA:          -6.565
INTER:                  -6.565
INTRA:                   0.000
UNBOUND:                 0.000

$$$$

     RDKit          3D

 92 90  0  0  0  0  0  0  0  0999 V2000
   46.9062    6.1818   11.8073 C   0  0  0  0  0  0  0  0  0  0  0  0
   44.8233    5.6627   10.5999 N   0  0  0  0  0  0  0  0  0  0  0  0
   47.6911    7.1894   12.6170 C   0  0  0  0  0  0  0  0  0  0  0  0
   45.4404    6.5961   11.5550 C   0  0  1  0  0  0  0  0  0  0  0  0
   47.9307    6.9800   13.9828 C   0  0  0  0  0  0  0  0  0  0  0  0
   48.1827    8.3544   12.0122 C   0  0  0  0  0  0  0  0  0  0  0  0
   44.6086    6.6180   12.8391 C   0  0  0  0  0  0  0  0  0  0  0  0
   48.6478    7.9180   14.7284 C   0  0  0  0  0  0  0  0  0  0  0  0
   48.9028    9.2904   12.7577 C   0  0  0  0  0  0  0  0  0  0  0  0
   49.1329    9.0724   14.1155 C   0  0  0  0  0  0  0  0  0  0  0  0
   46.7121    5.9711   12.9380 C   0  0  0  0  0  0  0  0  0  0  0  0
   44.4375    5.0017   12.8458 N   0  0  0  0  0  0  0  0  0  0  0  0
   47.5587    7.2222   12.9487 C   0  0  0  0  0  0  0  0  0  0  0  0
   45.2191    6.2297   12.6396 C   0  0  2  0  0  0  0  0  0  0  0  0
   48.4336    7.4998   11.8898 C   0  0  0  0  0  0  0  0  0  0  0  0
   47.4755    8.1267   14.0165 C   0  0  0  0  0  0  0  0  0  0  0  0
   44.9858    6.7118   11.2070 C   0  0  0  0  0  0  0  0  0  0  0  0
   48.2511    9.2865   14.0256 C   0  0  0  0  0  0  0  0  0  0  0  0
   49.2094    8.6600   11.9009 C   0  0  0  0  0  0  0  0  0  0  0  0
   49.1179    9.5518   12.9680 C   0  0  0  0  0  0  0  0  0  0  0  0
   45.7447    7.1530   13.0559 C   0  0  0  0  0  0  0  0  0  0  0  0
   48.1608    7.7697   12.8057 C   0  0  0  0  0  0  0  0  0  0  0  0
   45.9525    5.6692   13.1086 C   0  0  0  0  0  0  0  0  0  0  0  0
   46.7707    7.8343   12.1617 C   0  0  2  0  0  0  0  0  0  0  0  0
   48.7467    8.6927   13.3530 O   0  0  0  0  0  0  0  0  0  0  0  0
   46.1440    5.0092   14.1157 O   0  0  0  0  0  0  0  0  0  0  0  0
   46.3820    9.2594   11.9753 N   0  0  0  0  0  0  0  0  0  0  0  0
   48.7304    6.5532   12.7178 O   0  0  0  0  0  0  0  0  0  0  0  0
   45.8628    5.0762   11.9044 O   0  0  0  0  0  0  0  0  0  0  0  0
   47.2402    7.4866   13.6517 C   0  0  0  0  0  0  0  0  0  0  0  0
   48.3108    9.0738   12.0488 N   0  0  0  0  0  0  0  0  0  0  0  0
   46.0431    6.9230   12.9208 C   0  0  0  0  0  0  0  0  0  0  0  0
   48.4455    7.7775   12.7295 C   0  0  1  0  0  0  0  0  0  0  0  0
   45.7344    5.5585   13.0155 C   0  0  0  0  0  0  0  0  0  0  0  0
   45.2296    7.7474   12.1334 C   0  0  0  0  0  0  0  0  0  0  0  0
   49.7450    7.7819   13.5378 C   0  0  0  0  0  0  0  0  0  0  0  0
   44.6320    5.0328   12.3395 C   0  0  0  0  0  0  0  0  0  0  0  0
   44.1293    7.2192   11.4566 C   0  0  0  0  0  0  0  0  0  0  0  0
   43.8269    5.8627   11.5621 C   0  0  0  0  0  0  0  0  0  0  0  0
   46.7177    7.5027   12.3836 S   0  0  0  0  0  0  0  0  0  0  0  0
   45.5806    8.3104   12.0222 O   0  0  0  0  0  0  0  0  0  0  0  0
   47.7039    7.0767   11.4218 O   0  0  0  0  0  0  0  0  0  0  0  0
   47.5096    8.2004   13.5947 O   0  0  0  0  0  0  0  0  0  0  0  0
   46.1631    6.1628   13.0759 O   0  0  0  0  0  0  0  0  0  0  0  0
   46.9415    5.2012   12.3032 H   0  0  0  0  0  0  0  0  0  0  0  0
   47.4244    6.0474   10.8461 H   0  0  0  0  0  0  0  0  0  0  0  0
   43.8490    5.9243   10.4533 H   0  0  0  0  0  0  0  0  0  0  0  0
   44.8016    4.7268   11.0018 H   0  0  0  0  0  0  0  0  0  0  0  0
   45.4114    7.5958   11.1063 H   0  0  0  0  0  0  0  0  0  0  0  0
   47.5563    6.0857   14.4754 H   0  0  0  0  0  0  0  0  0  0  0  0
   48.0107    8.5367   10.9529 H   0  0  0  0  0  0  0  0  0  0  0  0
   44.9737    7.3810   13.5337 H   0  0  0  0  0  0  0  0  0  0  0  0
   44.6357    5.6496   13.3519 H   0  0  0  0  0  0  0  0  0  0  0  0
   43.5608    6.8575   12.6239 H   0  0  0  0  0  0  0  0  0  0  0  0
   48.8281    7.7469   15.7866 H   0  0  0  0  0  0  0  0  0  0  0  0
   49.2844   10.1885   12.2782 H   0  0  0  0  0  0  0  0  0  0  0  0
   49.6929    9.8012   14.6957 H   0  0  0  0  0  0  0  0  0  0  0  0
   46.8187    5.4897   13.9196 H   0  0  0  0  0  0  0  0  0  0  0  0
   47.1203    5.2507   12.2174 H   0  0  0  0  0  0  0  0  0  0  0  0
   44.7592    4.2720   12.2095 H   0  0  0  0  0  0  0  0  0  0  0  0
   44.5925    4.6500   13.7906 H   0  0  0  0  0  0  0  0  0  0  0  0
   44.8313    6.9907   13.3259 H   0  0  0  0  0  0  0  0  0  0  0  0
   48.5135    6.8172   11.0470 H   0  0  0  0  0  0  0  0  0  0  0  0
   46.8035    7.9328   14.8495 H   0  0  0  0  0  0  0  0  0  0  0  0
   45.3792    6.0022   10.4705 H   0  0  0  0  0  0  0  0  0  0  0  0
   43.9160    6.8450   11.0072 H   0  0  0  0  0  0  0  0  0  0  0  0
   45.4684    7.6791   11.0354 H   0  0  0  0  0  0  0  0  0  0  0  0
   48.1799    9.9817   14.8581 H   0  0  0  0  0  0  0  0  0  0  0  0
   49.8853    8.8683   11.0761 H   0  0  0  0  0  0  0  0  0  0  0  0
   49.7220   10.4548   12.9747 H   0  0  0  0  0  0  0  0  0  0  0  0
   45.8017    7.5375   14.0821 H   0  0  0  0  0  0  0  0  0  0  0  0
   44.7222    7.3301   12.7025 H   0  0  0  0  0  0  0  0  0  0  0  0
   46.8283    7.3739   11.1693 H   0  0  0  0  0  0  0  0  0  0  0  0
   47.0784    9.7010   11.3698 H   0  0  0  0  0  0  0  0  0  0  0  0
   46.4935    9.7416   12.8740 H   0  0  0  0  0  0  0  0  0  0  0  0
   49.5898    6.6491   13.1817 H   0  0  0  0  0  0  0  0  0  0  0  0
   46.0008    4.1233   12.0951 H   0  0  0  0  0  0  0  0  0  0  0  0
   47.5366    6.7681   14.4277 H   0  0  0  0  0  0  0  0  0  0  0  0
   46.9375    8.3905   14.1966 H   0  0  0  0  0  0  0  0  0  0  0  0
   49.1147    9.2217   11.4400 H   0  0  0  0  0  0  0  0  0  0  0  0
   48.3293    9.8271   12.7342 H   0  0  0  0  0  0  0  0  0  0  0  0
   48.5183    6.9956   11.9633 H   0  0  0  0  0  0  0  0  0  0  0  0
   46.3502    4.8949   13.6178 H   0  0  0  0  0  0  0  0  0  0  0  0
   45.4560    8.8071   12.0383 H   0  0  0  0  0  0  0  0  0  0  0  0
   50.6079    7.9897   12.8950 H   0  0  0  0  0  0  0  0  0  0  0  0
   49.7189    8.5349   14.3332 H   0  0  0  0  0  0  0  0  0  0  0  0
   49.9105    6.8049   14.0048 H   0  0  0  0  0  0  0  0  0  0  0  0
   44.4035    3.9740   12.4171 H   0  0  0  0  0  0  0  0  0  0  0  0
   43.5103    7.8684   10.8434 H   0  0  0  0  0  0  0  0  0  0  0  0
   42.9702    5.4526   11.0344 H   0  0  0  0  0  0  0  0  0  0  0  0
   48.2933    7.6414   13.7918 H   0  0  0  0  0  0  0  0  0  0  0  0
   45.7233    5.6251   12.3792 H   0  0  0  0  0  0  0  0  0  0  0  0
  4  2  1  0
  3  1  1  0
  4  1  1  0
  5  3  2  0
  6  3  1  0
  4  7  1  0
  8  5  1  0
  9  6  2  0
 10  8  2  0
  9 10  1  0
 12 14  1  0
 13 11  1  0
 14 11  1  0
 15 13  2  0
 16 13  1  0
 17 14  1  0
 18 16  2  0
 19 15  1  0
 20 18  1  0
 19 20  2  0
 22 24  1  0
 23 21  1  0
 24 21  1  0
 25 22  2  0
 26 23  2  0
 27 24  1  0
 28 22  1  0
 29 23  1  0
 33 31  1  0
 32 30  1  0
 33 30  1  0
 34 32  2  0
 35 32  1  0
 33 36  1  0
 37 34  1  0
 38 35  2  0
 39 37  2  0
 38 39  1  0
 41 40  2  0
 42 40  2  0
 43 40  1  0
 44 40  1  0
  1 45  1  0
  1 46  1  0
  2 47  1  0
  2 48  1  0
  4 49  1  6
  5 50  1  0
  6 51  1  0
  7 52  1  0
  7 53  1  0
  7 54  1  0
  8 55  1  0
  9 56  1  0
 10 57  1  0
 11 58  1  0
 11 59  1  0
 12 60  1  0
 12 61  1  0
 14 62  1  6
 15 63  1  0
 16 64  1  0
 17 65  1  0
 17 66  1  0
 17 67  1  0
 18 68  1  0
 19 69  1  0
 20 70  1  0
 21 71  1  0
 21 72  1  0
 24 73  1  1
 27 74  1  0
 27 75  1  0
 28 76  1  0
 29 77  1  0
 30 78  1  0
 30 79  1  0
 31 80  1  0
 31 81  1  0
 33 82  1  1
 34 83  1  0
 35 84  1  0
 36 85  1  0
 36 86  1  0
 36 87  1  0
 37 88  1  0
 38 89  1  0
 39 90  1  0
 43 91  1  0
 44 92  1  0
M  END
> <Uni-Dock RESULT> 
ENERGY=   -6.483  LOWER_BOUND=    1.272  UPPER_BOUND=    4.535
INTER + INTRA:          -6.483
INTER:                  -6.483
INTRA:                   0.000
UNBOUND:                 0.000

$$$$

     RDKit          3D

 92 90  0  0  0  0  0  0  0  0999 V2000
   49.1893    5.2657   17.8815 C   0  0  0  0  0  0  0  0  0  0  0  0
   48.3761    4.4531   15.7034 N   0  0  0  0  0  0  0  0  0  0  0  0
   48.8723    5.5544   19.3317 C   0  0  0  0  0  0  0  0  0  0  0  0
   48.0665    4.5082   17.1405 C   0  0  1  0  0  0  0  0  0  0  0  0
   49.4233    4.7697   20.3551 C   0  0  0  0  0  0  0  0  0  0  0  0
   48.0129    6.6082   19.6720 C   0  0  0  0  0  0  0  0  0  0  0  0
   47.8765    3.0832   17.6647 C   0  0  0  0  0  0  0  0  0  0  0  0
   49.1199    5.0343   21.6923 C   0  0  0  0  0  0  0  0  0  0  0  0
   47.7128    6.8743   21.0096 C   0  0  0  0  0  0  0  0  0  0  0  0
   48.2648    6.0859   22.0185 C   0  0  0  0  0  0  0  0  0  0  0  0
   49.4833    4.3295   18.5121 C   0  0  0  0  0  0  0  0  0  0  0  0
   49.1659    2.5287   16.8450 N   0  0  0  0  0  0  0  0  0  0  0  0
   48.8410    5.2517   19.5215 C   0  0  0  0  0  0  0  0  0  0  0  0
   48.4706    3.5416   17.6525 C   0  0  2  0  0  0  0  0  0  0  0  0
   48.8399    6.6385   19.3203 C   0  0  0  0  0  0  0  0  0  0  0  0
   48.2309    4.7313   20.6713 C   0  0  0  0  0  0  0  0  0  0  0  0
   47.6787    4.4471   16.7080 C   0  0  0  0  0  0  0  0  0  0  0  0
   47.6307    5.5802   21.6018 C   0  0  0  0  0  0  0  0  0  0  0  0
   48.2398    7.4864   20.2525 C   0  0  0  0  0  0  0  0  0  0  0  0
   47.6362    6.9573   21.3918 C   0  0  0  0  0  0  0  0  0  0  0  0
   48.0238    3.8838   18.6452 C   0  0  0  0  0  0  0  0  0  0  0  0
   48.6467    5.9157   19.9732 C   0  0  0  0  0  0  0  0  0  0  0  0
   49.3964    3.6015   18.1123 C   0  0  0  0  0  0  0  0  0  0  0  0
   47.7851    5.3761   18.8252 C   0  0  2  0  0  0  0  0  0  0  0  0
   48.2543    6.2141   21.0921 O   0  0  0  0  0  0  0  0  0  0  0  0
   50.2393    2.8990   18.6438 O   0  0  0  0  0  0  0  0  0  0  0  0
   46.3481    5.6032   19.1416 N   0  0  0  0  0  0  0  0  0  0  0  0
   49.9448    6.0520   19.6439 O   0  0  0  0  0  0  0  0  0  0  0  0
   49.6310    4.1725   16.9170 O   0  0  0  0  0  0  0  0  0  0  0  0
   48.5903    4.6351   19.9933 C   0  0  0  0  0  0  0  0  0  0  0  0
   47.4721    6.8656   20.0921 N   0  0  0  0  0  0  0  0  0  0  0  0
   48.3413    4.1219   18.5934 C   0  0  0  0  0  0  0  0  0  0  0  0
   48.7665    6.1686   20.0660 C   0  0  1  0  0  0  0  0  0  0  0  0
   49.3652    3.4796   17.8829 C   0  0  0  0  0  0  0  0  0  0  0  0
   47.0925    4.2851   17.9808 C   0  0  0  0  0  0  0  0  0  0  0  0
   49.5554    6.5545   21.3193 C   0  0  0  0  0  0  0  0  0  0  0  0
   49.1411    3.0070   16.5886 C   0  0  0  0  0  0  0  0  0  0  0  0
   46.8714    3.8140   16.6859 C   0  0  0  0  0  0  0  0  0  0  0  0
   47.8937    3.1710   15.9901 C   0  0  0  0  0  0  0  0  0  0  0  0
   48.0820    5.1048   18.8090 S   0  0  0  0  0  0  0  0  0  0  0  0
   46.7669    4.7553   18.3351 O   0  0  0  0  0  0  0  0  0  0  0  0
   48.7514    6.3193   18.4143 O   0  0  0  0  0  0  0  0  0  0  0  0
   48.1065    5.0522   20.4144 O   0  0  0  0  0  0  0  0  0  0  0  0
   49.0751    3.9026   18.4208 O   0  0  0  0  0  0  0  0  0  0  0  0
   50.1320    4.7041   17.8141 H   0  0  0  0  0  0  0  0  0  0  0  0
   49.3801    6.2273   17.3822 H   0  0  0  0  0  0  0  0  0  0  0  0
   47.6454    3.9320   15.2200 H   0  0  0  0  0  0  0  0  0  0  0  0
   49.2352    3.9249   15.5588 H   0  0  0  0  0  0  0  0  0  0  0  0
   47.1193    5.0483   17.2544 H   0  0  0  0  0  0  0  0  0  0  0  0
   50.0898    3.9443   20.1162 H   0  0  0  0  0  0  0  0  0  0  0  0
   47.5756    7.2318   18.8943 H   0  0  0  0  0  0  0  0  0  0  0  0
   47.5384    3.0866   18.7057 H   0  0  0  0  0  0  0  0  0  0  0  0
   48.8079    2.5079   17.6110 H   0  0  0  0  0  0  0  0  0  0  0  0
   47.1154    2.5495   17.0837 H   0  0  0  0  0  0  0  0  0  0  0  0
   49.5518    4.4202   22.4784 H   0  0  0  0  0  0  0  0  0  0  0  0
   47.0491    7.6973   21.2636 H   0  0  0  0  0  0  0  0  0  0  0  0
   48.0308    6.2930   23.0595 H   0  0  0  0  0  0  0  0  0  0  0  0
   50.1279    3.6313   19.0632 H   0  0  0  0  0  0  0  0  0  0  0  0
   50.1623    4.8996   17.8650 H   0  0  0  0  0  0  0  0  0  0  0  0
   49.8258    2.9801   16.2113 H   0  0  0  0  0  0  0  0  0  0  0  0
   49.7174    1.9235   17.4531 H   0  0  0  0  0  0  0  0  0  0  0  0
   47.7608    3.0192   18.3034 H   0  0  0  0  0  0  0  0  0  0  0  0
   49.3018    7.0677   18.4343 H   0  0  0  0  0  0  0  0  0  0  0  0
   48.2190    3.6582   20.8490 H   0  0  0  0  0  0  0  0  0  0  0  0
   48.3382    5.0202   16.0468 H   0  0  0  0  0  0  0  0  0  0  0  0
   46.9999    3.8596   16.0785 H   0  0  0  0  0  0  0  0  0  0  0  0
   47.0636    5.1572   17.2696 H   0  0  0  0  0  0  0  0  0  0  0  0
   47.1604    5.1673   22.4905 H   0  0  0  0  0  0  0  0  0  0  0  0
   48.2428    8.5606   20.0894 H   0  0  0  0  0  0  0  0  0  0  0  0
   47.1690    7.6187   22.1161 H   0  0  0  0  0  0  0  0  0  0  0  0
   47.9168    3.3514   19.5988 H   0  0  0  0  0  0  0  0  0  0  0  0
   47.3024    3.4423   17.9478 H   0  0  0  0  0  0  0  0  0  0  0  0
   48.0194    5.9469   17.9201 H   0  0  0  0  0  0  0  0  0  0  0  0
   46.2041    6.6096   19.2555 H   0  0  0  0  0  0  0  0  0  0  0  0
   46.1613    5.2190   20.0745 H   0  0  0  0  0  0  0  0  0  0  0  0
   50.3744    6.3783   20.4635 H   0  0  0  0  0  0  0  0  0  0  0  0
   50.5440    3.8912   16.6917 H   0  0  0  0  0  0  0  0  0  0  0  0
   49.4916    4.1430   20.3827 H   0  0  0  0  0  0  0  0  0  0  0  0
   47.7748    4.3035   20.6494 H   0  0  0  0  0  0  0  0  0  0  0  0
   47.6300    7.8719   20.1242 H   0  0  0  0  0  0  0  0  0  0  0  0
   46.9693    6.6280   20.9455 H   0  0  0  0  0  0  0  0  0  0  0  0
   49.3236    6.5159   19.1870 H   0  0  0  0  0  0  0  0  0  0  0  0
   50.3454    3.3415   18.3331 H   0  0  0  0  0  0  0  0  0  0  0  0
   46.2866    4.7887   18.5101 H   0  0  0  0  0  0  0  0  0  0  0  0
   49.6852    7.6408   21.3840 H   0  0  0  0  0  0  0  0  0  0  0  0
   49.0514    6.2132   22.2302 H   0  0  0  0  0  0  0  0  0  0  0  0
   50.5540    6.1046   21.2987 H   0  0  0  0  0  0  0  0  0  0  0  0
   49.9419    2.5136   16.0459 H   0  0  0  0  0  0  0  0  0  0  0  0
   45.8999    3.9531   16.2195 H   0  0  0  0  0  0  0  0  0  0  0  0
   47.7203    2.8050   14.9818 H   0  0  0  0  0  0  0  0  0  0  0  0
   49.0051    5.3266   20.7020 H   0  0  0  0  0  0  0  0  0  0  0  0
   49.1846    3.9077   17.4431 H   0  0  0  0  0  0  0  0  0  0  0  0
  4  2  1  0
  3  1  1  0
  4  1  1  0
  5  3  2  0
  6  3  1  0
  4  7  1  0
  8  5  1  0
  9  6  2  0
 10  8  2  0
  9 10  1  0
 12 14  1  0
 13 11  1  0
 14 11  1  0
 15 13  2  0
 16 13  1  0
 17 14  1  0
 18 16  2  0
 19 15  1  0
 20 18  1  0
 19 20  2  0
 22 24  1  0
 23 21  1  0
 24 21  1  0
 25 22  2  0
 26 23  2  0
 27 24  1  0
 28 22  1  0
 29 23  1  0
 33 31  1  0
 32 30  1  0
 33 30  1  0
 34 32  2  0
 35 32  1  0
 33 36  1  0
 37 34  1  0
 38 35  2  0
 39 37  2  0
 38 39  1  0
 41 40  2  0
 42 40  2  0
 43 40  1  0
 44 40  1  0
  1 45  1  0
  1 46  1  0
  2 47  1  0
  2 48  1  0
  4 49  1  6
  5 50  1  0
  6 51  1  0
  7 52  1  0
  7 53  1  0
  7 54  1  0
  8 55  1  0
  9 56  1  0
 10 57  1  0
 11 58  1  0
 11 59  1  0
 12 60  1  0
 12 61  1  0
 14 62  1  6
 15 63  1  0
 16 64  1  0
 17 65  1  0
 17 66  1  0
 17 67  1  0
 18 68  1  0
 19 69  1  0
 20 70  1  0
 21 71  1  0
 21 72  1  0
 24 73  1  1
 27 74  1  0
 27 75  1  0
 28 76  1  0
 29 77  1  0
 30 78  1  0
 30 79  1  0
 31 80  1  0
 31 81  1  0
 33 82  1  1
 34 83  1  0
 35 84  1  0
 36 85  1  0
 36 86  1  0
 36 87  1  0
 37 88  1  0
 38 89  1  0
 39 90  1  0
 43 91  1  0
 44 92  1  0
M  END
> <Uni-Dock RESULT> 
ENERGY=   -6.437  LOWER_BOUND=    6.252  UPPER_BOUND=    8.312
INTER + INTRA:          -6.437
INTER:                  -6.437
INTRA:                   0.000
UNBOUND:                 0.000

$$$$

     RDKit          3D

 92 90  0  0  0  0  0  0  0  0999 V2000
   47.2628    5.5674   18.6287 C   0  0  0  0  0  0  0  0  0  0  0  0
   46.5694    3.9749   16.8826 N   0  0  0  0  0  0  0  0  0  0  0  0
   48.1032    5.8200   19.8603 C   0  0  0  0  0  0  0  0  0  0  0  0
   47.5642    4.2197   17.9383 C   0  0  1  0  0  0  0  0  0  0  0  0
   49.2127    6.6762   19.8068 C   0  0  0  0  0  0  0  0  0  0  0  0
   47.7883    5.1917   21.0730 C   0  0  0  0  0  0  0  0  0  0  0  0
   48.9647    4.1769   17.3234 C   0  0  0  0  0  0  0  0  0  0  0  0
   49.9913    6.8988   20.9445 C   0  0  0  0  0  0  0  0  0  0  0  0
   48.5653    5.4176   22.2111 C   0  0  0  0  0  0  0  0  0  0  0  0
   49.6674    6.2692   22.1454 C   0  0  0  0  0  0  0  0  0  0  0  0
   48.2764    6.0337   18.2886 C   0  0  0  0  0  0  0  0  0  0  0  0
   48.5062    5.0486   16.0305 N   0  0  0  0  0  0  0  0  0  0  0  0
   48.4511    5.8483   19.7776 C   0  0  0  0  0  0  0  0  0  0  0  0
   48.4941    4.7433   17.4686 C   0  0  2  0  0  0  0  0  0  0  0  0
   47.3382    5.8311   20.6291 C   0  0  0  0  0  0  0  0  0  0  0  0
   49.7301    5.6840   20.3275 C   0  0  0  0  0  0  0  0  0  0  0  0
   47.4086    3.6976   17.7278 C   0  0  0  0  0  0  0  0  0  0  0  0
   49.8939    5.5055   21.7015 C   0  0  0  0  0  0  0  0  0  0  0  0
   47.5038    5.6533   22.0035 C   0  0  0  0  0  0  0  0  0  0  0  0
   48.7804    5.4909   22.5385 C   0  0  0  0  0  0  0  0  0  0  0  0
   49.0212    4.7088   18.4801 C   0  0  0  0  0  0  0  0  0  0  0  0
   48.3302    5.8623   20.5949 C   0  0  0  0  0  0  0  0  0  0  0  0
   48.5430    5.7750   17.5407 C   0  0  0  0  0  0  0  0  0  0  0  0
   48.1445    4.6162   19.7207 C   0  0  2  0  0  0  0  0  0  0  0  0
   48.9598    5.9231   21.6412 O   0  0  0  0  0  0  0  0  0  0  0  0
   49.1971    6.7243   17.1438 O   0  0  0  0  0  0  0  0  0  0  0  0
   48.5319    3.4081   20.4998 N   0  0  0  0  0  0  0  0  0  0  0  0
   47.7102    6.9519   20.1045 O   0  0  0  0  0  0  0  0  0  0  0  0
   47.2857    5.5760   17.1056 O   0  0  0  0  0  0  0  0  0  0  0  0
   49.2603    5.7636   19.7183 C   0  0  0  0  0  0  0  0  0  0  0  0
   48.0141    4.8552   21.6821 N   0  0  0  0  0  0  0  0  0  0  0  0
   48.7443    4.9945   18.5236 C   0  0  0  0  0  0  0  0  0  0  0  0
   48.1858    6.0184   20.7991 C   0  0  1  0  0  0  0  0  0  0  0  0
   48.4828    5.6563   17.3154 C   0  0  0  0  0  0  0  0  0  0  0  0
   48.5114    3.6159   18.6036 C   0  0  0  0  0  0  0  0  0  0  0  0
   48.5673    7.2294   21.6535 C   0  0  0  0  0  0  0  0  0  0  0  0
   48.0029    4.9511   16.2105 C   0  0  0  0  0  0  0  0  0  0  0  0
   48.0294    2.9132   17.4984 C   0  0  0  0  0  0  0  0  0  0  0  0
   47.7785    3.5789   16.2998 C   0  0  0  0  0  0  0  0  0  0  0  0
   48.2557    4.8745   19.4328 S   0  0  0  0  0  0  0  0  0  0  0  0
   48.4928    3.4640   19.2588 O   0  0  0  0  0  0  0  0  0  0  0  0
   46.9781    5.4015   19.8441 O   0  0  0  0  0  0  0  0  0  0  0  0
   49.3609    5.4872   20.4246 O   0  0  0  0  0  0  0  0  0  0  0  0
   48.6120    5.6031   18.0455 O   0  0  0  0  0  0  0  0  0  0  0  0
   47.3935    6.3943   17.9161 H   0  0  0  0  0  0  0  0  0  0  0  0
   46.2056    5.6007   18.9317 H   0  0  0  0  0  0  0  0  0  0  0  0
   46.7846    3.0963   16.4127 H   0  0  0  0  0  0  0  0  0  0  0  0
   46.6444    4.6971   16.1679 H   0  0  0  0  0  0  0  0  0  0  0  0
   47.4807    3.4049   18.6669 H   0  0  0  0  0  0  0  0  0  0  0  0
   49.4794    7.1723   18.8766 H   0  0  0  0  0  0  0  0  0  0  0  0
   46.9303    4.5250   21.1383 H   0  0  0  0  0  0  0  0  0  0  0  0
   49.7377    4.2471   18.0951 H   0  0  0  0  0  0  0  0  0  0  0  0
   49.1169    4.9979   16.6133 H   0  0  0  0  0  0  0  0  0  0  0  0
   49.1306    3.2335   16.7904 H   0  0  0  0  0  0  0  0  0  0  0  0
   50.8495    7.5640   20.8929 H   0  0  0  0  0  0  0  0  0  0  0  0
   48.3097    4.9295   23.1485 H   0  0  0  0  0  0  0  0  0  0  0  0
   50.2724    6.4445   23.0312 H   0  0  0  0  0  0  0  0  0  0  0  0
   48.9869    6.8062   17.9647 H   0  0  0  0  0  0  0  0  0  0  0  0
   47.2825    6.4495   18.0786 H   0  0  0  0  0  0  0  0  0  0  0  0
   47.6094    5.4466   15.7505 H   0  0  0  0  0  0  0  0  0  0  0  0
   49.2110    5.7596   15.8358 H   0  0  0  0  0  0  0  0  0  0  0  0
   49.4642    4.3023   17.7237 H   0  0  0  0  0  0  0  0  0  0  0  0
   46.3348    5.9512   20.2277 H   0  0  0  0  0  0  0  0  0  0  0  0
   50.6089    5.6936   19.6865 H   0  0  0  0  0  0  0  0  0  0  0  0
   46.4077    4.0901   17.5163 H   0  0  0  0  0  0  0  0  0  0  0  0
   47.5609    2.8104   17.1017 H   0  0  0  0  0  0  0  0  0  0  0  0
   47.4271    3.3633   18.7699 H   0  0  0  0  0  0  0  0  0  0  0  0
   50.8896    5.3793   22.1186 H   0  0  0  0  0  0  0  0  0  0  0  0
   46.6360    5.6411   22.6572 H   0  0  0  0  0  0  0  0  0  0  0  0
   48.9075    5.3520   23.6085 H   0  0  0  0  0  0  0  0  0  0  0  0
   50.0597    4.9389   18.7498 H   0  0  0  0  0  0  0  0  0  0  0  0
   49.0349    3.7632   17.9256 H   0  0  0  0  0  0  0  0  0  0  0  0
   47.0814    4.5239   19.4727 H   0  0  0  0  0  0  0  0  0  0  0  0
   47.9316    3.3586   21.3267 H   0  0  0  0  0  0  0  0  0  0  0  0
   49.4706    3.5626   20.8840 H   0  0  0  0  0  0  0  0  0  0  0  0
   47.9277    7.6667   20.7404 H   0  0  0  0  0  0  0  0  0  0  0  0
   47.1199    6.3288   16.4980 H   0  0  0  0  0  0  0  0  0  0  0  0
   49.6573    6.7235   19.3616 H   0  0  0  0  0  0  0  0  0  0  0  0
   50.1239    5.2345   20.1423 H   0  0  0  0  0  0  0  0  0  0  0  0
   47.2886    5.0559   22.3692 H   0  0  0  0  0  0  0  0  0  0  0  0
   48.8701    4.6932   22.2098 H   0  0  0  0  0  0  0  0  0  0  0  0
   47.2225    6.2260   20.3169 H   0  0  0  0  0  0  0  0  0  0  0  0
   48.6522    6.7268   17.2257 H   0  0  0  0  0  0  0  0  0  0  0  0
   48.6986    3.0839   19.5338 H   0  0  0  0  0  0  0  0  0  0  0  0
   47.8137    7.4193   22.4262 H   0  0  0  0  0  0  0  0  0  0  0  0
   49.5354    7.0830   22.1453 H   0  0  0  0  0  0  0  0  0  0  0  0
   48.6375    8.1301   21.0341 H   0  0  0  0  0  0  0  0  0  0  0  0
   47.8008    5.4738   15.2804 H   0  0  0  0  0  0  0  0  0  0  0  0
   47.8464    1.8450   17.5759 H   0  0  0  0  0  0  0  0  0  0  0  0
   47.4029    3.0307   15.4402 H   0  0  0  0  0  0  0  0  0  0  0  0
   49.1495    6.4391   20.5452 H   0  0  0  0  0  0  0  0  0  0  0  0
   47.9288    5.3443   17.3866 H   0  0  0  0  0  0  0  0  0  0  0  0
  4  2  1  0
  3  1  1  0
  4  1  1  0
  5  3  2  0
  6  3  1  0
  4  7  1  0
  8  5  1  0
  9  6  2  0
 10  8  2  0
  9 10  1  0
 12 14  1  0
 13 11  1  0
 14 11  1  0
 15 13  2  0
 16 13  1  0
 17 14  1  0
 18 16  2  0
 19 15  1  0
 20 18  1  0
 19 20  2  0
 22 24  1  0
 23 21  1  0
 24 21  1  0
 25 22  2  0
 26 23  2  0
 27 24  1  0
 28 22  1  0
 29 23  1  0
 33 31  1  0
 32 30  1  0
 33 30  1  0
 34 32  2  0
 35 32  1  0
 33 36  1  0
 37 34  1  0
 38 35  2  0
 39 37  2  0
 38 39  1  0
 41 40  2  0
 42 40  2  0
 43 40  1  0
 44 40  1  0
  1 45  1  0
  1 46  1  0
  2 47  1  0
  2 48  1  0
  4 49  1  6
  5 50  1  0
  6 51  1  0
  7 52  1  0
  7 53  1  0
  7 54  1  0
  8 55  1  0
  9 56  1  0
 10 57  1  0
 11 58  1  0
 11 59  1  0
 12 60  1  0
 12 61  1  0
 14 62  1  6
 15 63  1  0
 16 64  1  0
 17 65  1  0
 17 66  1  0
 17 67  1  0
 18 68  1  0
 19 69  1  0
 20 70  1  0
 21 71  1  0
 21 72  1  0
 24 73  1  1
 27 74  1  0
 27 75  1  0
 28 76  1  0
 29 77  1  0
 30 78  1  0
 30 79  1  0
 31 80  1  0
 31 81  1  0
 33 82  1  1
 34 83  1  0
 35 84  1  0
 36 85  1  0
 36 86  1  0
 36 87  1  0
 37 88  1  0
 38 89  1  0
 39 90  1  0
 43 91  1  0
 44 92  1  0
M  END
> <Uni-Dock RESULT> 
ENERGY=   -6.420  LOWER_BOUND=    6.539  UPPER_BOUND=    8.461
INTER + INTRA:          -6.420
INTER:                  -6.420
INTRA:                   0.000
UNBOUND:                 0.000

$$$$

     RDKit          3D

 92 90  0  0  0  0  0  0  0  0999 V2000
   48.7847    4.1447   20.5123 C   0  0  0  0  0  0  0  0  0  0  0  0
   48.0531    4.9476   22.7227 N   0  0  0  0  0  0  0  0  0  0  0  0
   48.6929    4.2917   19.0100 C   0  0  0  0  0  0  0  0  0  0  0  0
   48.0855    5.2804   21.2901 C   0  0  1  0  0  0  0  0  0  0  0  0
   49.7803    4.7787   18.2703 C   0  0  0  0  0  0  0  0  0  0  0  0
   47.5119    3.9508   18.3364 C   0  0  0  0  0  0  0  0  0  0  0  0
   48.7821    6.6306   21.1074 C   0  0  0  0  0  0  0  0  0  0  0  0
   49.6874    4.9217   16.8843 C   0  0  0  0  0  0  0  0  0  0  0  0
   47.4209    4.0908   16.9499 C   0  0  0  0  0  0  0  0  0  0  0  0
   48.5080    4.5781   16.2254 C   0  0  0  0  0  0  0  0  0  0  0  0
   49.6516    4.8415   20.1608 C   0  0  0  0  0  0  0  0  0  0  0  0
   49.9542    6.2550   22.1690 N   0  0  0  0  0  0  0  0  0  0  0  0
   48.8657    4.5848   18.8965 C   0  0  0  0  0  0  0  0  0  0  0  0
   49.0330    5.9241   21.0720 C   0  0  2  0  0  0  0  0  0  0  0  0
   48.1021    3.4182   18.7564 C   0  0  0  0  0  0  0  0  0  0  0  0
   48.8845    5.5148   17.8476 C   0  0  0  0  0  0  0  0  0  0  0  0
   47.7012    5.4826   21.6808 C   0  0  0  0  0  0  0  0  0  0  0  0
   48.1539    5.2837   16.6816 C   0  0  0  0  0  0  0  0  0  0  0  0
   47.3726    3.1881   17.5889 C   0  0  0  0  0  0  0  0  0  0  0  0
   47.3990    4.1201   16.5531 C   0  0  0  0  0  0  0  0  0  0  0  0
   48.7053    6.0332   19.9844 C   0  0  0  0  0  0  0  0  0  0  0  0
   48.4608    4.2122   18.2801 C   0  0  0  0  0  0  0  0  0  0  0  0
   49.8686    5.4295   20.7125 C   0  0  0  0  0  0  0  0  0  0  0  0
   47.7750    4.9661   19.4258 C   0  0  2  0  0  0  0  0  0  0  0  0
   48.2286    4.3453   17.0871 O   0  0  0  0  0  0  0  0  0  0  0  0
   51.0463    5.6167   20.4588 O   0  0  0  0  0  0  0  0  0  0  0  0
   46.5393    5.6195   18.9129 N   0  0  0  0  0  0  0  0  0  0  0  0
   49.3905    3.3355   18.7031 O   0  0  0  0  0  0  0  0  0  0  0  0
   49.5032    4.6590   21.7530 O   0  0  0  0  0  0  0  0  0  0  0  0
   49.0818    5.2974   18.5632 C   0  0  0  0  0  0  0  0  0  0  0  0
   47.0242    4.0989   17.8116 N   0  0  0  0  0  0  0  0  0  0  0  0
   48.8330    5.6548   20.0108 C   0  0  0  0  0  0  0  0  0  0  0  0
   48.4493    3.9518   18.1424 C   0  0  1  0  0  0  0  0  0  0  0  0
   49.8554    5.5138   20.9599 C   0  0  0  0  0  0  0  0  0  0  0  0
   47.5813    6.1229   20.4295 C   0  0  0  0  0  0  0  0  0  0  0  0
   49.1779    3.3794   16.9243 C   0  0  0  0  0  0  0  0  0  0  0  0
   49.6295    5.8391   22.2985 C   0  0  0  0  0  0  0  0  0  0  0  0
   47.3570    6.4454   21.7687 C   0  0  0  0  0  0  0  0  0  0  0  0
   48.3815    6.3078   22.7036 C   0  0  0  0  0  0  0  0  0  0  0  0
   48.1572    5.0224   19.5384 S   0  0  0  0  0  0  0  0  0  0  0  0
   47.1469    5.9679   19.9398 O   0  0  0  0  0  0  0  0  0  0  0  0
   47.9945    3.5986   19.6979 O   0  0  0  0  0  0  0  0  0  0  0  0
   48.5588    5.2831   18.0049 O   0  0  0  0  0  0  0  0  0  0  0  0
   49.5151    5.4043   20.3081 O   0  0  0  0  0  0  0  0  0  0  0  0
   49.8398    4.0749   20.8129 H   0  0  0  0  0  0  0  0  0  0  0  0
   48.3342    3.1780   20.7826 H   0  0  0  0  0  0  0  0  0  0  0  0
   47.6124    5.7096   23.2367 H   0  0  0  0  0  0  0  0  0  0  0  0
   49.0048    4.8855   23.0809 H   0  0  0  0  0  0  0  0  0  0  0  0
   47.0481    5.3770   20.9493 H   0  0  0  0  0  0  0  0  0  0  0  0
   50.7060    5.0534   18.7706 H   0  0  0  0  0  0  0  0  0  0  0  0
   46.6560    3.5686   18.8898 H   0  0  0  0  0  0  0  0  0  0  0  0
   48.7304    6.9645   20.0664 H   0  0  0  0  0  0  0  0  0  0  0  0
   49.8380    6.5802   21.3970 H   0  0  0  0  0  0  0  0  0  0  0  0
   48.3013    7.4056   21.7155 H   0  0  0  0  0  0  0  0  0  0  0  0
   50.5357    5.3002   16.3198 H   0  0  0  0  0  0  0  0  0  0  0  0
   46.5022    3.8186   16.4360 H   0  0  0  0  0  0  0  0  0  0  0  0
   48.4368    4.6874   15.1463 H   0  0  0  0  0  0  0  0  0  0  0  0
   50.6674    5.1376   19.8659 H   0  0  0  0  0  0  0  0  0  0  0  0
   49.7748    3.9050   20.7199 H   0  0  0  0  0  0  0  0  0  0  0  0
   50.1262    5.4285   22.7419 H   0  0  0  0  0  0  0  0  0  0  0  0
   50.8576    6.5345   21.7868 H   0  0  0  0  0  0  0  0  0  0  0  0
   48.8604    6.8390   20.4944 H   0  0  0  0  0  0  0  0  0  0  0  0
   48.0663    2.6830   19.5569 H   0  0  0  0  0  0  0  0  0  0  0  0
   49.4696    6.4277   17.9334 H   0  0  0  0  0  0  0  0  0  0  0  0
   47.8038    4.5524   22.2508 H   0  0  0  0  0  0  0  0  0  0  0  0
   47.3056    6.2494   22.3573 H   0  0  0  0  0  0  0  0  0  0  0  0
   46.9489    5.3206   20.9024 H   0  0  0  0  0  0  0  0  0  0  0  0
   48.1750    6.0105   15.8737 H   0  0  0  0  0  0  0  0  0  0  0  0
   46.7828    2.2812   17.4878 H   0  0  0  0  0  0  0  0  0  0  0  0
   46.8300    3.9397   15.6453 H   0  0  0  0  0  0  0  0  0  0  0  0
   49.1029    6.6666   19.1813 H   0  0  0  0  0  0  0  0  0  0  0  0
   48.1840    6.6939   20.6868 H   0  0  0  0  0  0  0  0  0  0  0  0
   47.4734    4.2377   20.1864 H   0  0  0  0  0  0  0  0  0  0  0  0
   45.9242    4.8894   18.5453 H   0  0  0  0  0  0  0  0  0  0  0  0
   46.7896    6.1724   18.0857 H   0  0  0  0  0  0  0  0  0  0  0  0
   49.7573    2.9482   17.8795 H   0  0  0  0  0  0  0  0  0  0  0  0
   50.3538    4.3528   22.1354 H   0  0  0  0  0  0  0  0  0  0  0  0
   50.1674    5.2593   18.4020 H   0  0  0  0  0  0  0  0  0  0  0  0
   48.7241    6.1149   17.9233 H   0  0  0  0  0  0  0  0  0  0  0  0
   46.6406    3.1902   17.5549 H   0  0  0  0  0  0  0  0  0  0  0  0
   46.9198    4.6946   16.9920 H   0  0  0  0  0  0  0  0  0  0  0  0
   48.5360    3.2322   18.9659 H   0  0  0  0  0  0  0  0  0  0  0  0
   50.8363    5.1502   20.6632 H   0  0  0  0  0  0  0  0  0  0  0  0
   46.7711    6.2311   19.7118 H   0  0  0  0  0  0  0  0  0  0  0  0
   48.7368    2.4253   16.6141 H   0  0  0  0  0  0  0  0  0  0  0  0
   49.1389    4.0693   16.0741 H   0  0  0  0  0  0  0  0  0  0  0  0
   50.2317    3.1938   17.1589 H   0  0  0  0  0  0  0  0  0  0  0  0
   50.4272    5.7234   23.0261 H   0  0  0  0  0  0  0  0  0  0  0  0
   46.3791    6.8009   22.0817 H   0  0  0  0  0  0  0  0  0  0  0  0
   48.2055    6.5589   23.7460 H   0  0  0  0  0  0  0  0  0  0  0  0
   49.2228    4.6026   17.7571 H   0  0  0  0  0  0  0  0  0  0  0  0
   49.3873    5.1989   21.2618 H   0  0  0  0  0  0  0  0  0  0  0  0
  4  2  1  0
  3  1  1  0
  4  1  1  0
  5  3  2  0
  6  3  1  0
  4  7  1  0
  8  5  1  0
  9  6  2  0
 10  8  2  0
  9 10  1  0
 12 14  1  0
 13 11  1  0
 14 11  1  0
 15 13  2  0
 16 13  1  0
 17 14  1  0
 18 16  2  0
 19 15  1  0
 20 18  1  0
 19 20  2  0
 22 24  1  0
 23 21  1  0
 24 21  1  0
 25 22  2  0
 26 23  2  0
 27 24  1  0
 28 22  1  0
 29 23  1  0
 33 31  1  0
 32 30  1  0
 33 30  1  0
 34 32  2  0
 35 32  1  0
 33 36  1  0
 37 34  1  0
 38 35  2  0
 39 37  2  0
 38 39  1  0
 41 40  2  0
 42 40  2  0
 43 40  1  0
 44 40  1  0
  1 45  1  0
  1 46  1  0
  2 47  1  0
  2 48  1  0
  4 49  1  6
  5 50  1  0
  6 51  1  0
  7 52  1  0
  7 53  1  0
  7 54  1  0
  8 55  1  0
  9 56  1  0
 10 57  1  0
 11 58  1  0
 11 59  1  0
 12 60  1  0
 12 61  1  0
 14 62  1  6
 15 63  1  0
 16 64  1  0
 17 65  1  0
 17 66  1  0
 17 67  1  0
 18 68  1  0
 19 69  1  0
 20 70  1  0
 21 71  1  0
 21 72  1  0
 24 73  1  1
 27 74  1  0
 27 75  1  0
 28 76  1  0
 29 77  1  0
 30 78  1  0
 30 79  1  0
 31 80  1  0
 31 81  1  0
 33 82  1  1
 34 83  1  0
 35 84  1  0
 36 85  1  0
 36 86  1  0
 36 87  1  0
 37 88  1  0
 38 89  1  0
 39 90  1  0
 43 91  1  0
 44 92  1  0
M  END
> <Uni-Dock RESULT> 
ENERGY=   -6.340  LOWER_BOUND=    6.708  UPPER_BOUND=    8.311
INTER + INTRA:          -6.340
INTER:                  -6.340
INTRA:                   0.000
UNBOUND:                 0.000

$$$$
