
     RDKit          3D

 92 90  0  0  0  0  0  0  0  0999 V2000
   45.2018    5.5095   11.4134 C   0  0  0  0  0  0  0  0  0  0  0  0
   43.0233    5.1198   12.5650 N   0  0  0  0  0  0  0  0  0  0  0  0
   45.6480    6.8929   11.8319 C   0  0  0  0  0  0  0  0  0  0  0  0
   44.4434    4.7393   12.5176 C   0  0  1  0  0  0  0  0  0  0  0  0
   47.0010    7.1558   12.0890 C   0  0  0  0  0  0  0  0  0  0  0  0
   44.7210    7.9337   11.9698 C   0  0  0  0  0  0  0  0  0  0  0  0
   44.5369    3.2309   12.2776 C   0  0  0  0  0  0  0  0  0  0  0  0
   47.4155    8.4324   12.4740 C   0  0  0  0  0  0  0  0  0  0  0  0
   45.1360    9.2090   12.3569 C   0  0  0  0  0  0  0  0  0  0  0  0
   46.4827    9.4585   12.6088 C   0  0  0  0  0  0  0  0  0  0  0  0
   46.2416    6.4409   12.3962 C   0  0  0  0  0  0  0  0  0  0  0  0
   45.3838    8.6549   11.6268 N   0  0  0  0  0  0  0  0  0  0  0  0
   45.1702    5.4425   12.0187 C   0  0  0  0  0  0  0  0  0  0  0  0
   45.6875    7.8250   12.8025 C   0  0  2  0  0  0  0  0  0  0  0  0
   44.4950    5.5445   10.7954 C   0  0  0  0  0  0  0  0  0  0  0  0
   44.8335    4.3987   12.8922 C   0  0  0  0  0  0  0  0  0  0  0  0
   46.6980    8.5703   13.6769 C   0  0  0  0  0  0  0  0  0  0  0  0
   43.8445    3.4758   12.5458 C   0  0  0  0  0  0  0  0  0  0  0  0
   43.5050    4.6226   10.4517 C   0  0  0  0  0  0  0  0  0  0  0  0
   43.1807    3.5875   11.3260 C   0  0  0  0  0  0  0  0  0  0  0  0
   45.3475    5.1999   12.2764 C   0  0  0  0  0  0  0  0  0  0  0  0
   44.9078    7.5433   11.4735 C   0  0  0  0  0  0  0  0  0  0  0  0
   43.9816    4.9384   12.8459 C   0  0  0  0  0  0  0  0  0  0  0  0
   45.7178    6.6714   12.4437 C   0  0  2  0  0  0  0  0  0  0  0  0
   43.9030    7.2305   10.8560 O   0  0  0  0  0  0  0  0  0  0  0  0
   43.3835    5.6221   13.6599 O   0  0  0  0  0  0  0  0  0  0  0  0
   47.1677    6.8510   12.1743 N   0  0  0  0  0  0  0  0  0  0  0  0
   45.4087    8.7979   11.3674 O   0  0  0  0  0  0  0  0  0  0  0  0
   43.4557    3.7816   12.3992 O   0  0  0  0  0  0  0  0  0  0  0  0
   45.2656    6.9327   13.1348 C   0  0  0  0  0  0  0  0  0  0  0  0
   44.7287    8.4861   11.2540 N   0  0  0  0  0  0  0  0  0  0  0  0
   44.8771    5.5595   12.6326 C   0  0  0  0  0  0  0  0  0  0  0  0
   45.8115    7.8712   12.0347 C   0  0  1  0  0  0  0  0  0  0  0  0
   43.7138    5.3766   11.8734 C   0  0  0  0  0  0  0  0  0  0  0  0
   45.6771    4.4448   12.9222 C   0  0  0  0  0  0  0  0  0  0  0  0
   46.6559    8.9862   12.6569 C   0  0  0  0  0  0  0  0  0  0  0  0
   43.3565    4.1075   11.4146 C   0  0  0  0  0  0  0  0  0  0  0  0
   45.3176    3.1753   12.4645 C   0  0  0  0  0  0  0  0  0  0  0  0
   44.1573    3.0070   11.7113 C   0  0  0  0  0  0  0  0  0  0  0  0
   45.0187    6.3819   11.8247 S   0  0  0  0  0  0  0  0  0  0  0  0
   44.2050    7.5622   11.6796 O   0  0  0  0  0  0  0  0  0  0  0  0
   45.4476    5.5630   10.7193 O   0  0  0  0  0  0  0  0  0  0  0  0
   44.3081    5.3978   12.8737 O   0  0  0  0  0  0  0  0  0  0  0  0
   46.3190    6.8331   12.6490 O   0  0  0  0  0  0  0  0  0  0  0  0
   46.0905    4.9364   11.1159 H   0  0  0  0  0  0  0  0  0  0  0  0
   44.5938    5.5889   10.5023 H   0  0  0  0  0  0  0  0  0  0  0  0
   42.5571    4.8181   11.7109 H   0  0  0  0  0  0  0  0  0  0  0  0
   42.5655    4.6228   13.3279 H   0  0  0  0  0  0  0  0  0  0  0  0
   44.8909    4.9589   13.4944 H   0  0  0  0  0  0  0  0  0  0  0  0
   47.7440    6.3682   11.9895 H   0  0  0  0  0  0  0  0  0  0  0  0
   43.6639    7.7514   11.7851 H   0  0  0  0  0  0  0  0  0  0  0  0
   43.9999    2.6736   13.0529 H   0  0  0  0  0  0  0  0  0  0  0  0
   44.1172    2.9512   11.3054 H   0  0  0  0  0  0  0  0  0  0  0  0
   45.5808    2.9013   12.3001 H   0  0  0  0  0  0  0  0  0  0  0  0
   48.4666    8.6260   12.6691 H   0  0  0  0  0  0  0  0  0  0  0  0
   44.4048   10.0056   12.4653 H   0  0  0  0  0  0  0  0  0  0  0  0
   46.8046   10.4508   12.9118 H   0  0  0  0  0  0  0  0  0  0  0  0
   46.9547    6.5328   11.5660 H   0  0  0  0  0  0  0  0  0  0  0  0
   46.8230    6.0220   13.2286 H   0  0  0  0  0  0  0  0  0  0  0  0
   45.0013    9.5486   11.9331 H   0  0  0  0  0  0  0  0  0  0  0  0
   46.2440    8.8707   11.1254 H   0  0  0  0  0  0  0  0  0  0  0  0
   44.7632    7.6968   13.3784 H   0  0  0  0  0  0  0  0  0  0  0  0
   44.7320    6.3523   10.1063 H   0  0  0  0  0  0  0  0  0  0  0  0
   45.3385    4.2965   13.8493 H   0  0  0  0  0  0  0  0  0  0  0  0
   46.9043    8.0072   14.5936 H   0  0  0  0  0  0  0  0  0  0  0  0
   46.3127    9.5518   13.9750 H   0  0  0  0  0  0  0  0  0  0  0  0
   47.6486    8.7220   13.1541 H   0  0  0  0  0  0  0  0  0  0  0  0
   43.5901    2.6716   13.2300 H   0  0  0  0  0  0  0  0  0  0  0  0
   42.9845    4.7175    9.5027 H   0  0  0  0  0  0  0  0  0  0  0  0
   42.4087    2.8714   11.0584 H   0  0  0  0  0  0  0  0  0  0  0  0
   46.0512    4.5556   12.8171 H   0  0  0  0  0  0  0  0  0  0  0  0
   45.3532    4.9167   11.2170 H   0  0  0  0  0  0  0  0  0  0  0  0
   45.5026    7.0286   13.4576 H   0  0  0  0  0  0  0  0  0  0  0  0
   47.7000    6.5083   12.9725 H   0  0  0  0  0  0  0  0  0  0  0  0
   47.3455    7.8591   12.1272 H   0  0  0  0  0  0  0  0  0  0  0  0
   44.8054    9.2300   10.7271 H   0  0  0  0  0  0  0  0  0  0  0  0
   42.5744    3.7345   12.8260 H   0  0  0  0  0  0  0  0  0  0  0  0
   46.0270    6.8099   13.9168 H   0  0  0  0  0  0  0  0  0  0  0  0
   44.4038    7.3858   13.6433 H   0  0  0  0  0  0  0  0  0  0  0  0
   45.1285    9.0907   10.5370 H   0  0  0  0  0  0  0  0  0  0  0  0
   44.1680    9.0890   11.8547 H   0  0  0  0  0  0  0  0  0  0  0  0
   46.4484    7.3004   11.3480 H   0  0  0  0  0  0  0  0  0  0  0  0
   43.0823    6.2280   11.6285 H   0  0  0  0  0  0  0  0  0  0  0  0
   46.5865    4.5561   13.5073 H   0  0  0  0  0  0  0  0  0  0  0  0
   46.0730    9.5845   13.3662 H   0  0  0  0  0  0  0  0  0  0  0  0
   47.0491    9.6591   11.8873 H   0  0  0  0  0  0  0  0  0  0  0  0
   47.5128    8.5669   13.1946 H   0  0  0  0  0  0  0  0  0  0  0  0
   42.4539    3.9813   10.8229 H   0  0  0  0  0  0  0  0  0  0  0  0
   45.9428    2.3176   12.6969 H   0  0  0  0  0  0  0  0  0  0  0  0
   43.8777    2.0192   11.3550 H   0  0  0  0  0  0  0  0  0  0  0  0
   44.7328    4.5204   12.7826 H   0  0  0  0  0  0  0  0  0  0  0  0
   46.1087    7.6966   13.0638 H   0  0  0  0  0  0  0  0  0  0  0  0
  4  2  1  0
  3  1  1  0
  4  1  1  0
  5  3  2  0
  6  3  1  0
  4  7  1  0
  8  5  1  0
  9  6  2  0
 10  8  2  0
  9 10  1  0
 12 14  1  0
 13 11  1  0
 14 11  1  0
 15 13  2  0
 16 13  1  0
 17 14  1  0
 18 16  2  0
 19 15  1  0
 20 18  1  0
 19 20  2  0
 22 24  1  0
 23 21  1  0
 24 21  1  0
 25 22  2  0
 26 23  2  0
 27 24  1  0
 28 22  1  0
 29 23  1  0
 33 31  1  0
 32 30  1  0
 33 30  1  0
 34 32  2  0
 35 32  1  0
 33 36  1  0
 37 34  1  0
 38 35  2  0
 39 37  2  0
 38 39  1  0
 41 40  2  0
 42 40  2  0
 43 40  1  0
 44 40  1  0
  1 45  1  0
  1 46  1  0
  2 47  1  0
  2 48  1  0
  4 49  1  6
  5 50  1  0
  6 51  1  0
  7 52  1  0
  7 53  1  0
  7 54  1  0
  8 55  1  0
  9 56  1  0
 10 57  1  0
 11 58  1  0
 11 59  1  0
 12 60  1  0
 12 61  1  0
 14 62  1  6
 15 63  1  0
 16 64  1  0
 17 65  1  0
 17 66  1  0
 17 67  1  0
 18 68  1  0
 19 69  1  0
 20 70  1  0
 21 71  1  0
 21 72  1  0
 24 73  1  6
 27 74  1  0
 27 75  1  0
 28 76  1  0
 29 77  1  0
 30 78  1  0
 30 79  1  0
 31 80  1  0
 31 81  1  0
 33 82  1  1
 34 83  1  0
 35 84  1  0
 36 85  1  0
 36 86  1  0
 36 87  1  0
 37 88  1  0
 38 89  1  0
 39 90  1  0
 43 91  1  0
 44 92  1  0
M  END
> <Uni-Dock RESULT> 
ENERGY=   -9.430  LOWER_BOUND=    0.000  UPPER_BOUND=    0.000
INTER + INTRA:          -9.430
INTER:                  -9.430
INTRA:                   0.000
UNBOUND:                 0.000

$$$$

     RDKit          3D

 92 90  0  0  0  0  0  0  0  0999 V2000
   44.9313    6.0553   12.8580 C   0  0  0  0  0  0  0  0  0  0  0  0
   45.1760    4.5239   10.9037 N   0  0  0  0  0  0  0  0  0  0  0  0
   46.2438    6.7992   12.9660 C   0  0  0  0  0  0  0  0  0  0  0  0
   44.5133    5.7378   11.4046 C   0  0  1  0  0  0  0  0  0  0  0  0
   46.2644    8.1574   13.3134 C   0  0  0  0  0  0  0  0  0  0  0  0
   47.4592    6.1473   12.7219 C   0  0  0  0  0  0  0  0  0  0  0  0
   42.9986    5.5394   11.3153 C   0  0  0  0  0  0  0  0  0  0  0  0
   47.4749    8.8459   13.4152 C   0  0  0  0  0  0  0  0  0  0  0  0
   48.6687    6.8371   12.8216 C   0  0  0  0  0  0  0  0  0  0  0  0
   48.6768    8.1858   13.1683 C   0  0  0  0  0  0  0  0  0  0  0  0
   45.7752    7.5142   12.5861 C   0  0  0  0  0  0  0  0  0  0  0  0
   47.9685    6.6894   13.4456 N   0  0  0  0  0  0  0  0  0  0  0  0
   44.9678    6.2705   12.2885 C   0  0  0  0  0  0  0  0  0  0  0  0
   47.2890    7.3517   12.3219 C   0  0  2  0  0  0  0  0  0  0  0  0
   45.0113    5.1653   13.1485 C   0  0  0  0  0  0  0  0  0  0  0  0
   44.1638    6.2040   11.1418 C   0  0  0  0  0  0  0  0  0  0  0  0
   47.9420    8.7165   12.0938 C   0  0  0  0  0  0  0  0  0  0  0  0
   43.4175    5.0566   10.8650 C   0  0  0  0  0  0  0  0  0  0  0  0
   44.2667    4.0184   12.8692 C   0  0  0  0  0  0  0  0  0  0  0  0
   43.4686    3.9644   11.7283 C   0  0  0  0  0  0  0  0  0  0  0  0
   44.7377    6.5081   12.0710 C   0  0  0  0  0  0  0  0  0  0  0  0
   46.9662    6.0619   13.1499 C   0  0  0  0  0  0  0  0  0  0  0  0
   44.8506    5.4823   10.9785 C   0  0  0  0  0  0  0  0  0  0  0  0
   46.1115    7.0898   12.3948 C   0  0  2  0  0  0  0  0  0  0  0  0
   46.7705    4.8615   13.2475 O   0  0  0  0  0  0  0  0  0  0  0  0
   45.7602    5.3650   10.1743 O   0  0  0  0  0  0  0  0  0  0  0  0
   45.9494    8.3062   13.2322 N   0  0  0  0  0  0  0  0  0  0  0  0
   48.0610    6.6213   13.7198 O   0  0  0  0  0  0  0  0  0  0  0  0
   43.7688    4.6823   10.9163 O   0  0  0  0  0  0  0  0  0  0  0  0
   46.5639    7.0015   11.6613 C   0  0  0  0  0  0  0  0  0  0  0  0
   47.8794    5.9235   13.4905 N   0  0  0  0  0  0  0  0  0  0  0  0
   45.2364    6.2760   11.6528 C   0  0  0  0  0  0  0  0  0  0  0  0
   47.1882    7.1496   13.0675 C   0  0  1  0  0  0  0  0  0  0  0  0
   45.1761    4.8895   11.8457 C   0  0  0  0  0  0  0  0  0  0  0  0
   44.0423    6.9823   11.4485 C   0  0  0  0  0  0  0  0  0  0  0  0
   48.1926    8.3046   13.0851 C   0  0  0  0  0  0  0  0  0  0  0  0
   43.9497    4.2227   11.8337 C   0  0  0  0  0  0  0  0  0  0  0  0
   42.8161    6.3140   11.4346 C   0  0  0  0  0  0  0  0  0  0  0  0
   42.7702    4.9345   11.6266 C   0  0  0  0  0  0  0  0  0  0  0  0
   45.8761    6.1671   12.6161 S   0  0  0  0  0  0  0  0  0  0  0  0
   47.1591    5.5165   12.7003 O   0  0  0  0  0  0  0  0  0  0  0  0
   44.8245    5.9945   13.5859 O   0  0  0  0  0  0  0  0  0  0  0  0
   45.2331    5.8439   11.1823 O   0  0  0  0  0  0  0  0  0  0  0  0
   46.1783    7.7366   12.4777 O   0  0  0  0  0  0  0  0  0  0  0  0
   44.1508    6.6628   13.3358 H   0  0  0  0  0  0  0  0  0  0  0  0
   44.9883    5.1378   13.4589 H   0  0  0  0  0  0  0  0  0  0  0  0
   44.8448    3.7118   11.4221 H   0  0  0  0  0  0  0  0  0  0  0  0
   44.9077    4.3684    9.9329 H   0  0  0  0  0  0  0  0  0  0  0  0
   44.7880    6.5742   10.7506 H   0  0  0  0  0  0  0  0  0  0  0  0
   45.3371    8.6901   13.5097 H   0  0  0  0  0  0  0  0  0  0  0  0
   47.4680    5.0957   12.4411 H   0  0  0  0  0  0  0  0  0  0  0  0
   42.6901    5.3104   10.2894 H   0  0  0  0  0  0  0  0  0  0  0  0
   42.6608    4.7226   11.9623 H   0  0  0  0  0  0  0  0  0  0  0  0
   42.4722    6.4496   11.6210 H   0  0  0  0  0  0  0  0  0  0  0  0
   47.4799    9.8979   13.6869 H   0  0  0  0  0  0  0  0  0  0  0  0
   49.6037    6.3197   12.6240 H   0  0  0  0  0  0  0  0  0  0  0  0
   49.6184    8.7222   13.2440 H   0  0  0  0  0  0  0  0  0  0  0  0
   45.5896    7.8225   13.6237 H   0  0  0  0  0  0  0  0  0  0  0  0
   45.3830    8.3337   11.9688 H   0  0  0  0  0  0  0  0  0  0  0  0
   48.9578    6.5805   13.2262 H   0  0  0  0  0  0  0  0  0  0  0  0
   47.9244    7.2822   14.2731 H   0  0  0  0  0  0  0  0  0  0  0  0
   47.4424    6.7428   11.4229 H   0  0  0  0  0  0  0  0  0  0  0  0
   45.6362    5.1902   14.0387 H   0  0  0  0  0  0  0  0  0  0  0  0
   44.1127    7.0449   10.4549 H   0  0  0  0  0  0  0  0  0  0  0  0
   47.4995    9.2156   11.2248 H   0  0  0  0  0  0  0  0  0  0  0  0
   49.0155    8.6124   11.9005 H   0  0  0  0  0  0  0  0  0  0  0  0
   47.8143    9.3741   12.9607 H   0  0  0  0  0  0  0  0  0  0  0  0
   42.7988    5.0145    9.9733 H   0  0  0  0  0  0  0  0  0  0  0  0
   44.3150    3.1659   13.5412 H   0  0  0  0  0  0  0  0  0  0  0  0
   42.8908    3.0705   11.5108 H   0  0  0  0  0  0  0  0  0  0  0  0
   44.0572    7.2891   11.7111 H   0  0  0  0  0  0  0  0  0  0  0  0
   44.2968    6.0381   12.9582 H   0  0  0  0  0  0  0  0  0  0  0  0
   46.6593    7.3610   11.4846 H   0  0  0  0  0  0  0  0  0  0  0  0
   45.6355    9.0765   12.6439 H   0  0  0  0  0  0  0  0  0  0  0  0
   46.8805    8.5690   13.5697 H   0  0  0  0  0  0  0  0  0  0  0  0
   48.5005    5.8635   14.1596 H   0  0  0  0  0  0  0  0  0  0  0  0
   43.9685    4.0600   10.1856 H   0  0  0  0  0  0  0  0  0  0  0  0
   46.4136    7.9982   11.2250 H   0  0  0  0  0  0  0  0  0  0  0  0
   47.2560    6.4913   10.9778 H   0  0  0  0  0  0  0  0  0  0  0  0
   48.2706    6.0588   14.4222 H   0  0  0  0  0  0  0  0  0  0  0  0
   48.6699    5.7412   12.8735 H   0  0  0  0  0  0  0  0  0  0  0  0
   46.4000    7.3686   13.7980 H   0  0  0  0  0  0  0  0  0  0  0  0
   46.0885    4.3217   12.0150 H   0  0  0  0  0  0  0  0  0  0  0  0
   44.0575    8.0588   11.2980 H   0  0  0  0  0  0  0  0  0  0  0  0
   49.0002    8.1469   12.3614 H   0  0  0  0  0  0  0  0  0  0  0  0
   48.6429    8.4204   14.0769 H   0  0  0  0  0  0  0  0  0  0  0  0
   47.6982    9.2498   12.8374 H   0  0  0  0  0  0  0  0  0  0  0  0
   43.9176    3.1478   11.9893 H   0  0  0  0  0  0  0  0  0  0  0  0
   41.8968    6.8701   11.2726 H   0  0  0  0  0  0  0  0  0  0  0  0
   41.8161    4.4145   11.6159 H   0  0  0  0  0  0  0  0  0  0  0  0
   44.2846    6.0824   11.2288 H   0  0  0  0  0  0  0  0  0  0  0  0
   47.1206    7.8244   12.2203 H   0  0  0  0  0  0  0  0  0  0  0  0
  4  2  1  0
  3  1  1  0
  4  1  1  0
  5  3  2  0
  6  3  1  0
  4  7  1  0
  8  5  1  0
  9  6  2  0
 10  8  2  0
  9 10  1  0
 12 14  1  0
 13 11  1  0
 14 11  1  0
 15 13  2  0
 16 13  1  0
 17 14  1  0
 18 16  2  0
 19 15  1  0
 20 18  1  0
 19 20  2  0
 22 24  1  0
 23 21  1  0
 24 21  1  0
 25 22  2  0
 26 23  2  0
 27 24  1  0
 28 22  1  0
 29 23  1  0
 33 31  1  0
 32 30  1  0
 33 30  1  0
 34 32  2  0
 35 32  1  0
 33 36  1  0
 37 34  1  0
 38 35  2  0
 39 37  2  0
 38 39  1  0
 41 40  2  0
 42 40  2  0
 43 40  1  0
 44 40  1  0
  1 45  1  0
  1 46  1  0
  2 47  1  0
  2 48  1  0
  4 49  1  6
  5 50  1  0
  6 51  1  0
  7 52  1  0
  7 53  1  0
  7 54  1  0
  8 55  1  0
  9 56  1  0
 10 57  1  0
 11 58  1  0
 11 59  1  0
 12 60  1  0
 12 61  1  0
 14 62  1  6
 15 63  1  0
 16 64  1  0
 17 65  1  0
 17 66  1  0
 17 67  1  0
 18 68  1  0
 19 69  1  0
 20 70  1  0
 21 71  1  0
 21 72  1  0
 24 73  1  6
 27 74  1  0
 27 75  1  0
 28 76  1  0
 29 77  1  0
 30 78  1  0
 30 79  1  0
 31 80  1  0
 31 81  1  0
 33 82  1  1
 34 83  1  0
 35 84  1  0
 36 85  1  0
 36 86  1  0
 36 87  1  0
 37 88  1  0
 38 89  1  0
 39 90  1  0
 43 91  1  0
 44 92  1  0
M  END
> <Uni-Dock RESULT> 
ENERGY=   -9.309  LOWER_BOUND=    1.197  UPPER_BOUND=    2.567
INTER + INTRA:          -9.309
INTER:                  -9.309
INTRA:                   0.000
UNBOUND:                 0.000

$$$$

     RDKit          3D

 92 90  0  0  0  0  0  0  0  0999 V2000
   43.9320    4.4109   10.2786 C   0  0  0  0  0  0  0  0  0  0  0  0
   45.5039    4.8697   12.1608 N   0  0  0  0  0  0  0  0  0  0  0  0
   44.7977    3.9936    9.1105 C   0  0  0  0  0  0  0  0  0  0  0  0
   44.4741    3.9515   11.6508 C   0  0  1  0  0  0  0  0  0  0  0  0
   44.3799    2.9726    8.2453 C   0  0  0  0  0  0  0  0  0  0  0  0
   46.0289    4.6175    8.8722 C   0  0  0  0  0  0  0  0  0  0  0  0
   43.3395    3.8731   12.6746 C   0  0  0  0  0  0  0  0  0  0  0  0
   45.1767    2.5867    7.1655 C   0  0  0  0  0  0  0  0  0  0  0  0
   46.8257    4.2294    7.7937 C   0  0  0  0  0  0  0  0  0  0  0  0
   46.3999    3.2146    6.9406 C   0  0  0  0  0  0  0  0  0  0  0  0
   44.5104    3.1268    9.3136 C   0  0  0  0  0  0  0  0  0  0  0  0
   45.9342    4.5527    7.8407 N   0  0  0  0  0  0  0  0  0  0  0  0
   44.2463    3.9621   10.5464 C   0  0  0  0  0  0  0  0  0  0  0  0
   45.9076    3.3553    8.6944 C   0  0  2  0  0  0  0  0  0  0  0  0
   43.9876    5.3349   10.4397 C   0  0  0  0  0  0  0  0  0  0  0  0
   44.2600    3.3732   11.8187 C   0  0  0  0  0  0  0  0  0  0  0  0
   46.3239    2.1474    7.8524 C   0  0  0  0  0  0  0  0  0  0  0  0
   44.0164    4.1425   12.9584 C   0  0  0  0  0  0  0  0  0  0  0  0
   43.7468    6.1029   11.5800 C   0  0  0  0  0  0  0  0  0  0  0  0
   43.7597    5.5066   12.8392 C   0  0  0  0  0  0  0  0  0  0  0  0
   44.1426    3.6211   10.7187 C   0  0  0  0  0  0  0  0  0  0  0  0
   45.4043    4.8237    8.9045 C   0  0  0  0  0  0  0  0  0  0  0  0
   45.0318    4.0224   11.8618 C   0  0  0  0  0  0  0  0  0  0  0  0
   44.9638    3.4548    9.4426 C   0  0  2  0  0  0  0  0  0  0  0  0
   45.4014    5.8904    9.4967 O   0  0  0  0  0  0  0  0  0  0  0  0
   46.2403    3.8756   11.9370 O   0  0  0  0  0  0  0  0  0  0  0  0
   44.1462    2.7610    8.4143 N   0  0  0  0  0  0  0  0  0  0  0  0
   45.8654    4.7531    7.6322 O   0  0  0  0  0  0  0  0  0  0  0  0
   44.3358    4.5421   12.8913 O   0  0  0  0  0  0  0  0  0  0  0  0
   45.7590    3.2522    9.7200 C   0  0  0  0  0  0  0  0  0  0  0  0
   45.9711    5.2302    8.2098 N   0  0  0  0  0  0  0  0  0  0  0  0
   44.8217    3.6977   10.8208 C   0  0  0  0  0  0  0  0  0  0  0  0
   45.4395    3.8660    8.3380 C   0  0  1  0  0  0  0  0  0  0  0  0
   44.9064    4.9903   11.3548 C   0  0  0  0  0  0  0  0  0  0  0  0
   43.8522    2.8199   11.3266 C   0  0  0  0  0  0  0  0  0  0  0  0
   46.0364    3.0048    7.2220 C   0  0  0  0  0  0  0  0  0  0  0  0
   44.0422    5.3969   12.3730 C   0  0  0  0  0  0  0  0  0  0  0  0
   42.9895    3.2270   12.3466 C   0  0  0  0  0  0  0  0  0  0  0  0
   43.0851    4.5150   12.8697 C   0  0  0  0  0  0  0  0  0  0  0  0
   44.8104    4.3313    9.8474 S   0  0  0  0  0  0  0  0  0  0  0  0
   45.9097    5.1167    9.3465 O   0  0  0  0  0  0  0  0  0  0  0  0
   43.4443    4.7891    9.8734 O   0  0  0  0  0  0  0  0  0  0  0  0
   45.1611    3.8548   11.3386 O   0  0  0  0  0  0  0  0  0  0  0  0
   44.8575    2.9379    9.0537 O   0  0  0  0  0  0  0  0  0  0  0  0
   42.9265    3.9952   10.1277 H   0  0  0  0  0  0  0  0  0  0  0  0
   43.7981    5.5006   10.2546 H   0  0  0  0  0  0  0  0  0  0  0  0
   45.0856    5.7751   12.3688 H   0  0  0  0  0  0  0  0  0  0  0  0
   45.8649    4.5150   13.0454 H   0  0  0  0  0  0  0  0  0  0  0  0
   44.9195    2.9538   11.5563 H   0  0  0  0  0  0  0  0  0  0  0  0
   43.4287    2.4704    8.4043 H   0  0  0  0  0  0  0  0  0  0  0  0
   46.3790    5.4061    9.5359 H   0  0  0  0  0  0  0  0  0  0  0  0
   43.7122    3.5512   13.6532 H   0  0  0  0  0  0  0  0  0  0  0  0
   42.8439    4.8416   12.8012 H   0  0  0  0  0  0  0  0  0  0  0  0
   42.5833    3.1479   12.3566 H   0  0  0  0  0  0  0  0  0  0  0  0
   44.8428    1.7955    6.4999 H   0  0  0  0  0  0  0  0  0  0  0  0
   47.7812    4.7187    7.6243 H   0  0  0  0  0  0  0  0  0  0  0  0
   47.0215    2.9120    6.1026 H   0  0  0  0  0  0  0  0  0  0  0  0
   43.7193    3.3163    8.5758 H   0  0  0  0  0  0  0  0  0  0  0  0
   44.4008    2.0685    9.5862 H   0  0  0  0  0  0  0  0  0  0  0  0
   46.8743    4.6825    7.4690 H   0  0  0  0  0  0  0  0  0  0  0  0
   45.3264    4.4152    7.0347 H   0  0  0  0  0  0  0  0  0  0  0  0
   46.6469    3.4886    9.4933 H   0  0  0  0  0  0  0  0  0  0  0  0
   43.9823    5.8155    9.4637 H   0  0  0  0  0  0  0  0  0  0  0  0
   44.4607    2.3110   11.9323 H   0  0  0  0  0  0  0  0  0  0  0  0
   46.3724    1.2445    8.4707 H   0  0  0  0  0  0  0  0  0  0  0  0
   47.3162    2.2970    7.4123 H   0  0  0  0  0  0  0  0  0  0  0  0
   45.6151    1.9602    7.0384 H   0  0  0  0  0  0  0  0  0  0  0  0
   44.0306    3.6771   13.9396 H   0  0  0  0  0  0  0  0  0  0  0  0
   43.5542    7.1678   11.4833 H   0  0  0  0  0  0  0  0  0  0  0  0
   43.5739    6.1056   13.7263 H   0  0  0  0  0  0  0  0  0  0  0  0
   43.6618    2.6766   11.0002 H   0  0  0  0  0  0  0  0  0  0  0  0
   43.3673    4.3848   10.5840 H   0  0  0  0  0  0  0  0  0  0  0  0
   45.8730    2.8689    9.6216 H   0  0  0  0  0  0  0  0  0  0  0  0
   44.0918    1.7700    8.6445 H   0  0  0  0  0  0  0  0  0  0  0  0
   44.6589    2.8182    7.5290 H   0  0  0  0  0  0  0  0  0  0  0  0
   46.1028    5.6811    7.4247 H   0  0  0  0  0  0  0  0  0  0  0  0
   45.0194    4.7721   13.5553 H   0  0  0  0  0  0  0  0  0  0  0  0
   45.7108    2.1571    9.6498 H   0  0  0  0  0  0  0  0  0  0  0  0
   46.7929    3.4745   10.0173 H   0  0  0  0  0  0  0  0  0  0  0  0
   45.7347    5.6014    7.2901 H   0  0  0  0  0  0  0  0  0  0  0  0
   46.9891    5.2110    8.2561 H   0  0  0  0  0  0  0  0  0  0  0  0
   44.3526    3.9066    8.1967 H   0  0  0  0  0  0  0  0  0  0  0  0
   45.6447    5.6917   10.9721 H   0  0  0  0  0  0  0  0  0  0  0  0
   43.7613    1.8115   10.9307 H   0  0  0  0  0  0  0  0  0  0  0  0
   47.1243    2.9166    7.3198 H   0  0  0  0  0  0  0  0  0  0  0  0
   45.8170    3.4293    6.2364 H   0  0  0  0  0  0  0  0  0  0  0  0
   45.6131    1.9951    7.2456 H   0  0  0  0  0  0  0  0  0  0  0  0
   44.1163    6.4039   12.7744 H   0  0  0  0  0  0  0  0  0  0  0  0
   42.2436    2.5382   12.7336 H   0  0  0  0  0  0  0  0  0  0  0  0
   42.4138    4.8319   13.6633 H   0  0  0  0  0  0  0  0  0  0  0  0
   44.3292    3.5368   11.7453 H   0  0  0  0  0  0  0  0  0  0  0  0
   45.7468    2.8717    8.6455 H   0  0  0  0  0  0  0  0  0  0  0  0
  4  2  1  0
  3  1  1  0
  4  1  1  0
  5  3  2  0
  6  3  1  0
  4  7  1  0
  8  5  1  0
  9  6  2  0
 10  8  2  0
  9 10  1  0
 12 14  1  0
 13 11  1  0
 14 11  1  0
 15 13  2  0
 16 13  1  0
 17 14  1  0
 18 16  2  0
 19 15  1  0
 20 18  1  0
 19 20  2  0
 22 24  1  0
 23 21  1  0
 24 21  1  0
 25 22  2  0
 26 23  2  0
 27 24  1  0
 28 22  1  0
 29 23  1  0
 33 31  1  0
 32 30  1  0
 33 30  1  0
 34 32  2  0
 35 32  1  0
 33 36  1  0
 37 34  1  0
 38 35  2  0
 39 37  2  0
 38 39  1  0
 41 40  2  0
 42 40  2  0
 43 40  1  0
 44 40  1  0
  1 45  1  0
  1 46  1  0
  2 47  1  0
  2 48  1  0
  4 49  1  6
  5 50  1  0
  6 51  1  0
  7 52  1  0
  7 53  1  0
  7 54  1  0
  8 55  1  0
  9 56  1  0
 10 57  1  0
 11 58  1  0
 11 59  1  0
 12 60  1  0
 12 61  1  0
 14 62  1  6
 15 63  1  0
 16 64  1  0
 17 65  1  0
 17 66  1  0
 17 67  1  0
 18 68  1  0
 19 69  1  0
 20 70  1  0
 21 71  1  0
 21 72  1  0
 24 73  1  6
 27 74  1  0
 27 75  1  0
 28 76  1  0
 29 77  1  0
 30 78  1  0
 30 79  1  0
 31 80  1  0
 31 81  1  0
 33 82  1  1
 34 83  1  0
 35 84  1  0
 36 85  1  0
 36 86  1  0
 36 87  1  0
 37 88  1  0
 38 89  1  0
 39 90  1  0
 43 91  1  0
 44 92  1  0
M  END
> <Uni-Dock RESULT> 
ENERGY=   -8.426  LOWER_BOUND=    2.566  UPPER_BOUND=    4.360
INTER + INTRA:          -8.426
INTER:                  -8.426
INTRA:                   0.000
UNBOUND:                 0.000

$$$$

     RDKit          3D

 92 90  0  0  0  0  0  0  0  0999 V2000
   45.3398    6.6879   12.9799 C   0  0  0  0  0  0  0  0  0  0  0  0
   46.8901    7.6482   11.2774 N   0  0  0  0  0  0  0  0  0  0  0  0
   44.6699    5.5090   12.3096 C   0  0  0  0  0  0  0  0  0  0  0  0
   46.8062    6.9024   12.5424 C   0  0  1  0  0  0  0  0  0  0  0  0
   44.4125    4.3340   13.0298 C   0  0  0  0  0  0  0  0  0  0  0  0
   44.2956    5.5689   10.9613 C   0  0  0  0  0  0  0  0  0  0  0  0
   47.5768    7.6739   13.6161 C   0  0  0  0  0  0  0  0  0  0  0  0
   43.7929    3.2449   12.4136 C   0  0  0  0  0  0  0  0  0  0  0  0
   43.6784    4.4788   10.3455 C   0  0  0  0  0  0  0  0  0  0  0  0
   43.4269    3.3172   11.0712 C   0  0  0  0  0  0  0  0  0  0  0  0
   45.2545    4.9901   12.8235 C   0  0  0  0  0  0  0  0  0  0  0  0
   43.4430    4.9954   11.1065 N   0  0  0  0  0  0  0  0  0  0  0  0
   45.8367    6.3856   12.7966 C   0  0  0  0  0  0  0  0  0  0  0  0
   44.7815    4.4860   11.4415 C   0  0  2  0  0  0  0  0  0  0  0  0
   45.0064    7.5057   12.6591 C   0  0  0  0  0  0  0  0  0  0  0  0
   47.2211    6.5792   12.9057 C   0  0  0  0  0  0  0  0  0  0  0  0
   44.7415    2.9567   11.4146 C   0  0  0  0  0  0  0  0  0  0  0  0
   47.7608    7.8668   12.8810 C   0  0  0  0  0  0  0  0  0  0  0  0
   45.5476    8.7919   12.6321 C   0  0  0  0  0  0  0  0  0  0  0  0
   46.9245    8.9727   12.7445 C   0  0  0  0  0  0  0  0  0  0  0  0
   46.1462    6.2279   12.9865 C   0  0  0  0  0  0  0  0  0  0  0  0
   44.1407    5.9141   11.5002 C   0  0  0  0  0  0  0  0  0  0  0  0
   47.0164    6.9272   11.9804 C   0  0  0  0  0  0  0  0  0  0  0  0
   45.2498    5.2062   12.2915 C   0  0  2  0  0  0  0  0  0  0  0  0
   44.0920    7.0904   11.1798 O   0  0  0  0  0  0  0  0  0  0  0  0
   47.3029    6.5359   10.8613 O   0  0  0  0  0  0  0  0  0  0  0  0
   44.6366    4.3128   13.3078 N   0  0  0  0  0  0  0  0  0  0  0  0
   43.1544    5.0648   11.1231 O   0  0  0  0  0  0  0  0  0  0  0  0
   47.5365    8.0717   12.4640 O   0  0  0  0  0  0  0  0  0  0  0  0
   45.6863    4.9836   11.5771 C   0  0  0  0  0  0  0  0  0  0  0  0
   43.4107    5.7288   10.8662 N   0  0  0  0  0  0  0  0  0  0  0  0
   46.2758    6.1683   12.3104 C   0  0  0  0  0  0  0  0  0  0  0  0
   44.1588    4.8313   11.7579 C   0  0  1  0  0  0  0  0  0  0  0  0
   46.0718    7.4737   11.8441 C   0  0  0  0  0  0  0  0  0  0  0  0
   47.0398    5.9770   13.4706 C   0  0  0  0  0  0  0  0  0  0  0  0
   43.7296    3.3906   11.4692 C   0  0  0  0  0  0  0  0  0  0  0  0
   46.6202    8.5644   12.5212 C   0  0  0  0  0  0  0  0  0  0  0  0
   47.5896    7.0686   14.1461 C   0  0  0  0  0  0  0  0  0  0  0  0
   47.3801    8.3618   13.6710 C   0  0  0  0  0  0  0  0  0  0  0  0
   45.1221    6.1685   12.1759 S   0  0  0  0  0  0  0  0  0  0  0  0
   44.4258    6.2542   10.9172 O   0  0  0  0  0  0  0  0  0  0  0  0
   44.7418    6.9053   13.3543 O   0  0  0  0  0  0  0  0  0  0  0  0
   46.6750    6.4816   11.9224 O   0  0  0  0  0  0  0  0  0  0  0  0
   45.1739    4.6101   12.5536 O   0  0  0  0  0  0  0  0  0  0  0  0
   45.3042    6.5320   14.0667 H   0  0  0  0  0  0  0  0  0  0  0  0
   44.7409    7.5907   12.8002 H   0  0  0  0  0  0  0  0  0  0  0  0
   46.5484    8.5982   11.4142 H   0  0  0  0  0  0  0  0  0  0  0  0
   47.8670    7.7361   11.0009 H   0  0  0  0  0  0  0  0  0  0  0  0
   47.2951    5.9309   12.4018 H   0  0  0  0  0  0  0  0  0  0  0  0
   44.6908    4.2580   14.0782 H   0  0  0  0  0  0  0  0  0  0  0  0
   44.4940    6.4669   10.3789 H   0  0  0  0  0  0  0  0  0  0  0  0
   48.6180    7.8351   13.3158 H   0  0  0  0  0  0  0  0  0  0  0  0
   47.1242    8.6518   13.8120 H   0  0  0  0  0  0  0  0  0  0  0  0
   47.5895    7.1150   14.5575 H   0  0  0  0  0  0  0  0  0  0  0  0
   43.5962    2.3396   12.9812 H   0  0  0  0  0  0  0  0  0  0  0  0
   43.3984    4.5376    9.2971 H   0  0  0  0  0  0  0  0  0  0  0  0
   42.9481    2.4687   10.5907 H   0  0  0  0  0  0  0  0  0  0  0  0
   44.4350    4.9574   13.5538 H   0  0  0  0  0  0  0  0  0  0  0  0
   46.0185    4.3072   13.2190 H   0  0  0  0  0  0  0  0  0  0  0  0
   43.1752    4.6607   10.1818 H   0  0  0  0  0  0  0  0  0  0  0  0
   42.7566    4.6150   11.7564 H   0  0  0  0  0  0  0  0  0  0  0  0
   45.4800    4.8253   10.6672 H   0  0  0  0  0  0  0  0  0  0  0  0
   43.9302    7.3792   12.5621 H   0  0  0  0  0  0  0  0  0  0  0  0
   47.8899    5.7288   13.0105 H   0  0  0  0  0  0  0  0  0  0  0  0
   45.7376    2.5413   11.6023 H   0  0  0  0  0  0  0  0  0  0  0  0
   44.4118    2.5883   10.4367 H   0  0  0  0  0  0  0  0  0  0  0  0
   44.0617    2.5579   12.1755 H   0  0  0  0  0  0  0  0  0  0  0  0
   48.8346    8.0061   12.9649 H   0  0  0  0  0  0  0  0  0  0  0  0
   44.8927    9.6514   12.5181 H   0  0  0  0  0  0  0  0  0  0  0  0
   47.3451    9.9742   12.7216 H   0  0  0  0  0  0  0  0  0  0  0  0
   46.8138    5.7377   13.7051 H   0  0  0  0  0  0  0  0  0  0  0  0
   45.5436    6.9743   13.5178 H   0  0  0  0  0  0  0  0  0  0  0  0
   45.8145    4.5923   11.5800 H   0  0  0  0  0  0  0  0  0  0  0  0
   45.3365    3.6477   13.6328 H   0  0  0  0  0  0  0  0  0  0  0  0
   43.9187    3.7582   12.8314 H   0  0  0  0  0  0  0  0  0  0  0  0
   42.5284    5.6439   10.6397 H   0  0  0  0  0  0  0  0  0  0  0  0
   48.0639    8.4322   11.7204 H   0  0  0  0  0  0  0  0  0  0  0  0
   46.1860    4.0738   11.9362 H   0  0  0  0  0  0  0  0  0  0  0  0
   45.9493    5.0533   10.5129 H   0  0  0  0  0  0  0  0  0  0  0  0
   42.4107    5.6033   11.0198 H   0  0  0  0  0  0  0  0  0  0  0  0
   43.5837    5.4745    9.8945 H   0  0  0  0  0  0  0  0  0  0  0  0
   43.8860    5.0702   12.7929 H   0  0  0  0  0  0  0  0  0  0  0  0
   45.4751    7.6474   10.9511 H   0  0  0  0  0  0  0  0  0  0  0  0
   47.2133    4.9760   13.8575 H   0  0  0  0  0  0  0  0  0  0  0  0
   43.9903    3.0897   10.4482 H   0  0  0  0  0  0  0  0  0  0  0  0
   42.6482    3.2690   11.5937 H   0  0  0  0  0  0  0  0  0  0  0  0
   44.2192    2.6963   12.1602 H   0  0  0  0  0  0  0  0  0  0  0  0
   46.4500    9.5716   12.1507 H   0  0  0  0  0  0  0  0  0  0  0  0
   48.1825    6.9094   15.0426 H   0  0  0  0  0  0  0  0  0  0  0  0
   47.8079    9.2112   14.1967 H   0  0  0  0  0  0  0  0  0  0  0  0
   47.0828    6.6546   12.7956 H   0  0  0  0  0  0  0  0  0  0  0  0
   44.9701    4.1108   11.7344 H   0  0  0  0  0  0  0  0  0  0  0  0
  4  2  1  0
  3  1  1  0
  4  1  1  0
  5  3  2  0
  6  3  1  0
  4  7  1  0
  8  5  1  0
  9  6  2  0
 10  8  2  0
  9 10  1  0
 12 14  1  0
 13 11  1  0
 14 11  1  0
 15 13  2  0
 16 13  1  0
 17 14  1  0
 18 16  2  0
 19 15  1  0
 20 18  1  0
 19 20  2  0
 22 24  1  0
 23 21  1  0
 24 21  1  0
 25 22  2  0
 26 23  2  0
 27 24  1  0
 28 22  1  0
 29 23  1  0
 33 31  1  0
 32 30  1  0
 33 30  1  0
 34 32  2  0
 35 32  1  0
 33 36  1  0
 37 34  1  0
 38 35  2  0
 39 37  2  0
 38 39  1  0
 41 40  2  0
 42 40  2  0
 43 40  1  0
 44 40  1  0
  1 45  1  0
  1 46  1  0
  2 47  1  0
  2 48  1  0
  4 49  1  6
  5 50  1  0
  6 51  1  0
  7 52  1  0
  7 53  1  0
  7 54  1  0
  8 55  1  0
  9 56  1  0
 10 57  1  0
 11 58  1  0
 11 59  1  0
 12 60  1  0
 12 61  1  0
 14 62  1  6
 15 63  1  0
 16 64  1  0
 17 65  1  0
 17 66  1  0
 17 67  1  0
 18 68  1  0
 19 69  1  0
 20 70  1  0
 21 71  1  0
 21 72  1  0
 24 73  1  6
 27 74  1  0
 27 75  1  0
 28 76  1  0
 29 77  1  0
 30 78  1  0
 30 79  1  0
 31 80  1  0
 31 81  1  0
 33 82  1  1
 34 83  1  0
 35 84  1  0
 36 85  1  0
 36 86  1  0
 36 87  1  0
 37 88  1  0
 38 89  1  0
 39 90  1  0
 43 91  1  0
 44 92  1  0
M  END
> <Uni-Dock RESULT> 
ENERGY=   -8.102  LOWER_BOUND=    1.008  UPPER_BOUND=    4.090
INTER + INTRA:          -8.102
INTER:                  -8.102
INTRA:                   0.000
UNBOUND:                 0.000

$$$$

     RDKit          3D

 92 90  0  0  0  0  0  0  0  0999 V2000
   44.9644    4.6056   11.0957 C   0  0  0  0  0  0  0  0  0  0  0  0
   42.6821    3.8807   11.7955 N   0  0  0  0  0  0  0  0  0  0  0  0
   45.2353    3.9051    9.7827 C   0  0  0  0  0  0  0  0  0  0  0  0
   43.4853    5.0064   11.2941 C   0  0  1  0  0  0  0  0  0  0  0  0
   45.9150    4.5676    8.7508 C   0  0  0  0  0  0  0  0  0  0  0  0
   44.8135    2.5860    9.5739 C   0  0  0  0  0  0  0  0  0  0  0  0
   43.3742    6.1658   12.2867 C   0  0  0  0  0  0  0  0  0  0  0  0
   46.1675    3.9226    7.5384 C   0  0  0  0  0  0  0  0  0  0  0  0
   45.0643    1.9427    8.3607 C   0  0  0  0  0  0  0  0  0  0  0  0
   45.7412    2.6105    7.3433 C   0  0  0  0  0  0  0  0  0  0  0  0
   45.0568    4.7381    9.3962 C   0  0  0  0  0  0  0  0  0  0  0  0
   45.6423    2.3448    8.9978 N   0  0  0  0  0  0  0  0  0  0  0  0
   44.4675    4.7805   10.7884 C   0  0  0  0  0  0  0  0  0  0  0  0
   44.7346    3.4397    8.6229 C   0  0  2  0  0  0  0  0  0  0  0  0
   45.0186    4.0134   11.8231 C   0  0  0  0  0  0  0  0  0  0  0  0
   43.3551    5.5882   11.0637 C   0  0  0  0  0  0  0  0  0  0  0  0
   44.8488    3.6724    7.1150 C   0  0  0  0  0  0  0  0  0  0  0  0
   42.8092    5.6288   12.3484 C   0  0  0  0  0  0  0  0  0  0  0  0
   44.4704    4.0532   13.1061 C   0  0  0  0  0  0  0  0  0  0  0  0
   43.3667    4.8619   13.3692 C   0  0  0  0  0  0  0  0  0  0  0  0
   44.3212    5.1330   10.6834 C   0  0  0  0  0  0  0  0  0  0  0  0
   45.2142    2.8808   10.0054 C   0  0  0  0  0  0  0  0  0  0  0  0
   43.0027    4.6559   11.2241 C   0  0  0  0  0  0  0  0  0  0  0  0
   44.7586    4.2606    9.5094 C   0  0  2  0  0  0  0  0  0  0  0  0
   45.0077    2.3790   11.0982 O   0  0  0  0  0  0  0  0  0  0  0  0
   42.1799    3.9656   10.6460 O   0  0  0  0  0  0  0  0  0  0  0  0
   45.8795    4.9211    8.7921 N   0  0  0  0  0  0  0  0  0  0  0  0
   45.8886    2.1887    9.0554 O   0  0  0  0  0  0  0  0  0  0  0  0
   42.7581    5.1281   12.4616 O   0  0  0  0  0  0  0  0  0  0  0  0
   44.0192    3.9531    9.1790 C   0  0  0  0  0  0  0  0  0  0  0  0
   45.4931    1.9977    9.6715 N   0  0  0  0  0  0  0  0  0  0  0  0
   43.8495    4.6604   10.5056 C   0  0  0  0  0  0  0  0  0  0  0  0
   45.4063    3.2976    8.9912 C   0  0  1  0  0  0  0  0  0  0  0  0
   43.6859    3.9313   11.6908 C   0  0  0  0  0  0  0  0  0  0  0  0
   43.8510    6.0613   10.5689 C   0  0  0  0  0  0  0  0  0  0  0  0
   45.6990    3.0881    7.5033 C   0  0  0  0  0  0  0  0  0  0  0  0
   43.5259    4.5872   12.9127 C   0  0  0  0  0  0  0  0  0  0  0  0
   43.6889    6.7165   11.7914 C   0  0  0  0  0  0  0  0  0  0  0  0
   43.5259    5.9794   12.9628 C   0  0  0  0  0  0  0  0  0  0  0  0
   44.7428    3.9224   10.4265 S   0  0  0  0  0  0  0  0  0  0  0  0
   44.6378    2.4968   10.2445 O   0  0  0  0  0  0  0  0  0  0  0  0
   45.6549    4.5476   11.3504 O   0  0  0  0  0  0  0  0  0  0  0  0
   43.2850    4.5031   10.7599 O   0  0  0  0  0  0  0  0  0  0  0  0
   45.0016    4.5418    8.9694 O   0  0  0  0  0  0  0  0  0  0  0  0
   45.5937    5.5047   11.1425 H   0  0  0  0  0  0  0  0  0  0  0  0
   45.3123    3.9692   11.9203 H   0  0  0  0  0  0  0  0  0  0  0  0
   42.9833    3.6351   12.7372 H   0  0  0  0  0  0  0  0  0  0  0  0
   41.7082    4.1700   11.8765 H   0  0  0  0  0  0  0  0  0  0  0  0
   43.0600    5.3329   10.3374 H   0  0  0  0  0  0  0  0  0  0  0  0
   46.2555    5.5916    8.8838 H   0  0  0  0  0  0  0  0  0  0  0  0
   44.2753    2.0544   10.3567 H   0  0  0  0  0  0  0  0  0  0  0  0
   42.3291    6.4572   12.4382 H   0  0  0  0  0  0  0  0  0  0  0  0
   43.7988    5.9031   13.2616 H   0  0  0  0  0  0  0  0  0  0  0  0
   43.9093    7.0451   11.9132 H   0  0  0  0  0  0  0  0  0  0  0  0
   46.6968    4.4443    6.7459 H   0  0  0  0  0  0  0  0  0  0  0  0
   44.7263    0.9208    8.2109 H   0  0  0  0  0  0  0  0  0  0  0  0
   45.9344    2.1098    6.3988 H   0  0  0  0  0  0  0  0  0  0  0  0
   46.1417    4.8964    9.4610 H   0  0  0  0  0  0  0  0  0  0  0  0
   44.6741    5.6014    8.8352 H   0  0  0  0  0  0  0  0  0  0  0  0
   45.3857    1.5020    8.4852 H   0  0  0  0  0  0  0  0  0  0  0  0
   46.5935    2.5724    8.7126 H   0  0  0  0  0  0  0  0  0  0  0  0
   43.7082    3.1241    8.8452 H   0  0  0  0  0  0  0  0  0  0  0  0
   45.8754    3.3713   11.6304 H   0  0  0  0  0  0  0  0  0  0  0  0
   42.9047    6.1918   10.2799 H   0  0  0  0  0  0  0  0  0  0  0  0
   44.1422    4.4434    6.7890 H   0  0  0  0  0  0  0  0  0  0  0  0
   44.6173    2.7585    6.5565 H   0  0  0  0  0  0  0  0  0  0  0  0
   45.8560    3.9981    6.8327 H   0  0  0  0  0  0  0  0  0  0  0  0
   41.9466    6.2567   12.5511 H   0  0  0  0  0  0  0  0  0  0  0  0
   44.9036    3.4480   13.8977 H   0  0  0  0  0  0  0  0  0  0  0  0
   42.9396    4.8908   14.3677 H   0  0  0  0  0  0  0  0  0  0  0  0
   44.1825    6.1737   10.3668 H   0  0  0  0  0  0  0  0  0  0  0  0
   45.0677    5.1054   11.4861 H   0  0  0  0  0  0  0  0  0  0  0  0
   43.9378    4.0960    8.8015 H   0  0  0  0  0  0  0  0  0  0  0  0
   45.5110    5.6885    8.2325 H   0  0  0  0  0  0  0  0  0  0  0  0
   46.2569    4.2405    8.1256 H   0  0  0  0  0  0  0  0  0  0  0  0
   46.1146    1.3474    9.5047 H   0  0  0  0  0  0  0  0  0  0  0  0
   41.8903    4.7406   12.7024 H   0  0  0  0  0  0  0  0  0  0  0  0
   43.8522    4.6838    8.3761 H   0  0  0  0  0  0  0  0  0  0  0  0
   43.2171    3.2118    9.0625 H   0  0  0  0  0  0  0  0  0  0  0  0
   46.4220    1.6020    9.5298 H   0  0  0  0  0  0  0  0  0  0  0  0
   44.8368    1.3417    9.2499 H   0  0  0  0  0  0  0  0  0  0  0  0
   46.1816    3.9538    9.4048 H   0  0  0  0  0  0  0  0  0  0  0  0
   43.6903    2.8436   11.6676 H   0  0  0  0  0  0  0  0  0  0  0  0
   43.9780    6.6537    9.6662 H   0  0  0  0  0  0  0  0  0  0  0  0
   44.9454    2.4479    7.0310 H   0  0  0  0  0  0  0  0  0  0  0  0
   46.6800    2.6236    7.3562 H   0  0  0  0  0  0  0  0  0  0  0  0
   45.7072    4.0461    6.9730 H   0  0  0  0  0  0  0  0  0  0  0  0
   43.4047    4.0089   13.8245 H   0  0  0  0  0  0  0  0  0  0  0  0
   43.6886    7.8024   11.8293 H   0  0  0  0  0  0  0  0  0  0  0  0
   43.3999    6.4892   13.9141 H   0  0  0  0  0  0  0  0  0  0  0  0
   43.4064    5.4091   11.1108 H   0  0  0  0  0  0  0  0  0  0  0  0
   44.7589    3.8501    8.3178 H   0  0  0  0  0  0  0  0  0  0  0  0
  4  2  1  0
  3  1  1  0
  4  1  1  0
  5  3  2  0
  6  3  1  0
  4  7  1  0
  8  5  1  0
  9  6  2  0
 10  8  2  0
  9 10  1  0
 12 14  1  0
 13 11  1  0
 14 11  1  0
 15 13  2  0
 16 13  1  0
 17 14  1  0
 18 16  2  0
 19 15  1  0
 20 18  1  0
 19 20  2  0
 22 24  1  0
 23 21  1  0
 24 21  1  0
 25 22  2  0
 26 23  2  0
 27 24  1  0
 28 22  1  0
 29 23  1  0
 33 31  1  0
 32 30  1  0
 33 30  1  0
 34 32  2  0
 35 32  1  0
 33 36  1  0
 37 34  1  0
 38 35  2  0
 39 37  2  0
 38 39  1  0
 41 40  2  0
 42 40  2  0
 43 40  1  0
 44 40  1  0
  1 45  1  0
  1 46  1  0
  2 47  1  0
  2 48  1  0
  4 49  1  6
  5 50  1  0
  6 51  1  0
  7 52  1  0
  7 53  1  0
  7 54  1  0
  8 55  1  0
  9 56  1  0
 10 57  1  0
 11 58  1  0
 11 59  1  0
 12 60  1  0
 12 61  1  0
 14 62  1  6
 15 63  1  0
 16 64  1  0
 17 65  1  0
 17 66  1  0
 17 67  1  0
 18 68  1  0
 19 69  1  0
 20 70  1  0
 21 71  1  0
 21 72  1  0
 24 73  1  6
 27 74  1  0
 27 75  1  0
 28 76  1  0
 29 77  1  0
 30 78  1  0
 30 79  1  0
 31 80  1  0
 31 81  1  0
 33 82  1  1
 34 83  1  0
 35 84  1  0
 36 85  1  0
 36 86  1  0
 36 87  1  0
 37 88  1  0
 38 89  1  0
 39 90  1  0
 43 91  1  0
 44 92  1  0
M  END
> <Uni-Dock RESULT> 
ENERGY=   -7.872  LOWER_BOUND=    2.409  UPPER_BOUND=    4.532
INTER + INTRA:          -7.872
INTER:                  -7.872
INTRA:                   0.000
UNBOUND:                 0.000

$$$$

     RDKit          3D

 92 90  0  0  0  0  0  0  0  0999 V2000
   47.8864    7.7146   12.1648 C   0  0  0  0  0  0  0  0  0  0  0  0
   48.1886    8.8318   14.3750 N   0  0  0  0  0  0  0  0  0  0  0  0
   46.9387    6.5618   12.4114 C   0  0  0  0  0  0  0  0  0  0  0  0
   47.5947    8.9577   13.0351 C   0  0  1  0  0  0  0  0  0  0  0  0
   45.9572    6.2339   11.4654 C   0  0  0  0  0  0  0  0  0  0  0  0
   47.0236    5.8029   13.5855 C   0  0  0  0  0  0  0  0  0  0  0  0
   48.1521   10.2183   12.3704 C   0  0  0  0  0  0  0  0  0  0  0  0
   45.0822    5.1693   11.6900 C   0  0  0  0  0  0  0  0  0  0  0  0
   46.1468    4.7402   13.8103 C   0  0  0  0  0  0  0  0  0  0  0  0
   45.1766    4.4233   12.8630 C   0  0  0  0  0  0  0  0  0  0  0  0
   46.2969    7.1115   12.0100 C   0  0  0  0  0  0  0  0  0  0  0  0
   46.7613    4.9191   13.1089 N   0  0  0  0  0  0  0  0  0  0  0  0
   47.4305    8.0195   12.4315 C   0  0  0  0  0  0  0  0  0  0  0  0
   45.8773    6.0946   13.0951 C   0  0  2  0  0  0  0  0  0  0  0  0
   48.7442    7.5382   12.5053 C   0  0  0  0  0  0  0  0  0  0  0  0
   47.1817    9.3599   12.7590 C   0  0  0  0  0  0  0  0  0  0  0  0
   44.4415    5.6215   12.8588 C   0  0  0  0  0  0  0  0  0  0  0  0
   48.2269   10.2000   13.1485 C   0  0  0  0  0  0  0  0  0  0  0  0
   49.7874    8.3786   12.8972 C   0  0  0  0  0  0  0  0  0  0  0  0
   49.5291    9.7098   13.2173 C   0  0  0  0  0  0  0  0  0  0  0  0
   47.1959    8.3166   12.3156 C   0  0  0  0  0  0  0  0  0  0  0  0
   47.4355    5.9345   13.0888 C   0  0  0  0  0  0  0  0  0  0  0  0
   47.5137    8.9722   13.6300 C   0  0  0  0  0  0  0  0  0  0  0  0
   46.4671    6.9951   12.5459 C   0  0  2  0  0  0  0  0  0  0  0  0
   48.5421    6.1159   13.5696 O   0  0  0  0  0  0  0  0  0  0  0  0
   46.9775    8.7583   14.7045 O   0  0  0  0  0  0  0  0  0  0  0  0
   45.8848    6.5207   11.2641 N   0  0  0  0  0  0  0  0  0  0  0  0
   46.9196    4.6832   13.0215 O   0  0  0  0  0  0  0  0  0  0  0  0
   48.4639    9.9195   13.5109 O   0  0  0  0  0  0  0  0  0  0  0  0
   46.0700    7.0954   13.3093 C   0  0  0  0  0  0  0  0  0  0  0  0
   47.4491    5.0174   13.4464 N   0  0  0  0  0  0  0  0  0  0  0  0
   47.0530    8.1976   12.9811 C   0  0  0  0  0  0  0  0  0  0  0  0
   46.4227    5.7313   12.6738 C   0  0  1  0  0  0  0  0  0  0  0  0
   48.3212    8.2275   13.5760 C   0  0  0  0  0  0  0  0  0  0  0  0
   46.7076    9.2107   12.0752 C   0  0  0  0  0  0  0  0  0  0  0  0
   45.1766    4.8464   12.5867 C   0  0  0  0  0  0  0  0  0  0  0  0
   49.2244    9.2481   13.2735 C   0  0  0  0  0  0  0  0  0  0  0  0
   47.6111   10.2323   11.7749 C   0  0  0  0  0  0  0  0  0  0  0  0
   48.8689   10.2510   12.3745 C   0  0  0  0  0  0  0  0  0  0  0  0
   47.4101    7.1116   12.7757 S   0  0  0  0  0  0  0  0  0  0  0  0
   47.6275    6.0981   13.7766 O   0  0  0  0  0  0  0  0  0  0  0  0
   48.3070    7.3567   11.6748 O   0  0  0  0  0  0  0  0  0  0  0  0
   47.1966    8.5201   13.5135 O   0  0  0  0  0  0  0  0  0  0  0  0
   45.9449    6.8447   12.1792 O   0  0  0  0  0  0  0  0  0  0  0  0
   47.8232    7.9914   11.1037 H   0  0  0  0  0  0  0  0  0  0  0  0
   48.9184    7.3679   12.3096 H   0  0  0  0  0  0  0  0  0  0  0  0
   49.2048    8.8334   14.3028 H   0  0  0  0  0  0  0  0  0  0  0  0
   47.9432    9.6494   14.9316 H   0  0  0  0  0  0  0  0  0  0  0  0
   46.5111    9.0818   13.1497 H   0  0  0  0  0  0  0  0  0  0  0  0
   45.8676    6.8042   10.5440 H   0  0  0  0  0  0  0  0  0  0  0  0
   47.7710    6.0447   14.3391 H   0  0  0  0  0  0  0  0  0  0  0  0
   47.9541   11.1067   12.9801 H   0  0  0  0  0  0  0  0  0  0  0  0
   49.2340   10.1467   12.2152 H   0  0  0  0  0  0  0  0  0  0  0  0
   47.6827   10.3787   11.3943 H   0  0  0  0  0  0  0  0  0  0  0  0
   44.3264    4.9222   10.9496 H   0  0  0  0  0  0  0  0  0  0  0  0
   46.2208    4.1636   14.7284 H   0  0  0  0  0  0  0  0  0  0  0  0
   44.4935    3.5972   13.0396 H   0  0  0  0  0  0  0  0  0  0  0  0
   46.5751    6.5988   11.0794 H   0  0  0  0  0  0  0  0  0  0  0  0
   45.4351    7.7389   11.7451 H   0  0  0  0  0  0  0  0  0  0  0  0
   46.4675    4.2834   13.8494 H   0  0  0  0  0  0  0  0  0  0  0  0
   46.6629    4.4033   12.2358 H   0  0  0  0  0  0  0  0  0  0  0  0
   45.9246    6.5694   14.0824 H   0  0  0  0  0  0  0  0  0  0  0  0
   48.9595    6.4991   12.2660 H   0  0  0  0  0  0  0  0  0  0  0  0
   46.1721    9.7600   12.7137 H   0  0  0  0  0  0  0  0  0  0  0  0
   43.7452    6.4661   12.9006 H   0  0  0  0  0  0  0  0  0  0  0  0
   44.1319    4.9032   13.6262 H   0  0  0  0  0  0  0  0  0  0  0  0
   44.3311    5.1426   11.8797 H   0  0  0  0  0  0  0  0  0  0  0  0
   48.0235   11.2365   13.4015 H   0  0  0  0  0  0  0  0  0  0  0  0
   50.8005    7.9906   12.9566 H   0  0  0  0  0  0  0  0  0  0  0  0
   50.3415   10.3627   13.5240 H   0  0  0  0  0  0  0  0  0  0  0  0
   46.5687    9.0157   11.7497 H   0  0  0  0  0  0  0  0  0  0  0  0
   48.1289    8.1534   11.7629 H   0  0  0  0  0  0  0  0  0  0  0  0
   45.6594    7.1026   13.2795 H   0  0  0  0  0  0  0  0  0  0  0  0
   45.0554    7.0723   11.0503 H   0  0  0  0  0  0  0  0  0  0  0  0
   45.5559    5.5622   11.4161 H   0  0  0  0  0  0  0  0  0  0  0  0
   47.6335    4.1229   13.3920 H   0  0  0  0  0  0  0  0  0  0  0  0
   48.5876   10.2556   14.4235 H   0  0  0  0  0  0  0  0  0  0  0  0
   45.0750    7.4086   12.9655 H   0  0  0  0  0  0  0  0  0  0  0  0
   45.9811    7.0072   14.4006 H   0  0  0  0  0  0  0  0  0  0  0  0
   47.6580    4.1285   12.9928 H   0  0  0  0  0  0  0  0  0  0  0  0
   47.0884    4.7872   14.3715 H   0  0  0  0  0  0  0  0  0  0  0  0
   46.8049    5.8875   11.6577 H   0  0  0  0  0  0  0  0  0  0  0  0
   48.6148    7.4473   14.2750 H   0  0  0  0  0  0  0  0  0  0  0  0
   45.7316    9.2128   11.5964 H   0  0  0  0  0  0  0  0  0  0  0  0
   44.7407    4.6665   13.5759 H   0  0  0  0  0  0  0  0  0  0  0  0
   45.4130    3.8757   12.1378 H   0  0  0  0  0  0  0  0  0  0  0  0
   44.4110    5.3186   11.9621 H   0  0  0  0  0  0  0  0  0  0  0  0
   50.2063    9.2560   13.7389 H   0  0  0  0  0  0  0  0  0  0  0  0
   47.3326   11.0144   11.0738 H   0  0  0  0  0  0  0  0  0  0  0  0
   49.5721   11.0459   12.1407 H   0  0  0  0  0  0  0  0  0  0  0  0
   47.2896    9.2203   12.8355 H   0  0  0  0  0  0  0  0  0  0  0  0
   45.4822    6.2549   12.8117 H   0  0  0  0  0  0  0  0  0  0  0  0
  4  2  1  0
  3  1  1  0
  4  1  1  0
  5  3  2  0
  6  3  1  0
  4  7  1  0
  8  5  1  0
  9  6  2  0
 10  8  2  0
  9 10  1  0
 12 14  1  0
 13 11  1  0
 14 11  1  0
 15 13  2  0
 16 13  1  0
 17 14  1  0
 18 16  2  0
 19 15  1  0
 20 18  1  0
 19 20  2  0
 22 24  1  0
 23 21  1  0
 24 21  1  0
 25 22  2  0
 26 23  2  0
 27 24  1  0
 28 22  1  0
 29 23  1  0
 33 31  1  0
 32 30  1  0
 33 30  1  0
 34 32  2  0
 35 32  1  0
 33 36  1  0
 37 34  1  0
 38 35  2  0
 39 37  2  0
 38 39  1  0
 41 40  2  0
 42 40  2  0
 43 40  1  0
 44 40  1  0
  1 45  1  0
  1 46  1  0
  2 47  1  0
  2 48  1  0
  4 49  1  6
  5 50  1  0
  6 51  1  0
  7 52  1  0
  7 53  1  0
  7 54  1  0
  8 55  1  0
  9 56  1  0
 10 57  1  0
 11 58  1  0
 11 59  1  0
 12 60  1  0
 12 61  1  0
 14 62  1  6
 15 63  1  0
 16 64  1  0
 17 65  1  0
 17 66  1  0
 17 67  1  0
 18 68  1  0
 19 69  1  0
 20 70  1  0
 21 71  1  0
 21 72  1  0
 24 73  1  6
 27 74  1  0
 27 75  1  0
 28 76  1  0
 29 77  1  0
 30 78  1  0
 30 79  1  0
 31 80  1  0
 31 81  1  0
 33 82  1  1
 34 83  1  0
 35 84  1  0
 36 85  1  0
 36 86  1  0
 36 87  1  0
 37 88  1  0
 38 89  1  0
 39 90  1  0
 43 91  1  0
 44 92  1  0
M  END
> <Uni-Dock RESULT> 
ENERGY=   -7.037  LOWER_BOUND=    1.711  UPPER_BOUND=    5.014
INTER + INTRA:          -7.037
INTER:                  -7.037
INTRA:                   0.000
UNBOUND:                 0.000

$$$$

     RDKit          3D

 92 90  0  0  0  0  0  0  0  0999 V2000
   48.8231    6.0462   19.5191 C   0  0  0  0  0  0  0  0  0  0  0  0
   49.7557    4.9203   21.5407 N   0  0  0  0  0  0  0  0  0  0  0  0
   48.6318    4.9543   18.4900 C   0  0  0  0  0  0  0  0  0  0  0  0
   48.5723    5.5835   20.9720 C   0  0  1  0  0  0  0  0  0  0  0  0
   47.5108    4.9597   17.6480 C   0  0  0  0  0  0  0  0  0  0  0  0
   49.5680    3.9207   18.3595 C   0  0  0  0  0  0  0  0  0  0  0  0
   48.2086    6.7771   21.8578 C   0  0  0  0  0  0  0  0  0  0  0  0
   47.3329    3.9536   16.6963 C   0  0  0  0  0  0  0  0  0  0  0  0
   49.3881    2.9141   17.4093 C   0  0  0  0  0  0  0  0  0  0  0  0
   48.2711    2.9304   16.5779 C   0  0  0  0  0  0  0  0  0  0  0  0
   47.7253    5.0174   18.7123 C   0  0  0  0  0  0  0  0  0  0  0  0
   49.4504    3.8582   17.3303 N   0  0  0  0  0  0  0  0  0  0  0  0
   48.4877    5.6590   19.8500 C   0  0  0  0  0  0  0  0  0  0  0  0
   48.3178    3.6676   18.2490 C   0  0  2  0  0  0  0  0  0  0  0  0
   49.7299    6.2673   19.6268 C   0  0  0  0  0  0  0  0  0  0  0  0
   47.9621    5.6513   21.1498 C   0  0  0  0  0  0  0  0  0  0  0  0
   47.2513    2.8301   17.5402 C   0  0  0  0  0  0  0  0  0  0  0  0
   48.6643    6.2430   22.2019 C   0  0  0  0  0  0  0  0  0  0  0  0
   50.4317    6.8562   20.6799 C   0  0  0  0  0  0  0  0  0  0  0  0
   49.8984    6.8454   21.9670 C   0  0  0  0  0  0  0  0  0  0  0  0
   48.1363    5.6870   20.0302 C   0  0  0  0  0  0  0  0  0  0  0  0
   49.5922    4.5765   18.3048 C   0  0  0  0  0  0  0  0  0  0  0  0
   48.8022    5.0991   21.2424 C   0  0  0  0  0  0  0  0  0  0  0  0
   48.1704    4.6920   18.8729 C   0  0  2  0  0  0  0  0  0  0  0  0
   50.6318    4.9488   18.8238 O   0  0  0  0  0  0  0  0  0  0  0  0
   49.0012    3.9172   21.4687 O   0  0  0  0  0  0  0  0  0  0  0  0
   47.2472    5.1466   17.8014 N   0  0  0  0  0  0  0  0  0  0  0  0
   49.6176    3.9514   17.1028 O   0  0  0  0  0  0  0  0  0  0  0  0
   49.1352    6.0393   22.1476 O   0  0  0  0  0  0  0  0  0  0  0  0
   48.2061    3.9151   19.2544 C   0  0  0  0  0  0  0  0  0  0  0  0
   50.1213    4.0569   17.6574 N   0  0  0  0  0  0  0  0  0  0  0  0
   48.4025    5.0742   20.2066 C   0  0  0  0  0  0  0  0  0  0  0  0
   48.6671    4.2068   17.8082 C   0  0  1  0  0  0  0  0  0  0  0  0
   49.6817    5.4171   20.6639 C   0  0  0  0  0  0  0  0  0  0  0  0
   47.3033    5.8240   20.6491 C   0  0  0  0  0  0  0  0  0  0  0  0
   47.9760    3.2563   16.8272 C   0  0  0  0  0  0  0  0  0  0  0  0
   49.8590    6.4851   21.5453 C   0  0  0  0  0  0  0  0  0  0  0  0
   47.4815    6.8909   21.5324 C   0  0  0  0  0  0  0  0  0  0  0  0
   48.7591    7.2208   21.9806 C   0  0  0  0  0  0  0  0  0  0  0  0
   48.9801    5.1311   19.2005 S   0  0  0  0  0  0  0  0  0  0  0  0
   50.0272    4.2330   18.7840 O   0  0  0  0  0  0  0  0  0  0  0  0
   49.0383    6.5615   19.0362 O   0  0  0  0  0  0  0  0  0  0  0  0
   48.6628    4.8616   20.7498 O   0  0  0  0  0  0  0  0  0  0  0  0
   47.6337    4.6009   18.5077 O   0  0  0  0  0  0  0  0  0  0  0  0
   48.1388    6.8708   19.2774 H   0  0  0  0  0  0  0  0  0  0  0  0
   49.8308    6.4690   19.4106 H   0  0  0  0  0  0  0  0  0  0  0  0
   50.5135    5.5939   21.6402 H   0  0  0  0  0  0  0  0  0  0  0  0
   49.5410    4.5950   22.4823 H   0  0  0  0  0  0  0  0  0  0  0  0
   47.7366    4.8737   20.9940 H   0  0  0  0  0  0  0  0  0  0  0  0
   46.7674    5.7494   17.7253 H   0  0  0  0  0  0  0  0  0  0  0  0
   50.4413    3.8898   19.0086 H   0  0  0  0  0  0  0  0  0  0  0  0
   48.0313    6.4620   22.8919 H   0  0  0  0  0  0  0  0  0  0  0  0
   49.0032    7.5310   21.8635 H   0  0  0  0  0  0  0  0  0  0  0  0
   47.2923    7.2576   21.4995 H   0  0  0  0  0  0  0  0  0  0  0  0
   46.4615    3.9681   16.0474 H   0  0  0  0  0  0  0  0  0  0  0  0
   50.1199    2.1154   17.3230 H   0  0  0  0  0  0  0  0  0  0  0  0
   48.1309    2.1457   15.8399 H   0  0  0  0  0  0  0  0  0  0  0  0
   47.6653    5.7265   17.8759 H   0  0  0  0  0  0  0  0  0  0  0  0
   46.6866    4.8679   19.0366 H   0  0  0  0  0  0  0  0  0  0  0  0
   49.8274    2.9493   17.0646 H   0  0  0  0  0  0  0  0  0  0  0  0
   49.1260    4.2944   16.4685 H   0  0  0  0  0  0  0  0  0  0  0  0
   48.6748    3.1041   19.1194 H   0  0  0  0  0  0  0  0  0  0  0  0
   50.1623    6.2762   18.6286 H   0  0  0  0  0  0  0  0  0  0  0  0
   47.0020    5.1841   21.3533 H   0  0  0  0  0  0  0  0  0  0  0  0
   46.4156    2.6176   18.2158 H   0  0  0  0  0  0  0  0  0  0  0  0
   47.6599    1.8679   17.2115 H   0  0  0  0  0  0  0  0  0  0  0  0
   46.8506    3.3478   16.6617 H   0  0  0  0  0  0  0  0  0  0  0  0
   48.2492    6.2305   23.2054 H   0  0  0  0  0  0  0  0  0  0  0  0
   51.3972    7.3185   20.4939 H   0  0  0  0  0  0  0  0  0  0  0  0
   50.4462    7.3025   22.7863 H   0  0  0  0  0  0  0  0  0  0  0  0
   47.1034    5.9234   20.3123 H   0  0  0  0  0  0  0  0  0  0  0  0
   48.6487    6.6172   19.7569 H   0  0  0  0  0  0  0  0  0  0  0  0
   47.8673    3.6887   19.1946 H   0  0  0  0  0  0  0  0  0  0  0  0
   46.2874    4.9573   18.0859 H   0  0  0  0  0  0  0  0  0  0  0  0
   47.4205    4.5579   16.9809 H   0  0  0  0  0  0  0  0  0  0  0  0
   50.5689    3.9520   16.8664 H   0  0  0  0  0  0  0  0  0  0  0  0
   49.5657    5.5377   22.8717 H   0  0  0  0  0  0  0  0  0  0  0  0
   47.1397    3.6521   19.2485 H   0  0  0  0  0  0  0  0  0  0  0  0
   48.7168    3.0297   19.6568 H   0  0  0  0  0  0  0  0  0  0  0  0
   50.3856    4.2633   16.6947 H   0  0  0  0  0  0  0  0  0  0  0  0
   50.3887    3.0876   17.8245 H   0  0  0  0  0  0  0  0  0  0  0  0
   48.3982    5.2350   17.5375 H   0  0  0  0  0  0  0  0  0  0  0  0
   50.5506    4.8556   20.3272 H   0  0  0  0  0  0  0  0  0  0  0  0
   46.2990    5.5827   20.3099 H   0  0  0  0  0  0  0  0  0  0  0  0
   48.1982    2.2083   17.0579 H   0  0  0  0  0  0  0  0  0  0  0  0
   48.2944    3.4525   15.7977 H   0  0  0  0  0  0  0  0  0  0  0  0
   46.8894    3.3863   16.8646 H   0  0  0  0  0  0  0  0  0  0  0  0
   50.8574    6.7427   21.8881 H   0  0  0  0  0  0  0  0  0  0  0  0
   46.6228    7.4637   21.8717 H   0  0  0  0  0  0  0  0  0  0  0  0
   48.8978    8.0511   22.6678 H   0  0  0  0  0  0  0  0  0  0  0  0
   48.1364    5.6204   21.0749 H   0  0  0  0  0  0  0  0  0  0  0  0
   47.8073    3.6820   18.2122 H   0  0  0  0  0  0  0  0  0  0  0  0
  4  2  1  0
  3  1  1  0
  4  1  1  0
  5  3  2  0
  6  3  1  0
  4  7  1  0
  8  5  1  0
  9  6  2  0
 10  8  2  0
  9 10  1  0
 12 14  1  0
 13 11  1  0
 14 11  1  0
 15 13  2  0
 16 13  1  0
 17 14  1  0
 18 16  2  0
 19 15  1  0
 20 18  1  0
 19 20  2  0
 22 24  1  0
 23 21  1  0
 24 21  1  0
 25 22  2  0
 26 23  2  0
 27 24  1  0
 28 22  1  0
 29 23  1  0
 33 31  1  0
 32 30  1  0
 33 30  1  0
 34 32  2  0
 35 32  1  0
 33 36  1  0
 37 34  1  0
 38 35  2  0
 39 37  2  0
 38 39  1  0
 41 40  2  0
 42 40  2  0
 43 40  1  0
 44 40  1  0
  1 45  1  0
  1 46  1  0
  2 47  1  0
  2 48  1  0
  4 49  1  6
  5 50  1  0
  6 51  1  0
  7 52  1  0
  7 53  1  0
  7 54  1  0
  8 55  1  0
  9 56  1  0
 10 57  1  0
 11 58  1  0
 11 59  1  0
 12 60  1  0
 12 61  1  0
 14 62  1  6
 15 63  1  0
 16 64  1  0
 17 65  1  0
 17 66  1  0
 17 67  1  0
 18 68  1  0
 19 69  1  0
 20 70  1  0
 21 71  1  0
 21 72  1  0
 24 73  1  6
 27 74  1  0
 27 75  1  0
 28 76  1  0
 29 77  1  0
 30 78  1  0
 30 79  1  0
 31 80  1  0
 31 81  1  0
 33 82  1  1
 34 83  1  0
 35 84  1  0
 36 85  1  0
 36 86  1  0
 36 87  1  0
 37 88  1  0
 38 89  1  0
 39 90  1  0
 43 91  1  0
 44 92  1  0
M  END
> <Uni-Dock RESULT> 
ENERGY=   -6.945  LOWER_BOUND=    7.358  UPPER_BOUND=    9.174
INTER + INTRA:          -6.945
INTER:                  -6.945
INTRA:                   0.000
UNBOUND:                 0.000

$$$$

     RDKit          3D

 92 90  0  0  0  0  0  0  0  0999 V2000
   48.4291    4.6679   20.2339 C   0  0  0  0  0  0  0  0  0  0  0  0
   49.6956    6.2546   18.7839 N   0  0  0  0  0  0  0  0  0  0  0  0
   48.4938    5.2443   21.6309 C   0  0  0  0  0  0  0  0  0  0  0  0
   48.3603    5.7381   19.1213 C   0  0  1  0  0  0  0  0  0  0  0  0
   47.3811    5.1738   22.4809 C   0  0  0  0  0  0  0  0  0  0  0  0
   49.6626    5.8571   22.0998 C   0  0  0  0  0  0  0  0  0  0  0  0
   47.7287    5.1537   17.8559 C   0  0  0  0  0  0  0  0  0  0  0  0
   47.4388    5.7038   23.7715 C   0  0  0  0  0  0  0  0  0  0  0  0
   49.7187    6.3887   23.3893 C   0  0  0  0  0  0  0  0  0  0  0  0
   48.6074    6.3121   24.2250 C   0  0  0  0  0  0  0  0  0  0  0  0
   47.6109    5.5104   21.4730 C   0  0  0  0  0  0  0  0  0  0  0  0
   49.5288    5.5148   23.0703 N   0  0  0  0  0  0  0  0  0  0  0  0
   48.2189    5.2284   20.1172 C   0  0  0  0  0  0  0  0  0  0  0  0
   48.5192    6.3486   22.4004 C   0  0  2  0  0  0  0  0  0  0  0  0
   49.2497    4.2902   19.9755 C   0  0  0  0  0  0  0  0  0  0  0  0
   47.7605    5.9068   18.9790 C   0  0  0  0  0  0  0  0  0  0  0  0
   47.6845    7.0564   23.4698 C   0  0  0  0  0  0  0  0  0  0  0  0
   48.3204    5.6482   17.7262 C   0  0  0  0  0  0  0  0  0  0  0  0
   49.8100    4.0345   18.7229 C   0  0  0  0  0  0  0  0  0  0  0  0
   49.3445    4.7123   17.5981 C   0  0  0  0  0  0  0  0  0  0  0  0
   47.8791    5.3674   19.9691 C   0  0  0  0  0  0  0  0  0  0  0  0
   49.5123    5.2550   21.8795 C   0  0  0  0  0  0  0  0  0  0  0  0
   48.7186    6.2156   19.0557 C   0  0  0  0  0  0  0  0  0  0  0  0
   48.1311    5.7489   21.4256 C   0  0  2  0  0  0  0  0  0  0  0  0
   50.4360    4.8820   21.1750 O   0  0  0  0  0  0  0  0  0  0  0  0
   49.2280    7.2924   19.3178 O   0  0  0  0  0  0  0  0  0  0  0  0
   47.0834    5.1406   22.2854 N   0  0  0  0  0  0  0  0  0  0  0  0
   49.6575    5.2968   23.2262 O   0  0  0  0  0  0  0  0  0  0  0  0
   48.8259    5.6848   17.8224 O   0  0  0  0  0  0  0  0  0  0  0  0
   48.3826    6.5773   21.3936 C   0  0  0  0  0  0  0  0  0  0  0  0
   50.1355    5.3072   22.6398 N   0  0  0  0  0  0  0  0  0  0  0  0
   48.3026    5.9090   20.0387 C   0  0  0  0  0  0  0  0  0  0  0  0
   48.6991    5.6062   22.5538 C   0  0  1  0  0  0  0  0  0  0  0  0
   49.4629    5.4755   19.3838 C   0  0  0  0  0  0  0  0  0  0  0  0
   47.0619    5.7148   19.4147 C   0  0  0  0  0  0  0  0  0  0  0  0
   48.2464    6.2051   23.8878 C   0  0  0  0  0  0  0  0  0  0  0  0
   49.3857    4.8624   18.1319 C   0  0  0  0  0  0  0  0  0  0  0  0
   46.9860    5.1032   18.1615 C   0  0  0  0  0  0  0  0  0  0  0  0
   48.1478    4.6777   17.5204 C   0  0  0  0  0  0  0  0  0  0  0  0
   48.8088    5.2962   20.8857 S   0  0  0  0  0  0  0  0  0  0  0  0
   50.0389    5.6441   21.5507 O   0  0  0  0  0  0  0  0  0  0  0  0
   48.4845    3.9629   20.4458 O   0  0  0  0  0  0  0  0  0  0  0  0
   48.6287    6.2543   19.6115 O   0  0  0  0  0  0  0  0  0  0  0  0
   47.6243    5.8128   21.8364 O   0  0  0  0  0  0  0  0  0  0  0  0
   47.5446    4.0198   20.1694 H   0  0  0  0  0  0  0  0  0  0  0  0
   49.2865    3.9987   20.0818 H   0  0  0  0  0  0  0  0  0  0  0  0
   50.2537    5.5155   18.3595 H   0  0  0  0  0  0  0  0  0  0  0  0
   49.6074    6.9836   18.0772 H   0  0  0  0  0  0  0  0  0  0  0  0
   47.7410    6.5790   19.4560 H   0  0  0  0  0  0  0  0  0  0  0  0
   46.4601    4.7032   22.1453 H   0  0  0  0  0  0  0  0  0  0  0  0
   50.5362    5.9325   21.4547 H   0  0  0  0  0  0  0  0  0  0  0  0
   47.6773    5.9028   17.0581 H   0  0  0  0  0  0  0  0  0  0  0  0
   48.2978    4.2962   17.4811 H   0  0  0  0  0  0  0  0  0  0  0  0
   46.7063    4.8167   18.0561 H   0  0  0  0  0  0  0  0  0  0  0  0
   46.5715    5.6423   24.4229 H   0  0  0  0  0  0  0  0  0  0  0  0
   50.6305    6.8663   23.7378 H   0  0  0  0  0  0  0  0  0  0  0  0
   48.6513    6.7276   25.2277 H   0  0  0  0  0  0  0  0  0  0  0  0
   47.3375    4.5588   21.9483 H   0  0  0  0  0  0  0  0  0  0  0  0
   46.6599    6.0380   21.3195 H   0  0  0  0  0  0  0  0  0  0  0  0
   50.1208    6.1040   23.6544 H   0  0  0  0  0  0  0  0  0  0  0  0
   49.0708    4.8583   23.7007 H   0  0  0  0  0  0  0  0  0  0  0  0
   49.0421    7.1118   21.8117 H   0  0  0  0  0  0  0  0  0  0  0  0
   49.6287    3.7593   20.8461 H   0  0  0  0  0  0  0  0  0  0  0  0
   46.9641    6.6422   19.0592 H   0  0  0  0  0  0  0  0  0  0  0  0
   46.9583    7.7334   23.0069 H   0  0  0  0  0  0  0  0  0  0  0  0
   48.3187    7.6581   24.1304 H   0  0  0  0  0  0  0  0  0  0  0  0
   47.1311    6.3410   24.0879 H   0  0  0  0  0  0  0  0  0  0  0  0
   47.9592    6.1800   16.8509 H   0  0  0  0  0  0  0  0  0  0  0  0
   50.6135    3.3093   18.6283 H   0  0  0  0  0  0  0  0  0  0  0  0
   49.7825    4.5139   16.6239 H   0  0  0  0  0  0  0  0  0  0  0  0
   46.8310    5.5387   19.6957 H   0  0  0  0  0  0  0  0  0  0  0  0
   48.1199    4.3114   19.7977 H   0  0  0  0  0  0  0  0  0  0  0  0
   48.1130    6.8360   21.5667 H   0  0  0  0  0  0  0  0  0  0  0  0
   46.2174    5.6665   22.1783 H   0  0  0  0  0  0  0  0  0  0  0  0
   47.3753    5.2713   23.2589 H   0  0  0  0  0  0  0  0  0  0  0  0
   50.5663    4.9579   23.3673 H   0  0  0  0  0  0  0  0  0  0  0  0
   49.3984    6.3147   17.3358 H   0  0  0  0  0  0  0  0  0  0  0  0
   47.4227    7.0742   21.5889 H   0  0  0  0  0  0  0  0  0  0  0  0
   49.1213    7.3890   21.3502 H   0  0  0  0  0  0  0  0  0  0  0  0
   50.3019    4.6609   23.4104 H   0  0  0  0  0  0  0  0  0  0  0  0
   50.6531    6.1563   22.8634 H   0  0  0  0  0  0  0  0  0  0  0  0
   48.1609    4.6630   22.4003 H   0  0  0  0  0  0  0  0  0  0  0  0
   50.4358    5.6073   19.8523 H   0  0  0  0  0  0  0  0  0  0  0  0
   46.1444    6.0388   19.8994 H   0  0  0  0  0  0  0  0  0  0  0  0
   48.7433    7.1608   24.0893 H   0  0  0  0  0  0  0  0  0  0  0  0
   48.4653    5.5263   24.7191 H   0  0  0  0  0  0  0  0  0  0  0  0
   47.1657    6.3816   23.8846 H   0  0  0  0  0  0  0  0  0  0  0  0
   50.2935    4.5270   17.6377 H   0  0  0  0  0  0  0  0  0  0  0  0
   46.0200    4.9600   17.6852 H   0  0  0  0  0  0  0  0  0  0  0  0
   48.0888    4.2017   16.5453 H   0  0  0  0  0  0  0  0  0  0  0  0
   47.9339    5.8587   19.0464 H   0  0  0  0  0  0  0  0  0  0  0  0
   48.0217    6.4498   22.4674 H   0  0  0  0  0  0  0  0  0  0  0  0
  4  2  1  0
  3  1  1  0
  4  1  1  0
  5  3  2  0
  6  3  1  0
  4  7  1  0
  8  5  1  0
  9  6  2  0
 10  8  2  0
  9 10  1  0
 12 14  1  0
 13 11  1  0
 14 11  1  0
 15 13  2  0
 16 13  1  0
 17 14  1  0
 18 16  2  0
 19 15  1  0
 20 18  1  0
 19 20  2  0
 22 24  1  0
 23 21  1  0
 24 21  1  0
 25 22  2  0
 26 23  2  0
 27 24  1  0
 28 22  1  0
 29 23  1  0
 33 31  1  0
 32 30  1  0
 33 30  1  0
 34 32  2  0
 35 32  1  0
 33 36  1  0
 37 34  1  0
 38 35  2  0
 39 37  2  0
 38 39  1  0
 41 40  2  0
 42 40  2  0
 43 40  1  0
 44 40  1  0
  1 45  1  0
  1 46  1  0
  2 47  1  0
  2 48  1  0
  4 49  1  6
  5 50  1  0
  6 51  1  0
  7 52  1  0
  7 53  1  0
  7 54  1  0
  8 55  1  0
  9 56  1  0
 10 57  1  0
 11 58  1  0
 11 59  1  0
 12 60  1  0
 12 61  1  0
 14 62  1  6
 15 63  1  0
 16 64  1  0
 17 65  1  0
 17 66  1  0
 17 67  1  0
 18 68  1  0
 19 69  1  0
 20 70  1  0
 21 71  1  0
 21 72  1  0
 24 73  1  6
 27 74  1  0
 27 75  1  0
 28 76  1  0
 29 77  1  0
 30 78  1  0
 30 79  1  0
 31 80  1  0
 31 81  1  0
 33 82  1  1
 34 83  1  0
 35 84  1  0
 36 85  1  0
 36 86  1  0
 36 87  1  0
 37 88  1  0
 38 89  1  0
 39 90  1  0
 43 91  1  0
 44 92  1  0
M  END
> <Uni-Dock RESULT> 
ENERGY=   -6.875  LOWER_BOUND=    8.413  UPPER_BOUND=    9.844
INTER + INTRA:          -6.875
INTER:                  -6.875
INTRA:                   0.000
UNBOUND:                 0.000

$$$$

     RDKit          3D

 92 90  0  0  0  0  0  0  0  0999 V2000
   40.3030   11.1495   10.3195 C   0  0  0  0  0  0  0  0  0  0  0  0
   39.2778   12.3010   12.2810 N   0  0  0  0  0  0  0  0  0  0  0  0
   41.7981   11.2083   10.5417 C   0  0  0  0  0  0  0  0  0  0  0  0
   39.4852   11.0022   11.6223 C   0  0  1  0  0  0  0  0  0  0  0  0
   42.6103   10.1168   10.2031 C   0  0  0  0  0  0  0  0  0  0  0  0
   42.3969   12.3504   11.0881 C   0  0  0  0  0  0  0  0  0  0  0  0
   38.1184   10.3803   11.3279 C   0  0  0  0  0  0  0  0  0  0  0  0
   43.9908   10.1693   10.4058 C   0  0  0  0  0  0  0  0  0  0  0  0
   43.7769   12.4010   11.2926 C   0  0  0  0  0  0  0  0  0  0  0  0
   44.5737   11.3111   10.9516 C   0  0  0  0  0  0  0  0  0  0  0  0
   41.7138   10.3095   10.7871 C   0  0  0  0  0  0  0  0  0  0  0  0
   43.2554   12.2532   10.5131 N   0  0  0  0  0  0  0  0  0  0  0  0
   40.3274   10.9070   10.8785 C   0  0  0  0  0  0  0  0  0  0  0  0
   42.8134   11.1876   11.4254 C   0  0  2  0  0  0  0  0  0  0  0  0
   39.9566   11.9846   10.0636 C   0  0  0  0  0  0  0  0  0  0  0  0
   39.3910   10.3915   11.7859 C   0  0  0  0  0  0  0  0  0  0  0  0
   44.0268   10.3353   11.8030 C   0  0  0  0  0  0  0  0  0  0  0  0
   38.1104   10.9417   11.8720 C   0  0  0  0  0  0  0  0  0  0  0  0
   38.6771   12.5349   10.1526 C   0  0  0  0  0  0  0  0  0  0  0  0
   37.7535   12.0127   11.0556 C   0  0  0  0  0  0  0  0  0  0  0  0
   40.2192   10.5575   11.0297 C   0  0  0  0  0  0  0  0  0  0  0  0
   42.0373   12.2291   10.5500 C   0  0  0  0  0  0  0  0  0  0  0  0
   39.5363   11.3326   12.1212 C   0  0  0  0  0  0  0  0  0  0  0  0
   41.7236   10.8150   11.0594 C   0  0  2  0  0  0  0  0  0  0  0  0
   41.2590   13.1587   10.4131 O   0  0  0  0  0  0  0  0  0  0  0  0
   40.0506   11.7874   13.1293 O   0  0  0  0  0  0  0  0  0  0  0  0
   42.4139    9.8178   10.2014 N   0  0  0  0  0  0  0  0  0  0  0  0
   43.3528   12.3964   10.2715 O   0  0  0  0  0  0  0  0  0  0  0  0
   38.2104   11.4461   11.9131 O   0  0  0  0  0  0  0  0  0  0  0  0
   41.8933   11.0203   11.8838 C   0  0  0  0  0  0  0  0  0  0  0  0
   42.7845   12.8624   10.4515 N   0  0  0  0  0  0  0  0  0  0  0  0
   40.4168   10.9521   11.5614 C   0  0  0  0  0  0  0  0  0  0  0  0
   42.7804   11.4104   10.6796 C   0  0  1  0  0  0  0  0  0  0  0  0
   39.6707   12.1220   11.3674 C   0  0  0  0  0  0  0  0  0  0  0  0
   39.7698    9.7126   11.4540 C   0  0  0  0  0  0  0  0  0  0  0  0
   44.2222   10.9503   10.9093 C   0  0  0  0  0  0  0  0  0  0  0  0
   38.3076   12.0555   11.0736 C   0  0  0  0  0  0  0  0  0  0  0  0
   38.4057    9.6471   11.1620 C   0  0  0  0  0  0  0  0  0  0  0  0
   37.6750   10.8185   10.9725 C   0  0  0  0  0  0  0  0  0  0  0  0
   41.0866   11.5063   10.7912 S   0  0  0  0  0  0  0  0  0  0  0  0
   41.8108   12.7276   11.0369 O   0  0  0  0  0  0  0  0  0  0  0  0
   40.3364   11.2471    9.5885 O   0  0  0  0  0  0  0  0  0  0  0  0
   40.0852   11.2510   12.0183 O   0  0  0  0  0  0  0  0  0  0  0  0
   42.1399   10.3130   10.9924 O   0  0  0  0  0  0  0  0  0  0  0  0
   40.0865   10.3006    9.6569 H   0  0  0  0  0  0  0  0  0  0  0  0
   39.9886   12.0391    9.7576 H   0  0  0  0  0  0  0  0  0  0  0  0
   38.6835   12.8906   11.7004 H   0  0  0  0  0  0  0  0  0  0  0  0
   38.7706   12.1602   13.1536 H   0  0  0  0  0  0  0  0  0  0  0  0
   40.0175   10.3442   12.3197 H   0  0  0  0  0  0  0  0  0  0  0  0
   42.1742    9.2168    9.7763 H   0  0  0  0  0  0  0  0  0  0  0  0
   41.7858   13.2066   11.3680 H   0  0  0  0  0  0  0  0  0  0  0  0
   37.5274   10.2735   12.2441 H   0  0  0  0  0  0  0  0  0  0  0  0
   37.5433   10.9883   10.6213 H   0  0  0  0  0  0  0  0  0  0  0  0
   38.2350    9.3816   10.8942 H   0  0  0  0  0  0  0  0  0  0  0  0
   44.6115    9.3186   10.1382 H   0  0  0  0  0  0  0  0  0  0  0  0
   44.2271   13.2917   11.7226 H   0  0  0  0  0  0  0  0  0  0  0  0
   45.6472   11.3506   11.1127 H   0  0  0  0  0  0  0  0  0  0  0  0
   41.9440   10.0971    9.7346 H   0  0  0  0  0  0  0  0  0  0  0  0
   41.6978    9.3285   11.2809 H   0  0  0  0  0  0  0  0  0  0  0  0
   43.9628   12.8229   10.9755 H   0  0  0  0  0  0  0  0  0  0  0  0
   43.7088   11.8433    9.6979 H   0  0  0  0  0  0  0  0  0  0  0  0
   42.4262   11.6573   12.3375 H   0  0  0  0  0  0  0  0  0  0  0  0
   40.6700   12.4078    9.3596 H   0  0  0  0  0  0  0  0  0  0  0  0
   39.6516    9.5578   12.4328 H   0  0  0  0  0  0  0  0  0  0  0  0
   43.7462    9.5650   12.5295 H   0  0  0  0  0  0  0  0  0  0  0  0
   44.8113   10.9478   12.2614 H   0  0  0  0  0  0  0  0  0  0  0  0
   44.4544    9.8331   10.9283 H   0  0  0  0  0  0  0  0  0  0  0  0
   37.3927   10.5360   12.5791 H   0  0  0  0  0  0  0  0  0  0  0  0
   38.4050   13.3749    9.5194 H   0  0  0  0  0  0  0  0  0  0  0  0
   36.7583   12.4429   11.1255 H   0  0  0  0  0  0  0  0  0  0  0  0
   40.0005    9.4968   11.2019 H   0  0  0  0  0  0  0  0  0  0  0  0
   39.7945   10.8523   10.0626 H   0  0  0  0  0  0  0  0  0  0  0  0
   42.1255   10.7402   12.0768 H   0  0  0  0  0  0  0  0  0  0  0  0
   42.4421    8.9227   10.6871 H   0  0  0  0  0  0  0  0  0  0  0  0
   43.3885   10.1200   10.1080 H   0  0  0  0  0  0  0  0  0  0  0  0
   43.4030   13.3248    9.9610 H   0  0  0  0  0  0  0  0  0  0  0  0
   37.8894   11.9744   12.6741 H   0  0  0  0  0  0  0  0  0  0  0  0
   42.2082   10.0385   12.2624 H   0  0  0  0  0  0  0  0  0  0  0  0
   42.0458   11.7128   12.7226 H   0  0  0  0  0  0  0  0  0  0  0  0
   43.3736   13.0778    9.6478 H   0  0  0  0  0  0  0  0  0  0  0  0
   43.2060   13.3369   11.2490 H   0  0  0  0  0  0  0  0  0  0  0  0
   42.4041   10.9217    9.7728 H   0  0  0  0  0  0  0  0  0  0  0  0
   40.1529   13.0948   11.4368 H   0  0  0  0  0  0  0  0  0  0  0  0
   40.3230    8.7878   11.5973 H   0  0  0  0  0  0  0  0  0  0  0  0
   44.6483   11.3981   11.8142 H   0  0  0  0  0  0  0  0  0  0  0  0
   44.8620   11.2211   10.0625 H   0  0  0  0  0  0  0  0  0  0  0  0
   44.2670    9.8617   11.0190 H   0  0  0  0  0  0  0  0  0  0  0  0
   37.7425   12.9709   10.9210 H   0  0  0  0  0  0  0  0  0  0  0  0
   37.9132    8.6818   11.0839 H   0  0  0  0  0  0  0  0  0  0  0  0
   36.6136   10.7676   10.7452 H   0  0  0  0  0  0  0  0  0  0  0  0
   39.4438   10.5686   11.7328 H   0  0  0  0  0  0  0  0  0  0  0  0
   42.9053   10.6867   11.4786 H   0  0  0  0  0  0  0  0  0  0  0  0
  4  2  1  0
  3  1  1  0
  4  1  1  0
  5  3  2  0
  6  3  1  0
  4  7  1  0
  8  5  1  0
  9  6  2  0
 10  8  2  0
  9 10  1  0
 12 14  1  0
 13 11  1  0
 14 11  1  0
 15 13  2  0
 16 13  1  0
 17 14  1  0
 18 16  2  0
 19 15  1  0
 20 18  1  0
 19 20  2  0
 22 24  1  0
 23 21  1  0
 24 21  1  0
 25 22  2  0
 26 23  2  0
 27 24  1  0
 28 22  1  0
 29 23  1  0
 33 31  1  0
 32 30  1  0
 33 30  1  0
 34 32  2  0
 35 32  1  0
 33 36  1  0
 37 34  1  0
 38 35  2  0
 39 37  2  0
 38 39  1  0
 41 40  2  0
 42 40  2  0
 43 40  1  0
 44 40  1  0
  1 45  1  0
  1 46  1  0
  2 47  1  0
  2 48  1  0
  4 49  1  6
  5 50  1  0
  6 51  1  0
  7 52  1  0
  7 53  1  0
  7 54  1  0
  8 55  1  0
  9 56  1  0
 10 57  1  0
 11 58  1  0
 11 59  1  0
 12 60  1  0
 12 61  1  0
 14 62  1  6
 15 63  1  0
 16 64  1  0
 17 65  1  0
 17 66  1  0
 17 67  1  0
 18 68  1  0
 19 69  1  0
 20 70  1  0
 21 71  1  0
 21 72  1  0
 24 73  1  6
 27 74  1  0
 27 75  1  0
 28 76  1  0
 29 77  1  0
 30 78  1  0
 30 79  1  0
 31 80  1  0
 31 81  1  0
 33 82  1  1
 34 83  1  0
 35 84  1  0
 36 85  1  0
 36 86  1  0
 36 87  1  0
 37 88  1  0
 38 89  1  0
 39 90  1  0
 43 91  1  0
 44 92  1  0
M  END
> <Uni-Dock RESULT> 
ENERGY=   -6.875  LOWER_BOUND=    5.365  UPPER_BOUND=    6.995
INTER + INTRA:          -6.875
INTER:                  -6.875
INTRA:                   0.000
UNBOUND:                 0.000

$$$$
