
     RDKit          3D

 92 90  0  0  0  0  0  0  0  0999 V2000
   45.8228    7.1432   11.4626 C   0  0  0  0  0  0  0  0  0  0  0  0
   47.9531    8.3687   11.7680 N   0  0  0  0  0  0  0  0  0  0  0  0
   45.0433    5.8719   11.7041 C   0  0  0  0  0  0  0  0  0  0  0  0
   47.1833    7.1898   12.1913 C   0  0  1  0  0  0  0  0  0  0  0  0
   45.4559    4.6640   11.1245 C   0  0  0  0  0  0  0  0  0  0  0  0
   43.8992    5.8804   12.5132 C   0  0  0  0  0  0  0  0  0  0  0  0
   47.0267    7.2426   13.7115 C   0  0  0  0  0  0  0  0  0  0  0  0
   44.7394    3.4881   11.3527 C   0  0  0  0  0  0  0  0  0  0  0  0
   43.1840    4.7032   12.7401 C   0  0  0  0  0  0  0  0  0  0  0  0
   43.6042    3.5079   12.1604 C   0  0  0  0  0  0  0  0  0  0  0  0
   45.5846    7.0854   13.0348 C   0  0  0  0  0  0  0  0  0  0  0  0
   47.7645    8.0290   13.6817 N   0  0  0  0  0  0  0  0  0  0  0  0
   44.8285    5.9408   12.4001 C   0  0  0  0  0  0  0  0  0  0  0  0
   47.1166    6.9760   12.8853 C   0  0  2  0  0  0  0  0  0  0  0  0
   44.1161    6.1295   11.2080 C   0  0  0  0  0  0  0  0  0  0  0  0
   44.8345    4.6711   12.9938 C   0  0  0  0  0  0  0  0  0  0  0  0
   47.5713    7.0988   11.4296 C   0  0  0  0  0  0  0  0  0  0  0  0
   44.1445    3.6107   12.4045 C   0  0  0  0  0  0  0  0  0  0  0  0
   43.4269    5.0676   10.6200 C   0  0  0  0  0  0  0  0  0  0  0  0
   43.4418    3.8088   11.2176 C   0  0  0  0  0  0  0  0  0  0  0  0
   46.5901    6.4037   12.0679 C   0  0  0  0  0  0  0  0  0  0  0  0
   44.5012    4.9599   12.3501 C   0  0  0  0  0  0  0  0  0  0  0  0
   46.3003    7.4891   13.0667 C   0  0  0  0  0  0  0  0  0  0  0  0
   45.2969    5.8999   11.4299 C   0  0  2  0  0  0  0  0  0  0  0  0
   43.6530    4.1595   11.9778 O   0  0  0  0  0  0  0  0  0  0  0  0
   45.2979    8.1805   13.1325 O   0  0  0  0  0  0  0  0  0  0  0  0
   45.6318    5.1612   10.1847 N   0  0  0  0  0  0  0  0  0  0  0  0
   44.7599    5.0938   13.6635 O   0  0  0  0  0  0  0  0  0  0  0  0
   47.3305    7.6932   13.9110 O   0  0  0  0  0  0  0  0  0  0  0  0
   44.9085    5.5217   13.1725 C   0  0  0  0  0  0  0  0  0  0  0  0
   43.6642    3.4843   12.5136 N   0  0  0  0  0  0  0  0  0  0  0  0
   45.9831    6.5228   12.8182 C   0  0  0  0  0  0  0  0  0  0  0  0
   44.5755    4.5337   12.0338 C   0  0  1  0  0  0  0  0  0  0  0  0
   47.3209    6.1196   12.7057 C   0  0  0  0  0  0  0  0  0  0  0  0
   45.6584    7.8675   12.5939 C   0  0  0  0  0  0  0  0  0  0  0  0
   43.9196    5.2254   10.8382 C   0  0  0  0  0  0  0  0  0  0  0  0
   48.3131    7.0430   12.3727 C   0  0  0  0  0  0  0  0  0  0  0  0
   46.6522    8.7894   12.2609 C   0  0  0  0  0  0  0  0  0  0  0  0
   47.9786    8.3772   12.1500 C   0  0  0  0  0  0  0  0  0  0  0  0
   45.5050    6.0385   12.6031 S   0  0  0  0  0  0  0  0  0  0  0  0
   45.8752    4.8121   13.2622 O   0  0  0  0  0  0  0  0  0  0  0  0
   44.7379    7.0858   13.2276 O   0  0  0  0  0  0  0  0  0  0  0  0
   46.8366    6.7289   12.0342 O   0  0  0  0  0  0  0  0  0  0  0  0
   44.7698    5.6167   11.2410 O   0  0  0  0  0  0  0  0  0  0  0  0
   45.9782    7.2356   10.3787 H   0  0  0  0  0  0  0  0  0  0  0  0
   45.2148    8.0124   11.7474 H   0  0  0  0  0  0  0  0  0  0  0  0
   47.4365    9.2181   11.9942 H   0  0  0  0  0  0  0  0  0  0  0  0
   48.0609    8.3622   10.7544 H   0  0  0  0  0  0  0  0  0  0  0  0
   47.7730    6.3018   11.9355 H   0  0  0  0  0  0  0  0  0  0  0  0
   46.3391    4.6315   10.4904 H   0  0  0  0  0  0  0  0  0  0  0  0
   43.5580    6.8036   12.9760 H   0  0  0  0  0  0  0  0  0  0  0  0
   46.4207    8.1004   14.0243 H   0  0  0  0  0  0  0  0  0  0  0  0
   48.0032    7.3229   14.2028 H   0  0  0  0  0  0  0  0  0  0  0  0
   46.5492    6.3338   14.0916 H   0  0  0  0  0  0  0  0  0  0  0  0
   45.0676    2.5561   10.9001 H   0  0  0  0  0  0  0  0  0  0  0  0
   42.2988    4.7191   13.3705 H   0  0  0  0  0  0  0  0  0  0  0  0
   43.0473    2.5918   12.3381 H   0  0  0  0  0  0  0  0  0  0  0  0
   45.2324    8.0388   12.6183 H   0  0  0  0  0  0  0  0  0  0  0  0
   45.3157    7.1122   14.1000 H   0  0  0  0  0  0  0  0  0  0  0  0
   47.5133    8.9445   13.3092 H   0  0  0  0  0  0  0  0  0  0  0  0
   48.7766    7.9549   13.5807 H   0  0  0  0  0  0  0  0  0  0  0  0
   47.4560    6.0099   13.2769 H   0  0  0  0  0  0  0  0  0  0  0  0
   44.0946    7.1052   10.7280 H   0  0  0  0  0  0  0  0  0  0  0  0
   45.3756    4.5028   13.9226 H   0  0  0  0  0  0  0  0  0  0  0  0
   47.1842    6.2736   10.8235 H   0  0  0  0  0  0  0  0  0  0  0  0
   48.6642    7.0663   11.3564 H   0  0  0  0  0  0  0  0  0  0  0  0
   47.2312    8.0385   10.9803 H   0  0  0  0  0  0  0  0  0  0  0  0
   44.1539    2.6303   12.8734 H   0  0  0  0  0  0  0  0  0  0  0  0
   42.8774    5.2231    9.6953 H   0  0  0  0  0  0  0  0  0  0  0  0
   42.9038    2.9830   10.7599 H   0  0  0  0  0  0  0  0  0  0  0  0
   47.1234    5.5859   12.5670 H   0  0  0  0  0  0  0  0  0  0  0  0
   47.2529    6.8423   11.3121 H   0  0  0  0  0  0  0  0  0  0  0  0
   44.6272    6.7282   11.1704 H   0  0  0  0  0  0  0  0  0  0  0  0
   44.7860    4.6772    9.8684 H   0  0  0  0  0  0  0  0  0  0  0  0
   45.8654    5.8285    9.4506 H   0  0  0  0  0  0  0  0  0  0  0  0
   44.1572    4.4453   14.0858 H   0  0  0  0  0  0  0  0  0  0  0  0
   47.0239    8.4164   14.4970 H   0  0  0  0  0  0  0  0  0  0  0  0
   45.2518    4.9679   14.0573 H   0  0  0  0  0  0  0  0  0  0  0  0
   43.9989    6.0488   13.4904 H   0  0  0  0  0  0  0  0  0  0  0  0
   44.0751    3.0161   13.3205 H   0  0  0  0  0  0  0  0  0  0  0  0
   42.7947    3.9045   12.8404 H   0  0  0  0  0  0  0  0  0  0  0  0
   45.4920    4.0416   11.6879 H   0  0  0  0  0  0  0  0  0  0  0  0
   47.5991    5.0821   12.8775 H   0  0  0  0  0  0  0  0  0  0  0  0
   44.6281    8.2066   12.6735 H   0  0  0  0  0  0  0  0  0  0  0  0
   44.5991    5.9509   10.3792 H   0  0  0  0  0  0  0  0  0  0  0  0
   43.0060    5.7552   11.1309 H   0  0  0  0  0  0  0  0  0  0  0  0
   43.6535    4.4978   10.0630 H   0  0  0  0  0  0  0  0  0  0  0  0
   49.3475    6.7208   12.2869 H   0  0  0  0  0  0  0  0  0  0  0  0
   46.3910    9.8300   12.0872 H   0  0  0  0  0  0  0  0  0  0  0  0
   48.7516    9.0955   11.8901 H   0  0  0  0  0  0  0  0  0  0  0  0
   46.6183    7.6647   11.8439 H   0  0  0  0  0  0  0  0  0  0  0  0
   45.1187    4.7378   10.9848 H   0  0  0  0  0  0  0  0  0  0  0  0
  4  2  1  0
  3  1  1  0
  4  1  1  0
  5  3  2  0
  6  3  1  0
  4  7  1  0
  8  5  1  0
  9  6  2  0
 10  8  2  0
  9 10  1  0
 12 14  1  0
 13 11  1  0
 14 11  1  0
 15 13  2  0
 16 13  1  0
 17 14  1  0
 18 16  2  0
 19 15  1  0
 20 18  1  0
 19 20  2  0
 22 24  1  0
 23 21  1  0
 24 21  1  0
 25 22  2  0
 26 23  2  0
 27 24  1  0
 28 22  1  0
 29 23  1  0
 33 31  1  0
 32 30  1  0
 33 30  1  0
 34 32  2  0
 35 32  1  0
 33 36  1  0
 37 34  1  0
 38 35  2  0
 39 37  2  0
 38 39  1  0
 41 40  2  0
 42 40  2  0
 43 40  1  0
 44 40  1  0
  1 45  1  0
  1 46  1  0
  2 47  1  0
  2 48  1  0
  4 49  1  1
  5 50  1  0
  6 51  1  0
  7 52  1  0
  7 53  1  0
  7 54  1  0
  8 55  1  0
  9 56  1  0
 10 57  1  0
 11 58  1  0
 11 59  1  0
 12 60  1  0
 12 61  1  0
 14 62  1  1
 15 63  1  0
 16 64  1  0
 17 65  1  0
 17 66  1  0
 17 67  1  0
 18 68  1  0
 19 69  1  0
 20 70  1  0
 21 71  1  0
 21 72  1  0
 24 73  1  6
 27 74  1  0
 27 75  1  0
 28 76  1  0
 29 77  1  0
 30 78  1  0
 30 79  1  0
 31 80  1  0
 31 81  1  0
 33 82  1  1
 34 83  1  0
 35 84  1  0
 36 85  1  0
 36 86  1  0
 36 87  1  0
 37 88  1  0
 38 89  1  0
 39 90  1  0
 43 91  1  0
 44 92  1  0
M  END
> <Uni-Dock RESULT> 
ENERGY=   -8.247  LOWER_BOUND=    0.000  UPPER_BOUND=    0.000
INTER + INTRA:          -8.247
INTER:                  -8.247
INTRA:                   0.000
UNBOUND:                 0.000

$$$$

     RDKit          3D

 92 90  0  0  0  0  0  0  0  0999 V2000
   45.7591    3.3590   10.1401 C   0  0  0  0  0  0  0  0  0  0  0  0
   46.4765    3.1614    7.7781 N   0  0  0  0  0  0  0  0  0  0  0  0
   44.8872    4.0720   11.1471 C   0  0  0  0  0  0  0  0  0  0  0  0
   45.4768    3.7585    8.6756 C   0  0  1  0  0  0  0  0  0  0  0  0
   45.0862    5.4318   11.4233 C   0  0  0  0  0  0  0  0  0  0  0  0
   43.8652    3.3860   11.8169 C   0  0  0  0  0  0  0  0  0  0  0  0
   44.0902    3.3139    8.2090 C   0  0  0  0  0  0  0  0  0  0  0  0
   44.2767    6.0922   12.3489 C   0  0  0  0  0  0  0  0  0  0  0  0
   43.0567    4.0482   12.7423 C   0  0  0  0  0  0  0  0  0  0  0  0
   43.2622    5.4005   13.0078 C   0  0  0  0  0  0  0  0  0  0  0  0
   44.2651    2.9636    9.7611 C   0  0  0  0  0  0  0  0  0  0  0  0
   44.5889    2.9594    7.3206 N   0  0  0  0  0  0  0  0  0  0  0  0
   44.2309    3.7664   11.0413 C   0  0  0  0  0  0  0  0  0  0  0  0
   44.7606    3.7650    8.5389 C   0  0  2  0  0  0  0  0  0  0  0  0
   45.1819    3.5473   12.0472 C   0  0  0  0  0  0  0  0  0  0  0  0
   43.2486    4.7469   11.2375 C   0  0  0  0  0  0  0  0  0  0  0  0
   46.2295    4.1737    8.6653 C   0  0  0  0  0  0  0  0  0  0  0  0
   43.2208    5.4956   12.4150 C   0  0  0  0  0  0  0  0  0  0  0  0
   45.1525    4.2974   13.2241 C   0  0  0  0  0  0  0  0  0  0  0  0
   44.1729    5.2714   13.4074 C   0  0  0  0  0  0  0  0  0  0  0  0
   45.1535    4.2096    9.4985 C   0  0  0  0  0  0  0  0  0  0  0  0
   43.8419    4.4883   11.6733 C   0  0  0  0  0  0  0  0  0  0  0  0
   44.5668    2.9196    8.9973 C   0  0  0  0  0  0  0  0  0  0  0  0
   45.2095    4.2185   11.0250 C   0  0  2  0  0  0  0  0  0  0  0  0
   43.6703    4.8937   12.8156 O   0  0  0  0  0  0  0  0  0  0  0  0
   44.4915    1.8619    9.5998 O   0  0  0  0  0  0  0  0  0  0  0  0
   46.1523    5.2797   11.4647 N   0  0  0  0  0  0  0  0  0  0  0  0
   42.7781    4.2004   10.9017 O   0  0  0  0  0  0  0  0  0  0  0  0
   44.1505    3.0115    7.7191 O   0  0  0  0  0  0  0  0  0  0  0  0
   43.4096    3.9993   10.8177 C   0  0  0  0  0  0  0  0  0  0  0  0
   42.9525    5.3708   12.8286 N   0  0  0  0  0  0  0  0  0  0  0  0
   44.3638    3.6762    9.6920 C   0  0  0  0  0  0  0  0  0  0  0  0
   43.9938    4.9610   11.8749 C   0  0  1  0  0  0  0  0  0  0  0  0
   44.6710    4.6402    8.7218 C   0  0  0  0  0  0  0  0  0  0  0  0
   44.9579    2.4101    9.6025 C   0  0  0  0  0  0  0  0  0  0  0  0
   45.1414    4.3291   12.6635 C   0  0  0  0  0  0  0  0  0  0  0  0
   45.5569    4.3440    7.6848 C   0  0  0  0  0  0  0  0  0  0  0  0
   45.8438    2.1158    8.5646 C   0  0  0  0  0  0  0  0  0  0  0  0
   46.1433    3.0824    7.6067 C   0  0  0  0  0  0  0  0  0  0  0  0
   44.2601    3.9347   10.3491 S   0  0  0  0  0  0  0  0  0  0  0  0
   43.3295    5.0234   10.1925 O   0  0  0  0  0  0  0  0  0  0  0  0
   43.8711    2.5492   10.4146 O   0  0  0  0  0  0  0  0  0  0  0  0
   45.3636    4.0419    9.1897 O   0  0  0  0  0  0  0  0  0  0  0  0
   45.1408    4.2745   11.6461 O   0  0  0  0  0  0  0  0  0  0  0  0
   46.8053    3.5820   10.3914 H   0  0  0  0  0  0  0  0  0  0  0  0
   45.6534    2.2724   10.2596 H   0  0  0  0  0  0  0  0  0  0  0  0
   46.4402    2.1448    7.8481 H   0  0  0  0  0  0  0  0  0  0  0  0
   47.4121    3.4343    8.0766 H   0  0  0  0  0  0  0  0  0  0  0  0
   45.5450    4.8473    8.5673 H   0  0  0  0  0  0  0  0  0  0  0  0
   45.8745    5.9861   10.9186 H   0  0  0  0  0  0  0  0  0  0  0  0
   43.6886    2.3309   11.6204 H   0  0  0  0  0  0  0  0  0  0  0  0
   43.9558    2.2320    8.3198 H   0  0  0  0  0  0  0  0  0  0  0  0
   43.9327    3.5667    7.1542 H   0  0  0  0  0  0  0  0  0  0  0  0
   43.3015    3.8136    8.7806 H   0  0  0  0  0  0  0  0  0  0  0  0
   44.4376    7.1469   12.5555 H   0  0  0  0  0  0  0  0  0  0  0  0
   42.2654    3.5084   13.2558 H   0  0  0  0  0  0  0  0  0  0  0  0
   42.6320    5.9155   13.7278 H   0  0  0  0  0  0  0  0  0  0  0  0
   44.8856    2.0682    9.9013 H   0  0  0  0  0  0  0  0  0  0  0  0
   43.2484    2.5910    9.5743 H   0  0  0  0  0  0  0  0  0  0  0  0
   45.1828    2.1318    7.3699 H   0  0  0  0  0  0  0  0  0  0  0  0
   44.9175    3.4909    6.5147 H   0  0  0  0  0  0  0  0  0  0  0  0
   44.1546    4.6713    8.4235 H   0  0  0  0  0  0  0  0  0  0  0  0
   45.9536    2.7917   11.9201 H   0  0  0  0  0  0  0  0  0  0  0  0
   42.4964    4.9300   10.4730 H   0  0  0  0  0  0  0  0  0  0  0  0
   46.3794    4.8542    9.5095 H   0  0  0  0  0  0  0  0  0  0  0  0
   46.5691    4.6985    7.7652 H   0  0  0  0  0  0  0  0  0  0  0  0
   46.8777    3.3026    8.8124 H   0  0  0  0  0  0  0  0  0  0  0  0
   42.4541    6.2525   12.5584 H   0  0  0  0  0  0  0  0  0  0  0  0
   45.8943    4.1208   13.9985 H   0  0  0  0  0  0  0  0  0  0  0  0
   44.1500    5.8539   14.3245 H   0  0  0  0  0  0  0  0  0  0  0  0
   44.5543    5.0486    9.1251 H   0  0  0  0  0  0  0  0  0  0  0  0
   46.1607    4.2827    9.0707 H   0  0  0  0  0  0  0  0  0  0  0  0
   45.5618    3.2585   11.4200 H   0  0  0  0  0  0  0  0  0  0  0  0
   46.0435    5.3983   12.4766 H   0  0  0  0  0  0  0  0  0  0  0  0
   47.1092    4.9601   11.3201 H   0  0  0  0  0  0  0  0  0  0  0  0
   42.0114    4.4090   11.4767 H   0  0  0  0  0  0  0  0  0  0  0  0
   43.8013    2.1192    7.5132 H   0  0  0  0  0  0  0  0  0  0  0  0
   42.5084    4.4410   10.3705 H   0  0  0  0  0  0  0  0  0  0  0  0
   43.0739    3.0710   11.2993 H   0  0  0  0  0  0  0  0  0  0  0  0
   42.1692    5.7845   12.3241 H   0  0  0  0  0  0  0  0  0  0  0  0
   42.5814    4.5514   13.3083 H   0  0  0  0  0  0  0  0  0  0  0  0
   44.3688    5.8679   11.3864 H   0  0  0  0  0  0  0  0  0  0  0  0
   44.2209    5.6295    8.7675 H   0  0  0  0  0  0  0  0  0  0  0  0
   44.7379    1.6442   10.3427 H   0  0  0  0  0  0  0  0  0  0  0  0
   45.9885    4.0952   12.0106 H   0  0  0  0  0  0  0  0  0  0  0  0
   44.8283    3.4022   13.1572 H   0  0  0  0  0  0  0  0  0  0  0  0
   45.5093    5.0145   13.4357 H   0  0  0  0  0  0  0  0  0  0  0  0
   45.7896    5.0982    6.9377 H   0  0  0  0  0  0  0  0  0  0  0  0
   46.3010    1.1317    8.5041 H   0  0  0  0  0  0  0  0  0  0  0  0
   46.8336    2.8526    6.7994 H   0  0  0  0  0  0  0  0  0  0  0  0
   45.8098    3.1716    9.1340 H   0  0  0  0  0  0  0  0  0  0  0  0
   45.1498    5.2495   11.7417 H   0  0  0  0  0  0  0  0  0  0  0  0
  4  2  1  0
  3  1  1  0
  4  1  1  0
  5  3  2  0
  6  3  1  0
  4  7  1  0
  8  5  1  0
  9  6  2  0
 10  8  2  0
  9 10  1  0
 12 14  1  0
 13 11  1  0
 14 11  1  0
 15 13  2  0
 16 13  1  0
 17 14  1  0
 18 16  2  0
 19 15  1  0
 20 18  1  0
 19 20  2  0
 22 24  1  0
 23 21  1  0
 24 21  1  0
 25 22  2  0
 26 23  2  0
 27 24  1  0
 28 22  1  0
 29 23  1  0
 33 31  1  0
 32 30  1  0
 33 30  1  0
 34 32  2  0
 35 32  1  0
 33 36  1  0
 37 34  1  0
 38 35  2  0
 39 37  2  0
 38 39  1  0
 41 40  2  0
 42 40  2  0
 43 40  1  0
 44 40  1  0
  1 45  1  0
  1 46  1  0
  2 47  1  0
  2 48  1  0
  4 49  1  1
  5 50  1  0
  6 51  1  0
  7 52  1  0
  7 53  1  0
  7 54  1  0
  8 55  1  0
  9 56  1  0
 10 57  1  0
 11 58  1  0
 11 59  1  0
 12 60  1  0
 12 61  1  0
 14 62  1  1
 15 63  1  0
 16 64  1  0
 17 65  1  0
 17 66  1  0
 17 67  1  0
 18 68  1  0
 19 69  1  0
 20 70  1  0
 21 71  1  0
 21 72  1  0
 24 73  1  6
 27 74  1  0
 27 75  1  0
 28 76  1  0
 29 77  1  0
 30 78  1  0
 30 79  1  0
 31 80  1  0
 31 81  1  0
 33 82  1  1
 34 83  1  0
 35 84  1  0
 36 85  1  0
 36 86  1  0
 36 87  1  0
 37 88  1  0
 38 89  1  0
 39 90  1  0
 43 91  1  0
 44 92  1  0
M  END
> <Uni-Dock RESULT> 
ENERGY=   -8.187  LOWER_BOUND=    2.262  UPPER_BOUND=    4.508
INTER + INTRA:          -8.187
INTER:                  -8.187
INTRA:                   0.000
UNBOUND:                 0.000

$$$$

     RDKit          3D

 92 90  0  0  0  0  0  0  0  0999 V2000
   46.8227    6.2178   11.6209 C   0  0  0  0  0  0  0  0  0  0  0  0
   48.8957    6.8441   12.8225 N   0  0  0  0  0  0  0  0  0  0  0  0
   45.3926    5.7408   11.7194 C   0  0  0  0  0  0  0  0  0  0  0  0
   47.4619    6.5614   12.9838 C   0  0  1  0  0  0  0  0  0  0  0  0
   45.1007    4.4712   12.2370 C   0  0  0  0  0  0  0  0  0  0  0  0
   44.3373    6.5610   11.2983 C   0  0  0  0  0  0  0  0  0  0  0  0
   46.8071    7.7758   13.6430 C   0  0  0  0  0  0  0  0  0  0  0  0
   43.7791    4.0328   12.3339 C   0  0  0  0  0  0  0  0  0  0  0  0
   43.0163    6.1207   11.3961 C   0  0  0  0  0  0  0  0  0  0  0  0
   42.7375    4.8576   11.9139 C   0  0  0  0  0  0  0  0  0  0  0  0
   46.0224    7.4167   12.2948 C   0  0  0  0  0  0  0  0  0  0  0  0
   47.8128    8.1168   13.8328 N   0  0  0  0  0  0  0  0  0  0  0  0
   45.0283    6.3500   11.8967 C   0  0  0  0  0  0  0  0  0  0  0  0
   47.0114    6.9658   13.3903 C   0  0  2  0  0  0  0  0  0  0  0  0
   45.1450    5.6885   10.6667 C   0  0  0  0  0  0  0  0  0  0  0  0
   43.9773    6.0035   12.7570 C   0  0  0  0  0  0  0  0  0  0  0  0
   47.9506    5.8581   12.9088 C   0  0  0  0  0  0  0  0  0  0  0  0
   43.0637    5.0125   12.3953 C   0  0  0  0  0  0  0  0  0  0  0  0
   44.2303    4.6973   10.3069 C   0  0  0  0  0  0  0  0  0  0  0  0
   43.1908    4.3591   11.1711 C   0  0  0  0  0  0  0  0  0  0  0  0
   46.6102    6.0789   12.8199 C   0  0  0  0  0  0  0  0  0  0  0  0
   44.1955    5.7545   12.0505 C   0  0  0  0  0  0  0  0  0  0  0  0
   46.7410    7.5684   12.6648 C   0  0  0  0  0  0  0  0  0  0  0  0
   45.6826    5.5057   11.7501 C   0  0  2  0  0  0  0  0  0  0  0  0
   43.2637    5.1190   11.5746 O   0  0  0  0  0  0  0  0  0  0  0  0
   46.5094    8.2277   11.6654 O   0  0  0  0  0  0  0  0  0  0  0  0
   45.9019    4.0387   11.6604 N   0  0  0  0  0  0  0  0  0  0  0  0
   43.9450    6.7899   12.8720 O   0  0  0  0  0  0  0  0  0  0  0  0
   47.2219    8.1564   13.7778 O   0  0  0  0  0  0  0  0  0  0  0  0
   44.5100    6.6595   12.5404 C   0  0  0  0  0  0  0  0  0  0  0  0
   42.6251    5.1004   12.1534 N   0  0  0  0  0  0  0  0  0  0  0  0
   46.0009    6.8295   12.7156 C   0  0  0  0  0  0  0  0  0  0  0  0
   44.0890    5.2342   12.1221 C   0  0  1  0  0  0  0  0  0  0  0  0
   46.6574    6.2566   13.8137 C   0  0  0  0  0  0  0  0  0  0  0  0
   46.7496    7.5594   11.7824 C   0  0  0  0  0  0  0  0  0  0  0  0
   44.5712    4.8754   10.7160 C   0  0  0  0  0  0  0  0  0  0  0  0
   48.0356    6.4087   13.9729 C   0  0  0  0  0  0  0  0  0  0  0  0
   48.1279    7.7103   11.9435 C   0  0  0  0  0  0  0  0  0  0  0  0
   48.7704    7.1348   13.0379 C   0  0  0  0  0  0  0  0  0  0  0  0
   45.4561    6.4465   12.4589 S   0  0  0  0  0  0  0  0  0  0  0  0
   44.6464    6.1130   13.6029 O   0  0  0  0  0  0  0  0  0  0  0  0
   45.3944    7.7118   11.7728 O   0  0  0  0  0  0  0  0  0  0  0  0
   46.9960    6.2140   12.8440 O   0  0  0  0  0  0  0  0  0  0  0  0
   45.2264    5.2773   11.3848 O   0  0  0  0  0  0  0  0  0  0  0  0
   47.4027    5.4257   11.1272 H   0  0  0  0  0  0  0  0  0  0  0  0
   46.8802    7.0855   10.9501 H   0  0  0  0  0  0  0  0  0  0  0  0
   49.0228    7.6390   12.1967 H   0  0  0  0  0  0  0  0  0  0  0  0
   49.3531    6.0518   12.3730 H   0  0  0  0  0  0  0  0  0  0  0  0
   47.3689    5.7069   13.6643 H   0  0  0  0  0  0  0  0  0  0  0  0
   45.9022    3.8145   12.5682 H   0  0  0  0  0  0  0  0  0  0  0  0
   44.5359    7.5510   10.8941 H   0  0  0  0  0  0  0  0  0  0  0  0
   46.8477    8.6574   12.9933 H   0  0  0  0  0  0  0  0  0  0  0  0
   47.3086    8.0277   14.5845 H   0  0  0  0  0  0  0  0  0  0  0  0
   45.7569    7.5784   13.8809 H   0  0  0  0  0  0  0  0  0  0  0  0
   43.5624    3.0474   12.7379 H   0  0  0  0  0  0  0  0  0  0  0  0
   42.2041    6.7645   11.0686 H   0  0  0  0  0  0  0  0  0  0  0  0
   41.7088    4.5158   11.9903 H   0  0  0  0  0  0  0  0  0  0  0  0
   46.5728    7.7600   11.4084 H   0  0  0  0  0  0  0  0  0  0  0  0
   45.4529    8.2891   12.6440 H   0  0  0  0  0  0  0  0  0  0  0  0
   48.3876    8.4521   13.0600 H   0  0  0  0  0  0  0  0  0  0  0  0
   48.4658    7.8161   14.5561 H   0  0  0  0  0  0  0  0  0  0  0  0
   46.4540    6.5977   14.2597 H   0  0  0  0  0  0  0  0  0  0  0  0
   45.9507    5.9396    9.9807 H   0  0  0  0  0  0  0  0  0  0  0  0
   43.8635    6.5081   13.7142 H   0  0  0  0  0  0  0  0  0  0  0  0
   47.3945    4.9485   12.6602 H   0  0  0  0  0  0  0  0  0  0  0  0
   48.6728    5.5903   13.6883 H   0  0  0  0  0  0  0  0  0  0  0  0
   48.5126    6.1658   12.0200 H   0  0  0  0  0  0  0  0  0  0  0  0
   42.2512    4.7521   13.0686 H   0  0  0  0  0  0  0  0  0  0  0  0
   44.3288    4.1894    9.3511 H   0  0  0  0  0  0  0  0  0  0  0  0
   42.4784    3.5883   10.8896 H   0  0  0  0  0  0  0  0  0  0  0  0
   46.2346    5.8515   13.8246 H   0  0  0  0  0  0  0  0  0  0  0  0
   47.6207    5.6639   12.7230 H   0  0  0  0  0  0  0  0  0  0  0  0
   45.8833    5.9455   10.7662 H   0  0  0  0  0  0  0  0  0  0  0  0
   45.1557    3.6435   11.0800 H   0  0  0  0  0  0  0  0  0  0  0  0
   46.7720    3.8589   11.1611 H   0  0  0  0  0  0  0  0  0  0  0  0
   42.9659    6.8097   12.9282 H   0  0  0  0  0  0  0  0  0  0  0  0
   47.2655    9.1085   13.5494 H   0  0  0  0  0  0  0  0  0  0  0  0
   44.0330    6.9236   13.4943 H   0  0  0  0  0  0  0  0  0  0  0  0
   44.1350    7.3909   11.8119 H   0  0  0  0  0  0  0  0  0  0  0  0
   42.2781    5.3472   13.0796 H   0  0  0  0  0  0  0  0  0  0  0  0
   42.2034    5.7644   11.5049 H   0  0  0  0  0  0  0  0  0  0  0  0
   44.5021    4.5023   12.8260 H   0  0  0  0  0  0  0  0  0  0  0  0
   46.0983    5.6878   14.5534 H   0  0  0  0  0  0  0  0  0  0  0  0
   46.2653    8.0132   10.9208 H   0  0  0  0  0  0  0  0  0  0  0  0
   45.6647    4.8626   10.6640 H   0  0  0  0  0  0  0  0  0  0  0  0
   44.2050    5.5900    9.9702 H   0  0  0  0  0  0  0  0  0  0  0  0
   44.2230    3.8775   10.4259 H   0  0  0  0  0  0  0  0  0  0  0  0
   48.5360    5.9601   14.8271 H   0  0  0  0  0  0  0  0  0  0  0  0
   48.7007    8.2766   11.2139 H   0  0  0  0  0  0  0  0  0  0  0  0
   49.8436    7.2523   13.1621 H   0  0  0  0  0  0  0  0  0  0  0  0
   47.5351    6.6945   12.1823 H   0  0  0  0  0  0  0  0  0  0  0  0
   44.9820    4.4706   11.8841 H   0  0  0  0  0  0  0  0  0  0  0  0
  4  2  1  0
  3  1  1  0
  4  1  1  0
  5  3  2  0
  6  3  1  0
  4  7  1  0
  8  5  1  0
  9  6  2  0
 10  8  2  0
  9 10  1  0
 12 14  1  0
 13 11  1  0
 14 11  1  0
 15 13  2  0
 16 13  1  0
 17 14  1  0
 18 16  2  0
 19 15  1  0
 20 18  1  0
 19 20  2  0
 22 24  1  0
 23 21  1  0
 24 21  1  0
 25 22  2  0
 26 23  2  0
 27 24  1  0
 28 22  1  0
 29 23  1  0
 33 31  1  0
 32 30  1  0
 33 30  1  0
 34 32  2  0
 35 32  1  0
 33 36  1  0
 37 34  1  0
 38 35  2  0
 39 37  2  0
 38 39  1  0
 41 40  2  0
 42 40  2  0
 43 40  1  0
 44 40  1  0
  1 45  1  0
  1 46  1  0
  2 47  1  0
  2 48  1  0
  4 49  1  1
  5 50  1  0
  6 51  1  0
  7 52  1  0
  7 53  1  0
  7 54  1  0
  8 55  1  0
  9 56  1  0
 10 57  1  0
 11 58  1  0
 11 59  1  0
 12 60  1  0
 12 61  1  0
 14 62  1  1
 15 63  1  0
 16 64  1  0
 17 65  1  0
 17 66  1  0
 17 67  1  0
 18 68  1  0
 19 69  1  0
 20 70  1  0
 21 71  1  0
 21 72  1  0
 24 73  1  6
 27 74  1  0
 27 75  1  0
 28 76  1  0
 29 77  1  0
 30 78  1  0
 30 79  1  0
 31 80  1  0
 31 81  1  0
 33 82  1  1
 34 83  1  0
 35 84  1  0
 36 85  1  0
 36 86  1  0
 36 87  1  0
 37 88  1  0
 38 89  1  0
 39 90  1  0
 43 91  1  0
 44 92  1  0
M  END
> <Uni-Dock RESULT> 
ENERGY=   -7.595  LOWER_BOUND=    0.935  UPPER_BOUND=    1.322
INTER + INTRA:          -7.595
INTER:                  -7.595
INTRA:                   0.000
UNBOUND:                 0.000

$$$$

     RDKit          3D

 92 90  0  0  0  0  0  0  0  0999 V2000
   49.2675    4.9767   20.2705 C   0  0  0  0  0  0  0  0  0  0  0  0
   48.9250    5.7592   22.5950 N   0  0  0  0  0  0  0  0  0  0  0  0
   48.6327    4.5546   18.9662 C   0  0  0  0  0  0  0  0  0  0  0  0
   48.2640    5.5395   21.3003 C   0  0  1  0  0  0  0  0  0  0  0  0
   47.8382    3.4015   18.9025 C   0  0  0  0  0  0  0  0  0  0  0  0
   48.8256    5.3109   17.8022 C   0  0  0  0  0  0  0  0  0  0  0  0
   47.6484    6.8640   20.8477 C   0  0  0  0  0  0  0  0  0  0  0  0
   47.2465    3.0149   17.6989 C   0  0  0  0  0  0  0  0  0  0  0  0
   48.2329    4.9225   16.5995 C   0  0  0  0  0  0  0  0  0  0  0  0
   47.4436    3.7755   16.5481 C   0  0  0  0  0  0  0  0  0  0  0  0
   48.5886    6.2916   19.6855 C   0  0  0  0  0  0  0  0  0  0  0  0
   47.8546    7.2115   21.8479 N   0  0  0  0  0  0  0  0  0  0  0  0
   48.4550    5.1930   18.6560 C   0  0  0  0  0  0  0  0  0  0  0  0
   47.8100    6.0181   20.9896 C   0  0  2  0  0  0  0  0  0  0  0  0
   49.5237    4.3245   18.3958 C   0  0  0  0  0  0  0  0  0  0  0  0
   47.2558    5.0245   17.9502 C   0  0  0  0  0  0  0  0  0  0  0  0
   48.3703    4.8237   21.7644 C   0  0  0  0  0  0  0  0  0  0  0  0
   47.1274    4.0051   17.0057 C   0  0  0  0  0  0  0  0  0  0  0  0
   49.3932    3.3053   17.4510 C   0  0  0  0  0  0  0  0  0  0  0  0
   48.1955    3.1454   16.7569 C   0  0  0  0  0  0  0  0  0  0  0  0
   48.0590    5.0539   20.4593 C   0  0  0  0  0  0  0  0  0  0  0  0
   47.9409    4.6513   17.9390 C   0  0  0  0  0  0  0  0  0  0  0  0
   48.5018    6.4903   20.4788 C   0  0  0  0  0  0  0  0  0  0  0  0
   48.6571    4.3225   19.2590 C   0  0  2  0  0  0  0  0  0  0  0  0
   47.9741    3.9624   16.9277 O   0  0  0  0  0  0  0  0  0  0  0  0
   49.4710    6.9696   19.9147 O   0  0  0  0  0  0  0  0  0  0  0  0
   48.5588    2.8580   19.4914 N   0  0  0  0  0  0  0  0  0  0  0  0
   47.2737    5.8195   17.9277 O   0  0  0  0  0  0  0  0  0  0  0  0
   47.7221    7.2534   21.2697 O   0  0  0  0  0  0  0  0  0  0  0  0
   47.7421    5.6211   18.3608 C   0  0  0  0  0  0  0  0  0  0  0  0
   47.2263    4.0587   16.5098 N   0  0  0  0  0  0  0  0  0  0  0  0
   48.0888    5.7876   19.8217 C   0  0  0  0  0  0  0  0  0  0  0  0
   47.7504    4.1539   17.8802 C   0  0  1  0  0  0  0  0  0  0  0  0
   47.1797    5.4015   20.8165 C   0  0  0  0  0  0  0  0  0  0  0  0
   49.3244    6.3271   20.2040 C   0  0  0  0  0  0  0  0  0  0  0  0
   49.1529    3.5449   17.8984 C   0  0  0  0  0  0  0  0  0  0  0  0
   47.5020    5.5498   22.1663 C   0  0  0  0  0  0  0  0  0  0  0  0
   49.6448    6.4746   21.5546 C   0  0  0  0  0  0  0  0  0  0  0  0
   48.7342    6.0857   22.5350 C   0  0  0  0  0  0  0  0  0  0  0  0
   48.0863    5.3772   19.2378 S   0  0  0  0  0  0  0  0  0  0  0  0
   46.7030    5.2659   18.8508 O   0  0  0  0  0  0  0  0  0  0  0  0
   48.9227    6.5042   18.9128 O   0  0  0  0  0  0  0  0  0  0  0  0
   48.1841    5.1829   20.8272 O   0  0  0  0  0  0  0  0  0  0  0  0
   48.8108    4.0435   18.7184 O   0  0  0  0  0  0  0  0  0  0  0  0
   49.7776    4.0985   20.6899 H   0  0  0  0  0  0  0  0  0  0  0  0
   50.0598    5.7125   20.0778 H   0  0  0  0  0  0  0  0  0  0  0  0
   49.6853    6.4297   22.4854 H   0  0  0  0  0  0  0  0  0  0  0  0
   49.3545    4.8911   22.9127 H   0  0  0  0  0  0  0  0  0  0  0  0
   47.4536    4.8192   21.4620 H   0  0  0  0  0  0  0  0  0  0  0  0
   47.6753    2.7959   19.7913 H   0  0  0  0  0  0  0  0  0  0  0  0
   49.4363    6.2105   17.8242 H   0  0  0  0  0  0  0  0  0  0  0  0
   48.4180    7.6174   20.6454 H   0  0  0  0  0  0  0  0  0  0  0  0
   46.9770    7.2658   21.6154 H   0  0  0  0  0  0  0  0  0  0  0  0
   47.0544    6.7334   19.9375 H   0  0  0  0  0  0  0  0  0  0  0  0
   46.6310    2.1200   17.6595 H   0  0  0  0  0  0  0  0  0  0  0  0
   48.3868    5.5163   15.7023 H   0  0  0  0  0  0  0  0  0  0  0  0
   46.9821    3.4742   15.6116 H   0  0  0  0  0  0  0  0  0  0  0  0
   49.6502    6.4631   19.9093 H   0  0  0  0  0  0  0  0  0  0  0  0
   48.2300    7.2235   19.2267 H   0  0  0  0  0  0  0  0  0  0  0  0
   48.8169    7.3944   22.1316 H   0  0  0  0  0  0  0  0  0  0  0  0
   47.3400    7.0280   22.7091 H   0  0  0  0  0  0  0  0  0  0  0  0
   46.7578    5.8195   20.7547 H   0  0  0  0  0  0  0  0  0  0  0  0
   50.4652    4.4348   18.9290 H   0  0  0  0  0  0  0  0  0  0  0  0
   46.4149    5.6909   18.1312 H   0  0  0  0  0  0  0  0  0  0  0  0
   48.2659    3.8967   21.1917 H   0  0  0  0  0  0  0  0  0  0  0  0
   47.8314    4.6810   22.7079 H   0  0  0  0  0  0  0  0  0  0  0  0
   49.4318    4.9595   21.9997 H   0  0  0  0  0  0  0  0  0  0  0  0
   46.1939    3.8836   16.4624 H   0  0  0  0  0  0  0  0  0  0  0  0
   50.2272    2.6363   17.2560 H   0  0  0  0  0  0  0  0  0  0  0  0
   48.0952    2.3526   16.0206 H   0  0  0  0  0  0  0  0  0  0  0  0
   46.9636    5.0136   20.4346 H   0  0  0  0  0  0  0  0  0  0  0  0
   48.4035    4.6071   21.3997 H   0  0  0  0  0  0  0  0  0  0  0  0
   49.7134    4.5793   19.1170 H   0  0  0  0  0  0  0  0  0  0  0  0
   48.7905    2.3834   18.6134 H   0  0  0  0  0  0  0  0  0  0  0  0
   49.2731    2.5753   20.1612 H   0  0  0  0  0  0  0  0  0  0  0  0
   46.9091    5.8695   17.0185 H   0  0  0  0  0  0  0  0  0  0  0  0
   48.1127    8.1498   21.2028 H   0  0  0  0  0  0  0  0  0  0  0  0
   46.7458    6.0579   18.2058 H   0  0  0  0  0  0  0  0  0  0  0  0
   48.4252    6.2218   17.7452 H   0  0  0  0  0  0  0  0  0  0  0  0
   46.2948    4.4708   16.4696 H   0  0  0  0  0  0  0  0  0  0  0  0
   47.8083    4.6080   15.8782 H   0  0  0  0  0  0  0  0  0  0  0  0
   47.1024    3.5476   18.5238 H   0  0  0  0  0  0  0  0  0  0  0  0
   46.2130    4.9826   20.5456 H   0  0  0  0  0  0  0  0  0  0  0  0
   50.0485    6.6336   19.4525 H   0  0  0  0  0  0  0  0  0  0  0  0
   49.5516    3.5000   18.9170 H   0  0  0  0  0  0  0  0  0  0  0  0
   49.8521    4.1258   17.2863 H   0  0  0  0  0  0  0  0  0  0  0  0
   49.1389    2.5192   17.5123 H   0  0  0  0  0  0  0  0  0  0  0  0
   46.7910    5.2468   22.9304 H   0  0  0  0  0  0  0  0  0  0  0  0
   50.6061    6.8926   21.8418 H   0  0  0  0  0  0  0  0  0  0  0  0
   48.9847    6.2003   23.5863 H   0  0  0  0  0  0  0  0  0  0  0  0
   49.0566    5.5290   21.1074 H   0  0  0  0  0  0  0  0  0  0  0  0
   48.1284    3.3417   18.6769 H   0  0  0  0  0  0  0  0  0  0  0  0
  4  2  1  0
  3  1  1  0
  4  1  1  0
  5  3  2  0
  6  3  1  0
  4  7  1  0
  8  5  1  0
  9  6  2  0
 10  8  2  0
  9 10  1  0
 12 14  1  0
 13 11  1  0
 14 11  1  0
 15 13  2  0
 16 13  1  0
 17 14  1  0
 18 16  2  0
 19 15  1  0
 20 18  1  0
 19 20  2  0
 22 24  1  0
 23 21  1  0
 24 21  1  0
 25 22  2  0
 26 23  2  0
 27 24  1  0
 28 22  1  0
 29 23  1  0
 33 31  1  0
 32 30  1  0
 33 30  1  0
 34 32  2  0
 35 32  1  0
 33 36  1  0
 37 34  1  0
 38 35  2  0
 39 37  2  0
 38 39  1  0
 41 40  2  0
 42 40  2  0
 43 40  1  0
 44 40  1  0
  1 45  1  0
  1 46  1  0
  2 47  1  0
  2 48  1  0
  4 49  1  1
  5 50  1  0
  6 51  1  0
  7 52  1  0
  7 53  1  0
  7 54  1  0
  8 55  1  0
  9 56  1  0
 10 57  1  0
 11 58  1  0
 11 59  1  0
 12 60  1  0
 12 61  1  0
 14 62  1  1
 15 63  1  0
 16 64  1  0
 17 65  1  0
 17 66  1  0
 17 67  1  0
 18 68  1  0
 19 69  1  0
 20 70  1  0
 21 71  1  0
 21 72  1  0
 24 73  1  6
 27 74  1  0
 27 75  1  0
 28 76  1  0
 29 77  1  0
 30 78  1  0
 30 79  1  0
 31 80  1  0
 31 81  1  0
 33 82  1  1
 34 83  1  0
 35 84  1  0
 36 85  1  0
 36 86  1  0
 36 87  1  0
 37 88  1  0
 38 89  1  0
 39 90  1  0
 43 91  1  0
 44 92  1  0
M  END
> <Uni-Dock RESULT> 
ENERGY=   -7.549  LOWER_BOUND=    6.529  UPPER_BOUND=    8.021
INTER + INTRA:          -7.549
INTER:                  -7.549
INTRA:                   0.000
UNBOUND:                 0.000

$$$$

     RDKit          3D

 92 90  0  0  0  0  0  0  0  0999 V2000
   46.8845    5.9568   12.6907 C   0  0  0  0  0  0  0  0  0  0  0  0
   48.4512    7.5818   13.7097 N   0  0  0  0  0  0  0  0  0  0  0  0
   45.4609    5.6423   12.2946 C   0  0  0  0  0  0  0  0  0  0  0  0
   47.0913    7.4070   13.1789 C   0  0  1  0  0  0  0  0  0  0  0  0
   44.4633    5.5129   13.2709 C   0  0  0  0  0  0  0  0  0  0  0  0
   45.1160    5.4789   10.9462 C   0  0  0  0  0  0  0  0  0  0  0  0
   46.8788    8.4313   12.0636 C   0  0  0  0  0  0  0  0  0  0  0  0
   43.1469    5.2286   12.9046 C   0  0  0  0  0  0  0  0  0  0  0  0
   43.7988    5.1946   10.5820 C   0  0  0  0  0  0  0  0  0  0  0  0
   42.8149    5.0699   11.5607 C   0  0  0  0  0  0  0  0  0  0  0  0
   46.5407    6.9677   11.5109 C   0  0  0  0  0  0  0  0  0  0  0  0
   47.7924    8.8857   12.4139 N   0  0  0  0  0  0  0  0  0  0  0  0
   45.3783    6.0147   11.6702 C   0  0  0  0  0  0  0  0  0  0  0  0
   46.7650    7.8829   12.7330 C   0  0  2  0  0  0  0  0  0  0  0  0
   45.6000    4.6482   11.8888 C   0  0  0  0  0  0  0  0  0  0  0  0
   44.0601    6.4871   11.6070 C   0  0  0  0  0  0  0  0  0  0  0  0
   47.1974    7.1020   13.9756 C   0  0  0  0  0  0  0  0  0  0  0  0
   42.9855    5.6104   11.7629 C   0  0  0  0  0  0  0  0  0  0  0  0
   44.5238    3.7729   12.0449 C   0  0  0  0  0  0  0  0  0  0  0  0
   43.2175    4.2540   11.9826 C   0  0  0  0  0  0  0  0  0  0  0  0
   46.2304    6.9354   13.0319 C   0  0  0  0  0  0  0  0  0  0  0  0
   44.3710    5.7797   11.7148 C   0  0  0  0  0  0  0  0  0  0  0  0
   47.0700    7.4612   11.9013 C   0  0  0  0  0  0  0  0  0  0  0  0
   45.5808    5.6073   12.6477 C   0  0  2  0  0  0  0  0  0  0  0  0
   43.4832    4.9529   11.5508 O   0  0  0  0  0  0  0  0  0  0  0  0
   47.5279    6.8253   10.9668 O   0  0  0  0  0  0  0  0  0  0  0  0
   45.1234    4.9212   13.8839 N   0  0  0  0  0  0  0  0  0  0  0  0
   44.3519    6.9262   11.0113 O   0  0  0  0  0  0  0  0  0  0  0  0
   47.3453    8.7731   12.0381 O   0  0  0  0  0  0  0  0  0  0  0  0
   44.8708    6.6514   11.3299 C   0  0  0  0  0  0  0  0  0  0  0  0
   42.7502    5.3731   11.3796 N   0  0  0  0  0  0  0  0  0  0  0  0
   46.1092    7.0849   12.0787 C   0  0  0  0  0  0  0  0  0  0  0  0
   44.0218    5.6032   12.0810 C   0  0  1  0  0  0  0  0  0  0  0  0
   46.0047    7.9041   13.2114 C   0  0  0  0  0  0  0  0  0  0  0  0
   47.3796    6.6725   11.6544 C   0  0  0  0  0  0  0  0  0  0  0  0
   44.7422    4.2612   12.2160 C   0  0  0  0  0  0  0  0  0  0  0  0
   47.1481    8.3001   13.9068 C   0  0  0  0  0  0  0  0  0  0  0  0
   48.5220    7.0697   12.3513 C   0  0  0  0  0  0  0  0  0  0  0  0
   48.4061    7.8826   13.4771 C   0  0  0  0  0  0  0  0  0  0  0  0
   45.5775    6.6157   11.9981 S   0  0  0  0  0  0  0  0  0  0  0  0
   44.3643    7.3794   12.1422 O   0  0  0  0  0  0  0  0  0  0  0  0
   46.3417    6.5450   10.7789 O   0  0  0  0  0  0  0  0  0  0  0  0
   46.5997    7.0682   13.1487 O   0  0  0  0  0  0  0  0  0  0  0  0
   45.2299    5.1206   12.4643 O   0  0  0  0  0  0  0  0  0  0  0  0
   47.1706    5.2528   13.4844 H   0  0  0  0  0  0  0  0  0  0  0  0
   47.5601    5.7435   11.8514 H   0  0  0  0  0  0  0  0  0  0  0  0
   49.1349    7.3865   12.9789 H   0  0  0  0  0  0  0  0  0  0  0  0
   48.6213    6.9004   14.4484 H   0  0  0  0  0  0  0  0  0  0  0  0
   46.3893    7.6298   13.9909 H   0  0  0  0  0  0  0  0  0  0  0  0
   44.7060    5.6325   14.3245 H   0  0  0  0  0  0  0  0  0  0  0  0
   45.8703    5.5753   10.1686 H   0  0  0  0  0  0  0  0  0  0  0  0
   47.5395    8.2406   11.2104 H   0  0  0  0  0  0  0  0  0  0  0  0
   47.0774    9.4477   12.4230 H   0  0  0  0  0  0  0  0  0  0  0  0
   45.8455    8.4142   11.7025 H   0  0  0  0  0  0  0  0  0  0  0  0
   42.3800    5.1314   13.6685 H   0  0  0  0  0  0  0  0  0  0  0  0
   43.5403    5.0712    9.5336 H   0  0  0  0  0  0  0  0  0  0  0  0
   41.7895    4.8492   11.2763 H   0  0  0  0  0  0  0  0  0  0  0  0
   47.4562    6.4023   11.2904 H   0  0  0  0  0  0  0  0  0  0  0  0
   46.3500    7.5793   10.6181 H   0  0  0  0  0  0  0  0  0  0  0  0
   48.6848    8.4213   12.2465 H   0  0  0  0  0  0  0  0  0  0  0  0
   47.9392    9.4886   13.2231 H   0  0  0  0  0  0  0  0  0  0  0  0
   45.8384    8.4215   12.9638 H   0  0  0  0  0  0  0  0  0  0  0  0
   46.6131    4.2563   11.9408 H   0  0  0  0  0  0  0  0  0  0  0  0
   43.8640    7.5429   11.4320 H   0  0  0  0  0  0  0  0  0  0  0  0
   46.4137    6.4101   14.3004 H   0  0  0  0  0  0  0  0  0  0  0  0
   47.3964    7.7787   14.8142 H   0  0  0  0  0  0  0  0  0  0  0  0
   48.1071    6.5205   13.7884 H   0  0  0  0  0  0  0  0  0  0  0  0
   41.9671    5.9861   11.7107 H   0  0  0  0  0  0  0  0  0  0  0  0
   44.7053    2.7149   12.2143 H   0  0  0  0  0  0  0  0  0  0  0  0
   42.3803    3.5717   12.1029 H   0  0  0  0  0  0  0  0  0  0  0  0
   45.4698    7.6803   13.2943 H   0  0  0  0  0  0  0  0  0  0  0  0
   46.9032    6.8072   13.8885 H   0  0  0  0  0  0  0  0  0  0  0  0
   46.2876    4.9492   12.1290 H   0  0  0  0  0  0  0  0  0  0  0  0
   44.5335    4.1309   13.6057 H   0  0  0  0  0  0  0  0  0  0  0  0
   45.9280    4.5173   14.3615 H   0  0  0  0  0  0  0  0  0  0  0  0
   43.5390    6.8511   10.4676 H   0  0  0  0  0  0  0  0  0  0  0  0
   47.8942    8.9886   11.2553 H   0  0  0  0  0  0  0  0  0  0  0  0
   44.2687    7.5504   11.1388 H   0  0  0  0  0  0  0  0  0  0  0  0
   45.1498    6.2685   10.3390 H   0  0  0  0  0  0  0  0  0  0  0  0
   42.2564    6.2577   11.2662 H   0  0  0  0  0  0  0  0  0  0  0  0
   42.9325    5.0259   10.4386 H   0  0  0  0  0  0  0  0  0  0  0  0
   43.7823    5.9691   13.0863 H   0  0  0  0  0  0  0  0  0  0  0  0
   45.0302    8.2399   13.5594 H   0  0  0  0  0  0  0  0  0  0  0  0
   47.4889    6.0358   10.7795 H   0  0  0  0  0  0  0  0  0  0  0  0
   45.6506    4.3587   12.8192 H   0  0  0  0  0  0  0  0  0  0  0  0
   45.0268    3.8568   11.2380 H   0  0  0  0  0  0  0  0  0  0  0  0
   44.1030    3.5224   12.7130 H   0  0  0  0  0  0  0  0  0  0  0  0
   47.0570    8.9347   14.7845 H   0  0  0  0  0  0  0  0  0  0  0  0
   49.5031    6.7438   12.0159 H   0  0  0  0  0  0  0  0  0  0  0  0
   49.2960    8.1908   14.0194 H   0  0  0  0  0  0  0  0  0  0  0  0
   47.4905    6.7609   12.8811 H   0  0  0  0  0  0  0  0  0  0  0  0
   44.4885    5.1821   13.1018 H   0  0  0  0  0  0  0  0  0  0  0  0
  4  2  1  0
  3  1  1  0
  4  1  1  0
  5  3  2  0
  6  3  1  0
  4  7  1  0
  8  5  1  0
  9  6  2  0
 10  8  2  0
  9 10  1  0
 12 14  1  0
 13 11  1  0
 14 11  1  0
 15 13  2  0
 16 13  1  0
 17 14  1  0
 18 16  2  0
 19 15  1  0
 20 18  1  0
 19 20  2  0
 22 24  1  0
 23 21  1  0
 24 21  1  0
 25 22  2  0
 26 23  2  0
 27 24  1  0
 28 22  1  0
 29 23  1  0
 33 31  1  0
 32 30  1  0
 33 30  1  0
 34 32  2  0
 35 32  1  0
 33 36  1  0
 37 34  1  0
 38 35  2  0
 39 37  2  0
 38 39  1  0
 41 40  2  0
 42 40  2  0
 43 40  1  0
 44 40  1  0
  1 45  1  0
  1 46  1  0
  2 47  1  0
  2 48  1  0
  4 49  1  1
  5 50  1  0
  6 51  1  0
  7 52  1  0
  7 53  1  0
  7 54  1  0
  8 55  1  0
  9 56  1  0
 10 57  1  0
 11 58  1  0
 11 59  1  0
 12 60  1  0
 12 61  1  0
 14 62  1  1
 15 63  1  0
 16 64  1  0
 17 65  1  0
 17 66  1  0
 17 67  1  0
 18 68  1  0
 19 69  1  0
 20 70  1  0
 21 71  1  0
 21 72  1  0
 24 73  1  6
 27 74  1  0
 27 75  1  0
 28 76  1  0
 29 77  1  0
 30 78  1  0
 30 79  1  0
 31 80  1  0
 31 81  1  0
 33 82  1  1
 34 83  1  0
 35 84  1  0
 36 85  1  0
 36 86  1  0
 36 87  1  0
 37 88  1  0
 38 89  1  0
 39 90  1  0
 43 91  1  0
 44 92  1  0
M  END
> <Uni-Dock RESULT> 
ENERGY=   -7.250  LOWER_BOUND=    0.996  UPPER_BOUND=    2.072
INTER + INTRA:          -7.250
INTER:                  -7.250
INTRA:                   0.000
UNBOUND:                 0.000

$$$$

     RDKit          3D

 92 90  0  0  0  0  0  0  0  0999 V2000
   45.7241    6.5691   13.4232 C   0  0  0  0  0  0  0  0  0  0  0  0
   46.8001    8.7710   13.7791 N   0  0  0  0  0  0  0  0  0  0  0  0
   44.9603    5.6660   12.4832 C   0  0  0  0  0  0  0  0  0  0  0  0
   46.2271    7.8726   12.7662 C   0  0  1  0  0  0  0  0  0  0  0  0
   43.6707    6.0118   12.0561 C   0  0  0  0  0  0  0  0  0  0  0  0
   45.5306    4.4719   12.0219 C   0  0  0  0  0  0  0  0  0  0  0  0
   47.2930    7.6126   11.7010 C   0  0  0  0  0  0  0  0  0  0  0  0
   42.9676    5.1806   11.1826 C   0  0  0  0  0  0  0  0  0  0  0  0
   44.8256    3.6421   11.1484 C   0  0  0  0  0  0  0  0  0  0  0  0
   43.5451    3.9966   10.7289 C   0  0  0  0  0  0  0  0  0  0  0  0
   46.7446    6.2145   12.2550 C   0  0  0  0  0  0  0  0  0  0  0  0
   47.8417    8.4166   12.1658 N   0  0  0  0  0  0  0  0  0  0  0  0
   45.4838    5.4086   12.0415 C   0  0  0  0  0  0  0  0  0  0  0  0
   46.5379    7.7379   12.1204 C   0  0  2  0  0  0  0  0  0  0  0  0
   44.8317    4.8029   13.1240 C   0  0  0  0  0  0  0  0  0  0  0  0
   44.9457    5.2610   10.7556 C   0  0  0  0  0  0  0  0  0  0  0  0
   45.6403    8.3048   13.2221 C   0  0  0  0  0  0  0  0  0  0  0  0
   43.7766    4.5249   10.5576 C   0  0  0  0  0  0  0  0  0  0  0  0
   43.6623    4.0673   12.9239 C   0  0  0  0  0  0  0  0  0  0  0  0
   43.1348    3.9291   11.6415 C   0  0  0  0  0  0  0  0  0  0  0  0
   45.5730    7.2233   12.3980 C   0  0  0  0  0  0  0  0  0  0  0  0
   44.7308    5.0013   11.4593 C   0  0  0  0  0  0  0  0  0  0  0  0
   47.0525    6.9587   12.4212 C   0  0  0  0  0  0  0  0  0  0  0  0
   44.7921    5.9400   12.6752 C   0  0  2  0  0  0  0  0  0  0  0  0
   43.9027    4.1152   11.2932 O   0  0  0  0  0  0  0  0  0  0  0  0
   47.6241    6.0185   12.9471 O   0  0  0  0  0  0  0  0  0  0  0  0
   43.4020    6.2975   13.0599 N   0  0  0  0  0  0  0  0  0  0  0  0
   45.7104    5.1758   10.5539 O   0  0  0  0  0  0  0  0  0  0  0  0
   47.7552    7.9396   11.8214 O   0  0  0  0  0  0  0  0  0  0  0  0
   45.6933    5.3962   11.1844 C   0  0  0  0  0  0  0  0  0  0  0  0
   43.7647    4.0288   10.4466 N   0  0  0  0  0  0  0  0  0  0  0  0
   46.1764    6.5768   11.9937 C   0  0  0  0  0  0  0  0  0  0  0  0
   44.2017    5.0604   11.3988 C   0  0  1  0  0  0  0  0  0  0  0  0
   45.7808    7.8789   11.6573 C   0  0  0  0  0  0  0  0  0  0  0  0
   47.0241    6.3879   13.0936 C   0  0  0  0  0  0  0  0  0  0  0  0
   43.9178    4.5551   12.8138 C   0  0  0  0  0  0  0  0  0  0  0  0
   46.2223    8.9693   12.4082 C   0  0  0  0  0  0  0  0  0  0  0  0
   47.4644    7.4799   13.8434 C   0  0  0  0  0  0  0  0  0  0  0  0
   47.0633    8.7697   13.5010 C   0  0  0  0  0  0  0  0  0  0  0  0
   45.6815    6.0748   11.8817 S   0  0  0  0  0  0  0  0  0  0  0  0
   45.2136    6.2881   10.5359 O   0  0  0  0  0  0  0  0  0  0  0  0
   46.8887    5.3595   12.2082 O   0  0  0  0  0  0  0  0  0  0  0  0
   45.7864    7.4991   12.6125 O   0  0  0  0  0  0  0  0  0  0  0  0
   44.4644    5.4051   12.6839 O   0  0  0  0  0  0  0  0  0  0  0  0
   45.0594    6.8092   14.2647 H   0  0  0  0  0  0  0  0  0  0  0  0
   46.5680    6.0205   13.8627 H   0  0  0  0  0  0  0  0  0  0  0  0
   47.5885    8.3157   14.2383 H   0  0  0  0  0  0  0  0  0  0  0  0
   46.1107    8.9502   14.5082 H   0  0  0  0  0  0  0  0  0  0  0  0
   45.3890    8.3992   12.2948 H   0  0  0  0  0  0  0  0  0  0  0  0
   43.2050    6.9320   12.4019 H   0  0  0  0  0  0  0  0  0  0  0  0
   46.5300    4.1806   12.3367 H   0  0  0  0  0  0  0  0  0  0  0  0
   48.1474    7.0631   12.1120 H   0  0  0  0  0  0  0  0  0  0  0  0
   47.6672    8.5547   11.2840 H   0  0  0  0  0  0  0  0  0  0  0  0
   46.8856    7.0315   10.8675 H   0  0  0  0  0  0  0  0  0  0  0  0
   41.9688    5.4577   10.8559 H   0  0  0  0  0  0  0  0  0  0  0  0
   45.2766    2.7187   10.7945 H   0  0  0  0  0  0  0  0  0  0  0  0
   42.9972    3.3503   10.0483 H   0  0  0  0  0  0  0  0  0  0  0  0
   47.1740    5.9779   13.2378 H   0  0  0  0  0  0  0  0  0  0  0  0
   47.4865    5.8734   11.5196 H   0  0  0  0  0  0  0  0  0  0  0  0
   48.2712    8.2739   13.0797 H   0  0  0  0  0  0  0  0  0  0  0  0
   47.7023    9.4230   12.0774 H   0  0  0  0  0  0  0  0  0  0  0  0
   46.0824    7.9626   11.1487 H   0  0  0  0  0  0  0  0  0  0  0  0
   45.2294    4.9013   14.1314 H   0  0  0  0  0  0  0  0  0  0  0  0
   45.4384    5.7173    9.8995 H   0  0  0  0  0  0  0  0  0  0  0  0
   44.6286    7.8915   13.1597 H   0  0  0  0  0  0  0  0  0  0  0  0
   45.5490    9.3931   13.1319 H   0  0  0  0  0  0  0  0  0  0  0  0
   46.0373    8.0813   14.2186 H   0  0  0  0  0  0  0  0  0  0  0  0
   43.3682    4.4149    9.5565 H   0  0  0  0  0  0  0  0  0  0  0  0
   43.1632    3.6013   13.7694 H   0  0  0  0  0  0  0  0  0  0  0  0
   42.2252    3.3552   11.4865 H   0  0  0  0  0  0  0  0  0  0  0  0
   45.2964    7.6458   11.4247 H   0  0  0  0  0  0  0  0  0  0  0  0
   45.3768    7.9744   13.1728 H   0  0  0  0  0  0  0  0  0  0  0  0
   45.2402    5.3658   13.4946 H   0  0  0  0  0  0  0  0  0  0  0  0
   42.8451    5.4374   13.0637 H   0  0  0  0  0  0  0  0  0  0  0  0
   43.3964    6.6405   14.0195 H   0  0  0  0  0  0  0  0  0  0  0  0
   45.5258    4.4900    9.8774 H   0  0  0  0  0  0  0  0  0  0  0  0
   48.6894    7.6563   11.9080 H   0  0  0  0  0  0  0  0  0  0  0  0
   45.8747    5.6253   10.1252 H   0  0  0  0  0  0  0  0  0  0  0  0
   46.3118    4.5157   11.4046 H   0  0  0  0  0  0  0  0  0  0  0  0
   43.9557    4.3383    9.4943 H   0  0  0  0  0  0  0  0  0  0  0  0
   44.3096    3.1782   10.5844 H   0  0  0  0  0  0  0  0  0  0  0  0
   43.5900    5.9528   11.2217 H   0  0  0  0  0  0  0  0  0  0  0  0
   45.1255    8.0521   10.8064 H   0  0  0  0  0  0  0  0  0  0  0  0
   47.3451    5.3882   13.3771 H   0  0  0  0  0  0  0  0  0  0  0  0
   44.1333    5.3265   13.5601 H   0  0  0  0  0  0  0  0  0  0  0  0
   44.5214    3.6727   13.0548 H   0  0  0  0  0  0  0  0  0  0  0  0
   42.8623    4.2826   12.9274 H   0  0  0  0  0  0  0  0  0  0  0  0
   45.9095    9.9751   12.1402 H   0  0  0  0  0  0  0  0  0  0  0  0
   48.1204    7.3238   14.6958 H   0  0  0  0  0  0  0  0  0  0  0  0
   47.4062    9.6192   14.0857 H   0  0  0  0  0  0  0  0  0  0  0  0
   46.3531    7.3777   13.4023 H   0  0  0  0  0  0  0  0  0  0  0  0
   43.6367    5.6933   12.2459 H   0  0  0  0  0  0  0  0  0  0  0  0
  4  2  1  0
  3  1  1  0
  4  1  1  0
  5  3  2  0
  6  3  1  0
  4  7  1  0
  8  5  1  0
  9  6  2  0
 10  8  2  0
  9 10  1  0
 12 14  1  0
 13 11  1  0
 14 11  1  0
 15 13  2  0
 16 13  1  0
 17 14  1  0
 18 16  2  0
 19 15  1  0
 20 18  1  0
 19 20  2  0
 22 24  1  0
 23 21  1  0
 24 21  1  0
 25 22  2  0
 26 23  2  0
 27 24  1  0
 28 22  1  0
 29 23  1  0
 33 31  1  0
 32 30  1  0
 33 30  1  0
 34 32  2  0
 35 32  1  0
 33 36  1  0
 37 34  1  0
 38 35  2  0
 39 37  2  0
 38 39  1  0
 41 40  2  0
 42 40  2  0
 43 40  1  0
 44 40  1  0
  1 45  1  0
  1 46  1  0
  2 47  1  0
  2 48  1  0
  4 49  1  1
  5 50  1  0
  6 51  1  0
  7 52  1  0
  7 53  1  0
  7 54  1  0
  8 55  1  0
  9 56  1  0
 10 57  1  0
 11 58  1  0
 11 59  1  0
 12 60  1  0
 12 61  1  0
 14 62  1  1
 15 63  1  0
 16 64  1  0
 17 65  1  0
 17 66  1  0
 17 67  1  0
 18 68  1  0
 19 69  1  0
 20 70  1  0
 21 71  1  0
 21 72  1  0
 24 73  1  6
 27 74  1  0
 27 75  1  0
 28 76  1  0
 29 77  1  0
 30 78  1  0
 30 79  1  0
 31 80  1  0
 31 81  1  0
 33 82  1  1
 34 83  1  0
 35 84  1  0
 36 85  1  0
 36 86  1  0
 36 87  1  0
 37 88  1  0
 38 89  1  0
 39 90  1  0
 43 91  1  0
 44 92  1  0
M  END
> <Uni-Dock RESULT> 
ENERGY=   -7.230  LOWER_BOUND=    0.952  UPPER_BOUND=    2.085
INTER + INTRA:          -7.230
INTER:                  -7.230
INTRA:                   0.000
UNBOUND:                 0.000

$$$$

     RDKit          3D

 92 90  0  0  0  0  0  0  0  0999 V2000
   48.0371    5.4938   18.1886 C   0  0  0  0  0  0  0  0  0  0  0  0
   47.4793    4.0598   16.2481 N   0  0  0  0  0  0  0  0  0  0  0  0
   48.2240    5.5897   19.6847 C   0  0  0  0  0  0  0  0  0  0  0  0
   47.8287    4.0523   17.6762 C   0  0  1  0  0  0  0  0  0  0  0  0
   47.1421    5.3808   20.5512 C   0  0  0  0  0  0  0  0  0  0  0  0
   49.4815    5.8853   20.2282 C   0  0  0  0  0  0  0  0  0  0  0  0
   49.0750    3.1851   17.8582 C   0  0  0  0  0  0  0  0  0  0  0  0
   47.3161    5.4631   21.9337 C   0  0  0  0  0  0  0  0  0  0  0  0
   49.6533    5.9672   21.6110 C   0  0  0  0  0  0  0  0  0  0  0  0
   48.5713    5.7559   22.4631 C   0  0  0  0  0  0  0  0  0  0  0  0
   49.3307    4.6247   18.5097 C   0  0  0  0  0  0  0  0  0  0  0  0
   48.9042    2.8641   16.8426 N   0  0  0  0  0  0  0  0  0  0  0  0
   48.8910    5.3063   19.7852 C   0  0  0  0  0  0  0  0  0  0  0  0
   48.3134    3.5956   17.9734 C   0  0  2  0  0  0  0  0  0  0  0  0
   48.4656    6.6416   19.7711 C   0  0  0  0  0  0  0  0  0  0  0  0
   48.8976    4.6085   21.0008 C   0  0  0  0  0  0  0  0  0  0  0  0
   47.0068    4.2489   17.5185 C   0  0  0  0  0  0  0  0  0  0  0  0
   48.4834    5.2332   22.1780 C   0  0  0  0  0  0  0  0  0  0  0  0
   48.0514    7.2646   20.9496 C   0  0  0  0  0  0  0  0  0  0  0  0
   48.0597    6.5605   22.1522 C   0  0  0  0  0  0  0  0  0  0  0  0
   47.8028    4.3695   18.6163 C   0  0  0  0  0  0  0  0  0  0  0  0
   48.7029    5.3376   20.8028 C   0  0  0  0  0  0  0  0  0  0  0  0
   49.0875    4.1871   17.8573 C   0  0  0  0  0  0  0  0  0  0  0  0
   47.8845    5.5934   19.5267 C   0  0  2  0  0  0  0  0  0  0  0  0
   48.6300    5.9970   21.8316 O   0  0  0  0  0  0  0  0  0  0  0  0
   49.9414    5.0307   17.6419 O   0  0  0  0  0  0  0  0  0  0  0  0
   46.5084    5.9877   19.9256 N   0  0  0  0  0  0  0  0  0  0  0  0
   49.5867    4.3267   20.7205 O   0  0  0  0  0  0  0  0  0  0  0  0
   49.2068    2.9453   17.3481 O   0  0  0  0  0  0  0  0  0  0  0  0
   49.2811    4.6436   20.2180 C   0  0  0  0  0  0  0  0  0  0  0  0
   48.7940    5.4765   22.4989 N   0  0  0  0  0  0  0  0  0  0  0  0
   48.7498    4.3443   18.8358 C   0  0  0  0  0  0  0  0  0  0  0  0
   48.2777    5.3881   21.1251 C   0  0  1  0  0  0  0  0  0  0  0  0
   47.7696    3.3598   18.6488 C   0  0  0  0  0  0  0  0  0  0  0  0
   49.2263    5.0479   17.7214 C   0  0  0  0  0  0  0  0  0  0  0  0
   47.9899    6.8063   20.6310 C   0  0  0  0  0  0  0  0  0  0  0  0
   47.2744    3.0871   17.3728 C   0  0  0  0  0  0  0  0  0  0  0  0
   48.7297    4.7737   16.4460 C   0  0  0  0  0  0  0  0  0  0  0  0
   47.7540    3.7941   16.2720 C   0  0  0  0  0  0  0  0  0  0  0  0
   48.6934    4.7115   19.4453 S   0  0  0  0  0  0  0  0  0  0  0  0
   48.5577    3.7198   20.4815 O   0  0  0  0  0  0  0  0  0  0  0  0
   49.9548    5.1070   18.8728 O   0  0  0  0  0  0  0  0  0  0  0  0
   47.7494    4.2928   18.2177 O   0  0  0  0  0  0  0  0  0  0  0  0
   47.9445    6.0270   19.9762 O   0  0  0  0  0  0  0  0  0  0  0  0
   47.1683    6.1121   17.9232 H   0  0  0  0  0  0  0  0  0  0  0  0
   48.8927    5.9541   17.6764 H   0  0  0  0  0  0  0  0  0  0  0  0
   48.2325    4.4878   15.7105 H   0  0  0  0  0  0  0  0  0  0  0  0
   46.6563    4.6425   16.0994 H   0  0  0  0  0  0  0  0  0  0  0  0
   46.9987    3.5818   18.2162 H   0  0  0  0  0  0  0  0  0  0  0  0
   46.1554    5.1526   20.1542 H   0  0  0  0  0  0  0  0  0  0  0  0
   50.3378    6.0506   19.5784 H   0  0  0  0  0  0  0  0  0  0  0  0
   49.9465    3.6228   17.3585 H   0  0  0  0  0  0  0  0  0  0  0  0
   48.9176    2.1824   17.4444 H   0  0  0  0  0  0  0  0  0  0  0  0
   49.3190    3.0609   18.9181 H   0  0  0  0  0  0  0  0  0  0  0  0
   46.4717    5.2982   22.5977 H   0  0  0  0  0  0  0  0  0  0  0  0
   50.6326    6.1953   22.0235 H   0  0  0  0  0  0  0  0  0  0  0  0
   48.7060    5.8191   23.5395 H   0  0  0  0  0  0  0  0  0  0  0  0
   49.5445    5.3792   17.7407 H   0  0  0  0  0  0  0  0  0  0  0  0
   50.2905    4.1289   18.7108 H   0  0  0  0  0  0  0  0  0  0  0  0
   49.0809    3.5083   16.0720 H   0  0  0  0  0  0  0  0  0  0  0  0
   48.2299    2.1854   16.4897 H   0  0  0  0  0  0  0  0  0  0  0  0
   48.0837    2.8635   18.7564 H   0  0  0  0  0  0  0  0  0  0  0  0
   48.4523    7.2054   18.8413 H   0  0  0  0  0  0  0  0  0  0  0  0
   49.2297    3.5730   21.0367 H   0  0  0  0  0  0  0  0  0  0  0  0
   46.4890    4.7238   18.3579 H   0  0  0  0  0  0  0  0  0  0  0  0
   46.3218    3.5040   17.0982 H   0  0  0  0  0  0  0  0  0  0  0  0
   47.1846    5.0129   16.7535 H   0  0  0  0  0  0  0  0  0  0  0  0
   48.4937    4.6841   23.1159 H   0  0  0  0  0  0  0  0  0  0  0  0
   47.7228    8.3003   20.9292 H   0  0  0  0  0  0  0  0  0  0  0  0
   47.7383    7.0466   23.0693 H   0  0  0  0  0  0  0  0  0  0  0  0
   47.5948    3.4636   19.1981 H   0  0  0  0  0  0  0  0  0  0  0  0
   47.0112    4.4926   17.8673 H   0  0  0  0  0  0  0  0  0  0  0  0
   48.3530    6.4433   19.0168 H   0  0  0  0  0  0  0  0  0  0  0  0
   46.5845    6.6851   20.6724 H   0  0  0  0  0  0  0  0  0  0  0  0
   46.0545    6.4600   19.1448 H   0  0  0  0  0  0  0  0  0  0  0  0
   50.0224    4.3276   21.5993 H   0  0  0  0  0  0  0  0  0  0  0  0
   50.0674    2.9571   16.8795 H   0  0  0  0  0  0  0  0  0  0  0  0
   49.5601    3.6861   20.6792 H   0  0  0  0  0  0  0  0  0  0  0  0
   50.2151    5.2163   20.1420 H   0  0  0  0  0  0  0  0  0  0  0  0
   49.0056    4.5418   22.8464 H   0  0  0  0  0  0  0  0  0  0  0  0
   49.6753    5.9889   22.5046 H   0  0  0  0  0  0  0  0  0  0  0  0
   47.3308    4.8371   21.1636 H   0  0  0  0  0  0  0  0  0  0  0  0
   47.3855    2.7979   19.4973 H   0  0  0  0  0  0  0  0  0  0  0  0
   49.9857    5.8176   17.8386 H   0  0  0  0  0  0  0  0  0  0  0  0
   47.5096    6.7927   19.6473 H   0  0  0  0  0  0  0  0  0  0  0  0
   48.9083    7.3990   20.5513 H   0  0  0  0  0  0  0  0  0  0  0  0
   47.3103    7.3281   21.3144 H   0  0  0  0  0  0  0  0  0  0  0  0
   46.5139    2.3225   17.2377 H   0  0  0  0  0  0  0  0  0  0  0  0
   49.1040    5.3254   15.5877 H   0  0  0  0  0  0  0  0  0  0  0  0
   47.3675    3.5817   15.2788 H   0  0  0  0  0  0  0  0  0  0  0  0
   48.0510    4.7993   17.4353 H   0  0  0  0  0  0  0  0  0  0  0  0
   47.2537    5.7319   20.6051 H   0  0  0  0  0  0  0  0  0  0  0  0
  4  2  1  0
  3  1  1  0
  4  1  1  0
  5  3  2  0
  6  3  1  0
  4  7  1  0
  8  5  1  0
  9  6  2  0
 10  8  2  0
  9 10  1  0
 12 14  1  0
 13 11  1  0
 14 11  1  0
 15 13  2  0
 16 13  1  0
 17 14  1  0
 18 16  2  0
 19 15  1  0
 20 18  1  0
 19 20  2  0
 22 24  1  0
 23 21  1  0
 24 21  1  0
 25 22  2  0
 26 23  2  0
 27 24  1  0
 28 22  1  0
 29 23  1  0
 33 31  1  0
 32 30  1  0
 33 30  1  0
 34 32  2  0
 35 32  1  0
 33 36  1  0
 37 34  1  0
 38 35  2  0
 39 37  2  0
 38 39  1  0
 41 40  2  0
 42 40  2  0
 43 40  1  0
 44 40  1  0
  1 45  1  0
  1 46  1  0
  2 47  1  0
  2 48  1  0
  4 49  1  1
  5 50  1  0
  6 51  1  0
  7 52  1  0
  7 53  1  0
  7 54  1  0
  8 55  1  0
  9 56  1  0
 10 57  1  0
 11 58  1  0
 11 59  1  0
 12 60  1  0
 12 61  1  0
 14 62  1  1
 15 63  1  0
 16 64  1  0
 17 65  1  0
 17 66  1  0
 17 67  1  0
 18 68  1  0
 19 69  1  0
 20 70  1  0
 21 71  1  0
 21 72  1  0
 24 73  1  6
 27 74  1  0
 27 75  1  0
 28 76  1  0
 29 77  1  0
 30 78  1  0
 30 79  1  0
 31 80  1  0
 31 81  1  0
 33 82  1  1
 34 83  1  0
 35 84  1  0
 36 85  1  0
 36 86  1  0
 36 87  1  0
 37 88  1  0
 38 89  1  0
 39 90  1  0
 43 91  1  0
 44 92  1  0
M  END
> <Uni-Dock RESULT> 
ENERGY=   -7.053  LOWER_BOUND=    6.719  UPPER_BOUND=    8.582
INTER + INTRA:          -7.053
INTER:                  -7.053
INTRA:                   0.000
UNBOUND:                 0.000

$$$$

     RDKit          3D

 92 90  0  0  0  0  0  0  0  0999 V2000
   45.1439    4.7627   13.0203 C   0  0  0  0  0  0  0  0  0  0  0  0
   43.9287    2.8345   12.0517 N   0  0  0  0  0  0  0  0  0  0  0  0
   45.8915    6.0505   12.7654 C   0  0  0  0  0  0  0  0  0  0  0  0
   44.4801    4.1659   11.7604 C   0  0  1  0  0  0  0  0  0  0  0  0
   47.1055    6.0411   12.0646 C   0  0  0  0  0  0  0  0  0  0  0  0
   45.3812    7.2731   13.2223 C   0  0  0  0  0  0  0  0  0  0  0  0
   43.3481    5.0454   11.2281 C   0  0  0  0  0  0  0  0  0  0  0  0
   47.7932    7.2316   11.8236 C   0  0  0  0  0  0  0  0  0  0  0  0
   46.0705    8.4626   12.9802 C   0  0  0  0  0  0  0  0  0  0  0  0
   47.2755    8.4417   12.2810 C   0  0  0  0  0  0  0  0  0  0  0  0
   44.0554    5.7802   12.4618 C   0  0  0  0  0  0  0  0  0  0  0  0
   42.7796    4.1318   11.1519 N   0  0  0  0  0  0  0  0  0  0  0  0
   45.3534    6.5321   12.6477 C   0  0  0  0  0  0  0  0  0  0  0  0
   44.1249    4.6789   11.3830 C   0  0  2  0  0  0  0  0  0  0  0  0
   46.1464    6.3178   13.7832 C   0  0  0  0  0  0  0  0  0  0  0  0
   45.7849    7.4517   11.6818 C   0  0  0  0  0  0  0  0  0  0  0  0
   45.0682    3.5390   11.7725 C   0  0  0  0  0  0  0  0  0  0  0  0
   46.9875    8.1402   11.8471 C   0  0  0  0  0  0  0  0  0  0  0  0
   47.3492    7.0072   13.9465 C   0  0  0  0  0  0  0  0  0  0  0  0
   47.7696    7.9174   12.9786 C   0  0  0  0  0  0  0  0  0  0  0  0
   45.1493    4.8976   11.8022 C   0  0  0  0  0  0  0  0  0  0  0  0
   46.0820    7.2096   12.3614 C   0  0  0  0  0  0  0  0  0  0  0  0
   43.7041    5.0993   12.1632 C   0  0  0  0  0  0  0  0  0  0  0  0
   46.0534    5.7156   12.7226 C   0  0  2  0  0  0  0  0  0  0  0  0
   46.9612    7.9972   12.6860 O   0  0  0  0  0  0  0  0  0  0  0  0
   43.2600    5.5037   13.2246 O   0  0  0  0  0  0  0  0  0  0  0  0
   47.4387    5.1859   12.6295 N   0  0  0  0  0  0  0  0  0  0  0  0
   45.0146    7.6501   11.6711 O   0  0  0  0  0  0  0  0  0  0  0  0
   42.8734    4.7187   11.1729 O   0  0  0  0  0  0  0  0  0  0  0  0
   45.0700    7.0823   12.0187 C   0  0  0  0  0  0  0  0  0  0  0  0
   47.0297    8.5956   12.0693 N   0  0  0  0  0  0  0  0  0  0  0  0
   44.5667    5.6588   11.9657 C   0  0  0  0  0  0  0  0  0  0  0  0
   46.5971    7.1979   12.2141 C   0  0  1  0  0  0  0  0  0  0  0  0
   44.8238    4.8552   10.8463 C   0  0  0  0  0  0  0  0  0  0  0  0
   43.8387    5.1200   13.0352 C   0  0  0  0  0  0  0  0  0  0  0  0
   47.0461    6.6991   13.5881 C   0  0  0  0  0  0  0  0  0  0  0  0
   44.3640    3.5383   10.7995 C   0  0  0  0  0  0  0  0  0  0  0  0
   43.3797    3.8026   12.9864 C   0  0  0  0  0  0  0  0  0  0  0  0
   43.6427    3.0122   11.8693 C   0  0  0  0  0  0  0  0  0  0  0  0
   45.0887    6.1160   12.1327 S   0  0  0  0  0  0  0  0  0  0  0  0
   45.4159    6.7931   10.9038 O   0  0  0  0  0  0  0  0  0  0  0  0
   43.9776    6.4754   12.9763 O   0  0  0  0  0  0  0  0  0  0  0  0
   44.9342    4.5498   11.8216 O   0  0  0  0  0  0  0  0  0  0  0  0
   46.4229    6.1237   13.0234 O   0  0  0  0  0  0  0  0  0  0  0  0
   45.8592    4.0422   13.4405 H   0  0  0  0  0  0  0  0  0  0  0  0
   44.3898    4.9189   13.8034 H   0  0  0  0  0  0  0  0  0  0  0  0
   43.2239    2.9053   12.7851 H   0  0  0  0  0  0  0  0  0  0  0  0
   44.6636    2.2318   12.4201 H   0  0  0  0  0  0  0  0  0  0  0  0
   45.2273    4.0469   10.9672 H   0  0  0  0  0  0  0  0  0  0  0  0
   47.5240    5.1049   11.7018 H   0  0  0  0  0  0  0  0  0  0  0  0
   44.4408    7.3088   13.7675 H   0  0  0  0  0  0  0  0  0  0  0  0
   42.5812    5.2203   11.9911 H   0  0  0  0  0  0  0  0  0  0  0  0
   42.8629    4.5777   10.3636 H   0  0  0  0  0  0  0  0  0  0  0  0
   43.7254    6.0185   10.8976 H   0  0  0  0  0  0  0  0  0  0  0  0
   48.7330    7.2146   11.2782 H   0  0  0  0  0  0  0  0  0  0  0  0
   45.6661    9.4062   13.3370 H   0  0  0  0  0  0  0  0  0  0  0  0
   47.8111    9.3682   12.0923 H   0  0  0  0  0  0  0  0  0  0  0  0
   43.7360    5.3492   13.4203 H   0  0  0  0  0  0  0  0  0  0  0  0
   43.2810    6.5131   12.1958 H   0  0  0  0  0  0  0  0  0  0  0  0
   42.4463    3.6712   11.9985 H   0  0  0  0  0  0  0  0  0  0  0  0
   42.8284    3.4040   10.4392 H   0  0  0  0  0  0  0  0  0  0  0  0
   44.4722    5.1120   10.4376 H   0  0  0  0  0  0  0  0  0  0  0  0
   45.8335    5.6106   14.5478 H   0  0  0  0  0  0  0  0  0  0  0  0
   45.1824    7.6387   10.7953 H   0  0  0  0  0  0  0  0  0  0  0  0
   46.1005    3.8924   11.8603 H   0  0  0  0  0  0  0  0  0  0  0  0
   45.0625    2.7488   11.0132 H   0  0  0  0  0  0  0  0  0  0  0  0
   44.7811    3.0890   12.7294 H   0  0  0  0  0  0  0  0  0  0  0  0
   47.3126    8.8524   11.0932 H   0  0  0  0  0  0  0  0  0  0  0  0
   47.9578    6.8344   14.8301 H   0  0  0  0  0  0  0  0  0  0  0  0
   48.7054    8.4546   13.1072 H   0  0  0  0  0  0  0  0  0  0  0  0
   45.3028    5.1792   10.7537 H   0  0  0  0  0  0  0  0  0  0  0  0
   45.3522    3.8251   11.9087 H   0  0  0  0  0  0  0  0  0  0  0  0
   45.7283    5.6500   13.7675 H   0  0  0  0  0  0  0  0  0  0  0  0
   48.0616    5.8483   13.1017 H   0  0  0  0  0  0  0  0  0  0  0  0
   47.5019    4.3157   13.1561 H   0  0  0  0  0  0  0  0  0  0  0  0
   45.1932    8.6074   11.5540 H   0  0  0  0  0  0  0  0  0  0  0  0
   41.9768    4.8912   11.5289 H   0  0  0  0  0  0  0  0  0  0  0  0
   44.7768    7.5714   11.0795 H   0  0  0  0  0  0  0  0  0  0  0  0
   44.5471    7.6327   12.8123 H   0  0  0  0  0  0  0  0  0  0  0  0
   46.7300    8.9552   11.1637 H   0  0  0  0  0  0  0  0  0  0  0  0
   46.5701    9.1742   12.7718 H   0  0  0  0  0  0  0  0  0  0  0  0
   47.1161    6.6111   11.4472 H   0  0  0  0  0  0  0  0  0  0  0  0
   45.3843    5.2509   10.0021 H   0  0  0  0  0  0  0  0  0  0  0  0
   43.6264    5.7214   13.9162 H   0  0  0  0  0  0  0  0  0  0  0  0
   46.8361    5.6315   13.7094 H   0  0  0  0  0  0  0  0  0  0  0  0
   46.5400    7.2378   14.3971 H   0  0  0  0  0  0  0  0  0  0  0  0
   48.1261    6.8320   13.7187 H   0  0  0  0  0  0  0  0  0  0  0  0
   44.5689    2.9225    9.9276 H   0  0  0  0  0  0  0  0  0  0  0  0
   42.8173    3.3927   13.8211 H   0  0  0  0  0  0  0  0  0  0  0  0
   43.2856    1.9865   11.8325 H   0  0  0  0  0  0  0  0  0  0  0  0
   44.4519    4.1516   12.5756 H   0  0  0  0  0  0  0  0  0  0  0  0
   47.1821    6.1692   12.4058 H   0  0  0  0  0  0  0  0  0  0  0  0
  4  2  1  0
  3  1  1  0
  4  1  1  0
  5  3  2  0
  6  3  1  0
  4  7  1  0
  8  5  1  0
  9  6  2  0
 10  8  2  0
  9 10  1  0
 12 14  1  0
 13 11  1  0
 14 11  1  0
 15 13  2  0
 16 13  1  0
 17 14  1  0
 18 16  2  0
 19 15  1  0
 20 18  1  0
 19 20  2  0
 22 24  1  0
 23 21  1  0
 24 21  1  0
 25 22  2  0
 26 23  2  0
 27 24  1  0
 28 22  1  0
 29 23  1  0
 33 31  1  0
 32 30  1  0
 33 30  1  0
 34 32  2  0
 35 32  1  0
 33 36  1  0
 37 34  1  0
 38 35  2  0
 39 37  2  0
 38 39  1  0
 41 40  2  0
 42 40  2  0
 43 40  1  0
 44 40  1  0
  1 45  1  0
  1 46  1  0
  2 47  1  0
  2 48  1  0
  4 49  1  1
  5 50  1  0
  6 51  1  0
  7 52  1  0
  7 53  1  0
  7 54  1  0
  8 55  1  0
  9 56  1  0
 10 57  1  0
 11 58  1  0
 11 59  1  0
 12 60  1  0
 12 61  1  0
 14 62  1  1
 15 63  1  0
 16 64  1  0
 17 65  1  0
 17 66  1  0
 17 67  1  0
 18 68  1  0
 19 69  1  0
 20 70  1  0
 21 71  1  0
 21 72  1  0
 24 73  1  6
 27 74  1  0
 27 75  1  0
 28 76  1  0
 29 77  1  0
 30 78  1  0
 30 79  1  0
 31 80  1  0
 31 81  1  0
 33 82  1  1
 34 83  1  0
 35 84  1  0
 36 85  1  0
 36 86  1  0
 36 87  1  0
 37 88  1  0
 38 89  1  0
 39 90  1  0
 43 91  1  0
 44 92  1  0
M  END
> <Uni-Dock RESULT> 
ENERGY=   -6.702  LOWER_BOUND=    0.998  UPPER_BOUND=    4.149
INTER + INTRA:          -6.702
INTER:                  -6.702
INTRA:                   0.000
UNBOUND:                 0.000

$$$$

     RDKit          3D

 92 90  0  0  0  0  0  0  0  0999 V2000
   44.7460    6.8282   11.4829 C   0  0  0  0  0  0  0  0  0  0  0  0
   42.6539    5.5031   11.5071 N   0  0  0  0  0  0  0  0  0  0  0  0
   45.9971    7.2398   12.2230 C   0  0  0  0  0  0  0  0  0  0  0  0
   43.9366    5.7207   12.1918 C   0  0  1  0  0  0  0  0  0  0  0  0
   45.9100    7.9863   13.4063 C   0  0  0  0  0  0  0  0  0  0  0  0
   47.2621    6.8789   11.7399 C   0  0  0  0  0  0  0  0  0  0  0  0
   44.6872    4.3892   12.2341 C   0  0  0  0  0  0  0  0  0  0  0  0
   47.0655    8.3613   14.0935 C   0  0  0  0  0  0  0  0  0  0  0  0
   48.4165    7.2549   12.4287 C   0  0  0  0  0  0  0  0  0  0  0  0
   48.3181    7.9953   13.6049 C   0  0  0  0  0  0  0  0  0  0  0  0
   45.6297    5.5089   11.5861 C   0  0  0  0  0  0  0  0  0  0  0  0
   43.7574    3.9446   11.9152 N   0  0  0  0  0  0  0  0  0  0  0  0
   46.4382    6.6630   12.1331 C   0  0  0  0  0  0  0  0  0  0  0  0
   44.3724    5.1819   12.4189 C   0  0  2  0  0  0  0  0  0  0  0  0
   46.4309    7.9081   11.4900 C   0  0  0  0  0  0  0  0  0  0  0  0
   47.2031    6.5044   13.2969 C   0  0  0  0  0  0  0  0  0  0  0  0
   43.3367    6.3073   12.3789 C   0  0  0  0  0  0  0  0  0  0  0  0
   47.9430    7.5712   13.8088 C   0  0  0  0  0  0  0  0  0  0  0  0
   47.1714    8.9742   12.0037 C   0  0  0  0  0  0  0  0  0  0  0  0
   47.9264    8.8058   13.1628 C   0  0  0  0  0  0  0  0  0  0  0  0
   44.6843    6.2563   12.5651 C   0  0  0  0  0  0  0  0  0  0  0  0
   47.0814    7.1046   12.8136 C   0  0  0  0  0  0  0  0  0  0  0  0
   44.9001    5.1297   11.5935 C   0  0  0  0  0  0  0  0  0  0  0  0
   45.6643    7.3962   12.2939 C   0  0  2  0  0  0  0  0  0  0  0  0
   47.9354    7.9503   13.0465 O   0  0  0  0  0  0  0  0  0  0  0  0
   45.4564    5.1885   10.5099 O   0  0  0  0  0  0  0  0  0  0  0  0
   45.1660    8.6268   12.9616 N   0  0  0  0  0  0  0  0  0  0  0  0
   47.3754    5.8009   12.9679 O   0  0  0  0  0  0  0  0  0  0  0  0
   44.3425    3.9781   12.0163 O   0  0  0  0  0  0  0  0  0  0  0  0
   46.8723    6.0673   12.6183 C   0  0  0  0  0  0  0  0  0  0  0  0
   48.4291    7.6655   13.6932 N   0  0  0  0  0  0  0  0  0  0  0  0
   45.4450    5.7423   12.2447 C   0  0  0  0  0  0  0  0  0  0  0  0
   47.0609    7.4915   13.1838 C   0  0  1  0  0  0  0  0  0  0  0  0
   44.4801    5.5318   13.2396 C   0  0  0  0  0  0  0  0  0  0  0  0
   45.0639    5.6493   10.8993 C   0  0  0  0  0  0  0  0  0  0  0  0
   46.8013    8.5723   12.1337 C   0  0  0  0  0  0  0  0  0  0  0  0
   43.1602    5.2371   12.8948 C   0  0  0  0  0  0  0  0  0  0  0  0
   43.7433    5.3546   10.5565 C   0  0  0  0  0  0  0  0  0  0  0  0
   42.7920    5.1490   11.5538 C   0  0  0  0  0  0  0  0  0  0  0  0
   45.9376    6.2335   12.4041 S   0  0  0  0  0  0  0  0  0  0  0  0
   46.4183    5.8857   13.7170 O   0  0  0  0  0  0  0  0  0  0  0  0
   46.3958    5.6085   11.1896 O   0  0  0  0  0  0  0  0  0  0  0  0
   44.3381    6.1106   12.4020 O   0  0  0  0  0  0  0  0  0  0  0  0
   46.1256    7.8200   12.2583 O   0  0  0  0  0  0  0  0  0  0  0  0
   44.1226    7.7249   11.3620 H   0  0  0  0  0  0  0  0  0  0  0  0
   45.0041    6.5102   10.4638 H   0  0  0  0  0  0  0  0  0  0  0  0
   42.8213    5.2142   10.5437 H   0  0  0  0  0  0  0  0  0  0  0  0
   42.1391    6.3814   11.4558 H   0  0  0  0  0  0  0  0  0  0  0  0
   43.7134    6.0242   13.2213 H   0  0  0  0  0  0  0  0  0  0  0  0
   44.9400    8.2812   13.8005 H   0  0  0  0  0  0  0  0  0  0  0  0
   47.3579    6.2988   10.8249 H   0  0  0  0  0  0  0  0  0  0  0  0
   44.9601    4.0487   11.2288 H   0  0  0  0  0  0  0  0  0  0  0  0
   44.0736    3.6089   12.6991 H   0  0  0  0  0  0  0  0  0  0  0  0
   45.6051    4.4711   12.8249 H   0  0  0  0  0  0  0  0  0  0  0  0
   46.9880    8.9389   15.0108 H   0  0  0  0  0  0  0  0  0  0  0  0
   49.3932    6.9690   12.0474 H   0  0  0  0  0  0  0  0  0  0  0  0
   49.2172    8.2871   14.1410 H   0  0  0  0  0  0  0  0  0  0  0  0
   45.3488    5.7139   10.5442 H   0  0  0  0  0  0  0  0  0  0  0  0
   46.2884    4.6302   11.5462 H   0  0  0  0  0  0  0  0  0  0  0  0
   43.4291    4.0886   10.9605 H   0  0  0  0  0  0  0  0  0  0  0  0
   42.9266    3.7311   12.4667 H   0  0  0  0  0  0  0  0  0  0  0  0
   44.6582    5.0073   13.4628 H   0  0  0  0  0  0  0  0  0  0  0  0
   45.8467    8.0569   10.5848 H   0  0  0  0  0  0  0  0  0  0  0  0
   47.2287    5.5450   13.8095 H   0  0  0  0  0  0  0  0  0  0  0  0
   43.7287    7.2220   12.8350 H   0  0  0  0  0  0  0  0  0  0  0  0
   42.4353    6.0305   12.9373 H   0  0  0  0  0  0  0  0  0  0  0  0
   43.0377    6.5419   11.3512 H   0  0  0  0  0  0  0  0  0  0  0  0
   48.5343    7.4377   14.7109 H   0  0  0  0  0  0  0  0  0  0  0  0
   47.1596    9.9362   11.4984 H   0  0  0  0  0  0  0  0  0  0  0  0
   48.5036    9.6358   13.5613 H   0  0  0  0  0  0  0  0  0  0  0  0
   44.7986    5.8785   13.5880 H   0  0  0  0  0  0  0  0  0  0  0  0
   43.6488    6.5918   12.4308 H   0  0  0  0  0  0  0  0  0  0  0  0
   45.7576    7.5995   11.2207 H   0  0  0  0  0  0  0  0  0  0  0  0
   45.9128    9.3275   12.9286 H   0  0  0  0  0  0  0  0  0  0  0  0
   44.3934    9.0132   12.4208 H   0  0  0  0  0  0  0  0  0  0  0  0
   48.3063    5.8081   13.2768 H   0  0  0  0  0  0  0  0  0  0  0  0
   44.5443    3.3355   11.3044 H   0  0  0  0  0  0  0  0  0  0  0  0
   47.1963    5.3258   13.3616 H   0  0  0  0  0  0  0  0  0  0  0  0
   47.5276    5.9183   11.7497 H   0  0  0  0  0  0  0  0  0  0  0  0
   48.6305    6.9467   14.3874 H   0  0  0  0  0  0  0  0  0  0  0  0
   49.0994    7.5273   12.9375 H   0  0  0  0  0  0  0  0  0  0  0  0
   46.3738    7.6530   14.0227 H   0  0  0  0  0  0  0  0  0  0  0  0
   44.7513    5.5956   14.2911 H   0  0  0  0  0  0  0  0  0  0  0  0
   45.7923    5.8093   10.1076 H   0  0  0  0  0  0  0  0  0  0  0  0
   45.7614    8.5505   11.7922 H   0  0  0  0  0  0  0  0  0  0  0  0
   47.4481    8.4465   11.2581 H   0  0  0  0  0  0  0  0  0  0  0  0
   46.9840    9.5709   12.5469 H   0  0  0  0  0  0  0  0  0  0  0  0
   42.4190    5.0764   13.6732 H   0  0  0  0  0  0  0  0  0  0  0  0
   43.4564    5.2860    9.5105 H   0  0  0  0  0  0  0  0  0  0  0  0
   41.7640    4.9202   11.2861 H   0  0  0  0  0  0  0  0  0  0  0  0
   44.0523    6.0742   11.4658 H   0  0  0  0  0  0  0  0  0  0  0  0
   46.0931    8.1987   13.1613 H   0  0  0  0  0  0  0  0  0  0  0  0
  4  2  1  0
  3  1  1  0
  4  1  1  0
  5  3  2  0
  6  3  1  0
  4  7  1  0
  8  5  1  0
  9  6  2  0
 10  8  2  0
  9 10  1  0
 12 14  1  0
 13 11  1  0
 14 11  1  0
 15 13  2  0
 16 13  1  0
 17 14  1  0
 18 16  2  0
 19 15  1  0
 20 18  1  0
 19 20  2  0
 22 24  1  0
 23 21  1  0
 24 21  1  0
 25 22  2  0
 26 23  2  0
 27 24  1  0
 28 22  1  0
 29 23  1  0
 33 31  1  0
 32 30  1  0
 33 30  1  0
 34 32  2  0
 35 32  1  0
 33 36  1  0
 37 34  1  0
 38 35  2  0
 39 37  2  0
 38 39  1  0
 41 40  2  0
 42 40  2  0
 43 40  1  0
 44 40  1  0
  1 45  1  0
  1 46  1  0
  2 47  1  0
  2 48  1  0
  4 49  1  1
  5 50  1  0
  6 51  1  0
  7 52  1  0
  7 53  1  0
  7 54  1  0
  8 55  1  0
  9 56  1  0
 10 57  1  0
 11 58  1  0
 11 59  1  0
 12 60  1  0
 12 61  1  0
 14 62  1  1
 15 63  1  0
 16 64  1  0
 17 65  1  0
 17 66  1  0
 17 67  1  0
 18 68  1  0
 19 69  1  0
 20 70  1  0
 21 71  1  0
 21 72  1  0
 24 73  1  6
 27 74  1  0
 27 75  1  0
 28 76  1  0
 29 77  1  0
 30 78  1  0
 30 79  1  0
 31 80  1  0
 31 81  1  0
 33 82  1  1
 34 83  1  0
 35 84  1  0
 36 85  1  0
 36 86  1  0
 36 87  1  0
 37 88  1  0
 38 89  1  0
 39 90  1  0
 43 91  1  0
 44 92  1  0
M  END
> <Uni-Dock RESULT> 
ENERGY=   -6.594  LOWER_BOUND=    0.986  UPPER_BOUND=    4.176
INTER + INTRA:          -6.594
INTER:                  -6.594
INTRA:                   0.000
UNBOUND:                 0.000

$$$$
