
     RDKit          3D

 82 79  0  0  0  0  0  0  0  0999 V2000
   -2.8939    0.3262   -0.0832 C   0  0  0  0  0  0  0  0  0  0  0  0
   -1.7983    1.0013    0.3165 C   0  0  0  0  0  0  0  0  0  0  0  0
    2.9332    0.0958   -0.7667 N   0  0  0  0  0  0  0  0  0  0  0  0
   -0.5172    0.4303    0.8626 C   0  0  0  0  0  0  0  0  0  0  0  0
    1.9596   -0.0237    0.3340 C   0  0  1  0  0  0  0  0  0  0  0  0
   -4.1103    1.0621   -0.5818 C   0  0  0  0  0  0  0  0  0  0  0  0
   -3.0280   -1.1717   -0.1001 C   0  0  0  0  0  0  0  0  0  0  0  0
    4.3162    0.1070   -0.3048 C   0  0  0  0  0  0  0  0  0  0  0  0
    0.5737    0.3872   -0.2123 C   0  0  0  0  0  0  0  0  0  0  0  0
    1.9458   -1.4514    0.8893 C   0  0  0  0  0  0  0  0  0  0  0  0
    0.8020   -0.7157   -0.9465 C   0  0  1  0  0  0  0  0  0  0  0  0
   -0.4145    0.2426   -1.0117 C   0  0  2  0  0  0  0  0  0  0  0  0
    1.7125   -0.5527    0.2811 C   0  0  2  0  0  0  0  0  0  0  0  0
   -1.3093    0.1945    0.2376 C   0  0  1  0  0  0  0  0  0  0  0  0
    2.2328    0.8762    0.3493 C   0  0  0  0  0  0  0  0  0  0  0  0
   -2.4905    1.1516    0.0729 C   0  0  0  0  0  0  0  0  0  0  0  0
    1.6383    1.8306    0.8225 O   0  0  0  0  0  0  0  0  0  0  0  0
   -2.4485    2.3497   -0.1455 O   0  0  0  0  0  0  0  0  0  0  0  0
    2.7988   -1.4866    0.2305 O   0  0  0  0  0  0  0  0  0  0  0  0
   -1.7130   -1.1605    0.4909 O   0  0  0  0  0  0  0  0  0  0  0  0
    0.3055   -2.0721   -1.0322 O   0  0  0  0  0  0  0  0  0  0  0  0
   -1.1921   -0.1608   -2.1604 O   0  0  0  0  0  0  0  0  0  0  0  0
   -3.6777    0.5168    0.2326 O   0  0  0  0  0  0  0  0  0  0  0  0
    3.4362    1.0306   -0.2432 O   0  0  0  0  0  0  0  0  0  0  0  0
    2.8620   -0.1072    0.0842 C   0  0  0  0  0  0  0  0  0  0  0  0
    1.8533   -0.8000    0.6481 C   0  0  0  0  0  0  0  0  0  0  0  0
   -2.1290    1.0618    0.3519 N   0  0  0  0  0  0  0  0  0  0  0  0
    0.4778   -0.2972    0.9997 C   0  0  0  0  0  0  0  0  0  0  0  0
   -2.0069   -0.4010    0.3768 C   0  0  2  0  0  0  0  0  0  0  0  0
    2.7816    1.3288   -0.3555 C   0  0  0  0  0  0  0  0  0  0  0  0
    4.1966   -0.7589   -0.1659 C   0  0  0  0  0  0  0  0  0  0  0  0
   -3.3351    1.5502    1.0033 C   0  0  0  0  0  0  0  0  0  0  0  0
   -0.5661   -0.7993   -0.0037 C   0  0  0  0  0  0  0  0  0  0  0  0
   -2.9903   -1.0689   -0.5905 C   0  0  0  0  0  0  0  0  0  0  0  0
   -1.8114    2.0899    0.2616 H   0  0  0  0  0  0  0  0  0  0  0  0
    2.7609    0.9624   -1.2768 H   0  0  0  0  0  0  0  0  0  0  0  0
   -0.6848   -0.5615    1.2903 H   0  0  0  0  0  0  0  0  0  0  0  0
   -0.1916    1.0658    1.6957 H   0  0  0  0  0  0  0  0  0  0  0  0
    2.2268    0.6753    1.1370 H   0  0  0  0  0  0  0  0  0  0  0  0
   -4.9798    0.8185    0.0376 H   0  0  0  0  0  0  0  0  0  0  0  0
   -3.9785    2.1489   -0.5563 H   0  0  0  0  0  0  0  0  0  0  0  0
   -4.3282    0.7782   -1.6166 H   0  0  0  0  0  0  0  0  0  0  0  0
   -2.1089   -1.6937    0.1744 H   0  0  0  0  0  0  0  0  0  0  0  0
   -3.2992   -1.5123   -1.1050 H   0  0  0  0  0  0  0  0  0  0  0  0
   -3.8134   -1.4873    0.5938 H   0  0  0  0  0  0  0  0  0  0  0  0
    4.4944    0.9120    0.4154 H   0  0  0  0  0  0  0  0  0  0  0  0
    4.6079   -0.8479    0.1406 H   0  0  0  0  0  0  0  0  0  0  0  0
    4.9785    0.2746   -1.1603 H   0  0  0  0  0  0  0  0  0  0  0  0
    0.6510    1.3834   -0.6699 H   0  0  0  0  0  0  0  0  0  0  0  0
    0.2695   -0.3006   -1.0131 H   0  0  0  0  0  0  0  0  0  0  0  0
    2.9277   -1.7500    1.2695 H   0  0  0  0  0  0  0  0  0  0  0  0
    1.2515   -1.5442    1.7298 H   0  0  0  0  0  0  0  0  0  0  0  0
    1.6468   -2.1746    0.1224 H   0  0  0  0  0  0  0  0  0  0  0  0
    1.3958   -0.5850   -1.8598 H   0  0  0  0  0  0  0  0  0  0  0  0
   -0.0843    1.2697   -1.1995 H   0  0  0  0  0  0  0  0  0  0  0  0
    1.1819   -0.7778    1.2108 H   0  0  0  0  0  0  0  0  0  0  0  0
   -0.7692    0.5266    1.1292 H   0  0  0  0  0  0  0  0  0  0  0  0
    3.3811   -1.1977   -0.4972 H   0  0  0  0  0  0  0  0  0  0  0  0
   -2.6952   -1.1386    0.4690 H   0  0  0  0  0  0  0  0  0  0  0  0
   -0.2843   -2.2072   -0.2587 H   0  0  0  0  0  0  0  0  0  0  0  0
   -1.1259   -1.1394   -2.1929 H   0  0  0  0  0  0  0  0  0  0  0  0
   -4.3390    1.2274    0.0806 H   0  0  0  0  0  0  0  0  0  0  0  0
    3.6584    1.9779   -0.1138 H   0  0  0  0  0  0  0  0  0  0  0  0
    2.0239   -1.8440    0.9105 H   0  0  0  0  0  0  0  0  0  0  0  0
   -2.0967    1.3976   -0.6104 H   0  0  0  0  0  0  0  0  0  0  0  0
    0.2307   -0.6654    2.0033 H   0  0  0  0  0  0  0  0  0  0  0  0
    0.4588    0.7942    1.0703 H   0  0  0  0  0  0  0  0  0  0  0  0
   -2.2019   -0.7722    1.3910 H   0  0  0  0  0  0  0  0  0  0  0  0
    3.1215    1.4240   -1.3923 H   0  0  0  0  0  0  0  0  0  0  0  0
    3.4236    1.9514    0.2755 H   0  0  0  0  0  0  0  0  0  0  0  0
    1.7698    1.7385   -0.3169 H   0  0  0  0  0  0  0  0  0  0  0  0
    4.4277   -0.7513   -1.2361 H   0  0  0  0  0  0  0  0  0  0  0  0
    4.2214   -1.8002    0.1724 H   0  0  0  0  0  0  0  0  0  0  0  0
    4.9868   -0.2182    0.3655 H   0  0  0  0  0  0  0  0  0  0  0  0
   -3.3141    2.6446    1.0249 H   0  0  0  0  0  0  0  0  0  0  0  0
   -4.2424    1.2498    0.4713 H   0  0  0  0  0  0  0  0  0  0  0  0
   -3.3950    1.2053    2.0407 H   0  0  0  0  0  0  0  0  0  0  0  0
   -0.3247   -0.4209   -1.0063 H   0  0  0  0  0  0  0  0  0  0  0  0
   -0.5047   -1.8943   -0.0634 H   0  0  0  0  0  0  0  0  0  0  0  0
   -2.8546   -2.1561   -0.5876 H   0  0  0  0  0  0  0  0  0  0  0  0
   -2.8443   -0.7166   -1.6178 H   0  0  0  0  0  0  0  0  0  0  0  0
   -4.0299   -0.8745   -0.3089 H   0  0  0  0  0  0  0  0  0  0  0  0
  2  1  2  3
  3  5  1  0
  4  2  1  0
  5  9  1  0
  6  1  1  0
  7  1  1  0
  8  3  1  0
  9  4  1  0
 10  5  1  0
 12 11  1  0
 13 11  1  0
 14 12  1  0
 15 13  1  0
 16 14  1  0
 17 15  2  0
 18 16  2  0
 13 19  1  0
 14 20  1  0
 11 21  1  0
 12 22  1  0
 23 16  1  0
 24 15  1  0
 26 25  2  3
 27 29  1  0
 28 26  1  0
 29 33  1  0
 30 25  1  0
 31 25  1  0
 32 27  1  0
 33 28  1  0
 34 29  1  0
  2 35  1  0
  3 36  1  0
  4 37  1  0
  4 38  1  0
  5 39  1  1
  6 40  1  0
  6 41  1  0
  6 42  1  0
  7 43  1  0
  7 44  1  0
  7 45  1  0
  8 46  1  0
  8 47  1  0
  8 48  1  0
  9 49  1  0
  9 50  1  0
 10 51  1  0
 10 52  1  0
 10 53  1  0
 11 54  1  6
 12 55  1  6
 13 56  1  1
 14 57  1  1
 19 58  1  0
 20 59  1  0
 21 60  1  0
 22 61  1  0
 23 62  1  0
 24 63  1  0
 26 64  1  0
 27 65  1  0
 28 66  1  0
 28 67  1  0
 29 68  1  1
 30 69  1  0
 30 70  1  0
 30 71  1  0
 31 72  1  0
 31 73  1  0
 31 74  1  0
 32 75  1  0
 32 76  1  0
 32 77  1  0
 33 78  1  0
 33 79  1  0
 34 80  1  0
 34 81  1  0
 34 82  1  0
M  END
$$$$
