
     RDKit          3D

 82 79  0  0  0  0  0  0  0  0999 V2000
    2.7263    0.3184    0.6603 C   0  0  0  0  0  0  0  0  0  0  0  0
    1.6079    0.6414   -0.0183 C   0  0  0  0  0  0  0  0  0  0  0  0
   -2.4053   -0.9305   -1.3110 N   0  0  0  0  0  0  0  0  0  0  0  0
    0.4474   -0.2467   -0.3787 C   0  0  0  0  0  0  0  0  0  0  0  0
   -2.0299   -0.7342    0.0966 C   0  0  1  0  0  0  0  0  0  0  0  0
    3.0529   -1.0423    1.2108 C   0  0  0  0  0  0  0  0  0  0  0  0
    3.7816    1.3596    0.9340 C   0  0  0  0  0  0  0  0  0  0  0  0
   -2.7877    0.2776   -2.0269 C   0  0  0  0  0  0  0  0  0  0  0  0
   -0.8304    0.2060    0.3363 C   0  0  0  0  0  0  0  0  0  0  0  0
   -3.2326   -0.2943    0.9383 C   0  0  0  0  0  0  0  0  0  0  0  0
   -0.5397    0.1533   -0.4979 C   0  0  1  0  0  0  0  0  0  0  0  0
    0.6508   -0.2800    0.3840 C   0  0  2  0  0  0  0  0  0  0  0  0
   -1.8827   -0.1581    0.1844 C   0  0  2  0  0  0  0  0  0  0  0  0
    1.9934    0.0266   -0.3029 C   0  0  1  0  0  0  0  0  0  0  0  0
   -3.0024   -0.2450   -0.8523 C   0  0  0  0  0  0  0  0  0  0  0  0
    3.1314    0.1074    0.7087 C   0  0  0  0  0  0  0  0  0  0  0  0
   -2.9698   -0.7793   -1.9471 O   0  0  0  0  0  0  0  0  0  0  0  0
    4.1860   -0.5073    0.6303 O   0  0  0  0  0  0  0  0  0  0  0  0
   -2.1368    0.8736    1.1571 O   0  0  0  0  0  0  0  0  0  0  0  0
    2.2452   -1.0173   -1.2634 O   0  0  0  0  0  0  0  0  0  0  0  0
   -0.4581    1.5732   -0.7292 O   0  0  0  0  0  0  0  0  0  0  0  0
    0.5645   -1.6954    0.6304 O   0  0  0  0  0  0  0  0  0  0  0  0
    2.9364    1.0052    1.6921 O   0  0  0  0  0  0  0  0  0  0  0  0
   -4.1539    0.3086   -0.3933 O   0  0  0  0  0  0  0  0  0  0  0  0
   -2.6209    0.2411   -1.0384 C   0  0  0  0  0  0  0  0  0  0  0  0
   -1.2932    0.2847   -1.2629 C   0  0  0  0  0  0  0  0  0  0  0  0
    2.6565   -0.7821    0.5067 N   0  0  0  0  0  0  0  0  0  0  0  0
   -0.2026   -0.3930   -0.4765 C   0  0  0  0  0  0  0  0  0  0  0  0
    1.6383   -0.0450    1.2703 C   0  0  2  0  0  0  0  0  0  0  0  0
   -3.2808   -0.4785    0.1053 C   0  0  0  0  0  0  0  0  0  0  0  0
   -3.5782    0.9536   -1.9576 C   0  0  0  0  0  0  0  0  0  0  0  0
    3.4179    0.0161   -0.4442 C   0  0  0  0  0  0  0  0  0  0  0  0
    0.5422    0.6116    0.4074 C   0  0  0  0  0  0  0  0  0  0  0  0
    2.2630    0.9806    2.2218 C   0  0  0  0  0  0  0  0  0  0  0  0
    1.4962    1.6696   -0.3642 H   0  0  0  0  0  0  0  0  0  0  0  0
   -1.6401   -1.3852   -1.8095 H   0  0  0  0  0  0  0  0  0  0  0  0
    0.6427   -1.2967   -0.1459 H   0  0  0  0  0  0  0  0  0  0  0  0
    0.3121   -0.1911   -1.4653 H   0  0  0  0  0  0  0  0  0  0  0  0
   -1.7431   -1.7263    0.4696 H   0  0  0  0  0  0  0  0  0  0  0  0
    2.3531   -1.8208    0.8989 H   0  0  0  0  0  0  0  0  0  0  0  0
    4.0478   -1.3551    0.8748 H   0  0  0  0  0  0  0  0  0  0  0  0
    3.0510   -1.0135    2.3062 H   0  0  0  0  0  0  0  0  0  0  0  0
    4.7340    1.0623    0.4820 H   0  0  0  0  0  0  0  0  0  0  0  0
    3.5141    2.3404    0.5274 H   0  0  0  0  0  0  0  0  0  0  0  0
    3.9289    1.4750    2.0129 H   0  0  0  0  0  0  0  0  0  0  0  0
   -3.6567    0.7659   -1.5771 H   0  0  0  0  0  0  0  0  0  0  0  0
   -3.0698    0.0089   -3.0497 H   0  0  0  0  0  0  0  0  0  0  0  0
   -1.9650    0.9947   -2.0960 H   0  0  0  0  0  0  0  0  0  0  0  0
   -1.0827    1.2314    0.0366 H   0  0  0  0  0  0  0  0  0  0  0  0
   -0.6342    0.2464    1.4166 H   0  0  0  0  0  0  0  0  0  0  0  0
   -3.5465    0.7287    0.7058 H   0  0  0  0  0  0  0  0  0  0  0  0
   -4.0875   -0.9612    0.7805 H   0  0  0  0  0  0  0  0  0  0  0  0
   -2.9848   -0.3282    2.0053 H   0  0  0  0  0  0  0  0  0  0  0  0
   -0.4725   -0.3551   -1.4667 H   0  0  0  0  0  0  0  0  0  0  0  0
    0.5814    0.2349    1.3481 H   0  0  0  0  0  0  0  0  0  0  0  0
   -1.8750   -1.1206    0.7059 H   0  0  0  0  0  0  0  0  0  0  0  0
    1.9844    0.9807   -0.8394 H   0  0  0  0  0  0  0  0  0  0  0  0
   -3.1062    0.8586    1.2914 H   0  0  0  0  0  0  0  0  0  0  0  0
    3.2007   -0.9713   -1.4673 H   0  0  0  0  0  0  0  0  0  0  0  0
   -0.8651    1.9832    0.0647 H   0  0  0  0  0  0  0  0  0  0  0  0
    1.0163   -2.1156   -0.1335 H   0  0  0  0  0  0  0  0  0  0  0  0
    3.7516    0.9546    2.2354 H   0  0  0  0  0  0  0  0  0  0  0  0
   -4.7800    0.1851   -1.1395 H   0  0  0  0  0  0  0  0  0  0  0  0
   -0.9295    0.8528   -2.1194 H   0  0  0  0  0  0  0  0  0  0  0  0
    3.3058   -1.2243    1.1577 H   0  0  0  0  0  0  0  0  0  0  0  0
    0.4862   -0.8548   -1.1938 H   0  0  0  0  0  0  0  0  0  0  0  0
   -0.5947   -1.2128    0.1330 H   0  0  0  0  0  0  0  0  0  0  0  0
    1.1409   -0.7936    1.9014 H   0  0  0  0  0  0  0  0  0  0  0  0
   -2.5726   -0.8600    0.8444 H   0  0  0  0  0  0  0  0  0  0  0  0
   -3.8679   -1.3226   -0.2704 H   0  0  0  0  0  0  0  0  0  0  0  0
   -3.9565    0.2007    0.6368 H   0  0  0  0  0  0  0  0  0  0  0  0
   -4.1406    1.7135   -1.4054 H   0  0  0  0  0  0  0  0  0  0  0  0
   -3.0657    1.4553   -2.7853 H   0  0  0  0  0  0  0  0  0  0  0  0
   -4.2881    0.2408   -2.3901 H   0  0  0  0  0  0  0  0  0  0  0  0
    3.9856    0.8132    0.0445 H   0  0  0  0  0  0  0  0  0  0  0  0
    4.1389   -0.6319   -0.9533 H   0  0  0  0  0  0  0  0  0  0  0  0
    2.7803    0.4480   -1.2208 H   0  0  0  0  0  0  0  0  0  0  0  0
   -0.1814    1.0967    1.0766 H   0  0  0  0  0  0  0  0  0  0  0  0
    0.9665    1.4143   -0.2091 H   0  0  0  0  0  0  0  0  0  0  0  0
    3.0350    0.5190    2.8469 H   0  0  0  0  0  0  0  0  0  0  0  0
    1.5006    1.3930    2.8924 H   0  0  0  0  0  0  0  0  0  0  0  0
    2.7150    1.8190    1.6821 H   0  0  0  0  0  0  0  0  0  0  0  0
  2  1  2  3
  3  5  1  0
  4  2  1  0
  5  9  1  0
  6  1  1  0
  7  1  1  0
  8  3  1  0
  9  4  1  0
 10  5  1  0
 12 11  1  0
 13 11  1  0
 14 12  1  0
 15 13  1  0
 16 14  1  0
 17 15  2  0
 18 16  2  0
 13 19  1  0
 14 20  1  0
 11 21  1  0
 12 22  1  0
 23 16  1  0
 24 15  1  0
 26 25  2  3
 27 29  1  0
 28 26  1  0
 29 33  1  0
 30 25  1  0
 31 25  1  0
 32 27  1  0
 33 28  1  0
 34 29  1  0
  2 35  1  0
  3 36  1  0
  4 37  1  0
  4 38  1  0
  5 39  1  1
  6 40  1  0
  6 41  1  0
  6 42  1  0
  7 43  1  0
  7 44  1  0
  7 45  1  0
  8 46  1  0
  8 47  1  0
  8 48  1  0
  9 49  1  0
  9 50  1  0
 10 51  1  0
 10 52  1  0
 10 53  1  0
 11 54  1  6
 12 55  1  1
 13 56  1  1
 14 57  1  6
 19 58  1  0
 20 59  1  0
 21 60  1  0
 22 61  1  0
 23 62  1  0
 24 63  1  0
 26 64  1  0
 27 65  1  0
 28 66  1  0
 28 67  1  0
 29 68  1  1
 30 69  1  0
 30 70  1  0
 30 71  1  0
 31 72  1  0
 31 73  1  0
 31 74  1  0
 32 75  1  0
 32 76  1  0
 32 77  1  0
 33 78  1  0
 33 79  1  0
 34 80  1  0
 34 81  1  0
 34 82  1  0
M  END
$$$$
