
     RDKit          3D

 82 79  0  0  0  0  0  0  0  0999 V2000
   -2.9166   -0.1627    0.2418 C   0  0  0  0  0  0  0  0  0  0  0  0
   -1.7853   -0.2641    0.9668 C   0  0  0  0  0  0  0  0  0  0  0  0
    2.8304   -0.7466   -0.7216 N   0  0  0  0  0  0  0  0  0  0  0  0
   -0.4861    0.4672    0.7598 C   0  0  0  0  0  0  0  0  0  0  0  0
    1.9177    0.2491   -0.1301 C   0  0  1  0  0  0  0  0  0  0  0  0
   -4.1427   -0.9516    0.6223 C   0  0  0  0  0  0  0  0  0  0  0  0
   -3.0910    0.6955   -0.9805 C   0  0  0  0  0  0  0  0  0  0  0  0
    3.9590   -0.1425   -1.4199 C   0  0  0  0  0  0  0  0  0  0  0  0
    0.5997   -0.4739    0.2286 C   0  0  0  0  0  0  0  0  0  0  0  0
    2.5538    0.9070    1.0992 C   0  0  0  0  0  0  0  0  0  0  0  0
   -0.3720   -1.1930   -0.1107 C   0  0  1  0  0  0  0  0  0  0  0  0
    0.5285   -0.3789   -1.0622 C   0  0  2  0  0  0  0  0  0  0  0  0
   -1.7324   -0.5233    0.1978 C   0  0  2  0  0  0  0  0  0  0  0  0
    0.9644    1.0064   -0.5668 C   0  0  1  0  0  0  0  0  0  0  0  0
   -1.7895   -0.2049    1.6895 C   0  0  0  0  0  0  0  0  0  0  0  0
    1.9771    0.9159    0.5725 C   0  0  0  0  0  0  0  0  0  0  0  0
   -2.4672   -0.7540    2.5425 O   0  0  0  0  0  0  0  0  0  0  0  0
    2.0810    0.0430    1.4151 O   0  0  0  0  0  0  0  0  0  0  0  0
   -2.8147   -1.3804   -0.1828 O   0  0  0  0  0  0  0  0  0  0  0  0
    1.5549    1.6876   -1.6954 O   0  0  0  0  0  0  0  0  0  0  0  0
   -0.6164   -2.4783   -0.7282 O   0  0  0  0  0  0  0  0  0  0  0  0
   -0.1793   -0.2267   -2.3140 O   0  0  0  0  0  0  0  0  0  0  0  0
    2.7972    1.9937    0.5928 O   0  0  0  0  0  0  0  0  0  0  0  0
   -0.9630    0.8082    2.0344 O   0  0  0  0  0  0  0  0  0  0  0  0
    2.9393    0.0904    0.1762 C   0  0  0  0  0  0  0  0  0  0  0  0
    1.8926    0.6438   -0.4676 C   0  0  0  0  0  0  0  0  0  0  0  0
   -2.8238   -0.6200   -1.0353 N   0  0  0  0  0  0  0  0  0  0  0  0
    0.5033    0.8933    0.0567 C   0  0  0  0  0  0  0  0  0  0  0  0
   -1.9687    0.2270   -0.1886 C   0  0  2  0  0  0  0  0  0  0  0  0
    2.9240   -0.4194    1.5908 C   0  0  0  0  0  0  0  0  0  0  0  0
    4.2646   -0.0751   -0.5221 C   0  0  0  0  0  0  0  0  0  0  0  0
   -4.2208   -0.2120   -1.0400 C   0  0  0  0  0  0  0  0  0  0  0  0
   -0.5087   -0.0490   -0.6059 C   0  0  0  0  0  0  0  0  0  0  0  0
   -2.1981   -0.0614    1.2987 C   0  0  0  0  0  0  0  0  0  0  0  0
   -1.7807   -0.9356    1.8261 H   0  0  0  0  0  0  0  0  0  0  0  0
    2.3134   -1.3198   -1.3893 H   0  0  0  0  0  0  0  0  0  0  0  0
   -0.1877    0.8805    1.7298 H   0  0  0  0  0  0  0  0  0  0  0  0
   -0.6030    1.3224    0.0879 H   0  0  0  0  0  0  0  0  0  0  0  0
    1.6875    1.0211   -0.8756 H   0  0  0  0  0  0  0  0  0  0  0  0
   -4.9735   -0.2744    0.8474 H   0  0  0  0  0  0  0  0  0  0  0  0
   -4.4430   -1.6094   -0.2002 H   0  0  0  0  0  0  0  0  0  0  0  0
   -3.9774   -1.5786    1.5049 H   0  0  0  0  0  0  0  0  0  0  0  0
   -2.1620    1.1544   -1.3266 H   0  0  0  0  0  0  0  0  0  0  0  0
   -3.4725    0.0928   -1.8114 H   0  0  0  0  0  0  0  0  0  0  0  0
   -3.8093    1.4965   -0.7783 H   0  0  0  0  0  0  0  0  0  0  0  0
    3.6269    0.5451   -2.2045 H   0  0  0  0  0  0  0  0  0  0  0  0
    4.6295    0.3852   -0.7363 H   0  0  0  0  0  0  0  0  0  0  0  0
    4.5492   -0.9320   -1.8967 H   0  0  0  0  0  0  0  0  0  0  0  0
    0.7957   -1.2617    0.9688 H   0  0  0  0  0  0  0  0  0  0  0  0
    0.2142   -0.9783   -0.6686 H   0  0  0  0  0  0  0  0  0  0  0  0
    2.7764    0.1677    1.8764 H   0  0  0  0  0  0  0  0  0  0  0  0
    1.8926    1.6637    1.5322 H   0  0  0  0  0  0  0  0  0  0  0  0
    3.4847    1.4243    0.8475 H   0  0  0  0  0  0  0  0  0  0  0  0
    0.1740   -1.4109    0.8117 H   0  0  0  0  0  0  0  0  0  0  0  0
    1.4145   -0.9783   -1.3087 H   0  0  0  0  0  0  0  0  0  0  0  0
   -1.8775    0.4184   -0.3404 H   0  0  0  0  0  0  0  0  0  0  0  0
    0.1167    1.6180   -0.2482 H   0  0  0  0  0  0  0  0  0  0  0  0
   -2.5486   -2.2794    0.0954 H   0  0  0  0  0  0  0  0  0  0  0  0
    2.0656    2.4298   -1.3112 H   0  0  0  0  0  0  0  0  0  0  0  0
   -0.9456   -2.2608   -1.6271 H   0  0  0  0  0  0  0  0  0  0  0  0
    0.3456    0.4316   -2.8194 H   0  0  0  0  0  0  0  0  0  0  0  0
    3.3905    1.8319    1.3590 H   0  0  0  0  0  0  0  0  0  0  0  0
   -1.1039    0.8844    3.0044 H   0  0  0  0  0  0  0  0  0  0  0  0
    2.0341    0.9650   -1.5004 H   0  0  0  0  0  0  0  0  0  0  0  0
   -2.7488   -1.5944   -0.7438 H   0  0  0  0  0  0  0  0  0  0  0  0
    0.2378    1.9346   -0.1653 H   0  0  0  0  0  0  0  0  0  0  0  0
    0.4655    0.7954    1.1436 H   0  0  0  0  0  0  0  0  0  0  0  0
   -2.1864    1.2831   -0.3906 H   0  0  0  0  0  0  0  0  0  0  0  0
    3.1445   -1.4926    1.6054 H   0  0  0  0  0  0  0  0  0  0  0  0
    3.6858    0.0980    2.1849 H   0  0  0  0  0  0  0  0  0  0  0  0
    1.9670   -0.2795    2.0990 H   0  0  0  0  0  0  0  0  0  0  0  0
    4.2389    0.2853   -1.5557 H   0  0  0  0  0  0  0  0  0  0  0  0
    5.0433    0.4850    0.0063 H   0  0  0  0  0  0  0  0  0  0  0  0
    4.5514   -1.1316   -0.5464 H   0  0  0  0  0  0  0  0  0  0  0  0
   -4.6938   -0.3438   -0.0626 H   0  0  0  0  0  0  0  0  0  0  0  0
   -4.7718   -0.8280   -1.7574 H   0  0  0  0  0  0  0  0  0  0  0  0
   -4.3297    0.8309   -1.3553 H   0  0  0  0  0  0  0  0  0  0  0  0
   -0.4233    0.0602   -1.6970 H   0  0  0  0  0  0  0  0  0  0  0  0
   -0.2444   -1.0910   -0.3752 H   0  0  0  0  0  0  0  0  0  0  0  0
   -1.5917    0.5963    1.9289 H   0  0  0  0  0  0  0  0  0  0  0  0
   -3.2401    0.1074    1.5881 H   0  0  0  0  0  0  0  0  0  0  0  0
   -1.9421   -1.0975    1.5480 H   0  0  0  0  0  0  0  0  0  0  0  0
  2  1  2  3
  3  5  1  0
  4  2  1  0
  5  9  1  0
  6  1  1  0
  7  1  1  0
  8  3  1  0
  9  4  1  0
 10  5  1  0
 12 11  1  0
 13 11  1  0
 14 12  1  0
 15 13  1  0
 16 14  1  0
 17 15  2  0
 18 16  2  0
 13 19  1  0
 14 20  1  0
 11 21  1  0
 12 22  1  0
 23 16  1  0
 24 15  1  0
 26 25  2  3
 27 29  1  0
 28 26  1  0
 29 33  1  0
 30 25  1  0
 31 25  1  0
 32 27  1  0
 33 28  1  0
 34 29  1  0
  2 35  1  0
  3 36  1  0
  4 37  1  0
  4 38  1  0
  5 39  1  6
  6 40  1  0
  6 41  1  0
  6 42  1  0
  7 43  1  0
  7 44  1  0
  7 45  1  0
  8 46  1  0
  8 47  1  0
  8 48  1  0
  9 49  1  0
  9 50  1  0
 10 51  1  0
 10 52  1  0
 10 53  1  0
 11 54  1  1
 12 55  1  6
 13 56  1  6
 14 57  1  1
 19 58  1  0
 20 59  1  0
 21 60  1  0
 22 61  1  0
 23 62  1  0
 24 63  1  0
 26 64  1  0
 27 65  1  0
 28 66  1  0
 28 67  1  0
 29 68  1  1
 30 69  1  0
 30 70  1  0
 30 71  1  0
 31 72  1  0
 31 73  1  0
 31 74  1  0
 32 75  1  0
 32 76  1  0
 32 77  1  0
 33 78  1  0
 33 79  1  0
 34 80  1  0
 34 81  1  0
 34 82  1  0
M  END
$$$$
