
     RDKit          3D

 82 79  0  0  0  0  0  0  0  0999 V2000
    2.8387    0.1547    0.1412 C   0  0  0  0  0  0  0  0  0  0  0  0
    1.9414   -0.8440    0.0531 C   0  0  0  0  0  0  0  0  0  0  0  0
   -2.2757    0.1604   -1.0430 N   0  0  0  0  0  0  0  0  0  0  0  0
    0.5282   -0.7549   -0.4541 C   0  0  0  0  0  0  0  0  0  0  0  0
   -1.9314   -0.4321    0.2619 C   0  0  1  0  0  0  0  0  0  0  0  0
    2.5648    1.5873   -0.2263 C   0  0  0  0  0  0  0  0  0  0  0  0
    4.2255   -0.0996    0.6686 C   0  0  0  0  0  0  0  0  0  0  0  0
   -3.6403   -0.1388   -1.4616 C   0  0  0  0  0  0  0  0  0  0  0  0
   -0.4392   -0.2080    0.5996 C   0  0  0  0  0  0  0  0  0  0  0  0
   -2.7867    0.1628    1.3886 C   0  0  0  0  0  0  0  0  0  0  0  0
   -0.8540    0.2556   -0.7454 C   0  0  1  0  0  0  0  0  0  0  0  0
    0.4626    1.0634   -0.6475 C   0  0  2  0  0  0  0  0  0  0  0  0
   -1.2448   -0.5241    0.5194 C   0  0  2  0  0  0  0  0  0  0  0  0
    1.6317    0.4198    0.1078 C   0  0  1  0  0  0  0  0  0  0  0  0
   -2.5309   -1.3134    0.2833 C   0  0  0  0  0  0  0  0  0  0  0  0
    2.1228   -0.8498   -0.5747 C   0  0  0  0  0  0  0  0  0  0  0  0
   -3.6027   -1.1371    0.8419 O   0  0  0  0  0  0  0  0  0  0  0  0
    1.4650   -1.6250   -1.2464 O   0  0  0  0  0  0  0  0  0  0  0  0
   -1.3743    0.3585    1.6340 O   0  0  0  0  0  0  0  0  0  0  0  0
    2.6837    1.4040    0.1682 O   0  0  0  0  0  0  0  0  0  0  0  0
   -1.9025    1.2015   -1.0561 O   0  0  0  0  0  0  0  0  0  0  0  0
    0.1595    2.3417   -0.0309 O   0  0  0  0  0  0  0  0  0  0  0  0
    3.4297   -1.0897   -0.3257 O   0  0  0  0  0  0  0  0  0  0  0  0
   -2.3859   -2.3123   -0.6103 O   0  0  0  0  0  0  0  0  0  0  0  0
    2.9184   -0.0866   -0.1422 C   0  0  0  0  0  0  0  0  0  0  0  0
    1.9156   -0.7397    0.4753 C   0  0  0  0  0  0  0  0  0  0  0  0
   -2.7997    0.0463   -0.6433 N   0  0  0  0  0  0  0  0  0  0  0  0
    0.6270   -0.1681    1.0031 C   0  0  0  0  0  0  0  0  0  0  0  0
   -1.8698    0.1583    0.4901 C   0  0  2  0  0  0  0  0  0  0  0  0
    4.1333   -0.8324   -0.6298 C   0  0  0  0  0  0  0  0  0  0  0  0
    2.9450    1.3884   -0.4375 C   0  0  0  0  0  0  0  0  0  0  0  0
   -4.0085    0.8443   -0.4858 C   0  0  0  0  0  0  0  0  0  0  0  0
   -0.5259   -0.4444    0.0324 C   0  0  0  0  0  0  0  0  0  0  0  0
   -2.4116   -0.5586    1.7289 C   0  0  0  0  0  0  0  0  0  0  0  0
    2.2411   -1.8407    0.3739 H   0  0  0  0  0  0  0  0  0  0  0  0
   -1.6453   -0.2125   -1.7528 H   0  0  0  0  0  0  0  0  0  0  0  0
    0.2174   -1.7622   -0.7542 H   0  0  0  0  0  0  0  0  0  0  0  0
    0.4999   -0.1543   -1.3677 H   0  0  0  0  0  0  0  0  0  0  0  0
   -2.1046   -1.5163    0.2259 H   0  0  0  0  0  0  0  0  0  0  0  0
    3.3960    2.0037   -0.8097 H   0  0  0  0  0  0  0  0  0  0  0  0
    2.4529    2.1850    0.6863 H   0  0  0  0  0  0  0  0  0  0  0  0
    1.6580    1.7158   -0.8233 H   0  0  0  0  0  0  0  0  0  0  0  0
    4.3949    0.4783    1.5823 H   0  0  0  0  0  0  0  0  0  0  0  0
    4.9729    0.1884   -0.0757 H   0  0  0  0  0  0  0  0  0  0  0  0
    4.3921   -1.1576    0.9029 H   0  0  0  0  0  0  0  0  0  0  0  0
   -3.8525   -1.2121   -1.4075 H   0  0  0  0  0  0  0  0  0  0  0  0
   -4.3777    0.4088   -0.8651 H   0  0  0  0  0  0  0  0  0  0  0  0
   -3.7754    0.1760   -2.5012 H   0  0  0  0  0  0  0  0  0  0  0  0
   -0.2311   -0.6927    1.5606 H   0  0  0  0  0  0  0  0  0  0  0  0
   -0.2485    0.8620    0.7500 H   0  0  0  0  0  0  0  0  0  0  0  0
   -3.8376   -0.1310    1.2973 H   0  0  0  0  0  0  0  0  0  0  0  0
   -2.7379    1.2584    1.3873 H   0  0  0  0  0  0  0  0  0  0  0  0
   -2.4400   -0.1847    2.3692 H   0  0  0  0  0  0  0  0  0  0  0  0
   -0.7924   -0.4342   -1.5937 H   0  0  0  0  0  0  0  0  0  0  0  0
    0.7782    1.3235   -1.6653 H   0  0  0  0  0  0  0  0  0  0  0  0
   -0.4750   -1.2537    0.7889 H   0  0  0  0  0  0  0  0  0  0  0  0
    1.3631    0.1871    1.1439 H   0  0  0  0  0  0  0  0  0  0  0  0
   -2.1739    0.8920    1.4531 H   0  0  0  0  0  0  0  0  0  0  0  0
    3.4418    0.9419    0.5788 H   0  0  0  0  0  0  0  0  0  0  0  0
   -1.5854    2.0525   -0.6781 H   0  0  0  0  0  0  0  0  0  0  0  0
    1.0356    2.7292    0.1816 H   0  0  0  0  0  0  0  0  0  0  0  0
    3.6274   -1.9176   -0.8172 H   0  0  0  0  0  0  0  0  0  0  0  0
   -3.2792   -2.7136   -0.6582 H   0  0  0  0  0  0  0  0  0  0  0  0
    2.0082   -1.8181    0.6143 H   0  0  0  0  0  0  0  0  0  0  0  0
   -3.0457   -0.9311   -0.7975 H   0  0  0  0  0  0  0  0  0  0  0  0
    0.7062    0.9057    1.1953 H   0  0  0  0  0  0  0  0  0  0  0  0
    0.4346   -0.6344    1.9760 H   0  0  0  0  0  0  0  0  0  0  0  0
   -1.7075    1.2187    0.7205 H   0  0  0  0  0  0  0  0  0  0  0  0
    4.0771   -1.9068   -0.4227 H   0  0  0  0  0  0  0  0  0  0  0  0
    4.2403   -0.7068   -1.7130 H   0  0  0  0  0  0  0  0  0  0  0  0
    5.0360   -0.4459   -0.1441 H   0  0  0  0  0  0  0  0  0  0  0  0
    2.1207    1.9399    0.0182 H   0  0  0  0  0  0  0  0  0  0  0  0
    3.8712    1.8294   -0.0591 H   0  0  0  0  0  0  0  0  0  0  0  0
    2.8986    1.5532   -1.5200 H   0  0  0  0  0  0  0  0  0  0  0  0
   -4.6663    0.4426    0.2895 H   0  0  0  0  0  0  0  0  0  0  0  0
   -3.7763    1.8867   -0.2518 H   0  0  0  0  0  0  0  0  0  0  0  0
   -4.5704    0.8368   -1.4243 H   0  0  0  0  0  0  0  0  0  0  0  0
   -0.6331   -1.5289   -0.1161 H   0  0  0  0  0  0  0  0  0  0  0  0
   -0.2601   -0.0203   -0.9482 H   0  0  0  0  0  0  0  0  0  0  0  0
   -2.5716   -1.6249    1.5329 H   0  0  0  0  0  0  0  0  0  0  0  0
   -1.7216   -0.4723    2.5727 H   0  0  0  0  0  0  0  0  0  0  0  0
   -3.3640   -0.1309    2.0603 H   0  0  0  0  0  0  0  0  0  0  0  0
  2  1  2  3
  3  5  1  0
  4  2  1  0
  5  9  1  0
  6  1  1  0
  7  1  1  0
  8  3  1  0
  9  4  1  0
 10  5  1  0
 12 11  1  0
 13 11  1  0
 14 12  1  0
 15 13  1  0
 16 14  1  0
 17 15  2  0
 18 16  2  0
 13 19  1  0
 14 20  1  0
 11 21  1  0
 12 22  1  0
 23 16  1  0
 24 15  1  0
 26 25  2  3
 27 29  1  0
 28 26  1  0
 29 33  1  0
 30 25  1  0
 31 25  1  0
 32 27  1  0
 33 28  1  0
 34 29  1  0
  2 35  1  0
  3 36  1  0
  4 37  1  0
  4 38  1  0
  5 39  1  6
  6 40  1  0
  6 41  1  0
  6 42  1  0
  7 43  1  0
  7 44  1  0
  7 45  1  0
  8 46  1  0
  8 47  1  0
  8 48  1  0
  9 49  1  0
  9 50  1  0
 10 51  1  0
 10 52  1  0
 10 53  1  0
 11 54  1  6
 12 55  1  6
 13 56  1  1
 14 57  1  1
 19 58  1  0
 20 59  1  0
 21 60  1  0
 22 61  1  0
 23 62  1  0
 24 63  1  0
 26 64  1  0
 27 65  1  0
 28 66  1  0
 28 67  1  0
 29 68  1  1
 30 69  1  0
 30 70  1  0
 30 71  1  0
 31 72  1  0
 31 73  1  0
 31 74  1  0
 32 75  1  0
 32 76  1  0
 32 77  1  0
 33 78  1  0
 33 79  1  0
 34 80  1  0
 34 81  1  0
 34 82  1  0
M  END
$$$$
