
     RDKit          3D

 82 79  0  0  0  0  0  0  0  0999 V2000
    2.7675   -0.2986    0.2087 C   0  0  0  0  0  0  0  0  0  0  0  0
    1.6774   -0.3698    0.9965 C   0  0  0  0  0  0  0  0  0  0  0  0
   -3.1237   -0.2426   -0.3293 N   0  0  0  0  0  0  0  0  0  0  0  0
    0.4469    0.4959    0.9588 C   0  0  0  0  0  0  0  0  0  0  0  0
   -2.0578    0.5100    0.3610 C   0  0  1  0  0  0  0  0  0  0  0  0
    3.9012   -1.2754    0.3848 C   0  0  0  0  0  0  0  0  0  0  0  0
    2.9694    0.6870   -0.9088 C   0  0  0  0  0  0  0  0  0  0  0  0
   -3.5537   -1.4254    0.4083 C   0  0  0  0  0  0  0  0  0  0  0  0
   -0.7073   -0.2282    0.2556 C   0  0  0  0  0  0  0  0  0  0  0  0
   -1.9909    1.9051   -0.2761 C   0  0  0  0  0  0  0  0  0  0  0  0
    0.6109    0.5911    1.1781 C   0  0  1  0  0  0  0  0  0  0  0  0
   -0.5923    0.8574    0.2473 C   0  0  2  0  0  0  0  0  0  0  0  0
    1.6529   -0.4307    0.6847 C   0  0  2  0  0  0  0  0  0  0  0  0
   -1.4241   -0.3502   -0.2061 C   0  0  1  0  0  0  0  0  0  0  0  0
    2.1648   -0.1521   -0.7277 C   0  0  0  0  0  0  0  0  0  0  0  0
   -2.3491   -0.9088    0.8689 C   0  0  0  0  0  0  0  0  0  0  0  0
    2.0852   -0.9368   -1.6648 O   0  0  0  0  0  0  0  0  0  0  0  0
   -3.5084   -1.2487    0.6725 O   0  0  0  0  0  0  0  0  0  0  0  0
    1.0925   -1.7507    0.7534 O   0  0  0  0  0  0  0  0  0  0  0  0
   -2.2549    0.1248   -1.2994 O   0  0  0  0  0  0  0  0  0  0  0  0
    1.2541    1.8526    1.4496 O   0  0  0  0  0  0  0  0  0  0  0  0
   -0.1029    1.5541   -0.9281 O   0  0  0  0  0  0  0  0  0  0  0  0
   -1.7964   -1.0638    2.0808 O   0  0  0  0  0  0  0  0  0  0  0  0
    2.8045    1.0247   -0.8654 O   0  0  0  0  0  0  0  0  0  0  0  0
    2.5577    0.1480   -0.0221 C   0  0  0  0  0  0  0  0  0  0  0  0
    1.5862    0.1603    0.9111 C   0  0  0  0  0  0  0  0  0  0  0  0
   -2.5466   -0.6946   -0.6644 N   0  0  0  0  0  0  0  0  0  0  0  0
    0.1963   -0.4053    0.7894 C   0  0  0  0  0  0  0  0  0  0  0  0
   -2.2983    0.2324    0.4462 C   0  0  2  0  0  0  0  0  0  0  0  0
    2.4030   -0.3961   -1.4163 C   0  0  0  0  0  0  0  0  0  0  0  0
    3.9210    0.7150    0.2771 C   0  0  0  0  0  0  0  0  0  0  0  0
   -2.3000   -0.1083   -1.9727 C   0  0  0  0  0  0  0  0  0  0  0  0
   -0.8352    0.7079    0.5874 C   0  0  0  0  0  0  0  0  0  0  0  0
   -2.7973   -0.4359    1.7312 C   0  0  0  0  0  0  0  0  0  0  0  0
    1.6437   -1.1464    1.7615 H   0  0  0  0  0  0  0  0  0  0  0  0
   -3.9369    0.3648   -0.4534 H   0  0  0  0  0  0  0  0  0  0  0  0
    0.6557    1.4554    0.4778 H   0  0  0  0  0  0  0  0  0  0  0  0
    0.1629    0.7304    1.9927 H   0  0  0  0  0  0  0  0  0  0  0  0
   -2.3283    0.6435    1.4175 H   0  0  0  0  0  0  0  0  0  0  0  0
    4.0821   -1.8196   -0.5501 H   0  0  0  0  0  0  0  0  0  0  0  0
    3.6954   -2.0153    1.1665 H   0  0  0  0  0  0  0  0  0  0  0  0
    4.8171   -0.7463    0.6652 H   0  0  0  0  0  0  0  0  0  0  0  0
    3.9188    1.2149   -0.7797 H   0  0  0  0  0  0  0  0  0  0  0  0
    3.0014    0.1583   -1.8683 H   0  0  0  0  0  0  0  0  0  0  0  0
    2.1833    1.4415   -0.9756 H   0  0  0  0  0  0  0  0  0  0  0  0
   -2.7474   -2.1537    0.5306 H   0  0  0  0  0  0  0  0  0  0  0  0
   -4.3484   -1.9269   -0.1494 H   0  0  0  0  0  0  0  0  0  0  0  0
   -3.9473   -1.1619    1.3956 H   0  0  0  0  0  0  0  0  0  0  0  0
   -0.8002   -1.2286    0.6963 H   0  0  0  0  0  0  0  0  0  0  0  0
   -0.4486   -0.3774   -0.8029 H   0  0  0  0  0  0  0  0  0  0  0  0
   -1.6382    1.8572   -1.3112 H   0  0  0  0  0  0  0  0  0  0  0  0
   -2.9739    2.3895   -0.2756 H   0  0  0  0  0  0  0  0  0  0  0  0
   -1.3203    2.5625    0.2840 H   0  0  0  0  0  0  0  0  0  0  0  0
    0.2372    0.2403    2.1448 H   0  0  0  0  0  0  0  0  0  0  0  0
   -1.2500    1.5884    0.7366 H   0  0  0  0  0  0  0  0  0  0  0  0
    2.5294   -0.4234    1.3441 H   0  0  0  0  0  0  0  0  0  0  0  0
   -0.8193   -1.1561   -0.6288 H   0  0  0  0  0  0  0  0  0  0  0  0
    1.6383   -2.3112    0.1676 H   0  0  0  0  0  0  0  0  0  0  0  0
   -2.9610   -0.5450   -1.4092 H   0  0  0  0  0  0  0  0  0  0  0  0
    1.3223    2.3032    0.5810 H   0  0  0  0  0  0  0  0  0  0  0  0
   -0.8631    1.5371   -1.5504 H   0  0  0  0  0  0  0  0  0  0  0  0
   -2.5013   -1.4701    2.6301 H   0  0  0  0  0  0  0  0  0  0  0  0
    3.0308    1.0735   -1.8183 H   0  0  0  0  0  0  0  0  0  0  0  0
    1.8066    0.5997    1.8838 H   0  0  0  0  0  0  0  0  0  0  0  0
   -1.9902   -1.5423   -0.5579 H   0  0  0  0  0  0  0  0  0  0  0  0
    0.1434   -1.1385   -0.0192 H   0  0  0  0  0  0  0  0  0  0  0  0
   -0.0157   -0.9574    1.7117 H   0  0  0  0  0  0  0  0  0  0  0  0
   -2.9208    1.1253    0.2945 H   0  0  0  0  0  0  0  0  0  0  0  0
    2.9314   -1.3525   -1.5080 H   0  0  0  0  0  0  0  0  0  0  0  0
    2.8344    0.3008   -2.1425 H   0  0  0  0  0  0  0  0  0  0  0  0
    1.3607   -0.5432   -1.7073 H   0  0  0  0  0  0  0  0  0  0  0  0
    4.6921   -0.0490    0.1240 H   0  0  0  0  0  0  0  0  0  0  0  0
    4.1340    1.5590   -0.3862 H   0  0  0  0  0  0  0  0  0  0  0  0
    4.0053    1.0769    1.3065 H   0  0  0  0  0  0  0  0  0  0  0  0
   -1.2387    0.0949   -2.1390 H   0  0  0  0  0  0  0  0  0  0  0  0
   -2.8681    0.8162   -2.1100 H   0  0  0  0  0  0  0  0  0  0  0  0
   -2.6221   -0.8098   -2.7478 H   0  0  0  0  0  0  0  0  0  0  0  0
   -0.5605    1.3003   -0.2953 H   0  0  0  0  0  0  0  0  0  0  0  0
   -0.7791    1.4044    1.4350 H   0  0  0  0  0  0  0  0  0  0  0  0
   -2.6572    0.2281    2.5893 H   0  0  0  0  0  0  0  0  0  0  0  0
   -3.8671   -0.6611    1.6596 H   0  0  0  0  0  0  0  0  0  0  0  0
   -2.2754   -1.3753    1.9420 H   0  0  0  0  0  0  0  0  0  0  0  0
  2  1  2  3
  3  5  1  0
  4  2  1  0
  5  9  1  0
  6  1  1  0
  7  1  1  0
  8  3  1  0
  9  4  1  0
 10  5  1  0
 12 11  1  0
 13 11  1  0
 14 12  1  0
 15 13  1  0
 16 14  1  0
 17 15  2  0
 18 16  2  0
 13 19  1  0
 14 20  1  0
 11 21  1  0
 12 22  1  0
 23 16  1  0
 24 15  1  0
 26 25  2  3
 27 29  1  0
 28 26  1  0
 29 33  1  0
 30 25  1  0
 31 25  1  0
 32 27  1  0
 33 28  1  0
 34 29  1  0
  2 35  1  0
  3 36  1  0
  4 37  1  0
  4 38  1  0
  5 39  1  1
  6 40  1  0
  6 41  1  0
  6 42  1  0
  7 43  1  0
  7 44  1  0
  7 45  1  0
  8 46  1  0
  8 47  1  0
  8 48  1  0
  9 49  1  0
  9 50  1  0
 10 51  1  0
 10 52  1  0
 10 53  1  0
 11 54  1  1
 12 55  1  1
 13 56  1  1
 14 57  1  6
 19 58  1  0
 20 59  1  0
 21 60  1  0
 22 61  1  0
 23 62  1  0
 24 63  1  0
 26 64  1  0
 27 65  1  0
 28 66  1  0
 28 67  1  0
 29 68  1  6
 30 69  1  0
 30 70  1  0
 30 71  1  0
 31 72  1  0
 31 73  1  0
 31 74  1  0
 32 75  1  0
 32 76  1  0
 32 77  1  0
 33 78  1  0
 33 79  1  0
 34 80  1  0
 34 81  1  0
 34 82  1  0
M  END
$$$$
