
     RDKit          3D

 82 79  0  0  0  0  0  0  0  0999 V2000
    2.8122   -0.2285   -0.3061 C   0  0  0  0  0  0  0  0  0  0  0  0
    1.7723   -0.7902   -0.9530 C   0  0  0  0  0  0  0  0  0  0  0  0
   -2.0991    1.1424   -0.1354 N   0  0  0  0  0  0  0  0  0  0  0  0
    0.3761   -0.2381   -1.0741 C   0  0  0  0  0  0  0  0  0  0  0  0
   -1.9960   -0.3199   -0.0813 C   0  0  1  0  0  0  0  0  0  0  0  0
    2.7440    1.0595    0.4644 C   0  0  0  0  0  0  0  0  0  0  0  0
    4.1622   -0.8945   -0.2904 C   0  0  0  0  0  0  0  0  0  0  0  0
   -3.4221    1.6240   -0.5054 C   0  0  0  0  0  0  0  0  0  0  0  0
   -0.5173   -0.7316    0.0697 C   0  0  0  0  0  0  0  0  0  0  0  0
   -2.7979   -0.9098    1.0835 C   0  0  0  0  0  0  0  0  0  0  0  0
   -0.7382    0.0397   -0.4427 C   0  0  1  0  0  0  0  0  0  0  0  0
    0.7913    0.0232   -0.2391 C   0  0  2  0  0  0  0  0  0  0  0  0
   -1.4671   -0.7982    0.6206 C   0  0  2  0  0  0  0  0  0  0  0  0
    1.5019    0.7979   -1.3673 C   0  0  1  0  0  0  0  0  0  0  0  0
   -2.8470   -1.2115    0.1076 C   0  0  0  0  0  0  0  0  0  0  0  0
    2.9364    1.0491   -0.9273 C   0  0  0  0  0  0  0  0  0  0  0  0
   -3.1204   -1.7276   -0.9620 O   0  0  0  0  0  0  0  0  0  0  0  0
    3.8357    0.2202   -0.9260 O   0  0  0  0  0  0  0  0  0  0  0  0
   -1.5520   -0.0138    1.8269 O   0  0  0  0  0  0  0  0  0  0  0  0
    1.4738    0.0280   -2.5739 O   0  0  0  0  0  0  0  0  0  0  0  0
   -1.1971    1.4028   -0.3561 O   0  0  0  0  0  0  0  0  0  0  0  0
    1.2526   -1.3426   -0.2399 O   0  0  0  0  0  0  0  0  0  0  0  0
    3.1504    2.2959   -0.4698 O   0  0  0  0  0  0  0  0  0  0  0  0
   -3.8180   -0.9913    1.0317 O   0  0  0  0  0  0  0  0  0  0  0  0
    2.6249   -0.3430   -0.1975 C   0  0  0  0  0  0  0  0  0  0  0  0
    1.7612   -0.9052    0.6714 C   0  0  0  0  0  0  0  0  0  0  0  0
   -2.8278    1.0733    0.7153 N   0  0  0  0  0  0  0  0  0  0  0  0
    0.3008   -1.1923    0.4387 C   0  0  0  0  0  0  0  0  0  0  0  0
   -2.0570   -0.1781    0.5862 C   0  0  2  0  0  0  0  0  0  0  0  0
    4.0496   -0.0694    0.2028 C   0  0  0  0  0  0  0  0  0  0  0  0
    2.2669    0.0906   -1.5949 C   0  0  0  0  0  0  0  0  0  0  0  0
   -2.8743    1.9000   -0.4851 C   0  0  0  0  0  0  0  0  0  0  0  0
   -0.5421    0.0909    0.4700 C   0  0  0  0  0  0  0  0  0  0  0  0
   -2.5991   -1.0832   -0.5242 C   0  0  0  0  0  0  0  0  0  0  0  0
    1.9244   -1.7422   -1.4594 H   0  0  0  0  0  0  0  0  0  0  0  0
   -1.8116    1.5543    0.7488 H   0  0  0  0  0  0  0  0  0  0  0  0
   -0.0376   -0.5633   -2.0376 H   0  0  0  0  0  0  0  0  0  0  0  0
    0.3983    0.8573   -1.1109 H   0  0  0  0  0  0  0  0  0  0  0  0
   -2.3680   -0.7468   -1.0217 H   0  0  0  0  0  0  0  0  0  0  0  0
    3.0810    0.8974    1.4934 H   0  0  0  0  0  0  0  0  0  0  0  0
    1.7363    1.4788    0.5184 H   0  0  0  0  0  0  0  0  0  0  0  0
    3.3908    1.8128    0.0029 H   0  0  0  0  0  0  0  0  0  0  0  0
    4.4364   -1.1673    0.7351 H   0  0  0  0  0  0  0  0  0  0  0  0
    4.9257   -0.2153   -0.6852 H   0  0  0  0  0  0  0  0  0  0  0  0
    4.1869   -1.8069   -0.8949 H   0  0  0  0  0  0  0  0  0  0  0  0
   -3.7449    1.2012   -1.4642 H   0  0  0  0  0  0  0  0  0  0  0  0
   -4.1682    1.4032    0.2614 H   0  0  0  0  0  0  0  0  0  0  0  0
   -3.3856    2.7122   -0.6237 H   0  0  0  0  0  0  0  0  0  0  0  0
   -0.4606   -1.8281    0.1194 H   0  0  0  0  0  0  0  0  0  0  0  0
   -0.1264   -0.3578    1.0261 H   0  0  0  0  0  0  0  0  0  0  0  0
   -2.6397   -1.9902    1.1548 H   0  0  0  0  0  0  0  0  0  0  0  0
   -3.8727   -0.7470    0.9553 H   0  0  0  0  0  0  0  0  0  0  0  0
   -2.4988   -0.4658    2.0395 H   0  0  0  0  0  0  0  0  0  0  0  0
   -0.9722   -0.3335   -1.4459 H   0  0  0  0  0  0  0  0  0  0  0  0
    1.0341    0.4675    0.7341 H   0  0  0  0  0  0  0  0  0  0  0  0
   -0.9445   -1.7295    0.8615 H   0  0  0  0  0  0  0  0  0  0  0  0
    1.0309    1.7626   -1.5744 H   0  0  0  0  0  0  0  0  0  0  0  0
   -2.3743   -0.3165    2.2665 H   0  0  0  0  0  0  0  0  0  0  0  0
    1.6859   -0.8886   -2.3195 H   0  0  0  0  0  0  0  0  0  0  0  0
   -1.3439    1.5671    0.6013 H   0  0  0  0  0  0  0  0  0  0  0  0
    2.2077   -1.3394   -0.0233 H   0  0  0  0  0  0  0  0  0  0  0  0
    4.1107    2.3304   -0.2681 H   0  0  0  0  0  0  0  0  0  0  0  0
   -4.6369   -1.2919    0.5810 H   0  0  0  0  0  0  0  0  0  0  0  0
    2.1191   -1.1624    1.6674 H   0  0  0  0  0  0  0  0  0  0  0  0
   -2.4467    1.6230    1.4839 H   0  0  0  0  0  0  0  0  0  0  0  0
   -0.0402   -1.8871    1.2165 H   0  0  0  0  0  0  0  0  0  0  0  0
    0.1777   -1.7168   -0.5140 H   0  0  0  0  0  0  0  0  0  0  0  0
   -2.2165   -0.7150    1.5318 H   0  0  0  0  0  0  0  0  0  0  0  0
    4.2498    1.0061    0.1710 H   0  0  0  0  0  0  0  0  0  0  0  0
    4.7393   -0.5711   -0.4864 H   0  0  0  0  0  0  0  0  0  0  0  0
    4.2737   -0.4286    1.2159 H   0  0  0  0  0  0  0  0  0  0  0  0
    2.0872    1.1738   -1.6032 H   0  0  0  0  0  0  0  0  0  0  0  0
    3.0822   -0.1288   -2.2963 H   0  0  0  0  0  0  0  0  0  0  0  0
    1.3719   -0.4081   -1.9767 H   0  0  0  0  0  0  0  0  0  0  0  0
   -3.4585    2.8051   -0.2735 H   0  0  0  0  0  0  0  0  0  0  0  0
   -3.3751    1.3896   -1.3144 H   0  0  0  0  0  0  0  0  0  0  0  0
   -1.8814    2.2283   -0.8055 H   0  0  0  0  0  0  0  0  0  0  0  0
   -0.2247    0.7210    1.3145 H   0  0  0  0  0  0  0  0  0  0  0  0
   -0.3333    0.6640   -0.4425 H   0  0  0  0  0  0  0  0  0  0  0  0
   -3.6913   -1.1570   -0.4717 H   0  0  0  0  0  0  0  0  0  0  0  0
   -2.2076   -2.1014   -0.4183 H   0  0  0  0  0  0  0  0  0  0  0  0
   -2.3287   -0.7183   -1.5234 H   0  0  0  0  0  0  0  0  0  0  0  0
  2  1  2  3
  3  5  1  0
  4  2  1  0
  5  9  1  0
  6  1  1  0
  7  1  1  0
  8  3  1  0
  9  4  1  0
 10  5  1  0
 12 11  1  0
 13 11  1  0
 14 12  1  0
 15 13  1  0
 16 14  1  0
 17 15  2  0
 18 16  2  0
 13 19  1  0
 14 20  1  0
 11 21  1  0
 12 22  1  0
 23 16  1  0
 24 15  1  0
 26 25  2  3
 27 29  1  0
 28 26  1  0
 29 33  1  0
 30 25  1  0
 31 25  1  0
 32 27  1  0
 33 28  1  0
 34 29  1  0
  2 35  1  0
  3 36  1  0
  4 37  1  0
  4 38  1  0
  5 39  1  6
  6 40  1  0
  6 41  1  0
  6 42  1  0
  7 43  1  0
  7 44  1  0
  7 45  1  0
  8 46  1  0
  8 47  1  0
  8 48  1  0
  9 49  1  0
  9 50  1  0
 10 51  1  0
 10 52  1  0
 10 53  1  0
 11 54  1  6
 12 55  1  1
 13 56  1  1
 14 57  1  6
 19 58  1  0
 20 59  1  0
 21 60  1  0
 22 61  1  0
 23 62  1  0
 24 63  1  0
 26 64  1  0
 27 65  1  0
 28 66  1  0
 28 67  1  0
 29 68  1  1
 30 69  1  0
 30 70  1  0
 30 71  1  0
 31 72  1  0
 31 73  1  0
 31 74  1  0
 32 75  1  0
 32 76  1  0
 32 77  1  0
 33 78  1  0
 33 79  1  0
 34 80  1  0
 34 81  1  0
 34 82  1  0
M  END
$$$$
