
     RDKit          3D

 67 67  0  0  0  0  0  0  0  0999 V2000
    1.3570   -0.4626    0.4930 C   0  0  0  0  0  0  0  0  0  0  0  0
   -0.6673   -0.1733   -0.8995 C   0  0  0  0  0  0  0  0  0  0  0  0
    0.5687   -0.6583   -0.7278 C   0  0  0  0  0  0  0  0  0  0  0  0
    0.9570   -0.4588    1.6393 O   0  0  0  0  0  0  0  0  0  0  0  0
    2.6556   -0.3385    0.1794 O   0  0  0  0  0  0  0  0  0  0  0  0
   -1.3240    0.7341    0.0469 C   0  0  0  0  0  0  0  0  0  0  0  0
   -0.8138    1.6289    0.6897 O   0  0  0  0  0  0  0  0  0  0  0  0
   -2.6414    0.4820    0.0776 O   0  0  0  0  0  0  0  0  0  0  0  0
   -0.5835    0.7197    0.0099 C   0  0  0  0  0  0  0  0  0  0  0  0
    0.7732    0.3344    0.0131 C   0  0  0  0  0  0  0  0  0  0  0  0
   -0.9322    2.1482    0.2501 C   0  0  0  0  0  0  0  0  0  0  0  0
    1.8228    1.3665    0.2525 C   0  0  0  0  0  0  0  0  0  0  0  0
    0.1268    3.1576    0.2677 C   0  0  0  0  0  0  0  0  0  0  0  0
    1.4591    2.7903    0.2678 C   0  0  0  0  0  0  0  0  0  0  0  0
   -1.6112   -0.2360   -0.1901 C   0  0  0  0  0  0  0  0  0  0  0  0
    1.1429   -1.0202   -0.1809 C   0  0  0  0  0  0  0  0  0  0  0  0
   -2.0891    2.5060    0.4507 O   0  0  0  0  0  0  0  0  0  0  0  0
    2.9948    1.0593    0.4537 O   0  0  0  0  0  0  0  0  0  0  0  0
    0.7653    5.4844    0.3420 N   0  0  0  0  0  0  0  0  0  0  0  0
    0.1188   -1.9426   -0.4192 C   0  0  0  0  0  0  0  0  0  0  0  0
   -1.2255   -1.5597   -0.4239 C   0  0  0  0  0  0  0  0  0  0  0  0
   -0.1756    4.5091    0.3097 C   0  0  0  0  0  0  0  0  0  0  0  0
   -2.9612    0.1475   -0.3054 N   0  0  0  0  0  0  0  0  0  0  0  0
    2.4938   -1.4075   -0.2873 N   0  0  0  0  0  0  0  0  0  0  0  0
    2.4536    3.7699    0.3086 C   0  0  0  0  0  0  0  0  0  0  0  0
    4.8776   -4.1733    0.6597 N   0  0  0  0  0  0  0  0  0  0  0  0
   -6.4716   -0.9200    0.6107 N   0  0  0  0  0  0  0  0  0  0  0  0
    2.0582    5.0943    0.3419 C   0  0  0  0  0  0  0  0  0  0  0  0
   -4.0005   -0.7645    0.1719 C   0  0  0  0  0  0  0  0  0  0  0  0
    2.8867   -2.7266    0.2160 C   0  0  0  0  0  0  0  0  0  0  0  0
   -5.3748   -0.0624    0.1542 C   0  0  0  0  0  0  0  0  0  0  0  0
    4.4234   -2.8527    0.2172 C   0  0  0  0  0  0  0  0  0  0  0  0
   -1.6398    0.0187   -0.2808 C   0  0  0  0  0  0  0  0  0  0  0  0
    0.6655    0.9052    0.0036 C   0  0  0  0  0  0  0  0  0  0  0  0
   -0.6529    1.0920   -0.1437 C   0  0  0  0  0  0  0  0  0  0  0  0
   -2.5313   -0.0074   -1.1077 O   0  0  0  0  0  0  0  0  0  0  0  0
   -1.5327   -0.8880    0.7008 O   0  0  0  0  0  0  0  0  0  0  0  0
    1.3239   -0.4067   -0.0506 C   0  0  0  0  0  0  0  0  0  0  0  0
    0.9280   -1.4246   -0.5814 O   0  0  0  0  0  0  0  0  0  0  0  0
    2.5179   -0.3355    0.5596 O   0  0  0  0  0  0  0  0  0  0  0  0
   -1.2335   -0.4101   -1.7923 H   0  0  0  0  0  0  0  0  0  0  0  0
    1.0345   -1.2657   -1.4944 H   0  0  0  0  0  0  0  0  0  0  0  0
    3.0879   -0.1976    1.0479 H   0  0  0  0  0  0  0  0  0  0  0  0
   -2.9807    1.1198    0.7402 H   0  0  0  0  0  0  0  0  0  0  0  0
    0.3473   -2.9802   -0.6475 H   0  0  0  0  0  0  0  0  0  0  0  0
   -1.9638   -2.3222   -0.6571 H   0  0  0  0  0  0  0  0  0  0  0  0
   -1.2040    4.8631    0.3191 H   0  0  0  0  0  0  0  0  0  0  0  0
   -3.0879    1.1016    0.0663 H   0  0  0  0  0  0  0  0  0  0  0  0
    3.0961   -0.6624    0.0953 H   0  0  0  0  0  0  0  0  0  0  0  0
    3.5074    3.5094    0.3163 H   0  0  0  0  0  0  0  0  0  0  0  0
    4.5804   -4.8763   -0.0168 H   0  0  0  0  0  0  0  0  0  0  0  0
    5.8975   -4.1908    0.6486 H   0  0  0  0  0  0  0  0  0  0  0  0
   -6.2773   -1.2572    1.5527 H   0  0  0  0  0  0  0  0  0  0  0  0
   -6.5324   -1.7449    0.0150 H   0  0  0  0  0  0  0  0  0  0  0  0
    2.7877    5.8994    0.3727 H   0  0  0  0  0  0  0  0  0  0  0  0
   -3.7742   -1.0912    1.1945 H   0  0  0  0  0  0  0  0  0  0  0  0
   -4.0548   -1.6496   -0.4720 H   0  0  0  0  0  0  0  0  0  0  0  0
    2.5094   -2.8717    1.2359 H   0  0  0  0  0  0  0  0  0  0  0  0
    2.4728   -3.5135   -0.4247 H   0  0  0  0  0  0  0  0  0  0  0  0
   -5.5991    0.2850   -0.8610 H   0  0  0  0  0  0  0  0  0  0  0  0
   -5.3423    0.8295    0.7905 H   0  0  0  0  0  0  0  0  0  0  0  0
    4.8513   -2.0927    0.8809 H   0  0  0  0  0  0  0  0  0  0  0  0
    4.8140   -2.6572   -0.7883 H   0  0  0  0  0  0  0  0  0  0  0  0
    1.3238    1.7564    0.1329 H   0  0  0  0  0  0  0  0  0  0  0  0
   -1.0674    2.0919   -0.1869 H   0  0  0  0  0  0  0  0  0  0  0  0
   -2.2116   -1.5585    0.4810 H   0  0  0  0  0  0  0  0  0  0  0  0
    2.8767   -1.2435    0.4732 H   0  0  0  0  0  0  0  0  0  0  0  0
  1  3  1  0
  3  2  2  0
  4  1  2  0
  5  1  1  0
  2  6  1  0
  6  7  2  0
  6  8  1  0
 24 16  1  0
 25 14  1  0
 26 32  1  0
 27 31  1  0
 28 25  2  0
 29 23  1  0
 30 24  1  0
 31 29  1  0
 32 30  1  0
 16 20  2  0
 14 13  2  0
 19 28  1  0
 10  9  2  0
 11  9  1  0
 12 10  1  0
 13 11  1  0
 14 12  1  0
 15  9  1  0
 16 10  1  0
 17 11  2  0
 18 12  2  0
 19 22  2  0
 20 21  1  0
 21 15  2  0
 22 13  1  0
 23 15  1  0
 33 35  1  0
 35 34  2  0
 36 33  2  0
 37 33  1  0
 34 38  1  0
 38 39  2  0
 38 40  1  0
  2 41  1  0
  3 42  1  0
  5 43  1  0
  8 44  1  0
 20 45  1  0
 21 46  1  0
 22 47  1  0
 23 48  1  0
 24 49  1  0
 25 50  1  0
 26 51  1  0
 26 52  1  0
 27 53  1  0
 27 54  1  0
 28 55  1  0
 29 56  1  0
 29 57  1  0
 30 58  1  0
 30 59  1  0
 31 60  1  0
 31 61  1  0
 32 62  1  0
 32 63  1  0
 34 64  1  0
 35 65  1  0
 37 66  1  0
 40 67  1  0
M  END
$$$$
