
     RDKit          3D

 67 67  0  0  0  0  0  0  0  0999 V2000
    1.2759   -0.5050   -0.1838 C   0  0  0  0  0  0  0  0  0  0  0  0
   -0.5390    0.9952    0.6009 C   0  0  0  0  0  0  0  0  0  0  0  0
    0.7523    0.7702    0.3231 C   0  0  0  0  0  0  0  0  0  0  0  0
    0.7844   -1.6110   -0.0855 O   0  0  0  0  0  0  0  0  0  0  0  0
    2.4647   -0.3005   -0.7733 O   0  0  0  0  0  0  0  0  0  0  0  0
   -1.6248    0.0450    0.3490 C   0  0  0  0  0  0  0  0  0  0  0  0
   -2.4985   -0.2436    1.1442 O   0  0  0  0  0  0  0  0  0  0  0  0
   -1.6248   -0.3880   -0.9200 O   0  0  0  0  0  0  0  0  0  0  0  0
    0.7724    0.4633    0.0571 C   0  0  0  0  0  0  0  0  0  0  0  0
   -0.6318    0.5134   -0.0666 C   0  0  0  0  0  0  0  0  0  0  0  0
    1.5542    1.7310   -0.0003 C   0  0  0  0  0  0  0  0  0  0  0  0
   -1.3142    1.8392   -0.1238 C   0  0  0  0  0  0  0  0  0  0  0  0
    0.8566    3.0150   -0.0713 C   0  0  0  0  0  0  0  0  0  0  0  0
   -0.5220    3.0771   -0.1352 C   0  0  0  0  0  0  0  0  0  0  0  0
    1.4476   -0.7780    0.1820 C   0  0  0  0  0  0  0  0  0  0  0  0
   -1.3998   -0.6789   -0.0841 C   0  0  0  0  0  0  0  0  0  0  0  0
    2.7819    1.7318   -0.0208 O   0  0  0  0  0  0  0  0  0  0  0  0
   -2.5390    1.9328   -0.1334 O   0  0  0  0  0  0  0  0  0  0  0  0
    0.9728    5.4266   -0.1535 N   0  0  0  0  0  0  0  0  0  0  0  0
   -0.7156   -1.8942    0.0215 C   0  0  0  0  0  0  0  0  0  0  0  0
    0.6714   -1.9412    0.1812 C   0  0  0  0  0  0  0  0  0  0  0  0
    1.5626    4.2082   -0.0845 C   0  0  0  0  0  0  0  0  0  0  0  0
    2.8314   -0.8430    0.4346 N   0  0  0  0  0  0  0  0  0  0  0  0
   -2.7868   -0.6607   -0.3347 N   0  0  0  0  0  0  0  0  0  0  0  0
   -1.1612    4.3178   -0.2063 C   0  0  0  0  0  0  0  0  0  0  0  0
   -6.0218   -2.2829    0.7298 N   0  0  0  0  0  0  0  0  0  0  0  0
    5.9538   -2.7886   -0.4401 N   0  0  0  0  0  0  0  0  0  0  0  0
   -0.3754    5.4554   -0.2124 C   0  0  0  0  0  0  0  0  0  0  0  0
    3.6033   -1.9529   -0.1240 C   0  0  0  0  0  0  0  0  0  0  0  0
   -3.6344   -1.6436    0.3464 C   0  0  0  0  0  0  0  0  0  0  0  0
    5.1131   -1.7081    0.0819 C   0  0  0  0  0  0  0  0  0  0  0  0
   -5.1209   -1.3020    0.1201 C   0  0  0  0  0  0  0  0  0  0  0  0
   -1.2856   -0.2551    0.4456 C   0  0  0  0  0  0  0  0  0  0  0  0
    0.6267    0.9672   -0.5595 C   0  0  0  0  0  0  0  0  0  0  0  0
   -0.6911    0.7923   -0.3952 C   0  0  0  0  0  0  0  0  0  0  0  0
   -0.7758   -0.8575    1.3683 O   0  0  0  0  0  0  0  0  0  0  0  0
   -2.5611   -0.4560    0.0778 O   0  0  0  0  0  0  0  0  0  0  0  0
    1.6603    0.0895   -0.0061 C   0  0  0  0  0  0  0  0  0  0  0  0
    2.6528    0.4672    0.5863 O   0  0  0  0  0  0  0  0  0  0  0  0
    1.4540   -1.1937   -0.3350 O   0  0  0  0  0  0  0  0  0  0  0  0
   -0.8515    1.9250    1.0606 H   0  0  0  0  0  0  0  0  0  0  0  0
    1.4909    1.5411    0.5101 H   0  0  0  0  0  0  0  0  0  0  0  0
    2.7303   -1.1947   -1.0739 H   0  0  0  0  0  0  0  0  0  0  0  0
   -2.3600   -1.0337   -0.9515 H   0  0  0  0  0  0  0  0  0  0  0  0
   -1.2500   -2.8394   -0.0210 H   0  0  0  0  0  0  0  0  0  0  0  0
    1.1294   -2.9178    0.3118 H   0  0  0  0  0  0  0  0  0  0  0  0
    2.6492    4.2283   -0.0389 H   0  0  0  0  0  0  0  0  0  0  0  0
    3.2691    0.0691    0.2330 H   0  0  0  0  0  0  0  0  0  0  0  0
   -3.1468    0.2980   -0.2105 H   0  0  0  0  0  0  0  0  0  0  0  0
   -2.2427    4.3978   -0.2556 H   0  0  0  0  0  0  0  0  0  0  0  0
   -6.9854   -1.9979    0.5544 H   0  0  0  0  0  0  0  0  0  0  0  0
   -5.9081   -3.1818    0.2614 H   0  0  0  0  0  0  0  0  0  0  0  0
    5.7658   -2.9233   -1.4329 H   0  0  0  0  0  0  0  0  0  0  0  0
    5.7114   -3.6645    0.0215 H   0  0  0  0  0  0  0  0  0  0  0  0
   -0.8185    6.4462   -0.2662 H   0  0  0  0  0  0  0  0  0  0  0  0
    3.3962   -2.0535   -1.1967 H   0  0  0  0  0  0  0  0  0  0  0  0
    3.3329   -2.8917    0.3724 H   0  0  0  0  0  0  0  0  0  0  0  0
   -3.4216   -1.6478    1.4229 H   0  0  0  0  0  0  0  0  0  0  0  0
   -3.4426   -2.6468   -0.0512 H   0  0  0  0  0  0  0  0  0  0  0  0
    5.4054   -0.7717   -0.4072 H   0  0  0  0  0  0  0  0  0  0  0  0
    5.3247   -1.5829    1.1502 H   0  0  0  0  0  0  0  0  0  0  0  0
   -5.3371   -0.3145    0.5433 H   0  0  0  0  0  0  0  0  0  0  0  0
   -5.3298   -1.2431   -0.9544 H   0  0  0  0  0  0  0  0  0  0  0  0
    1.0068    1.8131   -1.1188 H   0  0  0  0  0  0  0  0  0  0  0  0
   -1.3921    1.4713   -0.8666 H   0  0  0  0  0  0  0  0  0  0  0  0
   -2.8693   -1.1630    0.6834 H   0  0  0  0  0  0  0  0  0  0  0  0
    2.1745   -1.6754    0.1199 H   0  0  0  0  0  0  0  0  0  0  0  0
  1  3  1  0
  3  2  2  0
  4  1  2  0
  5  1  1  0
  2  6  1  0
  6  7  2  0
  6  8  1  0
 24 16  1  0
 25 14  1  0
 26 32  1  0
 27 31  1  0
 28 25  2  0
 29 23  1  0
 30 24  1  0
 31 29  1  0
 32 30  1  0
 16 20  2  0
 14 13  2  0
 19 28  1  0
 10  9  2  0
 11  9  1  0
 12 10  1  0
 13 11  1  0
 14 12  1  0
 15  9  1  0
 16 10  1  0
 17 11  2  0
 18 12  2  0
 19 22  2  0
 20 21  1  0
 21 15  2  0
 22 13  1  0
 23 15  1  0
 33 35  1  0
 35 34  2  0
 36 33  2  0
 37 33  1  0
 34 38  1  0
 38 39  2  0
 38 40  1  0
  2 41  1  0
  3 42  1  0
  5 43  1  0
  8 44  1  0
 20 45  1  0
 21 46  1  0
 22 47  1  0
 23 48  1  0
 24 49  1  0
 25 50  1  0
 26 51  1  0
 26 52  1  0
 27 53  1  0
 27 54  1  0
 28 55  1  0
 29 56  1  0
 29 57  1  0
 30 58  1  0
 30 59  1  0
 31 60  1  0
 31 61  1  0
 32 62  1  0
 32 63  1  0
 34 64  1  0
 35 65  1  0
 37 66  1  0
 40 67  1  0
M  END
$$$$
