
     RDKit          3D

 67 67  0  0  0  0  0  0  0  0999 V2000
   -1.5253    0.0937   -0.1431 C   0  0  0  0  0  0  0  0  0  0  0  0
    0.7031   -1.0373   -0.2119 C   0  0  0  0  0  0  0  0  0  0  0  0
   -0.6321   -1.0544   -0.3222 C   0  0  0  0  0  0  0  0  0  0  0  0
   -2.6349    0.0367    0.3535 O   0  0  0  0  0  0  0  0  0  0  0  0
   -1.0500    1.2159   -0.7028 O   0  0  0  0  0  0  0  0  0  0  0  0
    1.5186    0.1104    0.1955 C   0  0  0  0  0  0  0  0  0  0  0  0
    2.6224    0.3674   -0.2479 O   0  0  0  0  0  0  0  0  0  0  0  0
    0.9809    0.7962    1.2147 O   0  0  0  0  0  0  0  0  0  0  0  0
   -0.6096    0.6681   -0.3723 C   0  0  0  0  0  0  0  0  0  0  0  0
    0.7827    0.4507   -0.4249 C   0  0  0  0  0  0  0  0  0  0  0  0
   -1.1276    1.8940    0.2986 C   0  0  0  0  0  0  0  0  0  0  0  0
    1.7027    1.4522    0.1832 C   0  0  0  0  0  0  0  0  0  0  0  0
   -0.1927    2.9316    0.7355 C   0  0  0  0  0  0  0  0  0  0  0  0
    1.1733    2.7279    0.6841 C   0  0  0  0  0  0  0  0  0  0  0  0
   -1.5155   -0.2762   -0.9206 C   0  0  0  0  0  0  0  0  0  0  0  0
    1.3059   -0.7183   -1.0280 C   0  0  0  0  0  0  0  0  0  0  0  0
   -2.3256    2.0571    0.5113 O   0  0  0  0  0  0  0  0  0  0  0  0
    2.9074    1.2342    0.2886 O   0  0  0  0  0  0  0  0  0  0  0  0
    0.1675    5.1320    1.6616 N   0  0  0  0  0  0  0  0  0  0  0  0
    0.4030   -1.6245   -1.5925 C   0  0  0  0  0  0  0  0  0  0  0  0
   -0.9753   -1.4055   -1.5446 C   0  0  0  0  0  0  0  0  0  0  0  0
   -0.6517    4.1411    1.2324 C   0  0  0  0  0  0  0  0  0  0  0  0
   -2.8981   -0.0325   -0.9621 N   0  0  0  0  0  0  0  0  0  0  0  0
    2.6908   -0.9537   -1.1522 N   0  0  0  0  0  0  0  0  0  0  0  0
    2.0452    3.7258    1.1259 C   0  0  0  0  0  0  0  0  0  0  0  0
    3.9241   -1.3089    1.5476 N   0  0  0  0  0  0  0  0  0  0  0  0
   -4.8624   -2.7588    0.8113 N   0  0  0  0  0  0  0  0  0  0  0  0
    1.4968    4.9029    1.6008 C   0  0  0  0  0  0  0  0  0  0  0  0
   -3.8578   -1.1274   -0.8133 C   0  0  0  0  0  0  0  0  0  0  0  0
    3.2024   -2.2508   -0.6829 C   0  0  0  0  0  0  0  0  0  0  0  0
   -3.8337   -1.7360    0.6036 C   0  0  0  0  0  0  0  0  0  0  0  0
    3.1824   -2.3703    0.8566 C   0  0  0  0  0  0  0  0  0  0  0  0
   -1.2822    0.6632   -0.5026 C   0  0  0  0  0  0  0  0  0  0  0  0
    0.1987   -1.2506    0.1283 C   0  0  0  0  0  0  0  0  0  0  0  0
   -0.9689   -0.7545   -0.3031 C   0  0  0  0  0  0  0  0  0  0  0  0
   -2.3718    1.1660   -0.2993 O   0  0  0  0  0  0  0  0  0  0  0  0
   -0.2735    1.3472   -1.0619 O   0  0  0  0  0  0  0  0  0  0  0  0
    1.3569   -0.4676    0.5678 C   0  0  0  0  0  0  0  0  0  0  0  0
    2.5172   -0.7805    0.3753 O   0  0  0  0  0  0  0  0  0  0  0  0
    1.0172    0.5834    1.3282 O   0  0  0  0  0  0  0  0  0  0  0  0
    1.2779   -1.9287   -0.4361 H   0  0  0  0  0  0  0  0  0  0  0  0
   -1.1456   -1.9787   -0.5616 H   0  0  0  0  0  0  0  0  0  0  0  0
   -1.7515    1.8776   -0.5325 H   0  0  0  0  0  0  0  0  0  0  0  0
    1.6365    1.5011    1.3943 H   0  0  0  0  0  0  0  0  0  0  0  0
    0.7653   -2.4988   -2.1283 H   0  0  0  0  0  0  0  0  0  0  0  0
   -1.6161   -2.1251   -2.0465 H   0  0  0  0  0  0  0  0  0  0  0  0
   -1.7143    4.3614    1.3048 H   0  0  0  0  0  0  0  0  0  0  0  0
   -3.1452    0.7655   -0.3571 H   0  0  0  0  0  0  0  0  0  0  0  0
    3.2229   -0.1886   -0.7164 H   0  0  0  0  0  0  0  0  0  0  0  0
    3.1221    3.5913    1.1035 H   0  0  0  0  0  0  0  0  0  0  0  0
    4.8734   -1.2612    1.1784 H   0  0  0  0  0  0  0  0  0  0  0  0
    3.5109   -0.4004    1.3073 H   0  0  0  0  0  0  0  0  0  0  0  0
   -4.7641   -3.4949    0.1132 H   0  0  0  0  0  0  0  0  0  0  0  0
   -5.7857   -2.3501    0.6677 H   0  0  0  0  0  0  0  0  0  0  0  0
    2.1261    5.7144    1.9568 H   0  0  0  0  0  0  0  0  0  0  0  0
   -4.8551   -0.7104   -1.0003 H   0  0  0  0  0  0  0  0  0  0  0  0
   -3.7107   -1.9003   -1.5753 H   0  0  0  0  0  0  0  0  0  0  0  0
    2.6621   -3.0909   -1.1318 H   0  0  0  0  0  0  0  0  0  0  0  0
    4.2395   -2.3372   -1.0292 H   0  0  0  0  0  0  0  0  0  0  0  0
   -3.9729   -0.9445    1.3489 H   0  0  0  0  0  0  0  0  0  0  0  0
   -2.8557   -2.1867    0.8044 H   0  0  0  0  0  0  0  0  0  0  0  0
    2.1493   -2.3625    1.2211 H   0  0  0  0  0  0  0  0  0  0  0  0
    3.6138   -3.3359    1.1421 H   0  0  0  0  0  0  0  0  0  0  0  0
    0.3502   -2.3232    0.1717 H   0  0  0  0  0  0  0  0  0  0  0  0
   -1.7893   -1.4236   -0.5368 H   0  0  0  0  0  0  0  0  0  0  0  0
   -0.6313    2.2534   -1.1604 H   0  0  0  0  0  0  0  0  0  0  0  0
    1.8770    0.9867    1.5672 H   0  0  0  0  0  0  0  0  0  0  0  0
  1  3  1  0
  3  2  2  0
  4  1  2  0
  5  1  1  0
  2  6  1  0
  6  7  2  0
  6  8  1  0
 24 16  1  0
 25 14  1  0
 26 32  1  0
 27 31  1  0
 28 25  2  0
 29 23  1  0
 30 24  1  0
 31 29  1  0
 32 30  1  0
 16 20  2  0
 14 13  2  0
 19 28  1  0
 10  9  2  0
 11  9  1  0
 12 10  1  0
 13 11  1  0
 14 12  1  0
 15  9  1  0
 16 10  1  0
 17 11  2  0
 18 12  2  0
 19 22  2  0
 20 21  1  0
 21 15  2  0
 22 13  1  0
 23 15  1  0
 33 35  1  0
 35 34  2  0
 36 33  2  0
 37 33  1  0
 34 38  1  0
 38 39  2  0
 38 40  1  0
  2 41  1  0
  3 42  1  0
  5 43  1  0
  8 44  1  0
 20 45  1  0
 21 46  1  0
 22 47  1  0
 23 48  1  0
 24 49  1  0
 25 50  1  0
 26 51  1  0
 26 52  1  0
 27 53  1  0
 27 54  1  0
 28 55  1  0
 29 56  1  0
 29 57  1  0
 30 58  1  0
 30 59  1  0
 31 60  1  0
 31 61  1  0
 32 62  1  0
 32 63  1  0
 34 64  1  0
 35 65  1  0
 37 66  1  0
 40 67  1  0
M  END
$$$$
