
     RDKit          3D

 67 67  0  0  0  0  0  0  0  0999 V2000
   -1.6472   -0.1236    0.2057 C   0  0  0  0  0  0  0  0  0  0  0  0
    0.6633   -0.8117   -0.4035 C   0  0  0  0  0  0  0  0  0  0  0  0
   -0.6587   -1.0277   -0.3863 C   0  0  0  0  0  0  0  0  0  0  0  0
   -2.5610   -0.4680    0.9309 O   0  0  0  0  0  0  0  0  0  0  0  0
   -1.5123    1.1312   -0.2463 O   0  0  0  0  0  0  0  0  0  0  0  0
    1.3233    0.3211    0.2589 C   0  0  0  0  0  0  0  0  0  0  0  0
    0.9164    0.9902    1.1871 O   0  0  0  0  0  0  0  0  0  0  0  0
    2.5328    0.5197   -0.2899 O   0  0  0  0  0  0  0  0  0  0  0  0
    0.5795    0.4268   -0.2578 C   0  0  0  0  0  0  0  0  0  0  0  0
   -0.7072    0.1562    0.2537 C   0  0  0  0  0  0  0  0  0  0  0  0
    0.9518    1.8319   -0.5859 C   0  0  0  0  0  0  0  0  0  0  0  0
   -1.6777    1.2785    0.4246 C   0  0  0  0  0  0  0  0  0  0  0  0
   -0.0594    2.8864   -0.5198 C   0  0  0  0  0  0  0  0  0  0  0  0
   -1.3270    2.6298   -0.0353 C   0  0  0  0  0  0  0  0  0  0  0  0
    1.5297   -0.6132   -0.4297 C   0  0  0  0  0  0  0  0  0  0  0  0
   -1.0864   -1.1710    0.5764 C   0  0  0  0  0  0  0  0  0  0  0  0
    2.0978    2.1395   -0.9023 O   0  0  0  0  0  0  0  0  0  0  0  0
   -2.7796    1.1155    0.9408 O   0  0  0  0  0  0  0  0  0  0  0  0
   -0.6611    5.1973   -0.8860 N   0  0  0  0  0  0  0  0  0  0  0  0
   -0.1303   -2.1806    0.4236 C   0  0  0  0  0  0  0  0  0  0  0  0
    1.1399   -1.9118   -0.0894 C   0  0  0  0  0  0  0  0  0  0  0  0
    0.2318    4.1784   -0.9297 C   0  0  0  0  0  0  0  0  0  0  0  0
    2.7820   -0.3815   -1.0260 N   0  0  0  0  0  0  0  0  0  0  0  0
   -2.3477   -1.4750    1.1269 N   0  0  0  0  0  0  0  0  0  0  0  0
   -2.2700    3.6590    0.0273 C   0  0  0  0  0  0  0  0  0  0  0  0
   -4.2444   -1.2334   -1.1063 N   0  0  0  0  0  0  0  0  0  0  0  0
    5.6273   -1.2048    1.3542 N   0  0  0  0  0  0  0  0  0  0  0  0
   -1.8919    4.9156   -0.4079 C   0  0  0  0  0  0  0  0  0  0  0  0
    3.9745   -1.0735   -0.5328 C   0  0  0  0  0  0  0  0  0  0  0  0
   -3.0749   -2.6456    0.6210 C   0  0  0  0  0  0  0  0  0  0  0  0
    4.3669   -0.6201    0.8883 C   0  0  0  0  0  0  0  0  0  0  0  0
   -3.5216   -2.4828   -0.8487 C   0  0  0  0  0  0  0  0  0  0  0  0
   -1.6618    0.0406    0.0630 C   0  0  0  0  0  0  0  0  0  0  0  0
    0.6672    0.9019   -0.0483 C   0  0  0  0  0  0  0  0  0  0  0  0
   -0.6575    1.0941   -0.0996 C   0  0  0  0  0  0  0  0  0  0  0  0
   -2.6478    0.1202    0.7704 O   0  0  0  0  0  0  0  0  0  0  0  0
   -1.4410   -0.9921   -0.7626 O   0  0  0  0  0  0  0  0  0  0  0  0
    1.3029   -0.3819    0.2768 C   0  0  0  0  0  0  0  0  0  0  0  0
    0.8316   -1.3212    0.8853 O   0  0  0  0  0  0  0  0  0  0  0  0
    2.5691   -0.3819   -0.1703 O   0  0  0  0  0  0  0  0  0  0  0  0
    1.3227   -1.5180   -0.8944 H   0  0  0  0  0  0  0  0  0  0  0  0
   -1.0757   -1.9309   -0.8149 H   0  0  0  0  0  0  0  0  0  0  0  0
   -2.1946    1.6353    0.2424 H   0  0  0  0  0  0  0  0  0  0  0  0
    2.8912    1.2825    0.2103 H   0  0  0  0  0  0  0  0  0  0  0  0
   -0.3564   -3.2042    0.7096 H   0  0  0  0  0  0  0  0  0  0  0  0
    1.8134   -2.7519   -0.2321 H   0  0  0  0  0  0  0  0  0  0  0  0
    1.2126    4.4458   -1.3164 H   0  0  0  0  0  0  0  0  0  0  0  0
    2.9548    0.6317   -1.1150 H   0  0  0  0  0  0  0  0  0  0  0  0
   -2.9551   -0.6423    1.0533 H   0  0  0  0  0  0  0  0  0  0  0  0
   -3.2730    3.4865    0.4055 H   0  0  0  0  0  0  0  0  0  0  0  0
   -4.6691   -1.2668   -2.0310 H   0  0  0  0  0  0  0  0  0  0  0  0
   -5.0024   -1.1220   -0.4346 H   0  0  0  0  0  0  0  0  0  0  0  0
    5.5683   -2.2217    1.3240 H   0  0  0  0  0  0  0  0  0  0  0  0
    6.3815   -0.9421    0.7203 H   0  0  0  0  0  0  0  0  0  0  0  0
   -2.5853    5.7520   -0.3825 H   0  0  0  0  0  0  0  0  0  0  0  0
    3.8605   -2.1619   -0.5799 H   0  0  0  0  0  0  0  0  0  0  0  0
    4.7950   -0.8297   -1.2189 H   0  0  0  0  0  0  0  0  0  0  0  0
   -3.9695   -2.7630    1.2448 H   0  0  0  0  0  0  0  0  0  0  0  0
   -2.5005   -3.5696    0.7449 H   0  0  0  0  0  0  0  0  0  0  0  0
    3.5791   -0.8874    1.6008 H   0  0  0  0  0  0  0  0  0  0  0  0
    4.4576    0.4718    0.9164 H   0  0  0  0  0  0  0  0  0  0  0  0
   -2.6491   -2.5173   -1.5098 H   0  0  0  0  0  0  0  0  0  0  0  0
   -4.1644   -3.3292   -1.1149 H   0  0  0  0  0  0  0  0  0  0  0  0
    1.3434    1.7328   -0.2129 H   0  0  0  0  0  0  0  0  0  0  0  0
   -1.0662    2.0852   -0.2543 H   0  0  0  0  0  0  0  0  0  0  0  0
   -2.1463   -1.6327   -0.5369 H   0  0  0  0  0  0  0  0  0  0  0  0
    2.9063   -1.2650    0.0894 H   0  0  0  0  0  0  0  0  0  0  0  0
  1  3  1  0
  3  2  2  0
  4  1  2  0
  5  1  1  0
  2  6  1  0
  6  7  2  0
  6  8  1  0
 24 16  1  0
 25 14  1  0
 26 32  1  0
 27 31  1  0
 28 25  2  0
 29 23  1  0
 30 24  1  0
 31 29  1  0
 32 30  1  0
 16 20  2  0
 14 13  2  0
 19 28  1  0
 10  9  2  0
 11  9  1  0
 12 10  1  0
 13 11  1  0
 14 12  1  0
 15  9  1  0
 16 10  1  0
 17 11  2  0
 18 12  2  0
 19 22  2  0
 20 21  1  0
 21 15  2  0
 22 13  1  0
 23 15  1  0
 33 35  1  0
 35 34  2  0
 36 33  2  0
 37 33  1  0
 34 38  1  0
 38 39  2  0
 38 40  1  0
  2 41  1  0
  3 42  1  0
  5 43  1  0
  8 44  1  0
 20 45  1  0
 21 46  1  0
 22 47  1  0
 23 48  1  0
 24 49  1  0
 25 50  1  0
 26 51  1  0
 26 52  1  0
 27 53  1  0
 27 54  1  0
 28 55  1  0
 29 56  1  0
 29 57  1  0
 30 58  1  0
 30 59  1  0
 31 60  1  0
 31 61  1  0
 32 62  1  0
 32 63  1  0
 34 64  1  0
 35 65  1  0
 37 66  1  0
 40 67  1  0
M  END
$$$$
