
     RDKit          3D

 67 67  0  0  0  0  0  0  0  0999 V2000
    1.2865   -0.4928   -0.1519 C   0  0  0  0  0  0  0  0  0  0  0  0
   -0.6086    1.1111   -0.1816 C   0  0  0  0  0  0  0  0  0  0  0  0
    0.7066    0.8568   -0.1617 C   0  0  0  0  0  0  0  0  0  0  0  0
    0.7764   -1.5331   -0.5157 O   0  0  0  0  0  0  0  0  0  0  0  0
    2.5511   -0.4348    0.2963 O   0  0  0  0  0  0  0  0  0  0  0  0
   -1.6587    0.0937   -0.0979 C   0  0  0  0  0  0  0  0  0  0  0  0
   -2.6368    0.0401   -0.8187 O   0  0  0  0  0  0  0  0  0  0  0  0
   -1.4896   -0.7138    0.9586 O   0  0  0  0  0  0  0  0  0  0  0  0
    1.0288    0.5817   -0.7932 C   0  0  0  0  0  0  0  0  0  0  0  0
   -0.3670    0.4082   -0.7158 C   0  0  0  0  0  0  0  0  0  0  0  0
    1.6366    1.8742   -0.3717 C   0  0  0  0  0  0  0  0  0  0  0  0
   -1.2028    1.4929   -0.1251 C   0  0  0  0  0  0  0  0  0  0  0  0
    0.7848    2.9278    0.1805 C   0  0  0  0  0  0  0  0  0  0  0  0
   -0.5811    2.7561    0.2982 C   0  0  0  0  0  0  0  0  0  0  0  0
    1.8513   -0.4674   -1.2637 C   0  0  0  0  0  0  0  0  0  0  0  0
   -0.9727   -0.8036   -1.1431 C   0  0  0  0  0  0  0  0  0  0  0  0
    2.8380    2.0991   -0.4922 O   0  0  0  0  0  0  0  0  0  0  0  0
   -2.4113    1.3529    0.0472 O   0  0  0  0  0  0  0  0  0  0  0  0
    0.5902    5.1475    1.1159 N   0  0  0  0  0  0  0  0  0  0  0  0
   -0.1414   -1.8062   -1.6573 C   0  0  0  0  0  0  0  0  0  0  0  0
    1.2436   -1.6488   -1.6990 C   0  0  0  0  0  0  0  0  0  0  0  0
    1.3267    4.1334    0.5987 C   0  0  0  0  0  0  0  0  0  0  0  0
    3.2618   -0.3789   -1.2978 N   0  0  0  0  0  0  0  0  0  0  0  0
   -2.3757   -0.9558   -1.1837 N   0  0  0  0  0  0  0  0  0  0  0  0
   -1.3693    3.7818    0.8273 C   0  0  0  0  0  0  0  0  0  0  0  0
   -5.0942   -3.4533   -0.4064 N   0  0  0  0  0  0  0  0  0  0  0  0
    2.6714   -0.8527    1.7549 N   0  0  0  0  0  0  0  0  0  0  0  0
   -0.7412    4.9497    1.2185 C   0  0  0  0  0  0  0  0  0  0  0  0
    3.9680   -1.2964   -0.3879 C   0  0  0  0  0  0  0  0  0  0  0  0
   -2.9351   -2.2635   -0.8297 C   0  0  0  0  0  0  0  0  0  0  0  0
    3.9779   -0.8142    1.0833 C   0  0  0  0  0  0  0  0  0  0  0  0
   -4.4689   -2.1628   -0.7071 C   0  0  0  0  0  0  0  0  0  0  0  0
   -1.2110   -0.6054    0.2924 C   0  0  0  0  0  0  0  0  0  0  0  0
    0.4432    1.1926   -0.1470 C   0  0  0  0  0  0  0  0  0  0  0  0
   -0.8231    0.7595   -0.0875 C   0  0  0  0  0  0  0  0  0  0  0  0
   -0.5783   -1.4132    0.9420 O   0  0  0  0  0  0  0  0  0  0  0  0
   -2.4505   -0.8616   -0.1561 O   0  0  0  0  0  0  0  0  0  0  0  0
    1.6247    0.3524    0.0606 C   0  0  0  0  0  0  0  0  0  0  0  0
    2.5738    0.6446    0.7627 O   0  0  0  0  0  0  0  0  0  0  0  0
    1.6053   -0.7391   -0.7176 O   0  0  0  0  0  0  0  0  0  0  0  0
   -0.9732    2.1262   -0.2824 H   0  0  0  0  0  0  0  0  0  0  0  0
    1.4181    1.6737   -0.1950 H   0  0  0  0  0  0  0  0  0  0  0  0
    2.8503   -1.3676    0.2653 H   0  0  0  0  0  0  0  0  0  0  0  0
   -2.2221   -1.3594    0.8847 H   0  0  0  0  0  0  0  0  0  0  0  0
   -0.5591   -2.7256   -2.0575 H   0  0  0  0  0  0  0  0  0  0  0  0
    1.8531   -2.4506   -2.1098 H   0  0  0  0  0  0  0  0  0  0  0  0
    2.3941    4.3310    0.5312 H   0  0  0  0  0  0  0  0  0  0  0  0
    3.5378    0.5925   -1.0873 H   0  0  0  0  0  0  0  0  0  0  0  0
   -2.8154   -0.1997   -0.6365 H   0  0  0  0  0  0  0  0  0  0  0  0
   -2.4443    3.6745    0.9331 H   0  0  0  0  0  0  0  0  0  0  0  0
   -6.1029   -3.3200   -0.3332 H   0  0  0  0  0  0  0  0  0  0  0  0
   -4.9542   -4.0863   -1.1937 H   0  0  0  0  0  0  0  0  0  0  0  0
    2.2803   -1.7912    1.6796 H   0  0  0  0  0  0  0  0  0  0  0  0
    2.8024   -0.6684    2.7486 H   0  0  0  0  0  0  0  0  0  0  0  0
   -1.3049    5.7798    1.6361 H   0  0  0  0  0  0  0  0  0  0  0  0
    5.0089   -1.3428   -0.7290 H   0  0  0  0  0  0  0  0  0  0  0  0
    3.5811   -2.3201   -0.4545 H   0  0  0  0  0  0  0  0  0  0  0  0
   -2.6950   -3.0006   -1.6044 H   0  0  0  0  0  0  0  0  0  0  0  0
   -2.5162   -2.6101    0.1234 H   0  0  0  0  0  0  0  0  0  0  0  0
    4.3650    0.2095    1.1349 H   0  0  0  0  0  0  0  0  0  0  0  0
    4.6686   -1.4521    1.6470 H   0  0  0  0  0  0  0  0  0  0  0  0
   -4.8918   -1.7680   -1.6383 H   0  0  0  0  0  0  0  0  0  0  0  0
   -4.7260   -1.4534    0.0878 H   0  0  0  0  0  0  0  0  0  0  0  0
    0.6615    2.2355   -0.3426 H   0  0  0  0  0  0  0  0  0  0  0  0
   -1.6407    1.4425   -0.2869 H   0  0  0  0  0  0  0  0  0  0  0  0
   -2.6193   -1.7797    0.1426 H   0  0  0  0  0  0  0  0  0  0  0  0
    2.4144   -1.2279   -0.4627 H   0  0  0  0  0  0  0  0  0  0  0  0
  1  3  1  0
  3  2  2  0
  4  1  2  0
  5  1  1  0
  2  6  1  0
  6  7  2  0
  6  8  1  0
 24 16  1  0
 25 14  1  0
 26 32  1  0
 27 31  1  0
 28 25  2  0
 29 23  1  0
 30 24  1  0
 31 29  1  0
 32 30  1  0
 16 20  2  0
 14 13  2  0
 19 28  1  0
 10  9  2  0
 11  9  1  0
 12 10  1  0
 13 11  1  0
 14 12  1  0
 15  9  1  0
 16 10  1  0
 17 11  2  0
 18 12  2  0
 19 22  2  0
 20 21  1  0
 21 15  2  0
 22 13  1  0
 23 15  1  0
 33 35  1  0
 35 34  2  0
 36 33  2  0
 37 33  1  0
 34 38  1  0
 38 39  2  0
 38 40  1  0
  2 41  1  0
  3 42  1  0
  5 43  1  0
  8 44  1  0
 20 45  1  0
 21 46  1  0
 22 47  1  0
 23 48  1  0
 24 49  1  0
 25 50  1  0
 26 51  1  0
 26 52  1  0
 27 53  1  0
 27 54  1  0
 28 55  1  0
 29 56  1  0
 29 57  1  0
 30 58  1  0
 30 59  1  0
 31 60  1  0
 31 61  1  0
 32 62  1  0
 32 63  1  0
 34 64  1  0
 35 65  1  0
 37 66  1  0
 40 67  1  0
M  END
$$$$
