
     RDKit          3D

 40 40  0  0  0  0  0  0  0  0999 V2000
    1.4571   -0.0283    0.1678 C   0  0  0  0  0  0  0  0  0  0  0  0
   -0.7242   -1.0519    0.1364 C   0  0  0  0  0  0  0  0  0  0  0  0
    0.5280   -1.0995    0.2855 C   0  0  0  0  0  0  0  0  0  0  0  0
    1.2802    1.1667   -0.0983 O   0  0  0  0  0  0  0  0  0  0  0  0
    2.8153   -0.3810    0.3915 O   0  0  0  0  0  0  0  0  0  0  0  0
   -1.4921    0.0976   -0.1860 C   0  0  0  0  0  0  0  0  0  0  0  0
   -2.7620   -0.0980   -0.2868 O   0  0  0  0  0  0  0  0  0  0  0  0
   -1.1025    1.3944   -0.4101 O   0  0  0  0  0  0  0  0  0  0  0  0
    0.5751   -0.3641    0.1417 C   0  0  0  0  0  0  0  0  0  0  0  0
   -0.5325    0.4662    0.1491 C   0  0  0  0  0  0  0  0  0  0  0  0
    0.4354   -1.8241    0.0949 C   0  0  0  0  0  0  0  0  0  0  0  0
   -1.8881   -0.0890    0.1102 C   0  0  0  0  0  0  0  0  0  0  0  0
   -0.9143   -2.3878    0.0558 C   0  0  0  0  0  0  0  0  0  0  0  0
   -2.0323   -1.5534    0.0632 C   0  0  0  0  0  0  0  0  0  0  0  0
    1.8427    0.1790    0.1789 C   0  0  0  0  0  0  0  0  0  0  0  0
   -0.3665    1.8347    0.1936 C   0  0  0  0  0  0  0  0  0  0  0  0
    1.4282   -2.5783    0.0880 O   0  0  0  0  0  0  0  0  0  0  0  0
   -2.8948    0.6693    0.1171 O   0  0  0  0  0  0  0  0  0  0  0  0
   -2.3135   -4.3228   -0.0259 N   0  0  0  0  0  0  0  0  0  0  0  0
    0.9017    2.3607    0.2303 C   0  0  0  0  0  0  0  0  0  0  0  0
    2.0363    1.5526    0.2240 C   0  0  0  0  0  0  0  0  0  0  0  0
   -1.0931   -3.7579    0.0111 C   0  0  0  0  0  0  0  0  0  0  0  0
    3.0251   -0.6225    0.1736 N   0  0  0  0  0  0  0  0  0  0  0  0
   -1.4591    2.7391    0.2036 N   0  0  0  0  0  0  0  0  0  0  0  0
   -3.3029   -2.1383    0.0247 C   0  0  0  0  0  0  0  0  0  0  0  0
   -2.5066    6.2990    0.2953 N   0  0  0  0  0  0  0  0  0  0  0  0
    6.6721   -0.6632    0.2316 N   0  0  0  0  0  0  0  0  0  0  0  0
   -3.3869   -3.5089   -0.0185 C   0  0  0  0  0  0  0  0  0  0  0  0
    4.3570   -0.0839    0.2116 C   0  0  0  0  0  0  0  0  0  0  0  0
   -1.2748    4.1813    0.2506 C   0  0  0  0  0  0  0  0  0  0  0  0
    5.3261   -1.2531    0.1917 C   0  0  0  0  0  0  0  0  0  0  0  0
   -2.6342    4.8653    0.2494 C   0  0  0  0  0  0  0  0  0  0  0  0
   -1.4589    0.1895   -0.0972 C   0  0  0  0  0  0  0  0  0  0  0  0
    0.5692   -0.9755   -0.5177 C   0  0  0  0  0  0  0  0  0  0  0  0
   -0.6741   -0.8642   -0.6315 C   0  0  0  0  0  0  0  0  0  0  0  0
   -1.1326    1.1878    0.5660 O   0  0  0  0  0  0  0  0  0  0  0  0
   -2.8547    0.1029   -0.3553 O   0  0  0  0  0  0  0  0  0  0  0  0
    1.4626   -0.1059    0.1492 C   0  0  0  0  0  0  0  0  0  0  0  0
    1.2563    0.9526    0.7713 O   0  0  0  0  0  0  0  0  0  0  0  0
    2.8323   -0.4872    0.1151 O   0  0  0  0  0  0  0  0  0  0  0  0
  1  3  1  0
  3  2  2  0
  4  1  2  0
  5  1  1  0
  2  6  1  0
  6  7  2  0
  6  8  1  0
 24 16  1  0
 25 14  1  0
 26 32  1  0
 27 31  1  0
 28 25  2  0
 29 23  1  0
 30 24  1  0
 31 29  1  0
 32 30  1  0
 16 20  2  0
 14 13  2  0
 19 28  1  0
 10  9  2  0
 11  9  1  0
 12 10  1  0
 13 11  1  0
 14 12  1  0
 15  9  1  0
 16 10  1  0
 17 11  2  0
 18 12  2  0
 19 22  2  0
 20 21  1  0
 21 15  2  0
 22 13  1  0
 23 15  1  0
 33 35  1  0
 35 34  2  0
 36 33  2  0
 37 33  1  0
 34 38  1  0
 38 39  2  0
 38 40  1  0
M  END
