
     RDKit          3D

 67 67  0  0  0  0  0  0  0  0999 V2000
    1.4785    0.0589   -0.4131 C   0  0  0  0  0  0  0  0  0  0  0  0
   -0.7337   -1.0370   -0.0153 C   0  0  0  0  0  0  0  0  0  0  0  0
    0.5619   -1.0831   -0.3541 C   0  0  0  0  0  0  0  0  0  0  0  0
    2.6593    0.0140   -0.1214 O   0  0  0  0  0  0  0  0  0  0  0  0
    0.9168    1.1518   -0.9499 O   0  0  0  0  0  0  0  0  0  0  0  0
   -1.4612    0.1482    0.4472 C   0  0  0  0  0  0  0  0  0  0  0  0
   -2.6238    0.3932    0.1835 O   0  0  0  0  0  0  0  0  0  0  0  0
   -0.7530    0.8904    1.3108 O   0  0  0  0  0  0  0  0  0  0  0  0
    0.8266    0.3312   -0.1056 C   0  0  0  0  0  0  0  0  0  0  0  0
   -0.5751    0.4860   -0.0811 C   0  0  0  0  0  0  0  0  0  0  0  0
    1.6639    1.4012   -0.7163 C   0  0  0  0  0  0  0  0  0  0  0  0
   -1.1823    1.7153   -0.6676 C   0  0  0  0  0  0  0  0  0  0  0  0
    1.0503    2.6767   -1.0867 C   0  0  0  0  0  0  0  0  0  0  0  0
   -0.3219    2.8385   -1.0651 C   0  0  0  0  0  0  0  0  0  0  0  0
    1.4392   -0.8354    0.4173 C   0  0  0  0  0  0  0  0  0  0  0  0
   -1.4065   -0.5221    0.4679 C   0  0  0  0  0  0  0  0  0  0  0  0
    2.8609    1.2392   -0.9331 O   0  0  0  0  0  0  0  0  0  0  0  0
   -2.3935    1.8141   -0.8449 O   0  0  0  0  0  0  0  0  0  0  0  0
    1.3092    4.9490   -1.8587 N   0  0  0  0  0  0  0  0  0  0  0  0
   -0.7825   -1.6455    1.0205 C   0  0  0  0  0  0  0  0  0  0  0  0
    0.6066   -1.7982    0.9962 C   0  0  0  0  0  0  0  0  0  0  0  0
    1.8260    3.7507   -1.4923 C   0  0  0  0  0  0  0  0  0  0  0  0
    2.8406   -0.9588    0.4998 N   0  0  0  0  0  0  0  0  0  0  0  0
   -2.7978   -0.3393    0.5991 N   0  0  0  0  0  0  0  0  0  0  0  0
   -0.8874    4.0577   -1.4447 C   0  0  0  0  0  0  0  0  0  0  0  0
   -6.0755   -2.1890    0.3508 N   0  0  0  0  0  0  0  0  0  0  0  0
    5.5342   -1.4157    1.3939 N   0  0  0  0  0  0  0  0  0  0  0  0
   -0.0349    5.0764   -1.8282 C   0  0  0  0  0  0  0  0  0  0  0  0
    3.4390   -2.2904    0.3354 C   0  0  0  0  0  0  0  0  0  0  0  0
   -3.6733   -1.5077    0.4730 C   0  0  0  0  0  0  0  0  0  0  0  0
    4.9764   -2.1683    0.2624 C   0  0  0  0  0  0  0  0  0  0  0  0
   -5.1470   -1.0581    0.4183 C   0  0  0  0  0  0  0  0  0  0  0  0
    1.4734   -0.3413   -0.2655 C   0  0  0  0  0  0  0  0  0  0  0  0
   -0.6112    1.0300   -0.4236 C   0  0  0  0  0  0  0  0  0  0  0  0
    0.6690    0.7893   -0.7373 C   0  0  0  0  0  0  0  0  0  0  0  0
    2.3206   -0.9118   -0.9275 O   0  0  0  0  0  0  0  0  0  0  0  0
    1.2772   -0.6151    1.0324 O   0  0  0  0  0  0  0  0  0  0  0  0
   -1.4788    0.1637    0.3795 C   0  0  0  0  0  0  0  0  0  0  0  0
   -2.3309    0.5622    1.1516 O   0  0  0  0  0  0  0  0  0  0  0  0
   -1.3329   -1.1365    0.0854 O   0  0  0  0  0  0  0  0  0  0  0  0
   -1.3424   -1.9321   -0.0744 H   0  0  0  0  0  0  0  0  0  0  0  0
    1.0212   -2.0300   -0.6147 H   0  0  0  0  0  0  0  0  0  0  0  0
    1.6416    1.8104   -0.9514 H   0  0  0  0  0  0  0  0  0  0  0  0
   -1.3652    1.6154    1.5527 H   0  0  0  0  0  0  0  0  0  0  0  0
   -1.3645   -2.4147    1.5211 H   0  0  0  0  0  0  0  0  0  0  0  0
    1.0234   -2.6768    1.4811 H   0  0  0  0  0  0  0  0  0  0  0  0
    2.9108    3.6855   -1.5381 H   0  0  0  0  0  0  0  0  0  0  0  0
    3.2875   -0.2722   -0.1282 H   0  0  0  0  0  0  0  0  0  0  0  0
   -3.1032    0.4298   -0.0168 H   0  0  0  0  0  0  0  0  0  0  0  0
   -1.9622    4.2101   -1.4438 H   0  0  0  0  0  0  0  0  0  0  0  0
   -6.0227   -2.7206    1.2196 H   0  0  0  0  0  0  0  0  0  0  0  0
   -7.0291   -1.8298    0.3021 H   0  0  0  0  0  0  0  0  0  0  0  0
    5.2967   -1.9006    2.2593 H   0  0  0  0  0  0  0  0  0  0  0  0
    5.0027   -0.5411    1.4562 H   0  0  0  0  0  0  0  0  0  0  0  0
   -0.4179    6.0472   -2.1317 H   0  0  0  0  0  0  0  0  0  0  0  0
    3.0736   -2.7650   -0.5829 H   0  0  0  0  0  0  0  0  0  0  0  0
    3.1842   -2.9305    1.1875 H   0  0  0  0  0  0  0  0  0  0  0  0
   -3.5432   -2.1714    1.3351 H   0  0  0  0  0  0  0  0  0  0  0  0
   -3.4301   -2.0675   -0.4386 H   0  0  0  0  0  0  0  0  0  0  0  0
    5.2584   -1.6516   -0.6619 H   0  0  0  0  0  0  0  0  0  0  0  0
    5.4266   -3.1659    0.2308 H   0  0  0  0  0  0  0  0  0  0  0  0
   -5.3842   -0.4509    1.2996 H   0  0  0  0  0  0  0  0  0  0  0  0
   -5.3020   -0.4217   -0.4606 H   0  0  0  0  0  0  0  0  0  0  0  0
   -1.0938    1.9368   -0.7700 H   0  0  0  0  0  0  0  0  0  0  0  0
    1.2011    1.4621   -1.4004 H   0  0  0  0  0  0  0  0  0  0  0  0
    1.8908   -1.3573    1.2103 H   0  0  0  0  0  0  0  0  0  0  0  0
   -1.9844   -1.5821    0.6651 H   0  0  0  0  0  0  0  0  0  0  0  0
  1  3  1  0
  3  2  2  0
  4  1  2  0
  5  1  1  0
  2  6  1  0
  6  7  2  0
  6  8  1  0
 24 16  1  0
 25 14  1  0
 26 32  1  0
 27 31  1  0
 28 25  2  0
 29 23  1  0
 30 24  1  0
 31 29  1  0
 32 30  1  0
 16 20  2  0
 14 13  2  0
 19 28  1  0
 10  9  2  0
 11  9  1  0
 12 10  1  0
 13 11  1  0
 14 12  1  0
 15  9  1  0
 16 10  1  0
 17 11  2  0
 18 12  2  0
 19 22  2  0
 20 21  1  0
 21 15  2  0
 22 13  1  0
 23 15  1  0
 33 35  1  0
 35 34  2  0
 36 33  2  0
 37 33  1  0
 34 38  1  0
 38 39  2  0
 38 40  1  0
  2 41  1  0
  3 42  1  0
  5 43  1  0
  8 44  1  0
 20 45  1  0
 21 46  1  0
 22 47  1  0
 23 48  1  0
 24 49  1  0
 25 50  1  0
 26 51  1  0
 26 52  1  0
 27 53  1  0
 27 54  1  0
 28 55  1  0
 29 56  1  0
 29 57  1  0
 30 58  1  0
 30 59  1  0
 31 60  1  0
 31 61  1  0
 32 62  1  0
 32 63  1  0
 34 64  1  0
 35 65  1  0
 37 66  1  0
 40 67  1  0
M  END
$$$$
