
     RDKit          3D

 67 67  0  0  0  0  0  0  0  0999 V2000
   -0.8014   -0.3393    1.2655 C   0  0  0  0  0  0  0  0  0  0  0  0
    0.4102    1.1561   -0.3308 C   0  0  0  0  0  0  0  0  0  0  0  0
   -0.2499    0.9417    0.8154 C   0  0  0  0  0  0  0  0  0  0  0  0
   -0.8373   -0.7079    2.4249 O   0  0  0  0  0  0  0  0  0  0  0  0
   -1.3910   -1.0291    0.2782 O   0  0  0  0  0  0  0  0  0  0  0  0
    0.7852    0.1348   -1.3128 C   0  0  0  0  0  0  0  0  0  0  0  0
    0.8032    0.3068   -2.5175 O   0  0  0  0  0  0  0  0  0  0  0  0
    1.2388   -0.9923   -0.7454 O   0  0  0  0  0  0  0  0  0  0  0  0
    0.9309    0.5237   -0.4764 C   0  0  0  0  0  0  0  0  0  0  0  0
   -0.4704    0.5016   -0.3113 C   0  0  0  0  0  0  0  0  0  0  0  0
    1.6891    1.7529   -0.0988 C   0  0  0  0  0  0  0  0  0  0  0  0
   -1.1537    1.6805    0.2944 C   0  0  0  0  0  0  0  0  0  0  0  0
    0.9660    2.9401    0.3591 C   0  0  0  0  0  0  0  0  0  0  0  0
   -0.4017    2.9160    0.5494 C   0  0  0  0  0  0  0  0  0  0  0  0
    1.6147   -0.6091   -0.9863 C   0  0  0  0  0  0  0  0  0  0  0  0
   -1.2285   -0.6393   -0.6808 C   0  0  0  0  0  0  0  0  0  0  0  0
    2.9131    1.8142   -0.1616 O   0  0  0  0  0  0  0  0  0  0  0  0
   -2.3405    1.6454    0.6102 O   0  0  0  0  0  0  0  0  0  0  0  0
    1.0239    5.2521    1.0610 N   0  0  0  0  0  0  0  0  0  0  0  0
   -0.5435   -1.7166   -1.2506 C   0  0  0  0  0  0  0  0  0  0  0  0
    0.8451   -1.7023   -1.3979 C   0  0  0  0  0  0  0  0  0  0  0  0
    1.6374    4.1230    0.6278 C   0  0  0  0  0  0  0  0  0  0  0  0
    3.0058   -0.5987   -1.2079 N   0  0  0  0  0  0  0  0  0  0  0  0
   -2.6382   -0.6396   -0.6271 N   0  0  0  0  0  0  0  0  0  0  0  0
   -1.0648    4.0604    1.0002 C   0  0  0  0  0  0  0  0  0  0  0  0
   -5.5708   -2.8483    0.2398 N   0  0  0  0  0  0  0  0  0  0  0  0
    4.2713   -1.0116    1.4073 N   0  0  0  0  0  0  0  0  0  0  0  0
   -0.3131    5.1959    1.2384 C   0  0  0  0  0  0  0  0  0  0  0  0
    3.7884   -1.8088   -0.9301 C   0  0  0  0  0  0  0  0  0  0  0  0
   -3.3204   -1.8903   -0.2832 C   0  0  0  0  0  0  0  0  0  0  0  0
    3.8490   -2.1431    0.5763 C   0  0  0  0  0  0  0  0  0  0  0  0
   -4.8208   -1.6233   -0.0483 C   0  0  0  0  0  0  0  0  0  0  0  0
   -1.2699   -0.5094   -0.2183 C   0  0  0  0  0  0  0  0  0  0  0  0
    0.5651    1.1489   -0.0064 C   0  0  0  0  0  0  0  0  0  0  0  0
   -0.7396    0.8453   -0.0149 C   0  0  0  0  0  0  0  0  0  0  0  0
   -0.7304   -1.4545   -0.7572 O   0  0  0  0  0  0  0  0  0  0  0  0
   -2.5247   -0.5763    0.2552 O   0  0  0  0  0  0  0  0  0  0  0  0
    1.6516    0.1711   -0.0990 C   0  0  0  0  0  0  0  0  0  0  0  0
    2.6197    0.2709   -0.8283 O   0  0  0  0  0  0  0  0  0  0  0  0
    1.5269   -0.8024    0.8142 O   0  0  0  0  0  0  0  0  0  0  0  0
    0.7141    2.1606   -0.6023 H   0  0  0  0  0  0  0  0  0  0  0  0
   -0.4142    1.7593    1.5081 H   0  0  0  0  0  0  0  0  0  0  0  0
   -1.7323   -1.8312    0.7246 H   0  0  0  0  0  0  0  0  0  0  0  0
    1.4745   -1.5595   -1.5082 H   0  0  0  0  0  0  0  0  0  0  0  0
   -1.0817   -2.5825   -1.6262 H   0  0  0  0  0  0  0  0  0  0  0  0
    1.3096   -2.5568   -1.8817 H   0  0  0  0  0  0  0  0  0  0  0  0
    2.7147    4.2068    0.5020 H   0  0  0  0  0  0  0  0  0  0  0  0
    3.4206    0.1945   -0.6911 H   0  0  0  0  0  0  0  0  0  0  0  0
   -2.9565    0.1387   -0.0293 H   0  0  0  0  0  0  0  0  0  0  0  0
   -2.1381    4.0676    1.1627 H   0  0  0  0  0  0  0  0  0  0  0  0
   -5.5595   -3.4510   -0.5828 H   0  0  0  0  0  0  0  0  0  0  0  0
   -6.5497   -2.6055    0.3931 H   0  0  0  0  0  0  0  0  0  0  0  0
    4.4513   -1.3302    2.3575 H   0  0  0  0  0  0  0  0  0  0  0  0
    5.1441   -0.6218    1.0541 H   0  0  0  0  0  0  0  0  0  0  0  0
   -0.7759    6.1146    1.5889 H   0  0  0  0  0  0  0  0  0  0  0  0
    4.8092   -1.6204   -1.2851 H   0  0  0  0  0  0  0  0  0  0  0  0
    3.4291   -2.6717   -1.4999 H   0  0  0  0  0  0  0  0  0  0  0  0
   -3.2189   -2.6129   -1.1008 H   0  0  0  0  0  0  0  0  0  0  0  0
   -2.8822   -2.3252    0.6237 H   0  0  0  0  0  0  0  0  0  0  0  0
    4.5459   -2.9756    0.7240 H   0  0  0  0  0  0  0  0  0  0  0  0
    2.8654   -2.4767    0.9241 H   0  0  0  0  0  0  0  0  0  0  0  0
   -5.2547   -1.1360   -0.9293 H   0  0  0  0  0  0  0  0  0  0  0  0
   -4.9409   -0.9307    0.7927 H   0  0  0  0  0  0  0  0  0  0  0  0
    0.8918    2.1799    0.0554 H   0  0  0  0  0  0  0  0  0  0  0  0
   -1.4806    1.6290    0.0923 H   0  0  0  0  0  0  0  0  0  0  0  0
   -2.7904   -1.5028    0.0769 H   0  0  0  0  0  0  0  0  0  0  0  0
    2.2804   -1.3999    0.6301 H   0  0  0  0  0  0  0  0  0  0  0  0
  1  3  1  0
  3  2  2  0
  4  1  2  0
  5  1  1  0
  2  6  1  0
  6  7  2  0
  6  8  1  0
 24 16  1  0
 25 14  1  0
 26 32  1  0
 27 31  1  0
 28 25  2  0
 29 23  1  0
 30 24  1  0
 31 29  1  0
 32 30  1  0
 16 20  2  0
 14 13  2  0
 19 28  1  0
 10  9  2  0
 11  9  1  0
 12 10  1  0
 13 11  1  0
 14 12  1  0
 15  9  1  0
 16 10  1  0
 17 11  2  0
 18 12  2  0
 19 22  2  0
 20 21  1  0
 21 15  2  0
 22 13  1  0
 23 15  1  0
 33 35  1  0
 35 34  2  0
 36 33  2  0
 37 33  1  0
 34 38  1  0
 38 39  2  0
 38 40  1  0
  2 41  1  0
  3 42  1  0
  5 43  1  0
  8 44  1  0
 20 45  1  0
 21 46  1  0
 22 47  1  0
 23 48  1  0
 24 49  1  0
 25 50  1  0
 26 51  1  0
 26 52  1  0
 27 53  1  0
 27 54  1  0
 28 55  1  0
 29 56  1  0
 29 57  1  0
 30 58  1  0
 30 59  1  0
 31 60  1  0
 31 61  1  0
 32 62  1  0
 32 63  1  0
 34 64  1  0
 35 65  1  0
 37 66  1  0
 40 67  1  0
M  END
$$$$
