
     RDKit          2D

 40 40  0  0  0  0  0  0  0  0999 V2000
    7.9599   -3.8812    0.0000 C   0  0  0  0  0  0  0  0  0  0  0  0
    7.2474   -2.6437    0.0000 C   0  0  0  0  0  0  0  0  0  0  0  0
    7.2474   -3.4687    0.0000 C   0  0  0  0  0  0  0  0  0  0  0  0
    8.6765   -3.4687    0.0000 O   0  0  0  0  0  0  0  0  0  0  0  0
    7.9599   -4.7062    0.0000 O   0  0  0  0  0  0  0  0  0  0  0  0
    7.9599   -2.2271    0.0000 C   0  0  0  0  0  0  0  0  0  0  0  0
    8.6766   -2.6356    0.0000 O   0  0  0  0  0  0  0  0  0  0  0  0
    7.9553   -1.4021    0.0000 O   0  0  0  0  0  0  0  0  0  0  0  0
    0.8750   -3.6167    0.0000 C   0  0  0  0  0  0  0  0  0  0  0  0
    0.8750   -2.7917    0.0000 C   0  0  0  0  0  0  0  0  0  0  0  0
    0.1625   -4.0292    0.0000 C   0  0  0  0  0  0  0  0  0  0  0  0
    0.1625   -2.3792    0.0000 C   0  0  0  0  0  0  0  0  0  0  0  0
   -0.5542   -3.6167    0.0000 C   0  0  0  0  0  0  0  0  0  0  0  0
   -0.5542   -2.7917    0.0000 C   0  0  0  0  0  0  0  0  0  0  0  0
    1.5917   -4.0292    0.0000 C   0  0  0  0  0  0  0  0  0  0  0  0
    1.5917   -2.3792    0.0000 C   0  0  0  0  0  0  0  0  0  0  0  0
    0.1625   -4.8542    0.0000 O   0  0  0  0  0  0  0  0  0  0  0  0
    0.1625   -1.5542    0.0000 O   0  0  0  0  0  0  0  0  0  0  0  0
   -1.9833   -3.6167    0.0000 N   0  0  0  0  0  0  0  0  0  0  0  0
    2.3042   -2.7917    0.0000 C   0  0  0  0  0  0  0  0  0  0  0  0
    2.3042   -3.6167    0.0000 C   0  0  0  0  0  0  0  0  0  0  0  0
   -1.2667   -4.0292    0.0000 C   0  0  0  0  0  0  0  0  0  0  0  0
    1.5917   -4.8542    0.0000 N   0  0  0  0  0  0  0  0  0  0  0  0
    1.5917   -1.5542    0.0000 N   0  0  0  0  0  0  0  0  0  0  0  0
   -1.2667   -2.3792    0.0000 C   0  0  0  0  0  0  0  0  0  0  0  0
    3.7333   -1.1417    0.0000 N   0  0  0  0  0  0  0  0  0  0  0  0
    3.7333   -5.2667    0.0000 N   0  0  0  0  0  0  0  0  0  0  0  0
   -1.9833   -2.7917    0.0000 C   0  0  0  0  0  0  0  0  0  0  0  0
    2.3042   -5.2667    0.0000 C   0  0  0  0  0  0  0  0  0  0  0  0
    2.3042   -1.1417    0.0000 C   0  0  0  0  0  0  0  0  0  0  0  0
    3.0208   -4.8542    0.0000 C   0  0  0  0  0  0  0  0  0  0  0  0
    3.0208   -1.5542    0.0000 C   0  0  0  0  0  0  0  0  0  0  0  0
    5.7792   -3.7833    0.0000 C   0  0  0  0  0  0  0  0  0  0  0  0
    5.0667   -2.5458    0.0000 C   0  0  0  0  0  0  0  0  0  0  0  0
    5.0667   -3.3708    0.0000 C   0  0  0  0  0  0  0  0  0  0  0  0
    6.4958   -3.3708    0.0000 O   0  0  0  0  0  0  0  0  0  0  0  0
    5.7792   -4.6083    0.0000 O   0  0  0  0  0  0  0  0  0  0  0  0
    5.7792   -2.1292    0.0000 C   0  0  0  0  0  0  0  0  0  0  0  0
    6.4959   -2.5377    0.0000 O   0  0  0  0  0  0  0  0  0  0  0  0
    5.7746   -1.3042    0.0000 O   0  0  0  0  0  0  0  0  0  0  0  0
  1  3  1  0
  3  2  2  0
  4  1  2  0
  5  1  1  0
  2  6  1  0
  6  7  2  0
  6  8  1  0
 24 16  1  0
 25 14  1  0
 26 32  1  0
 27 31  1  0
 28 25  2  0
 29 23  1  0
 30 24  1  0
 31 29  1  0
 32 30  1  0
 16 20  2  0
 14 13  2  0
 19 28  1  0
 10  9  2  0
 11  9  1  0
 12 10  1  0
 13 11  1  0
 14 12  1  0
 15  9  1  0
 16 10  1  0
 17 11  2  0
 18 12  2  0
 19 22  2  0
 20 21  1  0
 21 15  2  0
 22 13  1  0
 23 15  1  0
 33 35  1  0
 35 34  2  0
 36 33  2  0
 37 33  1  0
 34 38  1  0
 38 39  2  0
 38 40  1  0
M  END
> <chembl_id>
CHEMBL2103844

> <chembl_pref_name>
PIXANTRONE DIMALEATE
