
     RDKit          3D

 27 29  0  0  0  0  0  0  0  0999 V2000
   -0.0384    1.1782   -0.3976 C   0  0  0  0  0  0  0  0  0  0  0  0
   -1.2959    0.4583   -0.1018 C   0  0  0  0  0  0  0  0  0  0  0  0
    1.2647    0.5011   -0.2219 C   0  0  0  0  0  0  0  0  0  0  0  0
   -1.2468   -0.8685    0.3456 C   0  0  0  0  0  0  0  0  0  0  0  0
    1.3020   -0.8259    0.2261 C   0  0  0  0  0  0  0  0  0  0  0  0
    0.0522   -1.6029    0.5408 C   0  0  0  0  0  0  0  0  0  0  0  0
   -0.0763    2.3446   -0.7911 O   0  0  0  0  0  0  0  0  0  0  0  0
   -2.5358    1.0952   -0.2664 C   0  0  0  0  0  0  0  0  0  0  0  0
    2.4618    1.1788   -0.5008 C   0  0  0  0  0  0  0  0  0  0  0  0
   -2.4517   -1.5387    0.6224 C   0  0  0  0  0  0  0  0  0  0  0  0
    2.5491   -1.4551    0.3878 C   0  0  0  0  0  0  0  0  0  0  0  0
   -2.6636    2.3881   -0.6992 O   0  0  0  0  0  0  0  0  0  0  0  0
    2.5053    2.4746   -0.9416 O   0  0  0  0  0  0  0  0  0  0  0  0
   -3.6799   -0.8973    0.4557 C   0  0  0  0  0  0  0  0  0  0  0  0
    3.7343   -0.7733    0.1080 C   0  0  0  0  0  0  0  0  0  0  0  0
   -3.7215    0.4213    0.0108 C   0  0  0  0  0  0  0  0  0  0  0  0
    3.6900    0.5452   -0.3369 C   0  0  0  0  0  0  0  0  0  0  0  0
    0.1067   -1.9252    1.5887 H   0  0  0  0  0  0  0  0  0  0  0  0
    0.0372   -2.4962   -0.0969 H   0  0  0  0  0  0  0  0  0  0  0  0
   -2.4391   -2.5701    0.9713 H   0  0  0  0  0  0  0  0  0  0  0  0
    2.6037   -2.4858    0.7347 H   0  0  0  0  0  0  0  0  0  0  0  0
   -1.7603    2.7422   -0.8564 H   0  0  0  0  0  0  0  0  0  0  0  0
    1.5800    2.7981   -1.0130 H   0  0  0  0  0  0  0  0  0  0  0  0
   -4.6058   -1.4248    0.6726 H   0  0  0  0  0  0  0  0  0  0  0  0
    4.6935   -1.2692    0.2364 H   0  0  0  0  0  0  0  0  0  0  0  0
   -4.6750    0.9260   -0.1209 H   0  0  0  0  0  0  0  0  0  0  0  0
    4.6097    1.0813   -0.5564 H   0  0  0  0  0  0  0  0  0  0  0  0
  2  1  1  0
  3  1  1  0
  4  2  2  0
  5  3  2  0
  6  5  1  0
  7  1  2  0
  8  2  1  0
  9  3  1  0
 10  4  1  0
 11  5  1  0
 12  8  1  0
 13  9  1  0
 14 16  1  0
 15 17  1  0
 16  8  2  0
 17  9  2  0
  4  6  1  0
 11 15  2  0
 10 14  2  0
  6 18  1  0
  6 19  1  0
 10 20  1  0
 11 21  1  0
 12 22  1  0
 13 23  1  0
 14 24  1  0
 15 25  1  0
 16 26  1  0
 17 27  1  0
M  END
$$$$
