
     RDKit          3D

 27 29  0  0  0  0  0  0  0  0999 V2000
    0.3239    1.2002   -0.0488 C   0  0  0  0  0  0  0  0  0  0  0  0
   -1.0497    0.7915   -0.4138 C   0  0  0  0  0  0  0  0  0  0  0  0
    1.3135    0.1858    0.3741 C   0  0  0  0  0  0  0  0  0  0  0  0
   -1.4091   -0.5615   -0.3570 C   0  0  0  0  0  0  0  0  0  0  0  0
    0.9433   -1.1645    0.4272 C   0  0  0  0  0  0  0  0  0  0  0  0
   -0.4407   -1.6327    0.0664 C   0  0  0  0  0  0  0  0  0  0  0  0
    0.6446    2.3883   -0.0971 O   0  0  0  0  0  0  0  0  0  0  0  0
   -1.9937    1.7493   -0.8160 C   0  0  0  0  0  0  0  0  0  0  0  0
    2.6188    0.5670    0.7218 C   0  0  0  0  0  0  0  0  0  0  0  0
   -2.7193   -0.9333   -0.7074 C   0  0  0  0  0  0  0  0  0  0  0  0
    1.8962   -2.1163    0.8314 C   0  0  0  0  0  0  0  0  0  0  0  0
   -1.7169    3.0881   -0.8960 O   0  0  0  0  0  0  0  0  0  0  0  0
    3.0538    1.8653    0.6945 O   0  0  0  0  0  0  0  0  0  0  0  0
   -3.6511    0.0261   -1.1061 C   0  0  0  0  0  0  0  0  0  0  0  0
    3.1918   -1.7279    1.1753 C   0  0  0  0  0  0  0  0  0  0  0  0
   -3.2874    1.3689   -1.1603 C   0  0  0  0  0  0  0  0  0  0  0  0
    3.5531   -0.3844    1.1203 C   0  0  0  0  0  0  0  0  0  0  0  0
   -0.8635   -2.1484    0.9383 H   0  0  0  0  0  0  0  0  0  0  0  0
   -0.3520   -2.3553   -0.7551 H   0  0  0  0  0  0  0  0  0  0  0  0
   -3.0221   -1.9786   -0.6711 H   0  0  0  0  0  0  0  0  0  0  0  0
    1.6322   -3.1716    0.8806 H   0  0  0  0  0  0  0  0  0  0  0  0
   -0.7799    3.2169   -0.6287 H   0  0  0  0  0  0  0  0  0  0  0  0
    2.3030    2.4266    0.3991 H   0  0  0  0  0  0  0  0  0  0  0  0
   -4.6616   -0.2721   -1.3749 H   0  0  0  0  0  0  0  0  0  0  0  0
    3.9210   -2.4721    1.4865 H   0  0  0  0  0  0  0  0  0  0  0  0
   -4.0087    2.1206   -1.4701 H   0  0  0  0  0  0  0  0  0  0  0  0
    4.5606   -0.0759    1.3869 H   0  0  0  0  0  0  0  0  0  0  0  0
  2  1  1  0
  3  1  1  0
  4  2  2  0
  5  3  2  0
  6  5  1  0
  7  1  2  0
  8  2  1  0
  9  3  1  0
 10  4  1  0
 11  5  1  0
 12  8  1  0
 13  9  1  0
 14 16  1  0
 15 17  1  0
 16  8  2  0
 17  9  2  0
  4  6  1  0
 11 15  2  0
 10 14  2  0
  6 18  1  0
  6 19  1  0
 10 20  1  0
 11 21  1  0
 12 22  1  0
 13 23  1  0
 14 24  1  0
 15 25  1  0
 16 26  1  0
 17 27  1  0
M  END
$$$$
