
     RDKit          3D

 27 29  0  0  0  0  0  0  0  0999 V2000
   -0.0833    1.1601    0.4415 C   0  0  0  0  0  0  0  0  0  0  0  0
    1.2228    0.6359   -0.0128 C   0  0  0  0  0  0  0  0  0  0  0  0
   -1.2906    0.3088    0.3723 C   0  0  0  0  0  0  0  0  0  0  0  0
    1.3108   -0.6714   -0.5091 C   0  0  0  0  0  0  0  0  0  0  0  0
   -1.1910   -0.9970   -0.1258 C   0  0  0  0  0  0  0  0  0  0  0  0
    0.1134   -1.5782   -0.6006 C   0  0  0  0  0  0  0  0  0  0  0  0
   -0.1658    2.3086    0.8785 O   0  0  0  0  0  0  0  0  0  0  0  0
    2.3724    1.4387    0.0502 C   0  0  0  0  0  0  0  0  0  0  0  0
   -2.5332    0.8004    0.8018 C   0  0  0  0  0  0  0  0  0  0  0  0
    2.5603   -1.1545   -0.9369 C   0  0  0  0  0  0  0  0  0  0  0  0
   -2.3485   -1.7933   -0.1848 C   0  0  0  0  0  0  0  0  0  0  0  0
    2.3650    2.7242    0.5223 O   0  0  0  0  0  0  0  0  0  0  0  0
   -2.7089    2.0639    1.2997 O   0  0  0  0  0  0  0  0  0  0  0  0
    3.6980   -0.3489   -0.8705 C   0  0  0  0  0  0  0  0  0  0  0  0
   -3.5798   -1.2960    0.2446 C   0  0  0  0  0  0  0  0  0  0  0  0
    3.6034    0.9492   -0.3763 C   0  0  0  0  0  0  0  0  0  0  0  0
   -3.6718    0.0025    0.7384 C   0  0  0  0  0  0  0  0  0  0  0  0
   -0.0087   -1.8759   -1.6500 H   0  0  0  0  0  0  0  0  0  0  0  0
    0.3214   -2.4775   -0.0066 H   0  0  0  0  0  0  0  0  0  0  0  0
    2.6538   -2.1671   -1.3264 H   0  0  0  0  0  0  0  0  0  0  0  0
   -2.2963   -2.8112   -0.5679 H   0  0  0  0  0  0  0  0  0  0  0  0
    1.4435    2.9409    0.7867 H   0  0  0  0  0  0  0  0  0  0  0  0
   -1.8353    2.5142    1.2891 H   0  0  0  0  0  0  0  0  0  0  0  0
    4.6593   -0.7324   -1.2040 H   0  0  0  0  0  0  0  0  0  0  0  0
   -4.4688   -1.9202    0.1946 H   0  0  0  0  0  0  0  0  0  0  0  0
    4.4860    1.5812   -0.3222 H   0  0  0  0  0  0  0  0  0  0  0  0
   -4.6279    0.3952    1.0743 H   0  0  0  0  0  0  0  0  0  0  0  0
  2  1  1  0
  3  1  1  0
  4  2  2  0
  5  3  2  0
  6  5  1  0
  7  1  2  0
  8  2  1  0
  9  3  1  0
 10  4  1  0
 11  5  1  0
 12  8  1  0
 13  9  1  0
 14 16  1  0
 15 17  1  0
 16  8  2  0
 17  9  2  0
  4  6  1  0
 11 15  2  0
 10 14  2  0
  6 18  1  0
  6 19  1  0
 10 20  1  0
 11 21  1  0
 12 22  1  0
 13 23  1  0
 14 24  1  0
 15 25  1  0
 16 26  1  0
 17 27  1  0
M  END
$$$$
