
     RDKit          3D

 27 29  0  0  0  0  0  0  0  0999 V2000
    0.0701    1.1768    0.3975 C   0  0  0  0  0  0  0  0  0  0  0  0
   -1.2496    0.5687    0.1220 C   0  0  0  0  0  0  0  0  0  0  0  0
    1.3066    0.3895    0.2016 C   0  0  0  0  0  0  0  0  0  0  0  0
   -1.3226   -0.7570   -0.3254 C   0  0  0  0  0  0  0  0  0  0  0  0
    1.2218   -0.9354   -0.2462 C   0  0  0  0  0  0  0  0  0  0  0  0
   -0.0954   -1.6009   -0.5407 C   0  0  0  0  0  0  0  0  0  0  0  0
    0.1395    2.3417    0.7909 O   0  0  0  0  0  0  0  0  0  0  0  0
   -2.4269    1.3105    0.3058 C   0  0  0  0  0  0  0  0  0  0  0  0
    2.5622    0.9608    0.4613 C   0  0  0  0  0  0  0  0  0  0  0  0
   -2.5852   -1.3202   -0.5827 C   0  0  0  0  0  0  0  0  0  0  0  0
    2.4071   -1.6700   -0.4272 C   0  0  0  0  0  0  0  0  0  0  0  0
   -2.4355    2.6093    0.7398 O   0  0  0  0  0  0  0  0  0  0  0  0
    2.7248    2.2476    0.9006 O   0  0  0  0  0  0  0  0  0  0  0  0
   -3.7505   -0.5749   -0.3971 C   0  0  0  0  0  0  0  0  0  0  0  0
    3.6511   -1.0937   -0.1665 C   0  0  0  0  0  0  0  0  0  0  0  0
   -3.6707    0.7419    0.0478 C   0  0  0  0  0  0  0  0  0  0  0  0
    3.7282    0.2234    0.2783 C   0  0  0  0  0  0  0  0  0  0  0  0
   -0.1776   -2.4901    0.0976 H   0  0  0  0  0  0  0  0  0  0  0  0
   -0.0855   -1.9259   -1.5891 H   0  0  0  0  0  0  0  0  0  0  0  0
   -2.6676   -2.3485   -0.9312 H   0  0  0  0  0  0  0  0  0  0  0  0
    2.3668   -2.7013   -0.7744 H   0  0  0  0  0  0  0  0  0  0  0  0
   -1.5025    2.8836    0.8825 H   0  0  0  0  0  0  0  0  0  0  0  0
    1.8321    2.6499    0.9864 H   0  0  0  0  0  0  0  0  0  0  0  0
   -4.7219   -1.0200   -0.5990 H   0  0  0  0  0  0  0  0  0  0  0  0
    4.5616   -1.6707   -0.3098 H   0  0  0  0  0  0  0  0  0  0  0  0
   -4.5748    1.3272    0.1942 H   0  0  0  0  0  0  0  0  0  0  0  0
    4.6942    0.6776    0.4829 H   0  0  0  0  0  0  0  0  0  0  0  0
  2  1  1  0
  3  1  1  0
  4  2  2  0
  5  3  2  0
  6  5  1  0
  7  1  2  0
  8  2  1  0
  9  3  1  0
 10  4  1  0
 11  5  1  0
 12  8  1  0
 13  9  1  0
 14 16  1  0
 15 17  1  0
 16  8  2  0
 17  9  2  0
  4  6  1  0
 11 15  2  0
 10 14  2  0
  6 18  1  0
  6 19  1  0
 10 20  1  0
 11 21  1  0
 12 22  1  0
 13 23  1  0
 14 24  1  0
 15 25  1  0
 16 26  1  0
 17 27  1  0
M  END
$$$$
