
     RDKit          2D

 17 19  0  0  0  0  0  0  0  0999 V2000
   -0.0208    0.6458    0.0000 C   0  0  0  0  0  0  0  0  0  0  0  0
   -1.2375   -0.0917    0.0000 C   0  0  0  0  0  0  0  0  0  0  0  0
    1.2542   -0.0917    0.0000 C   0  0  0  0  0  0  0  0  0  0  0  0
   -1.2375   -1.5167    0.0000 C   0  0  0  0  0  0  0  0  0  0  0  0
    1.2542   -1.5167    0.0000 C   0  0  0  0  0  0  0  0  0  0  0  0
   -0.0208   -2.2250    0.0000 C   0  0  0  0  0  0  0  0  0  0  0  0
   -0.0208    2.0625    0.0000 O   0  0  0  0  0  0  0  0  0  0  0  0
   -2.4958    0.6458    0.0000 C   0  0  0  0  0  0  0  0  0  0  0  0
    2.4875    0.6125    0.0000 C   0  0  0  0  0  0  0  0  0  0  0  0
   -2.4958   -2.2250    0.0000 C   0  0  0  0  0  0  0  0  0  0  0  0
    2.4875   -2.2250    0.0000 C   0  0  0  0  0  0  0  0  0  0  0  0
   -2.4958    2.0625    0.0000 O   0  0  0  0  0  0  0  0  0  0  0  0
    2.4875    2.0625    0.0000 O   0  0  0  0  0  0  0  0  0  0  0  0
   -3.7458   -1.5167    0.0000 C   0  0  0  0  0  0  0  0  0  0  0  0
    3.7375   -1.4875    0.0000 C   0  0  0  0  0  0  0  0  0  0  0  0
   -3.7458   -0.0917    0.0000 C   0  0  0  0  0  0  0  0  0  0  0  0
    3.7375   -0.1167    0.0000 C   0  0  0  0  0  0  0  0  0  0  0  0
  2  1  1  0
  3  1  1  0
  4  2  2  0
  5  3  1  0
  6  5  1  0
  7  1  2  0
  8  2  1  0
  9  3  2  0
 10  4  1  0
 11  5  2  0
 12  8  1  0
 13  9  1  0
 14 16  1  0
 15 17  2  0
 16  8  2  0
 17  9  1  0
  4  6  1  0
 11 15  1  0
 10 14  2  0
M  END
> <chembl_id>
CHEMBL46469

> <chembl_pref_name>
ANTHRALIN
