
     RDKit          3D

 17 19  0  0  0  0  0  0  0  0999 V2000
   -0.0843    0.9345    0.0156 C   0  0  0  0  0  0  0  0  0  0  0  0
   -1.2613    0.0778   -0.0066 C   0  0  0  0  0  0  0  0  0  0  0  0
    1.2224    0.2975    0.0128 C   0  0  0  0  0  0  0  0  0  0  0  0
   -1.1258   -1.2905   -0.0294 C   0  0  0  0  0  0  0  0  0  0  0  0
    1.3048   -1.0697   -0.0103 C   0  0  0  0  0  0  0  0  0  0  0  0
    0.1694   -2.0026   -0.0335 C   0  0  0  0  0  0  0  0  0  0  0  0
   -0.1928    2.1688    0.0363 O   0  0  0  0  0  0  0  0  0  0  0  0
   -2.4913    0.7042   -0.0035 C   0  0  0  0  0  0  0  0  0  0  0  0
    2.3252    1.1283    0.0341 C   0  0  0  0  0  0  0  0  0  0  0  0
   -2.2673   -2.0650   -0.0499 C   0  0  0  0  0  0  0  0  0  0  0  0
    2.5833   -1.6359   -0.0121 C   0  0  0  0  0  0  0  0  0  0  0  0
   -2.5781    2.0942    0.0200 O   0  0  0  0  0  0  0  0  0  0  0  0
    2.2165    2.5125    0.0573 O   0  0  0  0  0  0  0  0  0  0  0  0
   -3.4926   -1.4890   -0.0477 C   0  0  0  0  0  0  0  0  0  0  0  0
    3.6881   -0.8101    0.0091 C   0  0  0  0  0  0  0  0  0  0  0  0
   -3.5997   -0.1172   -0.0246 C   0  0  0  0  0  0  0  0  0  0  0  0
    3.5833    0.5621    0.0322 C   0  0  0  0  0  0  0  0  0  0  0  0
  2  1  1  0
  3  1  1  0
  4  2  2  0
  5  3  2  0
  6  5  1  0
  7  1  2  0
  8  2  1  0
  9  3  1  0
 10  4  1  0
 11  5  1  0
 12  8  1  0
 13  9  1  0
 14 16  1  0
 15 17  1  0
 16  8  2  0
 17  9  2  0
  4  6  1  0
 11 15  2  0
 10 14  2  0
M  END
