
     RDKit          3D

 27 29  0  0  0  0  0  0  0  0999 V2000
    0.0893    1.2293   -0.1689 C   0  0  0  0  0  0  0  0  0  0  0  0
    1.3149    0.4101   -0.0505 C   0  0  0  0  0  0  0  0  0  0  0  0
   -1.2422    0.5909   -0.0871 C   0  0  0  0  0  0  0  0  0  0  0  0
    1.2084   -0.9740    0.1397 C   0  0  0  0  0  0  0  0  0  0  0  0
   -1.3369   -0.7940    0.1033 C   0  0  0  0  0  0  0  0  0  0  0  0
   -0.1216   -1.6724    0.2298 C   0  0  0  0  0  0  0  0  0  0  0  0
    0.1778    2.4462   -0.3362 O   0  0  0  0  0  0  0  0  0  0  0  0
    2.5816    1.0098   -0.1273 C   0  0  0  0  0  0  0  0  0  0  0  0
   -2.4092    1.3628   -0.1987 C   0  0  0  0  0  0  0  0  0  0  0  0
    2.3835   -1.7384    0.2503 C   0  0  0  0  0  0  0  0  0  0  0  0
   -2.6105   -1.3852    0.1789 C   0  0  0  0  0  0  0  0  0  0  0  0
    2.7654    2.3543   -0.3117 O   0  0  0  0  0  0  0  0  0  0  0  0
   -2.3966    2.7193   -0.3856 O   0  0  0  0  0  0  0  0  0  0  0  0
    3.6387   -1.1333    0.1727 C   0  0  0  0  0  0  0  0  0  0  0  0
   -3.7654   -0.6097    0.0668 C   0  0  0  0  0  0  0  0  0  0  0  0
    3.7374    0.2425   -0.0164 C   0  0  0  0  0  0  0  0  0  0  0  0
   -3.6641    0.7659   -0.1222 C   0  0  0  0  0  0  0  0  0  0  0  0
   -0.1717   -2.1850    1.1991 H   0  0  0  0  0  0  0  0  0  0  0  0
   -0.1636   -2.4280   -0.5652 H   0  0  0  0  0  0  0  0  0  0  0  0
    2.3263   -2.8156    0.3985 H   0  0  0  0  0  0  0  0  0  0  0  0
   -2.7097   -2.4595    0.3265 H   0  0  0  0  0  0  0  0  0  0  0  0
    1.8779    2.7723   -0.3733 H   0  0  0  0  0  0  0  0  0  0  0  0
   -1.4578    3.0082   -0.4211 H   0  0  0  0  0  0  0  0  0  0  0  0
    4.5412   -1.7338    0.2595 H   0  0  0  0  0  0  0  0  0  0  0  0
   -4.7454   -1.0770    0.1267 H   0  0  0  0  0  0  0  0  0  0  0  0
    4.7122    0.7193   -0.0776 H   0  0  0  0  0  0  0  0  0  0  0  0
   -4.5600    1.3750   -0.2102 H   0  0  0  0  0  0  0  0  0  0  0  0
  2  1  1  0
  3  1  1  0
  4  2  2  0
  5  3  2  0
  6  5  1  0
  7  1  2  0
  8  2  1  0
  9  3  1  0
 10  4  1  0
 11  5  1  0
 12  8  1  0
 13  9  1  0
 14 16  1  0
 15 17  1  0
 16  8  2  0
 17  9  2  0
  4  6  1  0
 11 15  2  0
 10 14  2  0
  6 18  1  0
  6 19  1  0
 10 20  1  0
 11 21  1  0
 12 22  1  0
 13 23  1  0
 14 24  1  0
 15 25  1  0
 16 26  1  0
 17 27  1  0
M  END
$$$$
