
     RDKit          3D

 27 29  0  0  0  0  0  0  0  0999 V2000
    0.0785    1.2376   -0.0989 C   0  0  0  0  0  0  0  0  0  0  0  0
    1.3021    0.4117   -0.1861 C   0  0  0  0  0  0  0  0  0  0  0  0
   -1.2382    0.5961    0.1056 C   0  0  0  0  0  0  0  0  0  0  0  0
    1.2079   -0.9817   -0.0741 C   0  0  0  0  0  0  0  0  0  0  0  0
   -1.3208   -0.7982    0.2162 C   0  0  0  0  0  0  0  0  0  0  0  0
   -0.1068   -1.6837    0.1345 C   0  0  0  0  0  0  0  0  0  0  0  0
    0.1561    2.4628   -0.1968 O   0  0  0  0  0  0  0  0  0  0  0  0
    2.5548    1.0144   -0.3800 C   0  0  0  0  0  0  0  0  0  0  0  0
   -2.4034    1.3743    0.1892 C   0  0  0  0  0  0  0  0  0  0  0  0
    2.3810   -1.7525   -0.1592 C   0  0  0  0  0  0  0  0  0  0  0  0
   -2.5804   -1.3924    0.4104 C   0  0  0  0  0  0  0  0  0  0  0  0
    2.7261    2.3679   -0.4984 O   0  0  0  0  0  0  0  0  0  0  0  0
   -2.4022    2.7401    0.0903 O   0  0  0  0  0  0  0  0  0  0  0  0
    3.6223   -1.1444   -0.3521 C   0  0  0  0  0  0  0  0  0  0  0  0
   -3.7336   -0.6105    0.4923 C   0  0  0  0  0  0  0  0  0  0  0  0
    3.7088    0.2408   -0.4626 C   0  0  0  0  0  0  0  0  0  0  0  0
   -3.6444    0.7744    0.3815 C   0  0  0  0  0  0  0  0  0  0  0  0
   -0.2531   -2.3859   -0.6964 H   0  0  0  0  0  0  0  0  0  0  0  0
   -0.0414   -2.2584    1.0674 H   0  0  0  0  0  0  0  0  0  0  0  0
    2.3332   -2.8370   -0.0750 H   0  0  0  0  0  0  0  0  0  0  0  0
   -2.6699   -2.4739    0.4993 H   0  0  0  0  0  0  0  0  0  0  0  0
    1.8415    2.7896   -0.4227 H   0  0  0  0  0  0  0  0  0  0  0  0
   -1.4725    3.0301   -0.0422 H   0  0  0  0  0  0  0  0  0  0  0  0
    4.5233   -1.7497   -0.4165 H   0  0  0  0  0  0  0  0  0  0  0  0
   -4.7027   -1.0802    0.6426 H   0  0  0  0  0  0  0  0  0  0  0  0
    4.6727    0.7200   -0.6129 H   0  0  0  0  0  0  0  0  0  0  0  0
   -4.5390    1.3885    0.4445 H   0  0  0  0  0  0  0  0  0  0  0  0
  2  1  1  0
  3  1  1  0
  4  2  2  0
  5  3  2  0
  6  5  1  0
  7  1  2  0
  8  2  1  0
  9  3  1  0
 10  4  1  0
 11  5  1  0
 12  8  1  0
 13  9  1  0
 14 16  1  0
 15 17  1  0
 16  8  2  0
 17  9  2  0
  4  6  1  0
 11 15  2  0
 10 14  2  0
  6 18  1  0
  6 19  1  0
 10 20  1  0
 11 21  1  0
 12 22  1  0
 13 23  1  0
 14 24  1  0
 15 25  1  0
 16 26  1  0
 17 27  1  0
M  END
$$$$
