
     RDKit          3D

 25 26  0  0  0  0  0  0  0  0999 V2000
   46.0928    4.4941    8.4958 C   0  0  0  0  0  0  0  0  0  0  0  0
   44.9911    4.2304    9.5256 C   0  0  0  0  0  0  0  0  0  0  0  0
   44.3818    5.2658   10.0169 N   0  0  0  0  0  0  0  0  0  0  0  0
   46.5313    3.3690    7.6467 C   0  0  0  0  0  0  0  0  0  0  0  0
   42.6360    6.1822   11.3327 C   0  0  0  0  0  0  0  0  0  0  0  0
   44.7420    2.8001    9.8624 C   0  0  0  0  0  0  0  0  0  0  0  0
   45.2661    1.8145    9.1246 C   0  0  0  0  0  0  0  0  0  0  0  0
   43.3440    5.0846   10.8885 N   0  0  0  0  0  0  0  0  0  0  0  0
   46.1105    2.0720    7.9587 C   0  0  0  0  0  0  0  0  0  0  0  0
   46.5998    5.6006    8.3791 O   0  0  0  0  0  0  0  0  0  0  0  0
   42.8405    7.3615   11.0861 O   0  0  0  0  0  0  0  0  0  0  0  0
   41.6019    5.8206   12.1524 N   0  0  0  0  0  0  0  0  0  0  0  0
   47.3704    3.6068    6.5512 C   0  0  0  0  0  0  0  0  0  0  0  0
   46.5381    1.0100    7.1518 C   0  0  0  0  0  0  0  0  0  0  0  0
   47.7860    2.5423    5.7533 C   0  0  0  0  0  0  0  0  0  0  0  0
   47.3692    1.2461    6.0528 C   0  0  0  0  0  0  0  0  0  0  0  0
   44.1296    2.5726   10.7241 H   0  0  0  0  0  0  0  0  0  0  0  0
   45.0695    0.7786    9.3882 H   0  0  0  0  0  0  0  0  0  0  0  0
   42.8055    4.2326   10.8218 H   0  0  0  0  0  0  0  0  0  0  0  0
   41.1572    6.6419   12.5480 H   0  0  0  0  0  0  0  0  0  0  0  0
   41.8335    5.1274   12.8492 H   0  0  0  0  0  0  0  0  0  0  0  0
   47.6983    4.6188    6.3194 H   0  0  0  0  0  0  0  0  0  0  0  0
   46.2333   -0.0120    7.3676 H   0  0  0  0  0  0  0  0  0  0  0  0
   48.4361    2.7243    4.9005 H   0  0  0  0  0  0  0  0  0  0  0  0
   47.6960    0.4155    5.4308 H   0  0  0  0  0  0  0  0  0  0  0  0
  2  1  1  0
  3  2  2  0
  4  1  1  0
  5  8  1  0
  6  2  1  0
  7  9  1  0
  8  3  1  0
  9  4  2  0
 10  1  2  0
 11  5  2  0
 12  5  1  0
 13  4  1  0
 14  9  1  0
 15 13  2  0
 16 15  1  0
  6  7  2  0
 14 16  2  0
  6 17  1  0
  7 18  1  0
  8 19  1  0
 12 20  1  0
 12 21  1  0
 13 22  1  0
 14 23  1  0
 15 24  1  0
 16 25  1  0
M  END
> <Uni-Dock RESULT> 
ENERGY=   -4.367  LOWER_BOUND=    0.000  UPPER_BOUND=    0.000
INTER + INTRA:          -4.367
INTER:                  -4.367
INTRA:                   0.000
UNBOUND:                 0.000

$$$$

     RDKit          3D

 25 26  0  0  0  0  0  0  0  0999 V2000
   46.1236    8.6708   12.6694 C   0  0  0  0  0  0  0  0  0  0  0  0
   46.0533    7.1465   12.7927 C   0  0  0  0  0  0  0  0  0  0  0  0
   44.8716    6.6103   12.8223 N   0  0  0  0  0  0  0  0  0  0  0  0
   47.4046    9.2737   12.2513 C   0  0  0  0  0  0  0  0  0  0  0  0
   43.4969    4.6793   12.7951 C   0  0  0  0  0  0  0  0  0  0  0  0
   47.3617    6.4378   12.8759 C   0  0  0  0  0  0  0  0  0  0  0  0
   48.5089    7.0693   12.6009 C   0  0  0  0  0  0  0  0  0  0  0  0
   44.7517    5.2488   12.8624 N   0  0  0  0  0  0  0  0  0  0  0  0
   48.5544    8.4782   12.2115 C   0  0  0  0  0  0  0  0  0  0  0  0
   45.1518    9.3720   12.9124 O   0  0  0  0  0  0  0  0  0  0  0  0
   42.4141    5.2442   12.7505 O   0  0  0  0  0  0  0  0  0  0  0  0
   43.5599    3.3126   12.7933 N   0  0  0  0  0  0  0  0  0  0  0  0
   47.4597   10.6316   11.9135 C   0  0  0  0  0  0  0  0  0  0  0  0
   49.7666    9.0610   11.8211 C   0  0  0  0  0  0  0  0  0  0  0  0
   48.6711   11.1993   11.5228 C   0  0  0  0  0  0  0  0  0  0  0  0
   49.8224   10.4145   11.4755 C   0  0  0  0  0  0  0  0  0  0  0  0
   47.3665    5.3973   13.1703 H   0  0  0  0  0  0  0  0  0  0  0  0
   49.4512    6.5318   12.6667 H   0  0  0  0  0  0  0  0  0  0  0  0
   45.4916    4.6906   12.4607 H   0  0  0  0  0  0  0  0  0  0  0  0
   42.6291    2.9132   12.8452 H   0  0  0  0  0  0  0  0  0  0  0  0
   44.1945    2.9149   13.4707 H   0  0  0  0  0  0  0  0  0  0  0  0
   46.5611   11.2449   11.9536 H   0  0  0  0  0  0  0  0  0  0  0  0
   50.6812    8.4729   11.7826 H   0  0  0  0  0  0  0  0  0  0  0  0
   48.7166   12.2532   11.2578 H   0  0  0  0  0  0  0  0  0  0  0  0
   50.7681   10.8591   11.1726 H   0  0  0  0  0  0  0  0  0  0  0  0
  2  1  1  0
  3  2  2  0
  4  1  1  0
  5  8  1  0
  6  2  1  0
  7  9  1  0
  8  3  1  0
  9  4  2  0
 10  1  2  0
 11  5  2  0
 12  5  1  0
 13  4  1  0
 14  9  1  0
 15 13  2  0
 16 15  1  0
  6  7  2  0
 14 16  2  0
  6 17  1  0
  7 18  1  0
  8 19  1  0
 12 20  1  0
 12 21  1  0
 13 22  1  0
 14 23  1  0
 15 24  1  0
 16 25  1  0
M  END
> <Uni-Dock RESULT> 
ENERGY=   -4.250  LOWER_BOUND=    5.394  UPPER_BOUND=    6.782
INTER + INTRA:          -4.250
INTER:                  -4.250
INTRA:                   0.000
UNBOUND:                 0.000

$$$$

     RDKit          3D

 25 26  0  0  0  0  0  0  0  0999 V2000
   46.0580    8.6913   12.6386 C   0  0  0  0  0  0  0  0  0  0  0  0
   46.0460    7.1678   12.7892 C   0  0  0  0  0  0  0  0  0  0  0  0
   44.8859    6.5862   12.8158 N   0  0  0  0  0  0  0  0  0  0  0  0
   47.3193    9.3364   12.2234 C   0  0  0  0  0  0  0  0  0  0  0  0
   43.5882    4.6025   12.8093 C   0  0  0  0  0  0  0  0  0  0  0  0
   47.3800    6.5127   12.8998 C   0  0  0  0  0  0  0  0  0  0  0  0
   48.5048    7.1838   12.6257 C   0  0  0  0  0  0  0  0  0  0  0  0
   44.8188    5.2220   12.8798 N   0  0  0  0  0  0  0  0  0  0  0  0
   48.4997    8.5861   12.2108 C   0  0  0  0  0  0  0  0  0  0  0  0
   45.0569    9.3580   12.8579 O   0  0  0  0  0  0  0  0  0  0  0  0
   42.4847    5.1235   12.7424 O   0  0  0  0  0  0  0  0  0  0  0  0
   43.7046    3.2395   12.8334 N   0  0  0  0  0  0  0  0  0  0  0  0
   47.3252   10.6891   11.8612 C   0  0  0  0  0  0  0  0  0  0  0  0
   49.6927    9.2090   11.8230 C   0  0  0  0  0  0  0  0  0  0  0  0
   48.5179   11.2969   11.4733 C   0  0  0  0  0  0  0  0  0  0  0  0
   49.6995   10.5572   11.4531 C   0  0  0  0  0  0  0  0  0  0  0  0
   47.4221    5.4787   13.2134 H   0  0  0  0  0  0  0  0  0  0  0  0
   49.4666    6.6850   12.7116 H   0  0  0  0  0  0  0  0  0  0  0  0
   45.5846    4.6862   12.4965 H   0  0  0  0  0  0  0  0  0  0  0  0
   42.7895    2.8049   12.8825 H   0  0  0  0  0  0  0  0  0  0  0  0
   44.3463    2.8794   13.5249 H   0  0  0  0  0  0  0  0  0  0  0  0
   46.4029   11.2673   11.8801 H   0  0  0  0  0  0  0  0  0  0  0  0
   50.6299    8.6567   11.8054 H   0  0  0  0  0  0  0  0  0  0  0  0
   48.5252   12.3468   11.1894 H   0  0  0  0  0  0  0  0  0  0  0  0
   50.6305   11.0331   11.1524 H   0  0  0  0  0  0  0  0  0  0  0  0
  2  1  1  0
  3  2  2  0
  4  1  1  0
  5  8  1  0
  6  2  1  0
  7  9  1  0
  8  3  1  0
  9  4  2  0
 10  1  2  0
 11  5  2  0
 12  5  1  0
 13  4  1  0
 14  9  1  0
 15 13  2  0
 16 15  1  0
  6  7  2  0
 14 16  2  0
  6 17  1  0
  7 18  1  0
  8 19  1  0
 12 20  1  0
 12 21  1  0
 13 22  1  0
 14 23  1  0
 15 24  1  0
 16 25  1  0
M  END
> <Uni-Dock RESULT> 
ENERGY=   -4.212  LOWER_BOUND=    5.387  UPPER_BOUND=    6.829
INTER + INTRA:          -4.212
INTER:                  -4.212
INTRA:                   0.000
UNBOUND:                 0.000

$$$$

     RDKit          3D

 25 26  0  0  0  0  0  0  0  0999 V2000
   47.5787    5.9552   14.2694 C   0  0  0  0  0  0  0  0  0  0  0  0
   46.5628    6.1424   13.1395 C   0  0  0  0  0  0  0  0  0  0  0  0
   45.3781    5.6445   13.3221 N   0  0  0  0  0  0  0  0  0  0  0  0
   48.7788    6.8150   14.2715 C   0  0  0  0  0  0  0  0  0  0  0  0
   43.1290    5.3963   12.6156 C   0  0  0  0  0  0  0  0  0  0  0  0
   47.0520    6.8746   11.9372 C   0  0  0  0  0  0  0  0  0  0  0  0
   48.2119    7.5414   11.9580 C   0  0  0  0  0  0  0  0  0  0  0  0
   44.4122    5.8420   12.3747 N   0  0  0  0  0  0  0  0  0  0  0  0
   49.0668    7.5904   13.1435 C   0  0  0  0  0  0  0  0  0  0  0  0
   47.4075    5.1178   15.1437 O   0  0  0  0  0  0  0  0  0  0  0  0
   42.7162    4.7746   13.5834 O   0  0  0  0  0  0  0  0  0  0  0  0
   42.2792    5.7212   11.5938 N   0  0  0  0  0  0  0  0  0  0  0  0
   49.6203    6.8363   15.3906 C   0  0  0  0  0  0  0  0  0  0  0  0
   50.2118    8.3970   13.1520 C   0  0  0  0  0  0  0  0  0  0  0  0
   50.7547    7.6459   15.3886 C   0  0  0  0  0  0  0  0  0  0  0  0
   51.0490    8.4260   14.2712 C   0  0  0  0  0  0  0  0  0  0  0  0
   46.4497    6.8519   11.0394 H   0  0  0  0  0  0  0  0  0  0  0  0
   48.5480    8.0697   11.0697 H   0  0  0  0  0  0  0  0  0  0  0  0
   44.4715    6.6671   11.7949 H   0  0  0  0  0  0  0  0  0  0  0  0
   41.3684    5.3000   11.7406 H   0  0  0  0  0  0  0  0  0  0  0  0
   42.6435    5.5523   10.6673 H   0  0  0  0  0  0  0  0  0  0  0  0
   49.3920    6.2246   16.2618 H   0  0  0  0  0  0  0  0  0  0  0  0
   50.4684    9.0099   12.2904 H   0  0  0  0  0  0  0  0  0  0  0  0
   51.4091    7.6661   16.2572 H   0  0  0  0  0  0  0  0  0  0  0  0
   51.9360    9.0559   14.2697 H   0  0  0  0  0  0  0  0  0  0  0  0
  2  1  1  0
  3  2  2  0
  4  1  1  0
  5  8  1  0
  6  2  1  0
  7  9  1  0
  8  3  1  0
  9  4  2  0
 10  1  2  0
 11  5  2  0
 12  5  1  0
 13  4  1  0
 14  9  1  0
 15 13  2  0
 16 15  1  0
  6  7  2  0
 14 16  2  0
  6 17  1  0
  7 18  1  0
  8 19  1  0
 12 20  1  0
 12 21  1  0
 13 22  1  0
 14 23  1  0
 15 24  1  0
 16 25  1  0
M  END
> <Uni-Dock RESULT> 
ENERGY=   -3.811  LOWER_BOUND=    5.696  UPPER_BOUND=    7.055
INTER + INTRA:          -3.811
INTER:                  -3.811
INTRA:                   0.000
UNBOUND:                 0.000

$$$$

     RDKit          3D

 25 26  0  0  0  0  0  0  0  0999 V2000
   46.5642    6.8811   12.5395 C   0  0  0  0  0  0  0  0  0  0  0  0
   47.5244    6.2848   13.5721 C   0  0  0  0  0  0  0  0  0  0  0  0
   48.5054    7.0363   13.9693 N   0  0  0  0  0  0  0  0  0  0  0  0
   45.2523    6.2297   12.3561 C   0  0  0  0  0  0  0  0  0  0  0  0
   50.3336    7.4162   15.4296 C   0  0  0  0  0  0  0  0  0  0  0  0
   47.2312    4.8895   14.0060 C   0  0  0  0  0  0  0  0  0  0  0  0
   46.0664    4.3027   13.7071 C   0  0  0  0  0  0  0  0  0  0  0  0
   49.3523    6.5789   14.9405 N   0  0  0  0  0  0  0  0  0  0  0  0
   45.0212    4.9802   12.9408 C   0  0  0  0  0  0  0  0  0  0  0  0
   46.8718    7.8648   11.8816 O   0  0  0  0  0  0  0  0  0  0  0  0
   50.6030    8.5527   15.0699 O   0  0  0  0  0  0  0  0  0  0  0  0
   51.0546    6.8225   16.4294 N   0  0  0  0  0  0  0  0  0  0  0  0
   44.2615    6.8583   11.5917 C   0  0  0  0  0  0  0  0  0  0  0  0
   43.7760    4.3665   12.7547 C   0  0  0  0  0  0  0  0  0  0  0  0
   43.0250    6.2394   11.4170 C   0  0  0  0  0  0  0  0  0  0  0  0
   42.7826    4.9959   11.9988 C   0  0  0  0  0  0  0  0  0  0  0  0
   47.9856    4.3548   14.5665 H   0  0  0  0  0  0  0  0  0  0  0  0
   45.8738    3.2848   14.0355 H   0  0  0  0  0  0  0  0  0  0  0  0
   48.9988    5.9070   15.6069 H   0  0  0  0  0  0  0  0  0  0  0  0
   51.8322    7.4120   16.7060 H   0  0  0  0  0  0  0  0  0  0  0  0
   51.3326    5.8694   16.2453 H   0  0  0  0  0  0  0  0  0  0  0  0
   44.4522    7.8279   11.1348 H   0  0  0  0  0  0  0  0  0  0  0  0
   43.5633    3.3931   13.1917 H   0  0  0  0  0  0  0  0  0  0  0  0
   42.2528    6.7262   10.8256 H   0  0  0  0  0  0  0  0  0  0  0  0
   41.8179    4.5126   11.8599 H   0  0  0  0  0  0  0  0  0  0  0  0
  2  1  1  0
  3  2  2  0
  4  1  1  0
  5  8  1  0
  6  2  1  0
  7  9  1  0
  8  3  1  0
  9  4  2  0
 10  1  2  0
 11  5  2  0
 12  5  1  0
 13  4  1  0
 14  9  1  0
 15 13  2  0
 16 15  1  0
  6  7  2  0
 14 16  2  0
  6 17  1  0
  7 18  1  0
  8 19  1  0
 12 20  1  0
 12 21  1  0
 13 22  1  0
 14 23  1  0
 15 24  1  0
 16 25  1  0
M  END
> <Uni-Dock RESULT> 
ENERGY=   -3.773  LOWER_BOUND=    5.691  UPPER_BOUND=    6.972
INTER + INTRA:          -3.773
INTER:                  -3.773
INTRA:                   0.000
UNBOUND:                 0.000

$$$$

     RDKit          3D

 25 26  0  0  0  0  0  0  0  0999 V2000
   46.6333    4.8650   13.7369 C   0  0  0  0  0  0  0  0  0  0  0  0
   47.3173    6.2342   13.7708 C   0  0  0  0  0  0  0  0  0  0  0  0
   48.4274    6.3235   14.4374 N   0  0  0  0  0  0  0  0  0  0  0  0
   45.6084    4.6279   12.7013 C   0  0  0  0  0  0  0  0  0  0  0  0
   50.3420    7.5693   15.0710 C   0  0  0  0  0  0  0  0  0  0  0  0
   46.6226    7.3287   13.0355 C   0  0  0  0  0  0  0  0  0  0  0  0
   45.6147    7.0662   12.1955 C   0  0  0  0  0  0  0  0  0  0  0  0
   49.1151    7.5053   14.4435 N   0  0  0  0  0  0  0  0  0  0  0  0
   45.1314    5.7078   11.9510 C   0  0  0  0  0  0  0  0  0  0  0  0
   46.9213    3.9924   14.5435 O   0  0  0  0  0  0  0  0  0  0  0  0
   50.9150    6.6903   15.6977 O   0  0  0  0  0  0  0  0  0  0  0  0
   50.9162    8.8039   14.9372 N   0  0  0  0  0  0  0  0  0  0  0  0
   45.1159    3.3342   12.4898 C   0  0  0  0  0  0  0  0  0  0  0  0
   44.1534    5.4742   10.9761 C   0  0  0  0  0  0  0  0  0  0  0  0
   44.1455    3.1137   11.5140 C   0  0  0  0  0  0  0  0  0  0  0  0
   43.6662    4.1822   10.7575 C   0  0  0  0  0  0  0  0  0  0  0  0
   46.9475    8.3470   13.1995 H   0  0  0  0  0  0  0  0  0  0  0  0
   45.1238    7.8804   11.6688 H   0  0  0  0  0  0  0  0  0  0  0  0
   49.0126    8.1234   13.6511 H   0  0  0  0  0  0  0  0  0  0  0  0
   51.7662    8.8628   15.4873 H   0  0  0  0  0  0  0  0  0  0  0  0
   50.2930    9.5825   15.0958 H   0  0  0  0  0  0  0  0  0  0  0  0
   45.4881    2.5005   13.0828 H   0  0  0  0  0  0  0  0  0  0  0  0
   43.7570    6.2913   10.3769 H   0  0  0  0  0  0  0  0  0  0  0  0
   43.7626    2.1096   11.3460 H   0  0  0  0  0  0  0  0  0  0  0  0
   42.9070    4.0094    9.9976 H   0  0  0  0  0  0  0  0  0  0  0  0
  2  1  1  0
  3  2  2  0
  4  1  1  0
  5  8  1  0
  6  2  1  0
  7  9  1  0
  8  3  1  0
  9  4  2  0
 10  1  2  0
 11  5  2  0
 12  5  1  0
 13  4  1  0
 14  9  1  0
 15 13  2  0
 16 15  1  0
  6  7  2  0
 14 16  2  0
  6 17  1  0
  7 18  1  0
  8 19  1  0
 12 20  1  0
 12 21  1  0
 13 22  1  0
 14 23  1  0
 15 24  1  0
 16 25  1  0
M  END
> <Uni-Dock RESULT> 
ENERGY=   -3.750  LOWER_BOUND=    5.364  UPPER_BOUND=    6.854
INTER + INTRA:          -3.750
INTER:                  -3.750
INTRA:                   0.000
UNBOUND:                 0.000

$$$$

     RDKit          3D

 25 26  0  0  0  0  0  0  0  0999 V2000
   44.3221    6.4771   11.4429 C   0  0  0  0  0  0  0  0  0  0  0  0
   44.3753    8.0016   11.5729 C   0  0  0  0  0  0  0  0  0  0  0  0
   43.3667    8.6699   11.1028 N   0  0  0  0  0  0  0  0  0  0  0  0
   45.2334    5.6778   12.2854 C   0  0  0  0  0  0  0  0  0  0  0  0
   42.2138   10.7244   10.8406 C   0  0  0  0  0  0  0  0  0  0  0  0
   45.5953    8.5587   12.2226 C   0  0  0  0  0  0  0  0  0  0  0  0
   46.4547    7.7666   12.8742 C   0  0  0  0  0  0  0  0  0  0  0  0
   43.3309   10.0284   11.2537 N   0  0  0  0  0  0  0  0  0  0  0  0
   46.2591    6.3216   12.9855 C   0  0  0  0  0  0  0  0  0  0  0  0
   43.5524    5.9337   10.6637 O   0  0  0  0  0  0  0  0  0  0  0  0
   41.2162   10.2880   10.2856 O   0  0  0  0  0  0  0  0  0  0  0  0
   42.3199   12.0611   11.1126 N   0  0  0  0  0  0  0  0  0  0  0  0
   45.0725    4.2890   12.3650 C   0  0  0  0  0  0  0  0  0  0  0  0
   47.1235    5.5538   13.7760 C   0  0  0  0  0  0  0  0  0  0  0  0
   45.9366    3.5362   13.1582 C   0  0  0  0  0  0  0  0  0  0  0  0
   46.9597    4.1682   13.8635 C   0  0  0  0  0  0  0  0  0  0  0  0
   45.7769    9.6224   12.1521 H   0  0  0  0  0  0  0  0  0  0  0  0
   47.3371    8.1953   13.3419 H   0  0  0  0  0  0  0  0  0  0  0  0
   43.8162   10.4360   12.0404 H   0  0  0  0  0  0  0  0  0  0  0  0
   41.5380   12.5689   10.7133 H   0  0  0  0  0  0  0  0  0  0  0  0
   43.2125   12.4728   10.8818 H   0  0  0  0  0  0  0  0  0  0  0  0
   44.2755    3.7954   11.8116 H   0  0  0  0  0  0  0  0  0  0  0  0
   47.9345    6.0210   14.3309 H   0  0  0  0  0  0  0  0  0  0  0  0
   45.8128    2.4576   13.2236 H   0  0  0  0  0  0  0  0  0  0  0  0
   47.6352    3.5794   14.4805 H   0  0  0  0  0  0  0  0  0  0  0  0
  2  1  1  0
  3  2  2  0
  4  1  1  0
  5  8  1  0
  6  2  1  0
  7  9  1  0
  8  3  1  0
  9  4  2  0
 10  1  2  0
 11  5  2  0
 12  5  1  0
 13  4  1  0
 14  9  1  0
 15 13  2  0
 16 15  1  0
  6  7  2  0
 14 16  2  0
  6 17  1  0
  7 18  1  0
  8 19  1  0
 12 20  1  0
 12 21  1  0
 13 22  1  0
 14 23  1  0
 15 24  1  0
 16 25  1  0
M  END
> <Uni-Dock RESULT> 
ENERGY=   -3.707  LOWER_BOUND=    4.658  UPPER_BOUND=    5.898
INTER + INTRA:          -3.707
INTER:                  -3.707
INTRA:                   0.000
UNBOUND:                 0.000

$$$$

     RDKit          3D

 25 26  0  0  0  0  0  0  0  0999 V2000
   54.8872    5.1235   11.0724 C   0  0  0  0  0  0  0  0  0  0  0  0
   55.7018    3.8289   11.0063 C   0  0  0  0  0  0  0  0  0  0  0  0
   55.9717    3.2429   12.1326 N   0  0  0  0  0  0  0  0  0  0  0  0
   54.2423    5.6003    9.8330 C   0  0  0  0  0  0  0  0  0  0  0  0
   56.8363    1.3806   13.3173 C   0  0  0  0  0  0  0  0  0  0  0  0
   56.1084    3.3830    9.6436 C   0  0  0  0  0  0  0  0  0  0  0  0
   55.5767    3.9365    8.5475 C   0  0  0  0  0  0  0  0  0  0  0  0
   56.6370    2.0484   12.1266 N   0  0  0  0  0  0  0  0  0  0  0  0
   54.5795    5.0042    8.6134 C   0  0  0  0  0  0  0  0  0  0  0  0
   54.7744    5.7489   12.1170 O   0  0  0  0  0  0  0  0  0  0  0  0
   56.5312    1.7417   14.4443 O   0  0  0  0  0  0  0  0  0  0  0  0
   57.4675    0.1818   13.1268 N   0  0  0  0  0  0  0  0  0  0  0  0
   53.3146    6.6479    9.8873 C   0  0  0  0  0  0  0  0  0  0  0  0
   53.9682    5.4687    7.4420 C   0  0  0  0  0  0  0  0  0  0  0  0
   52.7100    7.0988    8.7153 C   0  0  0  0  0  0  0  0  0  0  0  0
   53.0357    6.5089    7.4948 C   0  0  0  0  0  0  0  0  0  0  0  0
   56.8510    2.6017    9.5571 H   0  0  0  0  0  0  0  0  0  0  0  0
   55.8872    3.5942    7.5639 H   0  0  0  0  0  0  0  0  0  0  0  0
   56.5421    1.4511   11.3175 H   0  0  0  0  0  0  0  0  0  0  0  0
   57.6949   -0.2464   14.0176 H   0  0  0  0  0  0  0  0  0  0  0  0
   58.2543    0.2109   12.4946 H   0  0  0  0  0  0  0  0  0  0  0  0
   53.0629    7.1104   10.8401 H   0  0  0  0  0  0  0  0  0  0  0  0
   54.2097    5.0308    6.4757 H   0  0  0  0  0  0  0  0  0  0  0  0
   51.9875    7.9108    8.7546 H   0  0  0  0  0  0  0  0  0  0  0  0
   52.5649    6.8631    6.5801 H   0  0  0  0  0  0  0  0  0  0  0  0
  2  1  1  0
  3  2  2  0
  4  1  1  0
  5  8  1  0
  6  2  1  0
  7  9  1  0
  8  3  1  0
  9  4  2  0
 10  1  2  0
 11  5  2  0
 12  5  1  0
 13  4  1  0
 14  9  1  0
 15 13  2  0
 16 15  1  0
  6  7  2  0
 14 16  2  0
  6 17  1  0
  7 18  1  0
  8 19  1  0
 12 20  1  0
 12 21  1  0
 13 22  1  0
 14 23  1  0
 15 24  1  0
 16 25  1  0
M  END
> <Uni-Dock RESULT> 
ENERGY=   -3.684  LOWER_BOUND=    9.749  UPPER_BOUND=   11.161
INTER + INTRA:          -3.684
INTER:                  -3.684
INTRA:                   0.000
UNBOUND:                 0.000

$$$$

     RDKit          3D

 25 26  0  0  0  0  0  0  0  0999 V2000
   45.6922    7.2130   12.6172 C   0  0  0  0  0  0  0  0  0  0  0  0
   46.9167    7.1104   13.5305 C   0  0  0  0  0  0  0  0  0  0  0  0
   47.4067    8.2217   13.9883 N   0  0  0  0  0  0  0  0  0  0  0  0
   44.8892    5.9942   12.3956 C   0  0  0  0  0  0  0  0  0  0  0  0
   48.9125    9.3596   15.4225 C   0  0  0  0  0  0  0  0  0  0  0  0
   47.4238    5.7331   13.7893 C   0  0  0  0  0  0  0  0  0  0  0  0
   46.7020    4.6566   13.4565 C   0  0  0  0  0  0  0  0  0  0  0  0
   48.4574    8.1838   14.8625 N   0  0  0  0  0  0  0  0  0  0  0  0
   45.3891    4.7589   12.8207 C   0  0  0  0  0  0  0  0  0  0  0  0
   45.3868    8.2693   12.0826 O   0  0  0  0  0  0  0  0  0  0  0  0
   48.5250   10.4979   15.2044 O   0  0  0  0  0  0  0  0  0  0  0  0
   49.9284    9.1377   16.3117 N   0  0  0  0  0  0  0  0  0  0  0  0
   43.6480    6.0833   11.7534 C   0  0  0  0  0  0  0  0  0  0  0  0
   44.6234    3.6073   12.5989 C   0  0  0  0  0  0  0  0  0  0  0  0
   42.8935    4.9307   11.5420 C   0  0  0  0  0  0  0  0  0  0  0  0
   43.3803    3.6948   11.9654 C   0  0  0  0  0  0  0  0  0  0  0  0
   48.3956    5.6196   14.2496 H   0  0  0  0  0  0  0  0  0  0  0  0
   47.0913    3.6617   13.6563 H   0  0  0  0  0  0  0  0  0  0  0  0
   48.5645    7.3673   15.4477 H   0  0  0  0  0  0  0  0  0  0  0  0
   50.3162   10.0171   16.6358 H   0  0  0  0  0  0  0  0  0  0  0  0
   50.6365    8.4907   15.9960 H   0  0  0  0  0  0  0  0  0  0  0  0
   43.2695    7.0481   11.4201 H   0  0  0  0  0  0  0  0  0  0  0  0
   44.9831    2.6296   12.9129 H   0  0  0  0  0  0  0  0  0  0  0  0
   41.9281    4.9971   11.0454 H   0  0  0  0  0  0  0  0  0  0  0  0
   42.7917    2.7954   11.7978 H   0  0  0  0  0  0  0  0  0  0  0  0
  2  1  1  0
  3  2  2  0
  4  1  1  0
  5  8  1  0
  6  2  1  0
  7  9  1  0
  8  3  1  0
  9  4  2  0
 10  1  2  0
 11  5  2  0
 12  5  1  0
 13  4  1  0
 14  9  1  0
 15 13  2  0
 16 15  1  0
  6  7  2  0
 14 16  2  0
  6 17  1  0
  7 18  1  0
  8 19  1  0
 12 20  1  0
 12 21  1  0
 13 22  1  0
 14 23  1  0
 15 24  1  0
 16 25  1  0
M  END
> <Uni-Dock RESULT> 
ENERGY=   -3.568  LOWER_BOUND=    5.284  UPPER_BOUND=    6.679
INTER + INTRA:          -3.568
INTER:                  -3.568
INTRA:                   0.000
UNBOUND:                 0.000

$$$$
