
     RDKit          3D

 25 26  0  0  0  0  0  0  0  0999 V2000
   45.9988    8.8003   12.6363 C   0  0  0  0  0  0  0  0  0  0  0  0
   45.9715    7.2750   12.7647 C   0  0  0  0  0  0  0  0  0  0  0  0
   44.8055    6.7056   12.7922 N   0  0  0  0  0  0  0  0  0  0  0  0
   47.2637    9.4380   12.2202 C   0  0  0  0  0  0  0  0  0  0  0  0
   43.4862    4.7363   12.7673 C   0  0  0  0  0  0  0  0  0  0  0  0
   47.2993    6.6040   12.8545 C   0  0  0  0  0  0  0  0  0  0  0  0
   48.4289    7.2671   12.5810 C   0  0  0  0  0  0  0  0  0  0  0  0
   44.7241    5.3414   12.8365 N   0  0  0  0  0  0  0  0  0  0  0  0
   48.4357    8.6753   12.1868 C   0  0  0  0  0  0  0  0  0  0  0  0
   45.0068    9.4744   12.8737 O   0  0  0  0  0  0  0  0  0  0  0  0
   42.3880    5.2700   12.7171 O   0  0  0  0  0  0  0  0  0  0  0  0
   43.5880    3.3719   12.7703 N   0  0  0  0  0  0  0  0  0  0  0  0
   47.2813   10.7958   11.8779 C   0  0  0  0  0  0  0  0  0  0  0  0
   49.6322    9.2910   11.7984 C   0  0  0  0  0  0  0  0  0  0  0  0
   48.4775   11.3964   11.4893 C   0  0  0  0  0  0  0  0  0  0  0  0
   49.6507   10.6444   11.4484 C   0  0  0  0  0  0  0  0  0  0  0  0
   47.3326    5.5652   13.1524 H   0  0  0  0  0  0  0  0  0  0  0  0
   49.3860    6.7567   12.6516 H   0  0  0  0  0  0  0  0  0  0  0  0
   45.4809    4.8030   12.4392 H   0  0  0  0  0  0  0  0  0  0  0  0
   42.6688    2.9464   12.8207 H   0  0  0  0  0  0  0  0  0  0  0  0
   44.2314    2.9947   13.4511 H   0  0  0  0  0  0  0  0  0  0  0  0
   46.3655   11.3835   11.9130 H   0  0  0  0  0  0  0  0  0  0  0  0
   50.5632    8.7290   11.7650 H   0  0  0  0  0  0  0  0  0  0  0  0
   48.4938   12.4501   11.2208 H   0  0  0  0  0  0  0  0  0  0  0  0
   50.5843   11.1147   11.1470 H   0  0  0  0  0  0  0  0  0  0  0  0
  2  1  1  0
  3  2  2  0
  4  1  1  0
  5  8  1  0
  6  2  1  0
  7  9  1  0
  8  3  1  0
  9  4  2  0
 10  1  2  0
 11  5  2  0
 12  5  1  0
 13  4  1  0
 14  9  1  0
 15 13  2  0
 16 15  1  0
  6  7  2  0
 14 16  2  0
  6 17  1  0
  7 18  1  0
  8 19  1  0
 12 20  1  0
 12 21  1  0
 13 22  1  0
 14 23  1  0
 15 24  1  0
 16 25  1  0
M  END
> <Uni-Dock RESULT> 
ENERGY=   -4.240  LOWER_BOUND=    0.000  UPPER_BOUND=    0.000
INTER + INTRA:          -4.240
INTER:                  -4.240
INTRA:                   0.000
UNBOUND:                 0.000

$$$$

     RDKit          3D

 25 26  0  0  0  0  0  0  0  0999 V2000
   47.5798    5.9585   14.2575 C   0  0  0  0  0  0  0  0  0  0  0  0
   46.5602    6.1453   13.1308 C   0  0  0  0  0  0  0  0  0  0  0  0
   45.3769    5.6454   13.3165 N   0  0  0  0  0  0  0  0  0  0  0  0
   48.7785    6.8202   14.2570 C   0  0  0  0  0  0  0  0  0  0  0  0
   43.1261    5.3944   12.6164 C   0  0  0  0  0  0  0  0  0  0  0  0
   47.0447    6.8796   11.9278 C   0  0  0  0  0  0  0  0  0  0  0  0
   48.2036    7.5482   11.9461 C   0  0  0  0  0  0  0  0  0  0  0  0
   44.4078    5.8426   12.3721 N   0  0  0  0  0  0  0  0  0  0  0  0
   49.0620    7.5973   13.1290 C   0  0  0  0  0  0  0  0  0  0  0  0
   47.4124    5.1199   15.1313 O   0  0  0  0  0  0  0  0  0  0  0  0
   42.7171    4.7711   13.5848 O   0  0  0  0  0  0  0  0  0  0  0  0
   42.2727    5.7192   11.5975 N   0  0  0  0  0  0  0  0  0  0  0  0
   49.6234    6.8415   15.3737 C   0  0  0  0  0  0  0  0  0  0  0  0
   50.2058    8.4055   13.1349 C   0  0  0  0  0  0  0  0  0  0  0  0
   50.7566    7.6528   15.3691 C   0  0  0  0  0  0  0  0  0  0  0  0
   51.0462    8.4346   14.2517 C   0  0  0  0  0  0  0  0  0  0  0  0
   46.4397    6.8570   11.0319 H   0  0  0  0  0  0  0  0  0  0  0  0
   48.5363    8.0780   11.0572 H   0  0  0  0  0  0  0  0  0  0  0  0
   44.4640    6.6683   11.7930 H   0  0  0  0  0  0  0  0  0  0  0  0
   41.3630    5.2964   11.7465 H   0  0  0  0  0  0  0  0  0  0  0  0
   42.6345    5.5519   10.6697 H   0  0  0  0  0  0  0  0  0  0  0  0
   49.3985    6.2285   16.2448 H   0  0  0  0  0  0  0  0  0  0  0  0
   50.4588    9.0197   12.2732 H   0  0  0  0  0  0  0  0  0  0  0  0
   51.4134    7.6731   16.2356 H   0  0  0  0  0  0  0  0  0  0  0  0
   51.9322    9.0659   14.2482 H   0  0  0  0  0  0  0  0  0  0  0  0
  2  1  1  0
  3  2  2  0
  4  1  1  0
  5  8  1  0
  6  2  1  0
  7  9  1  0
  8  3  1  0
  9  4  2  0
 10  1  2  0
 11  5  2  0
 12  5  1  0
 13  4  1  0
 14  9  1  0
 15 13  2  0
 16 15  1  0
  6  7  2  0
 14 16  2  0
  6 17  1  0
  7 18  1  0
  8 19  1  0
 12 20  1  0
 12 21  1  0
 13 22  1  0
 14 23  1  0
 15 24  1  0
 16 25  1  0
M  END
> <Uni-Dock RESULT> 
ENERGY=   -3.810  LOWER_BOUND=    2.366  UPPER_BOUND=    3.161
INTER + INTRA:          -3.810
INTER:                  -3.810
INTRA:                   0.000
UNBOUND:                 0.000

$$$$

     RDKit          3D

 25 26  0  0  0  0  0  0  0  0999 V2000
   46.5643    6.8799   12.5402 C   0  0  0  0  0  0  0  0  0  0  0  0
   47.5242    6.2832   13.5729 C   0  0  0  0  0  0  0  0  0  0  0  0
   48.5050    7.0345   13.9705 N   0  0  0  0  0  0  0  0  0  0  0  0
   45.2523    6.2285   12.3564 C   0  0  0  0  0  0  0  0  0  0  0  0
   50.3330    7.4139   15.4313 C   0  0  0  0  0  0  0  0  0  0  0  0
   47.2308    4.8878   14.0065 C   0  0  0  0  0  0  0  0  0  0  0  0
   46.0660    4.3012   13.7070 C   0  0  0  0  0  0  0  0  0  0  0  0
   49.3517    6.5768   14.9419 N   0  0  0  0  0  0  0  0  0  0  0  0
   45.0209    4.9789   12.9407 C   0  0  0  0  0  0  0  0  0  0  0  0
   46.8720    7.8636   11.8827 O   0  0  0  0  0  0  0  0  0  0  0  0
   50.6025    8.5505   15.0720 O   0  0  0  0  0  0  0  0  0  0  0  0
   51.0537    6.8200   16.4311 N   0  0  0  0  0  0  0  0  0  0  0  0
   44.2617    6.8574   11.5919 C   0  0  0  0  0  0  0  0  0  0  0  0
   43.7759    4.3653   12.7542 C   0  0  0  0  0  0  0  0  0  0  0  0
   43.0253    6.2386   11.4166 C   0  0  0  0  0  0  0  0  0  0  0  0
   42.7826    4.9950   11.9982 C   0  0  0  0  0  0  0  0  0  0  0  0
   47.9850    4.3530   14.5670 H   0  0  0  0  0  0  0  0  0  0  0  0
   45.8732    3.2831   14.0352 H   0  0  0  0  0  0  0  0  0  0  0  0
   48.9981    5.9048   15.6080 H   0  0  0  0  0  0  0  0  0  0  0  0
   51.8313    7.4093   16.7080 H   0  0  0  0  0  0  0  0  0  0  0  0
   51.3317    5.8668   16.2469 H   0  0  0  0  0  0  0  0  0  0  0  0
   44.4526    7.8271   11.1353 H   0  0  0  0  0  0  0  0  0  0  0  0
   43.5630    3.3918   13.1909 H   0  0  0  0  0  0  0  0  0  0  0  0
   42.2533    6.7256   10.8253 H   0  0  0  0  0  0  0  0  0  0  0  0
   41.8179    4.5118   11.8589 H   0  0  0  0  0  0  0  0  0  0  0  0
  2  1  1  0
  3  2  2  0
  4  1  1  0
  5  8  1  0
  6  2  1  0
  7  9  1  0
  8  3  1  0
  9  4  2  0
 10  1  2  0
 11  5  2  0
 12  5  1  0
 13  4  1  0
 14  9  1  0
 15 13  2  0
 16 15  1  0
  6  7  2  0
 14 16  2  0
  6 17  1  0
  7 18  1  0
  8 19  1  0
 12 20  1  0
 12 21  1  0
 13 22  1  0
 14 23  1  0
 15 24  1  0
 16 25  1  0
M  END
> <Uni-Dock RESULT> 
ENERGY=   -3.771  LOWER_BOUND=    3.637  UPPER_BOUND=    5.936
INTER + INTRA:          -3.771
INTER:                  -3.771
INTRA:                   0.000
UNBOUND:                 0.000

$$$$

     RDKit          3D

 25 26  0  0  0  0  0  0  0  0999 V2000
   46.7062    5.0903   13.5677 C   0  0  0  0  0  0  0  0  0  0  0  0
   47.2150    6.5325   13.4977 C   0  0  0  0  0  0  0  0  0  0  0  0
   48.4317    6.7493   13.8941 N   0  0  0  0  0  0  0  0  0  0  0  0
   45.5029    4.7414   12.7868 C   0  0  0  0  0  0  0  0  0  0  0  0
   50.2827    8.2129   14.1196 C   0  0  0  0  0  0  0  0  0  0  0  0
   46.2454    7.5421   12.9861 C   0  0  0  0  0  0  0  0  0  0  0  0
   45.1071    7.1678   12.3905 C   0  0  0  0  0  0  0  0  0  0  0  0
   48.9594    8.0064   13.7889 N   0  0  0  0  0  0  0  0  0  0  0  0
   44.7417    5.7633   12.2098 C   0  0  0  0  0  0  0  0  0  0  0  0
   47.2739    4.2502   14.2510 O   0  0  0  0  0  0  0  0  0  0  0  0
   51.0844    7.4034   14.5621 O   0  0  0  0  0  0  0  0  0  0  0  0
   50.6621    9.5100   13.9065 N   0  0  0  0  0  0  0  0  0  0  0  0
   45.1288    3.3996   12.6429 C   0  0  0  0  0  0  0  0  0  0  0  0
   43.5974    5.4230   11.4775 C   0  0  0  0  0  0  0  0  0  0  0  0
   43.9901    3.0732   11.9086 C   0  0  0  0  0  0  0  0  0  0  0  0
   43.2266    4.0837   11.3257 C   0  0  0  0  0  0  0  0  0  0  0  0
   46.4788    8.5905   13.1112 H   0  0  0  0  0  0  0  0  0  0  0  0
   44.4155    7.9218   12.0236 H   0  0  0  0  0  0  0  0  0  0  0  0
   48.6038    8.6164   13.0665 H   0  0  0  0  0  0  0  0  0  0  0  0
   51.6040    9.6663   14.2483 H   0  0  0  0  0  0  0  0  0  0  0  0
   50.0067   10.2045   14.2349 H   0  0  0  0  0  0  0  0  0  0  0  0
   45.7235    2.6110   13.1009 H   0  0  0  0  0  0  0  0  0  0  0  0
   42.9799    6.1924   11.0186 H   0  0  0  0  0  0  0  0  0  0  0  0
   43.6983    2.0319   11.7932 H   0  0  0  0  0  0  0  0  0  0  0  0
   42.3367    3.8280   10.7546 H   0  0  0  0  0  0  0  0  0  0  0  0
  2  1  1  0
  3  2  2  0
  4  1  1  0
  5  8  1  0
  6  2  1  0
  7  9  1  0
  8  3  1  0
  9  4  2  0
 10  1  2  0
 11  5  2  0
 12  5  1  0
 13  4  1  0
 14  9  1  0
 15 13  2  0
 16 15  1  0
  6  7  2  0
 14 16  2  0
  6 17  1  0
  7 18  1  0
  8 19  1  0
 12 20  1  0
 12 21  1  0
 13 22  1  0
 14 23  1  0
 15 24  1  0
 16 25  1  0
M  END
> <Uni-Dock RESULT> 
ENERGY=   -3.758  LOWER_BOUND=    3.552  UPPER_BOUND=    6.477
INTER + INTRA:          -3.758
INTER:                  -3.758
INTRA:                   0.000
UNBOUND:                 0.000

$$$$

     RDKit          3D

 25 26  0  0  0  0  0  0  0  0999 V2000
   44.3468    6.4782   11.4511 C   0  0  0  0  0  0  0  0  0  0  0  0
   44.4038    8.0025   11.5810 C   0  0  0  0  0  0  0  0  0  0  0  0
   43.3979    8.6733   11.1091 N   0  0  0  0  0  0  0  0  0  0  0  0
   45.2545    5.6764   12.2953 C   0  0  0  0  0  0  0  0  0  0  0  0
   42.2509   10.7309   10.8447 C   0  0  0  0  0  0  0  0  0  0  0  0
   45.6242    8.5564   12.2330 C   0  0  0  0  0  0  0  0  0  0  0  0
   46.4802    7.7620   12.8862 C   0  0  0  0  0  0  0  0  0  0  0  0
   43.3654   10.0320   11.2600 N   0  0  0  0  0  0  0  0  0  0  0  0
   46.2806    6.3175   12.9972 C   0  0  0  0  0  0  0  0  0  0  0  0
   43.5771    5.9368   10.6705 O   0  0  0  0  0  0  0  0  0  0  0  0
   41.2531   10.2971   10.2880 O   0  0  0  0  0  0  0  0  0  0  0  0
   42.3600   12.0673   11.1168 N   0  0  0  0  0  0  0  0  0  0  0  0
   45.0897    4.2880   12.3747 C   0  0  0  0  0  0  0  0  0  0  0  0
   47.1416    5.5475   13.7893 C   0  0  0  0  0  0  0  0  0  0  0  0
   45.9505    3.5329   13.1693 C   0  0  0  0  0  0  0  0  0  0  0  0
   46.9739    4.1623   13.8765 C   0  0  0  0  0  0  0  0  0  0  0  0
   45.8086    9.6195   12.1628 H   0  0  0  0  0  0  0  0  0  0  0  0
   47.3630    8.1884   13.3555 H   0  0  0  0  0  0  0  0  0  0  0  0
   43.8504   10.4384   12.0475 H   0  0  0  0  0  0  0  0  0  0  0  0
   41.5803   12.5772   10.7160 H   0  0  0  0  0  0  0  0  0  0  0  0
   43.2542   12.4767   10.8876 H   0  0  0  0  0  0  0  0  0  0  0  0
   44.2923    3.7965   11.8199 H   0  0  0  0  0  0  0  0  0  0  0  0
   47.9528    6.0127   14.3455 H   0  0  0  0  0  0  0  0  0  0  0  0
   45.8236    2.4548   13.2348 H   0  0  0  0  0  0  0  0  0  0  0  0
   47.6467    3.5718   14.4948 H   0  0  0  0  0  0  0  0  0  0  0  0
  2  1  1  0
  3  2  2  0
  4  1  1  0
  5  8  1  0
  6  2  1  0
  7  9  1  0
  8  3  1  0
  9  4  2  0
 10  1  2  0
 11  5  2  0
 12  5  1  0
 13  4  1  0
 14  9  1  0
 15 13  2  0
 16 15  1  0
  6  7  2  0
 14 16  2  0
  6 17  1  0
  7 18  1  0
  8 19  1  0
 12 20  1  0
 12 21  1  0
 13 22  1  0
 14 23  1  0
 15 24  1  0
 16 25  1  0
M  END
> <Uni-Dock RESULT> 
ENERGY=   -3.708  LOWER_BOUND=    3.134  UPPER_BOUND=    5.360
INTER + INTRA:          -3.708
INTER:                  -3.708
INTRA:                   0.000
UNBOUND:                 0.000

$$$$

     RDKit          3D

 25 26  0  0  0  0  0  0  0  0999 V2000
   54.8884    5.0998   11.0639 C   0  0  0  0  0  0  0  0  0  0  0  0
   55.7069    3.8082   10.9875 C   0  0  0  0  0  0  0  0  0  0  0  0
   55.9795    3.2148   12.1091 N   0  0  0  0  0  0  0  0  0  0  0  0
   54.2410    5.5838    9.8286 C   0  0  0  0  0  0  0  0  0  0  0  0
   56.8508    1.3464   13.2793 C   0  0  0  0  0  0  0  0  0  0  0  0
   56.1137    3.3737    9.6211 C   0  0  0  0  0  0  0  0  0  0  0  0
   55.5792    3.9337    8.5297 C   0  0  0  0  0  0  0  0  0  0  0  0
   56.6484    2.0222   12.0937 N   0  0  0  0  0  0  0  0  0  0  0  0
   54.5789    4.9978    8.6042 C   0  0  0  0  0  0  0  0  0  0  0  0
   54.7747    5.7171   12.1131 O   0  0  0  0  0  0  0  0  0  0  0  0
   56.5455    1.6981   14.4092 O   0  0  0  0  0  0  0  0  0  0  0  0
   57.4854    0.1509   13.0794 N   0  0  0  0  0  0  0  0  0  0  0  0
   53.3101    6.6282    9.8914 C   0  0  0  0  0  0  0  0  0  0  0  0
   53.9653    5.4691    7.4368 C   0  0  0  0  0  0  0  0  0  0  0  0
   52.7033    7.0860    8.7232 C   0  0  0  0  0  0  0  0  0  0  0  0
   53.0296    6.5061    7.4981 C   0  0  0  0  0  0  0  0  0  0  0  0
   56.8584    2.5953    9.5283 H   0  0  0  0  0  0  0  0  0  0  0  0
   55.8900    3.5995    7.5432 H   0  0  0  0  0  0  0  0  0  0  0  0
   56.5546    1.4306   11.2803 H   0  0  0  0  0  0  0  0  0  0  0  0
   57.7150   -0.2832   13.9667 H   0  0  0  0  0  0  0  0  0  0  0  0
   58.2716    0.1870   12.4467 H   0  0  0  0  0  0  0  0  0  0  0  0
   53.0579    7.0828   10.8479 H   0  0  0  0  0  0  0  0  0  0  0  0
   54.2073    5.0391    6.4672 H   0  0  0  0  0  0  0  0  0  0  0  0
   51.9783    7.8954    8.7692 H   0  0  0  0  0  0  0  0  0  0  0  0
   52.5570    6.8656    6.5866 H   0  0  0  0  0  0  0  0  0  0  0  0
  2  1  1  0
  3  2  2  0
  4  1  1  0
  5  8  1  0
  6  2  1  0
  7  9  1  0
  8  3  1  0
  9  4  2  0
 10  1  2  0
 11  5  2  0
 12  5  1  0
 13  4  1  0
 14  9  1  0
 15 13  2  0
 16 15  1  0
  6  7  2  0
 14 16  2  0
  6 17  1  0
  7 18  1  0
  8 19  1  0
 12 20  1  0
 12 21  1  0
 13 22  1  0
 14 23  1  0
 15 24  1  0
 16 25  1  0
M  END
> <Uni-Dock RESULT> 
ENERGY=   -3.682  LOWER_BOUND=    9.313  UPPER_BOUND=   10.385
INTER + INTRA:          -3.682
INTER:                  -3.682
INTRA:                   0.000
UNBOUND:                 0.000

$$$$

     RDKit          3D

 25 26  0  0  0  0  0  0  0  0999 V2000
   46.7683    5.6502   13.2952 C   0  0  0  0  0  0  0  0  0  0  0  0
   47.2766    7.0702   13.0324 C   0  0  0  0  0  0  0  0  0  0  0  0
   48.5347    7.2977   13.2559 N   0  0  0  0  0  0  0  0  0  0  0  0
   45.4749    5.2565   12.7022 C   0  0  0  0  0  0  0  0  0  0  0  0
   50.4117    8.7391   13.1193 C   0  0  0  0  0  0  0  0  0  0  0  0
   46.2598    8.0487   12.5530 C   0  0  0  0  0  0  0  0  0  0  0  0
   45.0536    7.6449   12.1376 C   0  0  0  0  0  0  0  0  0  0  0  0
   49.0560    8.5298   12.9728 N   0  0  0  0  0  0  0  0  0  0  0  0
   44.6570    6.2373   12.1317 C   0  0  0  0  0  0  0  0  0  0  0  0
   47.4088    4.8637   13.9779 O   0  0  0  0  0  0  0  0  0  0  0  0
   51.2550    7.9570   13.5326 O   0  0  0  0  0  0  0  0  0  0  0  0
   50.7727   10.0043   12.7441 N   0  0  0  0  0  0  0  0  0  0  0  0
   45.0747    3.9147   12.7280 C   0  0  0  0  0  0  0  0  0  0  0  0
   43.4283    5.8553   11.5786 C   0  0  0  0  0  0  0  0  0  0  0  0
   43.8513    3.5463   12.1710 C   0  0  0  0  0  0  0  0  0  0  0  0
   43.0303    4.5153   11.5960 C   0  0  0  0  0  0  0  0  0  0  0  0
   46.5157    9.0993   12.5526 H   0  0  0  0  0  0  0  0  0  0  0  0
   44.3284    8.3764   11.7906 H   0  0  0  0  0  0  0  0  0  0  0  0
   48.6191    9.0796   12.2467 H   0  0  0  0  0  0  0  0  0  0  0  0
   51.7509   10.1721   12.9527 H   0  0  0  0  0  0  0  0  0  0  0  0
   50.1687   10.7381   13.0854 H   0  0  0  0  0  0  0  0  0  0  0  0
   45.7147    3.1588   13.1799 H   0  0  0  0  0  0  0  0  0  0  0  0
   42.7654    6.5925   11.1303 H   0  0  0  0  0  0  0  0  0  0  0  0
   43.5388    2.5047   12.1876 H   0  0  0  0  0  0  0  0  0  0  0  0
   42.0746    4.2270   11.1635 H   0  0  0  0  0  0  0  0  0  0  0  0
  2  1  1  0
  3  2  2  0
  4  1  1  0
  5  8  1  0
  6  2  1  0
  7  9  1  0
  8  3  1  0
  9  4  2  0
 10  1  2  0
 11  5  2  0
 12  5  1  0
 13  4  1  0
 14  9  1  0
 15 13  2  0
 16 15  1  0
  6  7  2  0
 14 16  2  0
  6 17  1  0
  7 18  1  0
  8 19  1  0
 12 20  1  0
 12 21  1  0
 13 22  1  0
 14 23  1  0
 15 24  1  0
 16 25  1  0
M  END
> <Uni-Dock RESULT> 
ENERGY=   -3.594  LOWER_BOUND=    3.300  UPPER_BOUND=    6.398
INTER + INTRA:          -3.594
INTER:                  -3.594
INTRA:                   0.000
UNBOUND:                 0.000

$$$$

     RDKit          3D

 25 26  0  0  0  0  0  0  0  0999 V2000
   47.8236    9.0877   18.4856 C   0  0  0  0  0  0  0  0  0  0  0  0
   47.3777    8.5969   19.8655 C   0  0  0  0  0  0  0  0  0  0  0  0
   47.6373    7.3610   20.1649 N   0  0  0  0  0  0  0  0  0  0  0  0
   47.8976   10.5447   18.2590 C   0  0  0  0  0  0  0  0  0  0  0  0
   47.6874    5.6060   21.7576 C   0  0  0  0  0  0  0  0  0  0  0  0
   46.6787    9.5986   20.7196 C   0  0  0  0  0  0  0  0  0  0  0  0
   46.6764   10.8980   20.4002 C   0  0  0  0  0  0  0  0  0  0  0  0
   47.3225    6.8901   21.4094 N   0  0  0  0  0  0  0  0  0  0  0  0
   47.3452   11.4133   19.2062 C   0  0  0  0  0  0  0  0  0  0  0  0
   48.1074    8.3007   17.5940 O   0  0  0  0  0  0  0  0  0  0  0  0
   48.2389    4.7647   21.0637 O   0  0  0  0  0  0  0  0  0  0  0  0
   47.3456    5.3147   23.0500 N   0  0  0  0  0  0  0  0  0  0  0  0
   48.5042   11.0408   17.0984 C   0  0  0  0  0  0  0  0  0  0  0  0
   47.4132   12.7935   18.9786 C   0  0  0  0  0  0  0  0  0  0  0  0
   48.5692   12.4165   16.8850 C   0  0  0  0  0  0  0  0  0  0  0  0
   48.0256   13.2913   17.8247 C   0  0  0  0  0  0  0  0  0  0  0  0
   46.1654    9.2516   21.6057 H   0  0  0  0  0  0  0  0  0  0  0  0
   46.1613   11.6108   21.0391 H   0  0  0  0  0  0  0  0  0  0  0  0
   47.2972    7.5457   22.1776 H   0  0  0  0  0  0  0  0  0  0  0  0
   47.5294    4.3387   23.2555 H   0  0  0  0  0  0  0  0  0  0  0  0
   46.4161    5.6028   23.3196 H   0  0  0  0  0  0  0  0  0  0  0  0
   48.9258   10.3572   16.3634 H   0  0  0  0  0  0  0  0  0  0  0  0
   46.9905   13.4977   19.6922 H   0  0  0  0  0  0  0  0  0  0  0  0
   49.0417   12.8048   15.9857 H   0  0  0  0  0  0  0  0  0  0  0  0
   48.0749   14.3649   17.6561 H   0  0  0  0  0  0  0  0  0  0  0  0
  2  1  1  0
  3  2  2  0
  4  1  1  0
  5  8  1  0
  6  2  1  0
  7  9  1  0
  8  3  1  0
  9  4  2  0
 10  1  2  0
 11  5  2  0
 12  5  1  0
 13  4  1  0
 14  9  1  0
 15 13  2  0
 16 15  1  0
  6  7  2  0
 14 16  2  0
  6 17  1  0
  7 18  1  0
  8 19  1  0
 12 20  1  0
 12 21  1  0
 13 22  1  0
 14 23  1  0
 15 24  1  0
 16 25  1  0
M  END
> <Uni-Dock RESULT> 
ENERGY=   -3.549  LOWER_BOUND=    7.641  UPPER_BOUND=    7.985
INTER + INTRA:          -3.549
INTER:                  -3.549
INTRA:                   0.000
UNBOUND:                 0.000

$$$$
