
     RDKit          3D

 25 26  0  0  0  0  0  0  0  0999 V2000
   45.0569    2.2340    9.1165 C   0  0  0  0  0  0  0  0  0  0  0  0
   44.7241    3.5768    9.7722 C   0  0  0  0  0  0  0  0  0  0  0  0
   44.1166    3.5397   10.9185 N   0  0  0  0  0  0  0  0  0  0  0  0
   46.0626    2.2211    8.0358 C   0  0  0  0  0  0  0  0  0  0  0  0
   43.2995    4.6599   12.8412 C   0  0  0  0  0  0  0  0  0  0  0  0
   45.1291    4.7925    9.0110 C   0  0  0  0  0  0  0  0  0  0  0  0
   45.9526    4.7077    7.9598 C   0  0  0  0  0  0  0  0  0  0  0  0
   43.8568    4.7078   11.5802 N   0  0  0  0  0  0  0  0  0  0  0  0
   46.4975    3.4339    7.4914 C   0  0  0  0  0  0  0  0  0  0  0  0
   44.5065    1.2015    9.4713 O   0  0  0  0  0  0  0  0  0  0  0  0
   42.9401    3.6752   13.4697 O   0  0  0  0  0  0  0  0  0  0  0  0
   43.1560    5.9093   13.3799 N   0  0  0  0  0  0  0  0  0  0  0  0
   46.5592    1.0017    7.5590 C   0  0  0  0  0  0  0  0  0  0  0  0
   47.4460    3.4113    6.4611 C   0  0  0  0  0  0  0  0  0  0  0  0
   47.5057    0.9921    6.5359 C   0  0  0  0  0  0  0  0  0  0  0  0
   47.9492    2.1954    5.9890 C   0  0  0  0  0  0  0  0  0  0  0  0
   44.7374    5.7507    9.3237 H   0  0  0  0  0  0  0  0  0  0  0  0
   46.2357    5.6080    7.4207 H   0  0  0  0  0  0  0  0  0  0  0  0
   44.4660    5.4968   11.4166 H   0  0  0  0  0  0  0  0  0  0  0  0
   42.7776    6.6030   12.7511 H   0  0  0  0  0  0  0  0  0  0  0  0
   42.6548    5.8621   14.2603 H   0  0  0  0  0  0  0  0  0  0  0  0
   46.2104    0.0621    7.9840 H   0  0  0  0  0  0  0  0  0  0  0  0
   47.8035    4.3355    6.0120 H   0  0  0  0  0  0  0  0  0  0  0  0
   47.8949    0.0466    6.1649 H   0  0  0  0  0  0  0  0  0  0  0  0
   48.6863    2.1867    5.1890 H   0  0  0  0  0  0  0  0  0  0  0  0
  2  1  1  0
  3  2  2  0
  4  1  1  0
  5  8  1  0
  6  2  1  0
  7  9  1  0
  8  3  1  0
  9  4  2  0
 10  1  2  0
 11  5  2  0
 12  5  1  0
 13  4  1  0
 14  9  1  0
 15 13  2  0
 16 15  1  0
  6  7  2  0
 14 16  2  0
  6 17  1  0
  7 18  1  0
  8 19  1  0
 12 20  1  0
 12 21  1  0
 13 22  1  0
 14 23  1  0
 15 24  1  0
 16 25  1  0
M  END
> <Uni-Dock RESULT> 
ENERGY=   -5.670  LOWER_BOUND=    0.000  UPPER_BOUND=    0.000
INTER + INTRA:          -5.670
INTER:                  -5.670
INTRA:                   0.000
UNBOUND:                 0.000

$$$$

     RDKit          3D

 25 26  0  0  0  0  0  0  0  0999 V2000
   45.3050    4.5680    9.4184 C   0  0  0  0  0  0  0  0  0  0  0  0
   45.2229    3.0549    9.2007 C   0  0  0  0  0  0  0  0  0  0  0  0
   46.0083    2.5440    8.3026 N   0  0  0  0  0  0  0  0  0  0  0  0
   44.7314    5.1214   10.6610 C   0  0  0  0  0  0  0  0  0  0  0  0
   46.9298    0.6413    7.2303 C   0  0  0  0  0  0  0  0  0  0  0  0
   44.2336    2.3272   10.0452 C   0  0  0  0  0  0  0  0  0  0  0  0
   43.6511    2.9199   11.0939 C   0  0  0  0  0  0  0  0  0  0  0  0
   46.0249    1.1895    8.1157 N   0  0  0  0  0  0  0  0  0  0  0  0
   43.9385    4.3031   11.4722 C   0  0  0  0  0  0  0  0  0  0  0  0
   45.8257    5.3005    8.5893 O   0  0  0  0  0  0  0  0  0  0  0  0
   47.7305    1.2233    6.5135 O   0  0  0  0  0  0  0  0  0  0  0  0
   46.8492   -0.7243    7.2036 N   0  0  0  0  0  0  0  0  0  0  0  0
   44.9736    6.4564   11.0076 C   0  0  0  0  0  0  0  0  0  0  0  0
   43.3921    4.8392   12.6451 C   0  0  0  0  0  0  0  0  0  0  0  0
   44.4276    6.9775   12.1793 C   0  0  0  0  0  0  0  0  0  0  0  0
   43.6393    6.1694   12.9973 C   0  0  0  0  0  0  0  0  0  0  0  0
   43.9899    1.3053    9.7888 H   0  0  0  0  0  0  0  0  0  0  0  0
   42.9338    2.3690   11.6966 H   0  0  0  0  0  0  0  0  0  0  0  0
   45.7834    0.5952    8.8959 H   0  0  0  0  0  0  0  0  0  0  0  0
   45.9103   -1.0946    7.1685 H   0  0  0  0  0  0  0  0  0  0  0  0
   47.4479   -1.1022    6.4775 H   0  0  0  0  0  0  0  0  0  0  0  0
   45.5867    7.0881   10.3670 H   0  0  0  0  0  0  0  0  0  0  0  0
   42.7675    4.2324   13.2973 H   0  0  0  0  0  0  0  0  0  0  0  0
   44.6158    8.0134   12.4522 H   0  0  0  0  0  0  0  0  0  0  0  0
   43.2117    6.5778   13.9105 H   0  0  0  0  0  0  0  0  0  0  0  0
  2  1  1  0
  3  2  2  0
  4  1  1  0
  5  8  1  0
  6  2  1  0
  7  9  1  0
  8  3  1  0
  9  4  2  0
 10  1  2  0
 11  5  2  0
 12  5  1  0
 13  4  1  0
 14  9  1  0
 15 13  2  0
 16 15  1  0
  6  7  2  0
 14 16  2  0
  6 17  1  0
  7 18  1  0
  8 19  1  0
 12 20  1  0
 12 21  1  0
 13 22  1  0
 14 23  1  0
 15 24  1  0
 16 25  1  0
M  END
> <Uni-Dock RESULT> 
ENERGY=   -4.289  LOWER_BOUND=    3.136  UPPER_BOUND=    6.266
INTER + INTRA:          -4.289
INTER:                  -4.289
INTRA:                   0.000
UNBOUND:                 0.000

$$$$

     RDKit          3D

 25 26  0  0  0  0  0  0  0  0999 V2000
   46.1105    8.6873   12.6612 C   0  0  0  0  0  0  0  0  0  0  0  0
   46.0426    7.1628   12.7838 C   0  0  0  0  0  0  0  0  0  0  0  0
   44.8619    6.6247   12.8123 N   0  0  0  0  0  0  0  0  0  0  0  0
   47.3908    9.2925   12.2442 C   0  0  0  0  0  0  0  0  0  0  0  0
   43.4904    4.6914   12.7836 C   0  0  0  0  0  0  0  0  0  0  0  0
   47.3522    6.4563   12.8677 C   0  0  0  0  0  0  0  0  0  0  0  0
   48.4985    7.0898   12.5937 C   0  0  0  0  0  0  0  0  0  0  0  0
   44.7442    5.2629   12.8519 N   0  0  0  0  0  0  0  0  0  0  0  0
   48.5420    8.4989   12.2047 C   0  0  0  0  0  0  0  0  0  0  0  0
   45.1374    9.3868   12.9037 O   0  0  0  0  0  0  0  0  0  0  0  0
   42.4066    5.2546   12.7384 O   0  0  0  0  0  0  0  0  0  0  0  0
   43.5556    3.3248   12.7813 N   0  0  0  0  0  0  0  0  0  0  0  0
   47.4438   10.6506   11.9068 C   0  0  0  0  0  0  0  0  0  0  0  0
   49.7535    9.0839   11.8155 C   0  0  0  0  0  0  0  0  0  0  0  0
   48.6547   11.2205   11.5173 C   0  0  0  0  0  0  0  0  0  0  0  0
   49.8073   10.4376   11.4704 C   0  0  0  0  0  0  0  0  0  0  0  0
   47.3586    5.4157   13.1617 H   0  0  0  0  0  0  0  0  0  0  0  0
   49.4417    6.5538   12.6599 H   0  0  0  0  0  0  0  0  0  0  0  0
   45.4853    4.7061   12.4506 H   0  0  0  0  0  0  0  0  0  0  0  0
   44.1905    2.9279   13.4590 H   0  0  0  0  0  0  0  0  0  0  0  0
   42.6255    2.9238   12.8324 H   0  0  0  0  0  0  0  0  0  0  0  0
   46.5442   11.2625   11.9465 H   0  0  0  0  0  0  0  0  0  0  0  0
   50.6690    8.4973   11.7774 H   0  0  0  0  0  0  0  0  0  0  0  0
   48.6986   12.2745   11.2526 H   0  0  0  0  0  0  0  0  0  0  0  0
   50.7523   10.8839   11.1684 H   0  0  0  0  0  0  0  0  0  0  0  0
  2  1  1  0
  3  2  2  0
  4  1  1  0
  5  8  1  0
  6  2  1  0
  7  9  1  0
  8  3  1  0
  9  4  2  0
 10  1  2  0
 11  5  2  0
 12  5  1  0
 13  4  1  0
 14  9  1  0
 15 13  2  0
 16 15  1  0
  6  7  2  0
 14 16  2  0
  6 17  1  0
  7 18  1  0
  8 19  1  0
 12 20  1  0
 12 21  1  0
 13 22  1  0
 14 23  1  0
 15 24  1  0
 16 25  1  0
M  END
> <Uni-Dock RESULT> 
ENERGY=   -4.252  LOWER_BOUND=    5.206  UPPER_BOUND=    6.955
INTER + INTRA:          -4.252
INTER:                  -4.252
INTRA:                   0.000
UNBOUND:                 0.000

$$$$

     RDKit          3D

 25 26  0  0  0  0  0  0  0  0999 V2000
   46.1180    8.7375   12.6603 C   0  0  0  0  0  0  0  0  0  0  0  0
   46.0500    7.2137   12.7918 C   0  0  0  0  0  0  0  0  0  0  0  0
   44.8692    6.6756   12.8214 N   0  0  0  0  0  0  0  0  0  0  0  0
   47.3990    9.3403   12.2420 C   0  0  0  0  0  0  0  0  0  0  0  0
   43.4979    4.7422   12.8016 C   0  0  0  0  0  0  0  0  0  0  0  0
   47.3594    6.5078   12.8821 C   0  0  0  0  0  0  0  0  0  0  0  0
   48.5061    7.1397   12.6064 C   0  0  0  0  0  0  0  0  0  0  0  0
   44.7515    5.3141   12.8687 N   0  0  0  0  0  0  0  0  0  0  0  0
   48.5503    8.5465   12.2092 C   0  0  0  0  0  0  0  0  0  0  0  0
   45.1445    9.4383   12.8970 O   0  0  0  0  0  0  0  0  0  0  0  0
   42.4141    5.3050   12.7511 O   0  0  0  0  0  0  0  0  0  0  0  0
   43.5632    3.3756   12.8074 N   0  0  0  0  0  0  0  0  0  0  0  0
   47.4526   10.6964   11.8968 C   0  0  0  0  0  0  0  0  0  0  0  0
   49.7625    9.1292   11.8187 C   0  0  0  0  0  0  0  0  0  0  0  0
   48.6641   11.2640   11.5060 C   0  0  0  0  0  0  0  0  0  0  0  0
   49.8168   10.4809   11.4658 C   0  0  0  0  0  0  0  0  0  0  0  0
   47.3653    5.4689   13.1821 H   0  0  0  0  0  0  0  0  0  0  0  0
   49.4493    6.6042   12.6773 H   0  0  0  0  0  0  0  0  0  0  0  0
   45.4933    4.7550   12.4720 H   0  0  0  0  0  0  0  0  0  0  0  0
   44.1969    2.9827   13.4886 H   0  0  0  0  0  0  0  0  0  0  0  0
   42.6330    2.9749   12.8593 H   0  0  0  0  0  0  0  0  0  0  0  0
   46.5529   11.3084   11.9313 H   0  0  0  0  0  0  0  0  0  0  0  0
   50.6781    8.5425   11.7856 H   0  0  0  0  0  0  0  0  0  0  0  0
   48.7084   12.3165   11.2352 H   0  0  0  0  0  0  0  0  0  0  0  0
   50.7623   10.9255   11.1628 H   0  0  0  0  0  0  0  0  0  0  0  0
  2  1  1  0
  3  2  2  0
  4  1  1  0
  5  8  1  0
  6  2  1  0
  7  9  1  0
  8  3  1  0
  9  4  2  0
 10  1  2  0
 11  5  2  0
 12  5  1  0
 13  4  1  0
 14  9  1  0
 15 13  2  0
 16 15  1  0
  6  7  2  0
 14 16  2  0
  6 17  1  0
  7 18  1  0
  8 19  1  0
 12 20  1  0
 12 21  1  0
 13 22  1  0
 14 23  1  0
 15 24  1  0
 16 25  1  0
M  END
> <Uni-Dock RESULT> 
ENERGY=   -4.250  LOWER_BOUND=    5.234  UPPER_BOUND=    6.987
INTER + INTRA:          -4.250
INTER:                  -4.250
INTRA:                   0.000
UNBOUND:                 0.000

$$$$

     RDKit          3D

 25 26  0  0  0  0  0  0  0  0999 V2000
   47.5790    5.9577   14.2593 C   0  0  0  0  0  0  0  0  0  0  0  0
   46.5599    6.1445   13.1322 C   0  0  0  0  0  0  0  0  0  0  0  0
   45.3764    5.6449   13.3174 N   0  0  0  0  0  0  0  0  0  0  0  0
   48.7779    6.8191   14.2591 C   0  0  0  0  0  0  0  0  0  0  0  0
   43.1259    5.3942   12.6164 C   0  0  0  0  0  0  0  0  0  0  0  0
   47.0451    6.8785   11.9292 C   0  0  0  0  0  0  0  0  0  0  0  0
   48.2041    7.5468   11.9478 C   0  0  0  0  0  0  0  0  0  0  0  0
   44.4077    5.8420   12.3726 N   0  0  0  0  0  0  0  0  0  0  0  0
   49.0620    7.5960   13.1312 C   0  0  0  0  0  0  0  0  0  0  0  0
   47.4111    5.1193   15.1333 O   0  0  0  0  0  0  0  0  0  0  0  0
   42.7163    4.7711   13.5848 O   0  0  0  0  0  0  0  0  0  0  0  0
   42.2730    5.7189   11.5970 N   0  0  0  0  0  0  0  0  0  0  0  0
   49.6222    6.8405   15.3761 C   0  0  0  0  0  0  0  0  0  0  0  0
   50.2059    8.4040   13.1372 C   0  0  0  0  0  0  0  0  0  0  0  0
   50.7556    7.6517   15.3718 C   0  0  0  0  0  0  0  0  0  0  0  0
   51.0459    8.4332   14.2544 C   0  0  0  0  0  0  0  0  0  0  0  0
   46.4405    6.8558   11.0329 H   0  0  0  0  0  0  0  0  0  0  0  0
   48.5371    8.0764   11.0590 H   0  0  0  0  0  0  0  0  0  0  0  0
   44.4644    6.6676   11.7933 H   0  0  0  0  0  0  0  0  0  0  0  0
   42.6352    5.5513   10.6694 H   0  0  0  0  0  0  0  0  0  0  0  0
   41.3631    5.2964   11.7457 H   0  0  0  0  0  0  0  0  0  0  0  0
   49.3970    6.2278   16.2473 H   0  0  0  0  0  0  0  0  0  0  0  0
   50.4594    9.0180   12.2756 H   0  0  0  0  0  0  0  0  0  0  0  0
   51.4121    7.6721   16.2388 H   0  0  0  0  0  0  0  0  0  0  0  0
   51.9320    9.0643   14.2512 H   0  0  0  0  0  0  0  0  0  0  0  0
  2  1  1  0
  3  2  2  0
  4  1  1  0
  5  8  1  0
  6  2  1  0
  7  9  1  0
  8  3  1  0
  9  4  2  0
 10  1  2  0
 11  5  2  0
 12  5  1  0
 13  4  1  0
 14  9  1  0
 15 13  2  0
 16 15  1  0
  6  7  2  0
 14 16  2  0
  6 17  1  0
  7 18  1  0
  8 19  1  0
 12 20  1  0
 12 21  1  0
 13 22  1  0
 14 23  1  0
 15 24  1  0
 16 25  1  0
M  END
> <Uni-Dock RESULT> 
ENERGY=   -3.810  LOWER_BOUND=    5.276  UPPER_BOUND=    6.818
INTER + INTRA:          -3.810
INTER:                  -3.810
INTRA:                   0.000
UNBOUND:                 0.000

$$$$

     RDKit          3D

 25 26  0  0  0  0  0  0  0  0999 V2000
   46.6355    4.8663   13.7359 C   0  0  0  0  0  0  0  0  0  0  0  0
   47.3172    6.2366   13.7694 C   0  0  0  0  0  0  0  0  0  0  0  0
   48.4290    6.3270   14.4330 N   0  0  0  0  0  0  0  0  0  0  0  0
   45.6081    4.6286   12.7028 C   0  0  0  0  0  0  0  0  0  0  0  0
   50.3432    7.5754   15.0628 C   0  0  0  0  0  0  0  0  0  0  0  0
   46.6185    7.3308   13.0374 C   0  0  0  0  0  0  0  0  0  0  0  0
   45.6088    7.0675   12.1998 C   0  0  0  0  0  0  0  0  0  0  0  0
   49.1147    7.5101   14.4386 N   0  0  0  0  0  0  0  0  0  0  0  0
   45.1272    5.7085   11.9550 C   0  0  0  0  0  0  0  0  0  0  0  0
   46.9272    3.9932   14.5406 O   0  0  0  0  0  0  0  0  0  0  0  0
   50.9194    6.6966   15.6868 O   0  0  0  0  0  0  0  0  0  0  0  0
   50.9148    8.8112   14.9289 N   0  0  0  0  0  0  0  0  0  0  0  0
   45.1173    3.3343   12.4911 C   0  0  0  0  0  0  0  0  0  0  0  0
   44.1468    5.4744   10.9826 C   0  0  0  0  0  0  0  0  0  0  0  0
   44.1445    3.1133   11.5178 C   0  0  0  0  0  0  0  0  0  0  0  0
   43.6612    4.1818   10.7639 C   0  0  0  0  0  0  0  0  0  0  0  0
   46.9422    8.3494   13.2015 H   0  0  0  0  0  0  0  0  0  0  0  0
   45.1150    7.8815   11.6754 H   0  0  0  0  0  0  0  0  0  0  0  0
   49.0089    8.1289   13.6472 H   0  0  0  0  0  0  0  0  0  0  0  0
   50.2906    9.5885   15.0901 H   0  0  0  0  0  0  0  0  0  0  0  0
   51.7662    8.8710   15.4766 H   0  0  0  0  0  0  0  0  0  0  0  0
   45.4926    2.5006   13.0821 H   0  0  0  0  0  0  0  0  0  0  0  0
   43.7474    6.2915   10.3855 H   0  0  0  0  0  0  0  0  0  0  0  0
   43.7629    2.1087   11.3496 H   0  0  0  0  0  0  0  0  0  0  0  0
   42.9002    4.0086   10.0060 H   0  0  0  0  0  0  0  0  0  0  0  0
  2  1  1  0
  3  2  2  0
  4  1  1  0
  5  8  1  0
  6  2  1  0
  7  9  1  0
  8  3  1  0
  9  4  2  0
 10  1  2  0
 11  5  2  0
 12  5  1  0
 13  4  1  0
 14  9  1  0
 15 13  2  0
 16 15  1  0
  6  7  2  0
 14 16  2  0
  6 17  1  0
  7 18  1  0
  8 19  1  0
 12 20  1  0
 12 21  1  0
 13 22  1  0
 14 23  1  0
 15 24  1  0
 16 25  1  0
M  END
> <Uni-Dock RESULT> 
ENERGY=   -3.750  LOWER_BOUND=    4.906  UPPER_BOUND=    6.376
INTER + INTRA:          -3.750
INTER:                  -3.750
INTRA:                   0.000
UNBOUND:                 0.000

$$$$

     RDKit          3D

 25 26  0  0  0  0  0  0  0  0999 V2000
   44.3309    6.4841   11.4500 C   0  0  0  0  0  0  0  0  0  0  0  0
   44.3886    8.0089   11.5740 C   0  0  0  0  0  0  0  0  0  0  0  0
   43.3810    8.6782   11.1034 N   0  0  0  0  0  0  0  0  0  0  0  0
   45.2418    5.6854   12.2937 C   0  0  0  0  0  0  0  0  0  0  0  0
   42.2333   10.7349   10.8357 C   0  0  0  0  0  0  0  0  0  0  0  0
   45.6116    8.5650   12.2190 C   0  0  0  0  0  0  0  0  0  0  0  0
   46.4701    7.7730   12.8718 C   0  0  0  0  0  0  0  0  0  0  0  0
   43.3493   10.0374   11.2493 N   0  0  0  0  0  0  0  0  0  0  0  0
   46.2707    6.3290   12.9891 C   0  0  0  0  0  0  0  0  0  0  0  0
   43.5579    5.9398   10.6745 O   0  0  0  0  0  0  0  0  0  0  0  0
   41.2332   10.2992   10.2845 O   0  0  0  0  0  0  0  0  0  0  0  0
   42.3437   12.0723   11.1023 N   0  0  0  0  0  0  0  0  0  0  0  0
   45.0770    4.2974   12.3790 C   0  0  0  0  0  0  0  0  0  0  0  0
   47.1347    5.5619   13.7807 C   0  0  0  0  0  0  0  0  0  0  0  0
   45.9408    3.5452   13.1732 C   0  0  0  0  0  0  0  0  0  0  0  0
   46.9671    4.1770   13.8739 C   0  0  0  0  0  0  0  0  0  0  0  0
   45.7960    9.6279   12.1440 H   0  0  0  0  0  0  0  0  0  0  0  0
   47.3547    8.2010   13.3360 H   0  0  0  0  0  0  0  0  0  0  0  0
   43.8375   10.4467   12.0332 H   0  0  0  0  0  0  0  0  0  0  0  0
   43.2372   12.4806   10.8680 H   0  0  0  0  0  0  0  0  0  0  0  0
   41.5625   12.5808   10.7027 H   0  0  0  0  0  0  0  0  0  0  0  0
   44.2774    3.8039   11.8293 H   0  0  0  0  0  0  0  0  0  0  0  0
   47.9481    6.0290   14.3320 H   0  0  0  0  0  0  0  0  0  0  0  0
   45.8139    2.4672   13.2432 H   0  0  0  0  0  0  0  0  0  0  0  0
   47.6422    3.5887   14.4917 H   0  0  0  0  0  0  0  0  0  0  0  0
  2  1  1  0
  3  2  2  0
  4  1  1  0
  5  8  1  0
  6  2  1  0
  7  9  1  0
  8  3  1  0
  9  4  2  0
 10  1  2  0
 11  5  2  0
 12  5  1  0
 13  4  1  0
 14  9  1  0
 15 13  2  0
 16 15  1  0
  6  7  2  0
 14 16  2  0
  6 17  1  0
  7 18  1  0
  8 19  1  0
 12 20  1  0
 12 21  1  0
 13 22  1  0
 14 23  1  0
 15 24  1  0
 16 25  1  0
M  END
> <Uni-Dock RESULT> 
ENERGY=   -3.710  LOWER_BOUND=    4.876  UPPER_BOUND=    6.190
INTER + INTRA:          -3.710
INTER:                  -3.710
INTRA:                   0.000
UNBOUND:                 0.000

$$$$

     RDKit          3D

 25 26  0  0  0  0  0  0  0  0999 V2000
   47.5220    7.8848   19.5144 C   0  0  0  0  0  0  0  0  0  0  0  0
   47.8663    7.1328   18.2260 C   0  0  0  0  0  0  0  0  0  0  0  0
   47.6375    5.8553   18.2088 N   0  0  0  0  0  0  0  0  0  0  0  0
   47.4025    9.3547   19.4477 C   0  0  0  0  0  0  0  0  0  0  0  0
   47.5265    3.8098   17.0160 C   0  0  0  0  0  0  0  0  0  0  0  0
   48.4412    7.9556   17.1244 C   0  0  0  0  0  0  0  0  0  0  0  0
   48.4130    9.2924   17.1726 C   0  0  0  0  0  0  0  0  0  0  0  0
   47.8624    5.1471   17.0609 N   0  0  0  0  0  0  0  0  0  0  0  0
   47.8294   10.0243   18.2962 C   0  0  0  0  0  0  0  0  0  0  0  0
   47.3537    7.2906   20.5696 O   0  0  0  0  0  0  0  0  0  0  0  0
   47.0770    3.1147   17.9152 O   0  0  0  0  0  0  0  0  0  0  0  0
   47.7660    3.2682   15.7826 N   0  0  0  0  0  0  0  0  0  0  0  0
   46.8787   10.0625   20.5366 C   0  0  0  0  0  0  0  0  0  0  0  0
   47.7194   11.4196   18.2455 C   0  0  0  0  0  0  0  0  0  0  0  0
   46.7706   11.4506   20.4726 C   0  0  0  0  0  0  0  0  0  0  0  0
   47.1892   12.1277   19.3281 C   0  0  0  0  0  0  0  0  0  0  0  0
   48.8898    7.4475   16.2817 H   0  0  0  0  0  0  0  0  0  0  0  0
   48.8370    9.8720   16.3567 H   0  0  0  0  0  0  0  0  0  0  0  0
   47.7902    5.6313   16.1774 H   0  0  0  0  0  0  0  0  0  0  0  0
   48.6542    3.5191   15.3728 H   0  0  0  0  0  0  0  0  0  0  0  0
   47.6090    2.2664   15.7971 H   0  0  0  0  0  0  0  0  0  0  0  0
   46.5548    9.5339   21.4315 H   0  0  0  0  0  0  0  0  0  0  0  0
   48.0453   11.9730   17.3672 H   0  0  0  0  0  0  0  0  0  0  0  0
   46.3621   12.0030   21.3159 H   0  0  0  0  0  0  0  0  0  0  0  0
   47.1066   13.2113   19.2801 H   0  0  0  0  0  0  0  0  0  0  0  0
  2  1  1  0
  3  2  2  0
  4  1  1  0
  5  8  1  0
  6  2  1  0
  7  9  1  0
  8  3  1  0
  9  4  2  0
 10  1  2  0
 11  5  2  0
 12  5  1  0
 13  4  1  0
 14  9  1  0
 15 13  2  0
 16 15  1  0
  6  7  2  0
 14 16  2  0
  6 17  1  0
  7 18  1  0
  8 19  1  0
 12 20  1  0
 12 21  1  0
 13 22  1  0
 14 23  1  0
 15 24  1  0
 16 25  1  0
M  END
> <Uni-Dock RESULT> 
ENERGY=   -3.708  LOWER_BOUND=    8.579  UPPER_BOUND=   11.757
INTER + INTRA:          -3.708
INTER:                  -3.708
INTRA:                   0.000
UNBOUND:                 0.000

$$$$

     RDKit          3D

 25 26  0  0  0  0  0  0  0  0999 V2000
   54.8878    5.1227   11.0734 C   0  0  0  0  0  0  0  0  0  0  0  0
   55.7020    3.8280   11.0068 C   0  0  0  0  0  0  0  0  0  0  0  0
   55.9719    3.2416   12.1328 N   0  0  0  0  0  0  0  0  0  0  0  0
   54.2428    5.6001    9.8342 C   0  0  0  0  0  0  0  0  0  0  0  0
   56.8362    1.3788   13.3169 C   0  0  0  0  0  0  0  0  0  0  0  0
   56.1083    3.3824    9.6439 C   0  0  0  0  0  0  0  0  0  0  0  0
   55.5765    3.9363    8.5481 C   0  0  0  0  0  0  0  0  0  0  0  0
   56.6369    2.0468   12.1265 N   0  0  0  0  0  0  0  0  0  0  0  0
   54.5796    5.0042    8.6144 C   0  0  0  0  0  0  0  0  0  0  0  0
   54.7752    5.7479   12.1182 O   0  0  0  0  0  0  0  0  0  0  0  0
   56.5313    1.7396   14.4441 O   0  0  0  0  0  0  0  0  0  0  0  0
   57.4671    0.1798   13.1260 N   0  0  0  0  0  0  0  0  0  0  0  0
   53.3153    6.6478    9.8890 C   0  0  0  0  0  0  0  0  0  0  0  0
   53.9684    5.4692    7.4432 C   0  0  0  0  0  0  0  0  0  0  0  0
   52.7108    7.0992    8.7171 C   0  0  0  0  0  0  0  0  0  0  0  0
   53.0360    6.5096    7.4964 C   0  0  0  0  0  0  0  0  0  0  0  0
   56.8507    2.6009    9.5571 H   0  0  0  0  0  0  0  0  0  0  0  0
   55.8869    3.5941    7.5643 H   0  0  0  0  0  0  0  0  0  0  0  0
   56.5418    1.4498   11.3172 H   0  0  0  0  0  0  0  0  0  0  0  0
   58.2539    0.2089   12.4936 H   0  0  0  0  0  0  0  0  0  0  0  0
   57.6945   -0.2487   14.0166 H   0  0  0  0  0  0  0  0  0  0  0  0
   53.0638    7.1102   10.8420 H   0  0  0  0  0  0  0  0  0  0  0  0
   54.2096    5.0315    6.4768 H   0  0  0  0  0  0  0  0  0  0  0  0
   51.9883    7.9114    8.7567 H   0  0  0  0  0  0  0  0  0  0  0  0
   52.5653    6.8642    6.5820 H   0  0  0  0  0  0  0  0  0  0  0  0
  2  1  1  0
  3  2  2  0
  4  1  1  0
  5  8  1  0
  6  2  1  0
  7  9  1  0
  8  3  1  0
  9  4  2  0
 10  1  2  0
 11  5  2  0
 12  5  1  0
 13  4  1  0
 14  9  1  0
 15 13  2  0
 16 15  1  0
  6  7  2  0
 14 16  2  0
  6 17  1  0
  7 18  1  0
  8 19  1  0
 12 20  1  0
 12 21  1  0
 13 22  1  0
 14 23  1  0
 15 24  1  0
 16 25  1  0
M  END
> <Uni-Dock RESULT> 
ENERGY=   -3.682  LOWER_BOUND=    9.883  UPPER_BOUND=   10.931
INTER + INTRA:          -3.682
INTER:                  -3.682
INTRA:                   0.000
UNBOUND:                 0.000

$$$$
