
     RDKit          3D

 25 26  0  0  0  0  0  0  0  0999 V2000
   44.8397    1.9937    9.1010 C   0  0  0  0  0  0  0  0  0  0  0  0
   44.2601    3.1862    9.8643 C   0  0  0  0  0  0  0  0  0  0  0  0
   43.4896    2.9086   10.8744 N   0  0  0  0  0  0  0  0  0  0  0  0
   45.9133    2.2430    8.1186 C   0  0  0  0  0  0  0  0  0  0  0  0
   43.8679    4.7104   12.4120 C   0  0  0  0  0  0  0  0  0  0  0  0
   44.6104    4.5332    9.3331 C   0  0  0  0  0  0  0  0  0  0  0  0
   45.5287    4.6894    8.3731 C   0  0  0  0  0  0  0  0  0  0  0  0
   43.0045    3.9237   11.6659 N   0  0  0  0  0  0  0  0  0  0  0  0
   46.2405    3.5595    7.7793 C   0  0  0  0  0  0  0  0  0  0  0  0
   44.4148    0.8610    9.2909 O   0  0  0  0  0  0  0  0  0  0  0  0
   45.0862    4.7707   12.3197 O   0  0  0  0  0  0  0  0  0  0  0  0
   43.1957    5.4938   13.3059 N   0  0  0  0  0  0  0  0  0  0  0  0
   46.5814    1.1635    7.5267 C   0  0  0  0  0  0  0  0  0  0  0  0
   47.2545    3.7838    6.8394 C   0  0  0  0  0  0  0  0  0  0  0  0
   47.5904    1.3993    6.5943 C   0  0  0  0  0  0  0  0  0  0  0  0
   47.9270    2.7080    6.2522 C   0  0  0  0  0  0  0  0  0  0  0  0
   44.1099    5.3903    9.7633 H   0  0  0  0  0  0  0  0  0  0  0  0
   45.7736    5.6878    8.0215 H   0  0  0  0  0  0  0  0  0  0  0  0
   42.2274    3.5999   12.2343 H   0  0  0  0  0  0  0  0  0  0  0  0
   43.7981    6.1610   13.7729 H   0  0  0  0  0  0  0  0  0  0  0  0
   42.3068    5.8670   13.0047 H   0  0  0  0  0  0  0  0  0  0  0  0
   46.3178    0.1415    7.7930 H   0  0  0  0  0  0  0  0  0  0  0  0
   47.5339    4.7958    6.5539 H   0  0  0  0  0  0  0  0  0  0  0  0
   48.1127    0.5630    6.1358 H   0  0  0  0  0  0  0  0  0  0  0  0
   48.7146    2.8923    5.5250 H   0  0  0  0  0  0  0  0  0  0  0  0
  2  1  1  0
  3  2  2  0
  4  1  1  0
  5  8  1  0
  6  2  1  0
  7  9  1  0
  8  3  1  0
  9  4  2  0
 10  1  2  0
 11  5  2  0
 12  5  1  0
 13  4  1  0
 14  9  1  0
 15 13  2  0
 16 15  1  0
  6  7  2  0
 14 16  2  0
  6 17  1  0
  7 18  1  0
  8 19  1  0
 12 20  1  0
 12 21  1  0
 13 22  1  0
 14 23  1  0
 15 24  1  0
 16 25  1  0
M  END
> <Uni-Dock RESULT> 
ENERGY=   -6.543  LOWER_BOUND=    0.000  UPPER_BOUND=    0.000
INTER + INTRA:          -6.543
INTER:                  -6.543
INTRA:                   0.000
UNBOUND:                 0.000

$$$$

     RDKit          3D

 25 26  0  0  0  0  0  0  0  0999 V2000
   46.6830    5.0104   13.4289 C   0  0  0  0  0  0  0  0  0  0  0  0
   47.4467    6.3353   13.3875 C   0  0  0  0  0  0  0  0  0  0  0  0
   48.6946    6.2966   13.7513 N   0  0  0  0  0  0  0  0  0  0  0  0
   45.3539    4.9453   12.7893 C   0  0  0  0  0  0  0  0  0  0  0  0
   49.7462    7.9907   12.4180 C   0  0  0  0  0  0  0  0  0  0  0  0
   46.6578    7.5303   12.9765 C   0  0  0  0  0  0  0  0  0  0  0  0
   45.4177    7.4157   12.4883 C   0  0  0  0  0  0  0  0  0  0  0  0
   49.4725    7.4269   13.6541 N   0  0  0  0  0  0  0  0  0  0  0  0
   44.7542    6.1229   12.3321 C   0  0  0  0  0  0  0  0  0  0  0  0
   47.1570    4.0305   13.9899 O   0  0  0  0  0  0  0  0  0  0  0  0
   49.2096    7.7348   11.3489 O   0  0  0  0  0  0  0  0  0  0  0  0
   50.7163    8.9482   12.5009 N   0  0  0  0  0  0  0  0  0  0  0  0
   44.7016    3.7124   12.6603 C   0  0  0  0  0  0  0  0  0  0  0  0
   43.4892    6.0503   11.7351 C   0  0  0  0  0  0  0  0  0  0  0  0
   43.4439    3.6525   12.0624 C   0  0  0  0  0  0  0  0  0  0  0  0
   42.8393    4.8201   11.5995 C   0  0  0  0  0  0  0  0  0  0  0  0
   47.1281    8.5003   13.0674 H   0  0  0  0  0  0  0  0  0  0  0  0
   44.8772    8.3066   12.1806 H   0  0  0  0  0  0  0  0  0  0  0  0
   50.3212    7.3308   14.2041 H   0  0  0  0  0  0  0  0  0  0  0  0
   50.8428    9.4541   11.6324 H   0  0  0  0  0  0  0  0  0  0  0  0
   50.7147    9.5261   13.3293 H   0  0  0  0  0  0  0  0  0  0  0  0
   45.1733    2.8008   13.0227 H   0  0  0  0  0  0  0  0  0  0  0  0
   42.9954    6.9477   11.3682 H   0  0  0  0  0  0  0  0  0  0  0  0
   42.9369    2.6961   11.9581 H   0  0  0  0  0  0  0  0  0  0  0  0
   41.8580    4.7735   11.1325 H   0  0  0  0  0  0  0  0  0  0  0  0
  2  1  1  0
  3  2  2  0
  4  1  1  0
  5  8  1  0
  6  2  1  0
  7  9  1  0
  8  3  1  0
  9  4  2  0
 10  1  2  0
 11  5  2  0
 12  5  1  0
 13  4  1  0
 14  9  1  0
 15 13  2  0
 16 15  1  0
  6  7  2  0
 14 16  2  0
  6 17  1  0
  7 18  1  0
  8 19  1  0
 12 20  1  0
 12 21  1  0
 13 22  1  0
 14 23  1  0
 15 24  1  0
 16 25  1  0
M  END
> <Uni-Dock RESULT> 
ENERGY=   -4.111  LOWER_BOUND=    5.264  UPPER_BOUND=    6.374
INTER + INTRA:          -4.111
INTER:                  -4.111
INTRA:                   0.000
UNBOUND:                 0.000

$$$$

     RDKit          3D

 25 26  0  0  0  0  0  0  0  0999 V2000
   45.3911    7.2869   12.6681 C   0  0  0  0  0  0  0  0  0  0  0  0
   44.9716    5.8268   12.8488 C   0  0  0  0  0  0  0  0  0  0  0  0
   43.7369    5.5386   12.5598 N   0  0  0  0  0  0  0  0  0  0  0  0
   46.8285    7.6179   12.7322 C   0  0  0  0  0  0  0  0  0  0  0  0
   43.8366    3.2841   11.7467 C   0  0  0  0  0  0  0  0  0  0  0  0
   46.0177    4.9086   13.3796 C   0  0  0  0  0  0  0  0  0  0  0  0
   47.2919    5.2964   13.5025 C   0  0  0  0  0  0  0  0  0  0  0  0
   43.3083    4.2323   12.6085 N   0  0  0  0  0  0  0  0  0  0  0  0
   47.7409    6.6376   13.1344 C   0  0  0  0  0  0  0  0  0  0  0  0
   44.5540    8.1621   12.4871 O   0  0  0  0  0  0  0  0  0  0  0  0
   44.8264    3.3944   11.0364 O   0  0  0  0  0  0  0  0  0  0  0  0
   43.1265    2.1182   11.7788 N   0  0  0  0  0  0  0  0  0  0  0  0
   47.2620    8.9093   12.4057 C   0  0  0  0  0  0  0  0  0  0  0  0
   49.1011    6.9656   13.2003 C   0  0  0  0  0  0  0  0  0  0  0  0
   48.6184    9.2232   12.4729 C   0  0  0  0  0  0  0  0  0  0  0  0
   49.5366    8.2519   12.8686 C   0  0  0  0  0  0  0  0  0  0  0  0
   45.7178    3.9042   13.6474 H   0  0  0  0  0  0  0  0  0  0  0  0
   48.0331    4.5952   13.8759 H   0  0  0  0  0  0  0  0  0  0  0  0
   42.2937    4.1843   12.6215 H   0  0  0  0  0  0  0  0  0  0  0  0
   43.5677    1.3760   11.2489 H   0  0  0  0  0  0  0  0  0  0  0  0
   42.7585    1.8347   12.6756 H   0  0  0  0  0  0  0  0  0  0  0  0
   46.5448    9.6680   12.0977 H   0  0  0  0  0  0  0  0  0  0  0  0
   49.8370    6.2260   13.5087 H   0  0  0  0  0  0  0  0  0  0  0  0
   48.9578   10.2240   12.2167 H   0  0  0  0  0  0  0  0  0  0  0  0
   50.5953    8.4965   12.9207 H   0  0  0  0  0  0  0  0  0  0  0  0
  2  1  1  0
  3  2  2  0
  4  1  1  0
  5  8  1  0
  6  2  1  0
  7  9  1  0
  8  3  1  0
  9  4  2  0
 10  1  2  0
 11  5  2  0
 12  5  1  0
 13  4  1  0
 14  9  1  0
 15 13  2  0
 16 15  1  0
  6  7  2  0
 14 16  2  0
  6 17  1  0
  7 18  1  0
  8 19  1  0
 12 20  1  0
 12 21  1  0
 13 22  1  0
 14 23  1  0
 15 24  1  0
 16 25  1  0
M  END
> <Uni-Dock RESULT> 
ENERGY=   -4.088  LOWER_BOUND=    3.987  UPPER_BOUND=    6.142
INTER + INTRA:          -4.088
INTER:                  -4.088
INTRA:                   0.000
UNBOUND:                 0.000

$$$$

     RDKit          3D

 25 26  0  0  0  0  0  0  0  0999 V2000
   45.3344    7.7105   12.4829 C   0  0  0  0  0  0  0  0  0  0  0  0
   46.7088    8.0515   13.0620 C   0  0  0  0  0  0  0  0  0  0  0  0
   46.9735    9.3147   13.2210 N   0  0  0  0  0  0  0  0  0  0  0  0
   44.8850    6.3047   12.5214 C   0  0  0  0  0  0  0  0  0  0  0  0
   48.4060    9.3754   15.1441 C   0  0  0  0  0  0  0  0  0  0  0  0
   47.6063    6.8945   13.3362 C   0  0  0  0  0  0  0  0  0  0  0  0
   47.1643    5.6340   13.2647 C   0  0  0  0  0  0  0  0  0  0  0  0
   48.1506    9.6983   13.8207 N   0  0  0  0  0  0  0  0  0  0  0  0
   45.7850    5.3071   12.9090 C   0  0  0  0  0  0  0  0  0  0  0  0
   44.6291    8.5805   11.9880 O   0  0  0  0  0  0  0  0  0  0  0  0
   47.7927    8.5851   15.8481 O   0  0  0  0  0  0  0  0  0  0  0  0
   49.4979   10.0386   15.6263 N   0  0  0  0  0  0  0  0  0  0  0  0
   43.5716    5.9822   12.1565 C   0  0  0  0  0  0  0  0  0  0  0  0
   45.3502    3.9758   12.9331 C   0  0  0  0  0  0  0  0  0  0  0  0
   43.1498    4.6539   12.1866 C   0  0  0  0  0  0  0  0  0  0  0  0
   44.0380    3.6525   12.5755 C   0  0  0  0  0  0  0  0  0  0  0  0
   48.6298    7.1058   13.6159 H   0  0  0  0  0  0  0  0  0  0  0  0
   47.8410    4.8141   13.4891 H   0  0  0  0  0  0  0  0  0  0  0  0
   48.3441   10.6798   13.6438 H   0  0  0  0  0  0  0  0  0  0  0  0
   49.7708    9.7245   16.5499 H   0  0  0  0  0  0  0  0  0  0  0  0
   50.2651   10.1779   14.9843 H   0  0  0  0  0  0  0  0  0  0  0  0
   42.8784    6.7641   11.8518 H   0  0  0  0  0  0  0  0  0  0  0  0
   46.0250    3.1759   13.2305 H   0  0  0  0  0  0  0  0  0  0  0  0
   42.1297    4.4014   11.9070 H   0  0  0  0  0  0  0  0  0  0  0  0
   43.7089    2.6160   12.5995 H   0  0  0  0  0  0  0  0  0  0  0  0
  2  1  1  0
  3  2  2  0
  4  1  1  0
  5  8  1  0
  6  2  1  0
  7  9  1  0
  8  3  1  0
  9  4  2  0
 10  1  2  0
 11  5  2  0
 12  5  1  0
 13  4  1  0
 14  9  1  0
 15 13  2  0
 16 15  1  0
  6  7  2  0
 14 16  2  0
  6 17  1  0
  7 18  1  0
  8 19  1  0
 12 20  1  0
 12 21  1  0
 13 22  1  0
 14 23  1  0
 15 24  1  0
 16 25  1  0
M  END
> <Uni-Dock RESULT> 
ENERGY=   -3.742  LOWER_BOUND=    5.628  UPPER_BOUND=    6.896
INTER + INTRA:          -3.742
INTER:                  -3.742
INTRA:                   0.000
UNBOUND:                 0.000

$$$$

     RDKit          3D

 25 26  0  0  0  0  0  0  0  0999 V2000
   54.9883    4.7906   10.9012 C   0  0  0  0  0  0  0  0  0  0  0  0
   55.9139    3.6294   10.5336 C   0  0  0  0  0  0  0  0  0  0  0  0
   56.3621    2.9108   11.5205 N   0  0  0  0  0  0  0  0  0  0  0  0
   54.2523    5.4724    9.8180 C   0  0  0  0  0  0  0  0  0  0  0  0
   56.5855    0.7115   10.5894 C   0  0  0  0  0  0  0  0  0  0  0  0
   56.2324    3.4823    9.0858 C   0  0  0  0  0  0  0  0  0  0  0  0
   55.5941    4.1975    8.1530 C   0  0  0  0  0  0  0  0  0  0  0  0
   57.1247    1.7948   11.2650 N   0  0  0  0  0  0  0  0  0  0  0  0
   54.5545    5.1691    8.4868 C   0  0  0  0  0  0  0  0  0  0  0  0
   54.8700    5.1544   12.0645 O   0  0  0  0  0  0  0  0  0  0  0  0
   55.5277    0.6692    9.9763 O   0  0  0  0  0  0  0  0  0  0  0  0
   57.4059   -0.3788   10.6425 N   0  0  0  0  0  0  0  0  0  0  0  0
   53.2730    6.4236   10.1314 C   0  0  0  0  0  0  0  0  0  0  0  0
   53.8562    5.8287    7.4673 C   0  0  0  0  0  0  0  0  0  0  0  0
   52.5832    7.0719    9.1083 C   0  0  0  0  0  0  0  0  0  0  0  0
   52.8740    6.7736    7.7780 C   0  0  0  0  0  0  0  0  0  0  0  0
   56.9880    2.7601    8.8069 H   0  0  0  0  0  0  0  0  0  0  0  0
   55.8380    4.0520    7.1043 H   0  0  0  0  0  0  0  0  0  0  0  0
   57.6152    1.4921   12.1015 H   0  0  0  0  0  0  0  0  0  0  0  0
   57.0861   -1.1389   10.0542 H   0  0  0  0  0  0  0  0  0  0  0  0
   58.3995   -0.2023   10.6004 H   0  0  0  0  0  0  0  0  0  0  0  0
   53.0467    6.6573   11.1702 H   0  0  0  0  0  0  0  0  0  0  0  0
   54.0666    5.6153    6.4214 H   0  0  0  0  0  0  0  0  0  0  0  0
   51.8202    7.8082    9.3491 H   0  0  0  0  0  0  0  0  0  0  0  0
   52.3354    7.2790    6.9793 H   0  0  0  0  0  0  0  0  0  0  0  0
  2  1  1  0
  3  2  2  0
  4  1  1  0
  5  8  1  0
  6  2  1  0
  7  9  1  0
  8  3  1  0
  9  4  2  0
 10  1  2  0
 11  5  2  0
 12  5  1  0
 13  4  1  0
 14  9  1  0
 15 13  2  0
 16 15  1  0
  6  7  2  0
 14 16  2  0
  6 17  1  0
  7 18  1  0
  8 19  1  0
 12 20  1  0
 12 21  1  0
 13 22  1  0
 14 23  1  0
 15 24  1  0
 16 25  1  0
M  END
> <Uni-Dock RESULT> 
ENERGY=   -3.704  LOWER_BOUND=    9.610  UPPER_BOUND=   11.009
INTER + INTRA:          -3.704
INTER:                  -3.704
INTRA:                   0.000
UNBOUND:                 0.000

$$$$

     RDKit          3D

 25 26  0  0  0  0  0  0  0  0999 V2000
   46.5240    6.9773   12.5145 C   0  0  0  0  0  0  0  0  0  0  0  0
   47.6167    6.4321   13.4361 C   0  0  0  0  0  0  0  0  0  0  0  0
   48.6040    7.2354   13.7027 N   0  0  0  0  0  0  0  0  0  0  0  0
   45.2671    6.2134   12.3866 C   0  0  0  0  0  0  0  0  0  0  0  0
   49.2658    6.6315   15.9278 C   0  0  0  0  0  0  0  0  0  0  0  0
   47.4458    5.0228   13.8877 C   0  0  0  0  0  0  0  0  0  0  0  0
   46.3134    4.3479   13.6606 C   0  0  0  0  0  0  0  0  0  0  0  0
   49.5777    6.8521   14.5956 N   0  0  0  0  0  0  0  0  0  0  0  0
   45.1785    4.9384   12.9541 C   0  0  0  0  0  0  0  0  0  0  0  0
   46.6925    8.0160   11.8881 O   0  0  0  0  0  0  0  0  0  0  0  0
   48.1521    6.5303   16.4237 O   0  0  0  0  0  0  0  0  0  0  0  0
   50.3870    6.4969   16.6956 N   0  0  0  0  0  0  0  0  0  0  0  0
   44.1846    6.7634   11.6882 C   0  0  0  0  0  0  0  0  0  0  0  0
   43.9842    4.2192   12.8187 C   0  0  0  0  0  0  0  0  0  0  0  0
   43.0005    6.0390   11.5619 C   0  0  0  0  0  0  0  0  0  0  0  0
   42.9004    4.7689   12.1276 C   0  0  0  0  0  0  0  0  0  0  0  0
   48.2640    4.5634   14.4260 H   0  0  0  0  0  0  0  0  0  0  0  0
   46.2152    3.3274   14.0200 H   0  0  0  0  0  0  0  0  0  0  0  0
   50.4005    7.4416   14.5092 H   0  0  0  0  0  0  0  0  0  0  0  0
   50.1794    6.2153   17.6463 H   0  0  0  0  0  0  0  0  0  0  0  0
   51.1707    6.0179   16.2754 H   0  0  0  0  0  0  0  0  0  0  0  0
   44.2631    7.7548   11.2455 H   0  0  0  0  0  0  0  0  0  0  0  0
   43.8821    3.2251   13.2490 H   0  0  0  0  0  0  0  0  0  0  0  0
   42.1576    6.4652   11.0231 H   0  0  0  0  0  0  0  0  0  0  0  0
   41.9763    4.2036   12.0297 H   0  0  0  0  0  0  0  0  0  0  0  0
  2  1  1  0
  3  2  2  0
  4  1  1  0
  5  8  1  0
  6  2  1  0
  7  9  1  0
  8  3  1  0
  9  4  2  0
 10  1  2  0
 11  5  2  0
 12  5  1  0
 13  4  1  0
 14  9  1  0
 15 13  2  0
 16 15  1  0
  6  7  2  0
 14 16  2  0
  6 17  1  0
  7 18  1  0
  8 19  1  0
 12 20  1  0
 12 21  1  0
 13 22  1  0
 14 23  1  0
 15 24  1  0
 16 25  1  0
M  END
> <Uni-Dock RESULT> 
ENERGY=   -3.676  LOWER_BOUND=    5.723  UPPER_BOUND=    6.816
INTER + INTRA:          -3.676
INTER:                  -3.676
INTRA:                   0.000
UNBOUND:                 0.000

$$$$

     RDKit          3D

 25 26  0  0  0  0  0  0  0  0999 V2000
   50.1236    2.4580   17.1350 C   0  0  0  0  0  0  0  0  0  0  0  0
   49.5054    3.8199   17.4568 C   0  0  0  0  0  0  0  0  0  0  0  0
   48.2336    3.9497   17.2188 N   0  0  0  0  0  0  0  0  0  0  0  0
   51.4889    2.1740   17.6199 C   0  0  0  0  0  0  0  0  0  0  0  0
   47.4780    5.4888   18.8964 C   0  0  0  0  0  0  0  0  0  0  0  0
   50.4444    4.8585   17.9657 C   0  0  0  0  0  0  0  0  0  0  0  0
   51.7034    4.5583   18.3032 C   0  0  0  0  0  0  0  0  0  0  0  0
   47.5862    5.1125   17.5669 N   0  0  0  0  0  0  0  0  0  0  0  0
   52.2425    3.2045   18.1905 C   0  0  0  0  0  0  0  0  0  0  0  0
   49.5059    1.6278   16.4802 O   0  0  0  0  0  0  0  0  0  0  0  0
   48.0752    5.0162   19.8538 O   0  0  0  0  0  0  0  0  0  0  0  0
   46.6072    6.5278   19.0602 N   0  0  0  0  0  0  0  0  0  0  0  0
   52.0207    0.8845   17.4910 C   0  0  0  0  0  0  0  0  0  0  0  0
   53.5398    2.9256   18.6389 C   0  0  0  0  0  0  0  0  0  0  0  0
   53.3122    0.6185   17.9428 C   0  0  0  0  0  0  0  0  0  0  0  0
   54.0701    1.6379   18.5170 C   0  0  0  0  0  0  0  0  0  0  0  0
   50.0694    5.8675   18.0732 H   0  0  0  0  0  0  0  0  0  0  0  0
   52.3562    5.3365   18.6885 H   0  0  0  0  0  0  0  0  0  0  0  0
   46.6883    5.1817   17.0970 H   0  0  0  0  0  0  0  0  0  0  0  0
   46.6077    6.8944   20.0045 H   0  0  0  0  0  0  0  0  0  0  0  0
   46.5969    7.2307   18.3349 H   0  0  0  0  0  0  0  0  0  0  0  0
   51.4293    0.0888   17.0416 H   0  0  0  0  0  0  0  0  0  0  0  0
   54.1522    3.7046   19.0882 H   0  0  0  0  0  0  0  0  0  0  0  0
   53.7260   -0.3825   17.8469 H   0  0  0  0  0  0  0  0  0  0  0  0
   55.0778    1.4305   18.8702 H   0  0  0  0  0  0  0  0  0  0  0  0
  2  1  1  0
  3  2  2  0
  4  1  1  0
  5  8  1  0
  6  2  1  0
  7  9  1  0
  8  3  1  0
  9  4  2  0
 10  1  2  0
 11  5  2  0
 12  5  1  0
 13  4  1  0
 14  9  1  0
 15 13  2  0
 16 15  1  0
  6  7  2  0
 14 16  2  0
  6 17  1  0
  7 18  1  0
  8 19  1  0
 12 20  1  0
 12 21  1  0
 13 22  1  0
 14 23  1  0
 15 24  1  0
 16 25  1  0
M  END
> <Uni-Dock RESULT> 
ENERGY=   -3.659  LOWER_BOUND=    9.268  UPPER_BOUND=   10.356
INTER + INTRA:          -3.659
INTER:                  -3.659
INTRA:                   0.000
UNBOUND:                 0.000

$$$$

     RDKit          3D

 25 26  0  0  0  0  0  0  0  0999 V2000
   46.9446   10.7556   11.8949 C   0  0  0  0  0  0  0  0  0  0  0  0
   45.4704   10.3677   12.0242 C   0  0  0  0  0  0  0  0  0  0  0  0
   44.6009   11.2909   11.7366 N   0  0  0  0  0  0  0  0  0  0  0  0
   47.9605    9.6861   11.9575 C   0  0  0  0  0  0  0  0  0  0  0  0
   42.7360   10.0794   10.8375 C   0  0  0  0  0  0  0  0  0  0  0  0
   45.1998    8.9855   12.5096 C   0  0  0  0  0  0  0  0  0  0  0  0
   46.1797    8.0836   12.6346 C   0  0  0  0  0  0  0  0  0  0  0  0
   43.2579   10.9928   11.7397 N   0  0  0  0  0  0  0  0  0  0  0  0
   47.5719    8.3908   12.3134 C   0  0  0  0  0  0  0  0  0  0  0  0
   47.2751   11.9264   11.7555 O   0  0  0  0  0  0  0  0  0  0  0  0
   43.3553    9.3040   10.1222 O   0  0  0  0  0  0  0  0  0  0  0  0
   41.3706   10.0954   10.8322 N   0  0  0  0  0  0  0  0  0  0  0  0
   49.3008    9.9800   11.6761 C   0  0  0  0  0  0  0  0  0  0  0  0
   48.5458    7.3861   12.3783 C   0  0  0  0  0  0  0  0  0  0  0  0
   50.2607    8.9714   11.7419 C   0  0  0  0  0  0  0  0  0  0  0  0
   49.8830    7.6759   12.0915 C   0  0  0  0  0  0  0  0  0  0  0  0
   44.1759    8.7244   12.7419 H   0  0  0  0  0  0  0  0  0  0  0  0
   45.9445    7.0787   12.9739 H   0  0  0  0  0  0  0  0  0  0  0  0
   42.6988   11.8407   11.7609 H   0  0  0  0  0  0  0  0  0  0  0  0
   40.9721    9.3526   10.2703 H   0  0  0  0  0  0  0  0  0  0  0  0
   40.9144   10.2427   11.7213 H   0  0  0  0  0  0  0  0  0  0  0  0
   49.5959   10.9919   11.4041 H   0  0  0  0  0  0  0  0  0  0  0  0
   48.2767    6.3679   12.6512 H   0  0  0  0  0  0  0  0  0  0  0  0
   51.3013    9.1964   11.5206 H   0  0  0  0  0  0  0  0  0  0  0  0
   50.6317    6.8885   12.1424 H   0  0  0  0  0  0  0  0  0  0  0  0
  2  1  1  0
  3  2  2  0
  4  1  1  0
  5  8  1  0
  6  2  1  0
  7  9  1  0
  8  3  1  0
  9  4  2  0
 10  1  2  0
 11  5  2  0
 12  5  1  0
 13  4  1  0
 14  9  1  0
 15 13  2  0
 16 15  1  0
  6  7  2  0
 14 16  2  0
  6 17  1  0
  7 18  1  0
  8 19  1  0
 12 20  1  0
 12 21  1  0
 13 22  1  0
 14 23  1  0
 15 24  1  0
 16 25  1  0
M  END
> <Uni-Dock RESULT> 
ENERGY=   -3.621  LOWER_BOUND=    6.724  UPPER_BOUND=    7.822
INTER + INTRA:          -3.621
INTER:                  -3.621
INTRA:                   0.000
UNBOUND:                 0.000

$$$$
