
     RDKit          3D

 25 26  0  0  0  0  0  0  0  0999 V2000
   44.8471    2.0105    9.1066 C   0  0  0  0  0  0  0  0  0  0  0  0
   44.2623    3.2089    9.8562 C   0  0  0  0  0  0  0  0  0  0  0  0
   43.4686    2.9391   10.8512 N   0  0  0  0  0  0  0  0  0  0  0  0
   45.9165    2.2519    8.1175 C   0  0  0  0  0  0  0  0  0  0  0  0
   43.8415    4.7238   12.4074 C   0  0  0  0  0  0  0  0  0  0  0  0
   44.6320    4.5530    9.3305 C   0  0  0  0  0  0  0  0  0  0  0  0
   45.5537    4.7016    8.3727 C   0  0  0  0  0  0  0  0  0  0  0  0
   42.9831    3.9638   11.6285 N   0  0  0  0  0  0  0  0  0  0  0  0
   46.2519    3.5656    7.7750 C   0  0  0  0  0  0  0  0  0  0  0  0
   44.4308    0.8777    9.3148 O   0  0  0  0  0  0  0  0  0  0  0  0
   45.0595    4.7954   12.3059 O   0  0  0  0  0  0  0  0  0  0  0  0
   43.1795    5.5026   13.3117 N   0  0  0  0  0  0  0  0  0  0  0  0
   46.5744    1.1671    7.5233 C   0  0  0  0  0  0  0  0  0  0  0  0
   47.2628    3.7815    6.8297 C   0  0  0  0  0  0  0  0  0  0  0  0
   47.5800    1.3945    6.5852 C   0  0  0  0  0  0  0  0  0  0  0  0
   47.9241    2.7004    6.2398 C   0  0  0  0  0  0  0  0  0  0  0  0
   44.1409    5.4154    9.7626 H   0  0  0  0  0  0  0  0  0  0  0  0
   45.8105    5.6986    8.0261 H   0  0  0  0  0  0  0  0  0  0  0  0
   42.1398    3.6871   12.1168 H   0  0  0  0  0  0  0  0  0  0  0  0
   42.3505    5.1316   13.7507 H   0  0  0  0  0  0  0  0  0  0  0  0
   43.8069    5.9882   13.9417 H   0  0  0  0  0  0  0  0  0  0  0  0
   46.3051    0.1473    7.7920 H   0  0  0  0  0  0  0  0  0  0  0  0
   47.5479    4.7913    6.5421 H   0  0  0  0  0  0  0  0  0  0  0  0
   48.0938    0.5540    6.1248 H   0  0  0  0  0  0  0  0  0  0  0  0
   48.7090    2.8784    5.5083 H   0  0  0  0  0  0  0  0  0  0  0  0
  2  1  1  0
  3  2  2  0
  4  1  1  0
  5  8  1  0
  6  2  1  0
  7  9  1  0
  8  3  1  0
  9  4  2  0
 10  1  2  0
 11  5  2  0
 12  5  1  0
 13  4  1  0
 14  9  1  0
 15 13  2  0
 16 15  1  0
  6  7  2  0
 14 16  2  0
  6 17  1  0
  7 18  1  0
  8 19  1  0
 12 20  1  0
 12 21  1  0
 13 22  1  0
 14 23  1  0
 15 24  1  0
 16 25  1  0
M  END
> <Uni-Dock RESULT> 
ENERGY=   -6.511  LOWER_BOUND=    0.000  UPPER_BOUND=    0.000
INTER + INTRA:          -6.511
INTER:                  -6.511
INTRA:                   0.000
UNBOUND:                 0.000

$$$$

     RDKit          3D

 25 26  0  0  0  0  0  0  0  0999 V2000
   45.4131    7.3333   12.5713 C   0  0  0  0  0  0  0  0  0  0  0  0
   44.9743    5.8858   12.7999 C   0  0  0  0  0  0  0  0  0  0  0  0
   43.7407    5.5999   12.5011 N   0  0  0  0  0  0  0  0  0  0  0  0
   46.8485    7.6605   12.6846 C   0  0  0  0  0  0  0  0  0  0  0  0
   43.8242    3.3239   11.7538 C   0  0  0  0  0  0  0  0  0  0  0  0
   45.9992    4.9763   13.3847 C   0  0  0  0  0  0  0  0  0  0  0  0
   47.2714    5.3602   13.5373 C   0  0  0  0  0  0  0  0  0  0  0  0
   43.3052    4.2991   12.5909 N   0  0  0  0  0  0  0  0  0  0  0  0
   47.7399    6.6893   13.1510 C   0  0  0  0  0  0  0  0  0  0  0  0
   44.5913    8.2030   12.3102 O   0  0  0  0  0  0  0  0  0  0  0  0
   44.8503    3.3933   11.0894 O   0  0  0  0  0  0  0  0  0  0  0  0
   43.1002    2.1673   11.7827 N   0  0  0  0  0  0  0  0  0  0  0  0
   47.3012    8.9401   12.3377 C   0  0  0  0  0  0  0  0  0  0  0  0
   49.0979    7.0142   13.2613 C   0  0  0  0  0  0  0  0  0  0  0  0
   48.6553    9.2512   12.4501 C   0  0  0  0  0  0  0  0  0  0  0  0
   49.5524    8.2887   12.9105 C   0  0  0  0  0  0  0  0  0  0  0  0
   45.6852    3.9802   13.6691 H   0  0  0  0  0  0  0  0  0  0  0  0
   47.9953    4.6639   13.9514 H   0  0  0  0  0  0  0  0  0  0  0  0
   42.2971    4.2542   12.6798 H   0  0  0  0  0  0  0  0  0  0  0  0
   42.0968    2.2296   11.8665 H   0  0  0  0  0  0  0  0  0  0  0  0
   43.4236    1.4874   11.1048 H   0  0  0  0  0  0  0  0  0  0  0  0
   46.6008    9.6921   11.9792 H   0  0  0  0  0  0  0  0  0  0  0  0
   49.8172    6.2809   13.6200 H   0  0  0  0  0  0  0  0  0  0  0  0
   49.0094   10.2429   12.1788 H   0  0  0  0  0  0  0  0  0  0  0  0
   50.6092    8.5308   12.9978 H   0  0  0  0  0  0  0  0  0  0  0  0
  2  1  1  0
  3  2  2  0
  4  1  1  0
  5  8  1  0
  6  2  1  0
  7  9  1  0
  8  3  1  0
  9  4  2  0
 10  1  2  0
 11  5  2  0
 12  5  1  0
 13  4  1  0
 14  9  1  0
 15 13  2  0
 16 15  1  0
  6  7  2  0
 14 16  2  0
  6 17  1  0
  7 18  1  0
  8 19  1  0
 12 20  1  0
 12 21  1  0
 13 22  1  0
 14 23  1  0
 15 24  1  0
 16 25  1  0
M  END
> <Uni-Dock RESULT> 
ENERGY=   -4.129  LOWER_BOUND=    4.002  UPPER_BOUND=    6.151
INTER + INTRA:          -4.129
INTER:                  -4.129
INTRA:                   0.000
UNBOUND:                 0.000

$$$$

     RDKit          3D

 25 26  0  0  0  0  0  0  0  0999 V2000
   46.6847    5.0113   13.4191 C   0  0  0  0  0  0  0  0  0  0  0  0
   47.4509    6.3350   13.3884 C   0  0  0  0  0  0  0  0  0  0  0  0
   48.6916    6.2958   13.7781 N   0  0  0  0  0  0  0  0  0  0  0  0
   45.3518    4.9542   12.7864 C   0  0  0  0  0  0  0  0  0  0  0  0
   49.7833    7.9653   12.4490 C   0  0  0  0  0  0  0  0  0  0  0  0
   46.6733    7.5311   12.9590 C   0  0  0  0  0  0  0  0  0  0  0  0
   45.4342    7.4218   12.4673 C   0  0  0  0  0  0  0  0  0  0  0  0
   49.4673    7.4271   13.6865 N   0  0  0  0  0  0  0  0  0  0  0  0
   44.7594    6.1336   12.3243 C   0  0  0  0  0  0  0  0  0  0  0  0
   47.1616    4.0242   13.9649 O   0  0  0  0  0  0  0  0  0  0  0  0
   49.2353    7.7269   11.3804 O   0  0  0  0  0  0  0  0  0  0  0  0
   50.7697    8.9058   12.5216 N   0  0  0  0  0  0  0  0  0  0  0  0
   44.6891    3.7257   12.6667 C   0  0  0  0  0  0  0  0  0  0  0  0
   43.4914    6.0675   11.7328 C   0  0  0  0  0  0  0  0  0  0  0  0
   43.4283    3.6721   12.0747 C   0  0  0  0  0  0  0  0  0  0  0  0
   42.8309    4.8418   11.6076 C   0  0  0  0  0  0  0  0  0  0  0  0
   47.1513    8.4987   13.0410 H   0  0  0  0  0  0  0  0  0  0  0  0
   44.9037    8.3144   12.1478 H   0  0  0  0  0  0  0  0  0  0  0  0
   50.2592    7.3818   14.3166 H   0  0  0  0  0  0  0  0  0  0  0  0
   51.5218    8.7645   13.1789 H   0  0  0  0  0  0  0  0  0  0  0  0
   51.0649    9.2329   11.6094 H   0  0  0  0  0  0  0  0  0  0  0  0
   45.1548    2.8124   13.0323 H   0  0  0  0  0  0  0  0  0  0  0  0
   43.0035    6.9666   11.3624 H   0  0  0  0  0  0  0  0  0  0  0  0
   42.9132    2.7194   11.9783 H   0  0  0  0  0  0  0  0  0  0  0  0
   41.8473    4.8005   11.1451 H   0  0  0  0  0  0  0  0  0  0  0  0
  2  1  1  0
  3  2  2  0
  4  1  1  0
  5  8  1  0
  6  2  1  0
  7  9  1  0
  8  3  1  0
  9  4  2  0
 10  1  2  0
 11  5  2  0
 12  5  1  0
 13  4  1  0
 14  9  1  0
 15 13  2  0
 16 15  1  0
  6  7  2  0
 14 16  2  0
  6 17  1  0
  7 18  1  0
  8 19  1  0
 12 20  1  0
 12 21  1  0
 13 22  1  0
 14 23  1  0
 15 24  1  0
 16 25  1  0
M  END
> <Uni-Dock RESULT> 
ENERGY=   -4.097  LOWER_BOUND=    5.276  UPPER_BOUND=    6.381
INTER + INTRA:          -4.097
INTER:                  -4.097
INTRA:                   0.000
UNBOUND:                 0.000

$$$$

     RDKit          3D

 25 26  0  0  0  0  0  0  0  0999 V2000
   45.3591    7.7481   12.4960 C   0  0  0  0  0  0  0  0  0  0  0  0
   46.7372    8.0756   13.0737 C   0  0  0  0  0  0  0  0  0  0  0  0
   47.0244    9.3374   13.2083 N   0  0  0  0  0  0  0  0  0  0  0  0
   44.8982    6.3456   12.5254 C   0  0  0  0  0  0  0  0  0  0  0  0
   48.4321    9.4212   15.1466 C   0  0  0  0  0  0  0  0  0  0  0  0
   47.6146    6.9095   13.3736 C   0  0  0  0  0  0  0  0  0  0  0  0
   47.1594    5.6537   13.3037 C   0  0  0  0  0  0  0  0  0  0  0  0
   48.2056    9.7038   13.8087 N   0  0  0  0  0  0  0  0  0  0  0  0
   45.7835    5.3396   12.9251 C   0  0  0  0  0  0  0  0  0  0  0  0
   44.6582    8.6275   12.0111 O   0  0  0  0  0  0  0  0  0  0  0  0
   47.8186    8.6248   15.8454 O   0  0  0  0  0  0  0  0  0  0  0  0
   49.5147   10.0845   15.6474 N   0  0  0  0  0  0  0  0  0  0  0  0
   43.5872    6.0345   12.1417 C   0  0  0  0  0  0  0  0  0  0  0  0
   45.3367    4.0121   12.9414 C   0  0  0  0  0  0  0  0  0  0  0  0
   43.1534    4.7100   12.1637 C   0  0  0  0  0  0  0  0  0  0  0  0
   44.0273    3.7004   12.5641 C   0  0  0  0  0  0  0  0  0  0  0  0
   48.6362    7.1107   13.6694 H   0  0  0  0  0  0  0  0  0  0  0  0
   47.8233    4.8287   13.5464 H   0  0  0  0  0  0  0  0  0  0  0  0
   48.4739   10.6451   13.5480 H   0  0  0  0  0  0  0  0  0  0  0  0
   49.6927   11.0249   15.3288 H   0  0  0  0  0  0  0  0  0  0  0  0
   49.6269    9.9509   16.6454 H   0  0  0  0  0  0  0  0  0  0  0  0
   42.9050    6.8225   11.8280 H   0  0  0  0  0  0  0  0  0  0  0  0
   46.0003    3.2064   13.2480 H   0  0  0  0  0  0  0  0  0  0  0  0
   42.1355    4.4665   11.8689 H   0  0  0  0  0  0  0  0  0  0  0  0
   43.6892    2.6668   12.5819 H   0  0  0  0  0  0  0  0  0  0  0  0
  2  1  1  0
  3  2  2  0
  4  1  1  0
  5  8  1  0
  6  2  1  0
  7  9  1  0
  8  3  1  0
  9  4  2  0
 10  1  2  0
 11  5  2  0
 12  5  1  0
 13  4  1  0
 14  9  1  0
 15 13  2  0
 16 15  1  0
  6  7  2  0
 14 16  2  0
  6 17  1  0
  7 18  1  0
  8 19  1  0
 12 20  1  0
 12 21  1  0
 13 22  1  0
 14 23  1  0
 15 24  1  0
 16 25  1  0
M  END
> <Uni-Dock RESULT> 
ENERGY=   -3.755  LOWER_BOUND=    5.649  UPPER_BOUND=    6.924
INTER + INTRA:          -3.755
INTER:                  -3.755
INTRA:                   0.000
UNBOUND:                 0.000

$$$$

     RDKit          3D

 25 26  0  0  0  0  0  0  0  0999 V2000
   46.9306   10.7398   11.8759 C   0  0  0  0  0  0  0  0  0  0  0  0
   45.4579   10.3516   12.0196 C   0  0  0  0  0  0  0  0  0  0  0  0
   44.5853   11.2787   11.7520 N   0  0  0  0  0  0  0  0  0  0  0  0
   47.9506    9.6749   11.9533 C   0  0  0  0  0  0  0  0  0  0  0  0
   42.7144   10.0871   10.8434 C   0  0  0  0  0  0  0  0  0  0  0  0
   45.1904    8.9657   12.4966 C   0  0  0  0  0  0  0  0  0  0  0  0
   46.1724    8.0667   12.6239 C   0  0  0  0  0  0  0  0  0  0  0  0
   43.2450   10.9734   11.7675 N   0  0  0  0  0  0  0  0  0  0  0  0
   47.5656    8.3796   12.3133 C   0  0  0  0  0  0  0  0  0  0  0  0
   47.2569   11.9085   11.7105 O   0  0  0  0  0  0  0  0  0  0  0  0
   43.3322    9.2943   10.1442 O   0  0  0  0  0  0  0  0  0  0  0  0
   41.3499   10.1068   10.8202 N   0  0  0  0  0  0  0  0  0  0  0  0
   49.2917    9.9729   11.6793 C   0  0  0  0  0  0  0  0  0  0  0  0
   48.5435    7.3798   12.3908 C   0  0  0  0  0  0  0  0  0  0  0  0
   50.2558    8.9692   11.7580 C   0  0  0  0  0  0  0  0  0  0  0  0
   49.8815    7.6741   12.1124 C   0  0  0  0  0  0  0  0  0  0  0  0
   44.1657    8.6999   12.7226 H   0  0  0  0  0  0  0  0  0  0  0  0
   45.9374    7.0599   12.9579 H   0  0  0  0  0  0  0  0  0  0  0  0
   42.6800   11.8046   11.8941 H   0  0  0  0  0  0  0  0  0  0  0  0
   40.8791   10.9896   10.9490 H   0  0  0  0  0  0  0  0  0  0  0  0
   40.9638    9.5285   10.0834 H   0  0  0  0  0  0  0  0  0  0  0  0
   49.5844   10.9843   11.4036 H   0  0  0  0  0  0  0  0  0  0  0  0
   48.2767    6.3619   12.6673 H   0  0  0  0  0  0  0  0  0  0  0  0
   51.2969    9.1976   11.5430 H   0  0  0  0  0  0  0  0  0  0  0  0
   50.6332    6.8904   12.1734 H   0  0  0  0  0  0  0  0  0  0  0  0
  2  1  1  0
  3  2  2  0
  4  1  1  0
  5  8  1  0
  6  2  1  0
  7  9  1  0
  8  3  1  0
  9  4  2  0
 10  1  2  0
 11  5  2  0
 12  5  1  0
 13  4  1  0
 14  9  1  0
 15 13  2  0
 16 15  1  0
  6  7  2  0
 14 16  2  0
  6 17  1  0
  7 18  1  0
  8 19  1  0
 12 20  1  0
 12 21  1  0
 13 22  1  0
 14 23  1  0
 15 24  1  0
 16 25  1  0
M  END
> <Uni-Dock RESULT> 
ENERGY=   -3.621  LOWER_BOUND=    6.712  UPPER_BOUND=    7.801
INTER + INTRA:          -3.621
INTER:                  -3.621
INTRA:                   0.000
UNBOUND:                 0.000

$$$$

     RDKit          3D

 25 26  0  0  0  0  0  0  0  0999 V2000
   50.8321    2.4241   17.4588 C   0  0  0  0  0  0  0  0  0  0  0  0
   52.1352    2.9753   18.0403 C   0  0  0  0  0  0  0  0  0  0  0  0
   53.2282    2.3551   17.7036 N   0  0  0  0  0  0  0  0  0  0  0  0
   49.5956    3.2132   17.6288 C   0  0  0  0  0  0  0  0  0  0  0  0
   54.8938    4.0781   17.6470 C   0  0  0  0  0  0  0  0  0  0  0  0
   51.9995    4.1344   18.9664 C   0  0  0  0  0  0  0  0  0  0  0  0
   50.8297    4.7592   19.1402 C   0  0  0  0  0  0  0  0  0  0  0  0
   54.4433    2.8524   18.1114 N   0  0  0  0  0  0  0  0  0  0  0  0
   49.6117    4.3483   18.4452 C   0  0  0  0  0  0  0  0  0  0  0  0
   50.8128    1.3481   16.8743 O   0  0  0  0  0  0  0  0  0  0  0  0
   54.2274    4.9506   17.1051 O   0  0  0  0  0  0  0  0  0  0  0  0
   56.2127    4.2924   17.9247 N   0  0  0  0  0  0  0  0  0  0  0  0
   48.4184    2.8119   16.9839 C   0  0  0  0  0  0  0  0  0  0  0  0
   48.4305    5.0841   18.6048 C   0  0  0  0  0  0  0  0  0  0  0  0
   47.2495    3.5532   17.1488 C   0  0  0  0  0  0  0  0  0  0  0  0
   47.2563    4.6885   17.9576 C   0  0  0  0  0  0  0  0  0  0  0  0
   52.8874    4.4704   19.4863 H   0  0  0  0  0  0  0  0  0  0  0  0
   50.7721    5.6122   19.8106 H   0  0  0  0  0  0  0  0  0  0  0  0
   55.1571    2.1338   18.1000 H   0  0  0  0  0  0  0  0  0  0  0  0
   56.8476    3.5099   17.8785 H   0  0  0  0  0  0  0  0  0  0  0  0
   56.5659    5.1451   17.5069 H   0  0  0  0  0  0  0  0  0  0  0  0
   48.4126    1.9250   16.3531 H   0  0  0  0  0  0  0  0  0  0  0  0
   48.4099    5.9726   19.2324 H   0  0  0  0  0  0  0  0  0  0  0  0
   46.3354    3.2453   16.6469 H   0  0  0  0  0  0  0  0  0  0  0  0
   46.3446    5.2675   18.0862 H   0  0  0  0  0  0  0  0  0  0  0  0
  2  1  1  0
  3  2  2  0
  4  1  1  0
  5  8  1  0
  6  2  1  0
  7  9  1  0
  8  3  1  0
  9  4  2  0
 10  1  2  0
 11  5  2  0
 12  5  1  0
 13  4  1  0
 14  9  1  0
 15 13  2  0
 16 15  1  0
  6  7  2  0
 14 16  2  0
  6 17  1  0
  7 18  1  0
  8 19  1  0
 12 20  1  0
 12 21  1  0
 13 22  1  0
 14 23  1  0
 15 24  1  0
 16 25  1  0
M  END
> <Uni-Dock RESULT> 
ENERGY=   -3.587  LOWER_BOUND=    9.701  UPPER_BOUND=   11.502
INTER + INTRA:          -3.587
INTER:                  -3.587
INTRA:                   0.000
UNBOUND:                 0.000

$$$$

     RDKit          3D

 25 26  0  0  0  0  0  0  0  0999 V2000
   47.2184    4.7559   14.6094 C   0  0  0  0  0  0  0  0  0  0  0  0
   47.5727    6.0731   13.9168 C   0  0  0  0  0  0  0  0  0  0  0  0
   46.9868    6.3054   12.7787 N   0  0  0  0  0  0  0  0  0  0  0  0
   47.6811    4.5420   15.9952 C   0  0  0  0  0  0  0  0  0  0  0  0
   46.7292    8.6879   12.7203 C   0  0  0  0  0  0  0  0  0  0  0  0
   48.5871    6.9209   14.6037 C   0  0  0  0  0  0  0  0  0  0  0  0
   49.0289    6.6287   15.8319 C   0  0  0  0  0  0  0  0  0  0  0  0
   47.1846    7.5107   12.1477 N   0  0  0  0  0  0  0  0  0  0  0  0
   48.5569    5.4638   16.5772 C   0  0  0  0  0  0  0  0  0  0  0  0
   46.5743    3.8942   14.0243 O   0  0  0  0  0  0  0  0  0  0  0  0
   46.3903    8.8578   13.8845 O   0  0  0  0  0  0  0  0  0  0  0  0
   46.7595    9.7404   11.8520 N   0  0  0  0  0  0  0  0  0  0  0  0
   47.2508    3.4152   16.7077 C   0  0  0  0  0  0  0  0  0  0  0  0
   48.9948    5.2459   17.8898 C   0  0  0  0  0  0  0  0  0  0  0  0
   47.6919    3.2098   18.0139 C   0  0  0  0  0  0  0  0  0  0  0  0
   48.5621    4.1249   18.6042 C   0  0  0  0  0  0  0  0  0  0  0  0
   48.9468    7.7985   14.0819 H   0  0  0  0  0  0  0  0  0  0  0  0
   49.7562    7.2797   16.3088 H   0  0  0  0  0  0  0  0  0  0  0  0
   46.9838    7.4444   11.1571 H   0  0  0  0  0  0  0  0  0  0  0  0
   46.5354    9.5715   10.8830 H   0  0  0  0  0  0  0  0  0  0  0  0
   46.3423   10.5782   12.2397 H   0  0  0  0  0  0  0  0  0  0  0  0
   46.5721    2.6999   16.2467 H   0  0  0  0  0  0  0  0  0  0  0  0
   49.6756    5.9445   18.3715 H   0  0  0  0  0  0  0  0  0  0  0  0
   47.3570    2.3374   18.5698 H   0  0  0  0  0  0  0  0  0  0  0  0
   48.9062    3.9655   19.6236 H   0  0  0  0  0  0  0  0  0  0  0  0
  2  1  1  0
  3  2  2  0
  4  1  1  0
  5  8  1  0
  6  2  1  0
  7  9  1  0
  8  3  1  0
  9  4  2  0
 10  1  2  0
 11  5  2  0
 12  5  1  0
 13  4  1  0
 14  9  1  0
 15 13  2  0
 16 15  1  0
  6  7  2  0
 14 16  2  0
  6 17  1  0
  7 18  1  0
  8 19  1  0
 12 20  1  0
 12 21  1  0
 13 22  1  0
 14 23  1  0
 15 24  1  0
 16 25  1  0
M  END
> <Uni-Dock RESULT> 
ENERGY=   -3.573  LOWER_BOUND=    6.276  UPPER_BOUND=    8.041
INTER + INTRA:          -3.573
INTER:                  -3.573
INTRA:                   0.000
UNBOUND:                 0.000

$$$$
