
     RDKit          3D

 25 26  0  0  0  0  0  0  0  0999 V2000
   45.5738    4.3136    8.5490 C   0  0  0  0  0  0  0  0  0  0  0  0
   44.7458    3.8086    9.7336 C   0  0  0  0  0  0  0  0  0  0  0  0
   44.3783    4.6879   10.6147 N   0  0  0  0  0  0  0  0  0  0  0  0
   46.3222    3.3205    7.7534 C   0  0  0  0  0  0  0  0  0  0  0  0
   43.3923    5.2019   12.7083 C   0  0  0  0  0  0  0  0  0  0  0  0
   44.4406    2.3498    9.7414 C   0  0  0  0  0  0  0  0  0  0  0  0
   45.0662    1.5081    8.9104 C   0  0  0  0  0  0  0  0  0  0  0  0
   43.6959    4.2804   11.7275 N   0  0  0  0  0  0  0  0  0  0  0  0
   46.0726    1.9582    7.9495 C   0  0  0  0  0  0  0  0  0  0  0  0
   45.6140    5.5020    8.2645 O   0  0  0  0  0  0  0  0  0  0  0  0
   43.6135    6.4038   12.7080 O   0  0  0  0  0  0  0  0  0  0  0  0
   42.7586    4.6197   13.7720 N   0  0  0  0  0  0  0  0  0  0  0  0
   47.2597    3.7488    6.8055 C   0  0  0  0  0  0  0  0  0  0  0  0
   46.7818    1.0239    7.1844 C   0  0  0  0  0  0  0  0  0  0  0  0
   47.9622    2.8094    6.0528 C   0  0  0  0  0  0  0  0  0  0  0  0
   47.7242    1.4489    6.2432 C   0  0  0  0  0  0  0  0  0  0  0  0
   43.6945    1.9831   10.4328 H   0  0  0  0  0  0  0  0  0  0  0  0
   44.8287    0.4478    8.9349 H   0  0  0  0  0  0  0  0  0  0  0  0
   43.8446    3.3391   12.0627 H   0  0  0  0  0  0  0  0  0  0  0  0
   42.0246    3.9709   13.5269 H   0  0  0  0  0  0  0  0  0  0  0  0
   42.4546    5.3247   14.4347 H   0  0  0  0  0  0  0  0  0  0  0  0
   47.4431    4.8114    6.6549 H   0  0  0  0  0  0  0  0  0  0  0  0
   46.6101   -0.0433    7.3078 H   0  0  0  0  0  0  0  0  0  0  0  0
   48.6927    3.1390    5.3176 H   0  0  0  0  0  0  0  0  0  0  0  0
   48.2713    0.7165    5.6537 H   0  0  0  0  0  0  0  0  0  0  0  0
  2  1  1  0
  3  2  2  0
  4  1  1  0
  5  8  1  0
  6  2  1  0
  7  9  1  0
  8  3  1  0
  9  4  2  0
 10  1  2  0
 11  5  2  0
 12  5  1  0
 13  4  1  0
 14  9  1  0
 15 13  2  0
 16 15  1  0
  6  7  2  0
 14 16  2  0
  6 17  1  0
  7 18  1  0
  8 19  1  0
 12 20  1  0
 12 21  1  0
 13 22  1  0
 14 23  1  0
 15 24  1  0
 16 25  1  0
M  END
> <Uni-Dock RESULT> 
ENERGY=   -5.479  LOWER_BOUND=    0.000  UPPER_BOUND=    0.000
INTER + INTRA:          -5.479
INTER:                  -5.479
INTRA:                   0.000
UNBOUND:                 0.000

$$$$

     RDKit          3D

 25 26  0  0  0  0  0  0  0  0999 V2000
   46.6171    4.6381   13.4853 C   0  0  0  0  0  0  0  0  0  0  0  0
   47.3523    5.9182   13.8909 C   0  0  0  0  0  0  0  0  0  0  0  0
   48.2994    5.8016   14.7706 N   0  0  0  0  0  0  0  0  0  0  0  0
   45.3150    4.7736   12.8030 C   0  0  0  0  0  0  0  0  0  0  0  0
   49.8801    6.8055   16.2244 C   0  0  0  0  0  0  0  0  0  0  0  0
   46.9027    7.1697   13.2180 C   0  0  0  0  0  0  0  0  0  0  0  0
   45.7689    7.2043   12.5084 C   0  0  0  0  0  0  0  0  0  0  0  0
   48.9424    6.9221   15.2192 N   0  0  0  0  0  0  0  0  0  0  0  0
   44.9107    6.0316   12.3440 C   0  0  0  0  0  0  0  0  0  0  0  0
   47.0918    3.5348   13.7141 O   0  0  0  0  0  0  0  0  0  0  0  0
   50.2775    5.7868   16.7703 O   0  0  0  0  0  0  0  0  0  0  0  0
   50.3856    8.0232   16.5897 N   0  0  0  0  0  0  0  0  0  0  0  0
   44.5072    3.6461   12.6104 C   0  0  0  0  0  0  0  0  0  0  0  0
   43.6774    6.1487   11.6909 C   0  0  0  0  0  0  0  0  0  0  0  0
   43.2800    3.7759   11.9625 C   0  0  0  0  0  0  0  0  0  0  0  0
   42.8655    5.0259   11.5047 C   0  0  0  0  0  0  0  0  0  0  0  0
   47.5180    8.0542   13.3105 H   0  0  0  0  0  0  0  0  0  0  0  0
   45.4598    8.1287   12.0276 H   0  0  0  0  0  0  0  0  0  0  0  0
   48.4410    7.7990   15.2081 H   0  0  0  0  0  0  0  0  0  0  0  0
   50.6290    8.6309   15.8209 H   0  0  0  0  0  0  0  0  0  0  0  0
   51.1424    7.9094   17.2553 H   0  0  0  0  0  0  0  0  0  0  0  0
   44.8326    2.6696   12.9652 H   0  0  0  0  0  0  0  0  0  0  0  0
   43.3334    7.1110   11.3174 H   0  0  0  0  0  0  0  0  0  0  0  0
   42.6494    2.9025   11.8135 H   0  0  0  0  0  0  0  0  0  0  0  0
   41.9086    5.1258   10.9971 H   0  0  0  0  0  0  0  0  0  0  0  0
  2  1  1  0
  3  2  2  0
  4  1  1  0
  5  8  1  0
  6  2  1  0
  7  9  1  0
  8  3  1  0
  9  4  2  0
 10  1  2  0
 11  5  2  0
 12  5  1  0
 13  4  1  0
 14  9  1  0
 15 13  2  0
 16 15  1  0
  6  7  2  0
 14 16  2  0
  6 17  1  0
  7 18  1  0
  8 19  1  0
 12 20  1  0
 12 21  1  0
 13 22  1  0
 14 23  1  0
 15 24  1  0
 16 25  1  0
M  END
> <Uni-Dock RESULT> 
ENERGY=   -3.914  LOWER_BOUND=    5.338  UPPER_BOUND=    6.796
INTER + INTRA:          -3.914
INTER:                  -3.914
INTRA:                   0.000
UNBOUND:                 0.000

$$$$

     RDKit          3D

 25 26  0  0  0  0  0  0  0  0999 V2000
   48.1455    7.0806   12.6537 C   0  0  0  0  0  0  0  0  0  0  0  0
   46.6254    7.2463   12.7277 C   0  0  0  0  0  0  0  0  0  0  0  0
   45.9172    6.1627   12.8217 N   0  0  0  0  0  0  0  0  0  0  0  0
   48.9441    8.2231   12.1676 C   0  0  0  0  0  0  0  0  0  0  0  0
   43.8027    5.0909   12.8238 C   0  0  0  0  0  0  0  0  0  0  0  0
   46.1195    8.6478   12.6930 C   0  0  0  0  0  0  0  0  0  0  0  0
   46.9227    9.6648   12.3601 C   0  0  0  0  0  0  0  0  0  0  0  0
   44.5524    6.2490   12.8222 N   0  0  0  0  0  0  0  0  0  0  0  0
   48.3316    9.4718   12.0183 C   0  0  0  0  0  0  0  0  0  0  0  0
   48.6865    6.0368   12.9895 O   0  0  0  0  0  0  0  0  0  0  0  0
   44.1994    3.9361   12.8758 O   0  0  0  0  0  0  0  0  0  0  0  0
   42.4615    5.3553   12.7692 N   0  0  0  0  0  0  0  0  0  0  0  0
   50.3026    8.0510   11.8750 C   0  0  0  0  0  0  0  0  0  0  0  0
   49.0992   10.5515   11.5641 C   0  0  0  0  0  0  0  0  0  0  0  0
   51.0554    9.1322   11.4199 C   0  0  0  0  0  0  0  0  0  0  0  0
   50.4538   10.3801   11.2636 C   0  0  0  0  0  0  0  0  0  0  0  0
   45.0847    8.8287   12.9493 H   0  0  0  0  0  0  0  0  0  0  0  0
   46.5316   10.6786   12.3398 H   0  0  0  0  0  0  0  0  0  0  0  0
   44.1217    7.0311   12.3496 H   0  0  0  0  0  0  0  0  0  0  0  0
   42.1473    6.0909   13.3855 H   0  0  0  0  0  0  0  0  0  0  0  0
   41.9256    4.5005   12.8727 H   0  0  0  0  0  0  0  0  0  0  0  0
   50.7728    7.0770   12.0001 H   0  0  0  0  0  0  0  0  0  0  0  0
   48.6564   11.5375   11.4402 H   0  0  0  0  0  0  0  0  0  0  0  0
   52.1102    9.0010   11.1897 H   0  0  0  0  0  0  0  0  0  0  0  0
   51.0427   11.2239   10.9105 H   0  0  0  0  0  0  0  0  0  0  0  0
  2  1  1  0
  3  2  2  0
  4  1  1  0
  5  8  1  0
  6  2  1  0
  7  9  1  0
  8  3  1  0
  9  4  2  0
 10  1  2  0
 11  5  2  0
 12  5  1  0
 13  4  1  0
 14  9  1  0
 15 13  2  0
 16 15  1  0
  6  7  2  0
 14 16  2  0
  6 17  1  0
  7 18  1  0
  8 19  1  0
 12 20  1  0
 12 21  1  0
 13 22  1  0
 14 23  1  0
 15 24  1  0
 16 25  1  0
M  END
> <Uni-Dock RESULT> 
ENERGY=   -3.844  LOWER_BOUND=    5.375  UPPER_BOUND=    6.765
INTER + INTRA:          -3.844
INTER:                  -3.844
INTRA:                   0.000
UNBOUND:                 0.000

$$$$

     RDKit          3D

 25 26  0  0  0  0  0  0  0  0999 V2000
   46.6578    5.9794   13.2557 C   0  0  0  0  0  0  0  0  0  0  0  0
   46.8366    7.4958   13.3664 C   0  0  0  0  0  0  0  0  0  0  0  0
   47.7757    7.9238   14.1534 N   0  0  0  0  0  0  0  0  0  0  0  0
   45.3906    5.4703   12.6949 C   0  0  0  0  0  0  0  0  0  0  0  0
   48.8681    9.7174   15.2531 C   0  0  0  0  0  0  0  0  0  0  0  0
   45.9102    8.3237   12.5431 C   0  0  0  0  0  0  0  0  0  0  0  0
   44.8367    7.7828   11.9554 C   0  0  0  0  0  0  0  0  0  0  0  0
   47.9342    9.2689   14.3422 N   0  0  0  0  0  0  0  0  0  0  0  0
   44.5090    6.3626   12.0759 C   0  0  0  0  0  0  0  0  0  0  0  0
   47.5366    5.2095   13.6161 O   0  0  0  0  0  0  0  0  0  0  0  0
   49.6509    9.0553   15.9183 O   0  0  0  0  0  0  0  0  0  0  0  0
   48.8596   11.0815   15.3578 N   0  0  0  0  0  0  0  0  0  0  0  0
   45.0906    4.1049   12.7750 C   0  0  0  0  0  0  0  0  0  0  0  0
   43.3130    5.8689   11.5398 C   0  0  0  0  0  0  0  0  0  0  0  0
   43.8954    3.6260   12.2413 C   0  0  0  0  0  0  0  0  0  0  0  0
   43.0076    4.5074   11.6259 C   0  0  0  0  0  0  0  0  0  0  0  0
   46.1271    9.3764   12.4247 H   0  0  0  0  0  0  0  0  0  0  0  0
   44.1739    8.4062   11.3610 H   0  0  0  0  0  0  0  0  0  0  0  0
   47.1264    9.8660   14.2356 H   0  0  0  0  0  0  0  0  0  0  0  0
   48.8217   11.5756   14.4780 H   0  0  0  0  0  0  0  0  0  0  0  0
   49.6172   11.3975   15.9535 H   0  0  0  0  0  0  0  0  0  0  0  0
   45.7855    3.4164   13.2530 H   0  0  0  0  0  0  0  0  0  0  0  0
   42.6062    6.5338   11.0479 H   0  0  0  0  0  0  0  0  0  0  0  0
   43.6585    2.5664   12.3041 H   0  0  0  0  0  0  0  0  0  0  0  0
   42.0760    4.1324   11.2076 H   0  0  0  0  0  0  0  0  0  0  0  0
  2  1  1  0
  3  2  2  0
  4  1  1  0
  5  8  1  0
  6  2  1  0
  7  9  1  0
  8  3  1  0
  9  4  2  0
 10  1  2  0
 11  5  2  0
 12  5  1  0
 13  4  1  0
 14  9  1  0
 15 13  2  0
 16 15  1  0
  6  7  2  0
 14 16  2  0
  6 17  1  0
  7 18  1  0
  8 19  1  0
 12 20  1  0
 12 21  1  0
 13 22  1  0
 14 23  1  0
 15 24  1  0
 16 25  1  0
M  END
> <Uni-Dock RESULT> 
ENERGY=   -3.727  LOWER_BOUND=    5.306  UPPER_BOUND=    6.802
INTER + INTRA:          -3.727
INTER:                  -3.727
INTRA:                   0.000
UNBOUND:                 0.000

$$$$

     RDKit          3D

 25 26  0  0  0  0  0  0  0  0999 V2000
   47.9304    8.4846   18.1488 C   0  0  0  0  0  0  0  0  0  0  0  0
   47.7676    7.0581   18.6803 C   0  0  0  0  0  0  0  0  0  0  0  0
   47.6663    6.1085   17.8014 N   0  0  0  0  0  0  0  0  0  0  0  0
   47.6649    9.6033   19.0747 C   0  0  0  0  0  0  0  0  0  0  0  0
   47.2462    3.8340   17.2819 C   0  0  0  0  0  0  0  0  0  0  0  0
   47.7525    6.9123   20.1635 C   0  0  0  0  0  0  0  0  0  0  0  0
   47.6294    7.9790   20.9619 C   0  0  0  0  0  0  0  0  0  0  0  0
   47.4506    4.8247   18.2200 N   0  0  0  0  0  0  0  0  0  0  0  0
   47.5086    9.3396   20.4395 C   0  0  0  0  0  0  0  0  0  0  0  0
   48.2734    8.6957   16.9944 O   0  0  0  0  0  0  0  0  0  0  0  0
   47.2784    3.9307   16.0641 O   0  0  0  0  0  0  0  0  0  0  0  0
   46.9931    2.6244   17.8690 N   0  0  0  0  0  0  0  0  0  0  0  0
   47.5859   10.9123   18.5834 C   0  0  0  0  0  0  0  0  0  0  0  0
   47.2649   10.4084   21.3111 C   0  0  0  0  0  0  0  0  0  0  0  0
   47.3390   11.9673   19.4601 C   0  0  0  0  0  0  0  0  0  0  0  0
   47.1775   11.7151   20.8217 C   0  0  0  0  0  0  0  0  0  0  0  0
   47.8492    5.9212   20.5849 H   0  0  0  0  0  0  0  0  0  0  0  0
   47.6191    7.8486   22.0408 H   0  0  0  0  0  0  0  0  0  0  0  0
   46.9721    4.6811   19.0980 H   0  0  0  0  0  0  0  0  0  0  0  0
   47.6016    2.3900   18.6400 H   0  0  0  0  0  0  0  0  0  0  0  0
   46.9458    1.8919   17.1691 H   0  0  0  0  0  0  0  0  0  0  0  0
   47.7151   11.1092   17.5204 H   0  0  0  0  0  0  0  0  0  0  0  0
   47.1424   10.2402   22.3790 H   0  0  0  0  0  0  0  0  0  0  0  0
   47.2748   12.9846   19.0811 H   0  0  0  0  0  0  0  0  0  0  0  0
   46.9871   12.5395   21.5055 H   0  0  0  0  0  0  0  0  0  0  0  0
  2  1  1  0
  3  2  2  0
  4  1  1  0
  5  8  1  0
  6  2  1  0
  7  9  1  0
  8  3  1  0
  9  4  2  0
 10  1  2  0
 11  5  2  0
 12  5  1  0
 13  4  1  0
 14  9  1  0
 15 13  2  0
 16 15  1  0
  6  7  2  0
 14 16  2  0
  6 17  1  0
  7 18  1  0
  8 19  1  0
 12 20  1  0
 12 21  1  0
 13 22  1  0
 14 23  1  0
 15 24  1  0
 16 25  1  0
M  END
> <Uni-Dock RESULT> 
ENERGY=   -3.724  LOWER_BOUND=    8.793  UPPER_BOUND=   12.023
INTER + INTRA:          -3.724
INTER:                  -3.724
INTRA:                   0.000
UNBOUND:                 0.000

$$$$

     RDKit          3D

 25 26  0  0  0  0  0  0  0  0999 V2000
   45.7588    8.5161   12.5148 C   0  0  0  0  0  0  0  0  0  0  0  0
   45.0634    9.7615   11.9589 C   0  0  0  0  0  0  0  0  0  0  0  0
   43.7889    9.6735   11.7300 N   0  0  0  0  0  0  0  0  0  0  0  0
   47.2307    8.4464   12.4252 C   0  0  0  0  0  0  0  0  0  0  0  0
   41.7987   10.6023   10.8377 C   0  0  0  0  0  0  0  0  0  0  0  0
   45.9320   10.9542   11.7480 C   0  0  0  0  0  0  0  0  0  0  0  0
   47.2654   10.8558   11.7971 C   0  0  0  0  0  0  0  0  0  0  0  0
   43.1314   10.7335   11.1694 N   0  0  0  0  0  0  0  0  0  0  0  0
   47.9491    9.5906   12.0627 C   0  0  0  0  0  0  0  0  0  0  0  0
   45.1190    7.6060   13.0220 O   0  0  0  0  0  0  0  0  0  0  0  0
   41.0663    9.6420   11.0245 O   0  0  0  0  0  0  0  0  0  0  0  0
   41.3115   11.7327   10.2404 N   0  0  0  0  0  0  0  0  0  0  0  0
   47.8916    7.2464   12.7153 C   0  0  0  0  0  0  0  0  0  0  0  0
   49.3457    9.5167   11.9881 C   0  0  0  0  0  0  0  0  0  0  0  0
   49.2816    7.1841   12.6338 C   0  0  0  0  0  0  0  0  0  0  0  0
   50.0071    8.3176   12.2693 C   0  0  0  0  0  0  0  0  0  0  0  0
   45.4599   11.9085   11.5585 H   0  0  0  0  0  0  0  0  0  0  0  0
   47.8790   11.7388   11.6385 H   0  0  0  0  0  0  0  0  0  0  0  0
   43.6547   11.3632   10.5778 H   0  0  0  0  0  0  0  0  0  0  0  0
   41.5768   12.5983   10.6875 H   0  0  0  0  0  0  0  0  0  0  0  0
   40.3106   11.6558   10.0959 H   0  0  0  0  0  0  0  0  0  0  0  0
   47.3250    6.3623   13.0029 H   0  0  0  0  0  0  0  0  0  0  0  0
   49.9362   10.3881   11.7133 H   0  0  0  0  0  0  0  0  0  0  0  0
   49.7975    6.2529   12.8562 H   0  0  0  0  0  0  0  0  0  0  0  0
   51.0921    8.2686   12.2082 H   0  0  0  0  0  0  0  0  0  0  0  0
  2  1  1  0
  3  2  2  0
  4  1  1  0
  5  8  1  0
  6  2  1  0
  7  9  1  0
  8  3  1  0
  9  4  2  0
 10  1  2  0
 11  5  2  0
 12  5  1  0
 13  4  1  0
 14  9  1  0
 15 13  2  0
 16 15  1  0
  6  7  2  0
 14 16  2  0
  6 17  1  0
  7 18  1  0
  8 19  1  0
 12 20  1  0
 12 21  1  0
 13 22  1  0
 14 23  1  0
 15 24  1  0
 16 25  1  0
M  END
> <Uni-Dock RESULT> 
ENERGY=   -3.637  LOWER_BOUND=    6.375  UPPER_BOUND=    7.503
INTER + INTRA:          -3.637
INTER:                  -3.637
INTRA:                   0.000
UNBOUND:                 0.000

$$$$

     RDKit          3D

 25 26  0  0  0  0  0  0  0  0999 V2000
   47.8134    6.8155   19.3017 C   0  0  0  0  0  0  0  0  0  0  0  0
   47.9764    5.5171   18.5072 C   0  0  0  0  0  0  0  0  0  0  0  0
   47.6572    5.5503   17.2497 N   0  0  0  0  0  0  0  0  0  0  0  0
   47.7924    6.7280   20.7753 C   0  0  0  0  0  0  0  0  0  0  0  0
   47.2861    4.4193   15.1996 C   0  0  0  0  0  0  0  0  0  0  0  0
   48.4980    4.3472   19.2692 C   0  0  0  0  0  0  0  0  0  0  0  0
   48.5694    4.3683   20.6052 C   0  0  0  0  0  0  0  0  0  0  0  0
   47.7185    4.4020   16.5096 N   0  0  0  0  0  0  0  0  0  0  0  0
   48.1512    5.5263   21.3946 C   0  0  0  0  0  0  0  0  0  0  0  0
   47.7073    7.8949   18.7374 O   0  0  0  0  0  0  0  0  0  0  0  0
   46.8783    5.3726   14.5528 O   0  0  0  0  0  0  0  0  0  0  0  0
   47.3653    3.1809   14.6234 N   0  0  0  0  0  0  0  0  0  0  0  0
   47.4287    7.8462   21.5358 C   0  0  0  0  0  0  0  0  0  0  0  0
   48.1358    5.4554   22.7932 C   0  0  0  0  0  0  0  0  0  0  0  0
   47.4133    7.7623   22.9269 C   0  0  0  0  0  0  0  0  0  0  0  0
   47.7652    6.5680   23.5542 C   0  0  0  0  0  0  0  0  0  0  0  0
   48.8252    3.4769   18.7171 H   0  0  0  0  0  0  0  0  0  0  0  0
   48.9516    3.5028   21.1401 H   0  0  0  0  0  0  0  0  0  0  0  0
   47.5950    3.5189   16.9843 H   0  0  0  0  0  0  0  0  0  0  0  0
   48.2247    2.6822   14.8029 H   0  0  0  0  0  0  0  0  0  0  0  0
   47.1400    3.2327   13.6359 H   0  0  0  0  0  0  0  0  0  0  0  0
   47.1569    8.7796   21.0456 H   0  0  0  0  0  0  0  0  0  0  0  0
   48.4129    4.5379   23.3081 H   0  0  0  0  0  0  0  0  0  0  0  0
   47.1291    8.6284   23.5201 H   0  0  0  0  0  0  0  0  0  0  0  0
   47.7551    6.5042   24.6402 H   0  0  0  0  0  0  0  0  0  0  0  0
  2  1  1  0
  3  2  2  0
  4  1  1  0
  5  8  1  0
  6  2  1  0
  7  9  1  0
  8  3  1  0
  9  4  2  0
 10  1  2  0
 11  5  2  0
 12  5  1  0
 13  4  1  0
 14  9  1  0
 15 13  2  0
 16 15  1  0
  6  7  2  0
 14 16  2  0
  6 17  1  0
  7 18  1  0
  8 19  1  0
 12 20  1  0
 12 21  1  0
 13 22  1  0
 14 23  1  0
 15 24  1  0
 16 25  1  0
M  END
> <Uni-Dock RESULT> 
ENERGY=   -3.628  LOWER_BOUND=    8.444  UPPER_BOUND=   11.929
INTER + INTRA:          -3.628
INTER:                  -3.628
INTRA:                   0.000
UNBOUND:                 0.000

$$$$

     RDKit          3D

 25 26  0  0  0  0  0  0  0  0999 V2000
   45.0296    9.4047   11.5650 C   0  0  0  0  0  0  0  0  0  0  0  0
   45.2373    7.9773   12.0779 C   0  0  0  0  0  0  0  0  0  0  0  0
   44.2131    7.1811   12.0392 N   0  0  0  0  0  0  0  0  0  0  0  0
   46.0258   10.4275   11.9402 C   0  0  0  0  0  0  0  0  0  0  0  0
   43.2085    5.1068   12.5942 C   0  0  0  0  0  0  0  0  0  0  0  0
   46.6087    7.6511   12.5618 C   0  0  0  0  0  0  0  0  0  0  0  0
   47.5149    8.6129   12.7714 C   0  0  0  0  0  0  0  0  0  0  0  0
   44.3244    5.9166   12.5480 N   0  0  0  0  0  0  0  0  0  0  0  0
   47.2256   10.0273   12.5377 C   0  0  0  0  0  0  0  0  0  0  0  0
   44.0713    9.6927   10.8624 O   0  0  0  0  0  0  0  0  0  0  0  0
   42.0839    5.3486   12.1814 O   0  0  0  0  0  0  0  0  0  0  0  0
   43.4816    3.9005   13.1790 N   0  0  0  0  0  0  0  0  0  0  0  0
   45.7683   11.7799   11.6837 C   0  0  0  0  0  0  0  0  0  0  0  0
   48.1678   11.0042   12.8829 C   0  0  0  0  0  0  0  0  0  0  0  0
   46.7121   12.7433   12.0353 C   0  0  0  0  0  0  0  0  0  0  0  0
   47.9094   12.3557   12.6352 C   0  0  0  0  0  0  0  0  0  0  0  0
   46.8606    6.6141   12.7362 H   0  0  0  0  0  0  0  0  0  0  0  0
   48.5085    8.3518   13.1262 H   0  0  0  0  0  0  0  0  0  0  0  0
   44.9958    5.7543   13.2851 H   0  0  0  0  0  0  0  0  0  0  0  0
   44.3380    3.4627   12.8715 H   0  0  0  0  0  0  0  0  0  0  0  0
   42.6794    3.2833   13.1135 H   0  0  0  0  0  0  0  0  0  0  0  0
   44.8345   12.0819   11.2124 H   0  0  0  0  0  0  0  0  0  0  0  0
   49.1131   10.7284   13.3454 H   0  0  0  0  0  0  0  0  0  0  0  0
   46.5139   13.7946   11.8395 H   0  0  0  0  0  0  0  0  0  0  0  0
   48.6464   13.1082   12.9073 H   0  0  0  0  0  0  0  0  0  0  0  0
  2  1  1  0
  3  2  2  0
  4  1  1  0
  5  8  1  0
  6  2  1  0
  7  9  1  0
  8  3  1  0
  9  4  2  0
 10  1  2  0
 11  5  2  0
 12  5  1  0
 13  4  1  0
 14  9  1  0
 15 13  2  0
 16 15  1  0
  6  7  2  0
 14 16  2  0
  6 17  1  0
  7 18  1  0
  8 19  1  0
 12 20  1  0
 12 21  1  0
 13 22  1  0
 14 23  1  0
 15 24  1  0
 16 25  1  0
M  END
> <Uni-Dock RESULT> 
ENERGY=   -3.590  LOWER_BOUND=    5.284  UPPER_BOUND=    7.460
INTER + INTRA:          -3.590
INTER:                  -3.590
INTRA:                   0.000
UNBOUND:                 0.000

$$$$

     RDKit          3D

 25 26  0  0  0  0  0  0  0  0999 V2000
   45.2954    7.6810   12.1362 C   0  0  0  0  0  0  0  0  0  0  0  0
   46.7927    7.8433   12.4106 C   0  0  0  0  0  0  0  0  0  0  0  0
   47.3526    8.9404   12.0013 N   0  0  0  0  0  0  0  0  0  0  0  0
   44.7164    6.3264   12.2314 C   0  0  0  0  0  0  0  0  0  0  0  0
   49.3078   10.2303   11.6366 C   0  0  0  0  0  0  0  0  0  0  0  0
   47.4493    6.7172   13.1333 C   0  0  0  0  0  0  0  0  0  0  0  0
   46.8272    5.5438   13.2959 C   0  0  0  0  0  0  0  0  0  0  0  0
   48.7006    9.1072   12.1594 N   0  0  0  0  0  0  0  0  0  0  0  0
   45.4790    5.2939   12.7872 C   0  0  0  0  0  0  0  0  0  0  0  0
   44.5955    8.6419   11.8502 O   0  0  0  0  0  0  0  0  0  0  0  0
   48.7829   11.1730   11.0629 O   0  0  0  0  0  0  0  0  0  0  0  0
   50.6613   10.2138   11.8357 N   0  0  0  0  0  0  0  0  0  0  0  0
   43.4119    6.0915   11.7797 C   0  0  0  0  0  0  0  0  0  0  0  0
   44.9183    4.0139   12.8805 C   0  0  0  0  0  0  0  0  0  0  0  0
   42.8661    4.8125   11.8742 C   0  0  0  0  0  0  0  0  0  0  0  0
   43.6191    3.7753   12.4227 C   0  0  0  0  0  0  0  0  0  0  0  0
   48.4430    6.8699   13.5313 H   0  0  0  0  0  0  0  0  0  0  0  0
   47.3261    4.7360   13.8249 H   0  0  0  0  0  0  0  0  0  0  0  0
   49.2854    8.2839   12.1862 H   0  0  0  0  0  0  0  0  0  0  0  0
   50.9516    9.9408   12.7635 H   0  0  0  0  0  0  0  0  0  0  0  0
   51.0759   11.0896   11.5360 H   0  0  0  0  0  0  0  0  0  0  0  0
   42.8231    6.9025   11.3543 H   0  0  0  0  0  0  0  0  0  0  0  0
   45.4814    3.1885   13.3109 H   0  0  0  0  0  0  0  0  0  0  0  0
   41.8541    4.6265   11.5221 H   0  0  0  0  0  0  0  0  0  0  0  0
   43.1914    2.7778   12.4982 H   0  0  0  0  0  0  0  0  0  0  0  0
  2  1  1  0
  3  2  2  0
  4  1  1  0
  5  8  1  0
  6  2  1  0
  7  9  1  0
  8  3  1  0
  9  4  2  0
 10  1  2  0
 11  5  2  0
 12  5  1  0
 13  4  1  0
 14  9  1  0
 15 13  2  0
 16 15  1  0
  6  7  2  0
 14 16  2  0
  6 17  1  0
  7 18  1  0
  8 19  1  0
 12 20  1  0
 12 21  1  0
 13 22  1  0
 14 23  1  0
 15 24  1  0
 16 25  1  0
M  END
> <Uni-Dock RESULT> 
ENERGY=   -3.578  LOWER_BOUND=    5.332  UPPER_BOUND=    6.723
INTER + INTRA:          -3.578
INTER:                  -3.578
INTRA:                   0.000
UNBOUND:                 0.000

$$$$
