
     RDKit          3D

 25 26  0  0  0  0  0  0  0  0999 V2000
   44.8396    1.9936    9.1010 C   0  0  0  0  0  0  0  0  0  0  0  0
   44.2602    3.1863    9.8642 C   0  0  0  0  0  0  0  0  0  0  0  0
   43.4896    2.9087   10.8745 N   0  0  0  0  0  0  0  0  0  0  0  0
   45.9133    2.2429    8.1187 C   0  0  0  0  0  0  0  0  0  0  0  0
   43.8680    4.7105   12.4120 C   0  0  0  0  0  0  0  0  0  0  0  0
   44.6106    4.5332    9.3330 C   0  0  0  0  0  0  0  0  0  0  0  0
   45.5289    4.6894    8.3730 C   0  0  0  0  0  0  0  0  0  0  0  0
   43.0047    3.9239   11.6660 N   0  0  0  0  0  0  0  0  0  0  0  0
   46.2405    3.5594    7.7793 C   0  0  0  0  0  0  0  0  0  0  0  0
   44.4148    0.8611    9.2910 O   0  0  0  0  0  0  0  0  0  0  0  0
   45.0864    4.7707   12.3196 O   0  0  0  0  0  0  0  0  0  0  0  0
   43.1959    5.4939   13.3059 N   0  0  0  0  0  0  0  0  0  0  0  0
   46.5814    1.1633    7.5267 C   0  0  0  0  0  0  0  0  0  0  0  0
   47.2547    3.7837    6.8394 C   0  0  0  0  0  0  0  0  0  0  0  0
   47.5903    1.3991    6.5943 C   0  0  0  0  0  0  0  0  0  0  0  0
   47.9270    2.7078    6.2522 C   0  0  0  0  0  0  0  0  0  0  0  0
   44.1101    5.3904    9.7633 H   0  0  0  0  0  0  0  0  0  0  0  0
   45.7738    5.6878    8.0216 H   0  0  0  0  0  0  0  0  0  0  0  0
   42.2275    3.6001   12.2344 H   0  0  0  0  0  0  0  0  0  0  0  0
   42.3070    5.8671   13.0046 H   0  0  0  0  0  0  0  0  0  0  0  0
   43.7984    6.1610   13.7729 H   0  0  0  0  0  0  0  0  0  0  0  0
   46.3177    0.1414    7.7930 H   0  0  0  0  0  0  0  0  0  0  0  0
   47.5341    4.7957    6.5539 H   0  0  0  0  0  0  0  0  0  0  0  0
   48.1127    0.5627    6.1359 H   0  0  0  0  0  0  0  0  0  0  0  0
   48.7147    2.8920    5.5250 H   0  0  0  0  0  0  0  0  0  0  0  0
  2  1  1  0
  3  2  2  0
  4  1  1  0
  5  8  1  0
  6  2  1  0
  7  9  1  0
  8  3  1  0
  9  4  2  0
 10  1  2  0
 11  5  2  0
 12  5  1  0
 13  4  1  0
 14  9  1  0
 15 13  2  0
 16 15  1  0
  6  7  2  0
 14 16  2  0
  6 17  1  0
  7 18  1  0
  8 19  1  0
 12 20  1  0
 12 21  1  0
 13 22  1  0
 14 23  1  0
 15 24  1  0
 16 25  1  0
M  END
> <Uni-Dock RESULT> 
ENERGY=   -6.543  LOWER_BOUND=    0.000  UPPER_BOUND=    0.000
INTER + INTRA:          -6.543
INTER:                  -6.543
INTRA:                   0.000
UNBOUND:                 0.000

$$$$

     RDKit          3D

 25 26  0  0  0  0  0  0  0  0999 V2000
   45.5550    4.9057    9.2853 C   0  0  0  0  0  0  0  0  0  0  0  0
   45.8008    3.9607    8.1075 C   0  0  0  0  0  0  0  0  0  0  0  0
   46.5845    4.3990    7.1667 N   0  0  0  0  0  0  0  0  0  0  0  0
   44.8909    4.3689   10.4897 C   0  0  0  0  0  0  0  0  0  0  0  0
   47.6701    2.4254    6.3420 C   0  0  0  0  0  0  0  0  0  0  0  0
   45.0758    2.6601    8.1525 C   0  0  0  0  0  0  0  0  0  0  0  0
   44.4110    2.2672    9.2447 C   0  0  0  0  0  0  0  0  0  0  0  0
   46.9273    3.5743    6.1205 N   0  0  0  0  0  0  0  0  0  0  0  0
   44.3443    3.0823   10.4559 C   0  0  0  0  0  0  0  0  0  0  0  0
   45.8898    6.0820    9.2260 O   0  0  0  0  0  0  0  0  0  0  0  0
   47.9179    1.8961    7.4167 O   0  0  0  0  0  0  0  0  0  0  0  0
   48.1116    1.8738    5.1736 N   0  0  0  0  0  0  0  0  0  0  0  0
   44.8010    5.1554   11.6455 C   0  0  0  0  0  0  0  0  0  0  0  0
   43.7087    2.5869   11.6016 C   0  0  0  0  0  0  0  0  0  0  0  0
   44.1679    4.6507   12.7802 C   0  0  0  0  0  0  0  0  0  0  0  0
   43.6235    3.3676   12.7582 C   0  0  0  0  0  0  0  0  0  0  0  0
   45.1190    2.0285    7.2752 H   0  0  0  0  0  0  0  0  0  0  0  0
   43.9085    1.3040    9.2500 H   0  0  0  0  0  0  0  0  0  0  0  0
   47.3115    4.1102    5.3477 H   0  0  0  0  0  0  0  0  0  0  0  0
   47.4862    1.9249    4.3821 H   0  0  0  0  0  0  0  0  0  0  0  0
   48.5511    0.9710    5.3079 H   0  0  0  0  0  0  0  0  0  0  0  0
   45.2251    6.1576   11.6623 H   0  0  0  0  0  0  0  0  0  0  0  0
   43.2738    1.5896   11.6088 H   0  0  0  0  0  0  0  0  0  0  0  0
   44.0998    5.2580   13.6797 H   0  0  0  0  0  0  0  0  0  0  0  0
   43.1299    2.9734   13.6437 H   0  0  0  0  0  0  0  0  0  0  0  0
  2  1  1  0
  3  2  2  0
  4  1  1  0
  5  8  1  0
  6  2  1  0
  7  9  1  0
  8  3  1  0
  9  4  2  0
 10  1  2  0
 11  5  2  0
 12  5  1  0
 13  4  1  0
 14  9  1  0
 15 13  2  0
 16 15  1  0
  6  7  2  0
 14 16  2  0
  6 17  1  0
  7 18  1  0
  8 19  1  0
 12 20  1  0
 12 21  1  0
 13 22  1  0
 14 23  1  0
 15 24  1  0
 16 25  1  0
M  END
> <Uni-Dock RESULT> 
ENERGY=   -5.424  LOWER_BOUND=    3.124  UPPER_BOUND=    5.843
INTER + INTRA:          -5.424
INTER:                  -5.424
INTRA:                   0.000
UNBOUND:                 0.000

$$$$

     RDKit          3D

 25 26  0  0  0  0  0  0  0  0999 V2000
   45.4067    7.3177   12.5599 C   0  0  0  0  0  0  0  0  0  0  0  0
   44.9571    5.8722   12.7815 C   0  0  0  0  0  0  0  0  0  0  0  0
   43.7323    5.5887   12.4483 N   0  0  0  0  0  0  0  0  0  0  0  0
   46.8447    7.6316   12.6762 C   0  0  0  0  0  0  0  0  0  0  0  0
   43.8341    3.3009   11.7346 C   0  0  0  0  0  0  0  0  0  0  0  0
   45.9638    4.9631   13.3974 C   0  0  0  0  0  0  0  0  0  0  0  0
   47.2370    5.3385   13.5625 C   0  0  0  0  0  0  0  0  0  0  0  0
   43.2821    4.2916   12.5313 N   0  0  0  0  0  0  0  0  0  0  0  0
   47.7228    6.6569   13.1602 C   0  0  0  0  0  0  0  0  0  0  0  0
   44.5923    8.1956   12.3045 O   0  0  0  0  0  0  0  0  0  0  0  0
   44.8568    3.3679   11.0666 O   0  0  0  0  0  0  0  0  0  0  0  0
   43.1055    2.1471   11.7824 N   0  0  0  0  0  0  0  0  0  0  0  0
   47.3124    8.9022   12.3167 C   0  0  0  0  0  0  0  0  0  0  0  0
   49.0835    6.9690   13.2748 C   0  0  0  0  0  0  0  0  0  0  0  0
   48.6691    9.2003   12.4331 C   0  0  0  0  0  0  0  0  0  0  0  0
   49.5533    8.2342   12.9105 C   0  0  0  0  0  0  0  0  0  0  0  0
   45.6367    3.9750   13.6925 H   0  0  0  0  0  0  0  0  0  0  0  0
   47.9495    4.6437   13.9982 H   0  0  0  0  0  0  0  0  0  0  0  0
   42.2673    4.2578   12.4996 H   0  0  0  0  0  0  0  0  0  0  0  0
   42.6929    1.9067   12.6724 H   0  0  0  0  0  0  0  0  0  0  0  0
   43.5587    1.3774   11.3045 H   0  0  0  0  0  0  0  0  0  0  0  0
   46.6217    9.6568   11.9450 H   0  0  0  0  0  0  0  0  0  0  0  0
   49.7932    6.2330   13.6470 H   0  0  0  0  0  0  0  0  0  0  0  0
   49.0351   10.1849   12.1515 H   0  0  0  0  0  0  0  0  0  0  0  0
   50.6121    8.4665   13.0009 H   0  0  0  0  0  0  0  0  0  0  0  0
  2  1  1  0
  3  2  2  0
  4  1  1  0
  5  8  1  0
  6  2  1  0
  7  9  1  0
  8  3  1  0
  9  4  2  0
 10  1  2  0
 11  5  2  0
 12  5  1  0
 13  4  1  0
 14  9  1  0
 15 13  2  0
 16 15  1  0
  6  7  2  0
 14 16  2  0
  6 17  1  0
  7 18  1  0
  8 19  1  0
 12 20  1  0
 12 21  1  0
 13 22  1  0
 14 23  1  0
 15 24  1  0
 16 25  1  0
M  END
> <Uni-Dock RESULT> 
ENERGY=   -4.128  LOWER_BOUND=    3.981  UPPER_BOUND=    6.135
INTER + INTRA:          -4.128
INTER:                  -4.128
INTRA:                   0.000
UNBOUND:                 0.000

$$$$

     RDKit          3D

 25 26  0  0  0  0  0  0  0  0999 V2000
   46.6834    5.0092   13.4307 C   0  0  0  0  0  0  0  0  0  0  0  0
   47.4464    6.3346   13.3892 C   0  0  0  0  0  0  0  0  0  0  0  0
   48.6943    6.2964   13.7536 N   0  0  0  0  0  0  0  0  0  0  0  0
   45.3546    4.9434   12.7904 C   0  0  0  0  0  0  0  0  0  0  0  0
   49.7458    7.9906   12.4203 C   0  0  0  0  0  0  0  0  0  0  0  0
   46.6572    7.5290   12.9775 C   0  0  0  0  0  0  0  0  0  0  0  0
   45.4174    7.4138   12.4887 C   0  0  0  0  0  0  0  0  0  0  0  0
   49.4717    7.4271   13.6564 N   0  0  0  0  0  0  0  0  0  0  0  0
   44.7546    6.1206   12.3326 C   0  0  0  0  0  0  0  0  0  0  0  0
   47.1576    4.0298   13.9920 O   0  0  0  0  0  0  0  0  0  0  0  0
   49.2096    7.7342   11.3510 O   0  0  0  0  0  0  0  0  0  0  0  0
   50.7153    8.9485   12.5034 N   0  0  0  0  0  0  0  0  0  0  0  0
   44.7029    3.7101   12.6614 C   0  0  0  0  0  0  0  0  0  0  0  0
   43.4899    6.0473   11.7350 C   0  0  0  0  0  0  0  0  0  0  0  0
   43.4454    3.6495   12.0630 C   0  0  0  0  0  0  0  0  0  0  0  0
   42.8405    4.8167   11.5994 C   0  0  0  0  0  0  0  0  0  0  0  0
   47.1271    8.4993   13.0683 H   0  0  0  0  0  0  0  0  0  0  0  0
   44.8768    8.3043   12.1805 H   0  0  0  0  0  0  0  0  0  0  0  0
   50.3202    7.3316   14.2068 H   0  0  0  0  0  0  0  0  0  0  0  0
   50.7131    9.5267   13.3316 H   0  0  0  0  0  0  0  0  0  0  0  0
   50.8421    9.4542   11.6349 H   0  0  0  0  0  0  0  0  0  0  0  0
   45.1748    2.7989   13.0243 H   0  0  0  0  0  0  0  0  0  0  0  0
   42.9959    6.9443   11.3675 H   0  0  0  0  0  0  0  0  0  0  0  0
   42.9390    2.6928   11.9586 H   0  0  0  0  0  0  0  0  0  0  0  0
   41.8596    4.7695   11.1319 H   0  0  0  0  0  0  0  0  0  0  0  0
  2  1  1  0
  3  2  2  0
  4  1  1  0
  5  8  1  0
  6  2  1  0
  7  9  1  0
  8  3  1  0
  9  4  2  0
 10  1  2  0
 11  5  2  0
 12  5  1  0
 13  4  1  0
 14  9  1  0
 15 13  2  0
 16 15  1  0
  6  7  2  0
 14 16  2  0
  6 17  1  0
  7 18  1  0
  8 19  1  0
 12 20  1  0
 12 21  1  0
 13 22  1  0
 14 23  1  0
 15 24  1  0
 16 25  1  0
M  END
> <Uni-Dock RESULT> 
ENERGY=   -4.112  LOWER_BOUND=    5.264  UPPER_BOUND=    6.373
INTER + INTRA:          -4.112
INTER:                  -4.112
INTRA:                   0.000
UNBOUND:                 0.000

$$$$

     RDKit          3D

 25 26  0  0  0  0  0  0  0  0999 V2000
   43.8185    6.9988   11.3405 C   0  0  0  0  0  0  0  0  0  0  0  0
   44.2144    5.5272   11.2049 C   0  0  0  0  0  0  0  0  0  0  0  0
   43.3359    4.7387   10.6592 N   0  0  0  0  0  0  0  0  0  0  0  0
   44.8619    7.9756   11.7107 C   0  0  0  0  0  0  0  0  0  0  0  0
   44.6554    3.0899    9.5216 C   0  0  0  0  0  0  0  0  0  0  0  0
   45.5479    5.1570   11.7562 C   0  0  0  0  0  0  0  0  0  0  0  0
   46.4190    6.0867   12.1637 C   0  0  0  0  0  0  0  0  0  0  0  0
   43.6525    3.4218   10.4186 N   0  0  0  0  0  0  0  0  0  0  0  0
   46.1230    7.5166   12.1035 C   0  0  0  0  0  0  0  0  0  0  0  0
   42.6616    7.3563   11.1587 O   0  0  0  0  0  0  0  0  0  0  0  0
   45.4862    3.8381    9.0250 O   0  0  0  0  0  0  0  0  0  0  0  0
   44.6605    1.7542    9.2380 N   0  0  0  0  0  0  0  0  0  0  0  0
   44.5760    9.3466   11.6799 C   0  0  0  0  0  0  0  0  0  0  0  0
   47.1023    8.4522   12.4611 C   0  0  0  0  0  0  0  0  0  0  0  0
   45.5594   10.2682   12.0360 C   0  0  0  0  0  0  0  0  0  0  0  0
   46.8211    9.8211   12.4249 C   0  0  0  0  0  0  0  0  0  0  0  0
   45.8010    4.1061   11.8001 H   0  0  0  0  0  0  0  0  0  0  0  0
   47.3904    5.7827   12.5434 H   0  0  0  0  0  0  0  0  0  0  0  0
   42.8149    2.8741   10.2440 H   0  0  0  0  0  0  0  0  0  0  0  0
   44.4359    1.1275    9.9975 H   0  0  0  0  0  0  0  0  0  0  0  0
   45.4592    1.4748    8.6812 H   0  0  0  0  0  0  0  0  0  0  0  0
   43.5905    9.6956   11.3772 H   0  0  0  0  0  0  0  0  0  0  0  0
   48.0938    8.1283   12.7706 H   0  0  0  0  0  0  0  0  0  0  0  0
   45.3410   11.3332   12.0097 H   0  0  0  0  0  0  0  0  0  0  0  0
   47.5887   10.5401   12.7023 H   0  0  0  0  0  0  0  0  0  0  0  0
  2  1  1  0
  3  2  2  0
  4  1  1  0
  5  8  1  0
  6  2  1  0
  7  9  1  0
  8  3  1  0
  9  4  2  0
 10  1  2  0
 11  5  2  0
 12  5  1  0
 13  4  1  0
 14  9  1  0
 15 13  2  0
 16 15  1  0
  6  7  2  0
 14 16  2  0
  6 17  1  0
  7 18  1  0
  8 19  1  0
 12 20  1  0
 12 21  1  0
 13 22  1  0
 14 23  1  0
 15 24  1  0
 16 25  1  0
M  END
> <Uni-Dock RESULT> 
ENERGY=   -4.027  LOWER_BOUND=    3.477  UPPER_BOUND=    6.116
INTER + INTRA:          -4.027
INTER:                  -4.027
INTRA:                   0.000
UNBOUND:                 0.000

$$$$

     RDKit          3D

 25 26  0  0  0  0  0  0  0  0999 V2000
   45.3581    7.7578   12.4835 C   0  0  0  0  0  0  0  0  0  0  0  0
   46.7337    8.0921   13.0636 C   0  0  0  0  0  0  0  0  0  0  0  0
   47.0062    9.3544   13.2184 N   0  0  0  0  0  0  0  0  0  0  0  0
   44.8997    6.3550   12.5265 C   0  0  0  0  0  0  0  0  0  0  0  0
   48.4358    9.4131   15.1436 C   0  0  0  0  0  0  0  0  0  0  0  0
   47.6234    6.9305   13.3436 C   0  0  0  0  0  0  0  0  0  0  0  0
   47.1736    5.6726   13.2759 C   0  0  0  0  0  0  0  0  0  0  0  0
   48.1846    9.7327   13.8187 N   0  0  0  0  0  0  0  0  0  0  0  0
   45.7928    5.3532   12.9191 C   0  0  0  0  0  0  0  0  0  0  0  0
   44.6590    8.6304   11.9843 O   0  0  0  0  0  0  0  0  0  0  0  0
   47.8163    8.6292   15.8496 O   0  0  0  0  0  0  0  0  0  0  0  0
   49.5310   10.0711   15.6252 N   0  0  0  0  0  0  0  0  0  0  0  0
   43.5848    6.0395   12.1606 C   0  0  0  0  0  0  0  0  0  0  0  0
   45.3495    4.0248   12.9474 C   0  0  0  0  0  0  0  0  0  0  0  0
   43.1546    4.7140   12.1948 C   0  0  0  0  0  0  0  0  0  0  0  0
   44.0358    3.7084   12.5889 C   0  0  0  0  0  0  0  0  0  0  0  0
   48.6477    7.1365   13.6242 H   0  0  0  0  0  0  0  0  0  0  0  0
   47.8446    4.8494   13.5046 H   0  0  0  0  0  0  0  0  0  0  0  0
   48.3846   10.7122   13.6385 H   0  0  0  0  0  0  0  0  0  0  0  0
   50.3002   10.2032   14.9840 H   0  0  0  0  0  0  0  0  0  0  0  0
   49.8004    9.7588   16.5504 H   0  0  0  0  0  0  0  0  0  0  0  0
   42.8972    6.8246   11.8518 H   0  0  0  0  0  0  0  0  0  0  0  0
   46.0188    3.2217   13.2490 H   0  0  0  0  0  0  0  0  0  0  0  0
   42.1334    4.4669   11.9144 H   0  0  0  0  0  0  0  0  0  0  0  0
   43.7001    2.6741   12.6161 H   0  0  0  0  0  0  0  0  0  0  0  0
  2  1  1  0
  3  2  2  0
  4  1  1  0
  5  8  1  0
  6  2  1  0
  7  9  1  0
  8  3  1  0
  9  4  2  0
 10  1  2  0
 11  5  2  0
 12  5  1  0
 13  4  1  0
 14  9  1  0
 15 13  2  0
 16 15  1  0
  6  7  2  0
 14 16  2  0
  6 17  1  0
  7 18  1  0
  8 19  1  0
 12 20  1  0
 12 21  1  0
 13 22  1  0
 14 23  1  0
 15 24  1  0
 16 25  1  0
M  END
> <Uni-Dock RESULT> 
ENERGY=   -3.751  LOWER_BOUND=    5.659  UPPER_BOUND=    6.931
INTER + INTRA:          -3.751
INTER:                  -3.751
INTRA:                   0.000
UNBOUND:                 0.000

$$$$

     RDKit          3D

 25 26  0  0  0  0  0  0  0  0999 V2000
   46.3356    6.8582   12.8779 C   0  0  0  0  0  0  0  0  0  0  0  0
   47.4382    6.2400   13.7398 C   0  0  0  0  0  0  0  0  0  0  0  0
   48.3256    7.0598   14.2212 N   0  0  0  0  0  0  0  0  0  0  0  0
   45.1704    6.0237   12.5232 C   0  0  0  0  0  0  0  0  0  0  0  0
   48.9504    6.0802   16.3197 C   0  0  0  0  0  0  0  0  0  0  0  0
   47.3938    4.7588   13.8919 C   0  0  0  0  0  0  0  0  0  0  0  0
   46.3474    4.0428   13.4656 C   0  0  0  0  0  0  0  0  0  0  0  0
   49.2945    6.5944   15.0796 N   0  0  0  0  0  0  0  0  0  0  0  0
   45.1890    4.6575   12.8205 C   0  0  0  0  0  0  0  0  0  0  0  0
   46.4230    8.0134   12.4814 O   0  0  0  0  0  0  0  0  0  0  0  0
   47.8328    5.7782   16.7152 O   0  0  0  0  0  0  0  0  0  0  0  0
   50.0456    5.8961   17.1141 N   0  0  0  0  0  0  0  0  0  0  0  0
   44.0678    6.6023   11.8813 C   0  0  0  0  0  0  0  0  0  0  0  0
   44.0818    3.8739   12.4712 C   0  0  0  0  0  0  0  0  0  0  0  0
   42.9709    5.8127   11.5405 C   0  0  0  0  0  0  0  0  0  0  0  0
   42.9777    4.4505   11.8363 C   0  0  0  0  0  0  0  0  0  0  0  0
   48.2312    4.2769   14.3787 H   0  0  0  0  0  0  0  0  0  0  0  0
   46.3393    2.9660   13.6091 H   0  0  0  0  0  0  0  0  0  0  0  0
   50.0553    7.2623   15.1632 H   0  0  0  0  0  0  0  0  0  0  0  0
   50.8916    5.5867   16.6572 H   0  0  0  0  0  0  0  0  0  0  0  0
   49.8278    5.4095   17.9754 H   0  0  0  0  0  0  0  0  0  0  0  0
   44.0630    7.6657   11.6494 H   0  0  0  0  0  0  0  0  0  0  0  0
   44.0641    2.8081   12.6890 H   0  0  0  0  0  0  0  0  0  0  0  0
   42.1124    6.2601   11.0451 H   0  0  0  0  0  0  0  0  0  0  0  0
   42.1216    3.8343   11.5709 H   0  0  0  0  0  0  0  0  0  0  0  0
  2  1  1  0
  3  2  2  0
  4  1  1  0
  5  8  1  0
  6  2  1  0
  7  9  1  0
  8  3  1  0
  9  4  2  0
 10  1  2  0
 11  5  2  0
 12  5  1  0
 13  4  1  0
 14  9  1  0
 15 13  2  0
 16 15  1  0
  6  7  2  0
 14 16  2  0
  6 17  1  0
  7 18  1  0
  8 19  1  0
 12 20  1  0
 12 21  1  0
 13 22  1  0
 14 23  1  0
 15 24  1  0
 16 25  1  0
M  END
> <Uni-Dock RESULT> 
ENERGY=   -3.649  LOWER_BOUND=    5.545  UPPER_BOUND=    6.712
INTER + INTRA:          -3.649
INTER:                  -3.649
INTRA:                   0.000
UNBOUND:                 0.000

$$$$

     RDKit          3D

 25 26  0  0  0  0  0  0  0  0999 V2000
   46.9456   10.7558   11.8941 C   0  0  0  0  0  0  0  0  0  0  0  0
   45.4714   10.3675   12.0236 C   0  0  0  0  0  0  0  0  0  0  0  0
   44.6016   11.2906   11.7360 N   0  0  0  0  0  0  0  0  0  0  0  0
   47.9617    9.6864   11.9566 C   0  0  0  0  0  0  0  0  0  0  0  0
   42.7369   10.0787   10.8372 C   0  0  0  0  0  0  0  0  0  0  0  0
   45.2012    8.9853   12.5091 C   0  0  0  0  0  0  0  0  0  0  0  0
   46.1813    8.0836   12.6340 C   0  0  0  0  0  0  0  0  0  0  0  0
   43.2588   10.9922   11.7394 N   0  0  0  0  0  0  0  0  0  0  0  0
   47.5734    8.3911   12.3126 C   0  0  0  0  0  0  0  0  0  0  0  0
   47.2758   11.9266   11.7545 O   0  0  0  0  0  0  0  0  0  0  0  0
   43.3564    9.3033   10.1220 O   0  0  0  0  0  0  0  0  0  0  0  0
   41.3716   10.0944   10.8322 N   0  0  0  0  0  0  0  0  0  0  0  0
   49.3020    9.9807   11.6749 C   0  0  0  0  0  0  0  0  0  0  0  0
   48.5475    7.3866   12.3774 C   0  0  0  0  0  0  0  0  0  0  0  0
   50.2620    8.9722   11.7407 C   0  0  0  0  0  0  0  0  0  0  0  0
   49.8846    7.6766   12.0904 C   0  0  0  0  0  0  0  0  0  0  0  0
   44.1774    8.7240   12.7416 H   0  0  0  0  0  0  0  0  0  0  0  0
   45.9463    7.0787   12.9733 H   0  0  0  0  0  0  0  0  0  0  0  0
   42.6995   11.8400   11.7605 H   0  0  0  0  0  0  0  0  0  0  0  0
   40.9155   10.2417   11.7213 H   0  0  0  0  0  0  0  0  0  0  0  0
   40.9732    9.3516   10.2703 H   0  0  0  0  0  0  0  0  0  0  0  0
   49.5968   10.9925   11.4029 H   0  0  0  0  0  0  0  0  0  0  0  0
   48.2786    6.3683   12.6504 H   0  0  0  0  0  0  0  0  0  0  0  0
   51.3026    9.1974   11.5192 H   0  0  0  0  0  0  0  0  0  0  0  0
   50.6335    6.8894   12.1412 H   0  0  0  0  0  0  0  0  0  0  0  0
  2  1  1  0
  3  2  2  0
  4  1  1  0
  5  8  1  0
  6  2  1  0
  7  9  1  0
  8  3  1  0
  9  4  2  0
 10  1  2  0
 11  5  2  0
 12  5  1  0
 13  4  1  0
 14  9  1  0
 15 13  2  0
 16 15  1  0
  6  7  2  0
 14 16  2  0
  6 17  1  0
  7 18  1  0
  8 19  1  0
 12 20  1  0
 12 21  1  0
 13 22  1  0
 14 23  1  0
 15 24  1  0
 16 25  1  0
M  END
> <Uni-Dock RESULT> 
ENERGY=   -3.620  LOWER_BOUND=    6.723  UPPER_BOUND=    7.822
INTER + INTRA:          -3.620
INTER:                  -3.620
INTRA:                   0.000
UNBOUND:                 0.000

$$$$

     RDKit          3D

 25 26  0  0  0  0  0  0  0  0999 V2000
   50.8494    2.4287   17.4713 C   0  0  0  0  0  0  0  0  0  0  0  0
   52.1465    2.9985   18.0489 C   0  0  0  0  0  0  0  0  0  0  0  0
   53.2483    2.4047   17.6952 N   0  0  0  0  0  0  0  0  0  0  0  0
   49.6071    3.2108   17.6293 C   0  0  0  0  0  0  0  0  0  0  0  0
   54.8793    4.1634   17.6701 C   0  0  0  0  0  0  0  0  0  0  0  0
   51.9942    4.1442   18.9887 C   0  0  0  0  0  0  0  0  0  0  0  0
   50.8173    4.7565   19.1603 C   0  0  0  0  0  0  0  0  0  0  0  0
   54.4610    2.9135   18.0985 N   0  0  0  0  0  0  0  0  0  0  0  0
   49.6090    4.3432   18.4497 C   0  0  0  0  0  0  0  0  0  0  0  0
   50.8392    1.3445   16.9025 O   0  0  0  0  0  0  0  0  0  0  0  0
   54.2092    5.0200   17.1100 O   0  0  0  0  0  0  0  0  0  0  0  0
   56.1912    4.3904   17.9729 N   0  0  0  0  0  0  0  0  0  0  0  0
   48.4390    2.8048   16.9712 C   0  0  0  0  0  0  0  0  0  0  0  0
   48.4223    5.0722   18.5992 C   0  0  0  0  0  0  0  0  0  0  0  0
   47.2647    3.5396   17.1262 C   0  0  0  0  0  0  0  0  0  0  0  0
   47.2571    4.6725   17.9383 C   0  0  0  0  0  0  0  0  0  0  0  0
   52.8748    4.4818   19.5186 H   0  0  0  0  0  0  0  0  0  0  0  0
   50.7455    5.6011   19.8398 H   0  0  0  0  0  0  0  0  0  0  0  0
   55.1992    2.2253   17.9820 H   0  0  0  0  0  0  0  0  0  0  0  0
   56.5254    4.0208   18.8514 H   0  0  0  0  0  0  0  0  0  0  0  0
   56.4798    5.3415   17.7770 H   0  0  0  0  0  0  0  0  0  0  0  0
   48.4448    1.9195   16.3380 H   0  0  0  0  0  0  0  0  0  0  0  0
   48.3901    5.9585   19.2295 H   0  0  0  0  0  0  0  0  0  0  0  0
   46.3575    3.2283   16.6137 H   0  0  0  0  0  0  0  0  0  0  0  0
   46.3409    5.2463   18.0589 H   0  0  0  0  0  0  0  0  0  0  0  0
  2  1  1  0
  3  2  2  0
  4  1  1  0
  5  8  1  0
  6  2  1  0
  7  9  1  0
  8  3  1  0
  9  4  2  0
 10  1  2  0
 11  5  2  0
 12  5  1  0
 13  4  1  0
 14  9  1  0
 15 13  2  0
 16 15  1  0
  6  7  2  0
 14 16  2  0
  6 17  1  0
  7 18  1  0
  8 19  1  0
 12 20  1  0
 12 21  1  0
 13 22  1  0
 14 23  1  0
 15 24  1  0
 16 25  1  0
M  END
> <Uni-Dock RESULT> 
ENERGY=   -3.578  LOWER_BOUND=    9.680  UPPER_BOUND=   11.495
INTER + INTRA:          -3.578
INTER:                  -3.578
INTRA:                   0.000
UNBOUND:                 0.000

$$$$
