
     RDKit          3D

 25 26  0  0  0  0  0  0  0  0999 V2000
   45.5737    4.3136    8.5490 C   0  0  0  0  0  0  0  0  0  0  0  0
   44.7457    3.8086    9.7336 C   0  0  0  0  0  0  0  0  0  0  0  0
   44.3783    4.6879   10.6148 N   0  0  0  0  0  0  0  0  0  0  0  0
   46.3221    3.3206    7.7533 C   0  0  0  0  0  0  0  0  0  0  0  0
   43.3923    5.2018   12.7084 C   0  0  0  0  0  0  0  0  0  0  0  0
   44.4406    2.3498    9.7413 C   0  0  0  0  0  0  0  0  0  0  0  0
   45.0662    1.5081    8.9104 C   0  0  0  0  0  0  0  0  0  0  0  0
   43.6960    4.2804   11.7275 N   0  0  0  0  0  0  0  0  0  0  0  0
   46.0726    1.9582    7.9495 C   0  0  0  0  0  0  0  0  0  0  0  0
   45.6140    5.5021    8.2646 O   0  0  0  0  0  0  0  0  0  0  0  0
   43.6137    6.4037   12.7081 O   0  0  0  0  0  0  0  0  0  0  0  0
   42.7586    4.6196   13.7721 N   0  0  0  0  0  0  0  0  0  0  0  0
   47.2597    3.7489    6.8056 C   0  0  0  0  0  0  0  0  0  0  0  0
   46.7818    1.0240    7.1844 C   0  0  0  0  0  0  0  0  0  0  0  0
   47.9622    2.8094    6.0530 C   0  0  0  0  0  0  0  0  0  0  0  0
   47.7242    1.4490    6.2433 C   0  0  0  0  0  0  0  0  0  0  0  0
   43.6945    1.9830   10.4328 H   0  0  0  0  0  0  0  0  0  0  0  0
   44.8286    0.4477    8.9349 H   0  0  0  0  0  0  0  0  0  0  0  0
   43.8445    3.3391   12.0627 H   0  0  0  0  0  0  0  0  0  0  0  0
   42.0246    3.9709   13.5270 H   0  0  0  0  0  0  0  0  0  0  0  0
   42.4547    5.3246   14.4348 H   0  0  0  0  0  0  0  0  0  0  0  0
   47.4432    4.8114    6.6550 H   0  0  0  0  0  0  0  0  0  0  0  0
   46.6101   -0.0433    7.3079 H   0  0  0  0  0  0  0  0  0  0  0  0
   48.6926    3.1390    5.3176 H   0  0  0  0  0  0  0  0  0  0  0  0
   48.2714    0.7165    5.6537 H   0  0  0  0  0  0  0  0  0  0  0  0
  2  1  1  0
  3  2  2  0
  4  1  1  0
  5  8  1  0
  6  2  1  0
  7  9  1  0
  8  3  1  0
  9  4  2  0
 10  1  2  0
 11  5  2  0
 12  5  1  0
 13  4  1  0
 14  9  1  0
 15 13  2  0
 16 15  1  0
  6  7  2  0
 14 16  2  0
  6 17  1  0
  7 18  1  0
  8 19  1  0
 12 20  1  0
 12 21  1  0
 13 22  1  0
 14 23  1  0
 15 24  1  0
 16 25  1  0
M  END
> <Uni-Dock RESULT> 
ENERGY=   -5.477  LOWER_BOUND=    0.000  UPPER_BOUND=    0.000
INTER + INTRA:          -5.477
INTER:                  -5.477
INTRA:                   0.000
UNBOUND:                 0.000

$$$$

     RDKit          3D

 25 26  0  0  0  0  0  0  0  0999 V2000
   46.6242    4.6257   13.4883 C   0  0  0  0  0  0  0  0  0  0  0  0
   47.3524    5.9091   13.8966 C   0  0  0  0  0  0  0  0  0  0  0  0
   48.2999    5.7960   14.7765 N   0  0  0  0  0  0  0  0  0  0  0  0
   45.3217    4.7553   12.8058 C   0  0  0  0  0  0  0  0  0  0  0  0
   49.8746    6.8057   16.2326 C   0  0  0  0  0  0  0  0  0  0  0  0
   46.8962    7.1594   13.2259 C   0  0  0  0  0  0  0  0  0  0  0  0
   45.7623    7.1891   12.5161 C   0  0  0  0  0  0  0  0  0  0  0  0
   48.9364    6.9190   15.2274 N   0  0  0  0  0  0  0  0  0  0  0  0
   44.9106    6.0120   12.3491 C   0  0  0  0  0  0  0  0  0  0  0  0
   47.1049    3.5245   13.7152 O   0  0  0  0  0  0  0  0  0  0  0  0
   50.2772    5.7881   16.7767 O   0  0  0  0  0  0  0  0  0  0  0  0
   50.3732    8.0254   16.6004 N   0  0  0  0  0  0  0  0  0  0  0  0
   44.5201    3.6238   12.6109 C   0  0  0  0  0  0  0  0  0  0  0  0
   43.6769    6.1237   11.6959 C   0  0  0  0  0  0  0  0  0  0  0  0
   43.2924    3.7483   11.9629 C   0  0  0  0  0  0  0  0  0  0  0  0
   42.8712    4.9968   11.5073 C   0  0  0  0  0  0  0  0  0  0  0  0
   47.5065    8.0470   13.3203 H   0  0  0  0  0  0  0  0  0  0  0  0
   45.4484    8.1128   12.0369 H   0  0  0  0  0  0  0  0  0  0  0  0
   48.4303    7.7932   15.2177 H   0  0  0  0  0  0  0  0  0  0  0  0
   50.6136    8.6359   15.8328 H   0  0  0  0  0  0  0  0  0  0  0  0
   51.1304    7.9145   17.2661 H   0  0  0  0  0  0  0  0  0  0  0  0
   44.8507    2.6485   12.9640 H   0  0  0  0  0  0  0  0  0  0  0  0
   43.3278    7.0847   11.3242 H   0  0  0  0  0  0  0  0  0  0  0  0
   42.6667    2.8717   11.8119 H   0  0  0  0  0  0  0  0  0  0  0  0
   41.9138    5.0925   10.9996 H   0  0  0  0  0  0  0  0  0  0  0  0
  2  1  1  0
  3  2  2  0
  4  1  1  0
  5  8  1  0
  6  2  1  0
  7  9  1  0
  8  3  1  0
  9  4  2  0
 10  1  2  0
 11  5  2  0
 12  5  1  0
 13  4  1  0
 14  9  1  0
 15 13  2  0
 16 15  1  0
  6  7  2  0
 14 16  2  0
  6 17  1  0
  7 18  1  0
  8 19  1  0
 12 20  1  0
 12 21  1  0
 13 22  1  0
 14 23  1  0
 15 24  1  0
 16 25  1  0
M  END
> <Uni-Dock RESULT> 
ENERGY=   -3.916  LOWER_BOUND=    5.334  UPPER_BOUND=    6.791
INTER + INTRA:          -3.916
INTER:                  -3.916
INTRA:                   0.000
UNBOUND:                 0.000

$$$$

     RDKit          3D

 25 26  0  0  0  0  0  0  0  0999 V2000
   48.1240    7.0680   12.6615 C   0  0  0  0  0  0  0  0  0  0  0  0
   46.6041    7.2390   12.7271 C   0  0  0  0  0  0  0  0  0  0  0  0
   45.8916    6.1580   12.8190 N   0  0  0  0  0  0  0  0  0  0  0  0
   48.9292    8.2069   12.1780 C   0  0  0  0  0  0  0  0  0  0  0  0
   43.7734    5.0936   12.8114 C   0  0  0  0  0  0  0  0  0  0  0  0
   46.1034    8.6422   12.6876 C   0  0  0  0  0  0  0  0  0  0  0  0
   46.9119    9.6559   12.3574 C   0  0  0  0  0  0  0  0  0  0  0  0
   44.5273    6.2491   12.8119 N   0  0  0  0  0  0  0  0  0  0  0  0
   48.3219    9.4575   12.0235 C   0  0  0  0  0  0  0  0  0  0  0  0
   48.6596    6.0227   13.0017 O   0  0  0  0  0  0  0  0  0  0  0  0
   44.1659    3.9375   12.8671 O   0  0  0  0  0  0  0  0  0  0  0  0
   42.4334    5.3627   12.7491 N   0  0  0  0  0  0  0  0  0  0  0  0
   50.2887    8.0295   11.8928 C   0  0  0  0  0  0  0  0  0  0  0  0
   49.0957   10.5337   11.5717 C   0  0  0  0  0  0  0  0  0  0  0  0
   51.0475    9.1074   11.4401 C   0  0  0  0  0  0  0  0  0  0  0  0
   50.4513   10.3572   11.2787 C   0  0  0  0  0  0  0  0  0  0  0  0
   45.0678    8.8271   12.9381 H   0  0  0  0  0  0  0  0  0  0  0  0
   46.5243   10.6710   12.3336 H   0  0  0  0  0  0  0  0  0  0  0  0
   44.1018    7.0320   12.3360 H   0  0  0  0  0  0  0  0  0  0  0  0
   42.1186    6.1003   13.3627 H   0  0  0  0  0  0  0  0  0  0  0  0
   41.8940    4.5099   12.8510 H   0  0  0  0  0  0  0  0  0  0  0  0
   50.7548    7.0541   12.0219 H   0  0  0  0  0  0  0  0  0  0  0  0
   48.6570   11.5211   11.4440 H   0  0  0  0  0  0  0  0  0  0  0  0
   52.1031    8.9722   11.2158 H   0  0  0  0  0  0  0  0  0  0  0  0
   51.0450   11.1984   10.9275 H   0  0  0  0  0  0  0  0  0  0  0  0
  2  1  1  0
  3  2  2  0
  4  1  1  0
  5  8  1  0
  6  2  1  0
  7  9  1  0
  8  3  1  0
  9  4  2  0
 10  1  2  0
 11  5  2  0
 12  5  1  0
 13  4  1  0
 14  9  1  0
 15 13  2  0
 16 15  1  0
  6  7  2  0
 14 16  2  0
  6 17  1  0
  7 18  1  0
  8 19  1  0
 12 20  1  0
 12 21  1  0
 13 22  1  0
 14 23  1  0
 15 24  1  0
 16 25  1  0
M  END
> <Uni-Dock RESULT> 
ENERGY=   -3.840  LOWER_BOUND=    5.361  UPPER_BOUND=    6.755
INTER + INTRA:          -3.840
INTER:                  -3.840
INTRA:                   0.000
UNBOUND:                 0.000

$$$$

     RDKit          3D

 25 26  0  0  0  0  0  0  0  0999 V2000
   45.7546    6.8149   12.9350 C   0  0  0  0  0  0  0  0  0  0  0  0
   47.1493    6.5048   13.4851 C   0  0  0  0  0  0  0  0  0  0  0  0
   47.9957    7.4874   13.5366 N   0  0  0  0  0  0  0  0  0  0  0  0
   44.9113    5.6818   12.5057 C   0  0  0  0  0  0  0  0  0  0  0  0
   50.1988    8.2758   13.9162 C   0  0  0  0  0  0  0  0  0  0  0  0
   47.3827    5.0968   13.9147 C   0  0  0  0  0  0  0  0  0  0  0  0
   46.5190    4.1251   13.5983 C   0  0  0  0  0  0  0  0  0  0  0  0
   49.2758    7.2511   13.9550 N   0  0  0  0  0  0  0  0  0  0  0  0
   45.3032    4.3776   12.8257 C   0  0  0  0  0  0  0  0  0  0  0  0
   45.3459    7.9645   12.8551 O   0  0  0  0  0  0  0  0  0  0  0  0
   50.0196    9.4398   13.5897 O   0  0  0  0  0  0  0  0  0  0  0  0
   51.4383    7.8569   14.3165 N   0  0  0  0  0  0  0  0  0  0  0  0
   43.7271    5.9218   11.7981 C   0  0  0  0  0  0  0  0  0  0  0  0
   44.4927    3.3096   12.4210 C   0  0  0  0  0  0  0  0  0  0  0  0
   42.9308    4.8504   11.3973 C   0  0  0  0  0  0  0  0  0  0  0  0
   43.3140    3.5463   11.7074 C   0  0  0  0  0  0  0  0  0  0  0  0
   48.2673    4.8753   14.4959 H   0  0  0  0  0  0  0  0  0  0  0  0
   46.7106    3.1051   13.9211 H   0  0  0  0  0  0  0  0  0  0  0  0
   49.6624    6.3281   13.8169 H   0  0  0  0  0  0  0  0  0  0  0  0
   51.4455    7.2814   15.1462 H   0  0  0  0  0  0  0  0  0  0  0  0
   52.0769    8.6425   14.3777 H   0  0  0  0  0  0  0  0  0  0  0  0
   43.4265    6.9404   11.5588 H   0  0  0  0  0  0  0  0  0  0  0  0
   44.7648    2.2828   12.6563 H   0  0  0  0  0  0  0  0  0  0  0  0
   42.0115    5.0335   10.8457 H   0  0  0  0  0  0  0  0  0  0  0  0
   42.6906    2.7109   11.3961 H   0  0  0  0  0  0  0  0  0  0  0  0
  2  1  1  0
  3  2  2  0
  4  1  1  0
  5  8  1  0
  6  2  1  0
  7  9  1  0
  8  3  1  0
  9  4  2  0
 10  1  2  0
 11  5  2  0
 12  5  1  0
 13  4  1  0
 14  9  1  0
 15 13  2  0
 16 15  1  0
  6  7  2  0
 14 16  2  0
  6 17  1  0
  7 18  1  0
  8 19  1  0
 12 20  1  0
 12 21  1  0
 13 22  1  0
 14 23  1  0
 15 24  1  0
 16 25  1  0
M  END
> <Uni-Dock RESULT> 
ENERGY=   -3.821  LOWER_BOUND=    5.034  UPPER_BOUND=    6.448
INTER + INTRA:          -3.821
INTER:                  -3.821
INTRA:                   0.000
UNBOUND:                 0.000

$$$$

     RDKit          3D

 25 26  0  0  0  0  0  0  0  0999 V2000
   44.0449    6.8610   11.6274 C   0  0  0  0  0  0  0  0  0  0  0  0
   44.4894    8.3203   11.4973 C   0  0  0  0  0  0  0  0  0  0  0  0
   43.8603    9.0543   10.6311 N   0  0  0  0  0  0  0  0  0  0  0  0
   44.9596    5.9151   12.2966 C   0  0  0  0  0  0  0  0  0  0  0  0
   43.6552   11.0914    9.4364 C   0  0  0  0  0  0  0  0  0  0  0  0
   45.6004    8.7462   12.3949 C   0  0  0  0  0  0  0  0  0  0  0  0
   46.3232    7.8483   13.0743 C   0  0  0  0  0  0  0  0  0  0  0  0
   44.2618   10.3451   10.4257 N   0  0  0  0  0  0  0  0  0  0  0  0
   46.0711    6.4104   12.9866 C   0  0  0  0  0  0  0  0  0  0  0  0
   42.9643    6.4865   11.1948 O   0  0  0  0  0  0  0  0  0  0  0  0
   42.7289   10.7669    8.7082 O   0  0  0  0  0  0  0  0  0  0  0  0
   44.2105   12.3372    9.3289 N   0  0  0  0  0  0  0  0  0  0  0  0
   44.7008    4.5399   12.2464 C   0  0  0  0  0  0  0  0  0  0  0  0
   46.9288    5.5058   13.6249 C   0  0  0  0  0  0  0  0  0  0  0  0
   45.5639    3.6492   12.8822 C   0  0  0  0  0  0  0  0  0  0  0  0
   46.6769    4.1318   13.5693 C   0  0  0  0  0  0  0  0  0  0  0  0
   45.8088    9.8028   12.4912 H   0  0  0  0  0  0  0  0  0  0  0  0
   47.1299    8.1819   13.7218 H   0  0  0  0  0  0  0  0  0  0  0  0
   45.2288   10.5796   10.5996 H   0  0  0  0  0  0  0  0  0  0  0  0
   44.3719   12.8084   10.2074 H   0  0  0  0  0  0  0  0  0  0  0  0
   43.6885   12.9039    8.6694 H   0  0  0  0  0  0  0  0  0  0  0  0
   43.8299    4.1635   11.7124 H   0  0  0  0  0  0  0  0  0  0  0  0
   47.8002    5.8563   14.1739 H   0  0  0  0  0  0  0  0  0  0  0  0
   45.3667    2.5804   12.8432 H   0  0  0  0  0  0  0  0  0  0  0  0
   47.3487    3.4359   14.0673 H   0  0  0  0  0  0  0  0  0  0  0  0
  2  1  1  0
  3  2  2  0
  4  1  1  0
  5  8  1  0
  6  2  1  0
  7  9  1  0
  8  3  1  0
  9  4  2  0
 10  1  2  0
 11  5  2  0
 12  5  1  0
 13  4  1  0
 14  9  1  0
 15 13  2  0
 16 15  1  0
  6  7  2  0
 14 16  2  0
  6 17  1  0
  7 18  1  0
  8 19  1  0
 12 20  1  0
 12 21  1  0
 13 22  1  0
 14 23  1  0
 15 24  1  0
 16 25  1  0
M  END
> <Uni-Dock RESULT> 
ENERGY=   -3.821  LOWER_BOUND=    4.894  UPPER_BOUND=    6.498
INTER + INTRA:          -3.821
INTER:                  -3.821
INTRA:                   0.000
UNBOUND:                 0.000

$$$$

     RDKit          3D

 25 26  0  0  0  0  0  0  0  0999 V2000
   46.6608    5.9662   13.2559 C   0  0  0  0  0  0  0  0  0  0  0  0
   46.8367    7.4829   13.3685 C   0  0  0  0  0  0  0  0  0  0  0  0
   47.7758    7.9117   14.1552 N   0  0  0  0  0  0  0  0  0  0  0  0
   45.3942    5.4553   12.6957 C   0  0  0  0  0  0  0  0  0  0  0  0
   48.8657    9.7059   15.2562 C   0  0  0  0  0  0  0  0  0  0  0  0
   45.9079    8.3099   12.5472 C   0  0  0  0  0  0  0  0  0  0  0  0
   44.8349    7.7677   11.9599 C   0  0  0  0  0  0  0  0  0  0  0  0
   47.9317    9.2567   14.3456 N   0  0  0  0  0  0  0  0  0  0  0  0
   44.5101    6.3467   12.0787 C   0  0  0  0  0  0  0  0  0  0  0  0
   47.5415    5.1975   13.6146 O   0  0  0  0  0  0  0  0  0  0  0  0
   49.6504    9.0444   15.9198 O   0  0  0  0  0  0  0  0  0  0  0  0
   48.8546   11.0699   15.3628 N   0  0  0  0  0  0  0  0  0  0  0  0
   45.0969    4.0892   12.7744 C   0  0  0  0  0  0  0  0  0  0  0  0
   43.3146    5.8514   11.5433 C   0  0  0  0  0  0  0  0  0  0  0  0
   43.9020    3.6088   12.2413 C   0  0  0  0  0  0  0  0  0  0  0  0
   43.0119    4.4891   11.6278 C   0  0  0  0  0  0  0  0  0  0  0  0
   46.1225    9.3633   12.4300 H   0  0  0  0  0  0  0  0  0  0  0  0
   44.1704    8.3907   11.3669 H   0  0  0  0  0  0  0  0  0  0  0  0
   47.1227    9.8525   14.2406 H   0  0  0  0  0  0  0  0  0  0  0  0
   48.8149   11.5650   14.4836 H   0  0  0  0  0  0  0  0  0  0  0  0
   49.6121   11.3866   15.9581 H   0  0  0  0  0  0  0  0  0  0  0  0
   45.7936    3.4015   13.2508 H   0  0  0  0  0  0  0  0  0  0  0  0
   42.6060    6.5155   11.0529 H   0  0  0  0  0  0  0  0  0  0  0  0
   43.6674    2.5486   12.3028 H   0  0  0  0  0  0  0  0  0  0  0  0
   42.0806    4.1128   11.2099 H   0  0  0  0  0  0  0  0  0  0  0  0
  2  1  1  0
  3  2  2  0
  4  1  1  0
  5  8  1  0
  6  2  1  0
  7  9  1  0
  8  3  1  0
  9  4  2  0
 10  1  2  0
 11  5  2  0
 12  5  1  0
 13  4  1  0
 14  9  1  0
 15 13  2  0
 16 15  1  0
  6  7  2  0
 14 16  2  0
  6 17  1  0
  7 18  1  0
  8 19  1  0
 12 20  1  0
 12 21  1  0
 13 22  1  0
 14 23  1  0
 15 24  1  0
 16 25  1  0
M  END
> <Uni-Dock RESULT> 
ENERGY=   -3.726  LOWER_BOUND=    5.301  UPPER_BOUND=    6.795
INTER + INTRA:          -3.726
INTER:                  -3.726
INTRA:                   0.000
UNBOUND:                 0.000

$$$$

     RDKit          3D

 25 26  0  0  0  0  0  0  0  0999 V2000
   47.9764    8.4891   18.0957 C   0  0  0  0  0  0  0  0  0  0  0  0
   47.7790    7.0694   18.6336 C   0  0  0  0  0  0  0  0  0  0  0  0
   47.6889    6.1140   17.7597 N   0  0  0  0  0  0  0  0  0  0  0  0
   47.7010    9.6191   19.0048 C   0  0  0  0  0  0  0  0  0  0  0  0
   47.2518    3.8413   17.2467 C   0  0  0  0  0  0  0  0  0  0  0  0
   47.7207    6.9362   20.1169 C   0  0  0  0  0  0  0  0  0  0  0  0
   47.5903    8.0110   20.9030 C   0  0  0  0  0  0  0  0  0  0  0  0
   47.4438    4.8369   18.1823 N   0  0  0  0  0  0  0  0  0  0  0  0
   47.5031    9.3688   20.3668 C   0  0  0  0  0  0  0  0  0  0  0  0
   48.3542    8.6859   16.9495 O   0  0  0  0  0  0  0  0  0  0  0  0
   47.3190    3.9276   16.0294 O   0  0  0  0  0  0  0  0  0  0  0  0
   46.9655    2.6402   17.8361 N   0  0  0  0  0  0  0  0  0  0  0  0
   47.6538   10.9248   18.5011 C   0  0  0  0  0  0  0  0  0  0  0  0
   47.2502   10.4480   21.2227 C   0  0  0  0  0  0  0  0  0  0  0  0
   47.3973   11.9903   19.3623 C   0  0  0  0  0  0  0  0  0  0  0  0
   47.1946   11.7517   20.7208 C   0  0  0  0  0  0  0  0  0  0  0  0
   47.7918    5.9473   20.5486 H   0  0  0  0  0  0  0  0  0  0  0  0
   47.5483    7.8896   21.9823 H   0  0  0  0  0  0  0  0  0  0  0  0
   46.9392    4.7071   19.0477 H   0  0  0  0  0  0  0  0  0  0  0  0
   47.5492    2.4038   18.6255 H   0  0  0  0  0  0  0  0  0  0  0  0
   46.9274    1.9027   17.1409 H   0  0  0  0  0  0  0  0  0  0  0  0
   47.8152   11.1111   17.4407 H   0  0  0  0  0  0  0  0  0  0  0  0
   47.0956   10.2904   22.2881 H   0  0  0  0  0  0  0  0  0  0  0  0
   47.3579   13.0053   18.9737 H   0  0  0  0  0  0  0  0  0  0  0  0
   46.9967   12.5843   21.3925 H   0  0  0  0  0  0  0  0  0  0  0  0
  2  1  1  0
  3  2  2  0
  4  1  1  0
  5  8  1  0
  6  2  1  0
  7  9  1  0
  8  3  1  0
  9  4  2  0
 10  1  2  0
 11  5  2  0
 12  5  1  0
 13  4  1  0
 14  9  1  0
 15 13  2  0
 16 15  1  0
  6  7  2  0
 14 16  2  0
  6 17  1  0
  7 18  1  0
  8 19  1  0
 12 20  1  0
 12 21  1  0
 13 22  1  0
 14 23  1  0
 15 24  1  0
 16 25  1  0
M  END
> <Uni-Dock RESULT> 
ENERGY=   -3.712  LOWER_BOUND=    8.762  UPPER_BOUND=   11.980
INTER + INTRA:          -3.712
INTER:                  -3.712
INTRA:                   0.000
UNBOUND:                 0.000

$$$$

     RDKit          3D

 25 26  0  0  0  0  0  0  0  0999 V2000
   46.4139    6.5696   12.3777 C   0  0  0  0  0  0  0  0  0  0  0  0
   47.4487    6.2747   13.4668 C   0  0  0  0  0  0  0  0  0  0  0  0
   48.4136    7.1305   13.6119 N   0  0  0  0  0  0  0  0  0  0  0  0
   45.5466    5.4629   11.9279 C   0  0  0  0  0  0  0  0  0  0  0  0
   50.4765    7.7430   14.6062 C   0  0  0  0  0  0  0  0  0  0  0  0
   47.2281    5.0298   14.2561 C   0  0  0  0  0  0  0  0  0  0  0  0
   46.3379    4.1111   13.8639 C   0  0  0  0  0  0  0  0  0  0  0  0
   49.4023    6.8813   14.5230 N   0  0  0  0  0  0  0  0  0  0  0  0
   45.5299    4.2680   12.6551 C   0  0  0  0  0  0  0  0  0  0  0  0
   46.3030    7.6875   11.8946 O   0  0  0  0  0  0  0  0  0  0  0  0
   50.6620    8.7788   13.9847 O   0  0  0  0  0  0  0  0  0  0  0  0
   51.3960    7.3194   15.5265 N   0  0  0  0  0  0  0  0  0  0  0  0
   44.7434    5.6228   10.7922 C   0  0  0  0  0  0  0  0  0  0  0  0
   44.6981    3.2266   12.2251 C   0  0  0  0  0  0  0  0  0  0  0  0
   43.9226    4.5777   10.3719 C   0  0  0  0  0  0  0  0  0  0  0  0
   43.9012    3.3810   11.0868 C   0  0  0  0  0  0  0  0  0  0  0  0
   47.8018    4.8851   15.1612 H   0  0  0  0  0  0  0  0  0  0  0  0
   46.1950    3.2100   14.4546 H   0  0  0  0  0  0  0  0  0  0  0  0
   49.6125    5.9199   14.7510 H   0  0  0  0  0  0  0  0  0  0  0  0
   51.0066    7.0061   16.4040 H   0  0  0  0  0  0  0  0  0  0  0  0
   52.1257    8.0135   15.6462 H   0  0  0  0  0  0  0  0  0  0  0  0
   44.7580    6.5585   10.2358 H   0  0  0  0  0  0  0  0  0  0  0  0
   44.6570    2.2852   12.7689 H   0  0  0  0  0  0  0  0  0  0  0  0
   43.2992    4.6981    9.4889 H   0  0  0  0  0  0  0  0  0  0  0  0
   43.2585    2.5667   10.7593 H   0  0  0  0  0  0  0  0  0  0  0  0
  2  1  1  0
  3  2  2  0
  4  1  1  0
  5  8  1  0
  6  2  1  0
  7  9  1  0
  8  3  1  0
  9  4  2  0
 10  1  2  0
 11  5  2  0
 12  5  1  0
 13  4  1  0
 14  9  1  0
 15 13  2  0
 16 15  1  0
  6  7  2  0
 14 16  2  0
  6 17  1  0
  7 18  1  0
  8 19  1  0
 12 20  1  0
 12 21  1  0
 13 22  1  0
 14 23  1  0
 15 24  1  0
 16 25  1  0
M  END
> <Uni-Dock RESULT> 
ENERGY=   -3.671  LOWER_BOUND=    4.787  UPPER_BOUND=    6.152
INTER + INTRA:          -3.671
INTER:                  -3.671
INTRA:                   0.000
UNBOUND:                 0.000

$$$$

     RDKit          3D

 25 26  0  0  0  0  0  0  0  0999 V2000
   45.2958    7.6743   12.1372 C   0  0  0  0  0  0  0  0  0  0  0  0
   46.7927    7.8364   12.4144 C   0  0  0  0  0  0  0  0  0  0  0  0
   47.3532    8.9341   12.0076 N   0  0  0  0  0  0  0  0  0  0  0  0
   44.7167    6.3196   12.2295 C   0  0  0  0  0  0  0  0  0  0  0  0
   49.3089   10.2247   11.6481 C   0  0  0  0  0  0  0  0  0  0  0  0
   47.4480    6.7094   13.1368 C   0  0  0  0  0  0  0  0  0  0  0  0
   46.8258    5.5357   13.2966 C   0  0  0  0  0  0  0  0  0  0  0  0
   48.7008    9.1008   12.1682 N   0  0  0  0  0  0  0  0  0  0  0  0
   45.4785    5.2863   12.7852 C   0  0  0  0  0  0  0  0  0  0  0  0
   44.5963    8.6356   11.8512 O   0  0  0  0  0  0  0  0  0  0  0  0
   48.7848   11.1681   11.0746 O   0  0  0  0  0  0  0  0  0  0  0  0
   50.6620   10.2080   11.8494 N   0  0  0  0  0  0  0  0  0  0  0  0
   43.4131    6.0852   11.7751 C   0  0  0  0  0  0  0  0  0  0  0  0
   44.9177    4.0062   12.8757 C   0  0  0  0  0  0  0  0  0  0  0  0
   42.8674    4.8060   11.8668 C   0  0  0  0  0  0  0  0  0  0  0  0
   43.6194    3.7680   12.4153 C   0  0  0  0  0  0  0  0  0  0  0  0
   48.4411    6.8616   13.5366 H   0  0  0  0  0  0  0  0  0  0  0  0
   47.3239    4.7272   13.8255 H   0  0  0  0  0  0  0  0  0  0  0  0
   49.2856    8.2775   12.1951 H   0  0  0  0  0  0  0  0  0  0  0  0
   50.9507    9.9339   12.7775 H   0  0  0  0  0  0  0  0  0  0  0  0
   51.0770   11.0842   11.5517 H   0  0  0  0  0  0  0  0  0  0  0  0
   42.8250    6.8966   11.3497 H   0  0  0  0  0  0  0  0  0  0  0  0
   45.4802    3.1803   13.3060 H   0  0  0  0  0  0  0  0  0  0  0  0
   41.8559    4.6204   11.5128 H   0  0  0  0  0  0  0  0  0  0  0  0
   43.1916    2.7704   12.4886 H   0  0  0  0  0  0  0  0  0  0  0  0
  2  1  1  0
  3  2  2  0
  4  1  1  0
  5  8  1  0
  6  2  1  0
  7  9  1  0
  8  3  1  0
  9  4  2  0
 10  1  2  0
 11  5  2  0
 12  5  1  0
 13  4  1  0
 14  9  1  0
 15 13  2  0
 16 15  1  0
  6  7  2  0
 14 16  2  0
  6 17  1  0
  7 18  1  0
  8 19  1  0
 12 20  1  0
 12 21  1  0
 13 22  1  0
 14 23  1  0
 15 24  1  0
 16 25  1  0
M  END
> <Uni-Dock RESULT> 
ENERGY=   -3.579  LOWER_BOUND=    5.326  UPPER_BOUND=    6.718
INTER + INTRA:          -3.579
INTER:                  -3.579
INTRA:                   0.000
UNBOUND:                 0.000

$$$$
