
     RDKit          3D

 25 26  0  0  0  0  0  0  0  0999 V2000
   44.8471    2.0106    9.1067 C   0  0  0  0  0  0  0  0  0  0  0  0
   44.2622    3.2091    9.8562 C   0  0  0  0  0  0  0  0  0  0  0  0
   43.4685    2.9394   10.8512 N   0  0  0  0  0  0  0  0  0  0  0  0
   45.9165    2.2520    8.1175 C   0  0  0  0  0  0  0  0  0  0  0  0
   43.8413    4.7241   12.4072 C   0  0  0  0  0  0  0  0  0  0  0  0
   44.6319    4.5531    9.3303 C   0  0  0  0  0  0  0  0  0  0  0  0
   45.5537    4.7016    8.3726 C   0  0  0  0  0  0  0  0  0  0  0  0
   42.9829    3.9641   11.6284 N   0  0  0  0  0  0  0  0  0  0  0  0
   46.2519    3.5656    7.7750 C   0  0  0  0  0  0  0  0  0  0  0  0
   44.4309    0.8778    9.3149 O   0  0  0  0  0  0  0  0  0  0  0  0
   45.0593    4.7958   12.3057 O   0  0  0  0  0  0  0  0  0  0  0  0
   43.1793    5.5030   13.3114 N   0  0  0  0  0  0  0  0  0  0  0  0
   46.5744    1.1672    7.5235 C   0  0  0  0  0  0  0  0  0  0  0  0
   47.2628    3.7816    6.8297 C   0  0  0  0  0  0  0  0  0  0  0  0
   47.5801    1.3946    6.5853 C   0  0  0  0  0  0  0  0  0  0  0  0
   47.9242    2.7004    6.2400 C   0  0  0  0  0  0  0  0  0  0  0  0
   44.1407    5.4156    9.7624 H   0  0  0  0  0  0  0  0  0  0  0  0
   45.8104    5.6987    8.0259 H   0  0  0  0  0  0  0  0  0  0  0  0
   42.1397    3.6873   12.1166 H   0  0  0  0  0  0  0  0  0  0  0  0
   42.3503    5.1319   13.7504 H   0  0  0  0  0  0  0  0  0  0  0  0
   43.8066    5.9887   13.9415 H   0  0  0  0  0  0  0  0  0  0  0  0
   46.3053    0.1474    7.7922 H   0  0  0  0  0  0  0  0  0  0  0  0
   47.5480    4.7914    6.5420 H   0  0  0  0  0  0  0  0  0  0  0  0
   48.0940    0.5541    6.1251 H   0  0  0  0  0  0  0  0  0  0  0  0
   48.7092    2.8784    5.5083 H   0  0  0  0  0  0  0  0  0  0  0  0
  2  1  1  0
  3  2  2  0
  4  1  1  0
  5  8  1  0
  6  2  1  0
  7  9  1  0
  8  3  1  0
  9  4  2  0
 10  1  2  0
 11  5  2  0
 12  5  1  0
 13  4  1  0
 14  9  1  0
 15 13  2  0
 16 15  1  0
  6  7  2  0
 14 16  2  0
  6 17  1  0
  7 18  1  0
  8 19  1  0
 12 20  1  0
 12 21  1  0
 13 22  1  0
 14 23  1  0
 15 24  1  0
 16 25  1  0
M  END
> <Uni-Dock RESULT> 
ENERGY=   -6.510  LOWER_BOUND=    0.000  UPPER_BOUND=    0.000
INTER + INTRA:          -6.510
INTER:                  -6.510
INTRA:                   0.000
UNBOUND:                 0.000

$$$$

     RDKit          3D

 25 26  0  0  0  0  0  0  0  0999 V2000
   45.4140    7.3342   12.5717 C   0  0  0  0  0  0  0  0  0  0  0  0
   44.9750    5.8866   12.8002 C   0  0  0  0  0  0  0  0  0  0  0  0
   43.7413    5.6010   12.5018 N   0  0  0  0  0  0  0  0  0  0  0  0
   46.8494    7.6612   12.6845 C   0  0  0  0  0  0  0  0  0  0  0  0
   43.8242    3.3252   11.7539 C   0  0  0  0  0  0  0  0  0  0  0  0
   46.0001    4.9769   13.3844 C   0  0  0  0  0  0  0  0  0  0  0  0
   47.2723    5.3606   13.5365 C   0  0  0  0  0  0  0  0  0  0  0  0
   43.3056    4.3002   12.5914 N   0  0  0  0  0  0  0  0  0  0  0  0
   47.7409    6.6896   13.1503 C   0  0  0  0  0  0  0  0  0  0  0  0
   44.5923    8.2041   12.3111 O   0  0  0  0  0  0  0  0  0  0  0  0
   44.8499    3.3946   11.0892 O   0  0  0  0  0  0  0  0  0  0  0  0
   43.1000    2.1688   11.7828 N   0  0  0  0  0  0  0  0  0  0  0  0
   47.3023    8.9407   12.3378 C   0  0  0  0  0  0  0  0  0  0  0  0
   49.0990    7.0143   13.2602 C   0  0  0  0  0  0  0  0  0  0  0  0
   48.6565    9.2516   12.4497 C   0  0  0  0  0  0  0  0  0  0  0  0
   49.5536    8.2889   12.9094 C   0  0  0  0  0  0  0  0  0  0  0  0
   45.6860    3.9808   13.6687 H   0  0  0  0  0  0  0  0  0  0  0  0
   47.9963    4.6641   13.9501 H   0  0  0  0  0  0  0  0  0  0  0  0
   42.2976    4.2556   12.6806 H   0  0  0  0  0  0  0  0  0  0  0  0
   42.0967    2.2312   11.8671 H   0  0  0  0  0  0  0  0  0  0  0  0
   43.4230    1.4889   11.1047 H   0  0  0  0  0  0  0  0  0  0  0  0
   46.6019    9.6930   11.9797 H   0  0  0  0  0  0  0  0  0  0  0  0
   49.8185    6.2809   13.6184 H   0  0  0  0  0  0  0  0  0  0  0  0
   49.0106   10.2432   12.1784 H   0  0  0  0  0  0  0  0  0  0  0  0
   50.6105    8.5308   12.9964 H   0  0  0  0  0  0  0  0  0  0  0  0
  2  1  1  0
  3  2  2  0
  4  1  1  0
  5  8  1  0
  6  2  1  0
  7  9  1  0
  8  3  1  0
  9  4  2  0
 10  1  2  0
 11  5  2  0
 12  5  1  0
 13  4  1  0
 14  9  1  0
 15 13  2  0
 16 15  1  0
  6  7  2  0
 14 16  2  0
  6 17  1  0
  7 18  1  0
  8 19  1  0
 12 20  1  0
 12 21  1  0
 13 22  1  0
 14 23  1  0
 15 24  1  0
 16 25  1  0
M  END
> <Uni-Dock RESULT> 
ENERGY=   -4.129  LOWER_BOUND=    4.002  UPPER_BOUND=    6.151
INTER + INTRA:          -4.129
INTER:                  -4.129
INTRA:                   0.000
UNBOUND:                 0.000

$$$$

     RDKit          3D

 25 26  0  0  0  0  0  0  0  0999 V2000
   46.6901    5.0147   13.4115 C   0  0  0  0  0  0  0  0  0  0  0  0
   47.4555    6.3388   13.3792 C   0  0  0  0  0  0  0  0  0  0  0  0
   48.6971    6.3002   13.7661 N   0  0  0  0  0  0  0  0  0  0  0  0
   45.3558    4.9568   12.7817 C   0  0  0  0  0  0  0  0  0  0  0  0
   49.7848    7.9703   12.4346 C   0  0  0  0  0  0  0  0  0  0  0  0
   46.6762    7.5344   12.9516 C   0  0  0  0  0  0  0  0  0  0  0  0
   45.4361    7.4244   12.4626 C   0  0  0  0  0  0  0  0  0  0  0  0
   49.4719    7.4320   13.6728 N   0  0  0  0  0  0  0  0  0  0  0  0
   44.7617    6.1359   12.3210 C   0  0  0  0  0  0  0  0  0  0  0  0
   47.1687    4.0277   13.9561 O   0  0  0  0  0  0  0  0  0  0  0  0
   49.2346    7.7319   11.3673 O   0  0  0  0  0  0  0  0  0  0  0  0
   50.7707    8.9114   12.5052 N   0  0  0  0  0  0  0  0  0  0  0  0
   44.6935    3.7280   12.6635 C   0  0  0  0  0  0  0  0  0  0  0  0
   43.4924    6.0691   11.7325 C   0  0  0  0  0  0  0  0  0  0  0  0
   43.4313    3.6738   12.0743 C   0  0  0  0  0  0  0  0  0  0  0  0
   42.8323    4.8431   11.6085 C   0  0  0  0  0  0  0  0  0  0  0  0
   47.1539    8.5024   13.0326 H   0  0  0  0  0  0  0  0  0  0  0  0
   44.9044    8.3168   12.1444 H   0  0  0  0  0  0  0  0  0  0  0  0
   50.2652    7.3871   14.3012 H   0  0  0  0  0  0  0  0  0  0  0  0
   51.5244    8.7706   13.1607 H   0  0  0  0  0  0  0  0  0  0  0  0
   51.0638    9.2389   11.5923 H   0  0  0  0  0  0  0  0  0  0  0  0
   45.1605    2.8149   13.0279 H   0  0  0  0  0  0  0  0  0  0  0  0
   43.0032    6.9681   11.3631 H   0  0  0  0  0  0  0  0  0  0  0  0
   42.9167    2.7207   11.9788 H   0  0  0  0  0  0  0  0  0  0  0  0
   41.8477    4.8012   11.1482 H   0  0  0  0  0  0  0  0  0  0  0  0
  2  1  1  0
  3  2  2  0
  4  1  1  0
  5  8  1  0
  6  2  1  0
  7  9  1  0
  8  3  1  0
  9  4  2  0
 10  1  2  0
 11  5  2  0
 12  5  1  0
 13  4  1  0
 14  9  1  0
 15 13  2  0
 16 15  1  0
  6  7  2  0
 14 16  2  0
  6 17  1  0
  7 18  1  0
  8 19  1  0
 12 20  1  0
 12 21  1  0
 13 22  1  0
 14 23  1  0
 15 24  1  0
 16 25  1  0
M  END
> <Uni-Dock RESULT> 
ENERGY=   -4.099  LOWER_BOUND=    5.275  UPPER_BOUND=    6.381
INTER + INTRA:          -4.099
INTER:                  -4.099
INTRA:                   0.000
UNBOUND:                 0.000

$$$$

     RDKit          3D

 25 26  0  0  0  0  0  0  0  0999 V2000
   45.6918    7.5927   12.6718 C   0  0  0  0  0  0  0  0  0  0  0  0
   45.2714    6.1491   12.9540 C   0  0  0  0  0  0  0  0  0  0  0  0
   44.0103    5.8712   12.7962 N   0  0  0  0  0  0  0  0  0  0  0  0
   47.1330    7.9099   12.6226 C   0  0  0  0  0  0  0  0  0  0  0  0
   43.9942    3.5923   12.0534 C   0  0  0  0  0  0  0  0  0  0  0  0
   46.3492    5.2342   13.4242 C   0  0  0  0  0  0  0  0  0  0  0  0
   47.6330    5.6094   13.4320 C   0  0  0  0  0  0  0  0  0  0  0  0
   43.5787    4.5739   12.9393 N   0  0  0  0  0  0  0  0  0  0  0  0
   48.0644    6.9337   12.9903 C   0  0  0  0  0  0  0  0  0  0  0  0
   44.8520    8.4675   12.5007 O   0  0  0  0  0  0  0  0  0  0  0  0
   44.9399    3.6521   11.2783 O   0  0  0  0  0  0  0  0  0  0  0  0
   43.2701    2.4411   12.1678 N   0  0  0  0  0  0  0  0  0  0  0  0
   47.5529    9.1850   12.2221 C   0  0  0  0  0  0  0  0  0  0  0  0
   49.4285    7.2492   12.9468 C   0  0  0  0  0  0  0  0  0  0  0  0
   48.9132    9.4867   12.1811 C   0  0  0  0  0  0  0  0  0  0  0  0
   49.8496    8.5193   12.5421 C   0  0  0  0  0  0  0  0  0  0  0  0
   46.0622    4.2413   13.7459 H   0  0  0  0  0  0  0  0  0  0  0  0
   48.3939    4.9093   13.7653 H   0  0  0  0  0  0  0  0  0  0  0  0
   42.5866    4.5366   13.1405 H   0  0  0  0  0  0  0  0  0  0  0  0
   42.2829    2.5109   12.3631 H   0  0  0  0  0  0  0  0  0  0  0  0
   43.5110    1.7566   11.4608 H   0  0  0  0  0  0  0  0  0  0  0  0
   46.8220    9.9409   11.9411 H   0  0  0  0  0  0  0  0  0  0  0  0
   50.1784    6.5119   13.2257 H   0  0  0  0  0  0  0  0  0  0  0  0
   49.2415   10.4748   11.8678 H   0  0  0  0  0  0  0  0  0  0  0  0
   50.9111    8.7540   12.5097 H   0  0  0  0  0  0  0  0  0  0  0  0
  2  1  1  0
  3  2  2  0
  4  1  1  0
  5  8  1  0
  6  2  1  0
  7  9  1  0
  8  3  1  0
  9  4  2  0
 10  1  2  0
 11  5  2  0
 12  5  1  0
 13  4  1  0
 14  9  1  0
 15 13  2  0
 16 15  1  0
  6  7  2  0
 14 16  2  0
  6 17  1  0
  7 18  1  0
  8 19  1  0
 12 20  1  0
 12 21  1  0
 13 22  1  0
 14 23  1  0
 15 24  1  0
 16 25  1  0
M  END
> <Uni-Dock RESULT> 
ENERGY=   -4.009  LOWER_BOUND=    4.162  UPPER_BOUND=    6.251
INTER + INTRA:          -4.009
INTER:                  -4.009
INTRA:                   0.000
UNBOUND:                 0.000

$$$$

     RDKit          3D

 25 26  0  0  0  0  0  0  0  0999 V2000
   43.7105    8.2190   11.3091 C   0  0  0  0  0  0  0  0  0  0  0  0
   43.8490    6.7219   11.5916 C   0  0  0  0  0  0  0  0  0  0  0  0
   42.9194    5.9520   11.1061 N   0  0  0  0  0  0  0  0  0  0  0  0
   44.8416    9.1068   11.6450 C   0  0  0  0  0  0  0  0  0  0  0  0
   44.0519    3.9000   10.6039 C   0  0  0  0  0  0  0  0  0  0  0  0
   45.0111    6.3199   12.4328 C   0  0  0  0  0  0  0  0  0  0  0  0
   45.9655    7.1931   12.7727 C   0  0  0  0  0  0  0  0  0  0  0  0
   43.0303    4.5882   11.2392 N   0  0  0  0  0  0  0  0  0  0  0  0
   45.9326    8.5921   12.3523 C   0  0  0  0  0  0  0  0  0  0  0  0
   42.6811    8.6724   10.8249 O   0  0  0  0  0  0  0  0  0  0  0  0
   45.0759    4.3745   10.1295 O   0  0  0  0  0  0  0  0  0  0  0  0
   43.8594    2.5489   10.6124 N   0  0  0  0  0  0  0  0  0  0  0  0
   44.8063   10.4548   11.2651 C   0  0  0  0  0  0  0  0  0  0  0  0
   46.9960    9.4461   12.6717 C   0  0  0  0  0  0  0  0  0  0  0  0
   45.8713   11.2946   11.5870 C   0  0  0  0  0  0  0  0  0  0  0  0
   46.9651   10.7902   12.2886 C   0  0  0  0  0  0  0  0  0  0  0  0
   45.0700    5.2864   12.7495 H   0  0  0  0  0  0  0  0  0  0  0  0
   46.8076    6.8599   13.3729 H   0  0  0  0  0  0  0  0  0  0  0  0
   42.1283    4.1358   11.1509 H   0  0  0  0  0  0  0  0  0  0  0  0
   42.9199    2.1960   10.5099 H   0  0  0  0  0  0  0  0  0  0  0  0
   44.5562    2.0519   10.0702 H   0  0  0  0  0  0  0  0  0  0  0  0
   43.9520   10.8492   10.7181 H   0  0  0  0  0  0  0  0  0  0  0  0
   47.8599    9.0766   13.2203 H   0  0  0  0  0  0  0  0  0  0  0  0
   45.8474   12.3405   11.2907 H   0  0  0  0  0  0  0  0  0  0  0  0
   47.7966   11.4450   12.5396 H   0  0  0  0  0  0  0  0  0  0  0  0
  2  1  1  0
  3  2  2  0
  4  1  1  0
  5  8  1  0
  6  2  1  0
  7  9  1  0
  8  3  1  0
  9  4  2  0
 10  1  2  0
 11  5  2  0
 12  5  1  0
 13  4  1  0
 14  9  1  0
 15 13  2  0
 16 15  1  0
  6  7  2  0
 14 16  2  0
  6 17  1  0
  7 18  1  0
  8 19  1  0
 12 20  1  0
 12 21  1  0
 13 22  1  0
 14 23  1  0
 15 24  1  0
 16 25  1  0
M  END
> <Uni-Dock RESULT> 
ENERGY=   -3.932  LOWER_BOUND=    4.099  UPPER_BOUND=    6.642
INTER + INTRA:          -3.932
INTER:                  -3.932
INTRA:                   0.000
UNBOUND:                 0.000

$$$$

     RDKit          3D

 25 26  0  0  0  0  0  0  0  0999 V2000
   45.3702    7.7591   12.5132 C   0  0  0  0  0  0  0  0  0  0  0  0
   46.7485    8.0844   13.0918 C   0  0  0  0  0  0  0  0  0  0  0  0
   47.0348    9.3456   13.2333 N   0  0  0  0  0  0  0  0  0  0  0  0
   44.9103    6.3561   12.5348 C   0  0  0  0  0  0  0  0  0  0  0  0
   48.4436    9.4195   15.1712 C   0  0  0  0  0  0  0  0  0  0  0  0
   47.6269    6.9172   13.3845 C   0  0  0  0  0  0  0  0  0  0  0  0
   47.1725    5.6615   13.3078 C   0  0  0  0  0  0  0  0  0  0  0  0
   48.2161    9.7094   13.8351 N   0  0  0  0  0  0  0  0  0  0  0  0
   45.7966    5.3486   12.9283 C   0  0  0  0  0  0  0  0  0  0  0  0
   44.6683    8.6407   12.0336 O   0  0  0  0  0  0  0  0  0  0  0  0
   47.8312    8.6187   15.8658 O   0  0  0  0  0  0  0  0  0  0  0  0
   49.5260   10.0806   15.6750 N   0  0  0  0  0  0  0  0  0  0  0  0
   43.5994    6.0462   12.1502 C   0  0  0  0  0  0  0  0  0  0  0  0
   45.3509    4.0206   12.9373 C   0  0  0  0  0  0  0  0  0  0  0  0
   43.1667    4.7212   12.1650 C   0  0  0  0  0  0  0  0  0  0  0  0
   44.0414    3.7101   12.5591 C   0  0  0  0  0  0  0  0  0  0  0  0
   48.6486    7.1175   13.6808 H   0  0  0  0  0  0  0  0  0  0  0  0
   47.8372    4.8356   13.5454 H   0  0  0  0  0  0  0  0  0  0  0  0
   48.4835   10.6525   13.5796 H   0  0  0  0  0  0  0  0  0  0  0  0
   49.7031   11.0230   15.3616 H   0  0  0  0  0  0  0  0  0  0  0  0
   49.6390    9.9415   16.6722 H   0  0  0  0  0  0  0  0  0  0  0  0
   42.9164    6.8354   11.8415 H   0  0  0  0  0  0  0  0  0  0  0  0
   46.0153    3.2135   13.2389 H   0  0  0  0  0  0  0  0  0  0  0  0
   42.1487    4.4787   11.8696 H   0  0  0  0  0  0  0  0  0  0  0  0
   43.7041    2.6760   12.5713 H   0  0  0  0  0  0  0  0  0  0  0  0
  2  1  1  0
  3  2  2  0
  4  1  1  0
  5  8  1  0
  6  2  1  0
  7  9  1  0
  8  3  1  0
  9  4  2  0
 10  1  2  0
 11  5  2  0
 12  5  1  0
 13  4  1  0
 14  9  1  0
 15 13  2  0
 16 15  1  0
  6  7  2  0
 14 16  2  0
  6 17  1  0
  7 18  1  0
  8 19  1  0
 12 20  1  0
 12 21  1  0
 13 22  1  0
 14 23  1  0
 15 24  1  0
 16 25  1  0
M  END
> <Uni-Dock RESULT> 
ENERGY=   -3.759  LOWER_BOUND=    5.652  UPPER_BOUND=    6.935
INTER + INTRA:          -3.759
INTER:                  -3.759
INTRA:                   0.000
UNBOUND:                 0.000

$$$$

     RDKit          3D

 25 26  0  0  0  0  0  0  0  0999 V2000
   46.5040    7.0696   12.6279 C   0  0  0  0  0  0  0  0  0  0  0  0
   47.6076    6.4907   13.5154 C   0  0  0  0  0  0  0  0  0  0  0  0
   48.5954    7.2862   13.8052 N   0  0  0  0  0  0  0  0  0  0  0  0
   45.2626    6.2904   12.4490 C   0  0  0  0  0  0  0  0  0  0  0  0
   49.2718    6.6141   16.0043 C   0  0  0  0  0  0  0  0  0  0  0  0
   47.4482    5.0627   13.9093 C   0  0  0  0  0  0  0  0  0  0  0  0
   46.3259    4.3843   13.6463 C   0  0  0  0  0  0  0  0  0  0  0  0
   49.5730    6.8644   14.6748 N   0  0  0  0  0  0  0  0  0  0  0  0
   45.1898    4.9885   12.9541 C   0  0  0  0  0  0  0  0  0  0  0  0
   46.6510    8.1500   12.0703 O   0  0  0  0  0  0  0  0  0  0  0  0
   48.1597    6.4519   16.4897 O   0  0  0  0  0  0  0  0  0  0  0  0
   50.3873    6.4744   16.7781 N   0  0  0  0  0  0  0  0  0  0  0  0
   44.1775    6.8550   11.7661 C   0  0  0  0  0  0  0  0  0  0  0  0
   44.0095    4.2566   12.7713 C   0  0  0  0  0  0  0  0  0  0  0  0
   43.0075    6.1177   11.5920 C   0  0  0  0  0  0  0  0  0  0  0  0
   42.9236    4.8204   12.0950 C   0  0  0  0  0  0  0  0  0  0  0  0
   48.2683    4.5909   14.4352 H   0  0  0  0  0  0  0  0  0  0  0  0
   46.2385    3.3491   13.9642 H   0  0  0  0  0  0  0  0  0  0  0  0
   50.4279    7.3937   14.5515 H   0  0  0  0  0  0  0  0  0  0  0  0
   51.1873    7.0556   16.5786 H   0  0  0  0  0  0  0  0  0  0  0  0
   50.1699    6.3830   17.7634 H   0  0  0  0  0  0  0  0  0  0  0  0
   44.2430    7.8676   11.3724 H   0  0  0  0  0  0  0  0  0  0  0  0
   43.9203    3.2416   13.1528 H   0  0  0  0  0  0  0  0  0  0  0  0
   42.1630    6.5550   11.0648 H   0  0  0  0  0  0  0  0  0  0  0  0
   42.0106    4.2448   11.9598 H   0  0  0  0  0  0  0  0  0  0  0  0
  2  1  1  0
  3  2  2  0
  4  1  1  0
  5  8  1  0
  6  2  1  0
  7  9  1  0
  8  3  1  0
  9  4  2  0
 10  1  2  0
 11  5  2  0
 12  5  1  0
 13  4  1  0
 14  9  1  0
 15 13  2  0
 16 15  1  0
  6  7  2  0
 14 16  2  0
  6 17  1  0
  7 18  1  0
  8 19  1  0
 12 20  1  0
 12 21  1  0
 13 22  1  0
 14 23  1  0
 15 24  1  0
 16 25  1  0
M  END
> <Uni-Dock RESULT> 
ENERGY=   -3.663  LOWER_BOUND=    5.767  UPPER_BOUND=    6.868
INTER + INTRA:          -3.663
INTER:                  -3.663
INTRA:                   0.000
UNBOUND:                 0.000

$$$$

     RDKit          3D

 25 26  0  0  0  0  0  0  0  0999 V2000
   50.2492    2.3961   17.1422 C   0  0  0  0  0  0  0  0  0  0  0  0
   49.6129    3.7482   17.4702 C   0  0  0  0  0  0  0  0  0  0  0  0
   48.3504    3.8792   17.1845 N   0  0  0  0  0  0  0  0  0  0  0  0
   51.6108    2.1187   17.6414 C   0  0  0  0  0  0  0  0  0  0  0  0
   47.5109    5.3575   18.8742 C   0  0  0  0  0  0  0  0  0  0  0  0
   50.5255    4.7798   18.0380 C   0  0  0  0  0  0  0  0  0  0  0  0
   51.7795    4.4846   18.3976 C   0  0  0  0  0  0  0  0  0  0  0  0
   47.6910    5.0322   17.5391 N   0  0  0  0  0  0  0  0  0  0  0  0
   52.3400    3.1429   18.2538 C   0  0  0  0  0  0  0  0  0  0  0  0
   49.6469    1.5666   16.4721 O   0  0  0  0  0  0  0  0  0  0  0  0
   48.1055    4.8848   19.8343 O   0  0  0  0  0  0  0  0  0  0  0  0
   46.6135    6.3704   19.0515 N   0  0  0  0  0  0  0  0  0  0  0  0
   52.1632    0.8407   17.4863 C   0  0  0  0  0  0  0  0  0  0  0  0
   53.6335    2.8694   18.7164 C   0  0  0  0  0  0  0  0  0  0  0  0
   53.4508    0.5800   17.9523 C   0  0  0  0  0  0  0  0  0  0  0  0
   54.1844    1.5932   18.5675 C   0  0  0  0  0  0  0  0  0  0  0  0
   50.1348    5.7809   18.1685 H   0  0  0  0  0  0  0  0  0  0  0  0
   52.4110    5.2588   18.8245 H   0  0  0  0  0  0  0  0  0  0  0  0
   46.8576    5.1660   16.9791 H   0  0  0  0  0  0  0  0  0  0  0  0
   45.8087    6.4120   18.4446 H   0  0  0  0  0  0  0  0  0  0  0  0
   46.4123    6.5471   20.0286 H   0  0  0  0  0  0  0  0  0  0  0  0
   51.5911    0.0497   17.0052 H   0  0  0  0  0  0  0  0  0  0  0  0
   54.2267    3.6439   19.1981 H   0  0  0  0  0  0  0  0  0  0  0  0
   53.8806   -0.4120   17.8356 H   0  0  0  0  0  0  0  0  0  0  0  0
   55.1890    1.3901   18.9318 H   0  0  0  0  0  0  0  0  0  0  0  0
  2  1  1  0
  3  2  2  0
  4  1  1  0
  5  8  1  0
  6  2  1  0
  7  9  1  0
  8  3  1  0
  9  4  2  0
 10  1  2  0
 11  5  2  0
 12  5  1  0
 13  4  1  0
 14  9  1  0
 15 13  2  0
 16 15  1  0
  6  7  2  0
 14 16  2  0
  6 17  1  0
  7 18  1  0
  8 19  1  0
 12 20  1  0
 12 21  1  0
 13 22  1  0
 14 23  1  0
 15 24  1  0
 16 25  1  0
M  END
> <Uni-Dock RESULT> 
ENERGY=   -3.645  LOWER_BOUND=    9.326  UPPER_BOUND=   10.429
INTER + INTRA:          -3.645
INTER:                  -3.645
INTRA:                   0.000
UNBOUND:                 0.000

$$$$

     RDKit          3D

 25 26  0  0  0  0  0  0  0  0999 V2000
   46.9308   10.7398   11.8757 C   0  0  0  0  0  0  0  0  0  0  0  0
   45.4580   10.3515   12.0195 C   0  0  0  0  0  0  0  0  0  0  0  0
   44.5854   11.2786   11.7518 N   0  0  0  0  0  0  0  0  0  0  0  0
   47.9508    9.6750   11.9531 C   0  0  0  0  0  0  0  0  0  0  0  0
   42.7147   10.0869   10.8432 C   0  0  0  0  0  0  0  0  0  0  0  0
   45.1907    8.9656   12.4964 C   0  0  0  0  0  0  0  0  0  0  0  0
   46.1728    8.0666   12.6236 C   0  0  0  0  0  0  0  0  0  0  0  0
   43.2451   10.9731   11.7674 N   0  0  0  0  0  0  0  0  0  0  0  0
   47.5659    8.3797   12.3131 C   0  0  0  0  0  0  0  0  0  0  0  0
   47.2571   11.9086   11.7103 O   0  0  0  0  0  0  0  0  0  0  0  0
   43.3325    9.2942   10.1441 O   0  0  0  0  0  0  0  0  0  0  0  0
   41.3502   10.1064   10.8200 N   0  0  0  0  0  0  0  0  0  0  0  0
   49.2919    9.9732   11.6792 C   0  0  0  0  0  0  0  0  0  0  0  0
   48.5440    7.3799   12.3906 C   0  0  0  0  0  0  0  0  0  0  0  0
   50.2560    8.9695   11.7578 C   0  0  0  0  0  0  0  0  0  0  0  0
   49.8819    7.6743   12.1121 C   0  0  0  0  0  0  0  0  0  0  0  0
   44.1660    8.6997   12.7224 H   0  0  0  0  0  0  0  0  0  0  0  0
   45.9379    7.0599   12.9576 H   0  0  0  0  0  0  0  0  0  0  0  0
   42.6801   11.8043   11.8939 H   0  0  0  0  0  0  0  0  0  0  0  0
   40.8793   10.9892   10.9489 H   0  0  0  0  0  0  0  0  0  0  0  0
   40.9640    9.5281   10.0832 H   0  0  0  0  0  0  0  0  0  0  0  0
   49.5845   10.9845   11.4034 H   0  0  0  0  0  0  0  0  0  0  0  0
   48.2773    6.3619   12.6669 H   0  0  0  0  0  0  0  0  0  0  0  0
   51.2971    9.1980   11.5427 H   0  0  0  0  0  0  0  0  0  0  0  0
   50.6337    6.8907   12.1731 H   0  0  0  0  0  0  0  0  0  0  0  0
  2  1  1  0
  3  2  2  0
  4  1  1  0
  5  8  1  0
  6  2  1  0
  7  9  1  0
  8  3  1  0
  9  4  2  0
 10  1  2  0
 11  5  2  0
 12  5  1  0
 13  4  1  0
 14  9  1  0
 15 13  2  0
 16 15  1  0
  6  7  2  0
 14 16  2  0
  6 17  1  0
  7 18  1  0
  8 19  1  0
 12 20  1  0
 12 21  1  0
 13 22  1  0
 14 23  1  0
 15 24  1  0
 16 25  1  0
M  END
> <Uni-Dock RESULT> 
ENERGY=   -3.621  LOWER_BOUND=    6.712  UPPER_BOUND=    7.801
INTER + INTRA:          -3.621
INTER:                  -3.621
INTRA:                   0.000
UNBOUND:                 0.000

$$$$
