
     RDKit          3D

 25 26  0  0  0  0  0  0  0  0999 V2000
   44.8396    1.9936    9.1010 C   0  0  0  0  0  0  0  0  0  0  0  0
   44.2601    3.1864    9.8642 C   0  0  0  0  0  0  0  0  0  0  0  0
   43.4895    2.9088   10.8744 N   0  0  0  0  0  0  0  0  0  0  0  0
   45.9132    2.2430    8.1186 C   0  0  0  0  0  0  0  0  0  0  0  0
   43.8680    4.7106   12.4120 C   0  0  0  0  0  0  0  0  0  0  0  0
   44.6105    4.5333    9.3329 C   0  0  0  0  0  0  0  0  0  0  0  0
   45.5288    4.6895    8.3730 C   0  0  0  0  0  0  0  0  0  0  0  0
   43.0046    3.9239   11.6659 N   0  0  0  0  0  0  0  0  0  0  0  0
   46.2405    3.5595    7.7792 C   0  0  0  0  0  0  0  0  0  0  0  0
   44.4147    0.8611    9.2910 O   0  0  0  0  0  0  0  0  0  0  0  0
   45.0862    4.7708   12.3195 O   0  0  0  0  0  0  0  0  0  0  0  0
   43.1958    5.4939   13.3058 N   0  0  0  0  0  0  0  0  0  0  0  0
   46.5813    1.1634    7.5268 C   0  0  0  0  0  0  0  0  0  0  0  0
   47.2546    3.7837    6.8394 C   0  0  0  0  0  0  0  0  0  0  0  0
   47.5903    1.3991    6.5943 C   0  0  0  0  0  0  0  0  0  0  0  0
   47.9269    2.7079    6.2523 C   0  0  0  0  0  0  0  0  0  0  0  0
   44.1100    5.3905    9.7632 H   0  0  0  0  0  0  0  0  0  0  0  0
   45.7737    5.6878    8.0214 H   0  0  0  0  0  0  0  0  0  0  0  0
   42.2274    3.6002   12.2343 H   0  0  0  0  0  0  0  0  0  0  0  0
   42.3069    5.8672   13.0047 H   0  0  0  0  0  0  0  0  0  0  0  0
   43.7982    6.1611   13.7728 H   0  0  0  0  0  0  0  0  0  0  0  0
   46.3177    0.1415    7.7930 H   0  0  0  0  0  0  0  0  0  0  0  0
   47.5340    4.7957    6.5540 H   0  0  0  0  0  0  0  0  0  0  0  0
   48.1126    0.5628    6.1358 H   0  0  0  0  0  0  0  0  0  0  0  0
   48.7146    2.8921    5.5250 H   0  0  0  0  0  0  0  0  0  0  0  0
  2  1  1  0
  3  2  2  0
  4  1  1  0
  5  8  1  0
  6  2  1  0
  7  9  1  0
  8  3  1  0
  9  4  2  0
 10  1  2  0
 11  5  2  0
 12  5  1  0
 13  4  1  0
 14  9  1  0
 15 13  2  0
 16 15  1  0
  6  7  2  0
 14 16  2  0
  6 17  1  0
  7 18  1  0
  8 19  1  0
 12 20  1  0
 12 21  1  0
 13 22  1  0
 14 23  1  0
 15 24  1  0
 16 25  1  0
M  END
> <Uni-Dock RESULT> 
ENERGY=   -6.543  LOWER_BOUND=    0.000  UPPER_BOUND=    0.000
INTER + INTRA:          -6.543
INTER:                  -6.543
INTRA:                   0.000
UNBOUND:                 0.000

$$$$

     RDKit          3D

 25 26  0  0  0  0  0  0  0  0999 V2000
   45.5550    4.9056    9.2853 C   0  0  0  0  0  0  0  0  0  0  0  0
   45.8008    3.9606    8.1075 C   0  0  0  0  0  0  0  0  0  0  0  0
   46.5843    4.3989    7.1667 N   0  0  0  0  0  0  0  0  0  0  0  0
   44.8908    4.3689   10.4897 C   0  0  0  0  0  0  0  0  0  0  0  0
   47.6701    2.4253    6.3421 C   0  0  0  0  0  0  0  0  0  0  0  0
   45.0758    2.6599    8.1525 C   0  0  0  0  0  0  0  0  0  0  0  0
   44.4110    2.2671    9.2446 C   0  0  0  0  0  0  0  0  0  0  0  0
   46.9273    3.5742    6.1205 N   0  0  0  0  0  0  0  0  0  0  0  0
   44.3444    3.0821   10.4559 C   0  0  0  0  0  0  0  0  0  0  0  0
   45.8896    6.0819    9.2260 O   0  0  0  0  0  0  0  0  0  0  0  0
   47.9179    1.8961    7.4167 O   0  0  0  0  0  0  0  0  0  0  0  0
   48.1117    1.8738    5.1736 N   0  0  0  0  0  0  0  0  0  0  0  0
   44.8009    5.1552   11.6455 C   0  0  0  0  0  0  0  0  0  0  0  0
   43.7087    2.5867   11.6016 C   0  0  0  0  0  0  0  0  0  0  0  0
   44.1678    4.6505   12.7801 C   0  0  0  0  0  0  0  0  0  0  0  0
   43.6235    3.3674   12.7581 C   0  0  0  0  0  0  0  0  0  0  0  0
   45.1189    2.0284    7.2752 H   0  0  0  0  0  0  0  0  0  0  0  0
   43.9085    1.3039    9.2500 H   0  0  0  0  0  0  0  0  0  0  0  0
   47.3114    4.1102    5.3477 H   0  0  0  0  0  0  0  0  0  0  0  0
   47.4864    1.9248    4.3820 H   0  0  0  0  0  0  0  0  0  0  0  0
   48.5511    0.9710    5.3078 H   0  0  0  0  0  0  0  0  0  0  0  0
   45.2250    6.1575   11.6623 H   0  0  0  0  0  0  0  0  0  0  0  0
   43.2739    1.5895   11.6087 H   0  0  0  0  0  0  0  0  0  0  0  0
   44.0997    5.2578   13.6797 H   0  0  0  0  0  0  0  0  0  0  0  0
   43.1298    2.9732   13.6436 H   0  0  0  0  0  0  0  0  0  0  0  0
  2  1  1  0
  3  2  2  0
  4  1  1  0
  5  8  1  0
  6  2  1  0
  7  9  1  0
  8  3  1  0
  9  4  2  0
 10  1  2  0
 11  5  2  0
 12  5  1  0
 13  4  1  0
 14  9  1  0
 15 13  2  0
 16 15  1  0
  6  7  2  0
 14 16  2  0
  6 17  1  0
  7 18  1  0
  8 19  1  0
 12 20  1  0
 12 21  1  0
 13 22  1  0
 14 23  1  0
 15 24  1  0
 16 25  1  0
M  END
> <Uni-Dock RESULT> 
ENERGY=   -5.426  LOWER_BOUND=    3.124  UPPER_BOUND=    5.843
INTER + INTRA:          -5.426
INTER:                  -5.426
INTRA:                   0.000
UNBOUND:                 0.000

$$$$

     RDKit          3D

 25 26  0  0  0  0  0  0  0  0999 V2000
   45.4105    7.3284   12.5577 C   0  0  0  0  0  0  0  0  0  0  0  0
   44.9653    5.8806   12.7734 C   0  0  0  0  0  0  0  0  0  0  0  0
   43.7397    5.5962   12.4444 N   0  0  0  0  0  0  0  0  0  0  0  0
   46.8483    7.6451   12.6691 C   0  0  0  0  0  0  0  0  0  0  0  0
   43.8435    3.3126   11.7175 C   0  0  0  0  0  0  0  0  0  0  0  0
   45.9770    4.9705   13.3796 C   0  0  0  0  0  0  0  0  0  0  0  0
   47.2501    5.3480   13.5407 C   0  0  0  0  0  0  0  0  0  0  0  0
   43.2928    4.2976   12.5222 N   0  0  0  0  0  0  0  0  0  0  0  0
   47.7309    6.6697   13.1435 C   0  0  0  0  0  0  0  0  0  0  0  0
   44.5929    8.2058   12.3110 O   0  0  0  0  0  0  0  0  0  0  0  0
   44.8627    3.3857   11.0452 O   0  0  0  0  0  0  0  0  0  0  0  0
   43.1177    2.1569   11.7622 N   0  0  0  0  0  0  0  0  0  0  0  0
   47.3113    8.9186   12.3144 C   0  0  0  0  0  0  0  0  0  0  0  0
   49.0914    6.9844   13.2534 C   0  0  0  0  0  0  0  0  0  0  0  0
   48.6678    9.2193   12.4261 C   0  0  0  0  0  0  0  0  0  0  0  0
   49.5565    8.2526   12.8940 C   0  0  0  0  0  0  0  0  0  0  0  0
   45.6536    3.9801   13.6707 H   0  0  0  0  0  0  0  0  0  0  0  0
   47.9662    4.6526   13.9693 H   0  0  0  0  0  0  0  0  0  0  0  0
   42.2780    4.2616   12.4951 H   0  0  0  0  0  0  0  0  0  0  0  0
   42.7098    1.9104   12.6527 H   0  0  0  0  0  0  0  0  0  0  0  0
   43.5704    1.3908   11.2781 H   0  0  0  0  0  0  0  0  0  0  0  0
   46.6172    9.6738   11.9501 H   0  0  0  0  0  0  0  0  0  0  0  0
   49.8044    6.2481   13.6182 H   0  0  0  0  0  0  0  0  0  0  0  0
   49.0303   10.2063   12.1483 H   0  0  0  0  0  0  0  0  0  0  0  0
   50.6153    8.4869   12.9808 H   0  0  0  0  0  0  0  0  0  0  0  0
  2  1  1  0
  3  2  2  0
  4  1  1  0
  5  8  1  0
  6  2  1  0
  7  9  1  0
  8  3  1  0
  9  4  2  0
 10  1  2  0
 11  5  2  0
 12  5  1  0
 13  4  1  0
 14  9  1  0
 15 13  2  0
 16 15  1  0
  6  7  2  0
 14 16  2  0
  6 17  1  0
  7 18  1  0
  8 19  1  0
 12 20  1  0
 12 21  1  0
 13 22  1  0
 14 23  1  0
 15 24  1  0
 16 25  1  0
M  END
> <Uni-Dock RESULT> 
ENERGY=   -4.127  LOWER_BOUND=    3.968  UPPER_BOUND=    6.136
INTER + INTRA:          -4.127
INTER:                  -4.127
INTRA:                   0.000
UNBOUND:                 0.000

$$$$

     RDKit          3D

 25 26  0  0  0  0  0  0  0  0999 V2000
   46.6821    5.0086   13.4312 C   0  0  0  0  0  0  0  0  0  0  0  0
   47.4457    6.3338   13.3900 C   0  0  0  0  0  0  0  0  0  0  0  0
   48.6933    6.2951   13.7549 N   0  0  0  0  0  0  0  0  0  0  0  0
   45.3535    4.9434   12.7906 C   0  0  0  0  0  0  0  0  0  0  0  0
   49.7460    7.9889   12.4218 C   0  0  0  0  0  0  0  0  0  0  0  0
   46.6570    7.5286   12.9781 C   0  0  0  0  0  0  0  0  0  0  0  0
   45.4174    7.4138   12.4888 C   0  0  0  0  0  0  0  0  0  0  0  0
   49.4712    7.4255   13.6579 N   0  0  0  0  0  0  0  0  0  0  0  0
   44.7541    6.1209   12.3325 C   0  0  0  0  0  0  0  0  0  0  0  0
   47.1557    4.0291   13.9928 O   0  0  0  0  0  0  0  0  0  0  0  0
   49.2101    7.7327   11.3525 O   0  0  0  0  0  0  0  0  0  0  0  0
   50.7158    8.9464   12.5053 N   0  0  0  0  0  0  0  0  0  0  0  0
   44.7014    3.7104   12.6613 C   0  0  0  0  0  0  0  0  0  0  0  0
   43.4896    6.0480   11.7345 C   0  0  0  0  0  0  0  0  0  0  0  0
   43.4441    3.6502   12.0625 C   0  0  0  0  0  0  0  0  0  0  0  0
   42.8399    4.8178   11.5987 C   0  0  0  0  0  0  0  0  0  0  0  0
   47.1272    8.4986   13.0691 H   0  0  0  0  0  0  0  0  0  0  0  0
   44.8771    8.3045   12.1806 H   0  0  0  0  0  0  0  0  0  0  0  0
   50.3195    7.3297   14.2086 H   0  0  0  0  0  0  0  0  0  0  0  0
   50.7136    9.5247   13.3335 H   0  0  0  0  0  0  0  0  0  0  0  0
   50.8430    9.4522   11.6369 H   0  0  0  0  0  0  0  0  0  0  0  0
   45.1728    2.7990   13.0243 H   0  0  0  0  0  0  0  0  0  0  0  0
   42.9961    6.9452   11.3669 H   0  0  0  0  0  0  0  0  0  0  0  0
   42.9373    2.6938   11.9580 H   0  0  0  0  0  0  0  0  0  0  0  0
   41.8589    4.7709   11.1310 H   0  0  0  0  0  0  0  0  0  0  0  0
  2  1  1  0
  3  2  2  0
  4  1  1  0
  5  8  1  0
  6  2  1  0
  7  9  1  0
  8  3  1  0
  9  4  2  0
 10  1  2  0
 11  5  2  0
 12  5  1  0
 13  4  1  0
 14  9  1  0
 15 13  2  0
 16 15  1  0
  6  7  2  0
 14 16  2  0
  6 17  1  0
  7 18  1  0
  8 19  1  0
 12 20  1  0
 12 21  1  0
 13 22  1  0
 14 23  1  0
 15 24  1  0
 16 25  1  0
M  END
> <Uni-Dock RESULT> 
ENERGY=   -4.112  LOWER_BOUND=    5.264  UPPER_BOUND=    6.373
INTER + INTRA:          -4.112
INTER:                  -4.112
INTRA:                   0.000
UNBOUND:                 0.000

$$$$

     RDKit          3D

 25 26  0  0  0  0  0  0  0  0999 V2000
   43.8168    7.0306   11.3470 C   0  0  0  0  0  0  0  0  0  0  0  0
   44.2063    5.5565   11.2196 C   0  0  0  0  0  0  0  0  0  0  0  0
   43.3258    4.7697   10.6748 N   0  0  0  0  0  0  0  0  0  0  0  0
   44.8636    8.0042   11.7161 C   0  0  0  0  0  0  0  0  0  0  0  0
   44.6413    3.1093    9.5492 C   0  0  0  0  0  0  0  0  0  0  0  0
   45.5362    5.1827   11.7771 C   0  0  0  0  0  0  0  0  0  0  0  0
   46.4103    6.1102   12.1831 C   0  0  0  0  0  0  0  0  0  0  0  0
   43.6369    3.4502   10.4414 N   0  0  0  0  0  0  0  0  0  0  0  0
   46.1213    7.5412   12.1152 C   0  0  0  0  0  0  0  0  0  0  0  0
   42.6622    7.3927   11.1599 O   0  0  0  0  0  0  0  0  0  0  0  0
   45.4771    3.8512    9.0520 O   0  0  0  0  0  0  0  0  0  0  0  0
   44.6409    1.7724    9.2719 N   0  0  0  0  0  0  0  0  0  0  0  0
   44.5844    9.3764   11.6779 C   0  0  0  0  0  0  0  0  0  0  0  0
   47.1038    8.4738   12.4716 C   0  0  0  0  0  0  0  0  0  0  0  0
   45.5709   10.2950   12.0329 C   0  0  0  0  0  0  0  0  0  0  0  0
   46.8292    9.8437   12.4281 C   0  0  0  0  0  0  0  0  0  0  0  0
   45.7841    4.1308   11.8268 H   0  0  0  0  0  0  0  0  0  0  0  0
   47.3790    5.8034   12.5675 H   0  0  0  0  0  0  0  0  0  0  0  0
   42.7974    2.9056   10.2667 H   0  0  0  0  0  0  0  0  0  0  0  0
   44.4109    1.1502   10.0336 H   0  0  0  0  0  0  0  0  0  0  0  0
   45.4401    1.4865    8.7191 H   0  0  0  0  0  0  0  0  0  0  0  0
   43.6015    9.7286   11.3704 H   0  0  0  0  0  0  0  0  0  0  0  0
   48.0927    8.1467   12.7859 H   0  0  0  0  0  0  0  0  0  0  0  0
   45.3576   11.3608   12.0009 H   0  0  0  0  0  0  0  0  0  0  0  0
   47.5993   10.5605   12.7047 H   0  0  0  0  0  0  0  0  0  0  0  0
  2  1  1  0
  3  2  2  0
  4  1  1  0
  5  8  1  0
  6  2  1  0
  7  9  1  0
  8  3  1  0
  9  4  2  0
 10  1  2  0
 11  5  2  0
 12  5  1  0
 13  4  1  0
 14  9  1  0
 15 13  2  0
 16 15  1  0
  6  7  2  0
 14 16  2  0
  6 17  1  0
  7 18  1  0
  8 19  1  0
 12 20  1  0
 12 21  1  0
 13 22  1  0
 14 23  1  0
 15 24  1  0
 16 25  1  0
M  END
> <Uni-Dock RESULT> 
ENERGY=   -4.027  LOWER_BOUND=    3.490  UPPER_BOUND=    6.129
INTER + INTRA:          -4.027
INTER:                  -4.027
INTRA:                   0.000
UNBOUND:                 0.000

$$$$

     RDKit          3D

 25 26  0  0  0  0  0  0  0  0999 V2000
   43.7015    8.2100   11.3061 C   0  0  0  0  0  0  0  0  0  0  0  0
   43.8528    6.7095   11.5643 C   0  0  0  0  0  0  0  0  0  0  0  0
   42.9403    5.9384   11.0505 N   0  0  0  0  0  0  0  0  0  0  0  0
   44.8327    9.0977   11.6411 C   0  0  0  0  0  0  0  0  0  0  0  0
   44.1067    3.9021   10.5533 C   0  0  0  0  0  0  0  0  0  0  0  0
   45.0072    6.3072   12.4155 C   0  0  0  0  0  0  0  0  0  0  0  0
   45.9569    7.1819   12.7651 C   0  0  0  0  0  0  0  0  0  0  0  0
   43.0562    4.5721   11.1603 N   0  0  0  0  0  0  0  0  0  0  0  0
   45.9245    8.5816   12.3460 C   0  0  0  0  0  0  0  0  0  0  0  0
   42.6629    8.6653   10.8444 O   0  0  0  0  0  0  0  0  0  0  0  0
   45.1177    4.3900   10.0672 O   0  0  0  0  0  0  0  0  0  0  0  0
   43.9221    2.5493   10.5692 N   0  0  0  0  0  0  0  0  0  0  0  0
   44.7957   10.4465   11.2648 C   0  0  0  0  0  0  0  0  0  0  0  0
   46.9879    9.4354   12.6662 C   0  0  0  0  0  0  0  0  0  0  0  0
   45.8608   11.2859   11.5872 C   0  0  0  0  0  0  0  0  0  0  0  0
   46.9559   10.7802   12.2861 C   0  0  0  0  0  0  0  0  0  0  0  0
   45.0657    5.2737   12.7296 H   0  0  0  0  0  0  0  0  0  0  0  0
   46.7952    6.8506   13.3715 H   0  0  0  0  0  0  0  0  0  0  0  0
   42.1712    4.1162   10.9582 H   0  0  0  0  0  0  0  0  0  0  0  0
   43.4843    2.1599   11.3920 H   0  0  0  0  0  0  0  0  0  0  0  0
   44.7332    2.0392   10.2404 H   0  0  0  0  0  0  0  0  0  0  0  0
   43.9402   10.8416   10.7201 H   0  0  0  0  0  0  0  0  0  0  0  0
   47.8525    9.0653   13.2131 H   0  0  0  0  0  0  0  0  0  0  0  0
   45.8360   12.3326   11.2933 H   0  0  0  0  0  0  0  0  0  0  0  0
   47.7874   11.4350   12.5373 H   0  0  0  0  0  0  0  0  0  0  0  0
  2  1  1  0
  3  2  2  0
  4  1  1  0
  5  8  1  0
  6  2  1  0
  7  9  1  0
  8  3  1  0
  9  4  2  0
 10  1  2  0
 11  5  2  0
 12  5  1  0
 13  4  1  0
 14  9  1  0
 15 13  2  0
 16 15  1  0
  6  7  2  0
 14 16  2  0
  6 17  1  0
  7 18  1  0
  8 19  1  0
 12 20  1  0
 12 21  1  0
 13 22  1  0
 14 23  1  0
 15 24  1  0
 16 25  1  0
M  END
> <Uni-Dock RESULT> 
ENERGY=   -3.932  LOWER_BOUND=    4.101  UPPER_BOUND=    6.641
INTER + INTRA:          -3.932
INTER:                  -3.932
INTRA:                   0.000
UNBOUND:                 0.000

$$$$

     RDKit          3D

 25 26  0  0  0  0  0  0  0  0999 V2000
   45.3583    7.7577   12.4836 C   0  0  0  0  0  0  0  0  0  0  0  0
   46.7340    8.0922   13.0635 C   0  0  0  0  0  0  0  0  0  0  0  0
   47.0061    9.3544   13.2185 N   0  0  0  0  0  0  0  0  0  0  0  0
   44.9005    6.3547   12.5262 C   0  0  0  0  0  0  0  0  0  0  0  0
   48.4360    9.4131   15.1436 C   0  0  0  0  0  0  0  0  0  0  0  0
   47.6241    6.9307   13.3431 C   0  0  0  0  0  0  0  0  0  0  0  0
   47.1746    5.6728   13.2753 C   0  0  0  0  0  0  0  0  0  0  0  0
   48.1846    9.7330   13.8187 N   0  0  0  0  0  0  0  0  0  0  0  0
   45.7939    5.3530   12.9186 C   0  0  0  0  0  0  0  0  0  0  0  0
   44.6591    8.6302   11.9846 O   0  0  0  0  0  0  0  0  0  0  0  0
   47.8169    8.6290   15.8494 O   0  0  0  0  0  0  0  0  0  0  0  0
   49.5311   10.0714   15.6251 N   0  0  0  0  0  0  0  0  0  0  0  0
   43.5857    6.0388   12.1606 C   0  0  0  0  0  0  0  0  0  0  0  0
   45.3509    4.0244   12.9467 C   0  0  0  0  0  0  0  0  0  0  0  0
   43.1558    4.7133   12.1945 C   0  0  0  0  0  0  0  0  0  0  0  0
   44.0374    3.7078   12.5883 C   0  0  0  0  0  0  0  0  0  0  0  0
   48.6484    7.1369   13.6236 H   0  0  0  0  0  0  0  0  0  0  0  0
   47.8458    4.8496   13.5035 H   0  0  0  0  0  0  0  0  0  0  0  0
   48.3842   10.7126   13.6387 H   0  0  0  0  0  0  0  0  0  0  0  0
   50.3002   10.2039   14.9839 H   0  0  0  0  0  0  0  0  0  0  0  0
   49.8009    9.7589   16.5502 H   0  0  0  0  0  0  0  0  0  0  0  0
   42.8976    6.8238   11.8521 H   0  0  0  0  0  0  0  0  0  0  0  0
   46.0205    3.2216   13.2480 H   0  0  0  0  0  0  0  0  0  0  0  0
   42.1346    4.4659   11.9143 H   0  0  0  0  0  0  0  0  0  0  0  0
   43.7020    2.6734   12.6153 H   0  0  0  0  0  0  0  0  0  0  0  0
  2  1  1  0
  3  2  2  0
  4  1  1  0
  5  8  1  0
  6  2  1  0
  7  9  1  0
  8  3  1  0
  9  4  2  0
 10  1  2  0
 11  5  2  0
 12  5  1  0
 13  4  1  0
 14  9  1  0
 15 13  2  0
 16 15  1  0
  6  7  2  0
 14 16  2  0
  6 17  1  0
  7 18  1  0
  8 19  1  0
 12 20  1  0
 12 21  1  0
 13 22  1  0
 14 23  1  0
 15 24  1  0
 16 25  1  0
M  END
> <Uni-Dock RESULT> 
ENERGY=   -3.750  LOWER_BOUND=    5.658  UPPER_BOUND=    6.931
INTER + INTRA:          -3.750
INTER:                  -3.750
INTRA:                   0.000
UNBOUND:                 0.000

$$$$

     RDKit          3D

 25 26  0  0  0  0  0  0  0  0999 V2000
   46.5229    6.9780   12.5199 C   0  0  0  0  0  0  0  0  0  0  0  0
   47.6155    6.4307   13.4405 C   0  0  0  0  0  0  0  0  0  0  0  0
   48.6026    7.2337   13.7091 N   0  0  0  0  0  0  0  0  0  0  0  0
   45.2663    6.2138   12.3899 C   0  0  0  0  0  0  0  0  0  0  0  0
   49.2641    6.6248   15.9330 C   0  0  0  0  0  0  0  0  0  0  0  0
   47.4450    5.0203   13.8886 C   0  0  0  0  0  0  0  0  0  0  0  0
   46.3129    4.3456   13.6597 C   0  0  0  0  0  0  0  0  0  0  0  0
   49.5762    6.8486   14.6013 N   0  0  0  0  0  0  0  0  0  0  0  0
   45.1779    4.9375   12.9544 C   0  0  0  0  0  0  0  0  0  0  0  0
   46.6912    8.0181   11.8961 O   0  0  0  0  0  0  0  0  0  0  0  0
   48.1504    6.5219   16.4283 O   0  0  0  0  0  0  0  0  0  0  0  0
   50.3851    6.4887   16.7006 N   0  0  0  0  0  0  0  0  0  0  0  0
   44.1837    6.7653   11.6927 C   0  0  0  0  0  0  0  0  0  0  0  0
   43.9838    4.2182   12.8170 C   0  0  0  0  0  0  0  0  0  0  0  0
   42.9998    6.0407   11.5644 C   0  0  0  0  0  0  0  0  0  0  0  0
   42.9002    4.7692   12.1271 C   0  0  0  0  0  0  0  0  0  0  0  0
   48.2633    4.5599   14.4259 H   0  0  0  0  0  0  0  0  0  0  0  0
   46.2149    3.3243   14.0166 H   0  0  0  0  0  0  0  0  0  0  0  0
   50.3989    7.4385   14.5166 H   0  0  0  0  0  0  0  0  0  0  0  0
   51.1692    6.0109   16.2795 H   0  0  0  0  0  0  0  0  0  0  0  0
   50.1776    6.2047   17.6505 H   0  0  0  0  0  0  0  0  0  0  0  0
   44.2620    7.7576   11.2525 H   0  0  0  0  0  0  0  0  0  0  0  0
   43.8821    3.2231   13.2450 H   0  0  0  0  0  0  0  0  0  0  0  0
   42.1569    6.4680   11.0265 H   0  0  0  0  0  0  0  0  0  0  0  0
   41.9762    4.2038   12.0276 H   0  0  0  0  0  0  0  0  0  0  0  0
  2  1  1  0
  3  2  2  0
  4  1  1  0
  5  8  1  0
  6  2  1  0
  7  9  1  0
  8  3  1  0
  9  4  2  0
 10  1  2  0
 11  5  2  0
 12  5  1  0
 13  4  1  0
 14  9  1  0
 15 13  2  0
 16 15  1  0
  6  7  2  0
 14 16  2  0
  6 17  1  0
  7 18  1  0
  8 19  1  0
 12 20  1  0
 12 21  1  0
 13 22  1  0
 14 23  1  0
 15 24  1  0
 16 25  1  0
M  END
> <Uni-Dock RESULT> 
ENERGY=   -3.675  LOWER_BOUND=    5.724  UPPER_BOUND=    6.817
INTER + INTRA:          -3.675
INTER:                  -3.675
INTRA:                   0.000
UNBOUND:                 0.000

$$$$

     RDKit          3D

 25 26  0  0  0  0  0  0  0  0999 V2000
   50.2457    2.4079   17.1520 C   0  0  0  0  0  0  0  0  0  0  0  0
   49.6119    3.7617   17.4784 C   0  0  0  0  0  0  0  0  0  0  0  0
   48.3426    3.8837   17.2233 N   0  0  0  0  0  0  0  0  0  0  0  0
   51.6061    2.1301   17.6537 C   0  0  0  0  0  0  0  0  0  0  0  0
   47.5505    5.3997   18.9051 C   0  0  0  0  0  0  0  0  0  0  0  0
   50.5350    4.8026   18.0111 C   0  0  0  0  0  0  0  0  0  0  0  0
   51.7914    4.5090   18.3638 C   0  0  0  0  0  0  0  0  0  0  0  0
   47.6808    5.0377   17.5736 N   0  0  0  0  0  0  0  0  0  0  0  0
   52.3430    3.1608   18.2455 C   0  0  0  0  0  0  0  0  0  0  0  0
   49.6442    1.5796   16.4801 O   0  0  0  0  0  0  0  0  0  0  0  0
   48.1377    4.9223   19.8661 O   0  0  0  0  0  0  0  0  0  0  0  0
   46.6690    6.4299   19.0665 N   0  0  0  0  0  0  0  0  0  0  0  0
   52.1501    0.8462   17.5198 C   0  0  0  0  0  0  0  0  0  0  0  0
   53.6360    2.8877   18.7098 C   0  0  0  0  0  0  0  0  0  0  0  0
   53.4372    0.5860   17.9875 C   0  0  0  0  0  0  0  0  0  0  0  0
   54.1784    1.6056   18.5828 C   0  0  0  0  0  0  0  0  0  0  0  0
   50.1503    5.8074   18.1232 H   0  0  0  0  0  0  0  0  0  0  0  0
   52.4322    5.2885   18.7662 H   0  0  0  0  0  0  0  0  0  0  0  0
   46.7892    5.1045   17.0914 H   0  0  0  0  0  0  0  0  0  0  0  0
   46.6634    7.1401   18.3483 H   0  0  0  0  0  0  0  0  0  0  0  0
   46.6528    6.7870   20.0143 H   0  0  0  0  0  0  0  0  0  0  0  0
   51.5718    0.0504   17.0540 H   0  0  0  0  0  0  0  0  0  0  0  0
   54.2354    3.6671   19.1757 H   0  0  0  0  0  0  0  0  0  0  0  0
   53.8605   -0.4107   17.8876 H   0  0  0  0  0  0  0  0  0  0  0  0
   55.1826    1.4027   18.9483 H   0  0  0  0  0  0  0  0  0  0  0  0
  2  1  1  0
  3  2  2  0
  4  1  1  0
  5  8  1  0
  6  2  1  0
  7  9  1  0
  8  3  1  0
  9  4  2  0
 10  1  2  0
 11  5  2  0
 12  5  1  0
 13  4  1  0
 14  9  1  0
 15 13  2  0
 16 15  1  0
  6  7  2  0
 14 16  2  0
  6 17  1  0
  7 18  1  0
  8 19  1  0
 12 20  1  0
 12 21  1  0
 13 22  1  0
 14 23  1  0
 15 24  1  0
 16 25  1  0
M  END
> <Uni-Dock RESULT> 
ENERGY=   -3.670  LOWER_BOUND=    9.331  UPPER_BOUND=   10.435
INTER + INTRA:          -3.670
INTER:                  -3.670
INTRA:                   0.000
UNBOUND:                 0.000

$$$$
