
     RDKit          3D

 84 92  0  0  0  0  0  0  0  0999 V2000
   48.7703   16.0068   15.4885 C   0  0  0  0  0  0  0  0  0  0  0  0
   49.2697   15.1820   14.4737 C   0  0  0  0  0  0  0  0  0  0  0  0
   50.4148   15.5725   13.7703 C   0  0  0  0  0  0  0  0  0  0  0  0
   51.0402   16.7751   14.0810 C   0  0  0  0  0  0  0  0  0  0  0  0
   50.5427   17.5991   15.0899 C   0  0  0  0  0  0  0  0  0  0  0  0
   49.4033   17.2118   15.7960 C   0  0  0  0  0  0  0  0  0  0  0  0
   52.1235    8.9243   14.0009 C   0  0  0  0  0  0  0  0  0  0  0  0
   53.4403    8.4931   14.1311 C   0  0  0  0  0  0  0  0  0  0  0  0
   53.7911    7.5437   15.0846 C   0  0  0  0  0  0  0  0  0  0  0  0
   52.8146    7.0159   15.9301 C   0  0  0  0  0  0  0  0  0  0  0  0
   51.4919    7.4461   15.8115 C   0  0  0  0  0  0  0  0  0  0  0  0
   51.1359    8.3957   14.8430 C   0  0  0  0  0  0  0  0  0  0  0  0
   46.8859   12.7135   12.8589 N   0  0  0  0  0  0  0  0  0  0  0  0
   47.5792   13.8160   13.2626 C   0  0  0  0  0  0  0  0  0  0  0  0
   47.0636   15.0189   12.5237 C   0  0  0  0  0  0  0  0  0  0  0  0
   45.7143   14.5536   12.0394 C   0  0  0  0  0  0  0  0  0  0  0  0
   45.8027   13.0350   12.0932 C   0  0  0  0  0  0  0  0  0  0  0  0
   48.8931   11.3420   14.3102 N   0  0  0  0  0  0  0  0  0  0  0  0
   49.5116   10.4118   15.0989 C   0  0  0  0  0  0  0  0  0  0  0  0
   49.9869   11.0546   16.2262 C   0  0  0  0  0  0  0  0  0  0  0  0
   49.7220   12.4402   16.0694 C   0  0  0  0  0  0  0  0  0  0  0  0
   49.0851   12.5867   14.8593 C   0  0  0  0  0  0  0  0  0  0  0  0
   47.4551    8.4395   13.5696 N   0  0  0  0  0  0  0  0  0  0  0  0
   46.7248    7.3482   13.1623 C   0  0  0  0  0  0  0  0  0  0  0  0
   47.3436    6.2106   13.6292 C   0  0  0  0  0  0  0  0  0  0  0  0
   48.5130    6.6309   14.3103 C   0  0  0  0  0  0  0  0  0  0  0  0
   48.5761    8.0092   14.2349 C   0  0  0  0  0  0  0  0  0  0  0  0
   45.5484    9.9182   12.0835 N   0  0  0  0  0  0  0  0  0  0  0  0
   44.7717   10.8923   11.5045 C   0  0  0  0  0  0  0  0  0  0  0  0
   43.6871   10.1740   10.8420 C   0  0  0  0  0  0  0  0  0  0  0  0
   43.8310    8.8716   11.0518 C   0  0  0  0  0  0  0  0  0  0  0  0
   45.0116    8.6771   11.8595 C   0  0  0  0  0  0  0  0  0  0  0  0
   44.8454   12.2638   11.4778 C   0  0  0  0  0  0  0  0  0  0  0  0
   48.5939   13.9103   14.1629 C   0  0  0  0  0  0  0  0  0  0  0  0
   49.7480    8.9041   14.7624 C   0  0  0  0  0  0  0  0  0  0  0  0
   45.4210    7.4487   12.2737 C   0  0  0  0  0  0  0  0  0  0  0  0
   43.7740   13.0017   10.7415 C   0  0  0  0  0  0  0  0  0  0  0  0
   43.9181   13.2726    9.3749 C   0  0  0  0  0  0  0  0  0  0  0  0
   42.9180   13.9704    8.7005 C   0  0  0  0  0  0  0  0  0  0  0  0
   41.7744   14.4074    9.3613 C   0  0  0  0  0  0  0  0  0  0  0  0
   41.6235   14.1375   10.7223 C   0  0  0  0  0  0  0  0  0  0  0  0
   42.6179   13.4350   11.4087 C   0  0  0  0  0  0  0  0  0  0  0  0
   44.7082    6.2079   11.9059 C   0  0  0  0  0  0  0  0  0  0  0  0
   44.9968    5.5701   10.6933 C   0  0  0  0  0  0  0  0  0  0  0  0
   44.3191    4.4025   10.3487 C   0  0  0  0  0  0  0  0  0  0  0  0
   43.3632    3.8556   11.1989 C   0  0  0  0  0  0  0  0  0  0  0  0
   43.0731    4.4909   12.4078 C   0  0  0  0  0  0  0  0  0  0  0  0
   43.7426    5.6663   12.7607 C   0  0  0  0  0  0  0  0  0  0  0  0
   44.5742    3.7680    9.1652 O   0  0  0  0  0  0  0  0  0  0  0  0
   43.0373   14.2442    7.3654 O   0  0  0  0  0  0  0  0  0  0  0  0
   52.1534   17.1289   13.3741 O   0  0  0  0  0  0  0  0  0  0  0  0
   54.4287    8.9985   13.3324 O   0  0  0  0  0  0  0  0  0  0  0  0
   47.8759   15.6960   16.0239 H   0  0  0  0  0  0  0  0  0  0  0  0
   50.8036   14.9335   12.9830 H   0  0  0  0  0  0  0  0  0  0  0  0
   51.0242   18.5385   15.3343 H   0  0  0  0  0  0  0  0  0  0  0  0
   49.0024   17.8401   16.5843 H   0  0  0  0  0  0  0  0  0  0  0  0
   51.8476    9.6728   13.2644 H   0  0  0  0  0  0  0  0  0  0  0  0
   54.8238    7.2216   15.1706 H   0  0  0  0  0  0  0  0  0  0  0  0
   53.0821    6.2854   16.6863 H   0  0  0  0  0  0  0  0  0  0  0  0
   50.7359    7.0615   16.4928 H   0  0  0  0  0  0  0  0  0  0  0  0
   47.7186   15.2528   11.6750 H   0  0  0  0  0  0  0  0  0  0  0  0
   46.9564   15.9156   13.1430 H   0  0  0  0  0  0  0  0  0  0  0  0
   45.5224   14.9605   11.0410 H   0  0  0  0  0  0  0  0  0  0  0  0
   44.9321   14.9079   12.7261 H   0  0  0  0  0  0  0  0  0  0  0  0
   48.3371   11.2173   13.4637 H   0  0  0  0  0  0  0  0  0  0  0  0
   50.5118   10.5876   17.0472 H   0  0  0  0  0  0  0  0  0  0  0  0
   49.9848   13.2382   16.7479 H   0  0  0  0  0  0  0  0  0  0  0  0
   47.1657    9.3895   13.3263 H   0  0  0  0  0  0  0  0  0  0  0  0
   47.0086    5.1958   13.4730 H   0  0  0  0  0  0  0  0  0  0  0  0
   49.2446    5.9815   14.7655 H   0  0  0  0  0  0  0  0  0  0  0  0
   42.8857   10.6183   10.2805 H   0  0  0  0  0  0  0  0  0  0  0  0
   43.1711    8.1050   10.6874 H   0  0  0  0  0  0  0  0  0  0  0  0
   44.8226   12.9271    8.8829 H   0  0  0  0  0  0  0  0  0  0  0  0
   41.0053   14.9469    8.8181 H   0  0  0  0  0  0  0  0  0  0  0  0
   40.7404   14.4718   11.2558 H   0  0  0  0  0  0  0  0  0  0  0  0
   42.5222   13.2156   12.4693 H   0  0  0  0  0  0  0  0  0  0  0  0
   45.7442    6.0144   10.0424 H   0  0  0  0  0  0  0  0  0  0  0  0
   42.8376    2.9502   10.9197 H   0  0  0  0  0  0  0  0  0  0  0  0
   42.3201    4.0803   13.0735 H   0  0  0  0  0  0  0  0  0  0  0  0
   43.5198    6.1777   13.6943 H   0  0  0  0  0  0  0  0  0  0  0  0
   45.1716    4.3546    8.6686 H   0  0  0  0  0  0  0  0  0  0  0  0
   43.8579   13.8080    7.0800 H   0  0  0  0  0  0  0  0  0  0  0  0
   52.4209   18.0126   13.6668 H   0  0  0  0  0  0  0  0  0  0  0  0
   54.0089    9.6544   12.7486 H   0  0  0  0  0  0  0  0  0  0  0  0
 25 26  2  0
 26 27  1  0
 27 23  1  0
 28 29  1  0
  1  2  2  0
  3  4  2  0
  7  8  2  0
 14 15  1  0
 29 30  1  0
 30 31  2  0
 31 32  1  0
 32 28  2  0
 15 16  1  0
 29 33  2  0
 17 33  1  0
 16 17  1  0
 14 34  2  0
 22 34  1  0
 17 13  2  0
 27 35  2  0
 19 35  1  0
 18 19  1  0
 24 36  2  0
 32 36  1  0
  8  9  1  0
  4  5  1  0
 37 38  2  0
  9 10  2  0
 38 39  1  0
  2  3  1  0
 39 40  2  0
 10 11  1  0
 40 41  1  0
 19 20  2  0
 41 42  2  0
 42 37  1  0
 33 37  1  0
 20 21  1  0
 21 22  2  0
 43 44  2  0
 22 18  1  0
 44 45  1  0
 23 24  1  0
 45 46  2  0
  5  6  2  0
 46 47  1  0
 11 12  2  0
 47 48  2  0
 48 43  1  0
 36 43  1  0
 12  7  1  0
 45 49  1  0
 13 14  1  0
 39 50  1  0
 35 12  1  0
 34  2  1  0
  6  1  1  0
  4 51  1  0
 24 25  1  0
  8 52  1  0
  1 53  1  0
  3 54  1  0
  5 55  1  0
  6 56  1  0
  7 57  1  0
  9 58  1  0
 10 59  1  0
 11 60  1  0
 15 61  1  0
 15 62  1  0
 16 63  1  0
 16 64  1  0
 18 65  1  0
 20 66  1  0
 21 67  1  0
 23 68  1  0
 25 69  1  0
 26 70  1  0
 30 71  1  0
 31 72  1  0
 38 73  1  0
 40 74  1  0
 41 75  1  0
 42 76  1  0
 44 77  1  0
 46 78  1  0
 47 79  1  0
 48 80  1  0
 49 81  1  0
 50 82  1  0
 51 83  1  0
 52 84  1  0
M  END
> <Uni-Dock RESULT> 
ENERGY=   -6.465  LOWER_BOUND=    0.000  UPPER_BOUND=    0.000
INTER + INTRA:          -6.465
INTER:                  -6.465
INTRA:                   0.000
UNBOUND:                 0.000

$$$$

     RDKit          3D

 84 92  0  0  0  0  0  0  0  0999 V2000
   43.9292    4.9465   12.4402 C   0  0  0  0  0  0  0  0  0  0  0  0
   44.7354    5.6445   11.5334 C   0  0  0  0  0  0  0  0  0  0  0  0
   45.0454    5.0631   10.2987 C   0  0  0  0  0  0  0  0  0  0  0  0
   44.5562    3.7990    9.9878 C   0  0  0  0  0  0  0  0  0  0  0  0
   43.7550    3.1011   10.8909 C   0  0  0  0  0  0  0  0  0  0  0  0
   43.4407    3.6787   12.1215 C   0  0  0  0  0  0  0  0  0  0  0  0
   44.2820   11.4032    7.7706 C   0  0  0  0  0  0  0  0  0  0  0  0
   43.7454   11.6476    6.5100 C   0  0  0  0  0  0  0  0  0  0  0  0
   42.7287   12.5798    6.3339 C   0  0  0  0  0  0  0  0  0  0  0  0
   42.2307   13.2794    7.4338 C   0  0  0  0  0  0  0  0  0  0  0  0
   42.7582   13.0373    8.7033 C   0  0  0  0  0  0  0  0  0  0  0  0
   43.7908   12.1050    8.8797 C   0  0  0  0  0  0  0  0  0  0  0  0
   47.0120    8.3516   12.9018 N   0  0  0  0  0  0  0  0  0  0  0  0
   46.4131    7.1810   12.5410 C   0  0  0  0  0  0  0  0  0  0  0  0
   47.2780    6.0315   12.9762 C   0  0  0  0  0  0  0  0  0  0  0  0
   48.1598    6.6619   14.0235 C   0  0  0  0  0  0  0  0  0  0  0  0
   48.0789    8.1532   13.7298 C   0  0  0  0  0  0  0  0  0  0  0  0
   45.0033    9.4874   11.2615 N   0  0  0  0  0  0  0  0  0  0  0  0
   44.0592   10.3549   10.7859 C   0  0  0  0  0  0  0  0  0  0  0  0
   42.8407    9.7029   10.7851 C   0  0  0  0  0  0  0  0  0  0  0  0
   43.0745    8.3636   11.1927 C   0  0  0  0  0  0  0  0  0  0  0  0
   44.4234    8.2545   11.4377 C   0  0  0  0  0  0  0  0  0  0  0  0
   46.1528   12.5286   11.9478 N   0  0  0  0  0  0  0  0  0  0  0  0
   46.7668   13.6931   12.3439 C   0  0  0  0  0  0  0  0  0  0  0  0
   46.1280   14.7510   11.7373 C   0  0  0  0  0  0  0  0  0  0  0  0
   45.1155   14.1997   10.9132 C   0  0  0  0  0  0  0  0  0  0  0  0
   45.1694   12.8245   11.0369 C   0  0  0  0  0  0  0  0  0  0  0  0
   48.1634   11.2708   13.4989 N   0  0  0  0  0  0  0  0  0  0  0  0
   48.9578   10.3920   14.1947 C   0  0  0  0  0  0  0  0  0  0  0  0
   49.9256   11.2267   14.9002 C   0  0  0  0  0  0  0  0  0  0  0  0
   49.6795   12.5034   14.6352 C   0  0  0  0  0  0  0  0  0  0  0  0
   48.5424   12.5642   13.7478 C   0  0  0  0  0  0  0  0  0  0  0  0
   48.9620    9.0243   14.3225 C   0  0  0  0  0  0  0  0  0  0  0  0
   45.2405    6.9840   11.8813 C   0  0  0  0  0  0  0  0  0  0  0  0
   44.3027   11.7966   10.2340 C   0  0  0  0  0  0  0  0  0  0  0  0
   48.0191   13.7392   13.3079 C   0  0  0  0  0  0  0  0  0  0  0  0
   49.9978    8.4139   15.2108 C   0  0  0  0  0  0  0  0  0  0  0  0
   51.2509    8.0632   14.6927 C   0  0  0  0  0  0  0  0  0  0  0  0
   52.2056    7.4852   15.5272 C   0  0  0  0  0  0  0  0  0  0  0  0
   51.9367    7.2463   16.8712 C   0  0  0  0  0  0  0  0  0  0  0  0
   50.6911    7.5967   17.3941 C   0  0  0  0  0  0  0  0  0  0  0  0
   49.7269    8.1807   16.5679 C   0  0  0  0  0  0  0  0  0  0  0  0
   48.5899   15.0509   13.6774 C   0  0  0  0  0  0  0  0  0  0  0  0
   49.6503   15.5852   12.9352 C   0  0  0  0  0  0  0  0  0  0  0  0
   50.1881   16.8205   13.2901 C   0  0  0  0  0  0  0  0  0  0  0  0
   49.6792   17.5363   14.3691 C   0  0  0  0  0  0  0  0  0  0  0  0
   48.6229   17.0046   15.1112 C   0  0  0  0  0  0  0  0  0  0  0  0
   48.0797   15.7631   14.7679 C   0  0  0  0  0  0  0  0  0  0  0  0
   51.2313   17.3576   12.5889 O   0  0  0  0  0  0  0  0  0  0  0  0
   53.4366    7.1366   15.0426 O   0  0  0  0  0  0  0  0  0  0  0  0
   44.8795    3.2582    8.7765 O   0  0  0  0  0  0  0  0  0  0  0  0
   44.1951   10.9706    5.4102 O   0  0  0  0  0  0  0  0  0  0  0  0
   43.7004    5.4057   13.3993 H   0  0  0  0  0  0  0  0  0  0  0  0
   45.6705    5.6035    9.5941 H   0  0  0  0  0  0  0  0  0  0  0  0
   43.3734    2.1149   10.6551 H   0  0  0  0  0  0  0  0  0  0  0  0
   42.8184    3.1506   12.8362 H   0  0  0  0  0  0  0  0  0  0  0  0
   45.0689   10.6689    7.9136 H   0  0  0  0  0  0  0  0  0  0  0  0
   42.3232   12.7549    5.3427 H   0  0  0  0  0  0  0  0  0  0  0  0
   41.4278   13.9980    7.3076 H   0  0  0  0  0  0  0  0  0  0  0  0
   42.3473   13.5564    9.5667 H   0  0  0  0  0  0  0  0  0  0  0  0
   47.8792    5.6682   12.1333 H   0  0  0  0  0  0  0  0  0  0  0  0
   46.7246    5.1884   13.4030 H   0  0  0  0  0  0  0  0  0  0  0  0
   49.1687    6.2414   13.9553 H   0  0  0  0  0  0  0  0  0  0  0  0
   47.7531    6.4544   15.0237 H   0  0  0  0  0  0  0  0  0  0  0  0
   45.9811    9.6515   11.5027 H   0  0  0  0  0  0  0  0  0  0  0  0
   41.8960   10.1272   10.4767 H   0  0  0  0  0  0  0  0  0  0  0  0
   42.3490    7.5680   11.2756 H   0  0  0  0  0  0  0  0  0  0  0  0
   46.4758   11.6195   12.2863 H   0  0  0  0  0  0  0  0  0  0  0  0
   46.3798   15.7950   11.8515 H   0  0  0  0  0  0  0  0  0  0  0  0
   44.4533   14.7582   10.2701 H   0  0  0  0  0  0  0  0  0  0  0  0
   50.7105   10.8761   15.5453 H   0  0  0  0  0  0  0  0  0  0  0  0
   50.2312   13.3389   15.0271 H   0  0  0  0  0  0  0  0  0  0  0  0
   51.4345    8.2535   13.6392 H   0  0  0  0  0  0  0  0  0  0  0  0
   52.6942    6.7978   17.5058 H   0  0  0  0  0  0  0  0  0  0  0  0
   50.4614    7.4164   18.4386 H   0  0  0  0  0  0  0  0  0  0  0  0
   48.7492    8.4596   16.9535 H   0  0  0  0  0  0  0  0  0  0  0  0
   50.0350   15.0096   12.0984 H   0  0  0  0  0  0  0  0  0  0  0  0
   50.1077   18.4937   14.6407 H   0  0  0  0  0  0  0  0  0  0  0  0
   48.2258   17.5483   15.9629 H   0  0  0  0  0  0  0  0  0  0  0  0
   47.2636   15.3317   15.3428 H   0  0  0  0  0  0  0  0  0  0  0  0
   51.5167   16.6698   11.9619 H   0  0  0  0  0  0  0  0  0  0  0  0
   53.4501    7.4379   14.1183 H   0  0  0  0  0  0  0  0  0  0  0  0
   44.5189    2.3597    8.7484 H   0  0  0  0  0  0  0  0  0  0  0  0
   44.8820   10.3554    5.7217 H   0  0  0  0  0  0  0  0  0  0  0  0
 25 26  2  0
 26 27  1  0
 27 23  1  0
 28 29  1  0
  1  2  2  0
  3  4  2  0
  7  8  2  0
 14 15  1  0
 29 30  1  0
 30 31  2  0
 31 32  1  0
 32 28  2  0
 15 16  1  0
 29 33  2  0
 17 33  1  0
 16 17  1  0
 14 34  2  0
 22 34  1  0
 17 13  2  0
 27 35  2  0
 19 35  1  0
 18 19  1  0
 24 36  2  0
 32 36  1  0
  8  9  1  0
  4  5  1  0
 37 38  2  0
  9 10  2  0
 38 39  1  0
  2  3  1  0
 39 40  2  0
 10 11  1  0
 40 41  1  0
 19 20  2  0
 41 42  2  0
 42 37  1  0
 33 37  1  0
 20 21  1  0
 21 22  2  0
 43 44  2  0
 22 18  1  0
 44 45  1  0
 23 24  1  0
 45 46  2  0
  5  6  2  0
 46 47  1  0
 11 12  2  0
 47 48  2  0
 48 43  1  0
 36 43  1  0
 12  7  1  0
 45 49  1  0
 13 14  1  0
 39 50  1  0
 35 12  1  0
 34  2  1  0
  6  1  1  0
  4 51  1  0
 24 25  1  0
  8 52  1  0
  1 53  1  0
  3 54  1  0
  5 55  1  0
  6 56  1  0
  7 57  1  0
  9 58  1  0
 10 59  1  0
 11 60  1  0
 15 61  1  0
 15 62  1  0
 16 63  1  0
 16 64  1  0
 18 65  1  0
 20 66  1  0
 21 67  1  0
 23 68  1  0
 25 69  1  0
 26 70  1  0
 30 71  1  0
 31 72  1  0
 38 73  1  0
 40 74  1  0
 41 75  1  0
 42 76  1  0
 44 77  1  0
 46 78  1  0
 47 79  1  0
 48 80  1  0
 49 81  1  0
 50 82  1  0
 51 83  1  0
 52 84  1  0
M  END
> <Uni-Dock RESULT> 
ENERGY=   -6.431  LOWER_BOUND=    1.357  UPPER_BOUND=   10.795
INTER + INTRA:          -6.431
INTER:                  -6.431
INTRA:                   0.000
UNBOUND:                 0.000

$$$$

     RDKit          3D

 84 92  0  0  0  0  0  0  0  0999 V2000
   41.6880   13.3646   10.7467 C   0  0  0  0  0  0  0  0  0  0  0  0
   42.9879   13.1777   10.2617 C   0  0  0  0  0  0  0  0  0  0  0  0
   43.3238   13.6568    8.9905 C   0  0  0  0  0  0  0  0  0  0  0  0
   42.3647   14.3063    8.2210 C   0  0  0  0  0  0  0  0  0  0  0  0
   41.0687   14.4911    8.7014 C   0  0  0  0  0  0  0  0  0  0  0  0
   40.7306   14.0182    9.9698 C   0  0  0  0  0  0  0  0  0  0  0  0
   49.3309   15.3613   11.8508 C   0  0  0  0  0  0  0  0  0  0  0  0
   50.0369   16.5039   11.4863 C   0  0  0  0  0  0  0  0  0  0  0  0
   50.5155   17.3863   12.4485 C   0  0  0  0  0  0  0  0  0  0  0  0
   50.2828   17.1315   13.8005 C   0  0  0  0  0  0  0  0  0  0  0  0
   49.5706   15.9913   14.1763 C   0  0  0  0  0  0  0  0  0  0  0  0
   49.0970   15.0957   13.2067 C   0  0  0  0  0  0  0  0  0  0  0  0
   45.0579   10.3784   11.7659 N   0  0  0  0  0  0  0  0  0  0  0  0
   44.1621   11.1412   11.0769 C   0  0  0  0  0  0  0  0  0  0  0  0
   43.3241   10.2486   10.2051 C   0  0  0  0  0  0  0  0  0  0  0  0
   43.5200    8.8943   10.8370 C   0  0  0  0  0  0  0  0  0  0  0  0
   44.7996    9.0434   11.6478 C   0  0  0  0  0  0  0  0  0  0  0  0
   46.1741   12.8954   12.4256 N   0  0  0  0  0  0  0  0  0  0  0  0
   46.7919   13.8918   13.1294 C   0  0  0  0  0  0  0  0  0  0  0  0
   45.8923   14.9298   13.2809 C   0  0  0  0  0  0  0  0  0  0  0  0
   44.7168   14.5819   12.5654 C   0  0  0  0  0  0  0  0  0  0  0  0
   44.9407   13.3411   12.0163 C   0  0  0  0  0  0  0  0  0  0  0  0
   48.5065   11.3901   14.2518 N   0  0  0  0  0  0  0  0  0  0  0  0
   49.3832   10.5953   14.9516 C   0  0  0  0  0  0  0  0  0  0  0  0
   50.3195   11.4046   15.5545 C   0  0  0  0  0  0  0  0  0  0  0  0
   50.0183   12.7351   15.1706 C   0  0  0  0  0  0  0  0  0  0  0  0
   48.9127   12.6982   14.3426 C   0  0  0  0  0  0  0  0  0  0  0  0
   47.3465    8.9292   13.4588 N   0  0  0  0  0  0  0  0  0  0  0  0
   46.5496    7.9313   12.9523 C   0  0  0  0  0  0  0  0  0  0  0  0
   47.1188    6.6888   13.4655 C   0  0  0  0  0  0  0  0  0  0  0  0
   48.1636    6.9694   14.2339 C   0  0  0  0  0  0  0  0  0  0  0  0
   48.3261    8.4036   14.2606 C   0  0  0  0  0  0  0  0  0  0  0  0
   45.4311    7.9324   12.1547 C   0  0  0  0  0  0  0  0  0  0  0  0
   43.9896   12.4899   11.0947 C   0  0  0  0  0  0  0  0  0  0  0  0
   48.2821   13.9238   13.5992 C   0  0  0  0  0  0  0  0  0  0  0  0
   49.2983    9.0169   14.9863 C   0  0  0  0  0  0  0  0  0  0  0  0
   44.8132    6.6119   11.8248 C   0  0  0  0  0  0  0  0  0  0  0  0
   45.2409    5.8965   10.6992 C   0  0  0  0  0  0  0  0  0  0  0  0
   44.6508    4.6713   10.3948 C   0  0  0  0  0  0  0  0  0  0  0  0
   43.6387    4.1427   11.1897 C   0  0  0  0  0  0  0  0  0  0  0  0
   43.2106    4.8492   12.3147 C   0  0  0  0  0  0  0  0  0  0  0  0
   43.7976    6.0772   12.6324 C   0  0  0  0  0  0  0  0  0  0  0  0
   50.2884    8.2644   15.7840 C   0  0  0  0  0  0  0  0  0  0  0  0
   51.4553    7.7846   15.1766 C   0  0  0  0  0  0  0  0  0  0  0  0
   52.3840    7.0718   15.9319 C   0  0  0  0  0  0  0  0  0  0  0  0
   52.1717    6.8368   17.2866 C   0  0  0  0  0  0  0  0  0  0  0  0
   51.0082    7.3132   17.8937 C   0  0  0  0  0  0  0  0  0  0  0  0
   50.0665    8.0242   17.1440 C   0  0  0  0  0  0  0  0  0  0  0  0
   53.5248    6.5828   15.3593 O   0  0  0  0  0  0  0  0  0  0  0  0
   45.0544    3.9551    9.3014 O   0  0  0  0  0  0  0  0  0  0  0  0
   42.7234   14.7590    6.9838 O   0  0  0  0  0  0  0  0  0  0  0  0
   50.2711   16.7970   10.1712 O   0  0  0  0  0  0  0  0  0  0  0  0
   41.4368   12.9821   11.7335 H   0  0  0  0  0  0  0  0  0  0  0  0
   44.3318   13.5129    8.6131 H   0  0  0  0  0  0  0  0  0  0  0  0
   40.3167   14.9940    8.1052 H   0  0  0  0  0  0  0  0  0  0  0  0
   39.7274   14.1533   10.3599 H   0  0  0  0  0  0  0  0  0  0  0  0
   48.9469   14.6753   11.1019 H   0  0  0  0  0  0  0  0  0  0  0  0
   51.0629   18.2722   12.1433 H   0  0  0  0  0  0  0  0  0  0  0  0
   50.6402   17.8221   14.5571 H   0  0  0  0  0  0  0  0  0  0  0  0
   49.3583   15.8094   15.2277 H   0  0  0  0  0  0  0  0  0  0  0  0
   43.7071   10.2538    9.1769 H   0  0  0  0  0  0  0  0  0  0  0  0
   42.2604   10.5084   10.1857 H   0  0  0  0  0  0  0  0  0  0  0  0
   43.5661    8.1281   10.0559 H   0  0  0  0  0  0  0  0  0  0  0  0
   42.6763    8.6723   11.5060 H   0  0  0  0  0  0  0  0  0  0  0  0
   46.4880   11.9461   12.2216 H   0  0  0  0  0  0  0  0  0  0  0  0
   46.0777   15.8569   13.8042 H   0  0  0  0  0  0  0  0  0  0  0  0
   43.8226   15.1757   12.4465 H   0  0  0  0  0  0  0  0  0  0  0  0
   47.7284   10.9839   13.7274 H   0  0  0  0  0  0  0  0  0  0  0  0
   51.1402   11.0741   16.1738 H   0  0  0  0  0  0  0  0  0  0  0  0
   50.5839   13.6126   15.4431 H   0  0  0  0  0  0  0  0  0  0  0  0
   46.7519    5.6978   13.2699 H   0  0  0  0  0  0  0  0  0  0  0  0
   48.7697    6.2467   14.7500 H   0  0  0  0  0  0  0  0  0  0  0  0
   46.0276    6.3331   10.0907 H   0  0  0  0  0  0  0  0  0  0  0  0
   43.1935    3.1856   10.9379 H   0  0  0  0  0  0  0  0  0  0  0  0
   42.4214    4.4551   12.9456 H   0  0  0  0  0  0  0  0  0  0  0  0
   43.4783    6.6455   13.5026 H   0  0  0  0  0  0  0  0  0  0  0  0
   51.6011    7.9761   14.1174 H   0  0  0  0  0  0  0  0  0  0  0  0
   52.8972    6.2768   17.8644 H   0  0  0  0  0  0  0  0  0  0  0  0
   50.8257    7.1251   18.9473 H   0  0  0  0  0  0  0  0  0  0  0  0
   49.1510    8.3925   17.6009 H   0  0  0  0  0  0  0  0  0  0  0  0
   53.4363    6.7430   14.4032 H   0  0  0  0  0  0  0  0  0  0  0  0
   45.7992    4.4516    8.9222 H   0  0  0  0  0  0  0  0  0  0  0  0
   41.9311   15.1217    6.5607 H   0  0  0  0  0  0  0  0  0  0  0  0
   49.8528   16.0908    9.6482 H   0  0  0  0  0  0  0  0  0  0  0  0
 25 26  2  0
 26 27  1  0
 27 23  1  0
 28 29  1  0
  1  2  2  0
  3  4  2  0
  7  8  2  0
 14 15  1  0
 29 30  1  0
 30 31  2  0
 31 32  1  0
 32 28  2  0
 15 16  1  0
 29 33  2  0
 17 33  1  0
 16 17  1  0
 14 34  2  0
 22 34  1  0
 17 13  2  0
 27 35  2  0
 19 35  1  0
 18 19  1  0
 24 36  2  0
 32 36  1  0
  8  9  1  0
  4  5  1  0
 37 38  2  0
  9 10  2  0
 38 39  1  0
  2  3  1  0
 39 40  2  0
 10 11  1  0
 40 41  1  0
 19 20  2  0
 41 42  2  0
 42 37  1  0
 33 37  1  0
 20 21  1  0
 21 22  2  0
 43 44  2  0
 22 18  1  0
 44 45  1  0
 23 24  1  0
 45 46  2  0
  5  6  2  0
 46 47  1  0
 11 12  2  0
 47 48  2  0
 48 43  1  0
 36 43  1  0
 12  7  1  0
 45 49  1  0
 13 14  1  0
 39 50  1  0
 35 12  1  0
 34  2  1  0
  6  1  1  0
  4 51  1  0
 24 25  1  0
  8 52  1  0
  1 53  1  0
  3 54  1  0
  5 55  1  0
  6 56  1  0
  7 57  1  0
  9 58  1  0
 10 59  1  0
 11 60  1  0
 15 61  1  0
 15 62  1  0
 16 63  1  0
 16 64  1  0
 18 65  1  0
 20 66  1  0
 21 67  1  0
 23 68  1  0
 25 69  1  0
 26 70  1  0
 30 71  1  0
 31 72  1  0
 38 73  1  0
 40 74  1  0
 41 75  1  0
 42 76  1  0
 44 77  1  0
 46 78  1  0
 47 79  1  0
 48 80  1  0
 49 81  1  0
 50 82  1  0
 51 83  1  0
 52 84  1  0
M  END
> <Uni-Dock RESULT> 
ENERGY=   -5.917  LOWER_BOUND=    1.198  UPPER_BOUND=    7.759
INTER + INTRA:          -5.917
INTER:                  -5.917
INTRA:                   0.000
UNBOUND:                 0.000

$$$$

     RDKit          3D

 84 92  0  0  0  0  0  0  0  0999 V2000
   45.3550    6.0216   10.7821 C   0  0  0  0  0  0  0  0  0  0  0  0
   45.0434    6.6832   11.9757 C   0  0  0  0  0  0  0  0  0  0  0  0
   44.1028    6.1233   12.8477 C   0  0  0  0  0  0  0  0  0  0  0  0
   43.4842    4.9222   12.5184 C   0  0  0  0  0  0  0  0  0  0  0  0
   43.7915    4.2631   11.3286 C   0  0  0  0  0  0  0  0  0  0  0  0
   44.7313    4.8161   10.4581 C   0  0  0  0  0  0  0  0  0  0  0  0
   48.2825    8.3090   17.8402 C   0  0  0  0  0  0  0  0  0  0  0  0
   48.4737    7.5990   19.0217 C   0  0  0  0  0  0  0  0  0  0  0  0
   49.7531    7.3313   19.4962 C   0  0  0  0  0  0  0  0  0  0  0  0
   50.8656    7.7731   18.7791 C   0  0  0  0  0  0  0  0  0  0  0  0
   50.6846    8.4810   17.5897 C   0  0  0  0  0  0  0  0  0  0  0  0
   49.3944    8.7603   17.1164 C   0  0  0  0  0  0  0  0  0  0  0  0
   45.7255   10.4088   12.1703 N   0  0  0  0  0  0  0  0  0  0  0  0
   45.2318    9.1635   11.9166 C   0  0  0  0  0  0  0  0  0  0  0  0
   43.9760    9.2891   11.1005 C   0  0  0  0  0  0  0  0  0  0  0  0
   44.0931   10.6790   10.5294 C   0  0  0  0  0  0  0  0  0  0  0  0
   45.0905   11.3749   11.4447 C   0  0  0  0  0  0  0  0  0  0  0  0
   47.4217    9.0009   13.9469 N   0  0  0  0  0  0  0  0  0  0  0  0
   48.5270    8.6396   14.6666 C   0  0  0  0  0  0  0  0  0  0  0  0
   48.9048    7.3729   14.2636 C   0  0  0  0  0  0  0  0  0  0  0  0
   47.9387    6.9180   13.3285 C   0  0  0  0  0  0  0  0  0  0  0  0
   47.0169    7.9291   13.1886 C   0  0  0  0  0  0  0  0  0  0  0  0
   48.9119   11.8481   14.7915 N   0  0  0  0  0  0  0  0  0  0  0  0
   49.4009   13.1138   15.0125 C   0  0  0  0  0  0  0  0  0  0  0  0
   50.3947   13.0378   15.9621 C   0  0  0  0  0  0  0  0  0  0  0  0
   50.4803   11.6796   16.3570 C   0  0  0  0  0  0  0  0  0  0  0  0
   49.5350   10.9691   15.6421 C   0  0  0  0  0  0  0  0  0  0  0  0
   47.1070   13.1544   13.0405 N   0  0  0  0  0  0  0  0  0  0  0  0
   46.1546   13.4801   12.1055 C   0  0  0  0  0  0  0  0  0  0  0  0
   46.2613   14.9263   11.9377 C   0  0  0  0  0  0  0  0  0  0  0  0
   47.2312   15.3880   12.7168 C   0  0  0  0  0  0  0  0  0  0  0  0
   47.8036   14.2695   13.4277 C   0  0  0  0  0  0  0  0  0  0  0  0
   45.2490   12.7392   11.3857 C   0  0  0  0  0  0  0  0  0  0  0  0
   45.7129    7.9530   12.3070 C   0  0  0  0  0  0  0  0  0  0  0  0
   49.2012    9.4495   15.8206 C   0  0  0  0  0  0  0  0  0  0  0  0
   48.8443   14.4062   14.2915 C   0  0  0  0  0  0  0  0  0  0  0  0
   44.3690   13.4664   10.4207 C   0  0  0  0  0  0  0  0  0  0  0  0
   43.1411   13.9897   10.8450 C   0  0  0  0  0  0  0  0  0  0  0  0
   42.3235   14.6568    9.9348 C   0  0  0  0  0  0  0  0  0  0  0  0
   42.7037   14.8124    8.6055 C   0  0  0  0  0  0  0  0  0  0  0  0
   43.9277   14.2961    8.1775 C   0  0  0  0  0  0  0  0  0  0  0  0
   44.7580   13.6286    9.0821 C   0  0  0  0  0  0  0  0  0  0  0  0
   49.4562   15.7158   14.5974 C   0  0  0  0  0  0  0  0  0  0  0  0
   48.9046   16.5282   15.5956 C   0  0  0  0  0  0  0  0  0  0  0  0
   49.4825   17.7642   15.8776 C   0  0  0  0  0  0  0  0  0  0  0  0
   50.6079   18.1998   15.1851 C   0  0  0  0  0  0  0  0  0  0  0  0
   51.1584   17.3919   14.1885 C   0  0  0  0  0  0  0  0  0  0  0  0
   50.5830   16.1525   13.8930 C   0  0  0  0  0  0  0  0  0  0  0  0
   48.9556   18.5807   16.8389 O   0  0  0  0  0  0  0  0  0  0  0  0
   41.1211   15.1774   10.3281 O   0  0  0  0  0  0  0  0  0  0  0  0
   42.5688    4.4040   13.3889 O   0  0  0  0  0  0  0  0  0  0  0  0
   47.4094    7.1350   19.7443 O   0  0  0  0  0  0  0  0  0  0  0  0
   46.0827    6.4697   10.1091 H   0  0  0  0  0  0  0  0  0  0  0  0
   43.8602    6.6352   13.7742 H   0  0  0  0  0  0  0  0  0  0  0  0
   43.3106    3.3285   11.0657 H   0  0  0  0  0  0  0  0  0  0  0  0
   44.9831    4.3171    9.5283 H   0  0  0  0  0  0  0  0  0  0  0  0
   47.2853    8.5111   17.4612 H   0  0  0  0  0  0  0  0  0  0  0  0
   49.8807    6.7751   20.4192 H   0  0  0  0  0  0  0  0  0  0  0  0
   51.8674    7.5562   19.1345 H   0  0  0  0  0  0  0  0  0  0  0  0
   51.5507    8.7958   17.0115 H   0  0  0  0  0  0  0  0  0  0  0  0
   43.0932    9.2107   11.7474 H   0  0  0  0  0  0  0  0  0  0  0  0
   43.8879    8.5534   10.2941 H   0  0  0  0  0  0  0  0  0  0  0  0
   43.1038   11.1477   10.4988 H   0  0  0  0  0  0  0  0  0  0  0  0
   44.4955   10.6268    9.5075 H   0  0  0  0  0  0  0  0  0  0  0  0
   46.9372    9.8975   13.8967 H   0  0  0  0  0  0  0  0  0  0  0  0
   49.7519    6.8160   14.6376 H   0  0  0  0  0  0  0  0  0  0  0  0
   47.9071    5.9587   12.8337 H   0  0  0  0  0  0  0  0  0  0  0  0
   48.1616   11.6818   14.1172 H   0  0  0  0  0  0  0  0  0  0  0  0
   50.9702   13.8668   16.3468 H   0  0  0  0  0  0  0  0  0  0  0  0
   51.1381   11.2844   17.1155 H   0  0  0  0  0  0  0  0  0  0  0  0
   45.6636   15.5319   11.2812 H   0  0  0  0  0  0  0  0  0  0  0  0
   47.5358   16.4165   12.7897 H   0  0  0  0  0  0  0  0  0  0  0  0
   42.8635   13.8497   11.8857 H   0  0  0  0  0  0  0  0  0  0  0  0
   42.0546   15.3375    7.9123 H   0  0  0  0  0  0  0  0  0  0  0  0
   44.2409   14.4050    7.1448 H   0  0  0  0  0  0  0  0  0  0  0  0
   45.7146   13.2166    8.7700 H   0  0  0  0  0  0  0  0  0  0  0  0
   48.0246   16.1714   16.1227 H   0  0  0  0  0  0  0  0  0  0  0  0
   51.0469   19.1650   15.4078 H   0  0  0  0  0  0  0  0  0  0  0  0
   52.0289   17.7267   13.6329 H   0  0  0  0  0  0  0  0  0  0  0  0
   50.9947   15.5169   13.1125 H   0  0  0  0  0  0  0  0  0  0  0  0
   48.1224   18.1629   17.1198 H   0  0  0  0  0  0  0  0  0  0  0  0
   41.0695   15.0244   11.2868 H   0  0  0  0  0  0  0  0  0  0  0  0
   42.1896    3.6112   12.9817 H   0  0  0  0  0  0  0  0  0  0  0  0
   46.6069    7.3944   19.2585 H   0  0  0  0  0  0  0  0  0  0  0  0
 25 26  2  0
 26 27  1  0
 27 23  1  0
 28 29  1  0
  1  2  2  0
  3  4  2  0
  7  8  2  0
 14 15  1  0
 29 30  1  0
 30 31  2  0
 31 32  1  0
 32 28  2  0
 15 16  1  0
 29 33  2  0
 17 33  1  0
 16 17  1  0
 14 34  2  0
 22 34  1  0
 17 13  2  0
 27 35  2  0
 19 35  1  0
 18 19  1  0
 24 36  2  0
 32 36  1  0
  8  9  1  0
  4  5  1  0
 37 38  2  0
  9 10  2  0
 38 39  1  0
  2  3  1  0
 39 40  2  0
 10 11  1  0
 40 41  1  0
 19 20  2  0
 41 42  2  0
 42 37  1  0
 33 37  1  0
 20 21  1  0
 21 22  2  0
 43 44  2  0
 22 18  1  0
 44 45  1  0
 23 24  1  0
 45 46  2  0
  5  6  2  0
 46 47  1  0
 11 12  2  0
 47 48  2  0
 48 43  1  0
 36 43  1  0
 12  7  1  0
 45 49  1  0
 13 14  1  0
 39 50  1  0
 35 12  1  0
 34  2  1  0
  6  1  1  0
  4 51  1  0
 24 25  1  0
  8 52  1  0
  1 53  1  0
  3 54  1  0
  5 55  1  0
  6 56  1  0
  7 57  1  0
  9 58  1  0
 10 59  1  0
 11 60  1  0
 15 61  1  0
 15 62  1  0
 16 63  1  0
 16 64  1  0
 18 65  1  0
 20 66  1  0
 21 67  1  0
 23 68  1  0
 25 69  1  0
 26 70  1  0
 30 71  1  0
 31 72  1  0
 38 73  1  0
 40 74  1  0
 41 75  1  0
 42 76  1  0
 44 77  1  0
 46 78  1  0
 47 79  1  0
 48 80  1  0
 49 81  1  0
 50 82  1  0
 51 83  1  0
 52 84  1  0
M  END
> <Uni-Dock RESULT> 
ENERGY=   -5.735  LOWER_BOUND=    2.165  UPPER_BOUND=    8.376
INTER + INTRA:          -5.735
INTER:                  -5.735
INTRA:                   0.000
UNBOUND:                 0.000

$$$$

     RDKit          3D

 84 92  0  0  0  0  0  0  0  0999 V2000
   52.3921    8.2830   12.8999 C   0  0  0  0  0  0  0  0  0  0  0  0
   51.4513    8.7645   13.8180 C   0  0  0  0  0  0  0  0  0  0  0  0
   51.7330    8.7050   15.1875 C   0  0  0  0  0  0  0  0  0  0  0  0
   52.9383    8.1645   15.6223 C   0  0  0  0  0  0  0  0  0  0  0  0
   53.8755    7.6821   14.7093 C   0  0  0  0  0  0  0  0  0  0  0  0
   53.6000    7.7428   13.3429 C   0  0  0  0  0  0  0  0  0  0  0  0
   48.6936   14.8564   15.4945 C   0  0  0  0  0  0  0  0  0  0  0  0
   49.1167   15.8588   16.3622 C   0  0  0  0  0  0  0  0  0  0  0  0
   49.3425   17.1524   15.9047 C   0  0  0  0  0  0  0  0  0  0  0  0
   49.1493   17.4552   14.5564 C   0  0  0  0  0  0  0  0  0  0  0  0
   48.7306   16.4554   13.6767 C   0  0  0  0  0  0  0  0  0  0  0  0
   48.4927   15.1532   14.1397 C   0  0  0  0  0  0  0  0  0  0  0  0
   47.8322    8.9770   12.7041 N   0  0  0  0  0  0  0  0  0  0  0  0
   49.0702    8.5842   13.1190 C   0  0  0  0  0  0  0  0  0  0  0  0
   49.0640    7.0987   13.3473 C   0  0  0  0  0  0  0  0  0  0  0  0
   47.8565    6.6510   12.5640 C   0  0  0  0  0  0  0  0  0  0  0  0
   47.0268    7.9170   12.4030 C   0  0  0  0  0  0  0  0  0  0  0  0
   48.8839   11.5690   13.1421 N   0  0  0  0  0  0  0  0  0  0  0  0
   49.1322   12.9057   12.9959 C   0  0  0  0  0  0  0  0  0  0  0  0
   50.4786   13.0640   12.7275 C   0  0  0  0  0  0  0  0  0  0  0  0
   51.0810   11.7809   12.8020 C   0  0  0  0  0  0  0  0  0  0  0  0
   50.0772   10.8894   13.1004 C   0  0  0  0  0  0  0  0  0  0  0  0
   46.0133   12.9103   12.1412 N   0  0  0  0  0  0  0  0  0  0  0  0
   44.7630   13.2757   11.7018 C   0  0  0  0  0  0  0  0  0  0  0  0
   44.6739   14.6491   11.7329 C   0  0  0  0  0  0  0  0  0  0  0  0
   45.9043   15.1274   12.2484 C   0  0  0  0  0  0  0  0  0  0  0  0
   46.7042   14.0341   12.5209 C   0  0  0  0  0  0  0  0  0  0  0  0
   45.0478   10.2660   11.8158 N   0  0  0  0  0  0  0  0  0  0  0  0
   44.8936    8.9047   11.7140 C   0  0  0  0  0  0  0  0  0  0  0  0
   43.5363    8.7092   11.2134 C   0  0  0  0  0  0  0  0  0  0  0  0
   42.9642    9.8913   11.0236 C   0  0  0  0  0  0  0  0  0  0  0  0
   43.9171   10.9125   11.3887 C   0  0  0  0  0  0  0  0  0  0  0  0
   45.7266    7.8411   11.9630 C   0  0  0  0  0  0  0  0  0  0  0  0
   50.1821    9.3364   13.3359 C   0  0  0  0  0  0  0  0  0  0  0  0
   48.1165   14.0763   13.1962 C   0  0  0  0  0  0  0  0  0  0  0  0
   43.6447   12.2400   11.2817 C   0  0  0  0  0  0  0  0  0  0  0  0
   45.1943    6.4681   11.7056 C   0  0  0  0  0  0  0  0  0  0  0  0
   44.5128    5.7770   12.7154 C   0  0  0  0  0  0  0  0  0  0  0  0
   44.0298    4.4934   12.4682 C   0  0  0  0  0  0  0  0  0  0  0  0
   44.2138    3.8808   11.2327 C   0  0  0  0  0  0  0  0  0  0  0  0
   44.8891    4.5657   10.2214 C   0  0  0  0  0  0  0  0  0  0  0  0
   45.3746    5.8551   10.4561 C   0  0  0  0  0  0  0  0  0  0  0  0
   42.3393   12.7477   10.8114 C   0  0  0  0  0  0  0  0  0  0  0  0
   41.2835   12.9049   11.7177 C   0  0  0  0  0  0  0  0  0  0  0  0
   40.0531   13.3800   11.2689 C   0  0  0  0  0  0  0  0  0  0  0  0
   39.8609   13.7093    9.9308 C   0  0  0  0  0  0  0  0  0  0  0  0
   40.9119   13.5519    9.0255 C   0  0  0  0  0  0  0  0  0  0  0  0
   42.1490   13.0701    9.4637 C   0  0  0  0  0  0  0  0  0  0  0  0
   39.0036   13.5307   12.1316 O   0  0  0  0  0  0  0  0  0  0  0  0
   43.3598    3.8011   13.4394 O   0  0  0  0  0  0  0  0  0  0  0  0
   53.1815    8.1180   16.9650 O   0  0  0  0  0  0  0  0  0  0  0  0
   49.3330   15.5979   17.6871 O   0  0  0  0  0  0  0  0  0  0  0  0
   52.1592    8.3285   11.8384 H   0  0  0  0  0  0  0  0  0  0  0  0
   51.0044    9.0784   15.9009 H   0  0  0  0  0  0  0  0  0  0  0  0
   54.8149    7.2574   15.0426 H   0  0  0  0  0  0  0  0  0  0  0  0
   54.3175    7.3726   12.6183 H   0  0  0  0  0  0  0  0  0  0  0  0
   48.5261   13.8428   15.8459 H   0  0  0  0  0  0  0  0  0  0  0  0
   49.6732   17.9194   16.5975 H   0  0  0  0  0  0  0  0  0  0  0  0
   49.3368   18.4583   14.1883 H   0  0  0  0  0  0  0  0  0  0  0  0
   48.6131   16.6813   12.6190 H   0  0  0  0  0  0  0  0  0  0  0  0
   48.9348    6.8790   14.4145 H   0  0  0  0  0  0  0  0  0  0  0  0
   49.9616    6.5844   12.9882 H   0  0  0  0  0  0  0  0  0  0  0  0
   47.3492    5.8430   13.1017 H   0  0  0  0  0  0  0  0  0  0  0  0
   48.1712    6.2813   11.5776 H   0  0  0  0  0  0  0  0  0  0  0  0
   47.9964   11.0744   13.2374 H   0  0  0  0  0  0  0  0  0  0  0  0
   50.9823   14.0031   12.5486 H   0  0  0  0  0  0  0  0  0  0  0  0
   52.1259   11.5395   12.6753 H   0  0  0  0  0  0  0  0  0  0  0  0
   46.2875   11.9268   12.1960 H   0  0  0  0  0  0  0  0  0  0  0  0
   43.8142   15.2365   11.4460 H   0  0  0  0  0  0  0  0  0  0  0  0
   46.1494   16.1613   12.4356 H   0  0  0  0  0  0  0  0  0  0  0  0
   43.0667    7.7633   11.0139 H   0  0  0  0  0  0  0  0  0  0  0  0
   41.9676   10.0490   10.6523 H   0  0  0  0  0  0  0  0  0  0  0  0
   44.3878    6.2737   13.6732 H   0  0  0  0  0  0  0  0  0  0  0  0
   43.8277    2.8816   11.0585 H   0  0  0  0  0  0  0  0  0  0  0  0
   45.0446    4.1043    9.2523 H   0  0  0  0  0  0  0  0  0  0  0  0
   45.9053    6.4062    9.6835 H   0  0  0  0  0  0  0  0  0  0  0  0
   41.4529   12.6397   12.7573 H   0  0  0  0  0  0  0  0  0  0  0  0
   38.8988   14.0729    9.5903 H   0  0  0  0  0  0  0  0  0  0  0  0
   40.7701   13.7937    7.9766 H   0  0  0  0  0  0  0  0  0  0  0  0
   42.9736   12.9327    8.7682 H   0  0  0  0  0  0  0  0  0  0  0  0
   39.2926   13.1447   12.9772 H   0  0  0  0  0  0  0  0  0  0  0  0
   43.2802    4.4129   14.1908 H   0  0  0  0  0  0  0  0  0  0  0  0
   54.0233    7.6575   17.0971 H   0  0  0  0  0  0  0  0  0  0  0  0
   49.1469   14.6519   17.8201 H   0  0  0  0  0  0  0  0  0  0  0  0
 25 26  2  0
 26 27  1  0
 27 23  1  0
 28 29  1  0
  1  2  2  0
  3  4  2  0
  7  8  2  0
 14 15  1  0
 29 30  1  0
 30 31  2  0
 31 32  1  0
 32 28  2  0
 15 16  1  0
 29 33  2  0
 17 33  1  0
 16 17  1  0
 14 34  2  0
 22 34  1  0
 17 13  2  0
 27 35  2  0
 19 35  1  0
 18 19  1  0
 24 36  2  0
 32 36  1  0
  8  9  1  0
  4  5  1  0
 37 38  2  0
  9 10  2  0
 38 39  1  0
  2  3  1  0
 39 40  2  0
 10 11  1  0
 40 41  1  0
 19 20  2  0
 41 42  2  0
 42 37  1  0
 33 37  1  0
 20 21  1  0
 21 22  2  0
 43 44  2  0
 22 18  1  0
 44 45  1  0
 23 24  1  0
 45 46  2  0
  5  6  2  0
 46 47  1  0
 11 12  2  0
 47 48  2  0
 48 43  1  0
 36 43  1  0
 12  7  1  0
 45 49  1  0
 13 14  1  0
 39 50  1  0
 35 12  1  0
 34  2  1  0
  6  1  1  0
  4 51  1  0
 24 25  1  0
  8 52  1  0
  1 53  1  0
  3 54  1  0
  5 55  1  0
  6 56  1  0
  7 57  1  0
  9 58  1  0
 10 59  1  0
 11 60  1  0
 15 61  1  0
 15 62  1  0
 16 63  1  0
 16 64  1  0
 18 65  1  0
 20 66  1  0
 21 67  1  0
 23 68  1  0
 25 69  1  0
 26 70  1  0
 30 71  1  0
 31 72  1  0
 38 73  1  0
 40 74  1  0
 41 75  1  0
 42 76  1  0
 44 77  1  0
 46 78  1  0
 47 79  1  0
 48 80  1  0
 49 81  1  0
 50 82  1  0
 51 83  1  0
 52 84  1  0
M  END
> <Uni-Dock RESULT> 
ENERGY=   -5.550  LOWER_BOUND=    1.863  UPPER_BOUND=    7.728
INTER + INTRA:          -5.550
INTER:                  -5.550
INTRA:                   0.000
UNBOUND:                 0.000

$$$$

     RDKit          3D

 84 92  0  0  0  0  0  0  0  0999 V2000
   52.5238    7.9981   13.9876 C   0  0  0  0  0  0  0  0  0  0  0  0
   51.5179    8.5349   14.7998 C   0  0  0  0  0  0  0  0  0  0  0  0
   51.6342    8.4425   16.1913 C   0  0  0  0  0  0  0  0  0  0  0  0
   52.7412    7.8148   16.7522 C   0  0  0  0  0  0  0  0  0  0  0  0
   53.7429    7.2773   15.9446 C   0  0  0  0  0  0  0  0  0  0  0  0
   53.6325    7.3704   14.5568 C   0  0  0  0  0  0  0  0  0  0  0  0
   49.0063   14.7876   16.2565 C   0  0  0  0  0  0  0  0  0  0  0  0
   49.3933   15.7494   17.1848 C   0  0  0  0  0  0  0  0  0  0  0  0
   49.7583   17.0286   16.7796 C   0  0  0  0  0  0  0  0  0  0  0  0
   49.7439   17.3574   15.4236 C   0  0  0  0  0  0  0  0  0  0  0  0
   49.3628   16.3980   14.4839 C   0  0  0  0  0  0  0  0  0  0  0  0
   48.9846   15.1111   14.8931 C   0  0  0  0  0  0  0  0  0  0  0  0
   48.0754    9.0105   13.2810 N   0  0  0  0  0  0  0  0  0  0  0  0
   49.2272    8.5281   13.8285 C   0  0  0  0  0  0  0  0  0  0  0  0
   49.0933    7.0445   14.0279 C   0  0  0  0  0  0  0  0  0  0  0  0
   47.9571    6.6900   13.1032 C   0  0  0  0  0  0  0  0  0  0  0  0
   47.2400    8.0123   12.8704 C   0  0  0  0  0  0  0  0  0  0  0  0
   49.2435   11.5183   13.8833 N   0  0  0  0  0  0  0  0  0  0  0  0
   49.5977   12.8358   13.7905 C   0  0  0  0  0  0  0  0  0  0  0  0
   50.9737   12.9023   13.6816 C   0  0  0  0  0  0  0  0  0  0  0  0
   51.4745   11.5797   13.8019 C   0  0  0  0  0  0  0  0  0  0  0  0
   50.3844   10.7575   13.9670 C   0  0  0  0  0  0  0  0  0  0  0  0
   46.6066   13.0665   12.5830 N   0  0  0  0  0  0  0  0  0  0  0  0
   45.4435   13.5226   12.0093 C   0  0  0  0  0  0  0  0  0  0  0  0
   45.4453   14.8985   12.0544 C   0  0  0  0  0  0  0  0  0  0  0  0
   46.6373   15.2846   12.7165 C   0  0  0  0  0  0  0  0  0  0  0  0
   47.3238   14.1356   13.0596 C   0  0  0  0  0  0  0  0  0  0  0  0
   45.5072   10.4994   12.1015 N   0  0  0  0  0  0  0  0  0  0  0  0
   45.2734    9.1532   11.9584 C   0  0  0  0  0  0  0  0  0  0  0  0
   43.9731    9.0579   11.3016 C   0  0  0  0  0  0  0  0  0  0  0  0
   43.5089   10.2789   11.0684 C   0  0  0  0  0  0  0  0  0  0  0  0
   44.4804   11.2274   11.5588 C   0  0  0  0  0  0  0  0  0  0  0  0
   45.9975    8.0317   12.2825 C   0  0  0  0  0  0  0  0  0  0  0  0
   50.3551    9.1987   14.1852 C   0  0  0  0  0  0  0  0  0  0  0  0
   48.6478   14.0725   13.8936 C   0  0  0  0  0  0  0  0  0  0  0  0
   44.3134   12.5717   11.4450 C   0  0  0  0  0  0  0  0  0  0  0  0
   45.4062    6.7019   11.9411 C   0  0  0  0  0  0  0  0  0  0  0  0
   44.5667    6.0501   12.8533 C   0  0  0  0  0  0  0  0  0  0  0  0
   44.0292    4.8058   12.5293 C   0  0  0  0  0  0  0  0  0  0  0  0
   44.3129    4.1940   11.3125 C   0  0  0  0  0  0  0  0  0  0  0  0
   45.1461    4.8401   10.3979 C   0  0  0  0  0  0  0  0  0  0  0  0
   45.6879    6.0901   10.7099 C   0  0  0  0  0  0  0  0  0  0  0  0
   43.1091   13.1739   10.8368 C   0  0  0  0  0  0  0  0  0  0  0  0
   41.9685   13.3955   11.6183 C   0  0  0  0  0  0  0  0  0  0  0  0
   40.8337   13.9597   11.0395 C   0  0  0  0  0  0  0  0  0  0  0  0
   40.8209   14.3147    9.6943 C   0  0  0  0  0  0  0  0  0  0  0  0
   41.9567   14.0933    8.9132 C   0  0  0  0  0  0  0  0  0  0  0  0
   43.0988   13.5220    9.4821 C   0  0  0  0  0  0  0  0  0  0  0  0
   39.7040   14.1747   11.7783 O   0  0  0  0  0  0  0  0  0  0  0  0
   43.2054    4.1524   13.4046 O   0  0  0  0  0  0  0  0  0  0  0  0
   52.8233    7.7383   18.1129 O   0  0  0  0  0  0  0  0  0  0  0  0
   49.4362   15.4611   18.5210 O   0  0  0  0  0  0  0  0  0  0  0  0
   52.4193    8.0701   12.9073 H   0  0  0  0  0  0  0  0  0  0  0  0
   50.8549    8.8587   16.8227 H   0  0  0  0  0  0  0  0  0  0  0  0
   54.6062    6.7847   16.3760 H   0  0  0  0  0  0  0  0  0  0  0  0
   54.4023    6.9582   13.9130 H   0  0  0  0  0  0  0  0  0  0  0  0
   48.7305   13.7848   16.5681 H   0  0  0  0  0  0  0  0  0  0  0  0
   50.0579   17.7638   17.5193 H   0  0  0  0  0  0  0  0  0  0  0  0
   50.0408   18.3486   15.0975 H   0  0  0  0  0  0  0  0  0  0  0  0
   49.3845   16.6419   13.4239 H   0  0  0  0  0  0  0  0  0  0  0  0
   48.8265    6.8239   15.0692 H   0  0  0  0  0  0  0  0  0  0  0  0
   49.9893    6.4724   13.7654 H   0  0  0  0  0  0  0  0  0  0  0  0
   47.3370    5.9141   13.5644 H   0  0  0  0  0  0  0  0  0  0  0  0
   48.3582    6.3090   12.1530 H   0  0  0  0  0  0  0  0  0  0  0  0
   48.3193   11.0860   13.8671 H   0  0  0  0  0  0  0  0  0  0  0  0
   51.5577   13.8057   13.5787 H   0  0  0  0  0  0  0  0  0  0  0  0
   52.5081   11.2672   13.7920 H   0  0  0  0  0  0  0  0  0  0  0  0
   46.8048   12.0658   12.6514 H   0  0  0  0  0  0  0  0  0  0  0  0
   44.6667   15.5473   11.6811 H   0  0  0  0  0  0  0  0  0  0  0  0
   46.9290   16.2970   12.9490 H   0  0  0  0  0  0  0  0  0  0  0  0
   43.4665    8.1491   11.0325 H   0  0  0  0  0  0  0  0  0  0  0  0
   42.5751   10.5094   10.5878 H   0  0  0  0  0  0  0  0  0  0  0  0
   44.3656    6.5448   13.7991 H   0  0  0  0  0  0  0  0  0  0  0  0
   43.8825    3.2260   11.0772 H   0  0  0  0  0  0  0  0  0  0  0  0
   45.3812    4.3785    9.4450 H   0  0  0  0  0  0  0  0  0  0  0  0
   46.3410    6.6104   10.0135 H   0  0  0  0  0  0  0  0  0  0  0  0
   41.9977   13.1089   12.6655 H   0  0  0  0  0  0  0  0  0  0  0  0
   39.9318   14.7479    9.2519 H   0  0  0  0  0  0  0  0  0  0  0  0
   41.9542   14.3547    7.8594 H   0  0  0  0  0  0  0  0  0  0  0  0
   43.9872   13.3343    8.8837 H   0  0  0  0  0  0  0  0  0  0  0  0
   39.8660   13.7612   12.6445 H   0  0  0  0  0  0  0  0  0  0  0  0
   43.0811    4.7609   14.1525 H   0  0  0  0  0  0  0  0  0  0  0  0
   53.6108    7.2189   18.3327 H   0  0  0  0  0  0  0  0  0  0  0  0
   49.1718   14.5291   18.6148 H   0  0  0  0  0  0  0  0  0  0  0  0
 25 26  2  0
 26 27  1  0
 27 23  1  0
 28 29  1  0
  1  2  2  0
  3  4  2  0
  7  8  2  0
 14 15  1  0
 29 30  1  0
 30 31  2  0
 31 32  1  0
 32 28  2  0
 15 16  1  0
 29 33  2  0
 17 33  1  0
 16 17  1  0
 14 34  2  0
 22 34  1  0
 17 13  2  0
 27 35  2  0
 19 35  1  0
 18 19  1  0
 24 36  2  0
 32 36  1  0
  8  9  1  0
  4  5  1  0
 37 38  2  0
  9 10  2  0
 38 39  1  0
  2  3  1  0
 39 40  2  0
 10 11  1  0
 40 41  1  0
 19 20  2  0
 41 42  2  0
 42 37  1  0
 33 37  1  0
 20 21  1  0
 21 22  2  0
 43 44  2  0
 22 18  1  0
 44 45  1  0
 23 24  1  0
 45 46  2  0
  5  6  2  0
 46 47  1  0
 11 12  2  0
 47 48  2  0
 48 43  1  0
 36 43  1  0
 12  7  1  0
 45 49  1  0
 13 14  1  0
 39 50  1  0
 35 12  1  0
 34  2  1  0
  6  1  1  0
  4 51  1  0
 24 25  1  0
  8 52  1  0
  1 53  1  0
  3 54  1  0
  5 55  1  0
  6 56  1  0
  7 57  1  0
  9 58  1  0
 10 59  1  0
 11 60  1  0
 15 61  1  0
 15 62  1  0
 16 63  1  0
 16 64  1  0
 18 65  1  0
 20 66  1  0
 21 67  1  0
 23 68  1  0
 25 69  1  0
 26 70  1  0
 30 71  1  0
 31 72  1  0
 38 73  1  0
 40 74  1  0
 41 75  1  0
 42 76  1  0
 44 77  1  0
 46 78  1  0
 47 79  1  0
 48 80  1  0
 49 81  1  0
 50 82  1  0
 51 83  1  0
 52 84  1  0
M  END
> <Uni-Dock RESULT> 
ENERGY=   -5.502  LOWER_BOUND=    1.756  UPPER_BOUND=    7.749
INTER + INTRA:          -5.502
INTER:                  -5.502
INTRA:                   0.000
UNBOUND:                 0.000

$$$$

     RDKit          3D

 84 92  0  0  0  0  0  0  0  0999 V2000
   50.1418   11.5497   10.4942 C   0  0  0  0  0  0  0  0  0  0  0  0
   48.9698   11.3293   11.2274 C   0  0  0  0  0  0  0  0  0  0  0  0
   47.7496   11.8050   10.7342 C   0  0  0  0  0  0  0  0  0  0  0  0
   47.7137   12.4950    9.5274 C   0  0  0  0  0  0  0  0  0  0  0  0
   48.8805   12.7176    8.7968 C   0  0  0  0  0  0  0  0  0  0  0  0
   50.0987   12.2419    9.2833 C   0  0  0  0  0  0  0  0  0  0  0  0
   45.1450    5.9167   13.1250 C   0  0  0  0  0  0  0  0  0  0  0  0
   44.1175    5.2352   12.4796 C   0  0  0  0  0  0  0  0  0  0  0  0
   44.2172    3.8733   12.2167 C   0  0  0  0  0  0  0  0  0  0  0  0
   45.3637    3.1752   12.5978 C   0  0  0  0  0  0  0  0  0  0  0  0
   46.4025    3.8508   13.2406 C   0  0  0  0  0  0  0  0  0  0  0  0
   46.2979    5.2221   13.5152 C   0  0  0  0  0  0  0  0  0  0  0  0
   49.3022   10.6599   14.9456 N   0  0  0  0  0  0  0  0  0  0  0  0
   49.2486   11.2044   13.6967 C   0  0  0  0  0  0  0  0  0  0  0  0
   49.4593   12.6890   13.7979 C   0  0  0  0  0  0  0  0  0  0  0  0
   50.1062   12.8375   15.1511 C   0  0  0  0  0  0  0  0  0  0  0  0
   49.7442   11.5512   15.8801 C   0  0  0  0  0  0  0  0  0  0  0  0
   48.3361    8.3575   13.6108 N   0  0  0  0  0  0  0  0  0  0  0  0
   48.1348    7.0482   13.2715 C   0  0  0  0  0  0  0  0  0  0  0  0
   48.5853    6.8673   11.9777 C   0  0  0  0  0  0  0  0  0  0  0  0
   48.9925    8.1356   11.4876 C   0  0  0  0  0  0  0  0  0  0  0  0
   48.7862    9.0376   12.5051 C   0  0  0  0  0  0  0  0  0  0  0  0
   48.3734    6.6730   16.4747 N   0  0  0  0  0  0  0  0  0  0  0  0
   48.4558    6.1470   17.7422 C   0  0  0  0  0  0  0  0  0  0  0  0
   48.0161    4.8430   17.7025 C   0  0  0  0  0  0  0  0  0  0  0  0
   47.6163    4.5864   16.3674 C   0  0  0  0  0  0  0  0  0  0  0  0
   47.8186    5.7401   15.6344 C   0  0  0  0  0  0  0  0  0  0  0  0
   49.2642    9.0621   17.7114 N   0  0  0  0  0  0  0  0  0  0  0  0
   49.7229   10.3244   18.0003 C   0  0  0  0  0  0  0  0  0  0  0  0
   50.0045   10.3111   19.4327 C   0  0  0  0  0  0  0  0  0  0  0  0
   49.7402    9.1057   19.9206 C   0  0  0  0  0  0  0  0  0  0  0  0
   49.2759    8.2761   18.8342 C   0  0  0  0  0  0  0  0  0  0  0  0
   49.9448   11.4440   17.2359 C   0  0  0  0  0  0  0  0  0  0  0  0
   49.0296   10.5929   12.5020 C   0  0  0  0  0  0  0  0  0  0  0  0
   47.4265    5.9537   14.1333 C   0  0  0  0  0  0  0  0  0  0  0  0
   48.9461    6.9680   19.0013 C   0  0  0  0  0  0  0  0  0  0  0  0
   50.4848   12.6569   17.9228 C   0  0  0  0  0  0  0  0  0  0  0  0
   49.6102   13.5919   18.4906 C   0  0  0  0  0  0  0  0  0  0  0  0
   50.1239   14.7245   19.1194 C   0  0  0  0  0  0  0  0  0  0  0  0
   51.4952   14.9472   19.1930 C   0  0  0  0  0  0  0  0  0  0  0  0
   52.3720   14.0174   18.6320 C   0  0  0  0  0  0  0  0  0  0  0  0
   51.8688   12.8756   18.0022 C   0  0  0  0  0  0  0  0  0  0  0  0
   49.0066    6.2949   20.3152 C   0  0  0  0  0  0  0  0  0  0  0  0
   47.9180    6.3761   21.1922 C   0  0  0  0  0  0  0  0  0  0  0  0
   47.9813    5.7433   22.4318 C   0  0  0  0  0  0  0  0  0  0  0  0
   49.1107    5.0231   22.8079 C   0  0  0  0  0  0  0  0  0  0  0  0
   50.1976    4.9422   21.9355 C   0  0  0  0  0  0  0  0  0  0  0  0
   50.1474    5.5784   20.6916 C   0  0  0  0  0  0  0  0  0  0  0  0
   46.9368    5.8180   23.3104 O   0  0  0  0  0  0  0  0  0  0  0  0
   49.2879   15.6496   19.6823 O   0  0  0  0  0  0  0  0  0  0  0  0
   46.5080   12.9489    9.0753 O   0  0  0  0  0  0  0  0  0  0  0  0
   42.9852    5.8872   12.0758 O   0  0  0  0  0  0  0  0  0  0  0  0
   51.0852   11.1810   10.8907 H   0  0  0  0  0  0  0  0  0  0  0  0
   46.8396   11.6346   11.3017 H   0  0  0  0  0  0  0  0  0  0  0  0
   48.8589   13.2570    7.8574 H   0  0  0  0  0  0  0  0  0  0  0  0
   51.0163   12.4056    8.7283 H   0  0  0  0  0  0  0  0  0  0  0  0
   45.0752    6.9820   13.3228 H   0  0  0  0  0  0  0  0  0  0  0  0
   43.4051    3.3607   11.7114 H   0  0  0  0  0  0  0  0  0  0  0  0
   45.4558    2.1156   12.3839 H   0  0  0  0  0  0  0  0  0  0  0  0
   47.3113    3.3156   13.5070 H   0  0  0  0  0  0  0  0  0  0  0  0
   48.4950   13.2121   13.7717 H   0  0  0  0  0  0  0  0  0  0  0  0
   50.1070   13.1057   13.0195 H   0  0  0  0  0  0  0  0  0  0  0  0
   49.7407   13.7496   15.6346 H   0  0  0  0  0  0  0  0  0  0  0  0
   51.1972   12.9075   15.0343 H   0  0  0  0  0  0  0  0  0  0  0  0
   48.2280    8.8247   14.5115 H   0  0  0  0  0  0  0  0  0  0  0  0
   48.5749    5.9370   11.4280 H   0  0  0  0  0  0  0  0  0  0  0  0
   49.3699    8.3669   10.5026 H   0  0  0  0  0  0  0  0  0  0  0  0
   48.6538    7.6376   16.2838 H   0  0  0  0  0  0  0  0  0  0  0  0
   47.9618    4.1653   18.5417 H   0  0  0  0  0  0  0  0  0  0  0  0
   47.1877    3.6652   16.0043 H   0  0  0  0  0  0  0  0  0  0  0  0
   50.3789   11.1363   20.0106 H   0  0  0  0  0  0  0  0  0  0  0  0
   49.8640    8.8076   20.9462 H   0  0  0  0  0  0  0  0  0  0  0  0
   48.5440   13.3993   18.4143 H   0  0  0  0  0  0  0  0  0  0  0  0
   51.8762   15.8338   19.6894 H   0  0  0  0  0  0  0  0  0  0  0  0
   53.4442   14.1741   18.6770 H   0  0  0  0  0  0  0  0  0  0  0  0
   52.5332   12.1393   17.5566 H   0  0  0  0  0  0  0  0  0  0  0  0
   47.0469    6.9454   20.8811 H   0  0  0  0  0  0  0  0  0  0  0  0
   49.1527    4.5390   23.7764 H   0  0  0  0  0  0  0  0  0  0  0  0
   51.0892    4.3935   22.2231 H   0  0  0  0  0  0  0  0  0  0  0  0
   50.9902    5.5327   20.0059 H   0  0  0  0  0  0  0  0  0  0  0  0
   46.3045    6.4491   22.9238 H   0  0  0  0  0  0  0  0  0  0  0  0
   48.3911   15.2872   19.5846 H   0  0  0  0  0  0  0  0  0  0  0  0
   46.6682   13.4587    8.2674 H   0  0  0  0  0  0  0  0  0  0  0  0
   43.0980    6.8222   12.3214 H   0  0  0  0  0  0  0  0  0  0  0  0
 25 26  2  0
 26 27  1  0
 27 23  1  0
 28 29  1  0
  1  2  2  0
  3  4  2  0
  7  8  2  0
 14 15  1  0
 29 30  1  0
 30 31  2  0
 31 32  1  0
 32 28  2  0
 15 16  1  0
 29 33  2  0
 17 33  1  0
 16 17  1  0
 14 34  2  0
 22 34  1  0
 17 13  2  0
 27 35  2  0
 19 35  1  0
 18 19  1  0
 24 36  2  0
 32 36  1  0
  8  9  1  0
  4  5  1  0
 37 38  2  0
  9 10  2  0
 38 39  1  0
  2  3  1  0
 39 40  2  0
 10 11  1  0
 40 41  1  0
 19 20  2  0
 41 42  2  0
 42 37  1  0
 33 37  1  0
 20 21  1  0
 21 22  2  0
 43 44  2  0
 22 18  1  0
 44 45  1  0
 23 24  1  0
 45 46  2  0
  5  6  2  0
 46 47  1  0
 11 12  2  0
 47 48  2  0
 48 43  1  0
 36 43  1  0
 12  7  1  0
 45 49  1  0
 13 14  1  0
 39 50  1  0
 35 12  1  0
 34  2  1  0
  6  1  1  0
  4 51  1  0
 24 25  1  0
  8 52  1  0
  1 53  1  0
  3 54  1  0
  5 55  1  0
  6 56  1  0
  7 57  1  0
  9 58  1  0
 10 59  1  0
 11 60  1  0
 15 61  1  0
 15 62  1  0
 16 63  1  0
 16 64  1  0
 18 65  1  0
 20 66  1  0
 21 67  1  0
 23 68  1  0
 25 69  1  0
 26 70  1  0
 30 71  1  0
 31 72  1  0
 38 73  1  0
 40 74  1  0
 41 75  1  0
 42 76  1  0
 44 77  1  0
 46 78  1  0
 47 79  1  0
 48 80  1  0
 49 81  1  0
 50 82  1  0
 51 83  1  0
 52 84  1  0
M  END
> <Uni-Dock RESULT> 
ENERGY=   -5.406  LOWER_BOUND=    4.072  UPPER_BOUND=    8.594
INTER + INTRA:          -5.406
INTER:                  -5.406
INTRA:                   0.000
UNBOUND:                 0.000

$$$$

     RDKit          3D

 84 92  0  0  0  0  0  0  0  0999 V2000
   51.1583   15.8036   14.2445 C   0  0  0  0  0  0  0  0  0  0  0  0
   49.9636   15.3813   14.8394 C   0  0  0  0  0  0  0  0  0  0  0  0
   49.4061   16.1374   15.8767 C   0  0  0  0  0  0  0  0  0  0  0  0
   50.0453   17.2941   16.3094 C   0  0  0  0  0  0  0  0  0  0  0  0
   51.2368   17.7150   15.7197 C   0  0  0  0  0  0  0  0  0  0  0  0
   51.7941   16.9659   14.6828 C   0  0  0  0  0  0  0  0  0  0  0  0
   43.3739   14.6376   12.9553 C   0  0  0  0  0  0  0  0  0  0  0  0
   42.3088   15.5331   12.9332 C   0  0  0  0  0  0  0  0  0  0  0  0
   41.6306   15.8089   11.7510 C   0  0  0  0  0  0  0  0  0  0  0  0
   42.0222   15.1865   10.5651 C   0  0  0  0  0  0  0  0  0  0  0  0
   43.0931   14.2911   10.5755 C   0  0  0  0  0  0  0  0  0  0  0  0
   43.7705   14.0048   11.7695 C   0  0  0  0  0  0  0  0  0  0  0  0
   49.0336   11.7162   14.5453 N   0  0  0  0  0  0  0  0  0  0  0  0
   49.5812   12.9228   14.8667 C   0  0  0  0  0  0  0  0  0  0  0  0
   50.6073   12.7252   15.9470 C   0  0  0  0  0  0  0  0  0  0  0  0
   50.9099   11.2520   15.8471 C   0  0  0  0  0  0  0  0  0  0  0  0
   49.7086   10.6741   15.1122 C   0  0  0  0  0  0  0  0  0  0  0  0
   47.1969   13.3191   13.1053 N   0  0  0  0  0  0  0  0  0  0  0  0
   46.3330   13.7396   12.1323 C   0  0  0  0  0  0  0  0  0  0  0  0
   46.8488   14.8925   11.5713 C   0  0  0  0  0  0  0  0  0  0  0  0
   48.0237   15.2283   12.2935 C   0  0  0  0  0  0  0  0  0  0  0  0
   48.1853   14.2612   13.2578 C   0  0  0  0  0  0  0  0  0  0  0  0
   45.6150   10.5871   12.0686 N   0  0  0  0  0  0  0  0  0  0  0  0
   45.0966    9.3550   11.7474 C   0  0  0  0  0  0  0  0  0  0  0  0
   43.9877    9.5420   10.9534 C   0  0  0  0  0  0  0  0  0  0  0  0
   43.8083   10.9417   10.8240 C   0  0  0  0  0  0  0  0  0  0  0  0
   44.8077   11.5664   11.5454 C   0  0  0  0  0  0  0  0  0  0  0  0
   47.4657    9.0947   13.6107 N   0  0  0  0  0  0  0  0  0  0  0  0
   48.5117    8.6627   14.3896 C   0  0  0  0  0  0  0  0  0  0  0  0
   48.4180    7.2058   14.3828 C   0  0  0  0  0  0  0  0  0  0  0  0
   47.3918    6.8357   13.6274 C   0  0  0  0  0  0  0  0  0  0  0  0
   46.7684    8.0285   13.1052 C   0  0  0  0  0  0  0  0  0  0  0  0
   49.5126    9.3141   15.0685 C   0  0  0  0  0  0  0  0  0  0  0  0
   49.3009   14.1546   14.3634 C   0  0  0  0  0  0  0  0  0  0  0  0
   44.9496   13.1098   11.7695 C   0  0  0  0  0  0  0  0  0  0  0  0
   45.6983    7.9887   12.2678 C   0  0  0  0  0  0  0  0  0  0  0  0
   50.5077    8.4781   15.8069 C   0  0  0  0  0  0  0  0  0  0  0  0
   50.2665    8.1068   17.1357 C   0  0  0  0  0  0  0  0  0  0  0  0
   51.2057    7.3360   17.8183 C   0  0  0  0  0  0  0  0  0  0  0  0
   52.3852    6.9277   17.2037 C   0  0  0  0  0  0  0  0  0  0  0  0
   52.6296    7.2917   15.8787 C   0  0  0  0  0  0  0  0  0  0  0  0
   51.6933    8.0612   15.1825 C   0  0  0  0  0  0  0  0  0  0  0  0
   45.0656    6.7216   11.8469 C   0  0  0  0  0  0  0  0  0  0  0  0
   44.0845    6.1298   12.6519 C   0  0  0  0  0  0  0  0  0  0  0  0
   43.4938    4.9327   12.2529 C   0  0  0  0  0  0  0  0  0  0  0  0
   43.8600    4.3201   11.0586 C   0  0  0  0  0  0  0  0  0  0  0  0
   44.8389    4.9079   10.2554 C   0  0  0  0  0  0  0  0  0  0  0  0
   45.4428    6.1057   10.6490 C   0  0  0  0  0  0  0  0  0  0  0  0
   42.5426    4.3291   13.0271 O   0  0  0  0  0  0  0  0  0  0  0  0
   50.9896    6.9605   19.1159 O   0  0  0  0  0  0  0  0  0  0  0  0
   49.4774   18.0076   17.3256 O   0  0  0  0  0  0  0  0  0  0  0  0
   41.9055   16.1755   14.0712 O   0  0  0  0  0  0  0  0  0  0  0  0
   51.5855   15.2043   13.4437 H   0  0  0  0  0  0  0  0  0  0  0  0
   48.4792   15.8111   16.3389 H   0  0  0  0  0  0  0  0  0  0  0  0
   51.7406   18.6139   16.0547 H   0  0  0  0  0  0  0  0  0  0  0  0
   52.7202   17.2785   14.2122 H   0  0  0  0  0  0  0  0  0  0  0  0
   43.9123   14.4275   13.8744 H   0  0  0  0  0  0  0  0  0  0  0  0
   40.8033   16.5111   11.7550 H   0  0  0  0  0  0  0  0  0  0  0  0
   41.5079   15.4068    9.6356 H   0  0  0  0  0  0  0  0  0  0  0  0
   43.4219   13.8317    9.6458 H   0  0  0  0  0  0  0  0  0  0  0  0
   50.1773   12.9652   16.9276 H   0  0  0  0  0  0  0  0  0  0  0  0
   51.5225   13.3109   15.8110 H   0  0  0  0  0  0  0  0  0  0  0  0
   51.0674   10.8409   16.8498 H   0  0  0  0  0  0  0  0  0  0  0  0
   51.8216   11.1008   15.2515 H   0  0  0  0  0  0  0  0  0  0  0  0
   47.2003   12.4559   13.6495 H   0  0  0  0  0  0  0  0  0  0  0  0
   46.4033   15.4588   10.7660 H   0  0  0  0  0  0  0  0  0  0  0  0
   48.6628   16.0856   12.1424 H   0  0  0  0  0  0  0  0  0  0  0  0
   46.4472   10.6732   12.6563 H   0  0  0  0  0  0  0  0  0  0  0  0
   43.3640    8.7632   10.5400 H   0  0  0  0  0  0  0  0  0  0  0  0
   43.0046   11.4273   10.2926 H   0  0  0  0  0  0  0  0  0  0  0  0
   49.0770    6.5281   14.8942 H   0  0  0  0  0  0  0  0  0  0  0  0
   47.0926    5.8208   13.4364 H   0  0  0  0  0  0  0  0  0  0  0  0
   49.3419    8.4433   17.5956 H   0  0  0  0  0  0  0  0  0  0  0  0
   53.1031    6.3254   17.7509 H   0  0  0  0  0  0  0  0  0  0  0  0
   53.5442    6.9853   15.3828 H   0  0  0  0  0  0  0  0  0  0  0  0
   51.8641    8.3580   14.1505 H   0  0  0  0  0  0  0  0  0  0  0  0
   43.8148    6.6222   13.5816 H   0  0  0  0  0  0  0  0  0  0  0  0
   43.3987    3.3864   10.7595 H   0  0  0  0  0  0  0  0  0  0  0  0
   45.1418    4.4326    9.3275 H   0  0  0  0  0  0  0  0  0  0  0  0
   46.2140    6.5699   10.0387 H   0  0  0  0  0  0  0  0  0  0  0  0
   42.5106    4.8353   13.8579 H   0  0  0  0  0  0  0  0  0  0  0  0
   50.0997    7.2827   19.3380 H   0  0  0  0  0  0  0  0  0  0  0  0
   50.0766   18.7360   17.5460 H   0  0  0  0  0  0  0  0  0  0  0  0
   42.4978   15.8795   14.7846 H   0  0  0  0  0  0  0  0  0  0  0  0
 25 26  2  0
 26 27  1  0
 27 23  1  0
 28 29  1  0
  1  2  2  0
  3  4  2  0
  7  8  2  0
 14 15  1  0
 29 30  1  0
 30 31  2  0
 31 32  1  0
 32 28  2  0
 15 16  1  0
 29 33  2  0
 17 33  1  0
 16 17  1  0
 14 34  2  0
 22 34  1  0
 17 13  2  0
 27 35  2  0
 19 35  1  0
 18 19  1  0
 24 36  2  0
 32 36  1  0
  8  9  1  0
  4  5  1  0
 37 38  2  0
  9 10  2  0
 38 39  1  0
  2  3  1  0
 39 40  2  0
 10 11  1  0
 40 41  1  0
 19 20  2  0
 41 42  2  0
 42 37  1  0
 33 37  1  0
 20 21  1  0
 21 22  2  0
 43 44  2  0
 22 18  1  0
 44 45  1  0
 23 24  1  0
 45 46  2  0
  5  6  2  0
 46 47  1  0
 11 12  2  0
 47 48  2  0
 48 43  1  0
 36 43  1  0
 12  7  1  0
 45 49  1  0
 13 14  1  0
 39 50  1  0
 35 12  1  0
 34  2  1  0
  6  1  1  0
  4 51  1  0
 24 25  1  0
  8 52  1  0
  1 53  1  0
  3 54  1  0
  5 55  1  0
  6 56  1  0
  7 57  1  0
  9 58  1  0
 10 59  1  0
 11 60  1  0
 15 61  1  0
 15 62  1  0
 16 63  1  0
 16 64  1  0
 18 65  1  0
 20 66  1  0
 21 67  1  0
 23 68  1  0
 25 69  1  0
 26 70  1  0
 30 71  1  0
 31 72  1  0
 38 73  1  0
 40 74  1  0
 41 75  1  0
 42 76  1  0
 44 77  1  0
 46 78  1  0
 47 79  1  0
 48 80  1  0
 49 81  1  0
 50 82  1  0
 51 83  1  0
 52 84  1  0
M  END
> <Uni-Dock RESULT> 
ENERGY=   -5.403  LOWER_BOUND=    1.932  UPPER_BOUND=    7.681
INTER + INTRA:          -5.403
INTER:                  -5.403
INTRA:                   0.000
UNBOUND:                 0.000

$$$$

     RDKit          3D

 84 92  0  0  0  0  0  0  0  0999 V2000
   49.8770   16.5804   12.8452 C   0  0  0  0  0  0  0  0  0  0  0  0
   48.8298   16.0526   13.6097 C   0  0  0  0  0  0  0  0  0  0  0  0
   48.2892   16.8116   14.6538 C   0  0  0  0  0  0  0  0  0  0  0  0
   48.7998   18.0764   14.9250 C   0  0  0  0  0  0  0  0  0  0  0  0
   49.8446   18.6028   14.1660 C   0  0  0  0  0  0  0  0  0  0  0  0
   50.3840   17.8507   13.1219 C   0  0  0  0  0  0  0  0  0  0  0  0
   42.2465   14.2703   12.6050 C   0  0  0  0  0  0  0  0  0  0  0  0
   41.0679   15.0088   12.6531 C   0  0  0  0  0  0  0  0  0  0  0  0
   40.2288   15.0896   11.5472 C   0  0  0  0  0  0  0  0  0  0  0  0
   40.5704   14.4277   10.3673 C   0  0  0  0  0  0  0  0  0  0  0  0
   41.7533   13.6890   10.3069 C   0  0  0  0  0  0  0  0  0  0  0  0
   42.5945   13.5987   11.4253 C   0  0  0  0  0  0  0  0  0  0  0  0
   48.4100   12.2840   13.6824 N   0  0  0  0  0  0  0  0  0  0  0  0
   48.8108   13.5763   13.8511 C   0  0  0  0  0  0  0  0  0  0  0  0
   49.9693   13.6109   14.8080 C   0  0  0  0  0  0  0  0  0  0  0  0
   50.4676   12.1889   14.7721 C   0  0  0  0  0  0  0  0  0  0  0  0
   49.2873   11.3942   14.2316 C   0  0  0  0  0  0  0  0  0  0  0  0
   46.2119   13.4969   12.3733 N   0  0  0  0  0  0  0  0  0  0  0  0
   45.1929   13.7132   11.4875 C   0  0  0  0  0  0  0  0  0  0  0  0
   45.4711   14.8735   10.7903 C   0  0  0  0  0  0  0  0  0  0  0  0
   46.6590   15.4246   11.3380 C   0  0  0  0  0  0  0  0  0  0  0  0
   47.0652   14.5731   12.3387 C   0  0  0  0  0  0  0  0  0  0  0  0
   44.9335   10.4987   11.7273 N   0  0  0  0  0  0  0  0  0  0  0  0
   44.5651    9.1852   11.5569 C   0  0  0  0  0  0  0  0  0  0  0  0
   43.3588    9.1530   10.8943 C   0  0  0  0  0  0  0  0  0  0  0  0
   42.9665   10.4998   10.6930 C   0  0  0  0  0  0  0  0  0  0  0  0
   43.9401   11.3123   11.2419 C   0  0  0  0  0  0  0  0  0  0  0  0
   47.1410    9.4054   13.1282 N   0  0  0  0  0  0  0  0  0  0  0  0
   48.3189    9.1858   13.8001 C   0  0  0  0  0  0  0  0  0  0  0  0
   48.4358    7.7344   13.9041 C   0  0  0  0  0  0  0  0  0  0  0  0
   47.3953    7.1666   13.3075 C   0  0  0  0  0  0  0  0  0  0  0  0
   46.5521    8.2159   12.7859 C   0  0  0  0  0  0  0  0  0  0  0  0
   49.2854   10.0214   14.3049 C   0  0  0  0  0  0  0  0  0  0  0  0
   48.3014   14.7119   13.3034 C   0  0  0  0  0  0  0  0  0  0  0  0
   43.8826   12.8741   11.3412 C   0  0  0  0  0  0  0  0  0  0  0  0
   45.4118    7.9615   12.0911 C   0  0  0  0  0  0  0  0  0  0  0  0
   50.4670    9.3928   14.9706 C   0  0  0  0  0  0  0  0  0  0  0  0
   50.4324    9.1060   16.3411 C   0  0  0  0  0  0  0  0  0  0  0  0
   51.5433    8.5296   16.9540 C   0  0  0  0  0  0  0  0  0  0  0  0
   52.6928    8.2335   16.2283 C   0  0  0  0  0  0  0  0  0  0  0  0
   52.7321    8.5138   14.8616 C   0  0  0  0  0  0  0  0  0  0  0  0
   51.6227    9.0882   14.2350 C   0  0  0  0  0  0  0  0  0  0  0  0
   44.9249    6.5896   11.8384 C   0  0  0  0  0  0  0  0  0  0  0  0
   44.1357    5.9411   12.7962 C   0  0  0  0  0  0  0  0  0  0  0  0
   43.6824    4.6459   12.5553 C   0  0  0  0  0  0  0  0  0  0  0  0
   43.9967    3.9894   11.3695 C   0  0  0  0  0  0  0  0  0  0  0  0
   44.7845    4.6338   10.4140 C   0  0  0  0  0  0  0  0  0  0  0  0
   45.2500    5.9311   10.6479 C   0  0  0  0  0  0  0  0  0  0  0  0
   42.9210    3.9871   13.4798 O   0  0  0  0  0  0  0  0  0  0  0  0
   51.5304    8.2395   18.2908 O   0  0  0  0  0  0  0  0  0  0  0  0
   48.2527   18.7902   15.9523 O   0  0  0  0  0  0  0  0  0  0  0  0
   40.7066   15.6849   13.7856 O   0  0  0  0  0  0  0  0  0  0  0  0
   50.2934   15.9786   12.0405 H   0  0  0  0  0  0  0  0  0  0  0  0
   47.4767   16.4036   15.2476 H   0  0  0  0  0  0  0  0  0  0  0  0
   50.2481   19.5865   14.3746 H   0  0  0  0  0  0  0  0  0  0  0  0
   51.1968   18.2443   12.5208 H   0  0  0  0  0  0  0  0  0  0  0  0
   42.9092   14.2132   13.4631 H   0  0  0  0  0  0  0  0  0  0  0  0
   39.3148   15.6716   11.6050 H   0  0  0  0  0  0  0  0  0  0  0  0
   39.9287   14.4971    9.4953 H   0  0  0  0  0  0  0  0  0  0  0  0
   42.0384   13.2011    9.3772 H   0  0  0  0  0  0  0  0  0  0  0  0
   49.6220   13.8728   15.8154 H   0  0  0  0  0  0  0  0  0  0  0  0
   50.7695   14.3011   14.5210 H   0  0  0  0  0  0  0  0  0  0  0  0
   50.7942   11.8891   15.7735 H   0  0  0  0  0  0  0  0  0  0  0  0
   51.3190   12.1122   14.0807 H   0  0  0  0  0  0  0  0  0  0  0  0
   46.4006   12.6912   12.9704 H   0  0  0  0  0  0  0  0  0  0  0  0
   44.8612   15.3043   10.0092 H   0  0  0  0  0  0  0  0  0  0  0  0
   47.1470   16.3443   11.0515 H   0  0  0  0  0  0  0  0  0  0  0  0
   45.8053   10.7457   12.2010 H   0  0  0  0  0  0  0  0  0  0  0  0
   42.8113    8.2651   10.6146 H   0  0  0  0  0  0  0  0  0  0  0  0
   42.0468   10.8258   10.2326 H   0  0  0  0  0  0  0  0  0  0  0  0
   49.2386    7.1975   14.3755 H   0  0  0  0  0  0  0  0  0  0  0  0
   47.2258    6.1082   13.2243 H   0  0  0  0  0  0  0  0  0  0  0  0
   49.5264    9.3525   16.8872 H   0  0  0  0  0  0  0  0  0  0  0  0
   53.5467    7.7820   16.7228 H   0  0  0  0  0  0  0  0  0  0  0  0
   53.6198    8.2926   14.2790 H   0  0  0  0  0  0  0  0  0  0  0  0
   51.6320    9.3169   13.1721 H   0  0  0  0  0  0  0  0  0  0  0  0
   43.9039    6.4696   13.7163 H   0  0  0  0  0  0  0  0  0  0  0  0
   43.6440    2.9802   11.1937 H   0  0  0  0  0  0  0  0  0  0  0  0
   45.0467    4.1269    9.4904 H   0  0  0  0  0  0  0  0  0  0  0  0
   45.8730    6.4417    9.9173 H   0  0  0  0  0  0  0  0  0  0  0  0
   42.9098    4.5529   14.2718 H   0  0  0  0  0  0  0  0  0  0  0  0
   50.6340    8.4563   18.5982 H   0  0  0  0  0  0  0  0  0  0  0  0
   48.7617   19.6088   16.0473 H   0  0  0  0  0  0  0  0  0  0  0  0
   41.4115   15.5329   14.4393 H   0  0  0  0  0  0  0  0  0  0  0  0
 25 26  2  0
 26 27  1  0
 27 23  1  0
 28 29  1  0
  1  2  2  0
  3  4  2  0
  7  8  2  0
 14 15  1  0
 29 30  1  0
 30 31  2  0
 31 32  1  0
 32 28  2  0
 15 16  1  0
 29 33  2  0
 17 33  1  0
 16 17  1  0
 14 34  2  0
 22 34  1  0
 17 13  2  0
 27 35  2  0
 19 35  1  0
 18 19  1  0
 24 36  2  0
 32 36  1  0
  8  9  1  0
  4  5  1  0
 37 38  2  0
  9 10  2  0
 38 39  1  0
  2  3  1  0
 39 40  2  0
 10 11  1  0
 40 41  1  0
 19 20  2  0
 41 42  2  0
 42 37  1  0
 33 37  1  0
 20 21  1  0
 21 22  2  0
 43 44  2  0
 22 18  1  0
 44 45  1  0
 23 24  1  0
 45 46  2  0
  5  6  2  0
 46 47  1  0
 11 12  2  0
 47 48  2  0
 48 43  1  0
 36 43  1  0
 12  7  1  0
 45 49  1  0
 13 14  1  0
 39 50  1  0
 35 12  1  0
 34  2  1  0
  6  1  1  0
  4 51  1  0
 24 25  1  0
  8 52  1  0
  1 53  1  0
  3 54  1  0
  5 55  1  0
  6 56  1  0
  7 57  1  0
  9 58  1  0
 10 59  1  0
 11 60  1  0
 15 61  1  0
 15 62  1  0
 16 63  1  0
 16 64  1  0
 18 65  1  0
 20 66  1  0
 21 67  1  0
 23 68  1  0
 25 69  1  0
 26 70  1  0
 30 71  1  0
 31 72  1  0
 38 73  1  0
 40 74  1  0
 41 75  1  0
 42 76  1  0
 44 77  1  0
 46 78  1  0
 47 79  1  0
 48 80  1  0
 49 81  1  0
 50 82  1  0
 51 83  1  0
 52 84  1  0
M  END
> <Uni-Dock RESULT> 
ENERGY=   -5.232  LOWER_BOUND=    1.902  UPPER_BOUND=    7.711
INTER + INTRA:          -5.232
INTER:                  -5.232
INTRA:                   0.000
UNBOUND:                 0.000

$$$$
