
     RDKit          3D

 84 92  0  0  0  0  0  0  0  0999 V2000
   42.9009   13.2517    9.4280 C   0  0  0  0  0  0  0  0  0  0  0  0
   42.9348   12.9806   10.8047 C   0  0  0  0  0  0  0  0  0  0  0  0
   41.8690   13.3886   11.6128 C   0  0  0  0  0  0  0  0  0  0  0  0
   40.7887   14.0501   11.0407 C   0  0  0  0  0  0  0  0  0  0  0  0
   40.7532   14.3201    9.6707 C   0  0  0  0  0  0  0  0  0  0  0  0
   41.8137   13.9183    8.8616 C   0  0  0  0  0  0  0  0  0  0  0  0
   49.8778   15.4931   13.7941 C   0  0  0  0  0  0  0  0  0  0  0  0
   50.8816   16.4234   13.5386 C   0  0  0  0  0  0  0  0  0  0  0  0
   51.8543   16.1761   12.5765 C   0  0  0  0  0  0  0  0  0  0  0  0
   51.8270   14.9811   11.8570 C   0  0  0  0  0  0  0  0  0  0  0  0
   50.8216   14.0409   12.1022 C   0  0  0  0  0  0  0  0  0  0  0  0
   49.8414   14.2950   13.0684 C   0  0  0  0  0  0  0  0  0  0  0  0
   45.1064   10.0734   11.9190 N   0  0  0  0  0  0  0  0  0  0  0  0
   44.1304   10.8995   11.4413 C   0  0  0  0  0  0  0  0  0  0  0  0
   42.9626   10.0700   10.9841 C   0  0  0  0  0  0  0  0  0  0  0  0
   43.5609    8.6946   10.8551 C   0  0  0  0  0  0  0  0  0  0  0  0
   44.8014    8.7527   11.7320 C   0  0  0  0  0  0  0  0  0  0  0  0
   46.4459   12.5046   12.4631 N   0  0  0  0  0  0  0  0  0  0  0  0
   47.3391   13.4901   12.7983 C   0  0  0  0  0  0  0  0  0  0  0  0
   46.7525   14.7058   12.4936 C   0  0  0  0  0  0  0  0  0  0  0  0
   45.4752   14.4475   11.9403 C   0  0  0  0  0  0  0  0  0  0  0  0
   45.3198   13.0806   11.9213 C   0  0  0  0  0  0  0  0  0  0  0  0
   48.7805   10.7768   14.0856 N   0  0  0  0  0  0  0  0  0  0  0  0
   49.4182    9.9928   15.0197 C   0  0  0  0  0  0  0  0  0  0  0  0
   50.1310   10.8077   15.8648 C   0  0  0  0  0  0  0  0  0  0  0  0
   49.9631   12.1345   15.3870 C   0  0  0  0  0  0  0  0  0  0  0  0
   49.1511   12.0800   14.2705 C   0  0  0  0  0  0  0  0  0  0  0  0
   47.3374    8.4482   13.5214 N   0  0  0  0  0  0  0  0  0  0  0  0
   46.5146    7.5039   12.9596 C   0  0  0  0  0  0  0  0  0  0  0  0
   47.0591    6.2189   13.3940 C   0  0  0  0  0  0  0  0  0  0  0  0
   48.1057    6.4306   14.1859 C   0  0  0  0  0  0  0  0  0  0  0  0
   48.2972    7.8561   14.3007 C   0  0  0  0  0  0  0  0  0  0  0  0
   45.3955    7.5891   12.1663 C   0  0  0  0  0  0  0  0  0  0  0  0
   44.0890   12.2576   11.3791 C   0  0  0  0  0  0  0  0  0  0  0  0
   48.7916   13.2948   13.3546 C   0  0  0  0  0  0  0  0  0  0  0  0
   49.2820    8.4160   15.0544 C   0  0  0  0  0  0  0  0  0  0  0  0
   44.7306    6.3118   11.7650 C   0  0  0  0  0  0  0  0  0  0  0  0
   45.0147    5.6995   10.5370 C   0  0  0  0  0  0  0  0  0  0  0  0
   44.3633    4.5219   10.1885 C   0  0  0  0  0  0  0  0  0  0  0  0
   43.4344    3.9346   11.0484 C   0  0  0  0  0  0  0  0  0  0  0  0
   43.1575    4.5305   12.2781 C   0  0  0  0  0  0  0  0  0  0  0  0
   43.7988    5.7165   12.6317 C   0  0  0  0  0  0  0  0  0  0  0  0
   50.2211    7.6334   15.8856 C   0  0  0  0  0  0  0  0  0  0  0  0
   51.5730    7.5300   15.5395 C   0  0  0  0  0  0  0  0  0  0  0  0
   52.4414    6.8044   16.3506 C   0  0  0  0  0  0  0  0  0  0  0  0
   51.9827    6.1764   17.5098 C   0  0  0  0  0  0  0  0  0  0  0  0
   50.6365    6.2778   17.8614 C   0  0  0  0  0  0  0  0  0  0  0  0
   49.7630    7.0104   17.0553 C   0  0  0  0  0  0  0  0  0  0  0  0
   53.7555    6.7263   15.9835 O   0  0  0  0  0  0  0  0  0  0  0  0
   44.6509    3.9523    8.9800 O   0  0  0  0  0  0  0  0  0  0  0  0
   39.7560   14.4268   11.8537 O   0  0  0  0  0  0  0  0  0  0  0  0
   50.9380   17.6052   14.2232 O   0  0  0  0  0  0  0  0  0  0  0  0
   43.7307   12.9243    8.8049 H   0  0  0  0  0  0  0  0  0  0  0  0
   41.8853   13.1687   12.6780 H   0  0  0  0  0  0  0  0  0  0  0  0
   39.9120   14.8392    9.2238 H   0  0  0  0  0  0  0  0  0  0  0  0
   41.8000   14.1143    7.7936 H   0  0  0  0  0  0  0  0  0  0  0  0
   49.1181   15.6737   14.5506 H   0  0  0  0  0  0  0  0  0  0  0  0
   52.6315   16.9095   12.3894 H   0  0  0  0  0  0  0  0  0  0  0  0
   52.5792   14.7783   11.0988 H   0  0  0  0  0  0  0  0  0  0  0  0
   50.7947   13.1079   11.5398 H   0  0  0  0  0  0  0  0  0  0  0  0
   42.5252   10.3899   10.0307 H   0  0  0  0  0  0  0  0  0  0  0  0
   42.1743   10.0788   11.7496 H   0  0  0  0  0  0  0  0  0  0  0  0
   42.8186    7.9505   11.1603 H   0  0  0  0  0  0  0  0  0  0  0  0
   43.8473    8.5068    9.8106 H   0  0  0  0  0  0  0  0  0  0  0  0
   46.5289   11.4897   12.5474 H   0  0  0  0  0  0  0  0  0  0  0  0
   47.1943   15.6804   12.6295 H   0  0  0  0  0  0  0  0  0  0  0  0
   44.7600   15.1736   11.5781 H   0  0  0  0  0  0  0  0  0  0  0  0
   48.1321   10.3690   13.4088 H   0  0  0  0  0  0  0  0  0  0  0  0
   50.7175   10.4867   16.7139 H   0  0  0  0  0  0  0  0  0  0  0  0
   50.4130   13.0270   15.7964 H   0  0  0  0  0  0  0  0  0  0  0  0
   46.6840    5.2487   13.1212 H   0  0  0  0  0  0  0  0  0  0  0  0
   48.7108    5.6701   14.6457 H   0  0  0  0  0  0  0  0  0  0  0  0
   45.7365    6.1640    9.8740 H   0  0  0  0  0  0  0  0  0  0  0  0
   42.9251    3.0172   10.7831 H   0  0  0  0  0  0  0  0  0  0  0  0
   42.4449    4.0845   12.9628 H   0  0  0  0  0  0  0  0  0  0  0  0
   43.5943    6.2063   13.5824 H   0  0  0  0  0  0  0  0  0  0  0  0
   51.9340    8.0132   14.6365 H   0  0  0  0  0  0  0  0  0  0  0  0
   52.6565    5.6141   18.1492 H   0  0  0  0  0  0  0  0  0  0  0  0
   50.2618    5.7941   18.7578 H   0  0  0  0  0  0  0  0  0  0  0  0
   48.7088    7.0977   17.3174 H   0  0  0  0  0  0  0  0  0  0  0  0
   54.2142    6.1596   16.6237 H   0  0  0  0  0  0  0  0  0  0  0  0
   44.0666    3.1893    8.8669 H   0  0  0  0  0  0  0  0  0  0  0  0
   39.0301   14.7220   11.2840 H   0  0  0  0  0  0  0  0  0  0  0  0
   50.1555   17.6397   14.7991 H   0  0  0  0  0  0  0  0  0  0  0  0
 25 26  2  0
 26 27  1  0
 27 23  1  0
 28 29  1  0
  1  2  2  0
  3  4  2  0
  7  8  2  0
 14 15  1  0
 29 30  1  0
 30 31  2  0
 31 32  1  0
 32 28  2  0
 15 16  1  0
 29 33  2  0
 17 33  1  0
 16 17  1  0
 14 34  2  0
 22 34  1  0
 17 13  2  0
 27 35  2  0
 19 35  1  0
 18 19  1  0
 24 36  2  0
 32 36  1  0
  8  9  1  0
  4  5  1  0
 37 38  2  0
  9 10  2  0
 38 39  1  0
  2  3  1  0
 39 40  2  0
 10 11  1  0
 40 41  1  0
 19 20  2  0
 41 42  2  0
 42 37  1  0
 33 37  1  0
 20 21  1  0
 21 22  2  0
 43 44  2  0
 22 18  1  0
 44 45  1  0
 23 24  1  0
 45 46  2  0
  5  6  2  0
 46 47  1  0
 11 12  2  0
 47 48  2  0
 48 43  1  0
 36 43  1  0
 12  7  1  0
 45 49  1  0
 13 14  1  0
 39 50  1  0
 35 12  1  0
 34  2  1  0
  6  1  1  0
  4 51  1  0
 24 25  1  0
  8 52  1  0
  1 53  1  0
  3 54  1  0
  5 55  1  0
  6 56  1  0
  7 57  1  0
  9 58  1  0
 10 59  1  0
 11 60  1  0
 15 61  1  0
 15 62  1  0
 16 63  1  0
 16 64  1  0
 18 65  1  0
 20 66  1  0
 21 67  1  0
 23 68  1  0
 25 69  1  0
 26 70  1  0
 30 71  1  0
 31 72  1  0
 38 73  1  0
 40 74  1  0
 41 75  1  0
 42 76  1  0
 44 77  1  0
 46 78  1  0
 47 79  1  0
 48 80  1  0
 49 81  1  0
 50 82  1  0
 51 83  1  0
 52 84  1  0
M  END
> <Uni-Dock RESULT> 
ENERGY=   -6.196  LOWER_BOUND=    0.000  UPPER_BOUND=    0.000
INTER + INTRA:          -6.196
INTER:                  -6.196
INTRA:                   0.000
UNBOUND:                 0.000

$$$$

     RDKit          3D

 84 92  0  0  0  0  0  0  0  0999 V2000
   45.3894    5.8811   10.5966 C   0  0  0  0  0  0  0  0  0  0  0  0
   45.1391    6.5193   11.8213 C   0  0  0  0  0  0  0  0  0  0  0  0
   44.3174    5.8969   12.7663 C   0  0  0  0  0  0  0  0  0  0  0  0
   43.7664    4.6528   12.4826 C   0  0  0  0  0  0  0  0  0  0  0  0
   44.0152    4.0161   11.2645 C   0  0  0  0  0  0  0  0  0  0  0  0
   44.8306    4.6330   10.3185 C   0  0  0  0  0  0  0  0  0  0  0  0
   42.7115   13.9784   10.4341 C   0  0  0  0  0  0  0  0  0  0  0  0
   42.0909   14.7380    9.4460 C   0  0  0  0  0  0  0  0  0  0  0  0
   42.8081   15.2041    8.3498 C   0  0  0  0  0  0  0  0  0  0  0  0
   44.1669   14.9089    8.2365 C   0  0  0  0  0  0  0  0  0  0  0  0
   44.8000   14.1437    9.2205 C   0  0  0  0  0  0  0  0  0  0  0  0
   44.0742   13.6724   10.3205 C   0  0  0  0  0  0  0  0  0  0  0  0
   47.7106    9.0602   12.9790 N   0  0  0  0  0  0  0  0  0  0  0  0
   46.9882    7.9452   12.6656 C   0  0  0  0  0  0  0  0  0  0  0  0
   47.7541    6.7248   13.0955 C   0  0  0  0  0  0  0  0  0  0  0  0
   49.1507    7.2556   13.2804 C   0  0  0  0  0  0  0  0  0  0  0  0
   48.9507    8.7510   13.4674 C   0  0  0  0  0  0  0  0  0  0  0  0
   45.4640   10.4166   11.9234 N   0  0  0  0  0  0  0  0  0  0  0  0
   44.5607   11.3314   11.4453 C   0  0  0  0  0  0  0  0  0  0  0  0
   43.4716   10.6283   10.9613 C   0  0  0  0  0  0  0  0  0  0  0  0
   43.7318    9.2475   11.1340 C   0  0  0  0  0  0  0  0  0  0  0  0
   44.9741    9.1474   11.7170 C   0  0  0  0  0  0  0  0  0  0  0  0
   46.7876   13.2835   12.9708 N   0  0  0  0  0  0  0  0  0  0  0  0
   47.2562   14.2909   13.7828 C   0  0  0  0  0  0  0  0  0  0  0  0
   46.2975   15.2709   13.8654 C   0  0  0  0  0  0  0  0  0  0  0  0
   45.2287   14.8655   13.0228 C   0  0  0  0  0  0  0  0  0  0  0  0
   45.5735   13.6515   12.4604 C   0  0  0  0  0  0  0  0  0  0  0  0
   48.9326   11.8216   14.0125 N   0  0  0  0  0  0  0  0  0  0  0  0
   49.8909   10.8703   14.2590 C   0  0  0  0  0  0  0  0  0  0  0  0
   50.9903   11.5942   14.8942 C   0  0  0  0  0  0  0  0  0  0  0  0
   50.6529   12.8728   15.0312 C   0  0  0  0  0  0  0  0  0  0  0  0
   49.3269   13.0448   14.4892 C   0  0  0  0  0  0  0  0  0  0  0  0
   49.9455    9.5153   14.0347 C   0  0  0  0  0  0  0  0  0  0  0  0
   45.7562    7.8331   12.1004 C   0  0  0  0  0  0  0  0  0  0  0  0
   44.7412   12.8872   11.3801 C   0  0  0  0  0  0  0  0  0  0  0  0
   48.6745   14.2389   14.4842 C   0  0  0  0  0  0  0  0  0  0  0  0
   51.1736    8.7876   14.4782 C   0  0  0  0  0  0  0  0  0  0  0  0
   52.2267    8.5312   13.5901 C   0  0  0  0  0  0  0  0  0  0  0  0
   53.3457    7.8349   14.0326 C   0  0  0  0  0  0  0  0  0  0  0  0
   53.4398    7.3933   15.3529 C   0  0  0  0  0  0  0  0  0  0  0  0
   52.4021    7.6575   16.2458 C   0  0  0  0  0  0  0  0  0  0  0  0
   51.2721    8.3465   15.8085 C   0  0  0  0  0  0  0  0  0  0  0  0
   49.2220   15.4729   15.0866 C   0  0  0  0  0  0  0  0  0  0  0  0
   49.6345   16.5427   14.2846 C   0  0  0  0  0  0  0  0  0  0  0  0
   50.1271   17.7023   14.8774 C   0  0  0  0  0  0  0  0  0  0  0  0
   50.2152   17.8153   16.2659 C   0  0  0  0  0  0  0  0  0  0  0  0
   49.8033   16.7529   17.0709 C   0  0  0  0  0  0  0  0  0  0  0  0
   49.3018   15.5907   16.4815 C   0  0  0  0  0  0  0  0  0  0  0  0
   50.5186   18.7282   14.0638 O   0  0  0  0  0  0  0  0  0  0  0  0
   54.3529    7.5888   13.1424 O   0  0  0  0  0  0  0  0  0  0  0  0
   42.9766    4.0634   13.4302 O   0  0  0  0  0  0  0  0  0  0  0  0
   40.7611   15.0446    9.5239 O   0  0  0  0  0  0  0  0  0  0  0  0
   46.0358    6.3686    9.8696 H   0  0  0  0  0  0  0  0  0  0  0  0
   44.1317    6.3822   13.7220 H   0  0  0  0  0  0  0  0  0  0  0  0
   43.5829    3.0465   11.0409 H   0  0  0  0  0  0  0  0  0  0  0  0
   45.0398    4.1498    9.3688 H   0  0  0  0  0  0  0  0  0  0  0  0
   42.1611   13.6170   11.2993 H   0  0  0  0  0  0  0  0  0  0  0  0
   42.3116   15.7964    7.5885 H   0  0  0  0  0  0  0  0  0  0  0  0
   44.7373   15.2635    7.3817 H   0  0  0  0  0  0  0  0  0  0  0  0
   45.8604   13.9079    9.1338 H   0  0  0  0  0  0  0  0  0  0  0  0
   47.7476    5.9056   12.3665 H   0  0  0  0  0  0  0  0  0  0  0  0
   47.3544    6.3477   14.0471 H   0  0  0  0  0  0  0  0  0  0  0  0
   49.6186    6.7463   14.1287 H   0  0  0  0  0  0  0  0  0  0  0  0
   49.7465    7.0661   12.3763 H   0  0  0  0  0  0  0  0  0  0  0  0
   46.3782   10.5637   12.3554 H   0  0  0  0  0  0  0  0  0  0  0  0
   42.5877   11.0507   10.5098 H   0  0  0  0  0  0  0  0  0  0  0  0
   43.0960    8.4208   10.8470 H   0  0  0  0  0  0  0  0  0  0  0  0
   47.3192   12.4203   12.8410 H   0  0  0  0  0  0  0  0  0  0  0  0
   46.3643   16.1791   14.4475 H   0  0  0  0  0  0  0  0  0  0  0  0
   44.3213   15.4169   12.8250 H   0  0  0  0  0  0  0  0  0  0  0  0
   51.9297   11.1723   15.2039 H   0  0  0  0  0  0  0  0  0  0  0  0
   51.2691   13.6439   15.4572 H   0  0  0  0  0  0  0  0  0  0  0  0
   52.1442    8.8763   12.5652 H   0  0  0  0  0  0  0  0  0  0  0  0
   54.3089    6.8520   15.7035 H   0  0  0  0  0  0  0  0  0  0  0  0
   52.4609    7.3294   17.2776 H   0  0  0  0  0  0  0  0  0  0  0  0
   50.4445    8.5583   16.4835 H   0  0  0  0  0  0  0  0  0  0  0  0
   49.5719   16.4582   13.2038 H   0  0  0  0  0  0  0  0  0  0  0  0
   50.5929   18.7193   16.7339 H   0  0  0  0  0  0  0  0  0  0  0  0
   49.8669   16.8222   18.1521 H   0  0  0  0  0  0  0  0  0  0  0  0
   48.9769   14.7528   17.0980 H   0  0  0  0  0  0  0  0  0  0  0  0
   50.8698   19.4391   14.6229 H   0  0  0  0  0  0  0  0  0  0  0  0
   55.0137    7.0406   13.5888 H   0  0  0  0  0  0  0  0  0  0  0  0
   42.8115    3.1522   13.1455 H   0  0  0  0  0  0  0  0  0  0  0  0
   40.4081   14.5894   10.3070 H   0  0  0  0  0  0  0  0  0  0  0  0
 25 26  2  0
 26 27  1  0
 27 23  1  0
 28 29  1  0
  1  2  2  0
  3  4  2  0
  7  8  2  0
 14 15  1  0
 29 30  1  0
 30 31  2  0
 31 32  1  0
 32 28  2  0
 15 16  1  0
 29 33  2  0
 17 33  1  0
 16 17  1  0
 14 34  2  0
 22 34  1  0
 17 13  2  0
 27 35  2  0
 19 35  1  0
 18 19  1  0
 24 36  2  0
 32 36  1  0
  8  9  1  0
  4  5  1  0
 37 38  2  0
  9 10  2  0
 38 39  1  0
  2  3  1  0
 39 40  2  0
 10 11  1  0
 40 41  1  0
 19 20  2  0
 41 42  2  0
 42 37  1  0
 33 37  1  0
 20 21  1  0
 21 22  2  0
 43 44  2  0
 22 18  1  0
 44 45  1  0
 23 24  1  0
 45 46  2  0
  5  6  2  0
 46 47  1  0
 11 12  2  0
 47 48  2  0
 48 43  1  0
 36 43  1  0
 12  7  1  0
 45 49  1  0
 13 14  1  0
 39 50  1  0
 35 12  1  0
 34  2  1  0
  6  1  1  0
  4 51  1  0
 24 25  1  0
  8 52  1  0
  1 53  1  0
  3 54  1  0
  5 55  1  0
  6 56  1  0
  7 57  1  0
  9 58  1  0
 10 59  1  0
 11 60  1  0
 15 61  1  0
 15 62  1  0
 16 63  1  0
 16 64  1  0
 18 65  1  0
 20 66  1  0
 21 67  1  0
 23 68  1  0
 25 69  1  0
 26 70  1  0
 30 71  1  0
 31 72  1  0
 38 73  1  0
 40 74  1  0
 41 75  1  0
 42 76  1  0
 44 77  1  0
 46 78  1  0
 47 79  1  0
 48 80  1  0
 49 81  1  0
 50 82  1  0
 51 83  1  0
 52 84  1  0
M  END
> <Uni-Dock RESULT> 
ENERGY=   -6.131  LOWER_BOUND=    1.641  UPPER_BOUND=    7.855
INTER + INTRA:          -6.131
INTER:                  -6.131
INTRA:                   0.000
UNBOUND:                 0.000

$$$$

     RDKit          3D

 84 92  0  0  0  0  0  0  0  0999 V2000
   49.0995   16.2227   12.1335 C   0  0  0  0  0  0  0  0  0  0  0  0
   48.5780   15.3859   13.1323 C   0  0  0  0  0  0  0  0  0  0  0  0
   48.4665   15.8640   14.4417 C   0  0  0  0  0  0  0  0  0  0  0  0
   48.8668   17.1626   14.7339 C   0  0  0  0  0  0  0  0  0  0  0  0
   49.3853   17.9968   13.7408 C   0  0  0  0  0  0  0  0  0  0  0  0
   49.5012   17.5245   12.4355 C   0  0  0  0  0  0  0  0  0  0  0  0
   52.4352    8.4177   12.9819 C   0  0  0  0  0  0  0  0  0  0  0  0
   53.6600    7.8780   12.5985 C   0  0  0  0  0  0  0  0  0  0  0  0
   53.9237    7.5854   11.2651 C   0  0  0  0  0  0  0  0  0  0  0  0
   52.9502    7.8343   10.2971 C   0  0  0  0  0  0  0  0  0  0  0  0
   51.7180    8.3798   10.6697 C   0  0  0  0  0  0  0  0  0  0  0  0
   51.4574    8.6771   12.0123 C   0  0  0  0  0  0  0  0  0  0  0  0
   46.3138   12.5637   11.9842 N   0  0  0  0  0  0  0  0  0  0  0  0
   46.8799   13.7486   12.3568 C   0  0  0  0  0  0  0  0  0  0  0  0
   45.8435   14.8353   12.2815 C   0  0  0  0  0  0  0  0  0  0  0  0
   44.7742   14.2170   11.4210 C   0  0  0  0  0  0  0  0  0  0  0  0
   45.0302   12.7230   11.5380 C   0  0  0  0  0  0  0  0  0  0  0  0
   48.8747   11.5235   12.5853 N   0  0  0  0  0  0  0  0  0  0  0  0
   49.9968   10.7519   12.7495 C   0  0  0  0  0  0  0  0  0  0  0  0
   51.0094   11.5796   13.2018 C   0  0  0  0  0  0  0  0  0  0  0  0
   50.4901   12.8933   13.2956 C   0  0  0  0  0  0  0  0  0  0  0  0
   49.1752   12.8300   12.8955 C   0  0  0  0  0  0  0  0  0  0  0  0
   47.6539    8.4576   12.1636 N   0  0  0  0  0  0  0  0  0  0  0  0
   46.9305    7.2999   12.3378 C   0  0  0  0  0  0  0  0  0  0  0  0
   47.7351    6.3656   12.9428 C   0  0  0  0  0  0  0  0  0  0  0  0
   49.0145    6.9645   13.0883 C   0  0  0  0  0  0  0  0  0  0  0  0
   48.9418    8.2432   12.5701 C   0  0  0  0  0  0  0  0  0  0  0  0
   45.1608    9.6085   11.6317 N   0  0  0  0  0  0  0  0  0  0  0  0
   44.1446   10.4553   11.2647 C   0  0  0  0  0  0  0  0  0  0  0  0
   43.0283    9.5794   10.9139 C   0  0  0  0  0  0  0  0  0  0  0  0
   43.3851    8.3137   11.1093 C   0  0  0  0  0  0  0  0  0  0  0  0
   44.7460    8.3028   11.5884 C   0  0  0  0  0  0  0  0  0  0  0  0
   44.0420   11.8246   11.2038 C   0  0  0  0  0  0  0  0  0  0  0  0
   48.1428   14.0166   12.7849 C   0  0  0  0  0  0  0  0  0  0  0  0
   50.1474    9.2269   12.4194 C   0  0  0  0  0  0  0  0  0  0  0  0
   45.4154    7.1601   11.9008 C   0  0  0  0  0  0  0  0  0  0  0  0
   42.7320   12.4038   10.7761 C   0  0  0  0  0  0  0  0  0  0  0  0
   42.4993   12.7684    9.4433 C   0  0  0  0  0  0  0  0  0  0  0  0
   41.2753   13.3217    9.0851 C   0  0  0  0  0  0  0  0  0  0  0  0
   40.2697   13.5130   10.0335 C   0  0  0  0  0  0  0  0  0  0  0  0
   40.4891   13.1393   11.3586 C   0  0  0  0  0  0  0  0  0  0  0  0
   41.7167   12.5925   11.7287 C   0  0  0  0  0  0  0  0  0  0  0  0
   44.8066    5.8141   11.8452 C   0  0  0  0  0  0  0  0  0  0  0  0
   45.1952    4.8890   10.8698 C   0  0  0  0  0  0  0  0  0  0  0  0
   44.6218    3.6203   10.8519 C   0  0  0  0  0  0  0  0  0  0  0  0
   43.6617    3.2546   11.7968 C   0  0  0  0  0  0  0  0  0  0  0  0
   43.2719    4.1717   12.7732 C   0  0  0  0  0  0  0  0  0  0  0  0
   43.8492    5.4428   12.7999 C   0  0  0  0  0  0  0  0  0  0  0  0
   45.0266    2.7415    9.8867 O   0  0  0  0  0  0  0  0  0  0  0  0
   41.0794   13.6787    7.7806 O   0  0  0  0  0  0  0  0  0  0  0  0
   48.7352   17.6064   16.0204 O   0  0  0  0  0  0  0  0  0  0  0  0
   54.6371    7.6230   13.5198 O   0  0  0  0  0  0  0  0  0  0  0  0
   49.1761   15.8456   11.1157 H   0  0  0  0  0  0  0  0  0  0  0  0
   48.0505   15.2231   15.2159 H   0  0  0  0  0  0  0  0  0  0  0  0
   49.7010   19.0094   13.9687 H   0  0  0  0  0  0  0  0  0  0  0  0
   49.8963   18.1613   11.6496 H   0  0  0  0  0  0  0  0  0  0  0  0
   52.2165    8.6416   14.0231 H   0  0  0  0  0  0  0  0  0  0  0  0
   54.8820    7.1634   10.9813 H   0  0  0  0  0  0  0  0  0  0  0  0
   53.1463    7.6143    9.2507 H   0  0  0  0  0  0  0  0  0  0  0  0
   50.9564    8.5789    9.9161 H   0  0  0  0  0  0  0  0  0  0  0  0
   46.2007   15.7721   11.8372 H   0  0  0  0  0  0  0  0  0  0  0  0
   45.4545   15.0521   13.2861 H   0  0  0  0  0  0  0  0  0  0  0  0
   43.7925   14.5430   11.7791 H   0  0  0  0  0  0  0  0  0  0  0  0
   44.8995   14.5394   10.3777 H   0  0  0  0  0  0  0  0  0  0  0  0
   47.9392   11.2595   12.2702 H   0  0  0  0  0  0  0  0  0  0  0  0
   52.0234   11.2862   13.4232 H   0  0  0  0  0  0  0  0  0  0  0  0
   51.0197   13.7861   13.5994 H   0  0  0  0  0  0  0  0  0  0  0  0
   47.2134    9.3050   11.7996 H   0  0  0  0  0  0  0  0  0  0  0  0
   47.4438    5.3652   13.2300 H   0  0  0  0  0  0  0  0  0  0  0  0
   49.8991    6.4997   13.4981 H   0  0  0  0  0  0  0  0  0  0  0  0
   42.0666    9.8955   10.5512 H   0  0  0  0  0  0  0  0  0  0  0  0
   42.7700    7.4513   10.9261 H   0  0  0  0  0  0  0  0  0  0  0  0
   43.2872   12.6180    8.7133 H   0  0  0  0  0  0  0  0  0  0  0  0
   39.3144   13.9422    9.7603 H   0  0  0  0  0  0  0  0  0  0  0  0
   39.7167   13.2727   12.1078 H   0  0  0  0  0  0  0  0  0  0  0  0
   41.9162   12.3001   12.7583 H   0  0  0  0  0  0  0  0  0  0  0  0
   45.9387    5.1700   10.1299 H   0  0  0  0  0  0  0  0  0  0  0  0
   43.2154    2.2647   11.7912 H   0  0  0  0  0  0  0  0  0  0  0  0
   42.5250    3.9055   13.5142 H   0  0  0  0  0  0  0  0  0  0  0  0
   43.5539    6.1695   13.5565 H   0  0  0  0  0  0  0  0  0  0  0  0
   44.5102    1.9262    9.9857 H   0  0  0  0  0  0  0  0  0  0  0  0
   40.2138   14.1067    7.7186 H   0  0  0  0  0  0  0  0  0  0  0  0
   48.9030   18.5605   16.0175 H   0  0  0  0  0  0  0  0  0  0  0  0
   54.3122    7.9448   14.3776 H   0  0  0  0  0  0  0  0  0  0  0  0
 25 26  2  0
 26 27  1  0
 27 23  1  0
 28 29  1  0
  1  2  2  0
  3  4  2  0
  7  8  2  0
 14 15  1  0
 29 30  1  0
 30 31  2  0
 31 32  1  0
 32 28  2  0
 15 16  1  0
 29 33  2  0
 17 33  1  0
 16 17  1  0
 14 34  2  0
 22 34  1  0
 17 13  2  0
 27 35  2  0
 19 35  1  0
 18 19  1  0
 24 36  2  0
 32 36  1  0
  8  9  1  0
  4  5  1  0
 37 38  2  0
  9 10  2  0
 38 39  1  0
  2  3  1  0
 39 40  2  0
 10 11  1  0
 40 41  1  0
 19 20  2  0
 41 42  2  0
 42 37  1  0
 33 37  1  0
 20 21  1  0
 21 22  2  0
 43 44  2  0
 22 18  1  0
 44 45  1  0
 23 24  1  0
 45 46  2  0
  5  6  2  0
 46 47  1  0
 11 12  2  0
 47 48  2  0
 48 43  1  0
 36 43  1  0
 12  7  1  0
 45 49  1  0
 13 14  1  0
 39 50  1  0
 35 12  1  0
 34  2  1  0
  6  1  1  0
  4 51  1  0
 24 25  1  0
  8 52  1  0
  1 53  1  0
  3 54  1  0
  5 55  1  0
  6 56  1  0
  7 57  1  0
  9 58  1  0
 10 59  1  0
 11 60  1  0
 15 61  1  0
 15 62  1  0
 16 63  1  0
 16 64  1  0
 18 65  1  0
 20 66  1  0
 21 67  1  0
 23 68  1  0
 25 69  1  0
 26 70  1  0
 30 71  1  0
 31 72  1  0
 38 73  1  0
 40 74  1  0
 41 75  1  0
 42 76  1  0
 44 77  1  0
 46 78  1  0
 47 79  1  0
 48 80  1  0
 49 81  1  0
 50 82  1  0
 51 83  1  0
 52 84  1  0
M  END
> <Uni-Dock RESULT> 
ENERGY=   -6.114  LOWER_BOUND=    2.046  UPPER_BOUND=    7.142
INTER + INTRA:          -6.114
INTER:                  -6.114
INTRA:                   0.000
UNBOUND:                 0.000

$$$$

     RDKit          3D

 84 92  0  0  0  0  0  0  0  0999 V2000
   48.8259   16.1567   11.5862 C   0  0  0  0  0  0  0  0  0  0  0  0
   48.3418   15.3624   12.6373 C   0  0  0  0  0  0  0  0  0  0  0  0
   48.2405   15.9073   13.9212 C   0  0  0  0  0  0  0  0  0  0  0  0
   48.6135   17.2288   14.1367 C   0  0  0  0  0  0  0  0  0  0  0  0
   49.0948   18.0207   13.0915 C   0  0  0  0  0  0  0  0  0  0  0  0
   49.2005   17.4819   11.8113 C   0  0  0  0  0  0  0  0  0  0  0  0
   52.3662    8.4894   12.7885 C   0  0  0  0  0  0  0  0  0  0  0  0
   53.5973    7.9591   12.4124 C   0  0  0  0  0  0  0  0  0  0  0  0
   53.8459    7.6018   11.0920 C   0  0  0  0  0  0  0  0  0  0  0  0
   52.8506    7.7753   10.1297 C   0  0  0  0  0  0  0  0  0  0  0  0
   51.6117    8.3107   10.4948 C   0  0  0  0  0  0  0  0  0  0  0  0
   51.3663    8.6733   11.8242 C   0  0  0  0  0  0  0  0  0  0  0  0
   46.1289   12.4300   11.6817 N   0  0  0  0  0  0  0  0  0  0  0  0
   46.6719   13.6462   11.9806 C   0  0  0  0  0  0  0  0  0  0  0  0
   45.6079   14.7025   11.8662 C   0  0  0  0  0  0  0  0  0  0  0  0
   44.5399   14.0139   11.0591 C   0  0  0  0  0  0  0  0  0  0  0  0
   44.8346   12.5348   11.2507 C   0  0  0  0  0  0  0  0  0  0  0  0
   48.7242   11.4844   12.2912 N   0  0  0  0  0  0  0  0  0  0  0  0
   49.8675   10.7495   12.4761 C   0  0  0  0  0  0  0  0  0  0  0  0
   50.8669   11.6240   12.8655 C   0  0  0  0  0  0  0  0  0  0  0  0
   50.3171   12.9282   12.8986 C   0  0  0  0  0  0  0  0  0  0  0  0
   48.9977   12.8124   12.5261 C   0  0  0  0  0  0  0  0  0  0  0  0
   47.5723    8.3723   12.0551 N   0  0  0  0  0  0  0  0  0  0  0  0
   46.8806    7.2089   12.3036 C   0  0  0  0  0  0  0  0  0  0  0  0
   47.7179    6.3276   12.9430 C   0  0  0  0  0  0  0  0  0  0  0  0
   48.9844    6.9636   13.0334 C   0  0  0  0  0  0  0  0  0  0  0  0
   48.8717    8.2105   12.4493 C   0  0  0  0  0  0  0  0  0  0  0  0
   45.0431    9.4338   11.5076 N   0  0  0  0  0  0  0  0  0  0  0  0
   44.0005   10.2354   11.1144 C   0  0  0  0  0  0  0  0  0  0  0  0
   42.9004    9.3158   10.8308 C   0  0  0  0  0  0  0  0  0  0  0  0
   43.2914    8.0712   11.0867 C   0  0  0  0  0  0  0  0  0  0  0  0
   44.6599    8.1181   11.5413 C   0  0  0  0  0  0  0  0  0  0  0  0
   43.8633   11.5966   10.9826 C   0  0  0  0  0  0  0  0  0  0  0  0
   47.9347   13.9666   12.3711 C   0  0  0  0  0  0  0  0  0  0  0  0
   50.0501    9.2130   12.2249 C   0  0  0  0  0  0  0  0  0  0  0  0
   45.3623    7.0100   11.9019 C   0  0  0  0  0  0  0  0  0  0  0  0
   42.5325   12.1209   10.5483 C   0  0  0  0  0  0  0  0  0  0  0  0
   42.2687   12.4079    9.2023 C   0  0  0  0  0  0  0  0  0  0  0  0
   41.0257   12.9122    8.8373 C   0  0  0  0  0  0  0  0  0  0  0  0
   40.0317   13.1301    9.7920 C   0  0  0  0  0  0  0  0  0  0  0  0
   40.2822   12.8333   11.1310 C   0  0  0  0  0  0  0  0  0  0  0  0
   41.5288   12.3363   11.5075 C   0  0  0  0  0  0  0  0  0  0  0  0
   44.7860    5.6489   11.9289 C   0  0  0  0  0  0  0  0  0  0  0  0
   45.1809    4.6823   10.9973 C   0  0  0  0  0  0  0  0  0  0  0  0
   44.6386    3.4013   11.0571 C   0  0  0  0  0  0  0  0  0  0  0  0
   43.7037    3.0642   12.0372 C   0  0  0  0  0  0  0  0  0  0  0  0
   43.3077    4.0228   12.9703 C   0  0  0  0  0  0  0  0  0  0  0  0
   43.8540    5.3067   12.9190 C   0  0  0  0  0  0  0  0  0  0  0  0
   45.0488    2.4819   10.1330 O   0  0  0  0  0  0  0  0  0  0  0  0
   40.7995   13.1940    7.5193 O   0  0  0  0  0  0  0  0  0  0  0  0
   48.4925   17.7377   15.3999 O   0  0  0  0  0  0  0  0  0  0  0  0
   54.5956    7.7770   13.3283 O   0  0  0  0  0  0  0  0  0  0  0  0
   48.8948   15.7275   10.5887 H   0  0  0  0  0  0  0  0  0  0  0  0
   47.8533   15.2991   14.7358 H   0  0  0  0  0  0  0  0  0  0  0  0
   49.3892   19.0512   13.2595 H   0  0  0  0  0  0  0  0  0  0  0  0
   49.5667   18.0848   10.9857 H   0  0  0  0  0  0  0  0  0  0  0  0
   52.1594    8.7636   13.8201 H   0  0  0  0  0  0  0  0  0  0  0  0
   54.8094    7.1880   10.8138 H   0  0  0  0  0  0  0  0  0  0  0  0
   53.0346    7.5043    9.0932 H   0  0  0  0  0  0  0  0  0  0  0  0
   50.8330    8.4511    9.7455 H   0  0  0  0  0  0  0  0  0  0  0  0
   45.9345   15.6224   11.3663 H   0  0  0  0  0  0  0  0  0  0  0  0
   45.2305   14.9636   12.8646 H   0  0  0  0  0  0  0  0  0  0  0  0
   43.5567   14.3353   11.4169 H   0  0  0  0  0  0  0  0  0  0  0  0
   44.6400   14.2828    9.9980 H   0  0  0  0  0  0  0  0  0  0  0  0
   47.7904   11.1819   12.0075 H   0  0  0  0  0  0  0  0  0  0  0  0
   51.8914   11.3669   13.0840 H   0  0  0  0  0  0  0  0  0  0  0  0
   50.8296   13.8483   13.1450 H   0  0  0  0  0  0  0  0  0  0  0  0
   47.1052    9.1884   11.6545 H   0  0  0  0  0  0  0  0  0  0  0  0
   47.4561    5.3374   13.2881 H   0  0  0  0  0  0  0  0  0  0  0  0
   49.8869    6.5424   13.4514 H   0  0  0  0  0  0  0  0  0  0  0  0
   41.9253    9.5891   10.4691 H   0  0  0  0  0  0  0  0  0  0  0  0
   42.6947    7.1858   10.9608 H   0  0  0  0  0  0  0  0  0  0  0  0
   43.0478   12.2373    8.4674 H   0  0  0  0  0  0  0  0  0  0  0  0
   39.0617   13.5214    9.5136 H   0  0  0  0  0  0  0  0  0  0  0  0
   39.5194   12.9884   11.8857 H   0  0  0  0  0  0  0  0  0  0  0  0
   41.7526   12.1043   12.5475 H   0  0  0  0  0  0  0  0  0  0  0  0
   45.9048    4.9408   10.2303 H   0  0  0  0  0  0  0  0  0  0  0  0
   43.2818    2.0651   12.0923 H   0  0  0  0  0  0  0  0  0  0  0  0
   42.5800    3.7791   13.7377 H   0  0  0  0  0  0  0  0  0  0  0  0
   43.5536    6.0658   13.6411 H   0  0  0  0  0  0  0  0  0  0  0  0
   44.5543    1.6610   10.2845 H   0  0  0  0  0  0  0  0  0  0  0  0
   39.9226   13.5974    7.4502 H   0  0  0  0  0  0  0  0  0  0  0  0
   48.6367   18.6940   15.3433 H   0  0  0  0  0  0  0  0  0  0  0  0
   54.2772    8.1366   14.1735 H   0  0  0  0  0  0  0  0  0  0  0  0
 25 26  2  0
 26 27  1  0
 27 23  1  0
 28 29  1  0
  1  2  2  0
  3  4  2  0
  7  8  2  0
 14 15  1  0
 29 30  1  0
 30 31  2  0
 31 32  1  0
 32 28  2  0
 15 16  1  0
 29 33  2  0
 17 33  1  0
 16 17  1  0
 14 34  2  0
 22 34  1  0
 17 13  2  0
 27 35  2  0
 19 35  1  0
 18 19  1  0
 24 36  2  0
 32 36  1  0
  8  9  1  0
  4  5  1  0
 37 38  2  0
  9 10  2  0
 38 39  1  0
  2  3  1  0
 39 40  2  0
 10 11  1  0
 40 41  1  0
 19 20  2  0
 41 42  2  0
 42 37  1  0
 33 37  1  0
 20 21  1  0
 21 22  2  0
 43 44  2  0
 22 18  1  0
 44 45  1  0
 23 24  1  0
 45 46  2  0
  5  6  2  0
 46 47  1  0
 11 12  2  0
 47 48  2  0
 48 43  1  0
 36 43  1  0
 12  7  1  0
 45 49  1  0
 13 14  1  0
 39 50  1  0
 35 12  1  0
 34  2  1  0
  6  1  1  0
  4 51  1  0
 24 25  1  0
  8 52  1  0
  1 53  1  0
  3 54  1  0
  5 55  1  0
  6 56  1  0
  7 57  1  0
  9 58  1  0
 10 59  1  0
 11 60  1  0
 15 61  1  0
 15 62  1  0
 16 63  1  0
 16 64  1  0
 18 65  1  0
 20 66  1  0
 21 67  1  0
 23 68  1  0
 25 69  1  0
 26 70  1  0
 30 71  1  0
 31 72  1  0
 38 73  1  0
 40 74  1  0
 41 75  1  0
 42 76  1  0
 44 77  1  0
 46 78  1  0
 47 79  1  0
 48 80  1  0
 49 81  1  0
 50 82  1  0
 51 83  1  0
 52 84  1  0
M  END
> <Uni-Dock RESULT> 
ENERGY=   -5.941  LOWER_BOUND=    2.196  UPPER_BOUND=    7.000
INTER + INTRA:          -5.941
INTER:                  -5.941
INTRA:                   0.000
UNBOUND:                 0.000

$$$$

     RDKit          3D

 84 92  0  0  0  0  0  0  0  0999 V2000
   51.2403    7.1174   15.7275 C   0  0  0  0  0  0  0  0  0  0  0  0
   49.9833    7.6030   16.1199 C   0  0  0  0  0  0  0  0  0  0  0  0
   49.5936    7.5012   17.4590 C   0  0  0  0  0  0  0  0  0  0  0  0
   50.4588    6.9273   18.3832 C   0  0  0  0  0  0  0  0  0  0  0  0
   51.7104    6.4442   17.9944 C   0  0  0  0  0  0  0  0  0  0  0  0
   52.1023    6.5406   16.6611 C   0  0  0  0  0  0  0  0  0  0  0  0
   44.3969    4.5864   11.3086 C   0  0  0  0  0  0  0  0  0  0  0  0
   44.1687    3.4844   10.4889 C   0  0  0  0  0  0  0  0  0  0  0  0
   44.7195    3.4185    9.2139 C   0  0  0  0  0  0  0  0  0  0  0  0
   45.5106    4.4688    8.7475 C   0  0  0  0  0  0  0  0  0  0  0  0
   45.7499    5.5788    9.5632 C   0  0  0  0  0  0  0  0  0  0  0  0
   45.1975    5.6400   10.8477 C   0  0  0  0  0  0  0  0  0  0  0  0
   48.4312   10.2877   13.9307 N   0  0  0  0  0  0  0  0  0  0  0  0
   49.1544    9.5531   14.8255 C   0  0  0  0  0  0  0  0  0  0  0  0
   50.0916   10.4645   15.5682 C   0  0  0  0  0  0  0  0  0  0  0  0
   50.1226   11.6922   14.6975 C   0  0  0  0  0  0  0  0  0  0  0  0
   48.8462   11.5904   13.8779 C   0  0  0  0  0  0  0  0  0  0  0  0
   47.1934    7.8036   13.3846 N   0  0  0  0  0  0  0  0  0  0  0  0
   46.4557    6.7620   12.8824 C   0  0  0  0  0  0  0  0  0  0  0  0
   46.8363    5.6168   13.5595 C   0  0  0  0  0  0  0  0  0  0  0  0
   47.8471    5.9724   14.4847 C   0  0  0  0  0  0  0  0  0  0  0  0
   48.0560    7.3251   14.3441 C   0  0  0  0  0  0  0  0  0  0  0  0
   44.9964    9.3978   11.4612 N   0  0  0  0  0  0  0  0  0  0  0  0
   43.9736   10.2181   11.0432 C   0  0  0  0  0  0  0  0  0  0  0  0
   42.8489    9.4542   10.8488 C   0  0  0  0  0  0  0  0  0  0  0  0
   43.2227    8.1084   11.1048 C   0  0  0  0  0  0  0  0  0  0  0  0
   44.5607    8.1017   11.4495 C   0  0  0  0  0  0  0  0  0  0  0  0
   46.2812   11.7945   12.1157 N   0  0  0  0  0  0  0  0  0  0  0  0
   47.1979   12.7478   12.4831 C   0  0  0  0  0  0  0  0  0  0  0  0
   46.7201   13.9884   11.8757 C   0  0  0  0  0  0  0  0  0  0  0  0
   45.5792   13.7525   11.2351 C   0  0  0  0  0  0  0  0  0  0  0  0
   45.2629   12.3532   11.3879 C   0  0  0  0  0  0  0  0  0  0  0  0
   48.3381   12.7051   13.2496 C   0  0  0  0  0  0  0  0  0  0  0  0
   49.0945    8.2258   15.1163 C   0  0  0  0  0  0  0  0  0  0  0  0
   45.4212    6.8220   11.7061 C   0  0  0  0  0  0  0  0  0  0  0  0
   44.1462   11.7812   10.8612 C   0  0  0  0  0  0  0  0  0  0  0  0
   49.0805   13.9853   13.4607 C   0  0  0  0  0  0  0  0  0  0  0  0
   50.1684   14.3364   12.6503 C   0  0  0  0  0  0  0  0  0  0  0  0
   50.8473   15.5261   12.8876 C   0  0  0  0  0  0  0  0  0  0  0  0
   50.4561   16.3817   13.9181 C   0  0  0  0  0  0  0  0  0  0  0  0
   49.3657   16.0458   14.7193 C   0  0  0  0  0  0  0  0  0  0  0  0
   48.6849   14.8503   14.4947 C   0  0  0  0  0  0  0  0  0  0  0  0
   43.1061   12.5372   10.1317 C   0  0  0  0  0  0  0  0  0  0  0  0
   42.9332   12.3745    8.7527 C   0  0  0  0  0  0  0  0  0  0  0  0
   41.9324   13.0825    8.0926 C   0  0  0  0  0  0  0  0  0  0  0  0
   41.0942   13.9553    8.7883 C   0  0  0  0  0  0  0  0  0  0  0  0
   41.2601   14.1199   10.1637 C   0  0  0  0  0  0  0  0  0  0  0  0
   42.2575   13.4068   10.8315 C   0  0  0  0  0  0  0  0  0  0  0  0
   41.7904   12.8975    6.7460 O   0  0  0  0  0  0  0  0  0  0  0  0
   51.9116   15.8382   12.0892 O   0  0  0  0  0  0  0  0  0  0  0  0
   50.0554    6.8518   19.6873 O   0  0  0  0  0  0  0  0  0  0  0  0
   43.4003    2.4369   10.9140 O   0  0  0  0  0  0  0  0  0  0  0  0
   51.5391    7.2070   14.6850 H   0  0  0  0  0  0  0  0  0  0  0  0
   48.6256    7.8883   17.7696 H   0  0  0  0  0  0  0  0  0  0  0  0
   52.3849    5.9933   18.7144 H   0  0  0  0  0  0  0  0  0  0  0  0
   53.0741    6.1759   16.3422 H   0  0  0  0  0  0  0  0  0  0  0  0
   43.9634    4.6509   12.3036 H   0  0  0  0  0  0  0  0  0  0  0  0
   44.5316    2.5543    8.5856 H   0  0  0  0  0  0  0  0  0  0  0  0
   45.9506    4.4267    7.7544 H   0  0  0  0  0  0  0  0  0  0  0  0
   46.3702    6.3995    9.2038 H   0  0  0  0  0  0  0  0  0  0  0  0
   51.1031   10.0626   15.7023 H   0  0  0  0  0  0  0  0  0  0  0  0
   49.6771   10.7023   16.5577 H   0  0  0  0  0  0  0  0  0  0  0  0
   50.1895   12.5809   15.3328 H   0  0  0  0  0  0  0  0  0  0  0  0
   50.9987   11.6595   14.0345 H   0  0  0  0  0  0  0  0  0  0  0  0
   47.1839    8.7938   13.1328 H   0  0  0  0  0  0  0  0  0  0  0  0
   46.4514    4.6220   13.3992 H   0  0  0  0  0  0  0  0  0  0  0  0
   48.3765    5.3145   15.1606 H   0  0  0  0  0  0  0  0  0  0  0  0
   45.9021    9.7828   11.7373 H   0  0  0  0  0  0  0  0  0  0  0  0
   41.8783    9.8172   10.5418 H   0  0  0  0  0  0  0  0  0  0  0  0
   42.5903    7.2374   11.0156 H   0  0  0  0  0  0  0  0  0  0  0  0
   47.2061   14.9461   11.9282 H   0  0  0  0  0  0  0  0  0  0  0  0
   45.0041   14.4769   10.6870 H   0  0  0  0  0  0  0  0  0  0  0  0
   50.4667   13.6644   11.8529 H   0  0  0  0  0  0  0  0  0  0  0  0
   50.9800   17.3098   14.1068 H   0  0  0  0  0  0  0  0  0  0  0  0
   49.0420   16.7019   15.5195 H   0  0  0  0  0  0  0  0  0  0  0  0
   47.8355   14.5608   15.1112 H   0  0  0  0  0  0  0  0  0  0  0  0
   43.5854   11.6999    8.2062 H   0  0  0  0  0  0  0  0  0  0  0  0
   40.3083   14.5055    8.2797 H   0  0  0  0  0  0  0  0  0  0  0  0
   40.6192   14.7961   10.7203 H   0  0  0  0  0  0  0  0  0  0  0  0
   42.3990   13.5258   11.9056 H   0  0  0  0  0  0  0  0  0  0  0  0
   41.0842   13.4850    6.4338 H   0  0  0  0  0  0  0  0  0  0  0  0
   52.3078   16.6524   12.4308 H   0  0  0  0  0  0  0  0  0  0  0  0
   50.8223    6.5813   20.2138 H   0  0  0  0  0  0  0  0  0  0  0  0
   43.1562    2.6176   11.8375 H   0  0  0  0  0  0  0  0  0  0  0  0
 25 26  2  0
 26 27  1  0
 27 23  1  0
 28 29  1  0
  1  2  2  0
  3  4  2  0
  7  8  2  0
 14 15  1  0
 29 30  1  0
 30 31  2  0
 31 32  1  0
 32 28  2  0
 15 16  1  0
 29 33  2  0
 17 33  1  0
 16 17  1  0
 14 34  2  0
 22 34  1  0
 17 13  2  0
 27 35  2  0
 19 35  1  0
 18 19  1  0
 24 36  2  0
 32 36  1  0
  8  9  1  0
  4  5  1  0
 37 38  2  0
  9 10  2  0
 38 39  1  0
  2  3  1  0
 39 40  2  0
 10 11  1  0
 40 41  1  0
 19 20  2  0
 41 42  2  0
 42 37  1  0
 33 37  1  0
 20 21  1  0
 21 22  2  0
 43 44  2  0
 22 18  1  0
 44 45  1  0
 23 24  1  0
 45 46  2  0
  5  6  2  0
 46 47  1  0
 11 12  2  0
 47 48  2  0
 48 43  1  0
 36 43  1  0
 12  7  1  0
 45 49  1  0
 13 14  1  0
 39 50  1  0
 35 12  1  0
 34  2  1  0
  6  1  1  0
  4 51  1  0
 24 25  1  0
  8 52  1  0
  1 53  1  0
  3 54  1  0
  5 55  1  0
  6 56  1  0
  7 57  1  0
  9 58  1  0
 10 59  1  0
 11 60  1  0
 15 61  1  0
 15 62  1  0
 16 63  1  0
 16 64  1  0
 18 65  1  0
 20 66  1  0
 21 67  1  0
 23 68  1  0
 25 69  1  0
 26 70  1  0
 30 71  1  0
 31 72  1  0
 38 73  1  0
 40 74  1  0
 41 75  1  0
 42 76  1  0
 44 77  1  0
 46 78  1  0
 47 79  1  0
 48 80  1  0
 49 81  1  0
 50 82  1  0
 51 83  1  0
 52 84  1  0
M  END
> <Uni-Dock RESULT> 
ENERGY=   -5.860  LOWER_BOUND=    1.469  UPPER_BOUND=   10.860
INTER + INTRA:          -5.860
INTER:                  -5.860
INTRA:                   0.000
UNBOUND:                 0.000

$$$$

     RDKit          3D

 84 92  0  0  0  0  0  0  0  0999 V2000
   43.7571    5.7479   12.2911 C   0  0  0  0  0  0  0  0  0  0  0  0
   44.7666    6.4110   11.5762 C   0  0  0  0  0  0  0  0  0  0  0  0
   45.2894    5.8245   10.4194 C   0  0  0  0  0  0  0  0  0  0  0  0
   44.7974    4.5974    9.9902 C   0  0  0  0  0  0  0  0  0  0  0  0
   43.7923    3.9366   10.7002 C   0  0  0  0  0  0  0  0  0  0  0  0
   43.2701    4.5151   11.8548 C   0  0  0  0  0  0  0  0  0  0  0  0
   50.6026    8.4686   16.5926 C   0  0  0  0  0  0  0  0  0  0  0  0
   51.1539    8.0841   17.8118 C   0  0  0  0  0  0  0  0  0  0  0  0
   50.5525    8.4466   19.0118 C   0  0  0  0  0  0  0  0  0  0  0  0
   49.3821    9.2058   18.9969 C   0  0  0  0  0  0  0  0  0  0  0  0
   48.8171    9.5945   17.7785 C   0  0  0  0  0  0  0  0  0  0  0  0
   49.4226    9.2241   16.5723 C   0  0  0  0  0  0  0  0  0  0  0  0
   44.9713   10.1769   12.0071 N   0  0  0  0  0  0  0  0  0  0  0  0
   44.6683    8.8905   11.6654 C   0  0  0  0  0  0  0  0  0  0  0  0
   43.5293    8.8964   10.6839 C   0  0  0  0  0  0  0  0  0  0  0  0
   42.9534   10.2774   10.8499 C   0  0  0  0  0  0  0  0  0  0  0  0
   44.0900   11.0747   11.4691 C   0  0  0  0  0  0  0  0  0  0  0  0
   47.0021    8.9472   13.5448 N   0  0  0  0  0  0  0  0  0  0  0  0
   48.0294    8.6466   14.4026 C   0  0  0  0  0  0  0  0  0  0  0  0
   48.1771    7.2707   14.4105 C   0  0  0  0  0  0  0  0  0  0  0  0
   47.1984    6.7218   13.5473 C   0  0  0  0  0  0  0  0  0  0  0  0
   46.4797    7.7791   13.0387 C   0  0  0  0  0  0  0  0  0  0  0  0
   48.2391   11.9651   14.2006 N   0  0  0  0  0  0  0  0  0  0  0  0
   48.8301   13.1991   14.0535 C   0  0  0  0  0  0  0  0  0  0  0  0
   50.1371   13.1128   14.4669 C   0  0  0  0  0  0  0  0  0  0  0  0
   50.3276   11.7862   14.9367 C   0  0  0  0  0  0  0  0  0  0  0  0
   49.1310   11.1116   14.7890 C   0  0  0  0  0  0  0  0  0  0  0  0
   46.2084   13.0553   12.6161 N   0  0  0  0  0  0  0  0  0  0  0  0
   45.0372   13.2848   11.9379 C   0  0  0  0  0  0  0  0  0  0  0  0
   44.9494   14.7384   11.8127 C   0  0  0  0  0  0  0  0  0  0  0  0
   46.0290   15.2920   12.3563 C   0  0  0  0  0  0  0  0  0  0  0  0
   46.8655   14.2322   12.8651 C   0  0  0  0  0  0  0  0  0  0  0  0
   44.0759   12.4505   11.4195 C   0  0  0  0  0  0  0  0  0  0  0  0
   45.2543    7.7242   12.0479 C   0  0  0  0  0  0  0  0  0  0  0  0
   48.8486    9.6546   15.2803 C   0  0  0  0  0  0  0  0  0  0  0  0
   48.0610   14.4561   13.4751 C   0  0  0  0  0  0  0  0  0  0  0  0
   42.9264   13.0793   10.6996 C   0  0  0  0  0  0  0  0  0  0  0  0
   41.7159   13.3432   11.3543 C   0  0  0  0  0  0  0  0  0  0  0  0
   40.6618   13.9116   10.6484 C   0  0  0  0  0  0  0  0  0  0  0  0
   40.7937   14.2313    9.2965 C   0  0  0  0  0  0  0  0  0  0  0  0
   42.0000   13.9848    8.6423 C   0  0  0  0  0  0  0  0  0  0  0  0
   43.0592   13.4063    9.3398 C   0  0  0  0  0  0  0  0  0  0  0  0
   48.6631   15.7976   13.6277 C   0  0  0  0  0  0  0  0  0  0  0  0
   48.7548   16.4058   14.8846 C   0  0  0  0  0  0  0  0  0  0  0  0
   49.3454   17.6609   15.0045 C   0  0  0  0  0  0  0  0  0  0  0  0
   49.8510   18.3247   13.8855 C   0  0  0  0  0  0  0  0  0  0  0  0
   49.7646   17.7225   12.6300 C   0  0  0  0  0  0  0  0  0  0  0  0
   49.1798   16.4608   12.5055 C   0  0  0  0  0  0  0  0  0  0  0  0
   49.4202   18.2241   16.2475 O   0  0  0  0  0  0  0  0  0  0  0  0
   39.4889   14.1478   11.3088 O   0  0  0  0  0  0  0  0  0  0  0  0
   45.3196    4.0539    8.8496 O   0  0  0  0  0  0  0  0  0  0  0  0
   52.2986    7.3387   17.8639 O   0  0  0  0  0  0  0  0  0  0  0  0
   43.3504    6.2144   13.1861 H   0  0  0  0  0  0  0  0  0  0  0  0
   46.0626    6.3414    9.8551 H   0  0  0  0  0  0  0  0  0  0  0  0
   43.4100    2.9773   10.3678 H   0  0  0  0  0  0  0  0  0  0  0  0
   42.4841    4.0184   12.4158 H   0  0  0  0  0  0  0  0  0  0  0  0
   51.0703    8.1974   15.6493 H   0  0  0  0  0  0  0  0  0  0  0  0
   50.9945    8.1414   19.9544 H   0  0  0  0  0  0  0  0  0  0  0  0
   48.9000    9.4914   19.9284 H   0  0  0  0  0  0  0  0  0  0  0  0
   47.9010   10.1845   17.7626 H   0  0  0  0  0  0  0  0  0  0  0  0
   42.7634    8.1350   10.8739 H   0  0  0  0  0  0  0  0  0  0  0  0
   43.9133    8.7574    9.6637 H   0  0  0  0  0  0  0  0  0  0  0  0
   42.6140   10.6439    9.8760 H   0  0  0  0  0  0  0  0  0  0  0  0
   42.0972   10.2462   11.5385 H   0  0  0  0  0  0  0  0  0  0  0  0
   46.6116    9.8546   13.2838 H   0  0  0  0  0  0  0  0  0  0  0  0
   48.8939    6.7084   14.9879 H   0  0  0  0  0  0  0  0  0  0  0  0
   47.0241    5.6752   13.3373 H   0  0  0  0  0  0  0  0  0  0  0  0
   47.2853   11.7948   13.8752 H   0  0  0  0  0  0  0  0  0  0  0  0
   50.8639   13.9125   14.4504 H   0  0  0  0  0  0  0  0  0  0  0  0
   51.2319   11.3797   15.3651 H   0  0  0  0  0  0  0  0  0  0  0  0
   44.1435   15.2862   11.3580 H   0  0  0  0  0  0  0  0  0  0  0  0
   46.2321   16.3459   12.4183 H   0  0  0  0  0  0  0  0  0  0  0  0
   41.6216   13.0897   12.4046 H   0  0  0  0  0  0  0  0  0  0  0  0
   39.9770   14.6752    8.7421 H   0  0  0  0  0  0  0  0  0  0  0  0
   42.1238   14.2340    7.5944 H   0  0  0  0  0  0  0  0  0  0  0  0
   44.0087   13.1960    8.8502 H   0  0  0  0  0  0  0  0  0  0  0  0
   48.3593   15.8954   15.7576 H   0  0  0  0  0  0  0  0  0  0  0  0
   50.3179   19.3011   13.9739 H   0  0  0  0  0  0  0  0  0  0  0  0
   50.1501   18.2250   11.7487 H   0  0  0  0  0  0  0  0  0  0  0  0
   49.1051   15.9786   11.5310 H   0  0  0  0  0  0  0  0  0  0  0  0
   49.8180   19.1043   16.1562 H   0  0  0  0  0  0  0  0  0  0  0  0
   38.8473   14.4753   10.6625 H   0  0  0  0  0  0  0  0  0  0  0  0
   44.7657    3.2966    8.6082 H   0  0  0  0  0  0  0  0  0  0  0  0
   52.5412    7.1230   16.9475 H   0  0  0  0  0  0  0  0  0  0  0  0
 25 26  2  0
 26 27  1  0
 27 23  1  0
 28 29  1  0
  1  2  2  0
  3  4  2  0
  7  8  2  0
 14 15  1  0
 29 30  1  0
 30 31  2  0
 31 32  1  0
 32 28  2  0
 15 16  1  0
 29 33  2  0
 17 33  1  0
 16 17  1  0
 14 34  2  0
 22 34  1  0
 17 13  2  0
 27 35  2  0
 19 35  1  0
 18 19  1  0
 24 36  2  0
 32 36  1  0
  8  9  1  0
  4  5  1  0
 37 38  2  0
  9 10  2  0
 38 39  1  0
  2  3  1  0
 39 40  2  0
 10 11  1  0
 40 41  1  0
 19 20  2  0
 41 42  2  0
 42 37  1  0
 33 37  1  0
 20 21  1  0
 21 22  2  0
 43 44  2  0
 22 18  1  0
 44 45  1  0
 23 24  1  0
 45 46  2  0
  5  6  2  0
 46 47  1  0
 11 12  2  0
 47 48  2  0
 48 43  1  0
 36 43  1  0
 12  7  1  0
 45 49  1  0
 13 14  1  0
 39 50  1  0
 35 12  1  0
 34  2  1  0
  6  1  1  0
  4 51  1  0
 24 25  1  0
  8 52  1  0
  1 53  1  0
  3 54  1  0
  5 55  1  0
  6 56  1  0
  7 57  1  0
  9 58  1  0
 10 59  1  0
 11 60  1  0
 15 61  1  0
 15 62  1  0
 16 63  1  0
 16 64  1  0
 18 65  1  0
 20 66  1  0
 21 67  1  0
 23 68  1  0
 25 69  1  0
 26 70  1  0
 30 71  1  0
 31 72  1  0
 38 73  1  0
 40 74  1  0
 41 75  1  0
 42 76  1  0
 44 77  1  0
 46 78  1  0
 47 79  1  0
 48 80  1  0
 49 81  1  0
 50 82  1  0
 51 83  1  0
 52 84  1  0
M  END
> <Uni-Dock RESULT> 
ENERGY=   -5.698  LOWER_BOUND=    1.241  UPPER_BOUND=    8.019
INTER + INTRA:          -5.698
INTER:                  -5.698
INTRA:                   0.000
UNBOUND:                 0.000

$$$$

     RDKit          3D

 84 92  0  0  0  0  0  0  0  0999 V2000
   46.9257   17.5778   13.8031 C   0  0  0  0  0  0  0  0  0  0  0  0
   46.9807   16.8415   12.6095 C   0  0  0  0  0  0  0  0  0  0  0  0
   47.4357   17.4592   11.4403 C   0  0  0  0  0  0  0  0  0  0  0  0
   47.8334   18.7905   11.4782 C   0  0  0  0  0  0  0  0  0  0  0  0
   47.7799   19.5243   12.6655 C   0  0  0  0  0  0  0  0  0  0  0  0
   47.3247   18.9146   13.8324 C   0  0  0  0  0  0  0  0  0  0  0  0
   39.9464   13.3074   11.3911 C   0  0  0  0  0  0  0  0  0  0  0  0
   38.6004   13.4580   11.7138 C   0  0  0  0  0  0  0  0  0  0  0  0
   38.1179   13.0679   12.9580 C   0  0  0  0  0  0  0  0  0  0  0  0
   38.9913   12.5179   13.8967 C   0  0  0  0  0  0  0  0  0  0  0  0
   40.3458   12.3654   13.5854 C   0  0  0  0  0  0  0  0  0  0  0  0
   40.8290   12.7631   12.3335 C   0  0  0  0  0  0  0  0  0  0  0  0
   47.2399   13.0690   12.9414 N   0  0  0  0  0  0  0  0  0  0  0  0
   47.4434   14.4176   12.8852 C   0  0  0  0  0  0  0  0  0  0  0  0
   48.8956   14.7082   13.1449 C   0  0  0  0  0  0  0  0  0  0  0  0
   49.3837   13.4310   13.7747 C   0  0  0  0  0  0  0  0  0  0  0  0
   48.3633   12.3937   13.3340 C   0  0  0  0  0  0  0  0  0  0  0  0
   44.5819   13.7693   12.2735 N   0  0  0  0  0  0  0  0  0  0  0  0
   43.2372   13.7996   12.0048 C   0  0  0  0  0  0  0  0  0  0  0  0
   42.8793   15.1229   11.8162 C   0  0  0  0  0  0  0  0  0  0  0  0
   44.0371   15.9178   11.9949 C   0  0  0  0  0  0  0  0  0  0  0  0
   45.0686   15.0563   12.2897 C   0  0  0  0  0  0  0  0  0  0  0  0
   43.8937   10.5352   11.9068 N   0  0  0  0  0  0  0  0  0  0  0  0
   43.8784    9.2449   11.4285 C   0  0  0  0  0  0  0  0  0  0  0  0
   42.7436    9.0687   10.6751 C   0  0  0  0  0  0  0  0  0  0  0  0
   42.0146   10.2853   10.7482 C   0  0  0  0  0  0  0  0  0  0  0  0
   42.7335   11.1595   11.5404 C   0  0  0  0  0  0  0  0  0  0  0  0
   46.5609    9.9767   12.5370 N   0  0  0  0  0  0  0  0  0  0  0  0
   47.8427   10.0198   13.0263 C   0  0  0  0  0  0  0  0  0  0  0  0
   48.2686    8.6234   13.0989 C   0  0  0  0  0  0  0  0  0  0  0  0
   47.2949    7.8430   12.6405 C   0  0  0  0  0  0  0  0  0  0  0  0
   46.1905    8.6875   12.2547 C   0  0  0  0  0  0  0  0  0  0  0  0
   48.6713   11.0532   13.3931 C   0  0  0  0  0  0  0  0  0  0  0  0
   46.5693   15.4218   12.6069 C   0  0  0  0  0  0  0  0  0  0  0  0
   42.2534   12.5793   11.9851 C   0  0  0  0  0  0  0  0  0  0  0  0
   45.0322    8.2037   11.7296 C   0  0  0  0  0  0  0  0  0  0  0  0
   50.0475   10.7059   13.8624 C   0  0  0  0  0  0  0  0  0  0  0  0
   50.3380   10.5733   15.2267 C   0  0  0  0  0  0  0  0  0  0  0  0
   51.6336   10.2681   15.6277 C   0  0  0  0  0  0  0  0  0  0  0  0
   52.6499   10.0835   14.6895 C   0  0  0  0  0  0  0  0  0  0  0  0
   52.3650   10.1997   13.3297 C   0  0  0  0  0  0  0  0  0  0  0  0
   51.0709   10.5149   12.9189 C   0  0  0  0  0  0  0  0  0  0  0  0
   44.8007    6.7730   11.4384 C   0  0  0  0  0  0  0  0  0  0  0  0
   43.8963    6.0220   12.1974 C   0  0  0  0  0  0  0  0  0  0  0  0
   43.6805    4.6814   11.8894 C   0  0  0  0  0  0  0  0  0  0  0  0
   44.3545    4.0722   10.8297 C   0  0  0  0  0  0  0  0  0  0  0  0
   45.2557    4.8164   10.0678 C   0  0  0  0  0  0  0  0  0  0  0  0
   45.4702    6.1630   10.3680 C   0  0  0  0  0  0  0  0  0  0  0  0
   42.7885    3.9788   12.6500 O   0  0  0  0  0  0  0  0  0  0  0  0
   51.8914   10.1559   16.9651 O   0  0  0  0  0  0  0  0  0  0  0  0
   48.2846   19.3643   10.3222 O   0  0  0  0  0  0  0  0  0  0  0  0
   37.7170   13.9946   10.8192 O   0  0  0  0  0  0  0  0  0  0  0  0
   46.5774   17.0878   14.7102 H   0  0  0  0  0  0  0  0  0  0  0  0
   47.4923   16.8883   10.5161 H   0  0  0  0  0  0  0  0  0  0  0  0
   48.0870   20.5643   12.6953 H   0  0  0  0  0  0  0  0  0  0  0  0
   47.2823   19.4682   14.7657 H   0  0  0  0  0  0  0  0  0  0  0  0
   40.3313   13.6013   10.4177 H   0  0  0  0  0  0  0  0  0  0  0  0
   37.0662   13.1896   13.1948 H   0  0  0  0  0  0  0  0  0  0  0  0
   38.6270   12.2136   14.8747 H   0  0  0  0  0  0  0  0  0  0  0  0
   41.0318   11.9395   14.3172 H   0  0  0  0  0  0  0  0  0  0  0  0
   49.0749   15.5593   13.8129 H   0  0  0  0  0  0  0  0  0  0  0  0
   49.4159   14.8949   12.1952 H   0  0  0  0  0  0  0  0  0  0  0  0
   50.4082   13.2358   13.4423 H   0  0  0  0  0  0  0  0  0  0  0  0
   49.3748   13.5256   14.8697 H   0  0  0  0  0  0  0  0  0  0  0  0
   45.1939   12.9732   12.4627 H   0  0  0  0  0  0  0  0  0  0  0  0
   41.8903   15.4920   11.5950 H   0  0  0  0  0  0  0  0  0  0  0  0
   44.1063   16.9957   11.9363 H   0  0  0  0  0  0  0  0  0  0  0  0
   44.6958   10.8950   12.4281 H   0  0  0  0  0  0  0  0  0  0  0  0
   42.4624    8.1673   10.1493 H   0  0  0  0  0  0  0  0  0  0  0  0
   41.0544   10.4874   10.2970 H   0  0  0  0  0  0  0  0  0  0  0  0
   49.2155    8.2697   13.4657 H   0  0  0  0  0  0  0  0  0  0  0  0
   47.3229    6.7698   12.5837 H   0  0  0  0  0  0  0  0  0  0  0  0
   49.5424   10.7205   15.9490 H   0  0  0  0  0  0  0  0  0  0  0  0
   53.6602    9.8444   14.9956 H   0  0  0  0  0  0  0  0  0  0  0  0
   53.1398   10.0517   12.5859 H   0  0  0  0  0  0  0  0  0  0  0  0
   50.8241   10.6195   11.8636 H   0  0  0  0  0  0  0  0  0  0  0  0
   43.3726    6.4901   13.0254 H   0  0  0  0  0  0  0  0  0  0  0  0
   44.1858    3.0287   10.5812 H   0  0  0  0  0  0  0  0  0  0  0  0
   45.7905    4.3586    9.2418 H   0  0  0  0  0  0  0  0  0  0  0  0
   46.1717    6.7563    9.7818 H   0  0  0  0  0  0  0  0  0  0  0  0
   42.7817    3.0609   12.3358 H   0  0  0  0  0  0  0  0  0  0  0  0
   52.8425   10.0123   17.0711 H   0  0  0  0  0  0  0  0  0  0  0  0
   48.6654   20.2244   10.5539 H   0  0  0  0  0  0  0  0  0  0  0  0
   38.2299   14.2682   10.0400 H   0  0  0  0  0  0  0  0  0  0  0  0
 25 26  2  0
 26 27  1  0
 27 23  1  0
 28 29  1  0
  1  2  2  0
  3  4  2  0
  7  8  2  0
 14 15  1  0
 29 30  1  0
 30 31  2  0
 31 32  1  0
 32 28  2  0
 15 16  1  0
 29 33  2  0
 17 33  1  0
 16 17  1  0
 14 34  2  0
 22 34  1  0
 17 13  2  0
 27 35  2  0
 19 35  1  0
 18 19  1  0
 24 36  2  0
 32 36  1  0
  8  9  1  0
  4  5  1  0
 37 38  2  0
  9 10  2  0
 38 39  1  0
  2  3  1  0
 39 40  2  0
 10 11  1  0
 40 41  1  0
 19 20  2  0
 41 42  2  0
 42 37  1  0
 33 37  1  0
 20 21  1  0
 21 22  2  0
 43 44  2  0
 22 18  1  0
 44 45  1  0
 23 24  1  0
 45 46  2  0
  5  6  2  0
 46 47  1  0
 11 12  2  0
 47 48  2  0
 48 43  1  0
 36 43  1  0
 12  7  1  0
 45 49  1  0
 13 14  1  0
 39 50  1  0
 35 12  1  0
 34  2  1  0
  6  1  1  0
  4 51  1  0
 24 25  1  0
  8 52  1  0
  1 53  1  0
  3 54  1  0
  5 55  1  0
  6 56  1  0
  7 57  1  0
  9 58  1  0
 10 59  1  0
 11 60  1  0
 15 61  1  0
 15 62  1  0
 16 63  1  0
 16 64  1  0
 18 65  1  0
 20 66  1  0
 21 67  1  0
 23 68  1  0
 25 69  1  0
 26 70  1  0
 30 71  1  0
 31 72  1  0
 38 73  1  0
 40 74  1  0
 41 75  1  0
 42 76  1  0
 44 77  1  0
 46 78  1  0
 47 79  1  0
 48 80  1  0
 49 81  1  0
 50 82  1  0
 51 83  1  0
 52 84  1  0
M  END
> <Uni-Dock RESULT> 
ENERGY=   -4.798  LOWER_BOUND=    2.277  UPPER_BOUND=    8.268
INTER + INTRA:          -4.798
INTER:                  -4.798
INTRA:                   0.000
UNBOUND:                 0.000

$$$$

     RDKit          3D

 84 92  0  0  0  0  0  0  0  0999 V2000
   52.6418   10.4946    8.3613 C   0  0  0  0  0  0  0  0  0  0  0  0
   53.1225   10.1937    9.6451 C   0  0  0  0  0  0  0  0  0  0  0  0
   54.4005    9.6449    9.7902 C   0  0  0  0  0  0  0  0  0  0  0  0
   55.1789    9.4120    8.6625 C   0  0  0  0  0  0  0  0  0  0  0  0
   54.7021    9.7115    7.3842 C   0  0  0  0  0  0  0  0  0  0  0  0
   53.4285   10.2556    7.2339 C   0  0  0  0  0  0  0  0  0  0  0  0
   47.7050    5.8109   13.5049 C   0  0  0  0  0  0  0  0  0  0  0  0
   46.6555    4.9328   13.2481 C   0  0  0  0  0  0  0  0  0  0  0  0
   45.4036    5.4084   12.8746 C   0  0  0  0  0  0  0  0  0  0  0  0
   45.1934    6.7825   12.7555 C   0  0  0  0  0  0  0  0  0  0  0  0
   46.2408    7.6738   13.0071 C   0  0  0  0  0  0  0  0  0  0  0  0
   47.5010    7.1915   13.3787 C   0  0  0  0  0  0  0  0  0  0  0  0
   51.5826   12.1104   12.5372 N   0  0  0  0  0  0  0  0  0  0  0  0
   52.2947   11.6767   11.4564 C   0  0  0  0  0  0  0  0  0  0  0  0
   53.2324   12.7659   11.0146 C   0  0  0  0  0  0  0  0  0  0  0  0
   52.6617   13.9883   11.6827 C   0  0  0  0  0  0  0  0  0  0  0  0
   51.8291   13.4255   12.8234 C   0  0  0  0  0  0  0  0  0  0  0  0
   50.4787    9.5077   12.4460 N   0  0  0  0  0  0  0  0  0  0  0  0
   49.7476    8.3611   12.6258 C   0  0  0  0  0  0  0  0  0  0  0  0
   50.1520    7.4534   11.6627 C   0  0  0  0  0  0  0  0  0  0  0  0
   51.1425    8.0755   10.8652 C   0  0  0  0  0  0  0  0  0  0  0  0
   51.3128    9.3466   11.3635 C   0  0  0  0  0  0  0  0  0  0  0  0
   48.9456   10.1300   15.3322 N   0  0  0  0  0  0  0  0  0  0  0  0
   48.7147   10.3901   16.6637 C   0  0  0  0  0  0  0  0  0  0  0  0
   48.3428    9.2214   17.2819 C   0  0  0  0  0  0  0  0  0  0  0  0
   48.2915    8.2255   16.2708 C   0  0  0  0  0  0  0  0  0  0  0  0
   48.6376    8.8229   15.0740 C   0  0  0  0  0  0  0  0  0  0  0  0
   50.1359   12.6611   15.3284 N   0  0  0  0  0  0  0  0  0  0  0  0
   50.7173   13.8502   14.9647 C   0  0  0  0  0  0  0  0  0  0  0  0
   50.4015   14.7754   16.0513 C   0  0  0  0  0  0  0  0  0  0  0  0
   49.7142   14.1320   16.9899 C   0  0  0  0  0  0  0  0  0  0  0  0
   49.5441   12.7651   16.5604 C   0  0  0  0  0  0  0  0  0  0  0  0
   51.4643   14.2337   13.8766 C   0  0  0  0  0  0  0  0  0  0  0  0
   52.2777   10.4718   10.8257 C   0  0  0  0  0  0  0  0  0  0  0  0
   48.6062    8.1270   13.6745 C   0  0  0  0  0  0  0  0  0  0  0  0
   48.8919   11.8284   17.3010 C   0  0  0  0  0  0  0  0  0  0  0  0
   51.9657   15.6416   13.8406 C   0  0  0  0  0  0  0  0  0  0  0  0
   51.2652   16.6450   13.1581 C   0  0  0  0  0  0  0  0  0  0  0  0
   51.7711   17.9396   13.1299 C   0  0  0  0  0  0  0  0  0  0  0  0
   52.9647   18.2574   13.7790 C   0  0  0  0  0  0  0  0  0  0  0  0
   53.6596   17.2672   14.4722 C   0  0  0  0  0  0  0  0  0  0  0  0
   53.1648   15.9643   14.4978 C   0  0  0  0  0  0  0  0  0  0  0  0
   48.3429   12.0878   18.6488 C   0  0  0  0  0  0  0  0  0  0  0  0
   46.9613   12.1395   18.8646 C   0  0  0  0  0  0  0  0  0  0  0  0
   46.4693   12.3645   20.1476 C   0  0  0  0  0  0  0  0  0  0  0  0
   47.3367   12.5391   21.2272 C   0  0  0  0  0  0  0  0  0  0  0  0
   48.7151   12.4863   21.0188 C   0  0  0  0  0  0  0  0  0  0  0  0
   49.2135   12.2537   19.7354 C   0  0  0  0  0  0  0  0  0  0  0  0
   45.1145   12.4064   20.3223 O   0  0  0  0  0  0  0  0  0  0  0  0
   51.0733   18.8961   12.4474 O   0  0  0  0  0  0  0  0  0  0  0  0
   56.4286    8.8855    8.8361 O   0  0  0  0  0  0  0  0  0  0  0  0
   46.8262    3.5806   13.3533 O   0  0  0  0  0  0  0  0  0  0  0  0
   51.6492   10.9282    8.2575 H   0  0  0  0  0  0  0  0  0  0  0  0
   54.7820    9.4226   10.7844 H   0  0  0  0  0  0  0  0  0  0  0  0
   55.3076    9.5271    6.5032 H   0  0  0  0  0  0  0  0  0  0  0  0
   53.0442   10.5004    6.2482 H   0  0  0  0  0  0  0  0  0  0  0  0
   48.6850    5.4489   13.8061 H   0  0  0  0  0  0  0  0  0  0  0  0
   44.5946    4.7124   12.6794 H   0  0  0  0  0  0  0  0  0  0  0  0
   44.2204    7.1664   12.4595 H   0  0  0  0  0  0  0  0  0  0  0  0
   46.0816    8.7477   12.9116 H   0  0  0  0  0  0  0  0  0  0  0  0
   53.2812   12.9089    9.9284 H   0  0  0  0  0  0  0  0  0  0  0  0
   54.2464   12.5604   11.3850 H   0  0  0  0  0  0  0  0  0  0  0  0
   53.4820   14.6430   11.9938 H   0  0  0  0  0  0  0  0  0  0  0  0
   52.0163   14.5332   10.9794 H   0  0  0  0  0  0  0  0  0  0  0  0
   50.4569   10.3864   12.9670 H   0  0  0  0  0  0  0  0  0  0  0  0
   49.7677    6.4551   11.5243 H   0  0  0  0  0  0  0  0  0  0  0  0
   51.6569    7.6528   10.0128 H   0  0  0  0  0  0  0  0  0  0  0  0
   49.3096   10.8535   14.7088 H   0  0  0  0  0  0  0  0  0  0  0  0
   48.1171    9.1008   18.3320 H   0  0  0  0  0  0  0  0  0  0  0  0
   48.0022    7.1929   16.3995 H   0  0  0  0  0  0  0  0  0  0  0  0
   50.6733   15.8148   16.0956 H   0  0  0  0  0  0  0  0  0  0  0  0
   49.3387   14.5621   17.9009 H   0  0  0  0  0  0  0  0  0  0  0  0
   50.3393   16.3886   12.6548 H   0  0  0  0  0  0  0  0  0  0  0  0
   53.3628   19.2637   13.7616 H   0  0  0  0  0  0  0  0  0  0  0  0
   54.5844   17.4970   14.9893 H   0  0  0  0  0  0  0  0  0  0  0  0
   53.6924   15.1711   15.0249 H   0  0  0  0  0  0  0  0  0  0  0  0
   46.2823   12.0085   18.0274 H   0  0  0  0  0  0  0  0  0  0  0  0
   46.9586   12.7090   22.2308 H   0  0  0  0  0  0  0  0  0  0  0  0
   49.4044   12.6223   21.8459 H   0  0  0  0  0  0  0  0  0  0  0  0
   50.2879   12.2105   19.5577 H   0  0  0  0  0  0  0  0  0  0  0  0
   44.9369   12.6085   21.2544 H   0  0  0  0  0  0  0  0  0  0  0  0
   51.5934   19.7118   12.4683 H   0  0  0  0  0  0  0  0  0  0  0  0
   56.8872    8.9378    7.9843 H   0  0  0  0  0  0  0  0  0  0  0  0
   47.7645    3.4258   13.5553 H   0  0  0  0  0  0  0  0  0  0  0  0
 25 26  2  0
 26 27  1  0
 27 23  1  0
 28 29  1  0
  1  2  2  0
  3  4  2  0
  7  8  2  0
 14 15  1  0
 29 30  1  0
 30 31  2  0
 31 32  1  0
 32 28  2  0
 15 16  1  0
 29 33  2  0
 17 33  1  0
 16 17  1  0
 14 34  2  0
 22 34  1  0
 17 13  2  0
 27 35  2  0
 19 35  1  0
 18 19  1  0
 24 36  2  0
 32 36  1  0
  8  9  1  0
  4  5  1  0
 37 38  2  0
  9 10  2  0
 38 39  1  0
  2  3  1  0
 39 40  2  0
 10 11  1  0
 40 41  1  0
 19 20  2  0
 41 42  2  0
 42 37  1  0
 33 37  1  0
 20 21  1  0
 21 22  2  0
 43 44  2  0
 22 18  1  0
 44 45  1  0
 23 24  1  0
 45 46  2  0
  5  6  2  0
 46 47  1  0
 11 12  2  0
 47 48  2  0
 48 43  1  0
 36 43  1  0
 12  7  1  0
 45 49  1  0
 13 14  1  0
 39 50  1  0
 35 12  1  0
 34  2  1  0
  6  1  1  0
  4 51  1  0
 24 25  1  0
  8 52  1  0
  1 53  1  0
  3 54  1  0
  5 55  1  0
  6 56  1  0
  7 57  1  0
  9 58  1  0
 10 59  1  0
 11 60  1  0
 15 61  1  0
 15 62  1  0
 16 63  1  0
 16 64  1  0
 18 65  1  0
 20 66  1  0
 21 67  1  0
 23 68  1  0
 25 69  1  0
 26 70  1  0
 30 71  1  0
 31 72  1  0
 38 73  1  0
 40 74  1  0
 41 75  1  0
 42 76  1  0
 44 77  1  0
 46 78  1  0
 47 79  1  0
 48 80  1  0
 49 81  1  0
 50 82  1  0
 51 83  1  0
 52 84  1  0
M  END
> <Uni-Dock RESULT> 
ENERGY=   -4.587  LOWER_BOUND=    4.312  UPPER_BOUND=   10.198
INTER + INTRA:          -4.587
INTER:                  -4.587
INTRA:                   0.000
UNBOUND:                 0.000

$$$$

     RDKit          3D

 84 92  0  0  0  0  0  0  0  0999 V2000
   47.7692    6.7749   22.0789 C   0  0  0  0  0  0  0  0  0  0  0  0
   48.7597    7.6933   21.6977 C   0  0  0  0  0  0  0  0  0  0  0  0
   48.9191    8.8757   22.4272 C   0  0  0  0  0  0  0  0  0  0  0  0
   48.0998    9.1213   23.5227 C   0  0  0  0  0  0  0  0  0  0  0  0
   47.1140    8.2079   23.9037 C   0  0  0  0  0  0  0  0  0  0  0  0
   46.9491    7.0299   23.1787 C   0  0  0  0  0  0  0  0  0  0  0  0
   48.0341    9.2427   13.9177 C   0  0  0  0  0  0  0  0  0  0  0  0
   47.0757    9.2366   12.9078 C   0  0  0  0  0  0  0  0  0  0  0  0
   46.7014    8.0498   12.2878 C   0  0  0  0  0  0  0  0  0  0  0  0
   47.2925    6.8485   12.6803 C   0  0  0  0  0  0  0  0  0  0  0  0
   48.2532    6.8417   13.6960 C   0  0  0  0  0  0  0  0  0  0  0  0
   48.6246    8.0377   14.3210 C   0  0  0  0  0  0  0  0  0  0  0  0
   51.6946    6.3170   19.7226 N   0  0  0  0  0  0  0  0  0  0  0  0
   50.7868    6.6933   20.6700 C   0  0  0  0  0  0  0  0  0  0  0  0
   51.2716    6.2478   22.0217 C   0  0  0  0  0  0  0  0  0  0  0  0
   52.3135    5.2167   21.6790 C   0  0  0  0  0  0  0  0  0  0  0  0
   52.6990    5.5496   20.2466 C   0  0  0  0  0  0  0  0  0  0  0  0
   49.9226    7.6451   17.9627 N   0  0  0  0  0  0  0  0  0  0  0  0
   49.2526    8.1647   16.8845 C   0  0  0  0  0  0  0  0  0  0  0  0
   48.1009    8.7668   17.3598 C   0  0  0  0  0  0  0  0  0  0  0  0
   48.0634    8.5897   18.7639 C   0  0  0  0  0  0  0  0  0  0  0  0
   49.1931    7.8822   19.1051 C   0  0  0  0  0  0  0  0  0  0  0  0
   52.1557    7.2545   15.5278 N   0  0  0  0  0  0  0  0  0  0  0  0
   53.2979    7.3624   14.7679 C   0  0  0  0  0  0  0  0  0  0  0  0
   53.0615    8.2438   13.7414 C   0  0  0  0  0  0  0  0  0  0  0  0
   51.7027    8.6413   13.8523 C   0  0  0  0  0  0  0  0  0  0  0  0
   51.1617    7.9905   14.9444 C   0  0  0  0  0  0  0  0  0  0  0  0
   53.8360    5.9983   17.3775 N   0  0  0  0  0  0  0  0  0  0  0  0
   54.3424    5.3022   18.4468 C   0  0  0  0  0  0  0  0  0  0  0  0
   55.6257    4.7769   17.9846 C   0  0  0  0  0  0  0  0  0  0  0  0
   55.8450    5.1867   16.7391 C   0  0  0  0  0  0  0  0  0  0  0  0
   54.7186    5.9895   16.3288 C   0  0  0  0  0  0  0  0  0  0  0  0
   53.8794    5.0748   19.7207 C   0  0  0  0  0  0  0  0  0  0  0  0
   49.6279    7.3933   20.5397 C   0  0  0  0  0  0  0  0  0  0  0  0
   49.6600    8.0442   15.3755 C   0  0  0  0  0  0  0  0  0  0  0  0
   54.6307    6.5772   15.1047 C   0  0  0  0  0  0  0  0  0  0  0  0
   54.7443    4.2747   20.6407 C   0  0  0  0  0  0  0  0  0  0  0  0
   54.5549    2.8954   20.7998 C   0  0  0  0  0  0  0  0  0  0  0  0
   55.3660    2.1865   21.6785 C   0  0  0  0  0  0  0  0  0  0  0  0
   56.3735    2.8277   22.4004 C   0  0  0  0  0  0  0  0  0  0  0  0
   56.5770    4.1972   22.2364 C   0  0  0  0  0  0  0  0  0  0  0  0
   55.7623    4.9177   21.3646 C   0  0  0  0  0  0  0  0  0  0  0  0
   55.7010    6.5122   14.0871 C   0  0  0  0  0  0  0  0  0  0  0  0
   55.5338    5.7674   12.9144 C   0  0  0  0  0  0  0  0  0  0  0  0
   56.5489    5.7394   11.9618 C   0  0  0  0  0  0  0  0  0  0  0  0
   57.7360    6.4469   12.1587 C   0  0  0  0  0  0  0  0  0  0  0  0
   57.9077    7.1932   13.3249 C   0  0  0  0  0  0  0  0  0  0  0  0
   56.8898    7.2304   14.2799 C   0  0  0  0  0  0  0  0  0  0  0  0
   56.3507    5.0037   10.8273 O   0  0  0  0  0  0  0  0  0  0  0  0
   55.1520    0.8445   21.8228 O   0  0  0  0  0  0  0  0  0  0  0  0
   48.2864   10.2802   24.2237 O   0  0  0  0  0  0  0  0  0  0  0  0
   46.4749   10.3945   12.4994 O   0  0  0  0  0  0  0  0  0  0  0  0
   47.6564    5.8538   21.5105 H   0  0  0  0  0  0  0  0  0  0  0  0
   49.6944    9.5839   22.1431 H   0  0  0  0  0  0  0  0  0  0  0  0
   46.4719    8.4003   24.7567 H   0  0  0  0  0  0  0  0  0  0  0  0
   46.1920    6.3057   23.4644 H   0  0  0  0  0  0  0  0  0  0  0  0
   48.3397   10.1668   14.4023 H   0  0  0  0  0  0  0  0  0  0  0  0
   45.9545    8.0605   11.5011 H   0  0  0  0  0  0  0  0  0  0  0  0
   47.0046    5.9134   12.2064 H   0  0  0  0  0  0  0  0  0  0  0  0
   48.7146    5.9050   14.0078 H   0  0  0  0  0  0  0  0  0  0  0  0
   50.4945    5.8115   22.6607 H   0  0  0  0  0  0  0  0  0  0  0  0
   51.7260    7.0947   22.5545 H   0  0  0  0  0  0  0  0  0  0  0  0
   53.1336    5.2816   22.4010 H   0  0  0  0  0  0  0  0  0  0  0  0
   51.8744    4.2101   21.7259 H   0  0  0  0  0  0  0  0  0  0  0  0
   50.8074    7.1354   18.0000 H   0  0  0  0  0  0  0  0  0  0  0  0
   47.3490    9.2644   16.7678 H   0  0  0  0  0  0  0  0  0  0  0  0
   47.2913    8.9213   19.4449 H   0  0  0  0  0  0  0  0  0  0  0  0
   52.1454    6.7053   16.3897 H   0  0  0  0  0  0  0  0  0  0  0  0
   53.7748    8.5519   12.9902 H   0  0  0  0  0  0  0  0  0  0  0  0
   51.1709    9.3056   13.1872 H   0  0  0  0  0  0  0  0  0  0  0  0
   56.2947    4.1541   18.5511 H   0  0  0  0  0  0  0  0  0  0  0  0
   56.7049    4.9467   16.1400 H   0  0  0  0  0  0  0  0  0  0  0  0
   53.7683    2.4057   20.2363 H   0  0  0  0  0  0  0  0  0  0  0  0
   57.0089    2.2809   23.0850 H   0  0  0  0  0  0  0  0  0  0  0  0
   57.3600    4.7111   22.7826 H   0  0  0  0  0  0  0  0  0  0  0  0
   55.8951    5.9893   21.2247 H   0  0  0  0  0  0  0  0  0  0  0  0
   54.6140    5.2119   12.7583 H   0  0  0  0  0  0  0  0  0  0  0  0
   58.5286    6.4335   11.4167 H   0  0  0  0  0  0  0  0  0  0  0  0
   58.8250    7.7474   13.4959 H   0  0  0  0  0  0  0  0  0  0  0  0
   57.0103    7.8087   15.1957 H   0  0  0  0  0  0  0  0  0  0  0  0
   57.1570    5.0550   10.2900 H   0  0  0  0  0  0  0  0  0  0  0  0
   55.7476    0.5235   22.5147 H   0  0  0  0  0  0  0  0  0  0  0  0
   47.7565   10.2196   25.0324 H   0  0  0  0  0  0  0  0  0  0  0  0
   46.8021   11.1053   13.0764 H   0  0  0  0  0  0  0  0  0  0  0  0
 25 26  2  0
 26 27  1  0
 27 23  1  0
 28 29  1  0
  1  2  2  0
  3  4  2  0
  7  8  2  0
 14 15  1  0
 29 30  1  0
 30 31  2  0
 31 32  1  0
 32 28  2  0
 15 16  1  0
 29 33  2  0
 17 33  1  0
 16 17  1  0
 14 34  2  0
 22 34  1  0
 17 13  2  0
 27 35  2  0
 19 35  1  0
 18 19  1  0
 24 36  2  0
 32 36  1  0
  8  9  1  0
  4  5  1  0
 37 38  2  0
  9 10  2  0
 38 39  1  0
  2  3  1  0
 39 40  2  0
 10 11  1  0
 40 41  1  0
 19 20  2  0
 41 42  2  0
 42 37  1  0
 33 37  1  0
 20 21  1  0
 21 22  2  0
 43 44  2  0
 22 18  1  0
 44 45  1  0
 23 24  1  0
 45 46  2  0
  5  6  2  0
 46 47  1  0
 11 12  2  0
 47 48  2  0
 48 43  1  0
 36 43  1  0
 12  7  1  0
 45 49  1  0
 13 14  1  0
 39 50  1  0
 35 12  1  0
 34  2  1  0
  6  1  1  0
  4 51  1  0
 24 25  1  0
  8 52  1  0
  1 53  1  0
  3 54  1  0
  5 55  1  0
  6 56  1  0
  7 57  1  0
  9 58  1  0
 10 59  1  0
 11 60  1  0
 15 61  1  0
 15 62  1  0
 16 63  1  0
 16 64  1  0
 18 65  1  0
 20 66  1  0
 21 67  1  0
 23 68  1  0
 25 69  1  0
 26 70  1  0
 30 71  1  0
 31 72  1  0
 38 73  1  0
 40 74  1  0
 41 75  1  0
 42 76  1  0
 44 77  1  0
 46 78  1  0
 47 79  1  0
 48 80  1  0
 49 81  1  0
 50 82  1  0
 51 83  1  0
 52 84  1  0
M  END
> <Uni-Dock RESULT> 
ENERGY=   -4.507  LOWER_BOUND=    5.122  UPPER_BOUND=   10.873
INTER + INTRA:          -4.507
INTER:                  -4.507
INTRA:                   0.000
UNBOUND:                 0.000

$$$$
