
     RDKit          3D

 84 92  0  0  0  0  0  0  0  0999 V2000
   50.3332   15.8805   13.9801 C   0  0  0  0  0  0  0  0  0  0  0  0
   49.4278   15.3549   14.9103 C   0  0  0  0  0  0  0  0  0  0  0  0
   49.2274   16.0105   16.1297 C   0  0  0  0  0  0  0  0  0  0  0  0
   49.9331   17.1802   16.4014 C   0  0  0  0  0  0  0  0  0  0  0  0
   50.8342   17.7058   15.4771 C   0  0  0  0  0  0  0  0  0  0  0  0
   51.0372   17.0542   14.2614 C   0  0  0  0  0  0  0  0  0  0  0  0
   43.3548   14.0712    9.6921 C   0  0  0  0  0  0  0  0  0  0  0  0
   43.1460   14.8274    8.5425 C   0  0  0  0  0  0  0  0  0  0  0  0
   44.2169   15.2263    7.7412 C   0  0  0  0  0  0  0  0  0  0  0  0
   45.5158   14.8692    8.1061 C   0  0  0  0  0  0  0  0  0  0  0  0
   45.7353   14.1120    9.2607 C   0  0  0  0  0  0  0  0  0  0  0  0
   44.6551   13.7025   10.0571 C   0  0  0  0  0  0  0  0  0  0  0  0
   48.6582   11.6609   14.5489 N   0  0  0  0  0  0  0  0  0  0  0  0
   49.1909   12.8808   14.8455 C   0  0  0  0  0  0  0  0  0  0  0  0
   50.5291   12.6858   15.4979 C   0  0  0  0  0  0  0  0  0  0  0  0
   50.4812   11.2429   15.9375 C   0  0  0  0  0  0  0  0  0  0  0  0
   49.3871   10.6331   15.0749 C   0  0  0  0  0  0  0  0  0  0  0  0
   46.8347   13.2217   13.0323 N   0  0  0  0  0  0  0  0  0  0  0  0
   45.6632   13.6312   12.4611 C   0  0  0  0  0  0  0  0  0  0  0  0
   45.3127   14.8359   13.0349 C   0  0  0  0  0  0  0  0  0  0  0  0
   46.3542   15.2053   13.9265 C   0  0  0  0  0  0  0  0  0  0  0  0
   47.3019   14.2112   13.8606 C   0  0  0  0  0  0  0  0  0  0  0  0
   45.2964   10.4431   12.0286 N   0  0  0  0  0  0  0  0  0  0  0  0
   44.7951    9.2033   11.7125 C   0  0  0  0  0  0  0  0  0  0  0  0
   43.7008    9.3652   10.8956 C   0  0  0  0  0  0  0  0  0  0  0  0
   43.5548   10.7588   10.6793 C   0  0  0  0  0  0  0  0  0  0  0  0
   44.5755   11.3987   11.3569 C   0  0  0  0  0  0  0  0  0  0  0  0
   47.2459    8.9977   13.4805 N   0  0  0  0  0  0  0  0  0  0  0  0
   48.2946    8.5908   14.2711 C   0  0  0  0  0  0  0  0  0  0  0  0
   48.2380    7.1290   14.2586 C   0  0  0  0  0  0  0  0  0  0  0  0
   47.2082    6.7375   13.5147 C   0  0  0  0  0  0  0  0  0  0  0  0
   46.5492    7.9161   13.0050 C   0  0  0  0  0  0  0  0  0  0  0  0
   49.2581    9.2669   14.9814 C   0  0  0  0  0  0  0  0  0  0  0  0
   48.6874   14.1188   14.6002 C   0  0  0  0  0  0  0  0  0  0  0  0
   44.8928   12.9297   11.2986 C   0  0  0  0  0  0  0  0  0  0  0  0
   45.4464    7.8511   12.2114 C   0  0  0  0  0  0  0  0  0  0  0  0
   50.2600    8.4493   15.7329 C   0  0  0  0  0  0  0  0  0  0  0  0
   51.4244    8.0028   15.0921 C   0  0  0  0  0  0  0  0  0  0  0  0
   52.3475    7.2314   15.7937 C   0  0  0  0  0  0  0  0  0  0  0  0
   52.1336    6.8934   17.1276 C   0  0  0  0  0  0  0  0  0  0  0  0
   50.9749    7.3319   17.7711 C   0  0  0  0  0  0  0  0  0  0  0  0
   50.0407    8.1058   17.0760 C   0  0  0  0  0  0  0  0  0  0  0  0
   44.8328    6.5718   11.8035 C   0  0  0  0  0  0  0  0  0  0  0  0
   45.2941    5.8950   10.6697 C   0  0  0  0  0  0  0  0  0  0  0  0
   44.7024    4.6951   10.2944 C   0  0  0  0  0  0  0  0  0  0  0  0
   43.6424    4.1593   11.0261 C   0  0  0  0  0  0  0  0  0  0  0  0
   43.1782    4.8312   12.1576 C   0  0  0  0  0  0  0  0  0  0  0  0
   43.7745    6.0320   12.5469 C   0  0  0  0  0  0  0  0  0  0  0  0
   45.1862    4.0595    9.1857 O   0  0  0  0  0  0  0  0  0  0  0  0
   53.4857    6.7804   15.1832 O   0  0  0  0  0  0  0  0  0  0  0  0
   49.7586   17.8434   17.5845 O   0  0  0  0  0  0  0  0  0  0  0  0
   41.8615   15.1683    8.2224 O   0  0  0  0  0  0  0  0  0  0  0  0
   50.4845   15.3554   13.0398 H   0  0  0  0  0  0  0  0  0  0  0  0
   48.5259   15.5823   16.8393 H   0  0  0  0  0  0  0  0  0  0  0  0
   51.3757   18.6178   15.7063 H   0  0  0  0  0  0  0  0  0  0  0  0
   51.7407   17.4452   13.5333 H   0  0  0  0  0  0  0  0  0  0  0  0
   42.5110   13.7852   10.3176 H   0  0  0  0  0  0  0  0  0  0  0  0
   44.0606   15.8143    6.8426 H   0  0  0  0  0  0  0  0  0  0  0  0
   46.3655   15.1730    7.4965 H   0  0  0  0  0  0  0  0  0  0  0  0
   46.7501   13.8382    9.5487 H   0  0  0  0  0  0  0  0  0  0  0  0
   50.7037   13.3458   16.3524 H   0  0  0  0  0  0  0  0  0  0  0  0
   51.3311   12.8390   14.7649 H   0  0  0  0  0  0  0  0  0  0  0  0
   51.4672   10.7848   15.8121 H   0  0  0  0  0  0  0  0  0  0  0  0
   50.1991   11.1807   16.9973 H   0  0  0  0  0  0  0  0  0  0  0  0
   47.3214   12.3299   12.9383 H   0  0  0  0  0  0  0  0  0  0  0  0
   44.4241   15.4053   12.8080 H   0  0  0  0  0  0  0  0  0  0  0  0
   46.4174   16.1022   14.5223 H   0  0  0  0  0  0  0  0  0  0  0  0
   46.1124   10.5409   12.6372 H   0  0  0  0  0  0  0  0  0  0  0  0
   43.1003    8.5693   10.4814 H   0  0  0  0  0  0  0  0  0  0  0  0
   42.8143   11.2306   10.0504 H   0  0  0  0  0  0  0  0  0  0  0  0
   48.9078    6.4603   14.7696 H   0  0  0  0  0  0  0  0  0  0  0  0
   46.9263    5.7168   13.3325 H   0  0  0  0  0  0  0  0  0  0  0  0
   51.5689    8.2785   14.0523 H   0  0  0  0  0  0  0  0  0  0  0  0
   52.8622    6.2870   17.6571 H   0  0  0  0  0  0  0  0  0  0  0  0
   50.7892    7.0716   18.8089 H   0  0  0  0  0  0  0  0  0  0  0  0
   49.1287    8.4537   17.5560 H   0  0  0  0  0  0  0  0  0  0  0  0
   46.1223    6.3112   10.1022 H   0  0  0  0  0  0  0  0  0  0  0  0
   43.1741    3.2271   10.7351 H   0  0  0  0  0  0  0  0  0  0  0  0
   42.3630    4.4221   12.7458 H   0  0  0  0  0  0  0  0  0  0  0  0
   43.4255    6.5618   13.4309 H   0  0  0  0  0  0  0  0  0  0  0  0
   44.6733    3.2476    9.0578 H   0  0  0  0  0  0  0  0  0  0  0  0
   53.4234    7.0722   14.2573 H   0  0  0  0  0  0  0  0  0  0  0  0
   49.1366   17.3142   18.1116 H   0  0  0  0  0  0  0  0  0  0  0  0
   41.8862   15.6881    7.4058 H   0  0  0  0  0  0  0  0  0  0  0  0
 25 26  2  0
 26 27  1  0
 27 23  1  0
 28 29  1  0
  1  2  2  0
  3  4  2  0
  7  8  2  0
 14 15  1  0
 29 30  1  0
 30 31  2  0
 31 32  1  0
 32 28  2  0
 15 16  1  0
 29 33  2  0
 17 33  1  0
 16 17  1  0
 14 34  2  0
 22 34  1  0
 17 13  2  0
 27 35  2  0
 19 35  1  0
 18 19  1  0
 24 36  2  0
 32 36  1  0
  8  9  1  0
  4  5  1  0
 37 38  2  0
  9 10  2  0
 38 39  1  0
  2  3  1  0
 39 40  2  0
 10 11  1  0
 40 41  1  0
 19 20  2  0
 41 42  2  0
 42 37  1  0
 33 37  1  0
 20 21  1  0
 21 22  2  0
 43 44  2  0
 22 18  1  0
 44 45  1  0
 23 24  1  0
 45 46  2  0
  5  6  2  0
 46 47  1  0
 11 12  2  0
 47 48  2  0
 48 43  1  0
 36 43  1  0
 12  7  1  0
 45 49  1  0
 13 14  1  0
 39 50  1  0
 35 12  1  0
 34  2  1  0
  6  1  1  0
  4 51  1  0
 24 25  1  0
  8 52  1  0
  1 53  1  0
  3 54  1  0
  5 55  1  0
  6 56  1  0
  7 57  1  0
  9 58  1  0
 10 59  1  0
 11 60  1  0
 15 61  1  0
 15 62  1  0
 16 63  1  0
 16 64  1  0
 18 65  1  0
 20 66  1  0
 21 67  1  0
 23 68  1  0
 25 69  1  0
 26 70  1  0
 30 71  1  0
 31 72  1  0
 38 73  1  0
 40 74  1  0
 41 75  1  0
 42 76  1  0
 44 77  1  0
 46 78  1  0
 47 79  1  0
 48 80  1  0
 49 81  1  0
 50 82  1  0
 51 83  1  0
 52 84  1  0
M  END
> <Uni-Dock RESULT> 
ENERGY=   -6.471  LOWER_BOUND=    0.000  UPPER_BOUND=    0.000
INTER + INTRA:          -6.471
INTER:                  -6.471
INTRA:                   0.000
UNBOUND:                 0.000

$$$$

     RDKit          3D

 84 92  0  0  0  0  0  0  0  0999 V2000
   51.6963    8.1732   14.5320 C   0  0  0  0  0  0  0  0  0  0  0  0
   50.5441    8.3167   15.3151 C   0  0  0  0  0  0  0  0  0  0  0  0
   50.5439    7.8630   16.6382 C   0  0  0  0  0  0  0  0  0  0  0  0
   51.6934    7.2738   17.1594 C   0  0  0  0  0  0  0  0  0  0  0  0
   52.8416    7.1304   16.3825 C   0  0  0  0  0  0  0  0  0  0  0  0
   52.8447    7.5804   15.0630 C   0  0  0  0  0  0  0  0  0  0  0  0
   49.0980   16.0749   13.4501 C   0  0  0  0  0  0  0  0  0  0  0  0
   50.0904   16.9899   13.1109 C   0  0  0  0  0  0  0  0  0  0  0  0
   51.1520   16.6233   12.2823 C   0  0  0  0  0  0  0  0  0  0  0  0
   51.2227   15.3167   11.7970 C   0  0  0  0  0  0  0  0  0  0  0  0
   50.2317   14.3900   12.1347 C   0  0  0  0  0  0  0  0  0  0  0  0
   49.1595   14.7657   12.9580 C   0  0  0  0  0  0  0  0  0  0  0  0
   47.2950    8.7080   13.4022 N   0  0  0  0  0  0  0  0  0  0  0  0
   48.4090    8.2513   14.0428 C   0  0  0  0  0  0  0  0  0  0  0  0
   48.5198    6.7682   13.8362 C   0  0  0  0  0  0  0  0  0  0  0  0
   47.1263    6.3847   13.4021 C   0  0  0  0  0  0  0  0  0  0  0  0
   46.5196    7.6932   12.9193 C   0  0  0  0  0  0  0  0  0  0  0  0
   48.4676   11.2410   13.9227 N   0  0  0  0  0  0  0  0  0  0  0  0
   48.5701   12.5678   14.2316 C   0  0  0  0  0  0  0  0  0  0  0  0
   49.2183   12.6694   15.4452 C   0  0  0  0  0  0  0  0  0  0  0  0
   49.5923   11.3586   15.8427 C   0  0  0  0  0  0  0  0  0  0  0  0
   49.1587   10.5070   14.8540 C   0  0  0  0  0  0  0  0  0  0  0  0
   45.9290   12.7324   12.3653 N   0  0  0  0  0  0  0  0  0  0  0  0
   44.8182   13.1724   11.6864 C   0  0  0  0  0  0  0  0  0  0  0  0
   44.8386   14.5469   11.6509 C   0  0  0  0  0  0  0  0  0  0  0  0
   46.0290   14.9550   12.3041 C   0  0  0  0  0  0  0  0  0  0  0  0
   46.7032   13.8152   12.7003 C   0  0  0  0  0  0  0  0  0  0  0  0
   44.9271   10.1477   11.8056 N   0  0  0  0  0  0  0  0  0  0  0  0
   44.6942    8.7960   11.7101 C   0  0  0  0  0  0  0  0  0  0  0  0
   43.4554    8.6750   10.9413 C   0  0  0  0  0  0  0  0  0  0  0  0
   43.0107    9.8895   10.6342 C   0  0  0  0  0  0  0  0  0  0  0  0
   43.9332   10.8562   11.1799 C   0  0  0  0  0  0  0  0  0  0  0  0
   45.3636    7.6884   12.1741 C   0  0  0  0  0  0  0  0  0  0  0  0
   49.3402    8.9481   14.7454 C   0  0  0  0  0  0  0  0  0  0  0  0
   48.1292   13.7729   13.3426 C   0  0  0  0  0  0  0  0  0  0  0  0
   43.7518   12.1973   11.0432 C   0  0  0  0  0  0  0  0  0  0  0  0
   44.7841    6.3482   11.8502 C   0  0  0  0  0  0  0  0  0  0  0  0
   45.1144    5.7133   10.6445 C   0  0  0  0  0  0  0  0  0  0  0  0
   44.5619    4.4710   10.3430 C   0  0  0  0  0  0  0  0  0  0  0  0
   43.6822    3.8446   11.2223 C   0  0  0  0  0  0  0  0  0  0  0  0
   43.3465    4.4723   12.4232 C   0  0  0  0  0  0  0  0  0  0  0  0
   43.8942    5.7203   12.7355 C   0  0  0  0  0  0  0  0  0  0  0  0
   42.5993   12.7761   10.3247 C   0  0  0  0  0  0  0  0  0  0  0  0
   42.6511   12.9664    8.9401 C   0  0  0  0  0  0  0  0  0  0  0  0
   41.5609   13.5184    8.2784 C   0  0  0  0  0  0  0  0  0  0  0  0
   40.4160   13.8994    8.9784 C   0  0  0  0  0  0  0  0  0  0  0  0
   40.3598   13.7123   10.3601 C   0  0  0  0  0  0  0  0  0  0  0  0
   41.4471   13.1487   11.0302 C   0  0  0  0  0  0  0  0  0  0  0  0
   41.6463   13.6809    6.9243 O   0  0  0  0  0  0  0  0  0  0  0  0
   44.8664    3.8396    9.1681 O   0  0  0  0  0  0  0  0  0  0  0  0
   51.7238    6.8206   18.4493 O   0  0  0  0  0  0  0  0  0  0  0  0
   49.9946   18.2573   13.6138 O   0  0  0  0  0  0  0  0  0  0  0  0
   51.6788    8.5234   13.5025 H   0  0  0  0  0  0  0  0  0  0  0  0
   49.6380    7.9780   17.2257 H   0  0  0  0  0  0  0  0  0  0  0  0
   53.7279    6.6683   16.8052 H   0  0  0  0  0  0  0  0  0  0  0  0
   53.7276    7.4699   14.4414 H   0  0  0  0  0  0  0  0  0  0  0  0
   48.2874   16.3705   14.1139 H   0  0  0  0  0  0  0  0  0  0  0  0
   51.9278   17.3325   12.0125 H   0  0  0  0  0  0  0  0  0  0  0  0
   52.0443   15.0093   11.1517 H   0  0  0  0  0  0  0  0  0  0  0  0
   50.2901   13.3682   11.7603 H   0  0  0  0  0  0  0  0  0  0  0  0
   48.8108    6.2181   14.7356 H   0  0  0  0  0  0  0  0  0  0  0  0
   49.2444    6.5521   13.0412 H   0  0  0  0  0  0  0  0  0  0  0  0
   47.1784    5.5999   12.6411 H   0  0  0  0  0  0  0  0  0  0  0  0
   46.5558    6.0028   14.2596 H   0  0  0  0  0  0  0  0  0  0  0  0
   47.9495   10.7925   13.1667 H   0  0  0  0  0  0  0  0  0  0  0  0
   49.4329   13.5891   15.9681 H   0  0  0  0  0  0  0  0  0  0  0  0
   50.1371   11.0746   16.7292 H   0  0  0  0  0  0  0  0  0  0  0  0
   46.0965   11.7338   12.5086 H   0  0  0  0  0  0  0  0  0  0  0  0
   44.0975   15.1763   11.1816 H   0  0  0  0  0  0  0  0  0  0  0  0
   46.3748   15.9717   12.4191 H   0  0  0  0  0  0  0  0  0  0  0  0
   42.9628    7.7594   10.6655 H   0  0  0  0  0  0  0  0  0  0  0  0
   42.1176   10.1008   10.0757 H   0  0  0  0  0  0  0  0  0  0  0  0
   45.8016    6.2212    9.9752 H   0  0  0  0  0  0  0  0  0  0  0  0
   43.2576    2.8782   10.9680 H   0  0  0  0  0  0  0  0  0  0  0  0
   42.6569    4.0009   13.1170 H   0  0  0  0  0  0  0  0  0  0  0  0
   43.6426    6.2298   13.6629 H   0  0  0  0  0  0  0  0  0  0  0  0
   43.5420   12.6660    8.3950 H   0  0  0  0  0  0  0  0  0  0  0  0
   39.5654   14.3349    8.4684 H   0  0  0  0  0  0  0  0  0  0  0  0
   39.4719   13.9911   10.9184 H   0  0  0  0  0  0  0  0  0  0  0  0
   41.4127   12.9920   12.1065 H   0  0  0  0  0  0  0  0  0  0  0  0
   40.8161   14.0741    6.6167 H   0  0  0  0  0  0  0  0  0  0  0  0
   45.4421    4.4526    8.6792 H   0  0  0  0  0  0  0  0  0  0  0  0
   50.8348    6.9629   18.8157 H   0  0  0  0  0  0  0  0  0  0  0  0
   50.7529   18.7645   13.2892 H   0  0  0  0  0  0  0  0  0  0  0  0
 25 26  2  0
 26 27  1  0
 27 23  1  0
 28 29  1  0
  1  2  2  0
  3  4  2  0
  7  8  2  0
 14 15  1  0
 29 30  1  0
 30 31  2  0
 31 32  1  0
 32 28  2  0
 15 16  1  0
 29 33  2  0
 17 33  1  0
 16 17  1  0
 14 34  2  0
 22 34  1  0
 17 13  2  0
 27 35  2  0
 19 35  1  0
 18 19  1  0
 24 36  2  0
 32 36  1  0
  8  9  1  0
  4  5  1  0
 37 38  2  0
  9 10  2  0
 38 39  1  0
  2  3  1  0
 39 40  2  0
 10 11  1  0
 40 41  1  0
 19 20  2  0
 41 42  2  0
 42 37  1  0
 33 37  1  0
 20 21  1  0
 21 22  2  0
 43 44  2  0
 22 18  1  0
 44 45  1  0
 23 24  1  0
 45 46  2  0
  5  6  2  0
 46 47  1  0
 11 12  2  0
 47 48  2  0
 48 43  1  0
 36 43  1  0
 12  7  1  0
 45 49  1  0
 13 14  1  0
 39 50  1  0
 35 12  1  0
 34  2  1  0
  6  1  1  0
  4 51  1  0
 24 25  1  0
  8 52  1  0
  1 53  1  0
  3 54  1  0
  5 55  1  0
  6 56  1  0
  7 57  1  0
  9 58  1  0
 10 59  1  0
 11 60  1  0
 15 61  1  0
 15 62  1  0
 16 63  1  0
 16 64  1  0
 18 65  1  0
 20 66  1  0
 21 67  1  0
 23 68  1  0
 25 69  1  0
 26 70  1  0
 30 71  1  0
 31 72  1  0
 38 73  1  0
 40 74  1  0
 41 75  1  0
 42 76  1  0
 44 77  1  0
 46 78  1  0
 47 79  1  0
 48 80  1  0
 49 81  1  0
 50 82  1  0
 51 83  1  0
 52 84  1  0
M  END
> <Uni-Dock RESULT> 
ENERGY=   -6.135  LOWER_BOUND=    1.538  UPPER_BOUND=    7.241
INTER + INTRA:          -6.135
INTER:                  -6.135
INTRA:                   0.000
UNBOUND:                 0.000

$$$$

     RDKit          3D

 84 92  0  0  0  0  0  0  0  0999 V2000
   45.3608    5.0217    9.9459 C   0  0  0  0  0  0  0  0  0  0  0  0
   45.0507    5.4848   11.2307 C   0  0  0  0  0  0  0  0  0  0  0  0
   44.3666    4.6515   12.1220 C   0  0  0  0  0  0  0  0  0  0  0  0
   44.0031    3.3693   11.7174 C   0  0  0  0  0  0  0  0  0  0  0  0
   44.3110    2.9056   10.4397 C   0  0  0  0  0  0  0  0  0  0  0  0
   44.9917    3.7340    9.5485 C   0  0  0  0  0  0  0  0  0  0  0  0
   52.3873    8.4827   12.9472 C   0  0  0  0  0  0  0  0  0  0  0  0
   53.5737    7.9816   12.4196 C   0  0  0  0  0  0  0  0  0  0  0  0
   53.6579    7.5967   11.0807 C   0  0  0  0  0  0  0  0  0  0  0  0
   52.5316    7.7071   10.2640 C   0  0  0  0  0  0  0  0  0  0  0  0
   51.3348    8.2070   10.7860 C   0  0  0  0  0  0  0  0  0  0  0  0
   51.2574    8.6043   12.1294 C   0  0  0  0  0  0  0  0  0  0  0  0
   44.9557    9.2519   11.6416 N   0  0  0  0  0  0  0  0  0  0  0  0
   44.6857    7.9390   11.3901 C   0  0  0  0  0  0  0  0  0  0  0  0
   43.3489    7.8343   10.7143 C   0  0  0  0  0  0  0  0  0  0  0  0
   42.7117    9.1671   11.0223 C   0  0  0  0  0  0  0  0  0  0  0  0
   43.8884   10.0621   11.3796 C   0  0  0  0  0  0  0  0  0  0  0  0
   47.5558    8.2462   12.1801 N   0  0  0  0  0  0  0  0  0  0  0  0
   48.7795    8.1052   12.7707 C   0  0  0  0  0  0  0  0  0  0  0  0
   48.8089    6.8734   13.3915 C   0  0  0  0  0  0  0  0  0  0  0  0
   47.5866    6.2145   13.0945 C   0  0  0  0  0  0  0  0  0  0  0  0
   46.8588    7.0702   12.3016 C   0  0  0  0  0  0  0  0  0  0  0  0
   48.6168   11.3390   12.8153 N   0  0  0  0  0  0  0  0  0  0  0  0
   48.8792   12.6707   13.0300 C   0  0  0  0  0  0  0  0  0  0  0  0
   50.1933   12.8053   13.4121 C   0  0  0  0  0  0  0  0  0  0  0  0
   50.7596   11.5056   13.3935 C   0  0  0  0  0  0  0  0  0  0  0  0
   49.7767   10.6245   12.9835 C   0  0  0  0  0  0  0  0  0  0  0  0
   46.0190   12.2273   12.1368 N   0  0  0  0  0  0  0  0  0  0  0  0
   44.6973   12.3423   11.7762 C   0  0  0  0  0  0  0  0  0  0  0  0
   44.4127   13.7766   11.8193 C   0  0  0  0  0  0  0  0  0  0  0  0
   45.5081   14.4288   12.1958 C   0  0  0  0  0  0  0  0  0  0  0  0
   46.5555   13.4595   12.4112 C   0  0  0  0  0  0  0  0  0  0  0  0
   43.7306   11.4275   11.4314 C   0  0  0  0  0  0  0  0  0  0  0  0
   45.4495    6.8435   11.6402 C   0  0  0  0  0  0  0  0  0  0  0  0
   49.9789    9.1012   12.6893 C   0  0  0  0  0  0  0  0  0  0  0  0
   47.8056   13.8121   12.8149 C   0  0  0  0  0  0  0  0  0  0  0  0
   42.3747   11.9560   11.0862 C   0  0  0  0  0  0  0  0  0  0  0  0
   42.0897   12.3535    9.7723 C   0  0  0  0  0  0  0  0  0  0  0  0
   40.8292   12.8564    9.4598 C   0  0  0  0  0  0  0  0  0  0  0  0
   39.8412   12.9724   10.4344 C   0  0  0  0  0  0  0  0  0  0  0  0
   40.1189   12.5814   11.7455 C   0  0  0  0  0  0  0  0  0  0  0  0
   41.3815   12.0763   12.0707 C   0  0  0  0  0  0  0  0  0  0  0  0
   48.1965   15.2138   13.0643 C   0  0  0  0  0  0  0  0  0  0  0  0
   48.6562   16.0178   12.0163 C   0  0  0  0  0  0  0  0  0  0  0  0
   49.0266   17.3333   12.2675 C   0  0  0  0  0  0  0  0  0  0  0  0
   48.9594   17.8628   13.5564 C   0  0  0  0  0  0  0  0  0  0  0  0
   48.5021   17.0643   14.6055 C   0  0  0  0  0  0  0  0  0  0  0  0
   48.1184   15.7448   14.3589 C   0  0  0  0  0  0  0  0  0  0  0  0
   49.4626   18.0898   11.2164 O   0  0  0  0  0  0  0  0  0  0  0  0
   40.5350   13.2563    8.1850 O   0  0  0  0  0  0  0  0  0  0  0  0
   43.3337    2.5315   12.5662 O   0  0  0  0  0  0  0  0  0  0  0  0
   54.6531    7.8769   13.2518 O   0  0  0  0  0  0  0  0  0  0  0  0
   45.8858    5.6838    9.2613 H   0  0  0  0  0  0  0  0  0  0  0  0
   44.1303    5.0328   13.1109 H   0  0  0  0  0  0  0  0  0  0  0  0
   44.0193    1.9037   10.1416 H   0  0  0  0  0  0  0  0  0  0  0  0
   45.2329    3.3920    8.5471 H   0  0  0  0  0  0  0  0  0  0  0  0
   52.3318    8.7594   13.9985 H   0  0  0  0  0  0  0  0  0  0  0  0
   54.5805    7.2071   10.6627 H   0  0  0  0  0  0  0  0  0  0  0  0
   52.5751    7.4094    9.2174 H   0  0  0  0  0  0  0  0  0  0  0  0
   50.4538    8.2877   10.1496 H   0  0  0  0  0  0  0  0  0  0  0  0
   42.7296    7.0132   11.0865 H   0  0  0  0  0  0  0  0  0  0  0  0
   43.4828    7.7119    9.6322 H   0  0  0  0  0  0  0  0  0  0  0  0
   42.1279    9.5063   10.1610 H   0  0  0  0  0  0  0  0  0  0  0  0
   42.0389    9.0730   11.8855 H   0  0  0  0  0  0  0  0  0  0  0  0
   47.1434    9.0682   11.7380 H   0  0  0  0  0  0  0  0  0  0  0  0
   49.6346    6.4770   13.9627 H   0  0  0  0  0  0  0  0  0  0  0  0
   47.2870    5.2242   13.3992 H   0  0  0  0  0  0  0  0  0  0  0  0
   47.6863   11.0257   12.5291 H   0  0  0  0  0  0  0  0  0  0  0  0
   50.6896   13.7352   13.6456 H   0  0  0  0  0  0  0  0  0  0  0  0
   51.7892   11.2575   13.6049 H   0  0  0  0  0  0  0  0  0  0  0  0
   43.4721   14.2473   11.5941 H   0  0  0  0  0  0  0  0  0  0  0  0
   45.5866   15.4937   12.3151 H   0  0  0  0  0  0  0  0  0  0  0  0
   42.8757   12.2541    9.0303 H   0  0  0  0  0  0  0  0  0  0  0  0
   38.8657   13.3712   10.1731 H   0  0  0  0  0  0  0  0  0  0  0  0
   39.3623   12.6715   12.5190 H   0  0  0  0  0  0  0  0  0  0  0  0
   41.6214   11.7707   13.0866 H   0  0  0  0  0  0  0  0  0  0  0  0
   48.7048   15.6057   11.0118 H   0  0  0  0  0  0  0  0  0  0  0  0
   49.2518   18.8858   13.7588 H   0  0  0  0  0  0  0  0  0  0  0  0
   48.4313   17.4640   15.6120 H   0  0  0  0  0  0  0  0  0  0  0  0
   47.7542   15.1143   15.1676 H   0  0  0  0  0  0  0  0  0  0  0  0
   49.6813   18.9718   11.5522 H   0  0  0  0  0  0  0  0  0  0  0  0
   41.3572   13.1479    7.6767 H   0  0  0  0  0  0  0  0  0  0  0  0
   43.1702    3.0339   13.3820 H   0  0  0  0  0  0  0  0  0  0  0  0
   55.3904    7.5149   12.7389 H   0  0  0  0  0  0  0  0  0  0  0  0
 25 26  2  0
 26 27  1  0
 27 23  1  0
 28 29  1  0
  1  2  2  0
  3  4  2  0
  7  8  2  0
 14 15  1  0
 29 30  1  0
 30 31  2  0
 31 32  1  0
 32 28  2  0
 15 16  1  0
 29 33  2  0
 17 33  1  0
 16 17  1  0
 14 34  2  0
 22 34  1  0
 17 13  2  0
 27 35  2  0
 19 35  1  0
 18 19  1  0
 24 36  2  0
 32 36  1  0
  8  9  1  0
  4  5  1  0
 37 38  2  0
  9 10  2  0
 38 39  1  0
  2  3  1  0
 39 40  2  0
 10 11  1  0
 40 41  1  0
 19 20  2  0
 41 42  2  0
 42 37  1  0
 33 37  1  0
 20 21  1  0
 21 22  2  0
 43 44  2  0
 22 18  1  0
 44 45  1  0
 23 24  1  0
 45 46  2  0
  5  6  2  0
 46 47  1  0
 11 12  2  0
 47 48  2  0
 48 43  1  0
 36 43  1  0
 12  7  1  0
 45 49  1  0
 13 14  1  0
 39 50  1  0
 35 12  1  0
 34  2  1  0
  6  1  1  0
  4 51  1  0
 24 25  1  0
  8 52  1  0
  1 53  1  0
  3 54  1  0
  5 55  1  0
  6 56  1  0
  7 57  1  0
  9 58  1  0
 10 59  1  0
 11 60  1  0
 15 61  1  0
 15 62  1  0
 16 63  1  0
 16 64  1  0
 18 65  1  0
 20 66  1  0
 21 67  1  0
 23 68  1  0
 25 69  1  0
 26 70  1  0
 30 71  1  0
 31 72  1  0
 38 73  1  0
 40 74  1  0
 41 75  1  0
 42 76  1  0
 44 77  1  0
 46 78  1  0
 47 79  1  0
 48 80  1  0
 49 81  1  0
 50 82  1  0
 51 83  1  0
 52 84  1  0
M  END
> <Uni-Dock RESULT> 
ENERGY=   -5.950  LOWER_BOUND=    2.420  UPPER_BOUND=   10.761
INTER + INTRA:          -5.950
INTER:                  -5.950
INTRA:                   0.000
UNBOUND:                 0.000

$$$$

     RDKit          3D

 84 92  0  0  0  0  0  0  0  0999 V2000
   43.9259   11.9215    7.8531 C   0  0  0  0  0  0  0  0  0  0  0  0
   43.5209   12.0626    9.1863 C   0  0  0  0  0  0  0  0  0  0  0  0
   42.3513   12.7694    9.4846 C   0  0  0  0  0  0  0  0  0  0  0  0
   41.6040   13.3237    8.4481 C   0  0  0  0  0  0  0  0  0  0  0  0
   42.0044   13.1842    7.1204 C   0  0  0  0  0  0  0  0  0  0  0  0
   43.1703   12.4814    6.8198 C   0  0  0  0  0  0  0  0  0  0  0  0
   44.4794    4.2898   11.2897 C   0  0  0  0  0  0  0  0  0  0  0  0
   44.3483    3.2240   10.4043 C   0  0  0  0  0  0  0  0  0  0  0  0
   44.8593    3.3008    9.1078 C   0  0  0  0  0  0  0  0  0  0  0  0
   45.5012    4.4684    8.6923 C   0  0  0  0  0  0  0  0  0  0  0  0
   45.6350    5.5451    9.5741 C   0  0  0  0  0  0  0  0  0  0  0  0
   45.1308    5.4596   10.8807 C   0  0  0  0  0  0  0  0  0  0  0  0
   46.2488   11.6483   11.7855 N   0  0  0  0  0  0  0  0  0  0  0  0
   45.3791   12.1014   10.8377 C   0  0  0  0  0  0  0  0  0  0  0  0
   45.7751   13.4924   10.4340 C   0  0  0  0  0  0  0  0  0  0  0  0
   46.6703   13.9290   11.5678 C   0  0  0  0  0  0  0  0  0  0  0  0
   47.1009   12.6234   12.2184 C   0  0  0  0  0  0  0  0  0  0  0  0
   44.9981    9.1597   11.2339 N   0  0  0  0  0  0  0  0  0  0  0  0
   44.4657    7.9185   11.4392 C   0  0  0  0  0  0  0  0  0  0  0  0
   43.1119    7.9927   11.1836 C   0  0  0  0  0  0  0  0  0  0  0  0
   42.8330    9.3086   10.7287 C   0  0  0  0  0  0  0  0  0  0  0  0
   44.0293    9.9865   10.7227 C   0  0  0  0  0  0  0  0  0  0  0  0
   46.9997    7.6688   13.4396 N   0  0  0  0  0  0  0  0  0  0  0  0
   47.9070    7.2240   14.3710 C   0  0  0  0  0  0  0  0  0  0  0  0
   47.7153    5.8762   14.5648 C   0  0  0  0  0  0  0  0  0  0  0  0
   46.6728    5.4814   13.6887 C   0  0  0  0  0  0  0  0  0  0  0  0
   46.2759    6.5981   12.9772 C   0  0  0  0  0  0  0  0  0  0  0  0
   48.2432   10.1816   13.8103 N   0  0  0  0  0  0  0  0  0  0  0  0
   48.6192   11.5038   13.7843 C   0  0  0  0  0  0  0  0  0  0  0  0
   49.7393   11.6012   14.7203 C   0  0  0  0  0  0  0  0  0  0  0  0
   49.9704   10.4049   15.2519 C   0  0  0  0  0  0  0  0  0  0  0  0
   49.0220    9.4734   14.6896 C   0  0  0  0  0  0  0  0  0  0  0  0
   48.1550   12.6033   13.1017 C   0  0  0  0  0  0  0  0  0  0  0  0
   44.3237   11.4633   10.2674 C   0  0  0  0  0  0  0  0  0  0  0  0
   45.2432    6.6143   11.8021 C   0  0  0  0  0  0  0  0  0  0  0  0
   48.9924    8.1596   15.0405 C   0  0  0  0  0  0  0  0  0  0  0  0
   48.8498   13.9059   13.3412 C   0  0  0  0  0  0  0  0  0  0  0  0
   49.9813   14.2472   12.5869 C   0  0  0  0  0  0  0  0  0  0  0  0
   50.6311   15.4561   12.8230 C   0  0  0  0  0  0  0  0  0  0  0  0
   50.1749   16.3369   13.8005 C   0  0  0  0  0  0  0  0  0  0  0  0
   49.0506   16.0022   14.5574 C   0  0  0  0  0  0  0  0  0  0  0  0
   48.3912   14.7905   14.3297 C   0  0  0  0  0  0  0  0  0  0  0  0
   49.9274    7.5761   16.0228 C   0  0  0  0  0  0  0  0  0  0  0  0
   51.1809    7.1079   15.6155 C   0  0  0  0  0  0  0  0  0  0  0  0
   52.0478    6.5553   16.5504 C   0  0  0  0  0  0  0  0  0  0  0  0
   51.6808    6.4477   17.8920 C   0  0  0  0  0  0  0  0  0  0  0  0
   50.4310    6.9127   18.3030 C   0  0  0  0  0  0  0  0  0  0  0  0
   49.5587    7.4786   17.3713 C   0  0  0  0  0  0  0  0  0  0  0  0
   53.2668    6.1167   16.1155 O   0  0  0  0  0  0  0  0  0  0  0  0
   51.7411   15.8029   12.1023 O   0  0  0  0  0  0  0  0  0  0  0  0
   40.4561   14.0201    8.7082 O   0  0  0  0  0  0  0  0  0  0  0  0
   43.7039    2.1008   10.8419 O   0  0  0  0  0  0  0  0  0  0  0  0
   44.8418   11.3762    7.6372 H   0  0  0  0  0  0  0  0  0  0  0  0
   42.0590   12.8726   10.5252 H   0  0  0  0  0  0  0  0  0  0  0  0
   41.4099   13.6234    6.3259 H   0  0  0  0  0  0  0  0  0  0  0  0
   43.5011   12.3695    5.7921 H   0  0  0  0  0  0  0  0  0  0  0  0
   44.0575    4.2222   12.2909 H   0  0  0  0  0  0  0  0  0  0  0  0
   44.7622    2.4726    8.4132 H   0  0  0  0  0  0  0  0  0  0  0  0
   45.9041    4.5501    7.6840 H   0  0  0  0  0  0  0  0  0  0  0  0
   46.1311    6.4589    9.2477 H   0  0  0  0  0  0  0  0  0  0  0  0
   44.9295   14.1768   10.3221 H   0  0  0  0  0  0  0  0  0  0  0  0
   46.3339   13.4656    9.4901 H   0  0  0  0  0  0  0  0  0  0  0  0
   47.4935   14.5352   11.1772 H   0  0  0  0  0  0  0  0  0  0  0  0
   46.1009   14.5340   12.2864 H   0  0  0  0  0  0  0  0  0  0  0  0
   45.9377    9.5008   11.4387 H   0  0  0  0  0  0  0  0  0  0  0  0
   42.4091    7.1787   11.2769 H   0  0  0  0  0  0  0  0  0  0  0  0
   41.8794    9.7039   10.4163 H   0  0  0  0  0  0  0  0  0  0  0  0
   46.9729    8.6519   13.1593 H   0  0  0  0  0  0  0  0  0  0  0  0
   48.2825    5.2491   15.2361 H   0  0  0  0  0  0  0  0  0  0  0  0
   46.2972    4.4771   13.5590 H   0  0  0  0  0  0  0  0  0  0  0  0
   50.2947   12.4905   14.9602 H   0  0  0  0  0  0  0  0  0  0  0  0
   50.7344   10.1833   15.9740 H   0  0  0  0  0  0  0  0  0  0  0  0
   50.3183   13.5446   11.8313 H   0  0  0  0  0  0  0  0  0  0  0  0
   50.6974   17.2728   13.9737 H   0  0  0  0  0  0  0  0  0  0  0  0
   48.6856   16.6744   15.3281 H   0  0  0  0  0  0  0  0  0  0  0  0
   47.5167   14.5072   14.9111 H   0  0  0  0  0  0  0  0  0  0  0  0
   51.4676    7.1954   14.5709 H   0  0  0  0  0  0  0  0  0  0  0  0
   52.3505    6.0131   18.6239 H   0  0  0  0  0  0  0  0  0  0  0  0
   50.1344    6.8485   19.3450 H   0  0  0  0  0  0  0  0  0  0  0  0
   48.5840    7.8505   17.6809 H   0  0  0  0  0  0  0  0  0  0  0  0
   53.7471    5.7616   16.8782 H   0  0  0  0  0  0  0  0  0  0  0  0
   51.9262   15.0460   11.5200 H   0  0  0  0  0  0  0  0  0  0  0  0
   40.3618   14.0506    9.6751 H   0  0  0  0  0  0  0  0  0  0  0  0
   43.6957    1.4603   10.1158 H   0  0  0  0  0  0  0  0  0  0  0  0
 25 26  2  0
 26 27  1  0
 27 23  1  0
 28 29  1  0
  1  2  2  0
  3  4  2  0
  7  8  2  0
 14 15  1  0
 29 30  1  0
 30 31  2  0
 31 32  1  0
 32 28  2  0
 15 16  1  0
 29 33  2  0
 17 33  1  0
 16 17  1  0
 14 34  2  0
 22 34  1  0
 17 13  2  0
 27 35  2  0
 19 35  1  0
 18 19  1  0
 24 36  2  0
 32 36  1  0
  8  9  1  0
  4  5  1  0
 37 38  2  0
  9 10  2  0
 38 39  1  0
  2  3  1  0
 39 40  2  0
 10 11  1  0
 40 41  1  0
 19 20  2  0
 41 42  2  0
 42 37  1  0
 33 37  1  0
 20 21  1  0
 21 22  2  0
 43 44  2  0
 22 18  1  0
 44 45  1  0
 23 24  1  0
 45 46  2  0
  5  6  2  0
 46 47  1  0
 11 12  2  0
 47 48  2  0
 48 43  1  0
 36 43  1  0
 12  7  1  0
 45 49  1  0
 13 14  1  0
 39 50  1  0
 35 12  1  0
 34  2  1  0
  6  1  1  0
  4 51  1  0
 24 25  1  0
  8 52  1  0
  1 53  1  0
  3 54  1  0
  5 55  1  0
  6 56  1  0
  7 57  1  0
  9 58  1  0
 10 59  1  0
 11 60  1  0
 15 61  1  0
 15 62  1  0
 16 63  1  0
 16 64  1  0
 18 65  1  0
 20 66  1  0
 21 67  1  0
 23 68  1  0
 25 69  1  0
 26 70  1  0
 30 71  1  0
 31 72  1  0
 38 73  1  0
 40 74  1  0
 41 75  1  0
 42 76  1  0
 44 77  1  0
 46 78  1  0
 47 79  1  0
 48 80  1  0
 49 81  1  0
 50 82  1  0
 51 83  1  0
 52 84  1  0
M  END
> <Uni-Dock RESULT> 
ENERGY=   -5.893  LOWER_BOUND=    1.704  UPPER_BOUND=    8.230
INTER + INTRA:          -5.893
INTER:                  -5.893
INTRA:                   0.000
UNBOUND:                 0.000

$$$$

     RDKit          3D

 84 92  0  0  0  0  0  0  0  0999 V2000
   43.6357    5.9467   12.8241 C   0  0  0  0  0  0  0  0  0  0  0  0
   44.3867    6.4407   11.7501 C   0  0  0  0  0  0  0  0  0  0  0  0
   44.5794    5.6462   10.6151 C   0  0  0  0  0  0  0  0  0  0  0  0
   44.0195    4.3717   10.5693 C   0  0  0  0  0  0  0  0  0  0  0  0
   43.2712    3.8778   11.6364 C   0  0  0  0  0  0  0  0  0  0  0  0
   43.0783    4.6666   12.7696 C   0  0  0  0  0  0  0  0  0  0  0  0
   40.7812   13.6925   11.3368 C   0  0  0  0  0  0  0  0  0  0  0  0
   39.4610   13.9257   11.7107 C   0  0  0  0  0  0  0  0  0  0  0  0
   38.9233   13.3327   12.8540 C   0  0  0  0  0  0  0  0  0  0  0  0
   39.7200   12.4856   13.6258 C   0  0  0  0  0  0  0  0  0  0  0  0
   41.0465   12.2435   13.2562 C   0  0  0  0  0  0  0  0  0  0  0  0
   41.5872   12.8511   12.1130 C   0  0  0  0  0  0  0  0  0  0  0  0
   46.7973    9.2452   12.5823 N   0  0  0  0  0  0  0  0  0  0  0  0
   46.1738    8.0484   12.3849 C   0  0  0  0  0  0  0  0  0  0  0  0
   47.0306    6.9508   12.9467 C   0  0  0  0  0  0  0  0  0  0  0  0
   48.3830    7.6093   13.0681 C   0  0  0  0  0  0  0  0  0  0  0  0
   48.0683    9.0973   13.0588 C   0  0  0  0  0  0  0  0  0  0  0  0
   44.2648   10.2853   11.8300 N   0  0  0  0  0  0  0  0  0  0  0  0
   43.3331   11.1094   11.2652 C   0  0  0  0  0  0  0  0  0  0  0  0
   42.6820   10.3969   10.2793 C   0  0  0  0  0  0  0  0  0  0  0  0
   43.1849    9.0693   10.3067 C   0  0  0  0  0  0  0  0  0  0  0  0
   44.1231    9.0228   11.3108 C   0  0  0  0  0  0  0  0  0  0  0  0
   45.4102   13.3821   12.2682 N   0  0  0  0  0  0  0  0  0  0  0  0
   46.0444   14.5777   12.5061 C   0  0  0  0  0  0  0  0  0  0  0  0
   45.1704   15.6030   12.2308 C   0  0  0  0  0  0  0  0  0  0  0  0
   43.9452   15.0031   11.8445 C   0  0  0  0  0  0  0  0  0  0  0  0
   44.1078   13.6322   11.9144 C   0  0  0  0  0  0  0  0  0  0  0  0
   47.8453   12.2195   13.1147 N   0  0  0  0  0  0  0  0  0  0  0  0
   48.8791   11.3776   13.4505 C   0  0  0  0  0  0  0  0  0  0  0  0
   49.9702   12.2590   13.8665 C   0  0  0  0  0  0  0  0  0  0  0  0
   49.5764   13.5240   13.7576 C   0  0  0  0  0  0  0  0  0  0  0  0
   48.2169   13.5304   13.2727 C   0  0  0  0  0  0  0  0  0  0  0  0
   49.0207   10.0101   13.4483 C   0  0  0  0  0  0  0  0  0  0  0  0
   44.9658    7.7945   11.8172 C   0  0  0  0  0  0  0  0  0  0  0  0
   42.9824   12.5659   11.7042 C   0  0  0  0  0  0  0  0  0  0  0  0
   47.5276   14.6807   13.0458 C   0  0  0  0  0  0  0  0  0  0  0  0
   50.3322    9.4531   13.9027 C   0  0  0  0  0  0  0  0  0  0  0  0
   50.5565    9.2072   15.2646 C   0  0  0  0  0  0  0  0  0  0  0  0
   51.7843    8.7002   15.6829 C   0  0  0  0  0  0  0  0  0  0  0  0
   52.7990    8.4316   14.7676 C   0  0  0  0  0  0  0  0  0  0  0  0
   52.5837    8.6768   13.4103 C   0  0  0  0  0  0  0  0  0  0  0  0
   51.3553    9.1871   12.9793 C   0  0  0  0  0  0  0  0  0  0  0  0
   48.1099   16.0174   13.2778 C   0  0  0  0  0  0  0  0  0  0  0  0
   48.0462   16.6073   14.5444 C   0  0  0  0  0  0  0  0  0  0  0  0
   48.5931   17.8687   14.7460 C   0  0  0  0  0  0  0  0  0  0  0  0
   49.1954   18.5644   13.6975 C   0  0  0  0  0  0  0  0  0  0  0  0
   49.2607   17.9803   12.4319 C   0  0  0  0  0  0  0  0  0  0  0  0
   48.7227   16.7089   12.2241 C   0  0  0  0  0  0  0  0  0  0  0  0
   48.5186   18.4082   15.9993 O   0  0  0  0  0  0  0  0  0  0  0  0
   52.0243    8.4610   17.0084 O   0  0  0  0  0  0  0  0  0  0  0  0
   44.1905    3.5716    9.4735 O   0  0  0  0  0  0  0  0  0  0  0  0
   38.7071   14.7517   10.9248 O   0  0  0  0  0  0  0  0  0  0  0  0
   43.5013    6.5727   13.7031 H   0  0  0  0  0  0  0  0  0  0  0  0
   45.1704    6.0460    9.7966 H   0  0  0  0  0  0  0  0  0  0  0  0
   42.8430    2.8821   11.5834 H   0  0  0  0  0  0  0  0  0  0  0  0
   42.5047    4.2951   13.6129 H   0  0  0  0  0  0  0  0  0  0  0  0
   41.1798   14.1462   10.4311 H   0  0  0  0  0  0  0  0  0  0  0  0
   37.8953   13.5120   13.1521 H   0  0  0  0  0  0  0  0  0  0  0  0
   39.3189   12.0105   14.5198 H   0  0  0  0  0  0  0  0  0  0  0  0
   41.6668   11.5775   13.8558 H   0  0  0  0  0  0  0  0  0  0  0  0
   47.0869    6.0645   12.3084 H   0  0  0  0  0  0  0  0  0  0  0  0
   46.6581    6.6506   13.9342 H   0  0  0  0  0  0  0  0  0  0  0  0
   48.8865    7.2570   13.9737 H   0  0  0  0  0  0  0  0  0  0  0  0
   49.0059    7.3542   12.2000 H   0  0  0  0  0  0  0  0  0  0  0  0
   45.0002   10.5071   12.5016 H   0  0  0  0  0  0  0  0  0  0  0  0
   41.9035   10.7799    9.6371 H   0  0  0  0  0  0  0  0  0  0  0  0
   42.8782    8.2411    9.6875 H   0  0  0  0  0  0  0  0  0  0  0  0
   45.8955   12.4926   12.4071 H   0  0  0  0  0  0  0  0  0  0  0  0
   45.3843   16.6568   12.3282 H   0  0  0  0  0  0  0  0  0  0  0  0
   43.0321   15.5242   11.5971 H   0  0  0  0  0  0  0  0  0  0  0  0
   50.9451   11.9525   14.2021 H   0  0  0  0  0  0  0  0  0  0  0  0
   50.1763   14.3835   13.9932 H   0  0  0  0  0  0  0  0  0  0  0  0
   49.7511    9.4248   15.9590 H   0  0  0  0  0  0  0  0  0  0  0  0
   53.7514    8.0410   15.1129 H   0  0  0  0  0  0  0  0  0  0  0  0
   53.3665    8.4795   12.6841 H   0  0  0  0  0  0  0  0  0  0  0  0
   51.1677    9.3907   11.9275 H   0  0  0  0  0  0  0  0  0  0  0  0
   47.5801   16.0632   15.3616 H   0  0  0  0  0  0  0  0  0  0  0  0
   49.6186   19.5500   13.8479 H   0  0  0  0  0  0  0  0  0  0  0  0
   49.7371   18.5020   11.6081 H   0  0  0  0  0  0  0  0  0  0  0  0
   48.7732   16.2405   11.2432 H   0  0  0  0  0  0  0  0  0  0  0  0
   48.9385   19.2809   15.9754 H   0  0  0  0  0  0  0  0  0  0  0  0
   51.2272    8.7583   17.4800 H   0  0  0  0  0  0  0  0  0  0  0  0
   44.7665    4.0583    8.8603 H   0  0  0  0  0  0  0  0  0  0  0  0
   37.8230   14.8093   11.3156 H   0  0  0  0  0  0  0  0  0  0  0  0
 25 26  2  0
 26 27  1  0
 27 23  1  0
 28 29  1  0
  1  2  2  0
  3  4  2  0
  7  8  2  0
 14 15  1  0
 29 30  1  0
 30 31  2  0
 31 32  1  0
 32 28  2  0
 15 16  1  0
 29 33  2  0
 17 33  1  0
 16 17  1  0
 14 34  2  0
 22 34  1  0
 17 13  2  0
 27 35  2  0
 19 35  1  0
 18 19  1  0
 24 36  2  0
 32 36  1  0
  8  9  1  0
  4  5  1  0
 37 38  2  0
  9 10  2  0
 38 39  1  0
  2  3  1  0
 39 40  2  0
 10 11  1  0
 40 41  1  0
 19 20  2  0
 41 42  2  0
 42 37  1  0
 33 37  1  0
 20 21  1  0
 21 22  2  0
 43 44  2  0
 22 18  1  0
 44 45  1  0
 23 24  1  0
 45 46  2  0
  5  6  2  0
 46 47  1  0
 11 12  2  0
 47 48  2  0
 48 43  1  0
 36 43  1  0
 12  7  1  0
 45 49  1  0
 13 14  1  0
 39 50  1  0
 35 12  1  0
 34  2  1  0
  6  1  1  0
  4 51  1  0
 24 25  1  0
  8 52  1  0
  1 53  1  0
  3 54  1  0
  5 55  1  0
  6 56  1  0
  7 57  1  0
  9 58  1  0
 10 59  1  0
 11 60  1  0
 15 61  1  0
 15 62  1  0
 16 63  1  0
 16 64  1  0
 18 65  1  0
 20 66  1  0
 21 67  1  0
 23 68  1  0
 25 69  1  0
 26 70  1  0
 30 71  1  0
 31 72  1  0
 38 73  1  0
 40 74  1  0
 41 75  1  0
 42 76  1  0
 44 77  1  0
 46 78  1  0
 47 79  1  0
 48 80  1  0
 49 81  1  0
 50 82  1  0
 51 83  1  0
 52 84  1  0
M  END
> <Uni-Dock RESULT> 
ENERGY=   -5.309  LOWER_BOUND=    2.111  UPPER_BOUND=    8.450
INTER + INTRA:          -5.309
INTER:                  -5.309
INTRA:                   0.000
UNBOUND:                 0.000

$$$$

     RDKit          3D

 84 92  0  0  0  0  0  0  0  0999 V2000
   49.0467   16.0665   15.7325 C   0  0  0  0  0  0  0  0  0  0  0  0
   49.3641   15.6511   14.4332 C   0  0  0  0  0  0  0  0  0  0  0  0
   50.1775   16.4548   13.6275 C   0  0  0  0  0  0  0  0  0  0  0  0
   50.6618   17.6598   14.1310 C   0  0  0  0  0  0  0  0  0  0  0  0
   50.3480   18.0752   15.4238 C   0  0  0  0  0  0  0  0  0  0  0  0
   49.5365   17.2772   16.2290 C   0  0  0  0  0  0  0  0  0  0  0  0
   51.4186    8.0446   16.3515 C   0  0  0  0  0  0  0  0  0  0  0  0
   51.9466    7.6702   17.5836 C   0  0  0  0  0  0  0  0  0  0  0  0
   51.4483    8.2079   18.7713 C   0  0  0  0  0  0  0  0  0  0  0  0
   50.4129    9.1422   18.7192 C   0  0  0  0  0  0  0  0  0  0  0  0
   49.8782    9.5262   17.4858 C   0  0  0  0  0  0  0  0  0  0  0  0
   50.3734    8.9744   16.2946 C   0  0  0  0  0  0  0  0  0  0  0  0
   46.9896   13.1338   12.8860 N   0  0  0  0  0  0  0  0  0  0  0  0
   47.6252   14.2536   13.3356 C   0  0  0  0  0  0  0  0  0  0  0  0
   46.7325   15.4422   13.1242 C   0  0  0  0  0  0  0  0  0  0  0  0
   45.7354   14.9370   12.1103 C   0  0  0  0  0  0  0  0  0  0  0  0
   45.8301   13.4234   12.2257 C   0  0  0  0  0  0  0  0  0  0  0  0
   49.0921   11.8170   14.2671 N   0  0  0  0  0  0  0  0  0  0  0  0
   50.0549   10.8919   14.5562 C   0  0  0  0  0  0  0  0  0  0  0  0
   51.2801   11.5223   14.4863 C   0  0  0  0  0  0  0  0  0  0  0  0
   51.0405   12.8973   14.2251 C   0  0  0  0  0  0  0  0  0  0  0  0
   49.6766   13.0530   14.1475 C   0  0  0  0  0  0  0  0  0  0  0  0
   47.7990    8.8676   13.4166 N   0  0  0  0  0  0  0  0  0  0  0  0
   47.1255    7.7504   12.9848 C   0  0  0  0  0  0  0  0  0  0  0  0
   47.8134    6.6336   13.3976 C   0  0  0  0  0  0  0  0  0  0  0  0
   48.9302    7.0928   14.1405 C   0  0  0  0  0  0  0  0  0  0  0  0
   48.8761    8.4737   14.1709 C   0  0  0  0  0  0  0  0  0  0  0  0
   45.6945   10.2960   12.1803 N   0  0  0  0  0  0  0  0  0  0  0  0
   44.8453   11.2485   11.6685 C   0  0  0  0  0  0  0  0  0  0  0  0
   43.7692   10.4950   11.0247 C   0  0  0  0  0  0  0  0  0  0  0  0
   44.0075    9.1937   11.1554 C   0  0  0  0  0  0  0  0  0  0  0  0
   45.2398    9.0350   11.8897 C   0  0  0  0  0  0  0  0  0  0  0  0
   44.8598   12.6232   11.6689 C   0  0  0  0  0  0  0  0  0  0  0  0
   48.8454   14.3696   13.9221 C   0  0  0  0  0  0  0  0  0  0  0  0
   49.8289    9.4086   14.9869 C   0  0  0  0  0  0  0  0  0  0  0  0
   45.7644    7.8144   12.1815 C   0  0  0  0  0  0  0  0  0  0  0  0
   43.7223   13.3238   10.9964 C   0  0  0  0  0  0  0  0  0  0  0  0
   42.5481   13.6015   11.7104 C   0  0  0  0  0  0  0  0  0  0  0  0
   41.4877   14.2430   11.0753 C   0  0  0  0  0  0  0  0  0  0  0  0
   41.5730   14.6156    9.7361 C   0  0  0  0  0  0  0  0  0  0  0  0
   42.7380   14.3396    9.0181 C   0  0  0  0  0  0  0  0  0  0  0  0
   43.8084   13.6947    9.6455 C   0  0  0  0  0  0  0  0  0  0  0  0
   45.1176    6.5513   11.7742 C   0  0  0  0  0  0  0  0  0  0  0  0
   44.1365    5.9660   12.5811 C   0  0  0  0  0  0  0  0  0  0  0  0
   43.5412    4.7736   12.1878 C   0  0  0  0  0  0  0  0  0  0  0  0
   43.9178    4.1417   11.0025 C   0  0  0  0  0  0  0  0  0  0  0  0
   44.8967    4.7213   10.1945 C   0  0  0  0  0  0  0  0  0  0  0  0
   45.4919    5.9246   10.5779 C   0  0  0  0  0  0  0  0  0  0  0  0
   42.5808    4.2372   12.9986 O   0  0  0  0  0  0  0  0  0  0  0  0
   40.3312   14.5155   11.7535 O   0  0  0  0  0  0  0  0  0  0  0  0
   51.4591   18.4668   13.3673 O   0  0  0  0  0  0  0  0  0  0  0  0
   52.9675    6.7614   17.5955 O   0  0  0  0  0  0  0  0  0  0  0  0
   48.4066   15.4350   16.3442 H   0  0  0  0  0  0  0  0  0  0  0  0
   50.4059   16.1171   12.6210 H   0  0  0  0  0  0  0  0  0  0  0  0
   50.7339   19.0175   15.7991 H   0  0  0  0  0  0  0  0  0  0  0  0
   49.2759   17.5888   17.2355 H   0  0  0  0  0  0  0  0  0  0  0  0
   51.8317    7.6318   15.4329 H   0  0  0  0  0  0  0  0  0  0  0  0
   51.8543    7.9186   19.7353 H   0  0  0  0  0  0  0  0  0  0  0  0
   50.0119    9.5761   19.6340 H   0  0  0  0  0  0  0  0  0  0  0  0
   49.0736   10.2601   17.4449 H   0  0  0  0  0  0  0  0  0  0  0  0
   47.2558   16.3252   12.7465 H   0  0  0  0  0  0  0  0  0  0  0  0
   46.2283   15.7059   14.0623 H   0  0  0  0  0  0  0  0  0  0  0  0
   44.7449   15.3482   12.3284 H   0  0  0  0  0  0  0  0  0  0  0  0
   46.0308   15.2535   11.1007 H   0  0  0  0  0  0  0  0  0  0  0  0
   48.0927   11.6816   14.1120 H   0  0  0  0  0  0  0  0  0  0  0  0
   52.2388   11.0521   14.6444 H   0  0  0  0  0  0  0  0  0  0  0  0
   51.7739   13.6829   14.1334 H   0  0  0  0  0  0  0  0  0  0  0  0
   47.4518    9.8059   13.2044 H   0  0  0  0  0  0  0  0  0  0  0  0
   47.5243    5.6104   13.2102 H   0  0  0  0  0  0  0  0  0  0  0  0
   49.6589    6.4730   14.6417 H   0  0  0  0  0  0  0  0  0  0  0  0
   42.9174   10.9088   10.5147 H   0  0  0  0  0  0  0  0  0  0  0  0
   43.3824    8.4068   10.7755 H   0  0  0  0  0  0  0  0  0  0  0  0
   42.5049   13.3011   12.7526 H   0  0  0  0  0  0  0  0  0  0  0  0
   40.7342   15.1106    9.2563 H   0  0  0  0  0  0  0  0  0  0  0  0
   42.8187   14.6171    7.9715 H   0  0  0  0  0  0  0  0  0  0  0  0
   44.7233   13.4651    9.1040 H   0  0  0  0  0  0  0  0  0  0  0  0
   43.8411    6.4608   13.5025 H   0  0  0  0  0  0  0  0  0  0  0  0
   43.4607    3.2095   10.6938 H   0  0  0  0  0  0  0  0  0  0  0  0
   45.1924    4.2499    9.2628 H   0  0  0  0  0  0  0  0  0  0  0  0
   46.2519    6.3895    9.9531 H   0  0  0  0  0  0  0  0  0  0  0  0
   42.2688    3.4157   12.5907 H   0  0  0  0  0  0  0  0  0  0  0  0
   40.4486   14.1354   12.6411 H   0  0  0  0  0  0  0  0  0  0  0  0
   51.5321   18.0425   12.4959 H   0  0  0  0  0  0  0  0  0  0  0  0
   53.2201    6.6095   18.5179 H   0  0  0  0  0  0  0  0  0  0  0  0
 25 26  2  0
 26 27  1  0
 27 23  1  0
 28 29  1  0
  1  2  2  0
  3  4  2  0
  7  8  2  0
 14 15  1  0
 29 30  1  0
 30 31  2  0
 31 32  1  0
 32 28  2  0
 15 16  1  0
 29 33  2  0
 17 33  1  0
 16 17  1  0
 14 34  2  0
 22 34  1  0
 17 13  2  0
 27 35  2  0
 19 35  1  0
 18 19  1  0
 24 36  2  0
 32 36  1  0
  8  9  1  0
  4  5  1  0
 37 38  2  0
  9 10  2  0
 38 39  1  0
  2  3  1  0
 39 40  2  0
 10 11  1  0
 40 41  1  0
 19 20  2  0
 41 42  2  0
 42 37  1  0
 33 37  1  0
 20 21  1  0
 21 22  2  0
 43 44  2  0
 22 18  1  0
 44 45  1  0
 23 24  1  0
 45 46  2  0
  5  6  2  0
 46 47  1  0
 11 12  2  0
 47 48  2  0
 48 43  1  0
 36 43  1  0
 12  7  1  0
 45 49  1  0
 13 14  1  0
 39 50  1  0
 35 12  1  0
 34  2  1  0
  6  1  1  0
  4 51  1  0
 24 25  1  0
  8 52  1  0
  1 53  1  0
  3 54  1  0
  5 55  1  0
  6 56  1  0
  7 57  1  0
  9 58  1  0
 10 59  1  0
 11 60  1  0
 15 61  1  0
 15 62  1  0
 16 63  1  0
 16 64  1  0
 18 65  1  0
 20 66  1  0
 21 67  1  0
 23 68  1  0
 25 69  1  0
 26 70  1  0
 30 71  1  0
 31 72  1  0
 38 73  1  0
 40 74  1  0
 41 75  1  0
 42 76  1  0
 44 77  1  0
 46 78  1  0
 47 79  1  0
 48 80  1  0
 49 81  1  0
 50 82  1  0
 51 83  1  0
 52 84  1  0
M  END
> <Uni-Dock RESULT> 
ENERGY=   -5.283  LOWER_BOUND=    1.436  UPPER_BOUND=    7.704
INTER + INTRA:          -5.283
INTER:                  -5.283
INTRA:                   0.000
UNBOUND:                 0.000

$$$$

     RDKit          3D

 84 92  0  0  0  0  0  0  0  0999 V2000
   48.9229   16.1458   15.5025 C   0  0  0  0  0  0  0  0  0  0  0  0
   49.2097   15.7216   14.1990 C   0  0  0  0  0  0  0  0  0  0  0  0
   49.9769   16.5346   13.3581 C   0  0  0  0  0  0  0  0  0  0  0  0
   50.4463   17.7576   13.8312 C   0  0  0  0  0  0  0  0  0  0  0  0
   50.1629   18.1820   15.1282 C   0  0  0  0  0  0  0  0  0  0  0  0
   49.3974   17.3746   15.9684 C   0  0  0  0  0  0  0  0  0  0  0  0
   51.5138    8.1939   16.1442 C   0  0  0  0  0  0  0  0  0  0  0  0
   52.0894    7.8487   17.3635 C   0  0  0  0  0  0  0  0  0  0  0  0
   51.6154    8.3893   18.5597 C   0  0  0  0  0  0  0  0  0  0  0  0
   50.5556    9.2969   18.5290 C   0  0  0  0  0  0  0  0  0  0  0  0
   49.9730    9.6515   17.3085 C   0  0  0  0  0  0  0  0  0  0  0  0
   50.4443    9.0967   16.1091 C   0  0  0  0  0  0  0  0  0  0  0  0
   46.8518   13.1263   12.7588 N   0  0  0  0  0  0  0  0  0  0  0  0
   47.4729   14.2672   13.1743 C   0  0  0  0  0  0  0  0  0  0  0  0
   46.5444   15.4305   12.9767 C   0  0  0  0  0  0  0  0  0  0  0  0
   45.5289   14.8877   12.0011 C   0  0  0  0  0  0  0  0  0  0  0  0
   45.6653   13.3785   12.1321 C   0  0  0  0  0  0  0  0  0  0  0  0
   49.0291   11.8801   14.0886 N   0  0  0  0  0  0  0  0  0  0  0  0
   50.0234   10.9829   14.3584 C   0  0  0  0  0  0  0  0  0  0  0  0
   51.2296   11.6425   14.2419 C   0  0  0  0  0  0  0  0  0  0  0  0
   50.9474   13.0076   13.9716 C   0  0  0  0  0  0  0  0  0  0  0  0
   49.5782   13.1284   13.9354 C   0  0  0  0  0  0  0  0  0  0  0  0
   47.7844    8.8888   13.3157 N   0  0  0  0  0  0  0  0  0  0  0  0
   47.1259    7.7497   12.9191 C   0  0  0  0  0  0  0  0  0  0  0  0
   47.8543    6.6557   13.3236 C   0  0  0  0  0  0  0  0  0  0  0  0
   48.9820    7.1520   14.0250 C   0  0  0  0  0  0  0  0  0  0  0  0
   48.8942    8.5314   14.0402 C   0  0  0  0  0  0  0  0  0  0  0  0
   45.6069   10.2484   12.1292 N   0  0  0  0  0  0  0  0  0  0  0  0
   44.7184   11.1729   11.6330 C   0  0  0  0  0  0  0  0  0  0  0  0
   43.6420   10.3846   11.0329 C   0  0  0  0  0  0  0  0  0  0  0  0
   43.9168    9.0915   11.1719 C   0  0  0  0  0  0  0  0  0  0  0  0
   45.1752    8.9728   11.8687 C   0  0  0  0  0  0  0  0  0  0  0  0
   44.6984   12.5474   11.6161 C   0  0  0  0  0  0  0  0  0  0  0  0
   48.7075   14.4211   13.7203 C   0  0  0  0  0  0  0  0  0  0  0  0
   49.8483    9.5002   14.8142 C   0  0  0  0  0  0  0  0  0  0  0  0
   45.7392    7.7695   12.1587 C   0  0  0  0  0  0  0  0  0  0  0  0
   43.5231   13.2108   10.9715 C   0  0  0  0  0  0  0  0  0  0  0  0
   42.3652   13.4686   11.7189 C   0  0  0  0  0  0  0  0  0  0  0  0
   41.2697   14.0754   11.1098 C   0  0  0  0  0  0  0  0  0  0  0  0
   41.3036   14.4325    9.7642 C   0  0  0  0  0  0  0  0  0  0  0  0
   42.4520   14.1760    9.0131 C   0  0  0  0  0  0  0  0  0  0  0  0
   43.5574   13.5661    9.6140 C   0  0  0  0  0  0  0  0  0  0  0  0
   45.1119    6.4856   11.7876 C   0  0  0  0  0  0  0  0  0  0  0  0
   44.1716    5.8868   12.6323 C   0  0  0  0  0  0  0  0  0  0  0  0
   43.5944    4.6750   12.2727 C   0  0  0  0  0  0  0  0  0  0  0  0
   43.9494    4.0372   11.0839 C   0  0  0  0  0  0  0  0  0  0  0  0
   44.8876    4.6303   10.2382 C   0  0  0  0  0  0  0  0  0  0  0  0
   45.4641    5.8528   10.5878 C   0  0  0  0  0  0  0  0  0  0  0  0
   42.6737    4.1256   13.1200 O   0  0  0  0  0  0  0  0  0  0  0  0
   40.1285   14.3280   11.8210 O   0  0  0  0  0  0  0  0  0  0  0  0
   51.1988   18.5741   13.0329 O   0  0  0  0  0  0  0  0  0  0  0  0
   53.1328    6.9657   17.3542 O   0  0  0  0  0  0  0  0  0  0  0  0
   48.3183   15.5068   16.1419 H   0  0  0  0  0  0  0  0  0  0  0  0
   50.1820   16.1895   12.3492 H   0  0  0  0  0  0  0  0  0  0  0  0
   50.5365   19.1383   15.4795 H   0  0  0  0  0  0  0  0  0  0  0  0
   49.1607   17.6928   16.9787 H   0  0  0  0  0  0  0  0  0  0  0  0
   51.9082    7.7794   15.2181 H   0  0  0  0  0  0  0  0  0  0  0  0
   52.0585    8.1227   19.5139 H   0  0  0  0  0  0  0  0  0  0  0  0
   50.1728    9.7327   19.4507 H   0  0  0  0  0  0  0  0  0  0  0  0
   49.1493   10.3647   17.2842 H   0  0  0  0  0  0  0  0  0  0  0  0
   47.0332   16.3213   12.5718 H   0  0  0  0  0  0  0  0  0  0  0  0
   46.0634   15.6939   13.9271 H   0  0  0  0  0  0  0  0  0  0  0  0
   44.5358   15.2771   12.2455 H   0  0  0  0  0  0  0  0  0  0  0  0
   45.7845   15.1981   10.9789 H   0  0  0  0  0  0  0  0  0  0  0  0
   48.0290   11.7179   13.9669 H   0  0  0  0  0  0  0  0  0  0  0  0
   52.2043   11.1982   14.3753 H   0  0  0  0  0  0  0  0  0  0  0  0
   51.6576   13.8098   13.8471 H   0  0  0  0  0  0  0  0  0  0  0  0
   47.4073    9.8153   13.1031 H   0  0  0  0  0  0  0  0  0  0  0  0
   47.5854    5.6233   13.1580 H   0  0  0  0  0  0  0  0  0  0  0  0
   49.7415    6.5570   14.5105 H   0  0  0  0  0  0  0  0  0  0  0  0
   42.7644   10.7705   10.5452 H   0  0  0  0  0  0  0  0  0  0  0  0
   43.3001    8.2844   10.8217 H   0  0  0  0  0  0  0  0  0  0  0  0
   42.3623   13.1809   12.7655 H   0  0  0  0  0  0  0  0  0  0  0  0
   40.4379   14.9003    9.3052 H   0  0  0  0  0  0  0  0  0  0  0  0
   42.4928   14.4418    7.9611 H   0  0  0  0  0  0  0  0  0  0  0  0
   44.4604   13.3522    9.0467 H   0  0  0  0  0  0  0  0  0  0  0  0
   43.8929    6.3861   13.5565 H   0  0  0  0  0  0  0  0  0  0  0  0
   43.5065    3.0900   10.8013 H   0  0  0  0  0  0  0  0  0  0  0  0
   45.1657    4.1542    9.3034 H   0  0  0  0  0  0  0  0  0  0  0  0
   46.1922    6.3282    9.9335 H   0  0  0  0  0  0  0  0  0  0  0  0
   42.3698    3.2914   12.7322 H   0  0  0  0  0  0  0  0  0  0  0  0
   40.2832   13.9625   12.7090 H   0  0  0  0  0  0  0  0  0  0  0  0
   51.2550   18.1403   12.1649 H   0  0  0  0  0  0  0  0  0  0  0  0
   53.4179    6.8321   18.2699 H   0  0  0  0  0  0  0  0  0  0  0  0
 25 26  2  0
 26 27  1  0
 27 23  1  0
 28 29  1  0
  1  2  2  0
  3  4  2  0
  7  8  2  0
 14 15  1  0
 29 30  1  0
 30 31  2  0
 31 32  1  0
 32 28  2  0
 15 16  1  0
 29 33  2  0
 17 33  1  0
 16 17  1  0
 14 34  2  0
 22 34  1  0
 17 13  2  0
 27 35  2  0
 19 35  1  0
 18 19  1  0
 24 36  2  0
 32 36  1  0
  8  9  1  0
  4  5  1  0
 37 38  2  0
  9 10  2  0
 38 39  1  0
  2  3  1  0
 39 40  2  0
 10 11  1  0
 40 41  1  0
 19 20  2  0
 41 42  2  0
 42 37  1  0
 33 37  1  0
 20 21  1  0
 21 22  2  0
 43 44  2  0
 22 18  1  0
 44 45  1  0
 23 24  1  0
 45 46  2  0
  5  6  2  0
 46 47  1  0
 11 12  2  0
 47 48  2  0
 48 43  1  0
 36 43  1  0
 12  7  1  0
 45 49  1  0
 13 14  1  0
 39 50  1  0
 35 12  1  0
 34  2  1  0
  6  1  1  0
  4 51  1  0
 24 25  1  0
  8 52  1  0
  1 53  1  0
  3 54  1  0
  5 55  1  0
  6 56  1  0
  7 57  1  0
  9 58  1  0
 10 59  1  0
 11 60  1  0
 15 61  1  0
 15 62  1  0
 16 63  1  0
 16 64  1  0
 18 65  1  0
 20 66  1  0
 21 67  1  0
 23 68  1  0
 25 69  1  0
 26 70  1  0
 30 71  1  0
 31 72  1  0
 38 73  1  0
 40 74  1  0
 41 75  1  0
 42 76  1  0
 44 77  1  0
 46 78  1  0
 47 79  1  0
 48 80  1  0
 49 81  1  0
 50 82  1  0
 51 83  1  0
 52 84  1  0
M  END
> <Uni-Dock RESULT> 
ENERGY=   -5.279  LOWER_BOUND=    1.510  UPPER_BOUND=    7.698
INTER + INTRA:          -5.279
INTER:                  -5.279
INTRA:                   0.000
UNBOUND:                 0.000

$$$$

     RDKit          3D

 84 92  0  0  0  0  0  0  0  0999 V2000
   53.9688   11.1717   18.8099 C   0  0  0  0  0  0  0  0  0  0  0  0
   54.3334    9.9644   18.2009 C   0  0  0  0  0  0  0  0  0  0  0  0
   55.6664    9.5423   18.2411 C   0  0  0  0  0  0  0  0  0  0  0  0
   56.6143   10.3310   18.8888 C   0  0  0  0  0  0  0  0  0  0  0  0
   56.2540   11.5325   19.4963 C   0  0  0  0  0  0  0  0  0  0  0  0
   54.9265   11.9568   19.4569 C   0  0  0  0  0  0  0  0  0  0  0  0
   48.3302    5.4885   21.3132 C   0  0  0  0  0  0  0  0  0  0  0  0
   47.7261    5.7453   22.5405 C   0  0  0  0  0  0  0  0  0  0  0  0
   47.4298    7.0507   22.9356 C   0  0  0  0  0  0  0  0  0  0  0  0
   47.7546    8.1128   22.0904 C   0  0  0  0  0  0  0  0  0  0  0  0
   48.3640    7.8644   20.8568 C   0  0  0  0  0  0  0  0  0  0  0  0
   48.6492    6.5499   20.4578 C   0  0  0  0  0  0  0  0  0  0  0  0
   51.9862    8.7105   15.5014 N   0  0  0  0  0  0  0  0  0  0  0  0
   52.9540    9.3374   16.2297 C   0  0  0  0  0  0  0  0  0  0  0  0
   53.6106   10.3828   15.3751 C   0  0  0  0  0  0  0  0  0  0  0  0
   53.2210    9.9674   13.9776 C   0  0  0  0  0  0  0  0  0  0  0  0
   52.0074    9.0745   14.1856 C   0  0  0  0  0  0  0  0  0  0  0  0
   51.2389    7.6840   18.0410 N   0  0  0  0  0  0  0  0  0  0  0  0
   50.7883    6.8096   18.9889 C   0  0  0  0  0  0  0  0  0  0  0  0
   51.8417    6.5218   19.8321 C   0  0  0  0  0  0  0  0  0  0  0  0
   52.9462    7.3159   19.4247 C   0  0  0  0  0  0  0  0  0  0  0  0
   52.5226    8.0595   18.3485 C   0  0  0  0  0  0  0  0  0  0  0  0
   48.7082    6.0421   16.6289 N   0  0  0  0  0  0  0  0  0  0  0  0
   47.7187    5.4469   15.8840 C   0  0  0  0  0  0  0  0  0  0  0  0
   46.9452    4.6725   16.7164 C   0  0  0  0  0  0  0  0  0  0  0  0
   47.4660    4.8335   18.0253 C   0  0  0  0  0  0  0  0  0  0  0  0
   48.5284    5.7145   17.9497 C   0  0  0  0  0  0  0  0  0  0  0  0
   49.4812    7.2254   14.1794 N   0  0  0  0  0  0  0  0  0  0  0  0
   50.0978    7.9224   13.1673 C   0  0  0  0  0  0  0  0  0  0  0  0
   49.3176    7.6232   11.9665 C   0  0  0  0  0  0  0  0  0  0  0  0
   48.3275    6.7947   12.2834 C   0  0  0  0  0  0  0  0  0  0  0  0
   48.4095    6.5178   13.6975 C   0  0  0  0  0  0  0  0  0  0  0  0
   51.1976    8.7463   13.1234 C   0  0  0  0  0  0  0  0  0  0  0  0
   53.3132    9.1424   17.5255 C   0  0  0  0  0  0  0  0  0  0  0  0
   49.3263    6.2915   19.1656 C   0  0  0  0  0  0  0  0  0  0  0  0
   47.5361    5.6902   14.3318 C   0  0  0  0  0  0  0  0  0  0  0  0
   51.5603    9.3401   11.7995 C   0  0  0  0  0  0  0  0  0  0  0  0
   50.9734   10.5443   11.3856 C   0  0  0  0  0  0  0  0  0  0  0  0
   51.3060   11.0858   10.1465 C   0  0  0  0  0  0  0  0  0  0  0  0
   52.2158   10.4490    9.3061 C   0  0  0  0  0  0  0  0  0  0  0  0
   52.8018    9.2481    9.7104 C   0  0  0  0  0  0  0  0  0  0  0  0
   52.4742    8.6948   10.9519 C   0  0  0  0  0  0  0  0  0  0  0  0
   46.4313    5.0082   13.6290 C   0  0  0  0  0  0  0  0  0  0  0  0
   45.2001    5.6488   13.4555 C   0  0  0  0  0  0  0  0  0  0  0  0
   44.1674    4.9918   12.7976 C   0  0  0  0  0  0  0  0  0  0  0  0
   44.3359    3.6930   12.3172 C   0  0  0  0  0  0  0  0  0  0  0  0
   45.5621    3.0494   12.4884 C   0  0  0  0  0  0  0  0  0  0  0  0
   46.6077    3.7070   13.1392 C   0  0  0  0  0  0  0  0  0  0  0  0
   42.9823    5.6536   12.6404 O   0  0  0  0  0  0  0  0  0  0  0  0
   50.7380   12.2559    9.7223 O   0  0  0  0  0  0  0  0  0  0  0  0
   57.9250    9.9448   18.9448 O   0  0  0  0  0  0  0  0  0  0  0  0
   47.4328    4.6815   23.3472 O   0  0  0  0  0  0  0  0  0  0  0  0
   52.9301   11.4909   18.7634 H   0  0  0  0  0  0  0  0  0  0  0  0
   55.9287    8.6064   17.7569 H   0  0  0  0  0  0  0  0  0  0  0  0
   57.0063   12.1343   19.9958 H   0  0  0  0  0  0  0  0  0  0  0  0
   54.6297   12.8934   19.9181 H   0  0  0  0  0  0  0  0  0  0  0  0
   48.5735    4.4665   21.0283 H   0  0  0  0  0  0  0  0  0  0  0  0
   46.9571    7.2575   23.8903 H   0  0  0  0  0  0  0  0  0  0  0  0
   47.5349    9.1390   22.3810 H   0  0  0  0  0  0  0  0  0  0  0  0
   48.6229    8.6943   20.1994 H   0  0  0  0  0  0  0  0  0  0  0  0
   54.6987   10.4185   15.4798 H   0  0  0  0  0  0  0  0  0  0  0  0
   53.2014   11.3732   15.6110 H   0  0  0  0  0  0  0  0  0  0  0  0
   53.0323   10.8554   13.3664 H   0  0  0  0  0  0  0  0  0  0  0  0
   54.0336    9.3908   13.5152 H   0  0  0  0  0  0  0  0  0  0  0  0
   50.7723    8.0180   17.1972 H   0  0  0  0  0  0  0  0  0  0  0  0
   51.8078    5.8443   20.6718 H   0  0  0  0  0  0  0  0  0  0  0  0
   53.9229    7.3600   19.8801 H   0  0  0  0  0  0  0  0  0  0  0  0
   49.3982    6.6570   16.1912 H   0  0  0  0  0  0  0  0  0  0  0  0
   46.0888    4.0871   16.4172 H   0  0  0  0  0  0  0  0  0  0  0  0
   47.0672    4.3927   18.9270 H   0  0  0  0  0  0  0  0  0  0  0  0
   49.5038    7.9970   10.9753 H   0  0  0  0  0  0  0  0  0  0  0  0
   47.5989    6.4062   11.5959 H   0  0  0  0  0  0  0  0  0  0  0  0
   50.2670   11.0216   12.0574 H   0  0  0  0  0  0  0  0  0  0  0  0
   52.4592   10.8838    8.3414 H   0  0  0  0  0  0  0  0  0  0  0  0
   53.5080    8.7351    9.0645 H   0  0  0  0  0  0  0  0  0  0  0  0
   52.9146    7.7576   11.2848 H   0  0  0  0  0  0  0  0  0  0  0  0
   45.0709    6.6619   13.8269 H   0  0  0  0  0  0  0  0  0  0  0  0
   43.5327    3.1743   11.8083 H   0  0  0  0  0  0  0  0  0  0  0  0
   45.7146    2.0439   12.1095 H   0  0  0  0  0  0  0  0  0  0  0  0
   47.5704    3.2179   13.2732 H   0  0  0  0  0  0  0  0  0  0  0  0
   42.3717    5.0672   12.1694 H   0  0  0  0  0  0  0  0  0  0  0  0
   50.1030   12.5086   10.4146 H   0  0  0  0  0  0  0  0  0  0  0  0
   57.9940    9.1185   18.4377 H   0  0  0  0  0  0  0  0  0  0  0  0
   47.0219    5.0243   24.1542 H   0  0  0  0  0  0  0  0  0  0  0  0
 25 26  2  0
 26 27  1  0
 27 23  1  0
 28 29  1  0
  1  2  2  0
  3  4  2  0
  7  8  2  0
 14 15  1  0
 29 30  1  0
 30 31  2  0
 31 32  1  0
 32 28  2  0
 15 16  1  0
 29 33  2  0
 17 33  1  0
 16 17  1  0
 14 34  2  0
 22 34  1  0
 17 13  2  0
 27 35  2  0
 19 35  1  0
 18 19  1  0
 24 36  2  0
 32 36  1  0
  8  9  1  0
  4  5  1  0
 37 38  2  0
  9 10  2  0
 38 39  1  0
  2  3  1  0
 39 40  2  0
 10 11  1  0
 40 41  1  0
 19 20  2  0
 41 42  2  0
 42 37  1  0
 33 37  1  0
 20 21  1  0
 21 22  2  0
 43 44  2  0
 22 18  1  0
 44 45  1  0
 23 24  1  0
 45 46  2  0
  5  6  2  0
 46 47  1  0
 11 12  2  0
 47 48  2  0
 48 43  1  0
 36 43  1  0
 12  7  1  0
 45 49  1  0
 13 14  1  0
 39 50  1  0
 35 12  1  0
 34  2  1  0
  6  1  1  0
  4 51  1  0
 24 25  1  0
  8 52  1  0
  1 53  1  0
  3 54  1  0
  5 55  1  0
  6 56  1  0
  7 57  1  0
  9 58  1  0
 10 59  1  0
 11 60  1  0
 15 61  1  0
 15 62  1  0
 16 63  1  0
 16 64  1  0
 18 65  1  0
 20 66  1  0
 21 67  1  0
 23 68  1  0
 25 69  1  0
 26 70  1  0
 30 71  1  0
 31 72  1  0
 38 73  1  0
 40 74  1  0
 41 75  1  0
 42 76  1  0
 44 77  1  0
 46 78  1  0
 47 79  1  0
 48 80  1  0
 49 81  1  0
 50 82  1  0
 51 83  1  0
 52 84  1  0
M  END
> <Uni-Dock RESULT> 
ENERGY=   -5.025  LOWER_BOUND=    5.373  UPPER_BOUND=    8.831
INTER + INTRA:          -5.025
INTER:                  -5.025
INTRA:                   0.000
UNBOUND:                 0.000

$$$$

     RDKit          3D

 84 92  0  0  0  0  0  0  0  0999 V2000
   45.5918   12.4462    7.9686 C   0  0  0  0  0  0  0  0  0  0  0  0
   45.5780   12.9535    9.2739 C   0  0  0  0  0  0  0  0  0  0  0  0
   44.7385   14.0261    9.5922 C   0  0  0  0  0  0  0  0  0  0  0  0
   43.9256   14.5752    8.6034 C   0  0  0  0  0  0  0  0  0  0  0  0
   43.9368   14.0719    7.3038 C   0  0  0  0  0  0  0  0  0  0  0  0
   44.7734   13.0037    6.9829 C   0  0  0  0  0  0  0  0  0  0  0  0
   45.0094    5.8035   13.0573 C   0  0  0  0  0  0  0  0  0  0  0  0
   44.3965    4.6811   12.5081 C   0  0  0  0  0  0  0  0  0  0  0  0
   44.5740    4.3519   11.1635 C   0  0  0  0  0  0  0  0  0  0  0  0
   45.3696    5.1677   10.3576 C   0  0  0  0  0  0  0  0  0  0  0  0
   45.9870    6.2987   10.9001 C   0  0  0  0  0  0  0  0  0  0  0  0
   45.8161    6.6196   12.2552 C   0  0  0  0  0  0  0  0  0  0  0  0
   48.6637   12.2272   11.3523 N   0  0  0  0  0  0  0  0  0  0  0  0
   47.7325   12.7359   10.4955 C   0  0  0  0  0  0  0  0  0  0  0  0
   48.3581   13.8373    9.6893 C   0  0  0  0  0  0  0  0  0  0  0  0
   49.5861   14.1865   10.4940 C   0  0  0  0  0  0  0  0  0  0  0  0
   49.8160   12.9596   11.3630 C   0  0  0  0  0  0  0  0  0  0  0  0
   46.7233   10.1809   11.6828 N   0  0  0  0  0  0  0  0  0  0  0  0
   45.9595    9.2233   12.2876 C   0  0  0  0  0  0  0  0  0  0  0  0
   44.6497    9.6567   12.2723 C   0  0  0  0  0  0  0  0  0  0  0  0
   44.6125   10.8840   11.5591 C   0  0  0  0  0  0  0  0  0  0  0  0
   45.9025   11.1512   11.1649 C   0  0  0  0  0  0  0  0  0  0  0  0
   48.7583    8.5964   13.7906 N   0  0  0  0  0  0  0  0  0  0  0  0
   49.7227    8.0809   14.6227 C   0  0  0  0  0  0  0  0  0  0  0  0
   49.2474    6.9178   15.1815 C   0  0  0  0  0  0  0  0  0  0  0  0
   47.9559    6.7012   14.6380 C   0  0  0  0  0  0  0  0  0  0  0  0
   47.6943    7.7300   13.7526 C   0  0  0  0  0  0  0  0  0  0  0  0
   50.6535   10.6333   13.2834 N   0  0  0  0  0  0  0  0  0  0  0  0
   51.3360   11.7481   12.8571 C   0  0  0  0  0  0  0  0  0  0  0  0
   52.6389   11.6747   13.5184 C   0  0  0  0  0  0  0  0  0  0  0  0
   52.6808   10.5881   14.2830 C   0  0  0  0  0  0  0  0  0  0  0  0
   51.4178    9.9012   14.1559 C   0  0  0  0  0  0  0  0  0  0  0  0
   51.0142   12.7867   12.0158 C   0  0  0  0  0  0  0  0  0  0  0  0
   46.4423   12.3539   10.3064 C   0  0  0  0  0  0  0  0  0  0  0  0
   46.4431    7.8376   12.8195 C   0  0  0  0  0  0  0  0  0  0  0  0
   51.1413    8.7502   14.8258 C   0  0  0  0  0  0  0  0  0  0  0  0
   52.0552   13.8363   11.7887 C   0  0  0  0  0  0  0  0  0  0  0  0
   53.0141   13.6675   10.7798 C   0  0  0  0  0  0  0  0  0  0  0  0
   53.9884   14.6426   10.5814 C   0  0  0  0  0  0  0  0  0  0  0  0
   54.0277   15.7887   11.3715 C   0  0  0  0  0  0  0  0  0  0  0  0
   53.0780   15.9620   12.3799 C   0  0  0  0  0  0  0  0  0  0  0  0
   52.0961   14.9888   12.5888 C   0  0  0  0  0  0  0  0  0  0  0  0
   52.1090    8.1064   15.7363 C   0  0  0  0  0  0  0  0  0  0  0  0
   53.0609    7.2104   15.2390 C   0  0  0  0  0  0  0  0  0  0  0  0
   53.9610    6.6072   16.1091 C   0  0  0  0  0  0  0  0  0  0  0  0
   53.9213    6.8723   17.4781 C   0  0  0  0  0  0  0  0  0  0  0  0
   52.9729    7.7649   17.9791 C   0  0  0  0  0  0  0  0  0  0  0  0
   52.0720    8.3827   17.1097 C   0  0  0  0  0  0  0  0  0  0  0  0
   54.8814    5.7441   15.5844 O   0  0  0  0  0  0  0  0  0  0  0  0
   54.9368   14.4918    9.6070 O   0  0  0  0  0  0  0  0  0  0  0  0
   43.0943   15.6242    8.8842 O   0  0  0  0  0  0  0  0  0  0  0  0
   43.6154    3.9118   13.3245 O   0  0  0  0  0  0  0  0  0  0  0  0
   46.2556   11.6173    7.7341 H   0  0  0  0  0  0  0  0  0  0  0  0
   44.7482   14.4083   10.6086 H   0  0  0  0  0  0  0  0  0  0  0  0
   43.2971   14.5128    6.5462 H   0  0  0  0  0  0  0  0  0  0  0  0
   44.8005   12.6041    5.9741 H   0  0  0  0  0  0  0  0  0  0  0  0
   44.8447    6.0583   14.1027 H   0  0  0  0  0  0  0  0  0  0  0  0
   44.1005    3.4770   10.7297 H   0  0  0  0  0  0  0  0  0  0  0  0
   45.5184    4.9304    9.3053 H   0  0  0  0  0  0  0  0  0  0  0  0
   46.6035    6.9389   10.2693 H   0  0  0  0  0  0  0  0  0  0  0  0
   47.7146   14.7128    9.5644 H   0  0  0  0  0  0  0  0  0  0  0  0
   48.6408   13.4635    8.6972 H   0  0  0  0  0  0  0  0  0  0  0  0
   50.4140   14.4277    9.8202 H   0  0  0  0  0  0  0  0  0  0  0  0
   49.3854   15.0607   11.1282 H   0  0  0  0  0  0  0  0  0  0  0  0
   47.7394   10.2518   11.6204 H   0  0  0  0  0  0  0  0  0  0  0  0
   43.8080    9.1286   12.6940 H   0  0  0  0  0  0  0  0  0  0  0  0
   43.7448   11.4845   11.3362 H   0  0  0  0  0  0  0  0  0  0  0  0
   48.9150    9.4693   13.2813 H   0  0  0  0  0  0  0  0  0  0  0  0
   49.7833    6.2865   15.8743 H   0  0  0  0  0  0  0  0  0  0  0  0
   47.3165    5.8537   14.8362 H   0  0  0  0  0  0  0  0  0  0  0  0
   53.4442   12.3810   13.4211 H   0  0  0  0  0  0  0  0  0  0  0  0
   53.5167   10.2851   14.8861 H   0  0  0  0  0  0  0  0  0  0  0  0
   52.9635   12.7660   10.1773 H   0  0  0  0  0  0  0  0  0  0  0  0
   54.7978   16.5359   11.2053 H   0  0  0  0  0  0  0  0  0  0  0  0
   53.0984   16.8465   13.0095 H   0  0  0  0  0  0  0  0  0  0  0  0
   51.3496   15.1007   13.3720 H   0  0  0  0  0  0  0  0  0  0  0  0
   53.0935    7.0071   14.1719 H   0  0  0  0  0  0  0  0  0  0  0  0
   54.6170    6.4009   18.1614 H   0  0  0  0  0  0  0  0  0  0  0  0
   52.9363    7.9925   19.0396 H   0  0  0  0  0  0  0  0  0  0  0  0
   51.3321    9.0854   17.4876 H   0  0  0  0  0  0  0  0  0  0  0  0
   55.4280    5.4105   16.3114 H   0  0  0  0  0  0  0  0  0  0  0  0
   54.7731   13.6188    9.2105 H   0  0  0  0  0  0  0  0  0  0  0  0
   43.2524   15.8643    9.8126 H   0  0  0  0  0  0  0  0  0  0  0  0
   43.2652    3.1790   12.7972 H   0  0  0  0  0  0  0  0  0  0  0  0
 25 26  2  0
 26 27  1  0
 27 23  1  0
 28 29  1  0
  1  2  2  0
  3  4  2  0
  7  8  2  0
 14 15  1  0
 29 30  1  0
 30 31  2  0
 31 32  1  0
 32 28  2  0
 15 16  1  0
 29 33  2  0
 17 33  1  0
 16 17  1  0
 14 34  2  0
 22 34  1  0
 17 13  2  0
 27 35  2  0
 19 35  1  0
 18 19  1  0
 24 36  2  0
 32 36  1  0
  8  9  1  0
  4  5  1  0
 37 38  2  0
  9 10  2  0
 38 39  1  0
  2  3  1  0
 39 40  2  0
 10 11  1  0
 40 41  1  0
 19 20  2  0
 41 42  2  0
 42 37  1  0
 33 37  1  0
 20 21  1  0
 21 22  2  0
 43 44  2  0
 22 18  1  0
 44 45  1  0
 23 24  1  0
 45 46  2  0
  5  6  2  0
 46 47  1  0
 11 12  2  0
 47 48  2  0
 48 43  1  0
 36 43  1  0
 12  7  1  0
 45 49  1  0
 13 14  1  0
 39 50  1  0
 35 12  1  0
 34  2  1  0
  6  1  1  0
  4 51  1  0
 24 25  1  0
  8 52  1  0
  1 53  1  0
  3 54  1  0
  5 55  1  0
  6 56  1  0
  7 57  1  0
  9 58  1  0
 10 59  1  0
 11 60  1  0
 15 61  1  0
 15 62  1  0
 16 63  1  0
 16 64  1  0
 18 65  1  0
 20 66  1  0
 21 67  1  0
 23 68  1  0
 25 69  1  0
 26 70  1  0
 30 71  1  0
 31 72  1  0
 38 73  1  0
 40 74  1  0
 41 75  1  0
 42 76  1  0
 44 77  1  0
 46 78  1  0
 47 79  1  0
 48 80  1  0
 49 81  1  0
 50 82  1  0
 51 83  1  0
 52 84  1  0
M  END
> <Uni-Dock RESULT> 
ENERGY=   -4.436  LOWER_BOUND=    2.681  UPPER_BOUND=    8.126
INTER + INTRA:          -4.436
INTER:                  -4.436
INTRA:                   0.000
UNBOUND:                 0.000

$$$$
