
     RDKit          3D

 84 92  0  0  0  0  0  0  0  0999 V2000
   51.3292    7.7198   15.2345 C   0  0  0  0  0  0  0  0  0  0  0  0
   50.2066    8.3755   15.7581 C   0  0  0  0  0  0  0  0  0  0  0  0
   49.9820    8.3601   17.1380 C   0  0  0  0  0  0  0  0  0  0  0  0
   50.8619    7.6770   17.9708 C   0  0  0  0  0  0  0  0  0  0  0  0
   51.9778    7.0196   17.4525 C   0  0  0  0  0  0  0  0  0  0  0  0
   52.2127    7.0450   16.0787 C   0  0  0  0  0  0  0  0  0  0  0  0
   49.0984   15.7814   14.9709 C   0  0  0  0  0  0  0  0  0  0  0  0
   49.6790   17.0379   15.1207 C   0  0  0  0  0  0  0  0  0  0  0  0
   49.9256   17.8463   14.0172 C   0  0  0  0  0  0  0  0  0  0  0  0
   49.5874   17.3945   12.7415 C   0  0  0  0  0  0  0  0  0  0  0  0
   49.0046   16.1349   12.5798 C   0  0  0  0  0  0  0  0  0  0  0  0
   48.7625   15.3188   13.6920 C   0  0  0  0  0  0  0  0  0  0  0  0
   47.2716    8.8692   13.4157 N   0  0  0  0  0  0  0  0  0  0  0  0
   48.2409    8.3971   14.2492 C   0  0  0  0  0  0  0  0  0  0  0  0
   48.0151    6.9277   14.4793 C   0  0  0  0  0  0  0  0  0  0  0  0
   47.1307    6.5448   13.3221 C   0  0  0  0  0  0  0  0  0  0  0  0
   46.5025    7.8621   12.8997 C   0  0  0  0  0  0  0  0  0  0  0  0
   48.4261   11.4150   14.1026 N   0  0  0  0  0  0  0  0  0  0  0  0
   48.9037   12.6987   13.9961 C   0  0  0  0  0  0  0  0  0  0  0  0
   50.2438   12.6728   14.3491 C   0  0  0  0  0  0  0  0  0  0  0  0
   50.5708   11.3525   14.7361 C   0  0  0  0  0  0  0  0  0  0  0  0
   49.4290   10.6028   14.5840 C   0  0  0  0  0  0  0  0  0  0  0  0
   46.0218   12.9055   12.3571 N   0  0  0  0  0  0  0  0  0  0  0  0
   44.7522   13.3078   12.0084 C   0  0  0  0  0  0  0  0  0  0  0  0
   44.5385   14.5736   12.4977 C   0  0  0  0  0  0  0  0  0  0  0  0
   45.7372   14.9679   13.1383 C   0  0  0  0  0  0  0  0  0  0  0  0
   46.6491   13.9326   13.0108 C   0  0  0  0  0  0  0  0  0  0  0  0
   44.9086   10.3253   11.8666 N   0  0  0  0  0  0  0  0  0  0  0  0
   44.7125    8.9823   11.6690 C   0  0  0  0  0  0  0  0  0  0  0  0
   43.5305    8.8900   10.8171 C   0  0  0  0  0  0  0  0  0  0  0  0
   43.0717   10.1132   10.5719 C   0  0  0  0  0  0  0  0  0  0  0  0
   43.9282   11.0539   11.2512 C   0  0  0  0  0  0  0  0  0  0  0  0
   45.3773    7.8645   12.1092 C   0  0  0  0  0  0  0  0  0  0  0  0
   49.2629    9.0587   14.8522 C   0  0  0  0  0  0  0  0  0  0  0  0
   48.1311   13.9871   13.5250 C   0  0  0  0  0  0  0  0  0  0  0  0
   43.7242   12.3972   11.2266 C   0  0  0  0  0  0  0  0  0  0  0  0
   44.8212    6.5321   11.7196 C   0  0  0  0  0  0  0  0  0  0  0  0
   45.2817    5.8592   10.5779 C   0  0  0  0  0  0  0  0  0  0  0  0
   44.7425    4.6211   10.2428 C   0  0  0  0  0  0  0  0  0  0  0  0
   43.7483    4.0352   11.0289 C   0  0  0  0  0  0  0  0  0  0  0  0
   43.2847    4.6991   12.1655 C   0  0  0  0  0  0  0  0  0  0  0  0
   43.8181    5.9424   12.5074 C   0  0  0  0  0  0  0  0  0  0  0  0
   42.5970   13.0382   10.5178 C   0  0  0  0  0  0  0  0  0  0  0  0
   42.8073   13.7107    9.3085 C   0  0  0  0  0  0  0  0  0  0  0  0
   41.7360   14.3211    8.6630 C   0  0  0  0  0  0  0  0  0  0  0  0
   40.4520   14.2770    9.2069 C   0  0  0  0  0  0  0  0  0  0  0  0
   40.2386   13.6091   10.4128 C   0  0  0  0  0  0  0  0  0  0  0  0
   41.3077   12.9944   11.0663 C   0  0  0  0  0  0  0  0  0  0  0  0
   41.9749   14.9658    7.4831 O   0  0  0  0  0  0  0  0  0  0  0  0
   45.2045    3.9919    9.1202 O   0  0  0  0  0  0  0  0  0  0  0  0
   50.6005    7.6549   19.3109 O   0  0  0  0  0  0  0  0  0  0  0  0
   50.0207   17.5115   16.3559 O   0  0  0  0  0  0  0  0  0  0  0  0
   51.4913    7.7308   14.1583 H   0  0  0  0  0  0  0  0  0  0  0  0
   49.1072    8.8613   17.5429 H   0  0  0  0  0  0  0  0  0  0  0  0
   52.6687    6.4919   18.0993 H   0  0  0  0  0  0  0  0  0  0  0  0
   53.0716    6.5339   15.6555 H   0  0  0  0  0  0  0  0  0  0  0  0
   48.8993   15.1451   15.8291 H   0  0  0  0  0  0  0  0  0  0  0  0
   50.3762   18.8245   14.1500 H   0  0  0  0  0  0  0  0  0  0  0  0
   49.7711   18.0192   11.8730 H   0  0  0  0  0  0  0  0  0  0  0  0
   48.7302   15.7829   11.5863 H   0  0  0  0  0  0  0  0  0  0  0  0
   47.4949    6.7707   15.4334 H   0  0  0  0  0  0  0  0  0  0  0  0
   48.9275    6.3220   14.4738 H   0  0  0  0  0  0  0  0  0  0  0  0
   46.4175    5.7824   13.6484 H   0  0  0  0  0  0  0  0  0  0  0  0
   47.7339    6.1359   12.5017 H   0  0  0  0  0  0  0  0  0  0  0  0
   47.5203   11.0327   13.8270 H   0  0  0  0  0  0  0  0  0  0  0  0
   50.9214   13.5141   14.3350 H   0  0  0  0  0  0  0  0  0  0  0  0
   51.5293   10.9861   15.0721 H   0  0  0  0  0  0  0  0  0  0  0  0
   46.3466   11.9529   12.1843 H   0  0  0  0  0  0  0  0  0  0  0  0
   43.6233   15.1389   12.4091 H   0  0  0  0  0  0  0  0  0  0  0  0
   45.9196   15.9140   13.6280 H   0  0  0  0  0  0  0  0  0  0  0  0
   43.0953    7.9853   10.4347 H   0  0  0  0  0  0  0  0  0  0  0  0
   42.2154   10.3509    9.9685 H   0  0  0  0  0  0  0  0  0  0  0  0
   46.0530    6.3216    9.9690 H   0  0  0  0  0  0  0  0  0  0  0  0
   43.3252    3.0712   10.7729 H   0  0  0  0  0  0  0  0  0  0  0  0
   42.5110    4.2615   12.7868 H   0  0  0  0  0  0  0  0  0  0  0  0
   43.4694    6.4809   13.3872 H   0  0  0  0  0  0  0  0  0  0  0  0
   43.8050   13.7435    8.8803 H   0  0  0  0  0  0  0  0  0  0  0  0
   39.6142   14.7515    8.7088 H   0  0  0  0  0  0  0  0  0  0  0  0
   39.2453   13.5574   10.8467 H   0  0  0  0  0  0  0  0  0  0  0  0
   41.1539   12.4655   12.0057 H   0  0  0  0  0  0  0  0  0  0  0  0
   41.1260   15.2822    7.1407 H   0  0  0  0  0  0  0  0  0  0  0  0
   44.6899    3.1808    9.0068 H   0  0  0  0  0  0  0  0  0  0  0  0
   51.0794    6.8993   19.6857 H   0  0  0  0  0  0  0  0  0  0  0  0
   49.7626   16.8324   17.0021 H   0  0  0  0  0  0  0  0  0  0  0  0
 25 26  2  0
 26 27  1  0
 27 23  1  0
 28 29  1  0
  1  2  2  0
  3  4  2  0
  7  8  2  0
 14 15  1  0
 29 30  1  0
 30 31  2  0
 31 32  1  0
 32 28  2  0
 15 16  1  0
 29 33  2  0
 17 33  1  0
 16 17  1  0
 14 34  2  0
 22 34  1  0
 17 13  2  0
 27 35  2  0
 19 35  1  0
 18 19  1  0
 24 36  2  0
 32 36  1  0
  8  9  1  0
  4  5  1  0
 37 38  2  0
  9 10  2  0
 38 39  1  0
  2  3  1  0
 39 40  2  0
 10 11  1  0
 40 41  1  0
 19 20  2  0
 41 42  2  0
 42 37  1  0
 33 37  1  0
 20 21  1  0
 21 22  2  0
 43 44  2  0
 22 18  1  0
 44 45  1  0
 23 24  1  0
 45 46  2  0
  5  6  2  0
 46 47  1  0
 11 12  2  0
 47 48  2  0
 48 43  1  0
 36 43  1  0
 12  7  1  0
 45 49  1  0
 13 14  1  0
 39 50  1  0
 35 12  1  0
 34  2  1  0
  6  1  1  0
  4 51  1  0
 24 25  1  0
  8 52  1  0
  1 53  1  0
  3 54  1  0
  5 55  1  0
  6 56  1  0
  7 57  1  0
  9 58  1  0
 10 59  1  0
 11 60  1  0
 15 61  1  0
 15 62  1  0
 16 63  1  0
 16 64  1  0
 18 65  1  0
 20 66  1  0
 21 67  1  0
 23 68  1  0
 25 69  1  0
 26 70  1  0
 30 71  1  0
 31 72  1  0
 38 73  1  0
 40 74  1  0
 41 75  1  0
 42 76  1  0
 44 77  1  0
 46 78  1  0
 47 79  1  0
 48 80  1  0
 49 81  1  0
 50 82  1  0
 51 83  1  0
 52 84  1  0
M  END
> <Uni-Dock RESULT> 
ENERGY=   -5.944  LOWER_BOUND=    0.000  UPPER_BOUND=    0.000
INTER + INTRA:          -5.944
INTER:                  -5.944
INTRA:                   0.000
UNBOUND:                 0.000

$$$$

     RDKit          3D

 84 92  0  0  0  0  0  0  0  0999 V2000
   48.4560   16.6592   14.9747 C   0  0  0  0  0  0  0  0  0  0  0  0
   48.9919   15.6830   14.1238 C   0  0  0  0  0  0  0  0  0  0  0  0
   50.1456   15.9698   13.3878 C   0  0  0  0  0  0  0  0  0  0  0  0
   50.7339   17.2256   13.4923 C   0  0  0  0  0  0  0  0  0  0  0  0
   50.2006   18.2012   14.3349 C   0  0  0  0  0  0  0  0  0  0  0  0
   49.0587   17.9138   15.0811 C   0  0  0  0  0  0  0  0  0  0  0  0
   51.4222    9.0099   16.6258 C   0  0  0  0  0  0  0  0  0  0  0  0
   52.2293    8.3763   17.5667 C   0  0  0  0  0  0  0  0  0  0  0  0
   51.6775    7.5549   18.5429 C   0  0  0  0  0  0  0  0  0  0  0  0
   50.2967    7.3614   18.5821 C   0  0  0  0  0  0  0  0  0  0  0  0
   49.4773    7.9929   17.6427 C   0  0  0  0  0  0  0  0  0  0  0  0
   50.0341    8.8253   16.6636 C   0  0  0  0  0  0  0  0  0  0  0  0
   46.6068   13.0276   12.8568 N   0  0  0  0  0  0  0  0  0  0  0  0
   47.3078   14.1657   13.1224 C   0  0  0  0  0  0  0  0  0  0  0  0
   46.8044   15.2691   12.2323 C   0  0  0  0  0  0  0  0  0  0  0  0
   45.4530   14.7589   11.8067 C   0  0  0  0  0  0  0  0  0  0  0  0
   45.5561   13.2569   12.0109 C   0  0  0  0  0  0  0  0  0  0  0  0
   48.5724   11.8420   14.5937 N   0  0  0  0  0  0  0  0  0  0  0  0
   49.1484   11.0573   15.5632 C   0  0  0  0  0  0  0  0  0  0  0  0
   49.7021   11.9063   16.5085 C   0  0  0  0  0  0  0  0  0  0  0  0
   49.5089   13.2371   16.0707 C   0  0  0  0  0  0  0  0  0  0  0  0
   48.8197   13.1656   14.8837 C   0  0  0  0  0  0  0  0  0  0  0  0
   47.2580    8.8594   13.9414 N   0  0  0  0  0  0  0  0  0  0  0  0
   46.8909    7.7527   13.2094 C   0  0  0  0  0  0  0  0  0  0  0  0
   47.8458    6.7782   13.3704 C   0  0  0  0  0  0  0  0  0  0  0  0
   48.8121    7.3016   14.2620 C   0  0  0  0  0  0  0  0  0  0  0  0
   48.4107    8.5769   14.6252 C   0  0  0  0  0  0  0  0  0  0  0  0
   45.4563   10.1510   12.1463 N   0  0  0  0  0  0  0  0  0  0  0  0
   44.6424   11.0477   11.5025 C   0  0  0  0  0  0  0  0  0  0  0  0
   43.6307   10.2345   10.8344 C   0  0  0  0  0  0  0  0  0  0  0  0
   43.8787    8.9496   11.0676 C   0  0  0  0  0  0  0  0  0  0  0  0
   45.0587    8.8671   11.8927 C   0  0  0  0  0  0  0  0  0  0  0  0
   44.6515   12.4173   11.4046 C   0  0  0  0  0  0  0  0  0  0  0  0
   48.3276   14.3713   13.9961 C   0  0  0  0  0  0  0  0  0  0  0  0
   49.1683    9.4858   15.6565 C   0  0  0  0  0  0  0  0  0  0  0  0
   45.6021    7.6890   12.2973 C   0  0  0  0  0  0  0  0  0  0  0  0
   43.6058   13.0553   10.5468 C   0  0  0  0  0  0  0  0  0  0  0  0
   42.3957   13.5082   11.0936 C   0  0  0  0  0  0  0  0  0  0  0  0
   41.4432   14.0965   10.2676 C   0  0  0  0  0  0  0  0  0  0  0  0
   41.6745   14.2455    8.8987 C   0  0  0  0  0  0  0  0  0  0  0  0
   42.8754   13.7964    8.3475 C   0  0  0  0  0  0  0  0  0  0  0  0
   43.8352   13.2028    9.1683 C   0  0  0  0  0  0  0  0  0  0  0  0
   45.0554    6.3677   11.9240 C   0  0  0  0  0  0  0  0  0  0  0  0
   44.3433    5.6036   12.8555 C   0  0  0  0  0  0  0  0  0  0  0  0
   43.8489    4.3550   12.4900 C   0  0  0  0  0  0  0  0  0  0  0  0
   44.0568    3.8494   11.2065 C   0  0  0  0  0  0  0  0  0  0  0  0
   44.7675    4.6073   10.2757 C   0  0  0  0  0  0  0  0  0  0  0  0
   45.2666    5.8604   10.6344 C   0  0  0  0  0  0  0  0  0  0  0  0
   43.1554    3.6367   13.4218 O   0  0  0  0  0  0  0  0  0  0  0  0
   40.2698   14.5213   10.8264 O   0  0  0  0  0  0  0  0  0  0  0  0
   51.8428   17.4863   12.7391 O   0  0  0  0  0  0  0  0  0  0  0  0
   53.5854    8.5428   17.5556 O   0  0  0  0  0  0  0  0  0  0  0  0
   47.5533   16.4292   15.5376 H   0  0  0  0  0  0  0  0  0  0  0  0
   50.5561   15.2158   12.7220 H   0  0  0  0  0  0  0  0  0  0  0  0
   50.6602   19.1784   14.4234 H   0  0  0  0  0  0  0  0  0  0  0  0
   48.6247   18.6616   15.7371 H   0  0  0  0  0  0  0  0  0  0  0  0
   51.8465    9.6507   15.8575 H   0  0  0  0  0  0  0  0  0  0  0  0
   52.3198    7.0655   19.2678 H   0  0  0  0  0  0  0  0  0  0  0  0
   49.8552    6.7184   19.3371 H   0  0  0  0  0  0  0  0  0  0  0  0
   48.3997    7.8364   17.6642 H   0  0  0  0  0  0  0  0  0  0  0  0
   47.4662   15.3848   11.3638 H   0  0  0  0  0  0  0  0  0  0  0  0
   46.7026   16.2406   12.7273 H   0  0  0  0  0  0  0  0  0  0  0  0
   45.2578   15.0674   10.7756 H   0  0  0  0  0  0  0  0  0  0  0  0
   44.6693   15.1733   12.4535 H   0  0  0  0  0  0  0  0  0  0  0  0
   47.9861   11.5730   13.8022 H   0  0  0  0  0  0  0  0  0  0  0  0
   50.1982   11.6059   17.4200 H   0  0  0  0  0  0  0  0  0  0  0  0
   49.8213   14.1430   16.5684 H   0  0  0  0  0  0  0  0  0  0  0  0
   46.7415    9.7378   13.8771 H   0  0  0  0  0  0  0  0  0  0  0  0
   47.8469    5.8100   12.8934 H   0  0  0  0  0  0  0  0  0  0  0  0
   49.6998    6.7945   14.6131 H   0  0  0  0  0  0  0  0  0  0  0  0
   42.8068   10.6026   10.2515 H   0  0  0  0  0  0  0  0  0  0  0  0
   43.2947    8.1240   10.7055 H   0  0  0  0  0  0  0  0  0  0  0  0
   42.2207   13.3868   12.1586 H   0  0  0  0  0  0  0  0  0  0  0  0
   40.9365   14.7032    8.2509 H   0  0  0  0  0  0  0  0  0  0  0  0
   43.0720   13.9006    7.2862 H   0  0  0  0  0  0  0  0  0  0  0  0
   44.7778   12.8413    8.7603 H   0  0  0  0  0  0  0  0  0  0  0  0
   44.1761    5.9960   13.8545 H   0  0  0  0  0  0  0  0  0  0  0  0
   43.6748    2.8772   10.9169 H   0  0  0  0  0  0  0  0  0  0  0  0
   44.9319    4.2338    9.2702 H   0  0  0  0  0  0  0  0  0  0  0  0
   45.8187    6.4643    9.9159 H   0  0  0  0  0  0  0  0  0  0  0  0
   42.8359    2.8280   12.9953 H   0  0  0  0  0  0  0  0  0  0  0  0
   39.7073   14.8497   10.1112 H   0  0  0  0  0  0  0  0  0  0  0  0
   51.9220   18.4503   12.6666 H   0  0  0  0  0  0  0  0  0  0  0  0
   53.7942    9.1244   16.8049 H   0  0  0  0  0  0  0  0  0  0  0  0
 25 26  2  0
 26 27  1  0
 27 23  1  0
 28 29  1  0
  1  2  2  0
  3  4  2  0
  7  8  2  0
 14 15  1  0
 29 30  1  0
 30 31  2  0
 31 32  1  0
 32 28  2  0
 15 16  1  0
 29 33  2  0
 17 33  1  0
 16 17  1  0
 14 34  2  0
 22 34  1  0
 17 13  2  0
 27 35  2  0
 19 35  1  0
 18 19  1  0
 24 36  2  0
 32 36  1  0
  8  9  1  0
  4  5  1  0
 37 38  2  0
  9 10  2  0
 38 39  1  0
  2  3  1  0
 39 40  2  0
 10 11  1  0
 40 41  1  0
 19 20  2  0
 41 42  2  0
 42 37  1  0
 33 37  1  0
 20 21  1  0
 21 22  2  0
 43 44  2  0
 22 18  1  0
 44 45  1  0
 23 24  1  0
 45 46  2  0
  5  6  2  0
 46 47  1  0
 11 12  2  0
 47 48  2  0
 48 43  1  0
 36 43  1  0
 12  7  1  0
 45 49  1  0
 13 14  1  0
 39 50  1  0
 35 12  1  0
 34  2  1  0
  6  1  1  0
  4 51  1  0
 24 25  1  0
  8 52  1  0
  1 53  1  0
  3 54  1  0
  5 55  1  0
  6 56  1  0
  7 57  1  0
  9 58  1  0
 10 59  1  0
 11 60  1  0
 15 61  1  0
 15 62  1  0
 16 63  1  0
 16 64  1  0
 18 65  1  0
 20 66  1  0
 21 67  1  0
 23 68  1  0
 25 69  1  0
 26 70  1  0
 30 71  1  0
 31 72  1  0
 38 73  1  0
 40 74  1  0
 41 75  1  0
 42 76  1  0
 44 77  1  0
 46 78  1  0
 47 79  1  0
 48 80  1  0
 49 81  1  0
 50 82  1  0
 51 83  1  0
 52 84  1  0
M  END
> <Uni-Dock RESULT> 
ENERGY=   -5.830  LOWER_BOUND=    1.461  UPPER_BOUND=    8.003
INTER + INTRA:          -5.830
INTER:                  -5.830
INTRA:                   0.000
UNBOUND:                 0.000

$$$$

     RDKit          3D

 84 92  0  0  0  0  0  0  0  0999 V2000
   43.9519    5.0464   12.1454 C   0  0  0  0  0  0  0  0  0  0  0  0
   44.8136    5.8260   11.3618 C   0  0  0  0  0  0  0  0  0  0  0  0
   45.2329    5.3481   10.1165 C   0  0  0  0  0  0  0  0  0  0  0  0
   44.8081    4.0976    9.6808 C   0  0  0  0  0  0  0  0  0  0  0  0
   43.9540    3.3170   10.4602 C   0  0  0  0  0  0  0  0  0  0  0  0
   43.5224    3.7966   11.6959 C   0  0  0  0  0  0  0  0  0  0  0  0
   42.9440   12.6797    8.8663 C   0  0  0  0  0  0  0  0  0  0  0  0
   41.9659   13.4195    8.2073 C   0  0  0  0  0  0  0  0  0  0  0  0
   41.2720   14.4295    8.8635 C   0  0  0  0  0  0  0  0  0  0  0  0
   41.5580   14.7073   10.2001 C   0  0  0  0  0  0  0  0  0  0  0  0
   42.5375   13.9705   10.8712 C   0  0  0  0  0  0  0  0  0  0  0  0
   43.2314   12.9489   10.2107 C   0  0  0  0  0  0  0  0  0  0  0  0
   46.9628    8.3542   13.1878 N   0  0  0  0  0  0  0  0  0  0  0  0
   46.3774    7.2410   12.6633 C   0  0  0  0  0  0  0  0  0  0  0  0
   47.1674    6.0304   13.0800 C   0  0  0  0  0  0  0  0  0  0  0  0
   47.9455    6.5367   14.2657 C   0  0  0  0  0  0  0  0  0  0  0  0
   47.9650    8.0426   14.0655 C   0  0  0  0  0  0  0  0  0  0  0  0
   45.0589    9.7078   11.5059 N   0  0  0  0  0  0  0  0  0  0  0  0
   44.1263   10.6147   11.0638 C   0  0  0  0  0  0  0  0  0  0  0  0
   42.9626    9.9128   10.7915 C   0  0  0  0  0  0  0  0  0  0  0  0
   43.2146    8.5397   11.0171 C   0  0  0  0  0  0  0  0  0  0  0  0
   44.5167    8.4430   11.4460 C   0  0  0  0  0  0  0  0  0  0  0  0
   46.4400   12.6024   12.3792 N   0  0  0  0  0  0  0  0  0  0  0  0
   47.3993   13.5838   12.4880 C   0  0  0  0  0  0  0  0  0  0  0  0
   47.1961   14.5140   11.4976 C   0  0  0  0  0  0  0  0  0  0  0  0
   46.0482   14.0987   10.7816 C   0  0  0  0  0  0  0  0  0  0  0  0
   45.5808   12.9320   11.3648 C   0  0  0  0  0  0  0  0  0  0  0  0
   48.3485   11.1249   13.8996 N   0  0  0  0  0  0  0  0  0  0  0  0
   48.9997   10.1786   14.6490 C   0  0  0  0  0  0  0  0  0  0  0  0
   49.9877   10.9205   15.4268 C   0  0  0  0  0  0  0  0  0  0  0  0
   49.9140   12.2096   15.1113 C   0  0  0  0  0  0  0  0  0  0  0  0
   48.8811   12.3658   14.1170 C   0  0  0  0  0  0  0  0  0  0  0  0
   48.8748    8.8149   14.7486 C   0  0  0  0  0  0  0  0  0  0  0  0
   45.2858    7.1318   11.8619 C   0  0  0  0  0  0  0  0  0  0  0  0
   44.2815   12.1744   10.9162 C   0  0  0  0  0  0  0  0  0  0  0  0
   48.5625   13.5626   13.5575 C   0  0  0  0  0  0  0  0  0  0  0  0
   49.8227    8.0992   15.6573 C   0  0  0  0  0  0  0  0  0  0  0  0
   49.4804    7.8202   16.9891 C   0  0  0  0  0  0  0  0  0  0  0  0
   50.3857    7.1535   17.8085 C   0  0  0  0  0  0  0  0  0  0  0  0
   51.6330    6.7545   17.3239 C   0  0  0  0  0  0  0  0  0  0  0  0
   51.9808    7.0295   16.0007 C   0  0  0  0  0  0  0  0  0  0  0  0
   51.0798    7.7001   15.1725 C   0  0  0  0  0  0  0  0  0  0  0  0
   49.2481   14.8281   13.8928 C   0  0  0  0  0  0  0  0  0  0  0  0
   48.6222   15.7835   14.7018 C   0  0  0  0  0  0  0  0  0  0  0  0
   49.2777   16.9757   14.9946 C   0  0  0  0  0  0  0  0  0  0  0  0
   50.5514   17.2365   14.4887 C   0  0  0  0  0  0  0  0  0  0  0  0
   51.1779   16.2875   13.6807 C   0  0  0  0  0  0  0  0  0  0  0  0
   50.5273   15.0892   13.3824 C   0  0  0  0  0  0  0  0  0  0  0  0
   48.6404   17.8850   15.7896 O   0  0  0  0  0  0  0  0  0  0  0  0
   50.0285    6.9021   19.1042 O   0  0  0  0  0  0  0  0  0  0  0  0
   45.2576    3.6450    8.4734 O   0  0  0  0  0  0  0  0  0  0  0  0
   41.6624   13.1747    6.8979 O   0  0  0  0  0  0  0  0  0  0  0  0
   43.6373    5.4234   13.1167 H   0  0  0  0  0  0  0  0  0  0  0  0
   45.9075    5.9490    9.5130 H   0  0  0  0  0  0  0  0  0  0  0  0
   43.6161    2.3451   10.1208 H   0  0  0  0  0  0  0  0  0  0  0  0
   42.8633    3.2014   12.3199 H   0  0  0  0  0  0  0  0  0  0  0  0
   43.4931   11.8908    8.3592 H   0  0  0  0  0  0  0  0  0  0  0  0
   40.5143   14.9996    8.3357 H   0  0  0  0  0  0  0  0  0  0  0  0
   41.0257   15.4970   10.7212 H   0  0  0  0  0  0  0  0  0  0  0  0
   42.7703   14.1911   11.9120 H   0  0  0  0  0  0  0  0  0  0  0  0
   47.8460    5.7263   12.2721 H   0  0  0  0  0  0  0  0  0  0  0  0
   46.5576    5.1679   13.3688 H   0  0  0  0  0  0  0  0  0  0  0  0
   48.9322    6.0648   14.2794 H   0  0  0  0  0  0  0  0  0  0  0  0
   47.4224    6.2881   15.1978 H   0  0  0  0  0  0  0  0  0  0  0  0
   45.9892    9.8683   11.8948 H   0  0  0  0  0  0  0  0  0  0  0  0
   42.0260   10.3382   10.4612 H   0  0  0  0  0  0  0  0  0  0  0  0
   42.5247    7.7179   10.8962 H   0  0  0  0  0  0  0  0  0  0  0  0
   46.4723   11.7580   12.9524 H   0  0  0  0  0  0  0  0  0  0  0  0
   47.8094   15.3823   11.3109 H   0  0  0  0  0  0  0  0  0  0  0  0
   45.6017   14.6065    9.9383 H   0  0  0  0  0  0  0  0  0  0  0  0
   50.6662   10.5051   16.1487 H   0  0  0  0  0  0  0  0  0  0  0  0
   50.5181   12.9921   15.5317 H   0  0  0  0  0  0  0  0  0  0  0  0
   48.5099    8.1357   17.3607 H   0  0  0  0  0  0  0  0  0  0  0  0
   52.3416    6.2347   17.9575 H   0  0  0  0  0  0  0  0  0  0  0  0
   52.9460    6.7303   15.6071 H   0  0  0  0  0  0  0  0  0  0  0  0
   51.3305    7.9290   14.1380 H   0  0  0  0  0  0  0  0  0  0  0  0
   47.6321   15.5819   15.1006 H   0  0  0  0  0  0  0  0  0  0  0  0
   51.0660   18.1639   14.7127 H   0  0  0  0  0  0  0  0  0  0  0  0
   52.1718   16.4694   13.2850 H   0  0  0  0  0  0  0  0  0  0  0  0
   51.0072   14.3380   12.7571 H   0  0  0  0  0  0  0  0  0  0  0  0
   49.2477   18.6241   15.9407 H   0  0  0  0  0  0  0  0  0  0  0  0
   50.7854    6.4874   19.5410 H   0  0  0  0  0  0  0  0  0  0  0  0
   45.1578    2.6802    8.4718 H   0  0  0  0  0  0  0  0  0  0  0  0
   42.2497   12.4597    6.5989 H   0  0  0  0  0  0  0  0  0  0  0  0
 25 26  2  0
 26 27  1  0
 27 23  1  0
 28 29  1  0
  1  2  2  0
  3  4  2  0
  7  8  2  0
 14 15  1  0
 29 30  1  0
 30 31  2  0
 31 32  1  0
 32 28  2  0
 15 16  1  0
 29 33  2  0
 17 33  1  0
 16 17  1  0
 14 34  2  0
 22 34  1  0
 17 13  2  0
 27 35  2  0
 19 35  1  0
 18 19  1  0
 24 36  2  0
 32 36  1  0
  8  9  1  0
  4  5  1  0
 37 38  2  0
  9 10  2  0
 38 39  1  0
  2  3  1  0
 39 40  2  0
 10 11  1  0
 40 41  1  0
 19 20  2  0
 41 42  2  0
 42 37  1  0
 33 37  1  0
 20 21  1  0
 21 22  2  0
 43 44  2  0
 22 18  1  0
 44 45  1  0
 23 24  1  0
 45 46  2  0
  5  6  2  0
 46 47  1  0
 11 12  2  0
 47 48  2  0
 48 43  1  0
 36 43  1  0
 12  7  1  0
 45 49  1  0
 13 14  1  0
 39 50  1  0
 35 12  1  0
 34  2  1  0
  6  1  1  0
  4 51  1  0
 24 25  1  0
  8 52  1  0
  1 53  1  0
  3 54  1  0
  5 55  1  0
  6 56  1  0
  7 57  1  0
  9 58  1  0
 10 59  1  0
 11 60  1  0
 15 61  1  0
 15 62  1  0
 16 63  1  0
 16 64  1  0
 18 65  1  0
 20 66  1  0
 21 67  1  0
 23 68  1  0
 25 69  1  0
 26 70  1  0
 30 71  1  0
 31 72  1  0
 38 73  1  0
 40 74  1  0
 41 75  1  0
 42 76  1  0
 44 77  1  0
 46 78  1  0
 47 79  1  0
 48 80  1  0
 49 81  1  0
 50 82  1  0
 51 83  1  0
 52 84  1  0
M  END
> <Uni-Dock RESULT> 
ENERGY=   -5.813  LOWER_BOUND=    0.987  UPPER_BOUND=    7.997
INTER + INTRA:          -5.813
INTER:                  -5.813
INTRA:                   0.000
UNBOUND:                 0.000

$$$$

     RDKit          3D

 84 92  0  0  0  0  0  0  0  0999 V2000
   42.1865   13.5948   10.8026 C   0  0  0  0  0  0  0  0  0  0  0  0
   43.5209   13.4301   10.4071 C   0  0  0  0  0  0  0  0  0  0  0  0
   43.9248   13.8762    9.1451 C   0  0  0  0  0  0  0  0  0  0  0  0
   42.9941   14.4574    8.2904 C   0  0  0  0  0  0  0  0  0  0  0  0
   41.6641   14.6190    8.6792 C   0  0  0  0  0  0  0  0  0  0  0  0
   41.2612   14.1883    9.9423 C   0  0  0  0  0  0  0  0  0  0  0  0
   49.2705   16.5768   14.1134 C   0  0  0  0  0  0  0  0  0  0  0  0
   49.7627   17.7652   14.6460 C   0  0  0  0  0  0  0  0  0  0  0  0
   49.9438   17.9121   16.0163 C   0  0  0  0  0  0  0  0  0  0  0  0
   49.6288   16.8559   16.8712 C   0  0  0  0  0  0  0  0  0  0  0  0
   49.1336   15.6588   16.3472 C   0  0  0  0  0  0  0  0  0  0  0  0
   48.9457   15.5144   14.9668 C   0  0  0  0  0  0  0  0  0  0  0  0
   45.4718   10.6576   12.0960 N   0  0  0  0  0  0  0  0  0  0  0  0
   44.6249   11.4221   11.3507 C   0  0  0  0  0  0  0  0  0  0  0  0
   43.8088   10.5234   10.4622 C   0  0  0  0  0  0  0  0  0  0  0  0
   43.9446    9.1830   11.1349 C   0  0  0  0  0  0  0  0  0  0  0  0
   45.2151    9.3210   11.9564 C   0  0  0  0  0  0  0  0  0  0  0  0
   46.5562   13.2198   12.8345 N   0  0  0  0  0  0  0  0  0  0  0  0
   47.0914   14.2397   13.5834 C   0  0  0  0  0  0  0  0  0  0  0  0
   46.2048   15.3036   13.5281 C   0  0  0  0  0  0  0  0  0  0  0  0
   45.1356   14.9408   12.6766 C   0  0  0  0  0  0  0  0  0  0  0  0
   45.3848   13.6562   12.2561 C   0  0  0  0  0  0  0  0  0  0  0  0
   48.9381   11.6497   14.5404 N   0  0  0  0  0  0  0  0  0  0  0  0
   50.0368   10.8527   14.7705 C   0  0  0  0  0  0  0  0  0  0  0  0
   51.1530   11.6494   14.8518 C   0  0  0  0  0  0  0  0  0  0  0  0
   50.7094   12.9846   14.6996 C   0  0  0  0  0  0  0  0  0  0  0  0
   49.3334   12.9611   14.5399 C   0  0  0  0  0  0  0  0  0  0  0  0
   47.8378    9.1831   13.6229 N   0  0  0  0  0  0  0  0  0  0  0  0
   47.0086    8.1886   13.1707 C   0  0  0  0  0  0  0  0  0  0  0  0
   47.6099    6.9451   13.6435 C   0  0  0  0  0  0  0  0  0  0  0  0
   48.7303    7.2240   14.3020 C   0  0  0  0  0  0  0  0  0  0  0  0
   48.9107    8.6548   14.2868 C   0  0  0  0  0  0  0  0  0  0  0  0
   45.8538    8.1983   12.4280 C   0  0  0  0  0  0  0  0  0  0  0  0
   44.4825   12.7726   11.3133 C   0  0  0  0  0  0  0  0  0  0  0  0
   48.4335   14.2401   14.4064 C   0  0  0  0  0  0  0  0  0  0  0  0
   49.9777    9.2758   14.8547 C   0  0  0  0  0  0  0  0  0  0  0  0
   45.2471    6.8772   12.0775 C   0  0  0  0  0  0  0  0  0  0  0  0
   44.2470    6.3029   12.8766 C   0  0  0  0  0  0  0  0  0  0  0  0
   43.7039    5.0718   12.5228 C   0  0  0  0  0  0  0  0  0  0  0  0
   44.1388    4.3976   11.3800 C   0  0  0  0  0  0  0  0  0  0  0  0
   45.1339    4.9622   10.5809 C   0  0  0  0  0  0  0  0  0  0  0  0
   45.6859    6.1955   10.9297 C   0  0  0  0  0  0  0  0  0  0  0  0
   51.0750    8.5548   15.5332 C   0  0  0  0  0  0  0  0  0  0  0  0
   51.1675    8.5519   16.9298 C   0  0  0  0  0  0  0  0  0  0  0  0
   52.2164    7.8799   17.5503 C   0  0  0  0  0  0  0  0  0  0  0  0
   53.1830    7.2106   16.7993 C   0  0  0  0  0  0  0  0  0  0  0  0
   53.0951    7.2125   15.4072 C   0  0  0  0  0  0  0  0  0  0  0  0
   52.0463    7.8842   14.7772 C   0  0  0  0  0  0  0  0  0  0  0  0
   52.2753    7.8937   18.9146 O   0  0  0  0  0  0  0  0  0  0  0  0
   42.7366    4.5322   13.3245 O   0  0  0  0  0  0  0  0  0  0  0  0
   43.4115   14.8568    7.0531 O   0  0  0  0  0  0  0  0  0  0  0  0
   50.0829   18.8186   13.8369 O   0  0  0  0  0  0  0  0  0  0  0  0
   41.8799   13.2372   11.7838 H   0  0  0  0  0  0  0  0  0  0  0  0
   44.9573   13.7409    8.8354 H   0  0  0  0  0  0  0  0  0  0  0  0
   40.9380   15.0771    8.0182 H   0  0  0  0  0  0  0  0  0  0  0  0
   40.2295   14.2989   10.2606 H   0  0  0  0  0  0  0  0  0  0  0  0
   49.1294   16.4530   13.0430 H   0  0  0  0  0  0  0  0  0  0  0  0
   50.3311   18.8435   16.4164 H   0  0  0  0  0  0  0  0  0  0  0  0
   49.7705   16.9577   17.9426 H   0  0  0  0  0  0  0  0  0  0  0  0
   48.8958   14.8286   17.0107 H   0  0  0  0  0  0  0  0  0  0  0  0
   44.2413   10.4965    9.4533 H   0  0  0  0  0  0  0  0  0  0  0  0
   42.7524   10.8011   10.3833 H   0  0  0  0  0  0  0  0  0  0  0  0
   43.9755    8.3977   10.3741 H   0  0  0  0  0  0  0  0  0  0  0  0
   43.0876    9.0008   11.7956 H   0  0  0  0  0  0  0  0  0  0  0  0
   46.8720   12.2545   12.7297 H   0  0  0  0  0  0  0  0  0  0  0  0
   46.3115   16.2477   14.0423 H   0  0  0  0  0  0  0  0  0  0  0  0
   44.2763   15.5386   12.4117 H   0  0  0  0  0  0  0  0  0  0  0  0
   48.0203   11.2495   14.3403 H   0  0  0  0  0  0  0  0  0  0  0  0
   52.1659   11.3050   14.9950 H   0  0  0  0  0  0  0  0  0  0  0  0
   51.3283   13.8706   14.7193 H   0  0  0  0  0  0  0  0  0  0  0  0
   47.2160    5.9563   13.4975 H   0  0  0  0  0  0  0  0  0  0  0  0
   49.3792    6.5043   14.7655 H   0  0  0  0  0  0  0  0  0  0  0  0
   43.9152    6.8309   13.7657 H   0  0  0  0  0  0  0  0  0  0  0  0
   43.7192    3.4390   11.0996 H   0  0  0  0  0  0  0  0  0  0  0  0
   45.4868    4.4524    9.6912 H   0  0  0  0  0  0  0  0  0  0  0  0
   46.4661    6.6536   10.3239 H   0  0  0  0  0  0  0  0  0  0  0  0
   50.4143    9.0687   17.5176 H   0  0  0  0  0  0  0  0  0  0  0  0
   54.0025    6.6864   17.2775 H   0  0  0  0  0  0  0  0  0  0  0  0
   53.8332    6.6905   14.8069 H   0  0  0  0  0  0  0  0  0  0  0  0
   51.9632    7.8892   13.6914 H   0  0  0  0  0  0  0  0  0  0  0  0
   53.0223    7.3398   19.1849 H   0  0  0  0  0  0  0  0  0  0  0  0
   42.5132    3.6614   12.9676 H   0  0  0  0  0  0  0  0  0  0  0  0
   42.6248   14.9179    6.4891 H   0  0  0  0  0  0  0  0  0  0  0  0
   49.9138   18.5359   12.9221 H   0  0  0  0  0  0  0  0  0  0  0  0
 25 26  2  0
 26 27  1  0
 27 23  1  0
 28 29  1  0
  1  2  2  0
  3  4  2  0
  7  8  2  0
 14 15  1  0
 29 30  1  0
 30 31  2  0
 31 32  1  0
 32 28  2  0
 15 16  1  0
 29 33  2  0
 17 33  1  0
 16 17  1  0
 14 34  2  0
 22 34  1  0
 17 13  2  0
 27 35  2  0
 19 35  1  0
 18 19  1  0
 24 36  2  0
 32 36  1  0
  8  9  1  0
  4  5  1  0
 37 38  2  0
  9 10  2  0
 38 39  1  0
  2  3  1  0
 39 40  2  0
 10 11  1  0
 40 41  1  0
 19 20  2  0
 41 42  2  0
 42 37  1  0
 33 37  1  0
 20 21  1  0
 21 22  2  0
 43 44  2  0
 22 18  1  0
 44 45  1  0
 23 24  1  0
 45 46  2  0
  5  6  2  0
 46 47  1  0
 11 12  2  0
 47 48  2  0
 48 43  1  0
 36 43  1  0
 12  7  1  0
 45 49  1  0
 13 14  1  0
 39 50  1  0
 35 12  1  0
 34  2  1  0
  6  1  1  0
  4 51  1  0
 24 25  1  0
  8 52  1  0
  1 53  1  0
  3 54  1  0
  5 55  1  0
  6 56  1  0
  7 57  1  0
  9 58  1  0
 10 59  1  0
 11 60  1  0
 15 61  1  0
 15 62  1  0
 16 63  1  0
 16 64  1  0
 18 65  1  0
 20 66  1  0
 21 67  1  0
 23 68  1  0
 25 69  1  0
 26 70  1  0
 30 71  1  0
 31 72  1  0
 38 73  1  0
 40 74  1  0
 41 75  1  0
 42 76  1  0
 44 77  1  0
 46 78  1  0
 47 79  1  0
 48 80  1  0
 49 81  1  0
 50 82  1  0
 51 83  1  0
 52 84  1  0
M  END
> <Uni-Dock RESULT> 
ENERGY=   -5.795  LOWER_BOUND=    1.195  UPPER_BOUND=    8.152
INTER + INTRA:          -5.795
INTER:                  -5.795
INTRA:                   0.000
UNBOUND:                 0.000

$$$$

     RDKit          3D

 84 92  0  0  0  0  0  0  0  0999 V2000
   52.3343    8.5745   13.6415 C   0  0  0  0  0  0  0  0  0  0  0  0
   51.6121    8.7466   12.4528 C   0  0  0  0  0  0  0  0  0  0  0  0
   52.2124    8.4291   11.2306 C   0  0  0  0  0  0  0  0  0  0  0  0
   53.5242    7.9677   11.2076 C   0  0  0  0  0  0  0  0  0  0  0  0
   54.2475    7.7994   12.3886 C   0  0  0  0  0  0  0  0  0  0  0  0
   53.6472    8.1013   13.6100 C   0  0  0  0  0  0  0  0  0  0  0  0
   45.1952    5.0714   11.0343 C   0  0  0  0  0  0  0  0  0  0  0  0
   44.5851    3.8201   11.0131 C   0  0  0  0  0  0  0  0  0  0  0  0
   43.5391    3.5214   11.8784 C   0  0  0  0  0  0  0  0  0  0  0  0
   43.0930    4.4869   12.7810 C   0  0  0  0  0  0  0  0  0  0  0  0
   43.6987    5.7459   12.8110 C   0  0  0  0  0  0  0  0  0  0  0  0
   44.7567    6.0433   11.9428 C   0  0  0  0  0  0  0  0  0  0  0  0
   48.7879   11.2694   12.5218 N   0  0  0  0  0  0  0  0  0  0  0  0
   49.9815   10.6119   12.5100 C   0  0  0  0  0  0  0  0  0  0  0  0
   51.0959   11.6219   12.4752 C   0  0  0  0  0  0  0  0  0  0  0  0
   50.4176   12.8780   12.9549 C   0  0  0  0  0  0  0  0  0  0  0  0
   48.9464   12.6194   12.6775 C   0  0  0  0  0  0  0  0  0  0  0  0
   47.7329    8.6154   12.1619 N   0  0  0  0  0  0  0  0  0  0  0  0
   46.9295    7.5072   12.2793 C   0  0  0  0  0  0  0  0  0  0  0  0
   47.7129    6.4786   12.7787 C   0  0  0  0  0  0  0  0  0  0  0  0
   49.0365    6.9586   12.9107 C   0  0  0  0  0  0  0  0  0  0  0  0
   49.0203    8.2743   12.5134 C   0  0  0  0  0  0  0  0  0  0  0  0
   44.6936    9.9304   11.8751 N   0  0  0  0  0  0  0  0  0  0  0  0
   43.6618   10.6694   11.3418 C   0  0  0  0  0  0  0  0  0  0  0  0
   42.8651    9.8402   10.5901 C   0  0  0  0  0  0  0  0  0  0  0  0
   43.4155    8.5410   10.7000 C   0  0  0  0  0  0  0  0  0  0  0  0
   44.5265    8.6170   11.5243 C   0  0  0  0  0  0  0  0  0  0  0  0
   45.8902   12.5091   12.1096 N   0  0  0  0  0  0  0  0  0  0  0  0
   46.7100   13.5676   12.4074 C   0  0  0  0  0  0  0  0  0  0  0  0
   45.8359   14.7369   12.4179 C   0  0  0  0  0  0  0  0  0  0  0  0
   44.5977   14.3598   12.1155 C   0  0  0  0  0  0  0  0  0  0  0  0
   44.6085   12.9349   11.8934 C   0  0  0  0  0  0  0  0  0  0  0  0
   48.0570   13.6678   12.6541 C   0  0  0  0  0  0  0  0  0  0  0  0
   50.2357    9.2774   12.4969 C   0  0  0  0  0  0  0  0  0  0  0  0
   45.3923    7.3834   11.9626 C   0  0  0  0  0  0  0  0  0  0  0  0
   43.5021   12.2290   11.5405 C   0  0  0  0  0  0  0  0  0  0  0  0
   48.6152   15.0343   12.8942 C   0  0  0  0  0  0  0  0  0  0  0  0
   48.7519   15.5444   14.1940 C   0  0  0  0  0  0  0  0  0  0  0  0
   49.2741   16.8200   14.3828 C   0  0  0  0  0  0  0  0  0  0  0  0
   49.6675   17.6023   13.2951 C   0  0  0  0  0  0  0  0  0  0  0  0
   49.5337   17.1019   11.9992 C   0  0  0  0  0  0  0  0  0  0  0  0
   49.0084   15.8244   11.8007 C   0  0  0  0  0  0  0  0  0  0  0  0
   42.1749   12.8440   11.3301 C   0  0  0  0  0  0  0  0  0  0  0  0
   41.1620   12.6937   12.2841 C   0  0  0  0  0  0  0  0  0  0  0  0
   39.9138   13.2676   12.0615 C   0  0  0  0  0  0  0  0  0  0  0  0
   39.6541   13.9890   10.8960 C   0  0  0  0  0  0  0  0  0  0  0  0
   40.6606   14.1398    9.9420 C   0  0  0  0  0  0  0  0  0  0  0  0
   41.9151   13.5672   10.1577 C   0  0  0  0  0  0  0  0  0  0  0  0
   38.9488   13.1050   13.0140 O   0  0  0  0  0  0  0  0  0  0  0  0
   49.3883   17.2945   15.6600 O   0  0  0  0  0  0  0  0  0  0  0  0
   54.0936    7.6937    9.9971 O   0  0  0  0  0  0  0  0  0  0  0  0
   44.9961    2.8524   10.1406 O   0  0  0  0  0  0  0  0  0  0  0  0
   51.8612    8.8318   14.5873 H   0  0  0  0  0  0  0  0  0  0  0  0
   51.6552    8.5706   10.3087 H   0  0  0  0  0  0  0  0  0  0  0  0
   55.2675    7.4341   12.3746 H   0  0  0  0  0  0  0  0  0  0  0  0
   54.1956    7.9835   14.5392 H   0  0  0  0  0  0  0  0  0  0  0  0
   46.0112    5.3135   10.3586 H   0  0  0  0  0  0  0  0  0  0  0  0
   43.0715    2.5426   11.8482 H   0  0  0  0  0  0  0  0  0  0  0  0
   42.2739    4.2663   13.4582 H   0  0  0  0  0  0  0  0  0  0  0  0
   43.3466    6.5055   13.5076 H   0  0  0  0  0  0  0  0  0  0  0  0
   51.4602   11.7465   11.4469 H   0  0  0  0  0  0  0  0  0  0  0  0
   51.9465   11.3816   13.1217 H   0  0  0  0  0  0  0  0  0  0  0  0
   50.8372   13.7398   12.4280 H   0  0  0  0  0  0  0  0  0  0  0  0
   50.5796   13.0097   14.0322 H   0  0  0  0  0  0  0  0  0  0  0  0
   47.4840    9.5780   11.9294 H   0  0  0  0  0  0  0  0  0  0  0  0
   47.3741    5.4821   13.0223 H   0  0  0  0  0  0  0  0  0  0  0  0
   49.8986    6.4152   13.2675 H   0  0  0  0  0  0  0  0  0  0  0  0
   45.4624   10.3733   12.3805 H   0  0  0  0  0  0  0  0  0  0  0  0
   41.9965   10.1409   10.0243 H   0  0  0  0  0  0  0  0  0  0  0  0
   43.0319    7.6425   10.2375 H   0  0  0  0  0  0  0  0  0  0  0  0
   46.1310   15.7455   12.6411 H   0  0  0  0  0  0  0  0  0  0  0  0
   43.7435   15.0083   12.0545 H   0  0  0  0  0  0  0  0  0  0  0  0
   48.4413   14.9321   15.0356 H   0  0  0  0  0  0  0  0  0  0  0  0
   50.0752   18.5961   13.4363 H   0  0  0  0  0  0  0  0  0  0  0  0
   49.8308   17.6956   11.1418 H   0  0  0  0  0  0  0  0  0  0  0  0
   48.8909   15.4145   10.7989 H   0  0  0  0  0  0  0  0  0  0  0  0
   41.3621   12.1360   13.1946 H   0  0  0  0  0  0  0  0  0  0  0  0
   38.6835   14.4373   10.7172 H   0  0  0  0  0  0  0  0  0  0  0  0
   40.4794   14.7045    9.0332 H   0  0  0  0  0  0  0  0  0  0  0  0
   42.7110   13.6816    9.4234 H   0  0  0  0  0  0  0  0  0  0  0  0
   38.1691   13.6072   12.7351 H   0  0  0  0  0  0  0  0  0  0  0  0
   49.7125   18.2043   15.6061 H   0  0  0  0  0  0  0  0  0  0  0  0
   55.0555    7.7142   10.1196 H   0  0  0  0  0  0  0  0  0  0  0  0
   45.7125    3.2365    9.6071 H   0  0  0  0  0  0  0  0  0  0  0  0
 25 26  2  0
 26 27  1  0
 27 23  1  0
 28 29  1  0
  1  2  2  0
  3  4  2  0
  7  8  2  0
 14 15  1  0
 29 30  1  0
 30 31  2  0
 31 32  1  0
 32 28  2  0
 15 16  1  0
 29 33  2  0
 17 33  1  0
 16 17  1  0
 14 34  2  0
 22 34  1  0
 17 13  2  0
 27 35  2  0
 19 35  1  0
 18 19  1  0
 24 36  2  0
 32 36  1  0
  8  9  1  0
  4  5  1  0
 37 38  2  0
  9 10  2  0
 38 39  1  0
  2  3  1  0
 39 40  2  0
 10 11  1  0
 40 41  1  0
 19 20  2  0
 41 42  2  0
 42 37  1  0
 33 37  1  0
 20 21  1  0
 21 22  2  0
 43 44  2  0
 22 18  1  0
 44 45  1  0
 23 24  1  0
 45 46  2  0
  5  6  2  0
 46 47  1  0
 11 12  2  0
 47 48  2  0
 48 43  1  0
 36 43  1  0
 12  7  1  0
 45 49  1  0
 13 14  1  0
 39 50  1  0
 35 12  1  0
 34  2  1  0
  6  1  1  0
  4 51  1  0
 24 25  1  0
  8 52  1  0
  1 53  1  0
  3 54  1  0
  5 55  1  0
  6 56  1  0
  7 57  1  0
  9 58  1  0
 10 59  1  0
 11 60  1  0
 15 61  1  0
 15 62  1  0
 16 63  1  0
 16 64  1  0
 18 65  1  0
 20 66  1  0
 21 67  1  0
 23 68  1  0
 25 69  1  0
 26 70  1  0
 30 71  1  0
 31 72  1  0
 38 73  1  0
 40 74  1  0
 41 75  1  0
 42 76  1  0
 44 77  1  0
 46 78  1  0
 47 79  1  0
 48 80  1  0
 49 81  1  0
 50 82  1  0
 51 83  1  0
 52 84  1  0
M  END
> <Uni-Dock RESULT> 
ENERGY=   -5.780  LOWER_BOUND=    2.298  UPPER_BOUND=    8.139
INTER + INTRA:          -5.780
INTER:                  -5.780
INTRA:                   0.000
UNBOUND:                 0.000

$$$$

     RDKit          3D

 84 92  0  0  0  0  0  0  0  0999 V2000
   44.9829    6.0253   10.6101 C   0  0  0  0  0  0  0  0  0  0  0  0
   44.9794    6.5999   11.8884 C   0  0  0  0  0  0  0  0  0  0  0  0
   44.2017    6.0261   12.8987 C   0  0  0  0  0  0  0  0  0  0  0  0
   43.4254    4.9069   12.6178 C   0  0  0  0  0  0  0  0  0  0  0  0
   43.4231    4.3350   11.3453 C   0  0  0  0  0  0  0  0  0  0  0  0
   44.2084    4.8959   10.3394 C   0  0  0  0  0  0  0  0  0  0  0  0
   51.2037    7.2067   16.0820 C   0  0  0  0  0  0  0  0  0  0  0  0
   52.3007    6.5169   16.5909 C   0  0  0  0  0  0  0  0  0  0  0  0
   53.5933    6.8402   16.1952 C   0  0  0  0  0  0  0  0  0  0  0  0
   53.7964    7.8695   15.2759 C   0  0  0  0  0  0  0  0  0  0  0  0
   52.7024    8.5680   14.7584 C   0  0  0  0  0  0  0  0  0  0  0  0
   51.4000    8.2369   15.1533 C   0  0  0  0  0  0  0  0  0  0  0  0
   45.8775   10.2726   12.1112 N   0  0  0  0  0  0  0  0  0  0  0  0
   45.2960    9.0577   11.9037 C   0  0  0  0  0  0  0  0  0  0  0  0
   43.9147    9.2655   11.3453 C   0  0  0  0  0  0  0  0  0  0  0  0
   43.9806   10.6747   10.8185 C   0  0  0  0  0  0  0  0  0  0  0  0
   45.1282   11.2954   11.5969 C   0  0  0  0  0  0  0  0  0  0  0  0
   47.8975    8.6817   13.4051 N   0  0  0  0  0  0  0  0  0  0  0  0
   49.1239    8.2158   13.8132 C   0  0  0  0  0  0  0  0  0  0  0  0
   49.2467    6.9141   13.3531 C   0  0  0  0  0  0  0  0  0  0  0  0
   48.0415    6.5627   12.7019 C   0  0  0  0  0  0  0  0  0  0  0  0
   47.2258    7.6674   12.7590 C   0  0  0  0  0  0  0  0  0  0  0  0
   49.4369   11.4853   14.3100 N   0  0  0  0  0  0  0  0  0  0  0  0
   49.6385   12.6883   14.9482 C   0  0  0  0  0  0  0  0  0  0  0  0
   50.3752   12.4680   16.0866 C   0  0  0  0  0  0  0  0  0  0  0  0
   50.6610   11.0825   16.1221 C   0  0  0  0  0  0  0  0  0  0  0  0
   50.0972   10.5019   14.9975 C   0  0  0  0  0  0  0  0  0  0  0  0
   47.2975   12.9371   13.1048 N   0  0  0  0  0  0  0  0  0  0  0  0
   46.2475   13.3437   12.3217 C   0  0  0  0  0  0  0  0  0  0  0  0
   46.3228   14.8016   12.3082 C   0  0  0  0  0  0  0  0  0  0  0  0
   47.3430   15.1937   13.0647 C   0  0  0  0  0  0  0  0  0  0  0  0
   47.9749   14.0151   13.6047 C   0  0  0  0  0  0  0  0  0  0  0  0
   45.2636   12.6628   11.6481 C   0  0  0  0  0  0  0  0  0  0  0  0
   45.7779    7.8123   12.1537 C   0  0  0  0  0  0  0  0  0  0  0  0
   50.2377    8.9858   14.6165 C   0  0  0  0  0  0  0  0  0  0  0  0
   49.0423   14.0624   14.4444 C   0  0  0  0  0  0  0  0  0  0  0  0
   44.2336   13.4722   10.9269 C   0  0  0  0  0  0  0  0  0  0  0  0
   44.3801   13.7886    9.5679 C   0  0  0  0  0  0  0  0  0  0  0  0
   43.4037   14.5444    8.9267 C   0  0  0  0  0  0  0  0  0  0  0  0
   42.2755   14.9928    9.6166 C   0  0  0  0  0  0  0  0  0  0  0  0
   42.1235   14.6828   10.9688 C   0  0  0  0  0  0  0  0  0  0  0  0
   43.0993   13.9274   11.6203 C   0  0  0  0  0  0  0  0  0  0  0  0
   49.6601   15.3223   14.9082 C   0  0  0  0  0  0  0  0  0  0  0  0
   50.8867   15.7477   14.3852 C   0  0  0  0  0  0  0  0  0  0  0  0
   51.4602   16.9294   14.8451 C   0  0  0  0  0  0  0  0  0  0  0  0
   50.8318   17.6969   15.8261 C   0  0  0  0  0  0  0  0  0  0  0  0
   49.6100   17.2754   16.3510 C   0  0  0  0  0  0  0  0  0  0  0  0
   49.0282   16.0915   15.8951 C   0  0  0  0  0  0  0  0  0  0  0  0
   52.6558   17.3177   14.3114 O   0  0  0  0  0  0  0  0  0  0  0  0
   43.5767   14.8446    7.6040 O   0  0  0  0  0  0  0  0  0  0  0  0
   42.6538    4.3861   13.6168 O   0  0  0  0  0  0  0  0  0  0  0  0
   52.1373    5.5049   17.4942 O   0  0  0  0  0  0  0  0  0  0  0  0
   45.5853    6.4837    9.8281 H   0  0  0  0  0  0  0  0  0  0  0  0
   44.1927    6.4766   13.8873 H   0  0  0  0  0  0  0  0  0  0  0  0
   42.8243    3.4593   11.1248 H   0  0  0  0  0  0  0  0  0  0  0  0
   44.2149    4.4697    9.3412 H   0  0  0  0  0  0  0  0  0  0  0  0
   50.1903    6.9620   16.3891 H   0  0  0  0  0  0  0  0  0  0  0  0
   54.4387    6.2955   16.6029 H   0  0  0  0  0  0  0  0  0  0  0  0
   54.8018    8.1337   14.9632 H   0  0  0  0  0  0  0  0  0  0  0  0
   52.8577    9.3787   14.0479 H   0  0  0  0  0  0  0  0  0  0  0  0
   43.1679    9.1857   12.1464 H   0  0  0  0  0  0  0  0  0  0  0  0
   43.6414    8.5741   10.5412 H   0  0  0  0  0  0  0  0  0  0  0  0
   43.0124   11.1619   10.9657 H   0  0  0  0  0  0  0  0  0  0  0  0
   44.2134   10.6690    9.7461 H   0  0  0  0  0  0  0  0  0  0  0  0
   47.5049    9.6221   13.4678 H   0  0  0  0  0  0  0  0  0  0  0  0
   50.1104    6.2763   13.4729 H   0  0  0  0  0  0  0  0  0  0  0  0
   47.8004    5.6207   12.2327 H   0  0  0  0  0  0  0  0  0  0  0  0
   48.8217   11.4075   13.4987 H   0  0  0  0  0  0  0  0  0  0  0  0
   50.6630   13.2178   16.8078 H   0  0  0  0  0  0  0  0  0  0  0  0
   51.2311   10.5660   16.8815 H   0  0  0  0  0  0  0  0  0  0  0  0
   45.6700   15.4639   11.7702 H   0  0  0  0  0  0  0  0  0  0  0  0
   47.6408   16.2116   13.2346 H   0  0  0  0  0  0  0  0  0  0  0  0
   45.2612   13.4394    9.0377 H   0  0  0  0  0  0  0  0  0  0  0  0
   41.5119   15.5813    9.1222 H   0  0  0  0  0  0  0  0  0  0  0  0
   41.2558   15.0246   11.5222 H   0  0  0  0  0  0  0  0  0  0  0  0
   43.0043   13.6766   12.6756 H   0  0  0  0  0  0  0  0  0  0  0  0
   51.3767   15.1546   13.6184 H   0  0  0  0  0  0  0  0  0  0  0  0
   51.2746   18.6175   16.1885 H   0  0  0  0  0  0  0  0  0  0  0  0
   49.1026   17.8636   17.1087 H   0  0  0  0  0  0  0  0  0  0  0  0
   48.0724   15.7538   16.2928 H   0  0  0  0  0  0  0  0  0  0  0  0
   52.8857   18.1776   14.6930 H   0  0  0  0  0  0  0  0  0  0  0  0
   42.8431   15.4148    7.3351 H   0  0  0  0  0  0  0  0  0  0  0  0
   41.9561    3.8588   13.1973 H   0  0  0  0  0  0  0  0  0  0  0  0
   51.1835    5.4304   17.6681 H   0  0  0  0  0  0  0  0  0  0  0  0
 25 26  2  0
 26 27  1  0
 27 23  1  0
 28 29  1  0
  1  2  2  0
  3  4  2  0
  7  8  2  0
 14 15  1  0
 29 30  1  0
 30 31  2  0
 31 32  1  0
 32 28  2  0
 15 16  1  0
 29 33  2  0
 17 33  1  0
 16 17  1  0
 14 34  2  0
 22 34  1  0
 17 13  2  0
 27 35  2  0
 19 35  1  0
 18 19  1  0
 24 36  2  0
 32 36  1  0
  8  9  1  0
  4  5  1  0
 37 38  2  0
  9 10  2  0
 38 39  1  0
  2  3  1  0
 39 40  2  0
 10 11  1  0
 40 41  1  0
 19 20  2  0
 41 42  2  0
 42 37  1  0
 33 37  1  0
 20 21  1  0
 21 22  2  0
 43 44  2  0
 22 18  1  0
 44 45  1  0
 23 24  1  0
 45 46  2  0
  5  6  2  0
 46 47  1  0
 11 12  2  0
 47 48  2  0
 48 43  1  0
 36 43  1  0
 12  7  1  0
 45 49  1  0
 13 14  1  0
 39 50  1  0
 35 12  1  0
 34  2  1  0
  6  1  1  0
  4 51  1  0
 24 25  1  0
  8 52  1  0
  1 53  1  0
  3 54  1  0
  5 55  1  0
  6 56  1  0
  7 57  1  0
  9 58  1  0
 10 59  1  0
 11 60  1  0
 15 61  1  0
 15 62  1  0
 16 63  1  0
 16 64  1  0
 18 65  1  0
 20 66  1  0
 21 67  1  0
 23 68  1  0
 25 69  1  0
 26 70  1  0
 30 71  1  0
 31 72  1  0
 38 73  1  0
 40 74  1  0
 41 75  1  0
 42 76  1  0
 44 77  1  0
 46 78  1  0
 47 79  1  0
 48 80  1  0
 49 81  1  0
 50 82  1  0
 51 83  1  0
 52 84  1  0
M  END
> <Uni-Dock RESULT> 
ENERGY=   -5.780  LOWER_BOUND=    1.557  UPPER_BOUND=    8.193
INTER + INTRA:          -5.780
INTER:                  -5.780
INTRA:                   0.000
UNBOUND:                 0.000

$$$$

     RDKit          3D

 84 92  0  0  0  0  0  0  0  0999 V2000
   52.0435   13.8281   16.7908 C   0  0  0  0  0  0  0  0  0  0  0  0
   50.6706   13.5679   16.8980 C   0  0  0  0  0  0  0  0  0  0  0  0
   49.9027   14.2908   17.8159 C   0  0  0  0  0  0  0  0  0  0  0  0
   50.5136   15.2425   18.6255 C   0  0  0  0  0  0  0  0  0  0  0  0
   51.8808   15.5009   18.5245 C   0  0  0  0  0  0  0  0  0  0  0  0
   52.6468   14.7921   17.6003 C   0  0  0  0  0  0  0  0  0  0  0  0
   45.9030   14.4941   11.1440 C   0  0  0  0  0  0  0  0  0  0  0  0
   45.4762   15.3758   10.1547 C   0  0  0  0  0  0  0  0  0  0  0  0
   45.6630   15.0829    8.8088 C   0  0  0  0  0  0  0  0  0  0  0  0
   46.2861   13.8900    8.4422 C   0  0  0  0  0  0  0  0  0  0  0  0
   46.7188   12.9981    9.4271 C   0  0  0  0  0  0  0  0  0  0  0  0
   46.5356   13.2975   10.7831 C   0  0  0  0  0  0  0  0  0  0  0  0
   49.4924   10.1395   15.8012 N   0  0  0  0  0  0  0  0  0  0  0  0
   50.0374   11.2178   16.4314 C   0  0  0  0  0  0  0  0  0  0  0  0
   50.6535   10.7669   17.7277 C   0  0  0  0  0  0  0  0  0  0  0  0
   50.8187    9.2851   17.5163 C   0  0  0  0  0  0  0  0  0  0  0  0
   49.8127    8.9641   16.4241 C   0  0  0  0  0  0  0  0  0  0  0  0
   48.4387   12.1566   14.0385 N   0  0  0  0  0  0  0  0  0  0  0  0
   48.0438   12.8091   12.8958 C   0  0  0  0  0  0  0  0  0  0  0  0
   48.7894   13.9740   12.8053 C   0  0  0  0  0  0  0  0  0  0  0  0
   49.6133   14.0587   13.9516 C   0  0  0  0  0  0  0  0  0  0  0  0
   49.3678   12.9308   14.6978 C   0  0  0  0  0  0  0  0  0  0  0  0
   46.7511    9.7842   12.4346 N   0  0  0  0  0  0  0  0  0  0  0  0
   45.8273    8.7844   12.2290 C   0  0  0  0  0  0  0  0  0  0  0  0
   44.7125    9.3261   11.6364 C   0  0  0  0  0  0  0  0  0  0  0  0
   44.9843   10.7015   11.4437 C   0  0  0  0  0  0  0  0  0  0  0  0
   46.2620   10.9539   11.9164 C   0  0  0  0  0  0  0  0  0  0  0  0
   47.7633    7.9121   14.3340 N   0  0  0  0  0  0  0  0  0  0  0  0
   48.5186    7.2452   15.2645 C   0  0  0  0  0  0  0  0  0  0  0  0
   48.1752    5.8362   15.0970 C   0  0  0  0  0  0  0  0  0  0  0  0
   47.2568    5.7206   14.1430 C   0  0  0  0  0  0  0  0  0  0  0  0
   46.9597    7.0426   13.6491 C   0  0  0  0  0  0  0  0  0  0  0  0
   49.4228    7.6631   16.2096 C   0  0  0  0  0  0  0  0  0  0  0  0
   50.0504   12.5242   16.0588 C   0  0  0  0  0  0  0  0  0  0  0  0
   46.9810   12.3464   11.8304 C   0  0  0  0  0  0  0  0  0  0  0  0
   46.0392    7.2845   12.6791 C   0  0  0  0  0  0  0  0  0  0  0  0
   50.0200    6.6220   17.1018 C   0  0  0  0  0  0  0  0  0  0  0  0
   51.2442    6.0127   16.7880 C   0  0  0  0  0  0  0  0  0  0  0  0
   51.7719    5.0468   17.6390 C   0  0  0  0  0  0  0  0  0  0  0  0
   51.1007    4.6747   18.8055 C   0  0  0  0  0  0  0  0  0  0  0  0
   49.8820    5.2757   19.1237 C   0  0  0  0  0  0  0  0  0  0  0  0
   49.3442    6.2435   18.2743 C   0  0  0  0  0  0  0  0  0  0  0  0
   45.2323    6.2252   12.0379 C   0  0  0  0  0  0  0  0  0  0  0  0
   45.5237    5.7982   10.7373 C   0  0  0  0  0  0  0  0  0  0  0  0
   44.7434    4.8099   10.1445 C   0  0  0  0  0  0  0  0  0  0  0  0
   43.6686    4.2396   10.8271 C   0  0  0  0  0  0  0  0  0  0  0  0
   43.3741    4.6636   12.1230 C   0  0  0  0  0  0  0  0  0  0  0  0
   44.1518    5.6543   12.7245 C   0  0  0  0  0  0  0  0  0  0  0  0
   45.0569    4.4137    8.8758 O   0  0  0  0  0  0  0  0  0  0  0  0
   52.9625    4.4640   17.3039 O   0  0  0  0  0  0  0  0  0  0  0  0
   49.7434   15.9119   19.5329 O   0  0  0  0  0  0  0  0  0  0  0  0
   44.8609   16.5518   10.4790 O   0  0  0  0  0  0  0  0  0  0  0  0
   52.6343   13.2547   16.0788 H   0  0  0  0  0  0  0  0  0  0  0  0
   48.8400   14.0831   17.9048 H   0  0  0  0  0  0  0  0  0  0  0  0
   52.3587   16.2461   19.1493 H   0  0  0  0  0  0  0  0  0  0  0  0
   53.7131   14.9738   17.5114 H   0  0  0  0  0  0  0  0  0  0  0  0
   45.7574   14.7144   12.1982 H   0  0  0  0  0  0  0  0  0  0  0  0
   45.3224   15.7787    8.0489 H   0  0  0  0  0  0  0  0  0  0  0  0
   46.4331   13.6487    7.3941 H   0  0  0  0  0  0  0  0  0  0  0  0
   47.1969   12.0613    9.1445 H   0  0  0  0  0  0  0  0  0  0  0  0
   49.9666   10.9654   18.5611 H   0  0  0  0  0  0  0  0  0  0  0  0
   51.6214   11.2263   17.9541 H   0  0  0  0  0  0  0  0  0  0  0  0
   50.6481    8.7632   18.4623 H   0  0  0  0  0  0  0  0  0  0  0  0
   51.8353    9.0618   17.1684 H   0  0  0  0  0  0  0  0  0  0  0  0
   48.1884   11.2260   14.3759 H   0  0  0  0  0  0  0  0  0  0  0  0
   48.7478   14.6948   12.0016 H   0  0  0  0  0  0  0  0  0  0  0  0
   50.3148   14.8414   14.1986 H   0  0  0  0  0  0  0  0  0  0  0  0
   47.6101    9.6178   12.9610 H   0  0  0  0  0  0  0  0  0  0  0  0
   43.8094    8.7922   11.3828 H   0  0  0  0  0  0  0  0  0  0  0  0
   44.3221   11.4276   10.9936 H   0  0  0  0  0  0  0  0  0  0  0  0
   48.5959    5.0130   15.6441 H   0  0  0  0  0  0  0  0  0  0  0  0
   46.8212    4.7997   13.8023 H   0  0  0  0  0  0  0  0  0  0  0  0
   51.7598    6.3045   15.8777 H   0  0  0  0  0  0  0  0  0  0  0  0
   51.5072    3.9235   19.4721 H   0  0  0  0  0  0  0  0  0  0  0  0
   49.3445    4.9977   20.0236 H   0  0  0  0  0  0  0  0  0  0  0  0
   48.3932    6.7233   18.4997 H   0  0  0  0  0  0  0  0  0  0  0  0
   46.3623    6.2373   10.2045 H   0  0  0  0  0  0  0  0  0  0  0  0
   43.0571    3.4703   10.3697 H   0  0  0  0  0  0  0  0  0  0  0  0
   42.5470    4.2256   12.6723 H   0  0  0  0  0  0  0  0  0  0  0  0
   43.9357    5.9908   13.7374 H   0  0  0  0  0  0  0  0  0  0  0  0
   44.4608    3.6892    8.6355 H   0  0  0  0  0  0  0  0  0  0  0  0
   53.1527    3.7854   17.9665 H   0  0  0  0  0  0  0  0  0  0  0  0
   50.3391   16.2647   20.2122 H   0  0  0  0  0  0  0  0  0  0  0  0
   44.7978   16.5815   11.4489 H   0  0  0  0  0  0  0  0  0  0  0  0
 25 26  2  0
 26 27  1  0
 27 23  1  0
 28 29  1  0
  1  2  2  0
  3  4  2  0
  7  8  2  0
 14 15  1  0
 29 30  1  0
 30 31  2  0
 31 32  1  0
 32 28  2  0
 15 16  1  0
 29 33  2  0
 17 33  1  0
 16 17  1  0
 14 34  2  0
 22 34  1  0
 17 13  2  0
 27 35  2  0
 19 35  1  0
 18 19  1  0
 24 36  2  0
 32 36  1  0
  8  9  1  0
  4  5  1  0
 37 38  2  0
  9 10  2  0
 38 39  1  0
  2  3  1  0
 39 40  2  0
 10 11  1  0
 40 41  1  0
 19 20  2  0
 41 42  2  0
 42 37  1  0
 33 37  1  0
 20 21  1  0
 21 22  2  0
 43 44  2  0
 22 18  1  0
 44 45  1  0
 23 24  1  0
 45 46  2  0
  5  6  2  0
 46 47  1  0
 11 12  2  0
 47 48  2  0
 48 43  1  0
 36 43  1  0
 12  7  1  0
 45 49  1  0
 13 14  1  0
 39 50  1  0
 35 12  1  0
 34  2  1  0
  6  1  1  0
  4 51  1  0
 24 25  1  0
  8 52  1  0
  1 53  1  0
  3 54  1  0
  5 55  1  0
  6 56  1  0
  7 57  1  0
  9 58  1  0
 10 59  1  0
 11 60  1  0
 15 61  1  0
 15 62  1  0
 16 63  1  0
 16 64  1  0
 18 65  1  0
 20 66  1  0
 21 67  1  0
 23 68  1  0
 25 69  1  0
 26 70  1  0
 30 71  1  0
 31 72  1  0
 38 73  1  0
 40 74  1  0
 41 75  1  0
 42 76  1  0
 44 77  1  0
 46 78  1  0
 47 79  1  0
 48 80  1  0
 49 81  1  0
 50 82  1  0
 51 83  1  0
 52 84  1  0
M  END
> <Uni-Dock RESULT> 
ENERGY=   -5.579  LOWER_BOUND=    2.369  UPPER_BOUND=    6.795
INTER + INTRA:          -5.579
INTER:                  -5.579
INTRA:                   0.000
UNBOUND:                 0.000

$$$$

     RDKit          3D

 84 92  0  0  0  0  0  0  0  0999 V2000
   51.5002   15.1676   14.7377 C   0  0  0  0  0  0  0  0  0  0  0  0
   50.2029   14.7874   15.1071 C   0  0  0  0  0  0  0  0  0  0  0  0
   49.5146   15.5332   16.0689 C   0  0  0  0  0  0  0  0  0  0  0  0
   50.1330   16.6286   16.6622 C   0  0  0  0  0  0  0  0  0  0  0  0
   51.4259   17.0072   16.3000 C   0  0  0  0  0  0  0  0  0  0  0  0
   52.1096   16.2745   15.3310 C   0  0  0  0  0  0  0  0  0  0  0  0
   44.4903   14.5593   10.2070 C   0  0  0  0  0  0  0  0  0  0  0  0
   43.8085   15.2729    9.2250 C   0  0  0  0  0  0  0  0  0  0  0  0
   43.8077   14.8446    7.9026 C   0  0  0  0  0  0  0  0  0  0  0  0
   44.4985   13.6845    7.5525 C   0  0  0  0  0  0  0  0  0  0  0  0
   45.1865   12.9610    8.5302 C   0  0  0  0  0  0  0  0  0  0  0  0
   45.1918   13.3971    9.8611 C   0  0  0  0  0  0  0  0  0  0  0  0
   49.2722   11.1548   14.5748 N   0  0  0  0  0  0  0  0  0  0  0  0
   49.7821   12.3479   14.9914 C   0  0  0  0  0  0  0  0  0  0  0  0
   50.6487   12.1146   16.1988 C   0  0  0  0  0  0  0  0  0  0  0  0
   50.9499   10.6419   16.1089 C   0  0  0  0  0  0  0  0  0  0  0  0
   49.8247   10.0977   15.2452 C   0  0  0  0  0  0  0  0  0  0  0  0
   47.7178   12.8381   12.8323 N   0  0  0  0  0  0  0  0  0  0  0  0
   47.0693   13.3104   11.7171 C   0  0  0  0  0  0  0  0  0  0  0  0
   47.6487   14.5247   11.3840 C   0  0  0  0  0  0  0  0  0  0  0  0
   48.6318   14.8236   12.3557 C   0  0  0  0  0  0  0  0  0  0  0  0
   48.6443   13.7720   13.2405 C   0  0  0  0  0  0  0  0  0  0  0  0
   46.0822   10.1394   11.7878 N   0  0  0  0  0  0  0  0  0  0  0  0
   45.2609    9.0361   11.8454 C   0  0  0  0  0  0  0  0  0  0  0  0
   44.0091    9.3920   11.4053 C   0  0  0  0  0  0  0  0  0  0  0  0
   44.0830   10.7556   11.0338 C   0  0  0  0  0  0  0  0  0  0  0  0
   45.3820   11.1865   11.2499 C   0  0  0  0  0  0  0  0  0  0  0  0
   47.6011    8.6113   13.6573 N   0  0  0  0  0  0  0  0  0  0  0  0
   48.5702    8.1357   14.5033 C   0  0  0  0  0  0  0  0  0  0  0  0
   48.3715    6.6898   14.5376 C   0  0  0  0  0  0  0  0  0  0  0  0
   47.3306    6.3733   13.7740 C   0  0  0  0  0  0  0  0  0  0  0  0
   46.8046    7.5927   13.2115 C   0  0  0  0  0  0  0  0  0  0  0  0
   49.5604    8.7484   15.2309 C   0  0  0  0  0  0  0  0  0  0  0  0
   49.5814   13.5967   14.4954 C   0  0  0  0  0  0  0  0  0  0  0  0
   45.9094   12.6236   10.9036 C   0  0  0  0  0  0  0  0  0  0  0  0
   45.7171    7.6274   12.3973 C   0  0  0  0  0  0  0  0  0  0  0  0
   50.4120    7.8828   16.1038 C   0  0  0  0  0  0  0  0  0  0  0  0
   51.6320    7.3650   15.6434 C   0  0  0  0  0  0  0  0  0  0  0  0
   52.4001    6.5621   16.4807 C   0  0  0  0  0  0  0  0  0  0  0  0
   51.9752    6.2643   17.7770 C   0  0  0  0  0  0  0  0  0  0  0  0
   50.7623    6.7750   18.2415 C   0  0  0  0  0  0  0  0  0  0  0  0
   49.9844    7.5790   17.4074 C   0  0  0  0  0  0  0  0  0  0  0  0
   44.9467    6.4260   12.0137 C   0  0  0  0  0  0  0  0  0  0  0  0
   45.0714    5.8808   10.7306 C   0  0  0  0  0  0  0  0  0  0  0  0
   44.3265    4.7578   10.3828 C   0  0  0  0  0  0  0  0  0  0  0  0
   43.4509    4.1678   11.2947 C   0  0  0  0  0  0  0  0  0  0  0  0
   43.3227    4.7091   12.5739 C   0  0  0  0  0  0  0  0  0  0  0  0
   44.0662    5.8352   12.9305 C   0  0  0  0  0  0  0  0  0  0  0  0
   44.4743    4.2489    9.1242 O   0  0  0  0  0  0  0  0  0  0  0  0
   53.5806    6.0646   16.0027 O   0  0  0  0  0  0  0  0  0  0  0  0
   49.4470   17.3200   17.6193 O   0  0  0  0  0  0  0  0  0  0  0  0
   43.1204   16.4121    9.5340 O   0  0  0  0  0  0  0  0  0  0  0  0
   52.0308   14.5762   13.9938 H   0  0  0  0  0  0  0  0  0  0  0  0
   48.5121   15.2333   16.3611 H   0  0  0  0  0  0  0  0  0  0  0  0
   51.9081   17.8639   16.7558 H   0  0  0  0  0  0  0  0  0  0  0  0
   53.1187   16.5490   15.0406 H   0  0  0  0  0  0  0  0  0  0  0  0
   44.4928   14.8858   11.2435 H   0  0  0  0  0  0  0  0  0  0  0  0
   43.2692   15.4098    7.1488 H   0  0  0  0  0  0  0  0  0  0  0  0
   44.5009   13.3381    6.5238 H   0  0  0  0  0  0  0  0  0  0  0  0
   45.7189   12.0494    8.2623 H   0  0  0  0  0  0  0  0  0  0  0  0
   50.0876   12.3403   17.1153 H   0  0  0  0  0  0  0  0  0  0  0  0
   51.5800   12.6908   16.2072 H   0  0  0  0  0  0  0  0  0  0  0  0
   50.9972   10.2198   17.1169 H   0  0  0  0  0  0  0  0  0  0  0  0
   51.9157   10.4811   15.6132 H   0  0  0  0  0  0  0  0  0  0  0  0
   47.6363   11.9331   13.2981 H   0  0  0  0  0  0  0  0  0  0  0  0
   47.3931   15.1389   10.5328 H   0  0  0  0  0  0  0  0  0  0  0  0
   49.2675   15.6954   12.3986 H   0  0  0  0  0  0  0  0  0  0  0  0
   47.0287   10.1214   12.1706 H   0  0  0  0  0  0  0  0  0  0  0  0
   43.1456    8.7456   11.3664 H   0  0  0  0  0  0  0  0  0  0  0  0
   43.2762   11.3551   10.6365 H   0  0  0  0  0  0  0  0  0  0  0  0
   48.9689    5.9818   15.0816 H   0  0  0  0  0  0  0  0  0  0  0  0
   46.9564    5.3804   13.6065 H   0  0  0  0  0  0  0  0  0  0  0  0
   51.9555    7.5979   14.6332 H   0  0  0  0  0  0  0  0  0  0  0  0
   52.5695    5.6399   18.4334 H   0  0  0  0  0  0  0  0  0  0  0  0
   50.4141    6.5523   19.2441 H   0  0  0  0  0  0  0  0  0  0  0  0
   49.0329    7.9855   17.7464 H   0  0  0  0  0  0  0  0  0  0  0  0
   45.7552    6.3354   10.0196 H   0  0  0  0  0  0  0  0  0  0  0  0
   42.8677    3.2936   11.0286 H   0  0  0  0  0  0  0  0  0  0  0  0
   42.6527    4.2587   13.2991 H   0  0  0  0  0  0  0  0  0  0  0  0
   43.9792    6.2647   13.9274 H   0  0  0  0  0  0  0  0  0  0  0  0
   43.9362    3.4460    9.0637 H   0  0  0  0  0  0  0  0  0  0  0  0
   53.9539    5.4902   16.6857 H   0  0  0  0  0  0  0  0  0  0  0  0
   50.0995   17.8069   18.1466 H   0  0  0  0  0  0  0  0  0  0  0  0
   43.2123   16.5485   10.4923 H   0  0  0  0  0  0  0  0  0  0  0  0
 25 26  2  0
 26 27  1  0
 27 23  1  0
 28 29  1  0
  1  2  2  0
  3  4  2  0
  7  8  2  0
 14 15  1  0
 29 30  1  0
 30 31  2  0
 31 32  1  0
 32 28  2  0
 15 16  1  0
 29 33  2  0
 17 33  1  0
 16 17  1  0
 14 34  2  0
 22 34  1  0
 17 13  2  0
 27 35  2  0
 19 35  1  0
 18 19  1  0
 24 36  2  0
 32 36  1  0
  8  9  1  0
  4  5  1  0
 37 38  2  0
  9 10  2  0
 38 39  1  0
  2  3  1  0
 39 40  2  0
 10 11  1  0
 40 41  1  0
 19 20  2  0
 41 42  2  0
 42 37  1  0
 33 37  1  0
 20 21  1  0
 21 22  2  0
 43 44  2  0
 22 18  1  0
 44 45  1  0
 23 24  1  0
 45 46  2  0
  5  6  2  0
 46 47  1  0
 11 12  2  0
 47 48  2  0
 48 43  1  0
 36 43  1  0
 12  7  1  0
 45 49  1  0
 13 14  1  0
 39 50  1  0
 35 12  1  0
 34  2  1  0
  6  1  1  0
  4 51  1  0
 24 25  1  0
  8 52  1  0
  1 53  1  0
  3 54  1  0
  5 55  1  0
  6 56  1  0
  7 57  1  0
  9 58  1  0
 10 59  1  0
 11 60  1  0
 15 61  1  0
 15 62  1  0
 16 63  1  0
 16 64  1  0
 18 65  1  0
 20 66  1  0
 21 67  1  0
 23 68  1  0
 25 69  1  0
 26 70  1  0
 30 71  1  0
 31 72  1  0
 38 73  1  0
 40 74  1  0
 41 75  1  0
 42 76  1  0
 44 77  1  0
 46 78  1  0
 47 79  1  0
 48 80  1  0
 49 81  1  0
 50 82  1  0
 51 83  1  0
 52 84  1  0
M  END
> <Uni-Dock RESULT> 
ENERGY=   -5.573  LOWER_BOUND=    1.714  UPPER_BOUND=    7.224
INTER + INTRA:          -5.573
INTER:                  -5.573
INTRA:                   0.000
UNBOUND:                 0.000

$$$$

     RDKit          3D

 84 92  0  0  0  0  0  0  0  0999 V2000
   50.4420   15.7311   13.2977 C   0  0  0  0  0  0  0  0  0  0  0  0
   49.2298   15.2601   13.8201 C   0  0  0  0  0  0  0  0  0  0  0  0
   48.5596   16.0122   14.7897 C   0  0  0  0  0  0  0  0  0  0  0  0
   49.1140   17.2059   15.2391 C   0  0  0  0  0  0  0  0  0  0  0  0
   50.3226   17.6755   14.7245 C   0  0  0  0  0  0  0  0  0  0  0  0
   50.9863   16.9354   13.7472 C   0  0  0  0  0  0  0  0  0  0  0  0
   43.1462   14.0932    9.5393 C   0  0  0  0  0  0  0  0  0  0  0  0
   42.3078   14.6568    8.5813 C   0  0  0  0  0  0  0  0  0  0  0  0
   42.2299   14.1249    7.2995 C   0  0  0  0  0  0  0  0  0  0  0  0
   43.0011   13.0114    6.9663 C   0  0  0  0  0  0  0  0  0  0  0  0
   43.8463   12.4382    7.9200 C   0  0  0  0  0  0  0  0  0  0  0  0
   43.9286   12.9790    9.2094 C   0  0  0  0  0  0  0  0  0  0  0  0
   48.6320   11.5242   13.6432 N   0  0  0  0  0  0  0  0  0  0  0  0
   49.0528   12.7903   13.9211 C   0  0  0  0  0  0  0  0  0  0  0  0
   50.0456   12.7390   15.0501 C   0  0  0  0  0  0  0  0  0  0  0  0
   50.4869   11.2993   15.0361 C   0  0  0  0  0  0  0  0  0  0  0  0
   49.3491   10.5823   14.3292 C   0  0  0  0  0  0  0  0  0  0  0  0
   46.7601   12.9053   11.9478 N   0  0  0  0  0  0  0  0  0  0  0  0
   45.9671   13.2219   10.8715 C   0  0  0  0  0  0  0  0  0  0  0  0
   46.3859   14.4550   10.3968 C   0  0  0  0  0  0  0  0  0  0  0  0
   47.4180   14.9239   11.2424 C   0  0  0  0  0  0  0  0  0  0  0  0
   47.6193   13.9532   12.1944 C   0  0  0  0  0  0  0  0  0  0  0  0
   45.3213    9.9875   11.2658 N   0  0  0  0  0  0  0  0  0  0  0  0
   44.6263    8.8192   11.4831 C   0  0  0  0  0  0  0  0  0  0  0  0
   43.3095    9.0174   11.1450 C   0  0  0  0  0  0  0  0  0  0  0  0
   43.2089   10.3473   10.6716 C   0  0  0  0  0  0  0  0  0  0  0  0
   44.4711   10.9161   10.7266 C   0  0  0  0  0  0  0  0  0  0  0  0
   47.1538    8.7673   13.0797 N   0  0  0  0  0  0  0  0  0  0  0  0
   48.2399    8.4561   13.8572 C   0  0  0  0  0  0  0  0  0  0  0  0
   48.1947    7.0053   14.0141 C   0  0  0  0  0  0  0  0  0  0  0  0
   47.1261    6.5304   13.3820 C   0  0  0  0  0  0  0  0  0  0  0  0
   46.4285    7.6446   12.7889 C   0  0  0  0  0  0  0  0  0  0  0  0
   49.2244    9.2172   14.4375 C   0  0  0  0  0  0  0  0  0  0  0  0
   48.6804   13.9700   13.3596 C   0  0  0  0  0  0  0  0  0  0  0  0
   44.8143   12.3642   10.2281 C   0  0  0  0  0  0  0  0  0  0  0  0
   45.2733    7.5096   12.0861 C   0  0  0  0  0  0  0  0  0  0  0  0
   50.2367    8.5101   15.2812 C   0  0  0  0  0  0  0  0  0  0  0  0
   51.4561    8.0755   14.7403 C   0  0  0  0  0  0  0  0  0  0  0  0
   52.3760    7.4197   15.5524 C   0  0  0  0  0  0  0  0  0  0  0  0
   52.1044    7.1886   16.9024 C   0  0  0  0  0  0  0  0  0  0  0  0
   50.8931    7.6172   17.4472 C   0  0  0  0  0  0  0  0  0  0  0  0
   49.9637    8.2734   16.6391 C   0  0  0  0  0  0  0  0  0  0  0  0
   44.5983    6.2131   11.8674 C   0  0  0  0  0  0  0  0  0  0  0  0
   44.6603    5.5804   10.6206 C   0  0  0  0  0  0  0  0  0  0  0  0
   44.0059    4.3671   10.4293 C   0  0  0  0  0  0  0  0  0  0  0  0
   43.2826    3.7719   11.4632 C   0  0  0  0  0  0  0  0  0  0  0  0
   43.2172    4.4002   12.7069 C   0  0  0  0  0  0  0  0  0  0  0  0
   43.8708    5.6172   12.9069 C   0  0  0  0  0  0  0  0  0  0  0  0
   44.0893    3.7746    9.2017 O   0  0  0  0  0  0  0  0  0  0  0  0
   53.5526    7.0000   14.9965 O   0  0  0  0  0  0  0  0  0  0  0  0
   48.4513   17.9039   16.2077 O   0  0  0  0  0  0  0  0  0  0  0  0
   41.5377   15.7464    8.8749 O   0  0  0  0  0  0  0  0  0  0  0  0
   50.9601   15.1348   12.5490 H   0  0  0  0  0  0  0  0  0  0  0  0
   47.6242   15.6427   15.2005 H   0  0  0  0  0  0  0  0  0  0  0  0
   50.7541   18.6082   15.0678 H   0  0  0  0  0  0  0  0  0  0  0  0
   51.9310   17.2805   13.3394 H   0  0  0  0  0  0  0  0  0  0  0  0
   43.2101   14.5012   10.5445 H   0  0  0  0  0  0  0  0  0  0  0  0
   41.5695   14.5734    6.5643 H   0  0  0  0  0  0  0  0  0  0  0  0
   42.9448   12.5848    5.9697 H   0  0  0  0  0  0  0  0  0  0  0  0
   44.4427   11.5628    7.6664 H   0  0  0  0  0  0  0  0  0  0  0  0
   49.5506   12.9835   15.9992 H   0  0  0  0  0  0  0  0  0  0  0  0
   50.9097   13.4001   14.9250 H   0  0  0  0  0  0  0  0  0  0  0  0
   50.6693   10.9665   16.0619 H   0  0  0  0  0  0  0  0  0  0  0  0
   51.4146   11.1917   14.4598 H   0  0  0  0  0  0  0  0  0  0  0  0
   46.8149   12.0373   12.4827 H   0  0  0  0  0  0  0  0  0  0  0  0
   45.9918   14.9713    9.5335 H   0  0  0  0  0  0  0  0  0  0  0  0
   47.9621   15.8528   11.1598 H   0  0  0  0  0  0  0  0  0  0  0  0
   46.2957   10.0907   11.5532 H   0  0  0  0  0  0  0  0  0  0  0  0
   42.5171    8.2905   11.2381 H   0  0  0  0  0  0  0  0  0  0  0  0
   42.3118   10.8331   10.3145 H   0  0  0  0  0  0  0  0  0  0  0  0
   48.9088    6.4038   14.5453 H   0  0  0  0  0  0  0  0  0  0  0  0
   46.8421    5.4961   13.3237 H   0  0  0  0  0  0  0  0  0  0  0  0
   51.6601    8.2557   13.6889 H   0  0  0  0  0  0  0  0  0  0  0  0
   52.8172    6.6788   17.5395 H   0  0  0  0  0  0  0  0  0  0  0  0
   50.6628    7.4441   18.4927 H   0  0  0  0  0  0  0  0  0  0  0  0
   49.0106    8.6133   17.0409 H   0  0  0  0  0  0  0  0  0  0  0  0
   45.2259    6.0391    9.8146 H   0  0  0  0  0  0  0  0  0  0  0  0
   42.7703    2.8276   11.3194 H   0  0  0  0  0  0  0  0  0  0  0  0
   42.6662    3.9482   13.5253 H   0  0  0  0  0  0  0  0  0  0  0  0
   43.8318    6.1156   13.8742 H   0  0  0  0  0  0  0  0  0  0  0  0
   43.6332    2.9218    9.2524 H   0  0  0  0  0  0  0  0  0  0  0  0
   54.0437    6.5209   15.6783 H   0  0  0  0  0  0  0  0  0  0  0  0
   49.0958   18.4918   16.6316 H   0  0  0  0  0  0  0  0  0  0  0  0
   41.7024   15.9680    9.8072 H   0  0  0  0  0  0  0  0  0  0  0  0
 25 26  2  0
 26 27  1  0
 27 23  1  0
 28 29  1  0
  1  2  2  0
  3  4  2  0
  7  8  2  0
 14 15  1  0
 29 30  1  0
 30 31  2  0
 31 32  1  0
 32 28  2  0
 15 16  1  0
 29 33  2  0
 17 33  1  0
 16 17  1  0
 14 34  2  0
 22 34  1  0
 17 13  2  0
 27 35  2  0
 19 35  1  0
 18 19  1  0
 24 36  2  0
 32 36  1  0
  8  9  1  0
  4  5  1  0
 37 38  2  0
  9 10  2  0
 38 39  1  0
  2  3  1  0
 39 40  2  0
 10 11  1  0
 40 41  1  0
 19 20  2  0
 41 42  2  0
 42 37  1  0
 33 37  1  0
 20 21  1  0
 21 22  2  0
 43 44  2  0
 22 18  1  0
 44 45  1  0
 23 24  1  0
 45 46  2  0
  5  6  2  0
 46 47  1  0
 11 12  2  0
 47 48  2  0
 48 43  1  0
 36 43  1  0
 12  7  1  0
 45 49  1  0
 13 14  1  0
 39 50  1  0
 35 12  1  0
 34  2  1  0
  6  1  1  0
  4 51  1  0
 24 25  1  0
  8 52  1  0
  1 53  1  0
  3 54  1  0
  5 55  1  0
  6 56  1  0
  7 57  1  0
  9 58  1  0
 10 59  1  0
 11 60  1  0
 15 61  1  0
 15 62  1  0
 16 63  1  0
 16 64  1  0
 18 65  1  0
 20 66  1  0
 21 67  1  0
 23 68  1  0
 25 69  1  0
 26 70  1  0
 30 71  1  0
 31 72  1  0
 38 73  1  0
 40 74  1  0
 41 75  1  0
 42 76  1  0
 44 77  1  0
 46 78  1  0
 47 79  1  0
 48 80  1  0
 49 81  1  0
 50 82  1  0
 51 83  1  0
 52 84  1  0
M  END
> <Uni-Dock RESULT> 
ENERGY=   -5.392  LOWER_BOUND=    1.329  UPPER_BOUND=    7.686
INTER + INTRA:          -5.392
INTER:                  -5.392
INTRA:                   0.000
UNBOUND:                 0.000

$$$$
