
     RDKit          3D

 84 92  0  0  0  0  0  0  0  0999 V2000
   50.4521   15.8697   13.4274 C   0  0  0  0  0  0  0  0  0  0  0  0
   49.4496   15.2718   14.2003 C   0  0  0  0  0  0  0  0  0  0  0  0
   49.0300   15.8885   15.3857 C   0  0  0  0  0  0  0  0  0  0  0  0
   49.6162   17.0856   15.7855 C   0  0  0  0  0  0  0  0  0  0  0  0
   50.6184   17.6796   15.0243 C   0  0  0  0  0  0  0  0  0  0  0  0
   51.0368   17.0711   13.8395 C   0  0  0  0  0  0  0  0  0  0  0  0
   50.3041    7.8930   17.2560 C   0  0  0  0  0  0  0  0  0  0  0  0
   50.4843    7.6276   18.6093 C   0  0  0  0  0  0  0  0  0  0  0  0
   49.7024    8.2628   19.5710 C   0  0  0  0  0  0  0  0  0  0  0  0
   48.7233    9.1740   19.1682 C   0  0  0  0  0  0  0  0  0  0  0  0
   48.5367    9.4481   17.8105 C   0  0  0  0  0  0  0  0  0  0  0  0
   49.3248    8.8072   16.8469 C   0  0  0  0  0  0  0  0  0  0  0  0
   46.8991   12.8482   12.7844 N   0  0  0  0  0  0  0  0  0  0  0  0
   47.6369   13.9381   13.1426 C   0  0  0  0  0  0  0  0  0  0  0  0
   46.9023   15.1863   12.7434 C   0  0  0  0  0  0  0  0  0  0  0  0
   45.8670   14.6798   11.7728 C   0  0  0  0  0  0  0  0  0  0  0  0
   45.8160   13.1797   12.0202 C   0  0  0  0  0  0  0  0  0  0  0  0
   48.7837   11.4782   14.3658 N   0  0  0  0  0  0  0  0  0  0  0  0
   49.5940   10.5158   14.9008 C   0  0  0  0  0  0  0  0  0  0  0  0
   50.8728   11.0297   14.9807 C   0  0  0  0  0  0  0  0  0  0  0  0
   50.8149   12.3848   14.5551 C   0  0  0  0  0  0  0  0  0  0  0  0
   49.4999   12.6417   14.2378 C   0  0  0  0  0  0  0  0  0  0  0  0
   47.2713    8.6051   13.6766 N   0  0  0  0  0  0  0  0  0  0  0  0
   46.6378    7.5029   13.1588 C   0  0  0  0  0  0  0  0  0  0  0  0
   47.2737    6.3753   13.6299 C   0  0  0  0  0  0  0  0  0  0  0  0
   48.3173    6.8183   14.4819 C   0  0  0  0  0  0  0  0  0  0  0  0
   48.2648    8.1955   14.5235 C   0  0  0  0  0  0  0  0  0  0  0  0
   45.4187   10.0794   12.1619 N   0  0  0  0  0  0  0  0  0  0  0  0
   44.6951   11.0576   11.5243 C   0  0  0  0  0  0  0  0  0  0  0  0
   43.6420   10.3422   10.8047 C   0  0  0  0  0  0  0  0  0  0  0  0
   43.7930    9.0356   10.9882 C   0  0  0  0  0  0  0  0  0  0  0  0
   44.9322    8.8344   11.8519 C   0  0  0  0  0  0  0  0  0  0  0  0
   44.8206   12.4242   11.4446 C   0  0  0  0  0  0  0  0  0  0  0  0
   48.8347   13.9959   13.7869 C   0  0  0  0  0  0  0  0  0  0  0  0
   49.1438    9.1182   15.4187 C   0  0  0  0  0  0  0  0  0  0  0  0
   45.3713    7.5997   12.2174 C   0  0  0  0  0  0  0  0  0  0  0  0
   43.7998   13.1643   10.6397 C   0  0  0  0  0  0  0  0  0  0  0  0
   44.0045   13.4327    9.2766 C   0  0  0  0  0  0  0  0  0  0  0  0
   43.0466   14.1429    8.5602 C   0  0  0  0  0  0  0  0  0  0  0  0
   41.8743   14.5833    9.1763 C   0  0  0  0  0  0  0  0  0  0  0  0
   41.6587   14.3117   10.5273 C   0  0  0  0  0  0  0  0  0  0  0  0
   42.6176   13.6061   11.2556 C   0  0  0  0  0  0  0  0  0  0  0  0
   44.7577    6.3518   11.7205 C   0  0  0  0  0  0  0  0  0  0  0  0
   45.2552    5.7570   10.5522 C   0  0  0  0  0  0  0  0  0  0  0  0
   44.6822    4.5792   10.0813 C   0  0  0  0  0  0  0  0  0  0  0  0
   43.6236    3.9772   10.7566 C   0  0  0  0  0  0  0  0  0  0  0  0
   43.1199    4.5708   11.9153 C   0  0  0  0  0  0  0  0  0  0  0  0
   43.6847    5.7559   12.3969 C   0  0  0  0  0  0  0  0  0  0  0  0
   45.1377    3.9853    8.9360 O   0  0  0  0  0  0  0  0  0  0  0  0
   43.2828   14.4009    7.2384 O   0  0  0  0  0  0  0  0  0  0  0  0
   49.2197   17.7101   16.9337 O   0  0  0  0  0  0  0  0  0  0  0  0
   51.4521    6.7279   18.9632 O   0  0  0  0  0  0  0  0  0  0  0  0
   50.7674   15.3865   12.5040 H   0  0  0  0  0  0  0  0  0  0  0  0
   48.2470   15.4102   15.9663 H   0  0  0  0  0  0  0  0  0  0  0  0
   51.0576   18.6188   15.3476 H   0  0  0  0  0  0  0  0  0  0  0  0
   51.8100   17.5294   13.2320 H   0  0  0  0  0  0  0  0  0  0  0  0
   50.9254    7.3982   16.5166 H   0  0  0  0  0  0  0  0  0  0  0  0
   49.8333    8.0628   20.6297 H   0  0  0  0  0  0  0  0  0  0  0  0
   48.1011    9.6738   19.9071 H   0  0  0  0  0  0  0  0  0  0  0  0
   47.7806   10.1677   17.4962 H   0  0  0  0  0  0  0  0  0  0  0  0
   47.5391   15.9365   12.2648 H   0  0  0  0  0  0  0  0  0  0  0  0
   46.4167   15.6460   13.6125 H   0  0  0  0  0  0  0  0  0  0  0  0
   46.1904   14.8820   10.7445 H   0  0  0  0  0  0  0  0  0  0  0  0
   44.9186   15.1930   11.9531 H   0  0  0  0  0  0  0  0  0  0  0  0
   47.8037   11.4251   14.0808 H   0  0  0  0  0  0  0  0  0  0  0  0
   51.7405   10.5009   15.3455 H   0  0  0  0  0  0  0  0  0  0  0  0
   51.6269   13.0953   14.5121 H   0  0  0  0  0  0  0  0  0  0  0  0
   46.9636    9.5508   13.4441 H   0  0  0  0  0  0  0  0  0  0  0  0
   47.0045    5.3549   13.3968 H   0  0  0  0  0  0  0  0  0  0  0  0
   48.9985    6.1941   15.0385 H   0  0  0  0  0  0  0  0  0  0  0  0
   42.8842   10.7897   10.1828 H   0  0  0  0  0  0  0  0  0  0  0  0
   43.1797    8.2679   10.5497 H   0  0  0  0  0  0  0  0  0  0  0  0
   44.9216   13.0866    8.8053 H   0  0  0  0  0  0  0  0  0  0  0  0
   41.1232   15.1311    8.6204 H   0  0  0  0  0  0  0  0  0  0  0  0
   40.7532   14.6472   11.0212 H   0  0  0  0  0  0  0  0  0  0  0  0
   42.4711   13.3845   12.3110 H   0  0  0  0  0  0  0  0  0  0  0  0
   46.0811    6.2397   10.0356 H   0  0  0  0  0  0  0  0  0  0  0  0
   43.1875    3.0592   10.3746 H   0  0  0  0  0  0  0  0  0  0  0  0
   42.2814    4.1226   12.4382 H   0  0  0  0  0  0  0  0  0  0  0  0
   43.2909    6.2329   13.2948 H   0  0  0  0  0  0  0  0  0  0  0  0
   45.8146    4.5817    8.5726 H   0  0  0  0  0  0  0  0  0  0  0  0
   42.5661   14.9647    6.9188 H   0  0  0  0  0  0  0  0  0  0  0  0
   48.4750   17.1933   17.2875 H   0  0  0  0  0  0  0  0  0  0  0  0
   51.4553    6.6559   19.9328 H   0  0  0  0  0  0  0  0  0  0  0  0
 25 26  2  0
 26 27  1  0
 27 23  1  0
 28 29  1  0
  1  2  2  0
  3  4  2  0
  7  8  2  0
 14 15  1  0
 29 30  1  0
 30 31  2  0
 31 32  1  0
 32 28  2  0
 15 16  1  0
 29 33  2  0
 17 33  1  0
 16 17  1  0
 14 34  2  0
 22 34  1  0
 17 13  2  0
 27 35  2  0
 19 35  1  0
 18 19  1  0
 24 36  2  0
 32 36  1  0
  8  9  1  0
  4  5  1  0
 37 38  2  0
  9 10  2  0
 38 39  1  0
  2  3  1  0
 39 40  2  0
 10 11  1  0
 40 41  1  0
 19 20  2  0
 41 42  2  0
 42 37  1  0
 33 37  1  0
 20 21  1  0
 21 22  2  0
 43 44  2  0
 22 18  1  0
 44 45  1  0
 23 24  1  0
 45 46  2  0
  5  6  2  0
 46 47  1  0
 11 12  2  0
 47 48  2  0
 48 43  1  0
 36 43  1  0
 12  7  1  0
 45 49  1  0
 13 14  1  0
 39 50  1  0
 35 12  1  0
 34  2  1  0
  6  1  1  0
  4 51  1  0
 24 25  1  0
  8 52  1  0
  1 53  1  0
  3 54  1  0
  5 55  1  0
  6 56  1  0
  7 57  1  0
  9 58  1  0
 10 59  1  0
 11 60  1  0
 15 61  1  0
 15 62  1  0
 16 63  1  0
 16 64  1  0
 18 65  1  0
 20 66  1  0
 21 67  1  0
 23 68  1  0
 25 69  1  0
 26 70  1  0
 30 71  1  0
 31 72  1  0
 38 73  1  0
 40 74  1  0
 41 75  1  0
 42 76  1  0
 44 77  1  0
 46 78  1  0
 47 79  1  0
 48 80  1  0
 49 81  1  0
 50 82  1  0
 51 83  1  0
 52 84  1  0
M  END
> <Uni-Dock RESULT> 
ENERGY=   -6.068  LOWER_BOUND=    0.000  UPPER_BOUND=    0.000
INTER + INTRA:          -6.068
INTER:                  -6.068
INTRA:                   0.000
UNBOUND:                 0.000

$$$$

     RDKit          3D

 84 92  0  0  0  0  0  0  0  0999 V2000
   50.7279   15.6773   13.8380 C   0  0  0  0  0  0  0  0  0  0  0  0
   49.6809   15.0913   14.5593 C   0  0  0  0  0  0  0  0  0  0  0  0
   49.2360   15.6919   15.7438 C   0  0  0  0  0  0  0  0  0  0  0  0
   49.8414   16.8612   16.1938 C   0  0  0  0  0  0  0  0  0  0  0  0
   50.8875   17.4432   15.4841 C   0  0  0  0  0  0  0  0  0  0  0  0
   51.3314   16.8508   14.3005 C   0  0  0  0  0  0  0  0  0  0  0  0
   50.2103    7.6200   17.4602 C   0  0  0  0  0  0  0  0  0  0  0  0
   50.3331    7.3174   18.8121 C   0  0  0  0  0  0  0  0  0  0  0  0
   49.5350    7.9525   19.7604 C   0  0  0  0  0  0  0  0  0  0  0  0
   48.5979    8.9016   19.3454 C   0  0  0  0  0  0  0  0  0  0  0  0
   48.4692    9.2132   17.9890 C   0  0  0  0  0  0  0  0  0  0  0  0
   49.2734    8.5723   17.0389 C   0  0  0  0  0  0  0  0  0  0  0  0
   47.1154   12.7785   12.9930 N   0  0  0  0  0  0  0  0  0  0  0  0
   47.8706   13.8372   13.4044 C   0  0  0  0  0  0  0  0  0  0  0  0
   47.1873   15.1158   13.0101 C   0  0  0  0  0  0  0  0  0  0  0  0
   46.1742   14.6633   11.9906 C   0  0  0  0  0  0  0  0  0  0  0  0
   46.0711   13.1600   12.1988 C   0  0  0  0  0  0  0  0  0  0  0  0
   48.9006   11.3161   14.6068 N   0  0  0  0  0  0  0  0  0  0  0  0
   49.6628   10.3178   15.1465 C   0  0  0  0  0  0  0  0  0  0  0  0
   50.9520   10.7915   15.2851 C   0  0  0  0  0  0  0  0  0  0  0  0
   50.9487   12.1574   14.8914 C   0  0  0  0  0  0  0  0  0  0  0  0
   49.6542   12.4606   14.5335 C   0  0  0  0  0  0  0  0  0  0  0  0
   47.3325    8.5063   13.7927 N   0  0  0  0  0  0  0  0  0  0  0  0
   46.6870    7.4359   13.2254 C   0  0  0  0  0  0  0  0  0  0  0  0
   47.2725    6.2791   13.6909 C   0  0  0  0  0  0  0  0  0  0  0  0
   48.2964    6.6707   14.5906 C   0  0  0  0  0  0  0  0  0  0  0  0
   48.2821    8.0474   14.6644 C   0  0  0  0  0  0  0  0  0  0  0  0
   45.5799   10.0703   12.2493 N   0  0  0  0  0  0  0  0  0  0  0  0
   44.9086   11.0844   11.6106 C   0  0  0  0  0  0  0  0  0  0  0  0
   43.8624   10.4177   10.8361 C   0  0  0  0  0  0  0  0  0  0  0  0
   43.9690    9.1032   10.9924 C   0  0  0  0  0  0  0  0  0  0  0  0
   45.0694    8.8480   11.8913 C   0  0  0  0  0  0  0  0  0  0  0  0
   45.0762   12.4481   11.5692 C   0  0  0  0  0  0  0  0  0  0  0  0
   49.0452   13.8443   14.0926 C   0  0  0  0  0  0  0  0  0  0  0  0
   49.1539    8.9222   15.6132 C   0  0  0  0  0  0  0  0  0  0  0  0
   45.4592    7.5924   12.2416 C   0  0  0  0  0  0  0  0  0  0  0  0
   44.1072   13.2370   10.7467 C   0  0  0  0  0  0  0  0  0  0  0  0
   44.3694   13.5314    9.3989 C   0  0  0  0  0  0  0  0  0  0  0  0
   43.4593   14.2865    8.6663 C   0  0  0  0  0  0  0  0  0  0  0  0
   42.2783   14.7467    9.2506 C   0  0  0  0  0  0  0  0  0  0  0  0
   42.0056   14.4497   10.5858 C   0  0  0  0  0  0  0  0  0  0  0  0
   42.9164   13.6989   11.3304 C   0  0  0  0  0  0  0  0  0  0  0  0
   44.8286    6.3754   11.6923 C   0  0  0  0  0  0  0  0  0  0  0  0
   45.3513    5.7940   10.5283 C   0  0  0  0  0  0  0  0  0  0  0  0
   44.7623    4.6452   10.0080 C   0  0  0  0  0  0  0  0  0  0  0  0
   43.6628    4.0590   10.6298 C   0  0  0  0  0  0  0  0  0  0  0  0
   43.1343    4.6396   11.7839 C   0  0  0  0  0  0  0  0  0  0  0  0
   43.7148    5.7957   12.3147 C   0  0  0  0  0  0  0  0  0  0  0  0
   45.2423    4.0654    8.8655 O   0  0  0  0  0  0  0  0  0  0  0  0
   43.7511   14.5686    7.3606 O   0  0  0  0  0  0  0  0  0  0  0  0
   49.4212   17.4698   17.3422 O   0  0  0  0  0  0  0  0  0  0  0  0
   51.2609    6.3812   19.1782 O   0  0  0  0  0  0  0  0  0  0  0  0
   51.0628   15.2070   12.9149 H   0  0  0  0  0  0  0  0  0  0  0  0
   48.4188   15.2233   16.2838 H   0  0  0  0  0  0  0  0  0  0  0  0
   51.3413   18.3610   15.8462 H   0  0  0  0  0  0  0  0  0  0  0  0
   52.1392   17.3002   13.7327 H   0  0  0  0  0  0  0  0  0  0  0  0
   50.8438    7.1246   16.7315 H   0  0  0  0  0  0  0  0  0  0  0  0
   49.6212    7.7237   20.8179 H   0  0  0  0  0  0  0  0  0  0  0  0
   47.9636    9.4020   20.0735 H   0  0  0  0  0  0  0  0  0  0  0  0
   47.7461    9.9621   17.6657 H   0  0  0  0  0  0  0  0  0  0  0  0
   47.8626   15.8579   12.5733 H   0  0  0  0  0  0  0  0  0  0  0  0
   46.6836   15.5689   13.8723 H   0  0  0  0  0  0  0  0  0  0  0  0
   46.5408   14.8802   10.9799 H   0  0  0  0  0  0  0  0  0  0  0  0
   45.2350   15.1999   12.1493 H   0  0  0  0  0  0  0  0  0  0  0  0
   47.9306   11.2989   14.2855 H   0  0  0  0  0  0  0  0  0  0  0  0
   51.7902   10.2287   15.6677 H   0  0  0  0  0  0  0  0  0  0  0  0
   51.7818   12.8443   14.8953 H   0  0  0  0  0  0  0  0  0  0  0  0
   47.0608    9.4659   13.5728 H   0  0  0  0  0  0  0  0  0  0  0  0
   46.9829    5.2729   13.4231 H   0  0  0  0  0  0  0  0  0  0  0  0
   48.9386    6.0135   15.1558 H   0  0  0  0  0  0  0  0  0  0  0  0
   43.1411   10.9021   10.1985 H   0  0  0  0  0  0  0  0  0  0  0  0
   43.3503    8.3647   10.5133 H   0  0  0  0  0  0  0  0  0  0  0  0
   45.2928   13.1696    8.9525 H   0  0  0  0  0  0  0  0  0  0  0  0
   41.5642   15.3296    8.6818 H   0  0  0  0  0  0  0  0  0  0  0  0
   41.0926   14.8001   11.0550 H   0  0  0  0  0  0  0  0  0  0  0  0
   42.7250   13.4569   12.3741 H   0  0  0  0  0  0  0  0  0  0  0  0
   46.2092    6.2641   10.0538 H   0  0  0  0  0  0  0  0  0  0  0  0
   43.2148    3.1636   10.2097 H   0  0  0  0  0  0  0  0  0  0  0  0
   42.2646    4.2042   12.2651 H   0  0  0  0  0  0  0  0  0  0  0  0
   43.3022    6.2627   13.2095 H   0  0  0  0  0  0  0  0  0  0  0  0
   45.9489    4.6498    8.5416 H   0  0  0  0  0  0  0  0  0  0  0  0
   43.0631   15.1608    7.0295 H   0  0  0  0  0  0  0  0  0  0  0  0
   48.6495   16.9671   17.6561 H   0  0  0  0  0  0  0  0  0  0  0  0
   51.2265    6.2863   20.1452 H   0  0  0  0  0  0  0  0  0  0  0  0
 25 26  2  0
 26 27  1  0
 27 23  1  0
 28 29  1  0
  1  2  2  0
  3  4  2  0
  7  8  2  0
 14 15  1  0
 29 30  1  0
 30 31  2  0
 31 32  1  0
 32 28  2  0
 15 16  1  0
 29 33  2  0
 17 33  1  0
 16 17  1  0
 14 34  2  0
 22 34  1  0
 17 13  2  0
 27 35  2  0
 19 35  1  0
 18 19  1  0
 24 36  2  0
 32 36  1  0
  8  9  1  0
  4  5  1  0
 37 38  2  0
  9 10  2  0
 38 39  1  0
  2  3  1  0
 39 40  2  0
 10 11  1  0
 40 41  1  0
 19 20  2  0
 41 42  2  0
 42 37  1  0
 33 37  1  0
 20 21  1  0
 21 22  2  0
 43 44  2  0
 22 18  1  0
 44 45  1  0
 23 24  1  0
 45 46  2  0
  5  6  2  0
 46 47  1  0
 11 12  2  0
 47 48  2  0
 48 43  1  0
 36 43  1  0
 12  7  1  0
 45 49  1  0
 13 14  1  0
 39 50  1  0
 35 12  1  0
 34  2  1  0
  6  1  1  0
  4 51  1  0
 24 25  1  0
  8 52  1  0
  1 53  1  0
  3 54  1  0
  5 55  1  0
  6 56  1  0
  7 57  1  0
  9 58  1  0
 10 59  1  0
 11 60  1  0
 15 61  1  0
 15 62  1  0
 16 63  1  0
 16 64  1  0
 18 65  1  0
 20 66  1  0
 21 67  1  0
 23 68  1  0
 25 69  1  0
 26 70  1  0
 30 71  1  0
 31 72  1  0
 38 73  1  0
 40 74  1  0
 41 75  1  0
 42 76  1  0
 44 77  1  0
 46 78  1  0
 47 79  1  0
 48 80  1  0
 49 81  1  0
 50 82  1  0
 51 83  1  0
 52 84  1  0
M  END
> <Uni-Dock RESULT> 
ENERGY=   -6.014  LOWER_BOUND=    0.343  UPPER_BOUND=    0.343
INTER + INTRA:          -6.014
INTER:                  -6.014
INTRA:                   0.000
UNBOUND:                 0.000

$$$$

     RDKit          3D

 84 92  0  0  0  0  0  0  0  0999 V2000
   49.3564   15.9787   16.4810 C   0  0  0  0  0  0  0  0  0  0  0  0
   49.6215   15.3956   15.2361 C   0  0  0  0  0  0  0  0  0  0  0  0
   50.5356   16.0052   14.3675 C   0  0  0  0  0  0  0  0  0  0  0  0
   51.1672   17.1853   14.7481 C   0  0  0  0  0  0  0  0  0  0  0  0
   50.9010   17.7726   15.9813 C   0  0  0  0  0  0  0  0  0  0  0  0
   49.9941   17.1663   16.8525 C   0  0  0  0  0  0  0  0  0  0  0  0
   43.8274   14.2246    9.7980 C   0  0  0  0  0  0  0  0  0  0  0  0
   43.7149   14.9454    8.6139 C   0  0  0  0  0  0  0  0  0  0  0  0
   44.8312   15.1866    7.8169 C   0  0  0  0  0  0  0  0  0  0  0  0
   46.0771   14.6939    8.2121 C   0  0  0  0  0  0  0  0  0  0  0  0
   46.1997   13.9702    9.4015 C   0  0  0  0  0  0  0  0  0  0  0  0
   45.0748   13.7298   10.1998 C   0  0  0  0  0  0  0  0  0  0  0  0
   49.0854   11.7123   14.5082 N   0  0  0  0  0  0  0  0  0  0  0  0
   49.5347   12.9295   14.9290 C   0  0  0  0  0  0  0  0  0  0  0  0
   50.8934   12.7683   15.5495 C   0  0  0  0  0  0  0  0  0  0  0  0
   50.9869   11.2838   15.7904 C   0  0  0  0  0  0  0  0  0  0  0  0
   49.8902   10.6880   14.9208 C   0  0  0  0  0  0  0  0  0  0  0  0
   47.1068   13.2626   13.2387 N   0  0  0  0  0  0  0  0  0  0  0  0
   45.9443   13.6809   12.6535 C   0  0  0  0  0  0  0  0  0  0  0  0
   45.5735   14.8727   13.2434 C   0  0  0  0  0  0  0  0  0  0  0  0
   46.5974   15.2300   14.1625 C   0  0  0  0  0  0  0  0  0  0  0  0
   47.5534   14.2417   14.0903 C   0  0  0  0  0  0  0  0  0  0  0  0
   45.6962   10.4974   12.0636 N   0  0  0  0  0  0  0  0  0  0  0  0
   45.1495    9.2648   11.8065 C   0  0  0  0  0  0  0  0  0  0  0  0
   43.9557    9.4489   11.1441 C   0  0  0  0  0  0  0  0  0  0  0  0
   43.7899   10.8475   10.9780 C   0  0  0  0  0  0  0  0  0  0  0  0
   44.8980   11.4654   11.5179 C   0  0  0  0  0  0  0  0  0  0  0  0
   47.7462    9.0532   13.3331 N   0  0  0  0  0  0  0  0  0  0  0  0
   48.8526    8.6499   14.0405 C   0  0  0  0  0  0  0  0  0  0  0  0
   48.8325    7.1890   13.9755 C   0  0  0  0  0  0  0  0  0  0  0  0
   47.7528    6.7927   13.3115 C   0  0  0  0  0  0  0  0  0  0  0  0
   47.0300    7.9695   12.8910 C   0  0  0  0  0  0  0  0  0  0  0  0
   49.8253    9.3260   14.7379 C   0  0  0  0  0  0  0  0  0  0  0  0
   48.9441   14.1515   14.8233 C   0  0  0  0  0  0  0  0  0  0  0  0
   45.2120   12.9899   11.4659 C   0  0  0  0  0  0  0  0  0  0  0  0
   45.8574    7.9080   12.2037 C   0  0  0  0  0  0  0  0  0  0  0  0
   50.9032    8.5126   15.3814 C   0  0  0  0  0  0  0  0  0  0  0  0
   50.7813    8.0630   16.7061 C   0  0  0  0  0  0  0  0  0  0  0  0
   51.8109    7.3275   17.2843 C   0  0  0  0  0  0  0  0  0  0  0  0
   52.9626    7.0179   16.5594 C   0  0  0  0  0  0  0  0  0  0  0  0
   53.0869    7.4520   15.2397 C   0  0  0  0  0  0  0  0  0  0  0  0
   52.0621    8.1965   14.6540 C   0  0  0  0  0  0  0  0  0  0  0  0
   45.1885    6.6337   11.8732 C   0  0  0  0  0  0  0  0  0  0  0  0
   44.2463    6.0990   12.7635 C   0  0  0  0  0  0  0  0  0  0  0  0
   43.6110    4.8995   12.4552 C   0  0  0  0  0  0  0  0  0  0  0  0
   43.8924    4.2230   11.2710 C   0  0  0  0  0  0  0  0  0  0  0  0
   44.8360    4.7478   10.3862 C   0  0  0  0  0  0  0  0  0  0  0  0
   45.4837    5.9503   10.6859 C   0  0  0  0  0  0  0  0  0  0  0  0
   42.6986    4.3473   13.3123 O   0  0  0  0  0  0  0  0  0  0  0  0
   51.6678    6.9173   18.5808 O   0  0  0  0  0  0  0  0  0  0  0  0
   52.0676   17.7953   13.9218 O   0  0  0  0  0  0  0  0  0  0  0  0
   42.4774   15.4094    8.2606 O   0  0  0  0  0  0  0  0  0  0  0  0
   48.6492   15.4943   17.1524 H   0  0  0  0  0  0  0  0  0  0  0  0
   50.7303   15.5323   13.4097 H   0  0  0  0  0  0  0  0  0  0  0  0
   51.4107   18.6888   16.2647 H   0  0  0  0  0  0  0  0  0  0  0  0
   49.7858   17.6087   17.8209 H   0  0  0  0  0  0  0  0  0  0  0  0
   42.9518   14.0505   10.4149 H   0  0  0  0  0  0  0  0  0  0  0  0
   44.7553   15.7467    6.8904 H   0  0  0  0  0  0  0  0  0  0  0  0
   46.9571   14.8693    7.5975 H   0  0  0  0  0  0  0  0  0  0  0  0
   47.1737   13.5954    9.7163 H   0  0  0  0  0  0  0  0  0  0  0  0
   51.0146   13.3155   16.4893 H   0  0  0  0  0  0  0  0  0  0  0  0
   51.6783   13.0916   14.8553 H   0  0  0  0  0  0  0  0  0  0  0  0
   50.7913   11.0652   16.8472 H   0  0  0  0  0  0  0  0  0  0  0  0
   51.9926   10.9377   15.5374 H   0  0  0  0  0  0  0  0  0  0  0  0
   47.6220   12.3879   13.1203 H   0  0  0  0  0  0  0  0  0  0  0  0
   44.6870   15.4417   13.0065 H   0  0  0  0  0  0  0  0  0  0  0  0
   46.6463   16.1140   14.7806 H   0  0  0  0  0  0  0  0  0  0  0  0
   46.5840   10.5899   12.5600 H   0  0  0  0  0  0  0  0  0  0  0  0
   43.2925    8.6643   10.8083 H   0  0  0  0  0  0  0  0  0  0  0  0
   42.9723   11.3406   10.4761 H   0  0  0  0  0  0  0  0  0  0  0  0
   49.5499    6.5255   14.4299 H   0  0  0  0  0  0  0  0  0  0  0  0
   47.4656    5.7703   13.1388 H   0  0  0  0  0  0  0  0  0  0  0  0
   49.8807    8.3100   17.2636 H   0  0  0  0  0  0  0  0  0  0  0  0
   53.7637    6.4402   17.0040 H   0  0  0  0  0  0  0  0  0  0  0  0
   53.9756    7.2203   14.6627 H   0  0  0  0  0  0  0  0  0  0  0  0
   52.1385    8.5470   13.6264 H   0  0  0  0  0  0  0  0  0  0  0  0
   44.0384    6.6382   13.6843 H   0  0  0  0  0  0  0  0  0  0  0  0
   43.3886    3.2877   11.0469 H   0  0  0  0  0  0  0  0  0  0  0  0
   45.0794    4.2188    9.4706 H   0  0  0  0  0  0  0  0  0  0  0  0
   46.2302    6.3623   10.0063 H   0  0  0  0  0  0  0  0  0  0  0  0
   42.6932    4.9133   14.1032 H   0  0  0  0  0  0  0  0  0  0  0  0
   52.4958    6.4961   18.8464 H   0  0  0  0  0  0  0  0  0  0  0  0
   52.1748   17.2125   13.1500 H   0  0  0  0  0  0  0  0  0  0  0  0
   42.5656   15.8902    7.4202 H   0  0  0  0  0  0  0  0  0  0  0  0
 25 26  2  0
 26 27  1  0
 27 23  1  0
 28 29  1  0
  1  2  2  0
  3  4  2  0
  7  8  2  0
 14 15  1  0
 29 30  1  0
 30 31  2  0
 31 32  1  0
 32 28  2  0
 15 16  1  0
 29 33  2  0
 17 33  1  0
 16 17  1  0
 14 34  2  0
 22 34  1  0
 17 13  2  0
 27 35  2  0
 19 35  1  0
 18 19  1  0
 24 36  2  0
 32 36  1  0
  8  9  1  0
  4  5  1  0
 37 38  2  0
  9 10  2  0
 38 39  1  0
  2  3  1  0
 39 40  2  0
 10 11  1  0
 40 41  1  0
 19 20  2  0
 41 42  2  0
 42 37  1  0
 33 37  1  0
 20 21  1  0
 21 22  2  0
 43 44  2  0
 22 18  1  0
 44 45  1  0
 23 24  1  0
 45 46  2  0
  5  6  2  0
 46 47  1  0
 11 12  2  0
 47 48  2  0
 48 43  1  0
 36 43  1  0
 12  7  1  0
 45 49  1  0
 13 14  1  0
 39 50  1  0
 35 12  1  0
 34  2  1  0
  6  1  1  0
  4 51  1  0
 24 25  1  0
  8 52  1  0
  1 53  1  0
  3 54  1  0
  5 55  1  0
  6 56  1  0
  7 57  1  0
  9 58  1  0
 10 59  1  0
 11 60  1  0
 15 61  1  0
 15 62  1  0
 16 63  1  0
 16 64  1  0
 18 65  1  0
 20 66  1  0
 21 67  1  0
 23 68  1  0
 25 69  1  0
 26 70  1  0
 30 71  1  0
 31 72  1  0
 38 73  1  0
 40 74  1  0
 41 75  1  0
 42 76  1  0
 44 77  1  0
 46 78  1  0
 47 79  1  0
 48 80  1  0
 49 81  1  0
 50 82  1  0
 51 83  1  0
 52 84  1  0
M  END
> <Uni-Dock RESULT> 
ENERGY=   -5.990  LOWER_BOUND=    1.562  UPPER_BOUND=    7.691
INTER + INTRA:          -5.990
INTER:                  -5.990
INTRA:                   0.000
UNBOUND:                 0.000

$$$$

     RDKit          3D

 84 92  0  0  0  0  0  0  0  0999 V2000
   49.3568   15.9787   16.4810 C   0  0  0  0  0  0  0  0  0  0  0  0
   49.6218   15.3956   15.2361 C   0  0  0  0  0  0  0  0  0  0  0  0
   50.5360   16.0051   14.3675 C   0  0  0  0  0  0  0  0  0  0  0  0
   51.1675   17.1852   14.7480 C   0  0  0  0  0  0  0  0  0  0  0  0
   50.9015   17.7725   15.9813 C   0  0  0  0  0  0  0  0  0  0  0  0
   49.9946   17.1663   16.8525 C   0  0  0  0  0  0  0  0  0  0  0  0
   43.8276   14.2247    9.7982 C   0  0  0  0  0  0  0  0  0  0  0  0
   43.7150   14.9454    8.6141 C   0  0  0  0  0  0  0  0  0  0  0  0
   44.8313   15.1866    7.8171 C   0  0  0  0  0  0  0  0  0  0  0  0
   46.0773   14.6939    8.2122 C   0  0  0  0  0  0  0  0  0  0  0  0
   46.1998   13.9702    9.4016 C   0  0  0  0  0  0  0  0  0  0  0  0
   45.0750   13.7299   10.1999 C   0  0  0  0  0  0  0  0  0  0  0  0
   49.0857   11.7123   14.5082 N   0  0  0  0  0  0  0  0  0  0  0  0
   49.5350   12.9295   14.9290 C   0  0  0  0  0  0  0  0  0  0  0  0
   50.8938   12.7683   15.5495 C   0  0  0  0  0  0  0  0  0  0  0  0
   50.9873   11.2838   15.7903 C   0  0  0  0  0  0  0  0  0  0  0  0
   49.8905   10.6880   14.9208 C   0  0  0  0  0  0  0  0  0  0  0  0
   47.1071   13.2626   13.2388 N   0  0  0  0  0  0  0  0  0  0  0  0
   45.9446   13.6809   12.6536 C   0  0  0  0  0  0  0  0  0  0  0  0
   45.5738   14.8727   13.2436 C   0  0  0  0  0  0  0  0  0  0  0  0
   46.5978   15.2300   14.1626 C   0  0  0  0  0  0  0  0  0  0  0  0
   47.5537   14.2416   14.0903 C   0  0  0  0  0  0  0  0  0  0  0  0
   45.6965   10.4974   12.0637 N   0  0  0  0  0  0  0  0  0  0  0  0
   45.1497    9.2649   11.8066 C   0  0  0  0  0  0  0  0  0  0  0  0
   43.9559    9.4489   11.1443 C   0  0  0  0  0  0  0  0  0  0  0  0
   43.7901   10.8475   10.9781 C   0  0  0  0  0  0  0  0  0  0  0  0
   44.8982   11.4654   11.5180 C   0  0  0  0  0  0  0  0  0  0  0  0
   47.7465    9.0532   13.3331 N   0  0  0  0  0  0  0  0  0  0  0  0
   48.8528    8.6499   14.0405 C   0  0  0  0  0  0  0  0  0  0  0  0
   48.8327    7.1890   13.9755 C   0  0  0  0  0  0  0  0  0  0  0  0
   47.7530    6.7927   13.3115 C   0  0  0  0  0  0  0  0  0  0  0  0
   47.0303    7.9695   12.8910 C   0  0  0  0  0  0  0  0  0  0  0  0
   49.8256    9.3259   14.7379 C   0  0  0  0  0  0  0  0  0  0  0  0
   48.9445   14.1515   14.8233 C   0  0  0  0  0  0  0  0  0  0  0  0
   45.2122   12.9900   11.4660 C   0  0  0  0  0  0  0  0  0  0  0  0
   45.8576    7.9081   12.2038 C   0  0  0  0  0  0  0  0  0  0  0  0
   50.9036    8.5125   15.3813 C   0  0  0  0  0  0  0  0  0  0  0  0
   50.7816    8.0629   16.7061 C   0  0  0  0  0  0  0  0  0  0  0  0
   51.8112    7.3274   17.2842 C   0  0  0  0  0  0  0  0  0  0  0  0
   52.9629    7.0178   16.5592 C   0  0  0  0  0  0  0  0  0  0  0  0
   53.0872    7.4519   15.2396 C   0  0  0  0  0  0  0  0  0  0  0  0
   52.0624    8.1965   14.6538 C   0  0  0  0  0  0  0  0  0  0  0  0
   45.1887    6.6337   11.8733 C   0  0  0  0  0  0  0  0  0  0  0  0
   44.2465    6.0990   12.7636 C   0  0  0  0  0  0  0  0  0  0  0  0
   43.6112    4.8995   12.4553 C   0  0  0  0  0  0  0  0  0  0  0  0
   43.8926    4.2231   11.2712 C   0  0  0  0  0  0  0  0  0  0  0  0
   44.8361    4.7478   10.3863 C   0  0  0  0  0  0  0  0  0  0  0  0
   45.4838    5.9503   10.6859 C   0  0  0  0  0  0  0  0  0  0  0  0
   42.6988    4.3474   13.3125 O   0  0  0  0  0  0  0  0  0  0  0  0
   51.6682    6.9172   18.5807 O   0  0  0  0  0  0  0  0  0  0  0  0
   52.0679   17.7952   13.9217 O   0  0  0  0  0  0  0  0  0  0  0  0
   42.4776   15.4095    8.2608 O   0  0  0  0  0  0  0  0  0  0  0  0
   48.6497   15.4943   17.1524 H   0  0  0  0  0  0  0  0  0  0  0  0
   50.7306   15.5323   13.4096 H   0  0  0  0  0  0  0  0  0  0  0  0
   51.4112   18.6887   16.2646 H   0  0  0  0  0  0  0  0  0  0  0  0
   49.7863   17.6086   17.8209 H   0  0  0  0  0  0  0  0  0  0  0  0
   42.9520   14.0506   10.4151 H   0  0  0  0  0  0  0  0  0  0  0  0
   44.7554   15.7468    6.8906 H   0  0  0  0  0  0  0  0  0  0  0  0
   46.9572   14.8693    7.5976 H   0  0  0  0  0  0  0  0  0  0  0  0
   47.1738   13.5954    9.7164 H   0  0  0  0  0  0  0  0  0  0  0  0
   51.0150   13.3155   16.4893 H   0  0  0  0  0  0  0  0  0  0  0  0
   51.6786   13.0916   14.8552 H   0  0  0  0  0  0  0  0  0  0  0  0
   50.7917   11.0651   16.8471 H   0  0  0  0  0  0  0  0  0  0  0  0
   51.9930   10.9376   15.5372 H   0  0  0  0  0  0  0  0  0  0  0  0
   47.6222   12.3879   13.1204 H   0  0  0  0  0  0  0  0  0  0  0  0
   44.6873   15.4417   13.0066 H   0  0  0  0  0  0  0  0  0  0  0  0
   46.6467   16.1140   14.7807 H   0  0  0  0  0  0  0  0  0  0  0  0
   46.5842   10.5899   12.5601 H   0  0  0  0  0  0  0  0  0  0  0  0
   43.2927    8.6644   10.8085 H   0  0  0  0  0  0  0  0  0  0  0  0
   42.9724   11.3407   10.4763 H   0  0  0  0  0  0  0  0  0  0  0  0
   49.5501    6.5254   14.4298 H   0  0  0  0  0  0  0  0  0  0  0  0
   47.4658    5.7703   13.1389 H   0  0  0  0  0  0  0  0  0  0  0  0
   49.8811    8.3100   17.2636 H   0  0  0  0  0  0  0  0  0  0  0  0
   53.7641    6.4401   17.0038 H   0  0  0  0  0  0  0  0  0  0  0  0
   53.9759    7.2202   14.6625 H   0  0  0  0  0  0  0  0  0  0  0  0
   52.1388    8.5469   13.6263 H   0  0  0  0  0  0  0  0  0  0  0  0
   44.0386    6.6382   13.6845 H   0  0  0  0  0  0  0  0  0  0  0  0
   43.3887    3.2878   11.0471 H   0  0  0  0  0  0  0  0  0  0  0  0
   45.0795    4.2188    9.4707 H   0  0  0  0  0  0  0  0  0  0  0  0
   46.2303    6.3623   10.0063 H   0  0  0  0  0  0  0  0  0  0  0  0
   42.6934    4.9133   14.1034 H   0  0  0  0  0  0  0  0  0  0  0  0
   52.4962    6.4960   18.8463 H   0  0  0  0  0  0  0  0  0  0  0  0
   52.1751   17.2125   13.1499 H   0  0  0  0  0  0  0  0  0  0  0  0
   42.5658   15.8903    7.4204 H   0  0  0  0  0  0  0  0  0  0  0  0
 25 26  2  0
 26 27  1  0
 27 23  1  0
 28 29  1  0
  1  2  2  0
  3  4  2  0
  7  8  2  0
 14 15  1  0
 29 30  1  0
 30 31  2  0
 31 32  1  0
 32 28  2  0
 15 16  1  0
 29 33  2  0
 17 33  1  0
 16 17  1  0
 14 34  2  0
 22 34  1  0
 17 13  2  0
 27 35  2  0
 19 35  1  0
 18 19  1  0
 24 36  2  0
 32 36  1  0
  8  9  1  0
  4  5  1  0
 37 38  2  0
  9 10  2  0
 38 39  1  0
  2  3  1  0
 39 40  2  0
 10 11  1  0
 40 41  1  0
 19 20  2  0
 41 42  2  0
 42 37  1  0
 33 37  1  0
 20 21  1  0
 21 22  2  0
 43 44  2  0
 22 18  1  0
 44 45  1  0
 23 24  1  0
 45 46  2  0
  5  6  2  0
 46 47  1  0
 11 12  2  0
 47 48  2  0
 48 43  1  0
 36 43  1  0
 12  7  1  0
 45 49  1  0
 13 14  1  0
 39 50  1  0
 35 12  1  0
 34  2  1  0
  6  1  1  0
  4 51  1  0
 24 25  1  0
  8 52  1  0
  1 53  1  0
  3 54  1  0
  5 55  1  0
  6 56  1  0
  7 57  1  0
  9 58  1  0
 10 59  1  0
 11 60  1  0
 15 61  1  0
 15 62  1  0
 16 63  1  0
 16 64  1  0
 18 65  1  0
 20 66  1  0
 21 67  1  0
 23 68  1  0
 25 69  1  0
 26 70  1  0
 30 71  1  0
 31 72  1  0
 38 73  1  0
 40 74  1  0
 41 75  1  0
 42 76  1  0
 44 77  1  0
 46 78  1  0
 47 79  1  0
 48 80  1  0
 49 81  1  0
 50 82  1  0
 51 83  1  0
 52 84  1  0
M  END
> <Uni-Dock RESULT> 
ENERGY=   -5.989  LOWER_BOUND=    1.562  UPPER_BOUND=    7.691
INTER + INTRA:          -5.989
INTER:                  -5.989
INTRA:                   0.000
UNBOUND:                 0.000

$$$$

     RDKit          3D

 84 92  0  0  0  0  0  0  0  0999 V2000
   44.0485    5.6479   12.7023 C   0  0  0  0  0  0  0  0  0  0  0  0
   44.8152    6.3590   11.7714 C   0  0  0  0  0  0  0  0  0  0  0  0
   45.0501    5.8092   10.5048 C   0  0  0  0  0  0  0  0  0  0  0  0
   44.5236    4.5611   10.1861 C   0  0  0  0  0  0  0  0  0  0  0  0
   43.7672    3.8474   11.1109 C   0  0  0  0  0  0  0  0  0  0  0  0
   43.5264    4.3932   12.3731 C   0  0  0  0  0  0  0  0  0  0  0  0
   52.4178    8.4627   13.2842 C   0  0  0  0  0  0  0  0  0  0  0  0
   53.5217    7.8933   12.6584 C   0  0  0  0  0  0  0  0  0  0  0  0
   53.5343    7.6898   11.2808 C   0  0  0  0  0  0  0  0  0  0  0  0
   52.4250    8.0668   10.5202 C   0  0  0  0  0  0  0  0  0  0  0  0
   51.3107    8.6381   11.1411 C   0  0  0  0  0  0  0  0  0  0  0  0
   51.3022    8.8410   12.5264 C   0  0  0  0  0  0  0  0  0  0  0  0
   45.2484   10.1253   11.8771 N   0  0  0  0  0  0  0  0  0  0  0  0
   44.8014    8.8452   11.7284 C   0  0  0  0  0  0  0  0  0  0  0  0
   43.4873    8.8612   11.0002 C   0  0  0  0  0  0  0  0  0  0  0  0
   43.0530   10.3001   11.1071 C   0  0  0  0  0  0  0  0  0  0  0  0
   44.3172   11.0505   11.4978 C   0  0  0  0  0  0  0  0  0  0  0  0
   47.6201    8.8406   12.6860 N   0  0  0  0  0  0  0  0  0  0  0  0
   48.8231    8.5552   13.2694 C   0  0  0  0  0  0  0  0  0  0  0  0
   48.7189    7.3232   13.8835 C   0  0  0  0  0  0  0  0  0  0  0  0
   47.4279    6.8073   13.5874 C   0  0  0  0  0  0  0  0  0  0  0  0
   46.8002    7.7461   12.7996 C   0  0  0  0  0  0  0  0  0  0  0  0
   49.0399   11.7946   13.2100 N   0  0  0  0  0  0  0  0  0  0  0  0
   49.4114   13.0757   13.5342 C   0  0  0  0  0  0  0  0  0  0  0  0
   50.6649   13.0335   14.1039 C   0  0  0  0  0  0  0  0  0  0  0  0
   51.0711   11.6747   14.1017 C   0  0  0  0  0  0  0  0  0  0  0  0
   50.0668   10.9406   13.5072 C   0  0  0  0  0  0  0  0  0  0  0  0
   46.6397   12.9705   12.3404 N   0  0  0  0  0  0  0  0  0  0  0  0
   45.3738   13.2294   11.8740 C   0  0  0  0  0  0  0  0  0  0  0  0
   45.2537   14.6868   11.8920 C   0  0  0  0  0  0  0  0  0  0  0  0
   46.3687   15.2143   12.3844 C   0  0  0  0  0  0  0  0  0  0  0  0
   47.2773   14.1345   12.6886 C   0  0  0  0  0  0  0  0  0  0  0  0
   44.3302   12.4261   11.4800 C   0  0  0  0  0  0  0  0  0  0  0  0
   45.3863    7.6766   12.1098 C   0  0  0  0  0  0  0  0  0  0  0  0
   50.1159    9.4185   13.1811 C   0  0  0  0  0  0  0  0  0  0  0  0
   48.5074   14.3375   13.2333 C   0  0  0  0  0  0  0  0  0  0  0  0
   43.0805   13.1008   11.0101 C   0  0  0  0  0  0  0  0  0  0  0  0
   42.0360   13.3970   11.9006 C   0  0  0  0  0  0  0  0  0  0  0  0
   40.8767   14.0045   11.4293 C   0  0  0  0  0  0  0  0  0  0  0  0
   40.7416   14.3369   10.0805 C   0  0  0  0  0  0  0  0  0  0  0  0
   41.7787   14.0554    9.1914 C   0  0  0  0  0  0  0  0  0  0  0  0
   42.9424   13.4394    9.6542 C   0  0  0  0  0  0  0  0  0  0  0  0
   49.0040   15.6750   13.6141 C   0  0  0  0  0  0  0  0  0  0  0  0
   48.7777   16.1496   14.9140 C   0  0  0  0  0  0  0  0  0  0  0  0
   49.2461   17.4085   15.2789 C   0  0  0  0  0  0  0  0  0  0  0  0
   49.9430   18.2041   14.3730 C   0  0  0  0  0  0  0  0  0  0  0  0
   50.1629   17.7387   13.0755 C   0  0  0  0  0  0  0  0  0  0  0  0
   49.6944   16.4772   12.6955 C   0  0  0  0  0  0  0  0  0  0  0  0
   49.0266   17.9027   16.5357 O   0  0  0  0  0  0  0  0  0  0  0  0
   39.8721   14.2661   12.3192 O   0  0  0  0  0  0  0  0  0  0  0  0
   44.7327    4.0066    8.9556 O   0  0  0  0  0  0  0  0  0  0  0  0
   54.5889    7.5392   13.4376 O   0  0  0  0  0  0  0  0  0  0  0  0
   43.8655    6.0861   13.6821 H   0  0  0  0  0  0  0  0  0  0  0  0
   45.6424    6.3807    9.7967 H   0  0  0  0  0  0  0  0  0  0  0  0
   43.3568    2.8788   10.8408 H   0  0  0  0  0  0  0  0  0  0  0  0
   42.9299    3.8514   13.0992 H   0  0  0  0  0  0  0  0  0  0  0  0
   52.4165    8.6083   14.3596 H   0  0  0  0  0  0  0  0  0  0  0  0
   54.3904    7.2474   10.7814 H   0  0  0  0  0  0  0  0  0  0  0  0
   52.4221    7.9194    9.4427 H   0  0  0  0  0  0  0  0  0  0  0  0
   50.4401    8.9219   10.5497 H   0  0  0  0  0  0  0  0  0  0  0  0
   42.7334    8.2015   11.4404 H   0  0  0  0  0  0  0  0  0  0  0  0
   43.6226    8.5814    9.9486 H   0  0  0  0  0  0  0  0  0  0  0  0
   42.2951   10.4026   11.8932 H   0  0  0  0  0  0  0  0  0  0  0  0
   42.6216   10.6207   10.1551 H   0  0  0  0  0  0  0  0  0  0  0  0
   47.3024    9.6951   12.2241 H   0  0  0  0  0  0  0  0  0  0  0  0
   49.5003    6.8331   14.4447 H   0  0  0  0  0  0  0  0  0  0  0  0
   47.0160    5.8553   13.8875 H   0  0  0  0  0  0  0  0  0  0  0  0
   48.1335   11.5981   12.7823 H   0  0  0  0  0  0  0  0  0  0  0  0
   51.2240   13.8856   14.4636 H   0  0  0  0  0  0  0  0  0  0  0  0
   52.0145   11.2874   14.4534 H   0  0  0  0  0  0  0  0  0  0  0  0
   44.3858   15.2539   11.5980 H   0  0  0  0  0  0  0  0  0  0  0  0
   46.5466   16.2635   12.5429 H   0  0  0  0  0  0  0  0  0  0  0  0
   42.1497   13.1332   12.9496 H   0  0  0  0  0  0  0  0  0  0  0  0
   39.8431   14.8157    9.7107 H   0  0  0  0  0  0  0  0  0  0  0  0
   41.6895   14.3068    8.1401 H   0  0  0  0  0  0  0  0  0  0  0  0
   43.7635   13.2089    8.9781 H   0  0  0  0  0  0  0  0  0  0  0  0
   48.2310   15.5173   15.6093 H   0  0  0  0  0  0  0  0  0  0  0  0
   50.3002   19.1843   14.6739 H   0  0  0  0  0  0  0  0  0  0  0  0
   50.6858   18.3585   12.3544 H   0  0  0  0  0  0  0  0  0  0  0  0
   49.8517   16.1098   11.6811 H   0  0  0  0  0  0  0  0  0  0  0  0
   48.4684   17.2485   16.9900 H   0  0  0  0  0  0  0  0  0  0  0  0
   39.1207   14.6093   11.8180 H   0  0  0  0  0  0  0  0  0  0  0  0
   45.2138    4.6698    8.4306 H   0  0  0  0  0  0  0  0  0  0  0  0
   55.2698    7.1568   12.8585 H   0  0  0  0  0  0  0  0  0  0  0  0
 25 26  2  0
 26 27  1  0
 27 23  1  0
 28 29  1  0
  1  2  2  0
  3  4  2  0
  7  8  2  0
 14 15  1  0
 29 30  1  0
 30 31  2  0
 31 32  1  0
 32 28  2  0
 15 16  1  0
 29 33  2  0
 17 33  1  0
 16 17  1  0
 14 34  2  0
 22 34  1  0
 17 13  2  0
 27 35  2  0
 19 35  1  0
 18 19  1  0
 24 36  2  0
 32 36  1  0
  8  9  1  0
  4  5  1  0
 37 38  2  0
  9 10  2  0
 38 39  1  0
  2  3  1  0
 39 40  2  0
 10 11  1  0
 40 41  1  0
 19 20  2  0
 41 42  2  0
 42 37  1  0
 33 37  1  0
 20 21  1  0
 21 22  2  0
 43 44  2  0
 22 18  1  0
 44 45  1  0
 23 24  1  0
 45 46  2  0
  5  6  2  0
 46 47  1  0
 11 12  2  0
 47 48  2  0
 48 43  1  0
 36 43  1  0
 12  7  1  0
 45 49  1  0
 13 14  1  0
 39 50  1  0
 35 12  1  0
 34  2  1  0
  6  1  1  0
  4 51  1  0
 24 25  1  0
  8 52  1  0
  1 53  1  0
  3 54  1  0
  5 55  1  0
  6 56  1  0
  7 57  1  0
  9 58  1  0
 10 59  1  0
 11 60  1  0
 15 61  1  0
 15 62  1  0
 16 63  1  0
 16 64  1  0
 18 65  1  0
 20 66  1  0
 21 67  1  0
 23 68  1  0
 25 69  1  0
 26 70  1  0
 30 71  1  0
 31 72  1  0
 38 73  1  0
 40 74  1  0
 41 75  1  0
 42 76  1  0
 44 77  1  0
 46 78  1  0
 47 79  1  0
 48 80  1  0
 49 81  1  0
 50 82  1  0
 51 83  1  0
 52 84  1  0
M  END
> <Uni-Dock RESULT> 
ENERGY=   -5.943  LOWER_BOUND=    2.177  UPPER_BOUND=    8.518
INTER + INTRA:          -5.943
INTER:                  -5.943
INTRA:                   0.000
UNBOUND:                 0.000

$$$$

     RDKit          3D

 84 92  0  0  0  0  0  0  0  0999 V2000
   50.6048    7.8708   17.0185 C   0  0  0  0  0  0  0  0  0  0  0  0
   50.6570    8.2787   15.6802 C   0  0  0  0  0  0  0  0  0  0  0  0
   51.8109    8.0308   14.9261 C   0  0  0  0  0  0  0  0  0  0  0  0
   52.8945    7.3863   15.5150 C   0  0  0  0  0  0  0  0  0  0  0  0
   52.8500    6.9858   16.8471 C   0  0  0  0  0  0  0  0  0  0  0  0
   51.7004    7.2266   17.6016 C   0  0  0  0  0  0  0  0  0  0  0  0
   49.8223   15.9851   13.5756 C   0  0  0  0  0  0  0  0  0  0  0  0
   50.8590   16.7760   13.0919 C   0  0  0  0  0  0  0  0  0  0  0  0
   51.7321   16.2918   12.1209 C   0  0  0  0  0  0  0  0  0  0  0  0
   51.5596   14.9971   11.6257 C   0  0  0  0  0  0  0  0  0  0  0  0
   50.5216   14.1948   12.1075 C   0  0  0  0  0  0  0  0  0  0  0  0
   49.6459   14.6855   13.0836 C   0  0  0  0  0  0  0  0  0  0  0  0
   47.5663    8.8399   13.5551 N   0  0  0  0  0  0  0  0  0  0  0  0
   48.6077    8.3290   14.2727 C   0  0  0  0  0  0  0  0  0  0  0  0
   48.6737    6.8432   14.0602 C   0  0  0  0  0  0  0  0  0  0  0  0
   47.3261    6.5208   13.4681 C   0  0  0  0  0  0  0  0  0  0  0  0
   46.7833    7.8644   13.0053 C   0  0  0  0  0  0  0  0  0  0  0  0
   48.7490   11.3024   14.2383 N   0  0  0  0  0  0  0  0  0  0  0  0
   48.9561   12.6246   14.5175 C   0  0  0  0  0  0  0  0  0  0  0  0
   49.6454   12.7066   15.7109 C   0  0  0  0  0  0  0  0  0  0  0  0
   49.9391   11.3789   16.1254 C   0  0  0  0  0  0  0  0  0  0  0  0
   49.4199   10.5423   15.1630 C   0  0  0  0  0  0  0  0  0  0  0  0
   46.3398   12.9082   12.6153 N   0  0  0  0  0  0  0  0  0  0  0  0
   45.1915   13.4108   12.0558 C   0  0  0  0  0  0  0  0  0  0  0  0
   45.2146   14.7830   12.1755 C   0  0  0  0  0  0  0  0  0  0  0  0
   46.4360   15.1188   12.8131 C   0  0  0  0  0  0  0  0  0  0  0  0
   47.1266   13.9461   13.0345 C   0  0  0  0  0  0  0  0  0  0  0  0
   45.2721   10.3940   11.9528 N   0  0  0  0  0  0  0  0  0  0  0  0
   45.0136    9.0538   11.7975 C   0  0  0  0  0  0  0  0  0  0  0  0
   43.7654    8.9940   11.0376 C   0  0  0  0  0  0  0  0  0  0  0  0
   43.3232   10.2272   10.8197 C   0  0  0  0  0  0  0  0  0  0  0  0
   44.2680   11.1501   11.4026 C   0  0  0  0  0  0  0  0  0  0  0  0
   45.6509    7.9135   12.2254 C   0  0  0  0  0  0  0  0  0  0  0  0
   49.5153    8.9741   15.0558 C   0  0  0  0  0  0  0  0  0  0  0  0
   48.5695   13.8281   13.6085 C   0  0  0  0  0  0  0  0  0  0  0  0
   44.0946   12.4992   11.3733 C   0  0  0  0  0  0  0  0  0  0  0  0
   45.0519    6.6004   11.8324 C   0  0  0  0  0  0  0  0  0  0  0  0
   44.1208    5.9503   12.6585 C   0  0  0  0  0  0  0  0  0  0  0  0
   43.5983    4.7190   12.2763 C   0  0  0  0  0  0  0  0  0  0  0  0
   43.9782    4.1240   11.0724 C   0  0  0  0  0  0  0  0  0  0  0  0
   44.8947    4.7681   10.2413 C   0  0  0  0  0  0  0  0  0  0  0  0
   45.4295    6.0002   10.6202 C   0  0  0  0  0  0  0  0  0  0  0  0
   42.8983   13.1406   10.7920 C   0  0  0  0  0  0  0  0  0  0  0  0
   41.7919   13.4061   11.6115 C   0  0  0  0  0  0  0  0  0  0  0  0
   40.6629   14.0131   11.0690 C   0  0  0  0  0  0  0  0  0  0  0  0
   40.6165   14.3673    9.7231 C   0  0  0  0  0  0  0  0  0  0  0  0
   41.7126   14.0970    8.9021 C   0  0  0  0  0  0  0  0  0  0  0  0
   42.8515   13.4846    9.4342 C   0  0  0  0  0  0  0  0  0  0  0  0
   39.5637   14.2701   11.8420 O   0  0  0  0  0  0  0  0  0  0  0  0
   42.7053    4.1050   13.1100 O   0  0  0  0  0  0  0  0  0  0  0  0
   54.0284    7.1269   14.7990 O   0  0  0  0  0  0  0  0  0  0  0  0
   50.9936   18.0387   13.6007 O   0  0  0  0  0  0  0  0  0  0  0  0
   49.7012    8.0619   17.5951 H   0  0  0  0  0  0  0  0  0  0  0  0
   51.8271    8.3506   13.8887 H   0  0  0  0  0  0  0  0  0  0  0  0
   53.7022    6.4758   17.2867 H   0  0  0  0  0  0  0  0  0  0  0  0
   51.6494    6.9102   18.6380 H   0  0  0  0  0  0  0  0  0  0  0  0
   49.1536   16.3705   14.3385 H   0  0  0  0  0  0  0  0  0  0  0  0
   52.5440   16.9002   11.7352 H   0  0  0  0  0  0  0  0  0  0  0  0
   52.2299   14.6069   10.8633 H   0  0  0  0  0  0  0  0  0  0  0  0
   50.3934   13.1803   11.7298 H   0  0  0  0  0  0  0  0  0  0  0  0
   48.8313    6.2745   14.9817 H   0  0  0  0  0  0  0  0  0  0  0  0
   49.4715    6.5871   13.3529 H   0  0  0  0  0  0  0  0  0  0  0  0
   46.6729    6.0953   14.2395 H   0  0  0  0  0  0  0  0  0  0  0  0
   47.4482    5.7896   12.6646 H   0  0  0  0  0  0  0  0  0  0  0  0
   48.2028   10.8685   13.4914 H   0  0  0  0  0  0  0  0  0  0  0  0
   49.9407   13.6205   16.2041 H   0  0  0  0  0  0  0  0  0  0  0  0
   50.4870   11.0708   17.0034 H   0  0  0  0  0  0  0  0  0  0  0  0
   46.5199   11.9032   12.6422 H   0  0  0  0  0  0  0  0  0  0  0  0
   44.4467   15.4600   11.8290 H   0  0  0  0  0  0  0  0  0  0  0  0
   46.7883   16.1128   13.0398 H   0  0  0  0  0  0  0  0  0  0  0  0
   43.2509    8.0966   10.7354 H   0  0  0  0  0  0  0  0  0  0  0  0
   42.4093   10.4829   10.3128 H   0  0  0  0  0  0  0  0  0  0  0  0
   43.8316    6.4210   13.5954 H   0  0  0  0  0  0  0  0  0  0  0  0
   43.5690    3.1684   10.7682 H   0  0  0  0  0  0  0  0  0  0  0  0
   45.2007    4.3191    9.3026 H   0  0  0  0  0  0  0  0  0  0  0  0
   46.1473    6.5198    9.9883 H   0  0  0  0  0  0  0  0  0  0  0  0
   41.8430   13.1225   12.6598 H   0  0  0  0  0  0  0  0  0  0  0  0
   39.7272   14.8389    9.3160 H   0  0  0  0  0  0  0  0  0  0  0  0
   41.6799   14.3488    7.8472 H   0  0  0  0  0  0  0  0  0  0  0  0
   43.7082   13.2594    8.7984 H   0  0  0  0  0  0  0  0  0  0  0  0
   39.7529   13.8895   12.7168 H   0  0  0  0  0  0  0  0  0  0  0  0
   42.5082    3.2358   12.7368 H   0  0  0  0  0  0  0  0  0  0  0  0
   53.8504    7.4107   13.8854 H   0  0  0  0  0  0  0  0  0  0  0  0
   51.7574   18.4570   13.1682 H   0  0  0  0  0  0  0  0  0  0  0  0
 25 26  2  0
 26 27  1  0
 27 23  1  0
 28 29  1  0
  1  2  2  0
  3  4  2  0
  7  8  2  0
 14 15  1  0
 29 30  1  0
 30 31  2  0
 31 32  1  0
 32 28  2  0
 15 16  1  0
 29 33  2  0
 17 33  1  0
 16 17  1  0
 14 34  2  0
 22 34  1  0
 17 13  2  0
 27 35  2  0
 19 35  1  0
 18 19  1  0
 24 36  2  0
 32 36  1  0
  8  9  1  0
  4  5  1  0
 37 38  2  0
  9 10  2  0
 38 39  1  0
  2  3  1  0
 39 40  2  0
 10 11  1  0
 40 41  1  0
 19 20  2  0
 41 42  2  0
 42 37  1  0
 33 37  1  0
 20 21  1  0
 21 22  2  0
 43 44  2  0
 22 18  1  0
 44 45  1  0
 23 24  1  0
 45 46  2  0
  5  6  2  0
 46 47  1  0
 11 12  2  0
 47 48  2  0
 48 43  1  0
 36 43  1  0
 12  7  1  0
 45 49  1  0
 13 14  1  0
 39 50  1  0
 35 12  1  0
 34  2  1  0
  6  1  1  0
  4 51  1  0
 24 25  1  0
  8 52  1  0
  1 53  1  0
  3 54  1  0
  5 55  1  0
  6 56  1  0
  7 57  1  0
  9 58  1  0
 10 59  1  0
 11 60  1  0
 15 61  1  0
 15 62  1  0
 16 63  1  0
 16 64  1  0
 18 65  1  0
 20 66  1  0
 21 67  1  0
 23 68  1  0
 25 69  1  0
 26 70  1  0
 30 71  1  0
 31 72  1  0
 38 73  1  0
 40 74  1  0
 41 75  1  0
 42 76  1  0
 44 77  1  0
 46 78  1  0
 47 79  1  0
 48 80  1  0
 49 81  1  0
 50 82  1  0
 51 83  1  0
 52 84  1  0
M  END
> <Uni-Dock RESULT> 
ENERGY=   -5.801  LOWER_BOUND=    1.758  UPPER_BOUND=    7.934
INTER + INTRA:          -5.801
INTER:                  -5.801
INTRA:                   0.000
UNBOUND:                 0.000

$$$$

     RDKit          3D

 84 92  0  0  0  0  0  0  0  0999 V2000
   42.0528   12.7008    9.9140 C   0  0  0  0  0  0  0  0  0  0  0  0
   43.2376   12.0713    9.5141 C   0  0  0  0  0  0  0  0  0  0  0  0
   43.5896   12.0567    8.1585 C   0  0  0  0  0  0  0  0  0  0  0  0
   42.7568   12.6634    7.2231 C   0  0  0  0  0  0  0  0  0  0  0  0
   41.5744   13.2837    7.6150 C   0  0  0  0  0  0  0  0  0  0  0  0
   41.2215   13.3049    8.9656 C   0  0  0  0  0  0  0  0  0  0  0  0
   44.5481    4.2668   10.8876 C   0  0  0  0  0  0  0  0  0  0  0  0
   44.5599    3.2934    9.8942 C   0  0  0  0  0  0  0  0  0  0  0  0
   45.2367    3.5058    8.6957 C   0  0  0  0  0  0  0  0  0  0  0  0
   45.9144    4.7103    8.4932 C   0  0  0  0  0  0  0  0  0  0  0  0
   45.9062    5.6947    9.4854 C   0  0  0  0  0  0  0  0  0  0  0  0
   45.2246    5.4771   10.6889 C   0  0  0  0  0  0  0  0  0  0  0  0
   46.1844   11.5170   11.8364 N   0  0  0  0  0  0  0  0  0  0  0  0
   45.2291   12.0192   11.0023 C   0  0  0  0  0  0  0  0  0  0  0  0
   45.5862   13.4312   10.6336 C   0  0  0  0  0  0  0  0  0  0  0  0
   46.6270   13.8008   11.6586 C   0  0  0  0  0  0  0  0  0  0  0  0
   47.0773   12.4692   12.2402 C   0  0  0  0  0  0  0  0  0  0  0  0
   44.8534    9.0855   11.3407 N   0  0  0  0  0  0  0  0  0  0  0  0
   44.3629    7.8139   11.4479 C   0  0  0  0  0  0  0  0  0  0  0  0
   43.0077    7.8551   11.1878 C   0  0  0  0  0  0  0  0  0  0  0  0
   42.6835    9.1913   10.8270 C   0  0  0  0  0  0  0  0  0  0  0  0
   43.8578    9.9085   10.8777 C   0  0  0  0  0  0  0  0  0  0  0  0
   46.9771    7.5149   13.3506 N   0  0  0  0  0  0  0  0  0  0  0  0
   47.8211    7.0594   14.3328 C   0  0  0  0  0  0  0  0  0  0  0  0
   47.5349    5.7331   14.5707 C   0  0  0  0  0  0  0  0  0  0  0  0
   46.4918    5.3722   13.6802 C   0  0  0  0  0  0  0  0  0  0  0  0
   46.1976    6.4792   12.9127 C   0  0  0  0  0  0  0  0  0  0  0  0
   48.2568    9.9874   13.7367 N   0  0  0  0  0  0  0  0  0  0  0  0
   48.6507   11.3032   13.7133 C   0  0  0  0  0  0  0  0  0  0  0  0
   49.7835   11.3763   14.6354 C   0  0  0  0  0  0  0  0  0  0  0  0
   49.9846   10.1824   15.1813 C   0  0  0  0  0  0  0  0  0  0  0  0
   49.0134    9.2689   14.6278 C   0  0  0  0  0  0  0  0  0  0  0  0
   48.1771   12.4191   13.0653 C   0  0  0  0  0  0  0  0  0  0  0  0
   44.1167   11.4155   10.5010 C   0  0  0  0  0  0  0  0  0  0  0  0
   45.1955    6.5270   11.7215 C   0  0  0  0  0  0  0  0  0  0  0  0
   48.9346    7.9625   14.9994 C   0  0  0  0  0  0  0  0  0  0  0  0
   48.9031   13.7074   13.2911 C   0  0  0  0  0  0  0  0  0  0  0  0
   48.5188   14.5881   14.3150 C   0  0  0  0  0  0  0  0  0  0  0  0
   49.1994   15.7893   14.4857 C   0  0  0  0  0  0  0  0  0  0  0  0
   50.2714   16.1272   13.6584 C   0  0  0  0  0  0  0  0  0  0  0  0
   50.6660   15.2531   12.6456 C   0  0  0  0  0  0  0  0  0  0  0  0
   49.9843   14.0492   12.4625 C   0  0  0  0  0  0  0  0  0  0  0  0
   49.7981    7.3729   16.0422 C   0  0  0  0  0  0  0  0  0  0  0  0
   49.3670    7.3759   17.3765 C   0  0  0  0  0  0  0  0  0  0  0  0
   50.1759    6.8189   18.3628 C   0  0  0  0  0  0  0  0  0  0  0  0
   51.4072    6.2519   18.0442 C   0  0  0  0  0  0  0  0  0  0  0  0
   51.8436    6.2546   16.7183 C   0  0  0  0  0  0  0  0  0  0  0  0
   51.0418    6.8141   15.7186 C   0  0  0  0  0  0  0  0  0  0  0  0
   49.7871    6.8215   19.6746 O   0  0  0  0  0  0  0  0  0  0  0  0
   48.7909   16.6317   15.4823 O   0  0  0  0  0  0  0  0  0  0  0  0
   43.0813   12.6686    5.8963 O   0  0  0  0  0  0  0  0  0  0  0  0
   43.8861    2.1268   10.1312 O   0  0  0  0  0  0  0  0  0  0  0  0
   41.7906   12.7129   10.9706 H   0  0  0  0  0  0  0  0  0  0  0  0
   44.5157   11.5679    7.8718 H   0  0  0  0  0  0  0  0  0  0  0  0
   40.9419   13.7599    6.8716 H   0  0  0  0  0  0  0  0  0  0  0  0
   40.3075   13.7941    9.2852 H   0  0  0  0  0  0  0  0  0  0  0  0
   44.0100    4.0930   11.8138 H   0  0  0  0  0  0  0  0  0  0  0  0
   45.2538    2.7531    7.9138 H   0  0  0  0  0  0  0  0  0  0  0  0
   46.4521    4.8886    7.5648 H   0  0  0  0  0  0  0  0  0  0  0  0
   46.4251    6.6395    9.3233 H   0  0  0  0  0  0  0  0  0  0  0  0
   44.7410   14.1245   10.6812 H   0  0  0  0  0  0  0  0  0  0  0  0
   46.0138   13.4729    9.6247 H   0  0  0  0  0  0  0  0  0  0  0  0
   46.1743   14.4210   12.4418 H   0  0  0  0  0  0  0  0  0  0  0  0
   47.4268   14.3685   11.1755 H   0  0  0  0  0  0  0  0  0  0  0  0
   45.7861    9.4474   11.5491 H   0  0  0  0  0  0  0  0  0  0  0  0
   42.3373    7.0092   11.2130 H   0  0  0  0  0  0  0  0  0  0  0  0
   41.7177    9.5779   10.5378 H   0  0  0  0  0  0  0  0  0  0  0  0
   47.0141    8.4831   13.0276 H   0  0  0  0  0  0  0  0  0  0  0  0
   48.0320    5.0993   15.2913 H   0  0  0  0  0  0  0  0  0  0  0  0
   46.0420    4.3967   13.5820 H   0  0  0  0  0  0  0  0  0  0  0  0
   50.3461   12.2630   14.8777 H   0  0  0  0  0  0  0  0  0  0  0  0
   50.7313    9.9510   15.9204 H   0  0  0  0  0  0  0  0  0  0  0  0
   47.6815   14.3169   14.9540 H   0  0  0  0  0  0  0  0  0  0  0  0
   50.8079   17.0586   13.7921 H   0  0  0  0  0  0  0  0  0  0  0  0
   51.4967   15.5009   11.9938 H   0  0  0  0  0  0  0  0  0  0  0  0
   50.2737   13.3530   11.6777 H   0  0  0  0  0  0  0  0  0  0  0  0
   48.4039    7.8234   17.6095 H   0  0  0  0  0  0  0  0  0  0  0  0
   52.0262    5.8229   18.8263 H   0  0  0  0  0  0  0  0  0  0  0  0
   52.8107    5.8350   16.4609 H   0  0  0  0  0  0  0  0  0  0  0  0
   51.3791    6.8307   14.6818 H   0  0  0  0  0  0  0  0  0  0  0  0
   48.9522    7.3193   19.7084 H   0  0  0  0  0  0  0  0  0  0  0  0
   49.3109   17.4429   15.4097 H   0  0  0  0  0  0  0  0  0  0  0  0
   43.9604   12.2579    5.8242 H   0  0  0  0  0  0  0  0  0  0  0  0
   43.9860    1.5579    9.3491 H   0  0  0  0  0  0  0  0  0  0  0  0
 25 26  2  0
 26 27  1  0
 27 23  1  0
 28 29  1  0
  1  2  2  0
  3  4  2  0
  7  8  2  0
 14 15  1  0
 29 30  1  0
 30 31  2  0
 31 32  1  0
 32 28  2  0
 15 16  1  0
 29 33  2  0
 17 33  1  0
 16 17  1  0
 14 34  2  0
 22 34  1  0
 17 13  2  0
 27 35  2  0
 19 35  1  0
 18 19  1  0
 24 36  2  0
 32 36  1  0
  8  9  1  0
  4  5  1  0
 37 38  2  0
  9 10  2  0
 38 39  1  0
  2  3  1  0
 39 40  2  0
 10 11  1  0
 40 41  1  0
 19 20  2  0
 41 42  2  0
 42 37  1  0
 33 37  1  0
 20 21  1  0
 21 22  2  0
 43 44  2  0
 22 18  1  0
 44 45  1  0
 23 24  1  0
 45 46  2  0
  5  6  2  0
 46 47  1  0
 11 12  2  0
 47 48  2  0
 48 43  1  0
 36 43  1  0
 12  7  1  0
 45 49  1  0
 13 14  1  0
 39 50  1  0
 35 12  1  0
 34  2  1  0
  6  1  1  0
  4 51  1  0
 24 25  1  0
  8 52  1  0
  1 53  1  0
  3 54  1  0
  5 55  1  0
  6 56  1  0
  7 57  1  0
  9 58  1  0
 10 59  1  0
 11 60  1  0
 15 61  1  0
 15 62  1  0
 16 63  1  0
 16 64  1  0
 18 65  1  0
 20 66  1  0
 21 67  1  0
 23 68  1  0
 25 69  1  0
 26 70  1  0
 30 71  1  0
 31 72  1  0
 38 73  1  0
 40 74  1  0
 41 75  1  0
 42 76  1  0
 44 77  1  0
 46 78  1  0
 47 79  1  0
 48 80  1  0
 49 81  1  0
 50 82  1  0
 51 83  1  0
 52 84  1  0
M  END
> <Uni-Dock RESULT> 
ENERGY=   -5.201  LOWER_BOUND=    1.441  UPPER_BOUND=    8.182
INTER + INTRA:          -5.201
INTER:                  -5.201
INTRA:                   0.000
UNBOUND:                 0.000

$$$$

     RDKit          3D

 84 92  0  0  0  0  0  0  0  0999 V2000
   44.7833    6.1087   10.4892 C   0  0  0  0  0  0  0  0  0  0  0  0
   44.5564    6.8373   11.6630 C   0  0  0  0  0  0  0  0  0  0  0  0
   43.9420    6.2137   12.7563 C   0  0  0  0  0  0  0  0  0  0  0  0
   43.5596    4.8789   12.6637 C   0  0  0  0  0  0  0  0  0  0  0  0
   43.7763    4.1529   11.4963 C   0  0  0  0  0  0  0  0  0  0  0  0
   44.3925    4.7688   10.4055 C   0  0  0  0  0  0  0  0  0  0  0  0
   40.0151   13.4622   11.7132 C   0  0  0  0  0  0  0  0  0  0  0  0
   38.7544   13.5366   12.2957 C   0  0  0  0  0  0  0  0  0  0  0  0
   38.5202   13.0018   13.5601 C   0  0  0  0  0  0  0  0  0  0  0  0
   39.5672   12.3872   14.2510 C   0  0  0  0  0  0  0  0  0  0  0  0
   40.8369   12.3064   13.6723 C   0  0  0  0  0  0  0  0  0  0  0  0
   41.0681   12.8455   12.4010 C   0  0  0  0  0  0  0  0  0  0  0  0
   46.5537    9.9166   12.6183 N   0  0  0  0  0  0  0  0  0  0  0  0
   46.1015    8.6550   12.3645 C   0  0  0  0  0  0  0  0  0  0  0  0
   47.0877    7.6578   12.9031 C   0  0  0  0  0  0  0  0  0  0  0  0
   48.3250    8.4871   13.1306 C   0  0  0  0  0  0  0  0  0  0  0  0
   47.8275    9.9246   13.1127 C   0  0  0  0  0  0  0  0  0  0  0  0
   43.9609   10.6440   11.7949 N   0  0  0  0  0  0  0  0  0  0  0  0
   42.8846   11.3331   11.3093 C   0  0  0  0  0  0  0  0  0  0  0  0
   42.2483   10.5333   10.3813 C   0  0  0  0  0  0  0  0  0  0  0  0
   42.9185    9.2798   10.3680 C   0  0  0  0  0  0  0  0  0  0  0  0
   43.9340    9.3668   11.2939 C   0  0  0  0  0  0  0  0  0  0  0  0
   44.7138   13.8436   12.2556 N   0  0  0  0  0  0  0  0  0  0  0  0
   45.2384   15.1098   12.3326 C   0  0  0  0  0  0  0  0  0  0  0  0
   44.2719   16.0056   11.9311 C   0  0  0  0  0  0  0  0  0  0  0  0
   43.1136   15.2481   11.6214 C   0  0  0  0  0  0  0  0  0  0  0  0
   43.4033   13.9233   11.8705 C   0  0  0  0  0  0  0  0  0  0  0  0
   47.2573   13.0010   13.1045 N   0  0  0  0  0  0  0  0  0  0  0  0
   48.3748   12.2874   13.4635 C   0  0  0  0  0  0  0  0  0  0  0  0
   49.3713   13.2969   13.8196 C   0  0  0  0  0  0  0  0  0  0  0  0
   48.8600   14.5073   13.6267 C   0  0  0  0  0  0  0  0  0  0  0  0
   47.5029   14.3499   13.1602 C   0  0  0  0  0  0  0  0  0  0  0  0
   48.6667   10.9445   13.4977 C   0  0  0  0  0  0  0  0  0  0  0  0
   44.9483    8.2564   11.7607 C   0  0  0  0  0  0  0  0  0  0  0  0
   42.4004   12.7350   11.7829 C   0  0  0  0  0  0  0  0  0  0  0  0
   46.7046   15.4056   12.8451 C   0  0  0  0  0  0  0  0  0  0  0  0
   50.0284   10.5471   13.9728 C   0  0  0  0  0  0  0  0  0  0  0  0
   51.0927   10.3822   13.0716 C   0  0  0  0  0  0  0  0  0  0  0  0
   52.3420    9.9900   13.5414 C   0  0  0  0  0  0  0  0  0  0  0  0
   52.5568    9.7694   14.9026 C   0  0  0  0  0  0  0  0  0  0  0  0
   51.5075    9.9411   15.8053 C   0  0  0  0  0  0  0  0  0  0  0  0
   50.2490   10.3274   15.3421 C   0  0  0  0  0  0  0  0  0  0  0  0
   47.1702   16.8059   12.8984 C   0  0  0  0  0  0  0  0  0  0  0  0
   47.7337   17.3886   11.7542 C   0  0  0  0  0  0  0  0  0  0  0  0
   48.1716   18.7091   11.7984 C   0  0  0  0  0  0  0  0  0  0  0  0
   48.0534   19.4648   12.9621 C   0  0  0  0  0  0  0  0  0  0  0  0
   47.5008   18.8856   14.1056 C   0  0  0  0  0  0  0  0  0  0  0  0
   47.0603   17.5589   14.0752 C   0  0  0  0  0  0  0  0  0  0  0  0
   48.7388   19.2982   10.7015 O   0  0  0  0  0  0  0  0  0  0  0  0
   53.3535    9.8237   12.6365 O   0  0  0  0  0  0  0  0  0  0  0  0
   42.9651    4.2463   13.7181 O   0  0  0  0  0  0  0  0  0  0  0  0
   37.7558   14.1478   11.5880 O   0  0  0  0  0  0  0  0  0  0  0  0
   45.2674    6.5999    9.6467 H   0  0  0  0  0  0  0  0  0  0  0  0
   43.7812    6.7962   13.6583 H   0  0  0  0  0  0  0  0  0  0  0  0
   43.4793    3.1094   11.4461 H   0  0  0  0  0  0  0  0  0  0  0  0
   44.5762    4.2108    9.4935 H   0  0  0  0  0  0  0  0  0  0  0  0
   40.1831   13.8751   10.7238 H   0  0  0  0  0  0  0  0  0  0  0  0
   37.5409   13.0549   14.0250 H   0  0  0  0  0  0  0  0  0  0  0  0
   39.4013   11.9699   15.2415 H   0  0  0  0  0  0  0  0  0  0  0  0
   41.6515   11.8168   14.2061 H   0  0  0  0  0  0  0  0  0  0  0  0
   47.3013    6.8353   12.2137 H   0  0  0  0  0  0  0  0  0  0  0  0
   46.7337    7.2342   13.8506 H   0  0  0  0  0  0  0  0  0  0  0  0
   49.0378    8.3242   12.3132 H   0  0  0  0  0  0  0  0  0  0  0  0
   48.7929    8.1900   14.0730 H   0  0  0  0  0  0  0  0  0  0  0  0
   44.7049   10.9505   12.4249 H   0  0  0  0  0  0  0  0  0  0  0  0
   41.3738   10.8074    9.8105 H   0  0  0  0  0  0  0  0  0  0  0  0
   42.6737    8.4100    9.7769 H   0  0  0  0  0  0  0  0  0  0  0  0
   45.2712   13.0236   12.5005 H   0  0  0  0  0  0  0  0  0  0  0  0
   44.3869   17.0791   11.8831 H   0  0  0  0  0  0  0  0  0  0  0  0
   42.1610   15.6374   11.2981 H   0  0  0  0  0  0  0  0  0  0  0  0
   50.3802   13.1029   14.1449 H   0  0  0  0  0  0  0  0  0  0  0  0
   49.3808   15.4368   13.7766 H   0  0  0  0  0  0  0  0  0  0  0  0
   50.9155   10.5552   12.0126 H   0  0  0  0  0  0  0  0  0  0  0  0
   53.5297    9.4700   15.2730 H   0  0  0  0  0  0  0  0  0  0  0  0
   51.6577    9.7733   16.8663 H   0  0  0  0  0  0  0  0  0  0  0  0
   49.4155   10.4656   16.0282 H   0  0  0  0  0  0  0  0  0  0  0  0
   47.8202   16.7854   10.8538 H   0  0  0  0  0  0  0  0  0  0  0  0
   48.4014   20.4931   12.9795 H   0  0  0  0  0  0  0  0  0  0  0  0
   47.4233   19.4577   15.0244 H   0  0  0  0  0  0  0  0  0  0  0  0
   46.6375   17.0944   14.9665 H   0  0  0  0  0  0  0  0  0  0  0  0
   48.8037   18.6033   10.0242 H   0  0  0  0  0  0  0  0  0  0  0  0
   54.1181    9.4763   13.1145 H   0  0  0  0  0  0  0  0  0  0  0  0
   42.9612    4.8808   14.4558 H   0  0  0  0  0  0  0  0  0  0  0  0
   36.9450   14.1156   12.1236 H   0  0  0  0  0  0  0  0  0  0  0  0
 25 26  2  0
 26 27  1  0
 27 23  1  0
 28 29  1  0
  1  2  2  0
  3  4  2  0
  7  8  2  0
 14 15  1  0
 29 30  1  0
 30 31  2  0
 31 32  1  0
 32 28  2  0
 15 16  1  0
 29 33  2  0
 17 33  1  0
 16 17  1  0
 14 34  2  0
 22 34  1  0
 17 13  2  0
 27 35  2  0
 19 35  1  0
 18 19  1  0
 24 36  2  0
 32 36  1  0
  8  9  1  0
  4  5  1  0
 37 38  2  0
  9 10  2  0
 38 39  1  0
  2  3  1  0
 39 40  2  0
 10 11  1  0
 40 41  1  0
 19 20  2  0
 41 42  2  0
 42 37  1  0
 33 37  1  0
 20 21  1  0
 21 22  2  0
 43 44  2  0
 22 18  1  0
 44 45  1  0
 23 24  1  0
 45 46  2  0
  5  6  2  0
 46 47  1  0
 11 12  2  0
 47 48  2  0
 48 43  1  0
 36 43  1  0
 12  7  1  0
 45 49  1  0
 13 14  1  0
 39 50  1  0
 35 12  1  0
 34  2  1  0
  6  1  1  0
  4 51  1  0
 24 25  1  0
  8 52  1  0
  1 53  1  0
  3 54  1  0
  5 55  1  0
  6 56  1  0
  7 57  1  0
  9 58  1  0
 10 59  1  0
 11 60  1  0
 15 61  1  0
 15 62  1  0
 16 63  1  0
 16 64  1  0
 18 65  1  0
 20 66  1  0
 21 67  1  0
 23 68  1  0
 25 69  1  0
 26 70  1  0
 30 71  1  0
 31 72  1  0
 38 73  1  0
 40 74  1  0
 41 75  1  0
 42 76  1  0
 44 77  1  0
 46 78  1  0
 47 79  1  0
 48 80  1  0
 49 81  1  0
 50 82  1  0
 51 83  1  0
 52 84  1  0
M  END
> <Uni-Dock RESULT> 
ENERGY=   -4.944  LOWER_BOUND=    2.677  UPPER_BOUND=   10.593
INTER + INTRA:          -4.944
INTER:                  -4.944
INTRA:                   0.000
UNBOUND:                 0.000

$$$$

     RDKit          3D

 84 92  0  0  0  0  0  0  0  0999 V2000
   48.9860    7.9369   15.0958 C   0  0  0  0  0  0  0  0  0  0  0  0
   48.8050    7.6915   13.7294 C   0  0  0  0  0  0  0  0  0  0  0  0
   48.2418    6.4785   13.3133 C   0  0  0  0  0  0  0  0  0  0  0  0
   47.8725    5.5285   14.2607 C   0  0  0  0  0  0  0  0  0  0  0  0
   48.0576    5.7650   15.6196 C   0  0  0  0  0  0  0  0  0  0  0  0
   48.6143    6.9745   16.0395 C   0  0  0  0  0  0  0  0  0  0  0  0
   54.9765    7.6505    8.5889 C   0  0  0  0  0  0  0  0  0  0  0  0
   55.4737    6.5034    7.9796 C   0  0  0  0  0  0  0  0  0  0  0  0
   54.6125    5.5608    7.4232 C   0  0  0  0  0  0  0  0  0  0  0  0
   53.2331    5.7749    7.4757 C   0  0  0  0  0  0  0  0  0  0  0  0
   52.7247    6.9240    8.0876 C   0  0  0  0  0  0  0  0  0  0  0  0
   53.5941    7.8691    8.6456 C   0  0  0  0  0  0  0  0  0  0  0  0
   48.5116   10.4489   11.1420 N   0  0  0  0  0  0  0  0  0  0  0  0
   48.3180    9.5456   12.1455 C   0  0  0  0  0  0  0  0  0  0  0  0
   46.8755    9.5728   12.5647 C   0  0  0  0  0  0  0  0  0  0  0  0
   46.3690   10.8605   11.9683 C   0  0  0  0  0  0  0  0  0  0  0  0
   47.4145   11.2350   10.9288 C   0  0  0  0  0  0  0  0  0  0  0  0
   51.0090    9.1650   10.9305 N   0  0  0  0  0  0  0  0  0  0  0  0
   52.3236    8.8885   10.6769 C   0  0  0  0  0  0  0  0  0  0  0  0
   52.8741    8.3439   11.8197 C   0  0  0  0  0  0  0  0  0  0  0  0
   51.8289    8.2089   12.7737 C   0  0  0  0  0  0  0  0  0  0  0  0
   50.6821    8.6731   12.1692 C   0  0  0  0  0  0  0  0  0  0  0  0
   51.8583   11.2255    8.4709 N   0  0  0  0  0  0  0  0  0  0  0  0
   52.1121   12.2543    7.5982 C   0  0  0  0  0  0  0  0  0  0  0  0
   53.4107   12.1367    7.1540 C   0  0  0  0  0  0  0  0  0  0  0  0
   53.9512   10.9782    7.7681 C   0  0  0  0  0  0  0  0  0  0  0  0
   52.9584   10.4149    8.5414 C   0  0  0  0  0  0  0  0  0  0  0  0
   49.3198   12.4021    8.7384 N   0  0  0  0  0  0  0  0  0  0  0  0
   48.0411   12.7458    9.1039 C   0  0  0  0  0  0  0  0  0  0  0  0
   47.7022   13.8940    8.2638 C   0  0  0  0  0  0  0  0  0  0  0  0
   48.7459   14.2072    7.5046 C   0  0  0  0  0  0  0  0  0  0  0  0
   49.8049   13.2692    7.7920 C   0  0  0  0  0  0  0  0  0  0  0  0
   47.1641   12.2575   10.0430 C   0  0  0  0  0  0  0  0  0  0  0  0
   49.2074    8.6906   12.7210 C   0  0  0  0  0  0  0  0  0  0  0  0
   53.0542    9.0657    9.3134 C   0  0  0  0  0  0  0  0  0  0  0  0
   51.0258   13.3298    7.1945 C   0  0  0  0  0  0  0  0  0  0  0  0
   45.8198   12.9073   10.1344 C   0  0  0  0  0  0  0  0  0  0  0  0
   45.5895   13.9800   11.0110 C   0  0  0  0  0  0  0  0  0  0  0  0
   44.3225   14.5489   11.0899 C   0  0  0  0  0  0  0  0  0  0  0  0
   43.2757   14.0751   10.2977 C   0  0  0  0  0  0  0  0  0  0  0  0
   43.4988   13.0168    9.4170 C   0  0  0  0  0  0  0  0  0  0  0  0
   44.7650   12.4353    9.3365 C   0  0  0  0  0  0  0  0  0  0  0  0
   51.3980   14.3925    6.2391 C   0  0  0  0  0  0  0  0  0  0  0  0
   52.0030   15.5649    6.7141 C   0  0  0  0  0  0  0  0  0  0  0  0
   52.3584   16.5684    5.8173 C   0  0  0  0  0  0  0  0  0  0  0  0
   52.1275   16.4239    4.4517 C   0  0  0  0  0  0  0  0  0  0  0  0
   51.5178   15.2618    3.9760 C   0  0  0  0  0  0  0  0  0  0  0  0
   51.1529   14.2477    4.8669 C   0  0  0  0  0  0  0  0  0  0  0  0
   52.9363   17.7289    6.2545 O   0  0  0  0  0  0  0  0  0  0  0  0
   44.1273   15.5819   11.9641 O   0  0  0  0  0  0  0  0  0  0  0  0
   47.3151    4.3409   13.8807 O   0  0  0  0  0  0  0  0  0  0  0  0
   56.8304    6.3311    7.9470 O   0  0  0  0  0  0  0  0  0  0  0  0
   49.4185    8.8854   15.4103 H   0  0  0  0  0  0  0  0  0  0  0  0
   48.1053    6.3119   12.2491 H   0  0  0  0  0  0  0  0  0  0  0  0
   47.7546    5.0154   16.3446 H   0  0  0  0  0  0  0  0  0  0  0  0
   48.7543    7.1751   17.0964 H   0  0  0  0  0  0  0  0  0  0  0  0
   55.6573    8.3735    9.0264 H   0  0  0  0  0  0  0  0  0  0  0  0
   54.9890    4.6626    6.9444 H   0  0  0  0  0  0  0  0  0  0  0  0
   52.5481    5.0507    7.0407 H   0  0  0  0  0  0  0  0  0  0  0  0
   51.6480    7.0859    8.1391 H   0  0  0  0  0  0  0  0  0  0  0  0
   46.7336    9.5732   13.6497 H   0  0  0  0  0  0  0  0  0  0  0  0
   46.3324    8.7185   12.1434 H   0  0  0  0  0  0  0  0  0  0  0  0
   46.3142   11.6338   12.7441 H   0  0  0  0  0  0  0  0  0  0  0  0
   45.3690   10.7010   11.5561 H   0  0  0  0  0  0  0  0  0  0  0  0
   50.3185    9.6499   10.3538 H   0  0  0  0  0  0  0  0  0  0  0  0
   53.9030    8.0384   11.9372 H   0  0  0  0  0  0  0  0  0  0  0  0
   51.8973    7.7971   13.7695 H   0  0  0  0  0  0  0  0  0  0  0  0
   50.9499   11.1304    8.9278 H   0  0  0  0  0  0  0  0  0  0  0  0
   53.9023   12.8009    6.4574 H   0  0  0  0  0  0  0  0  0  0  0  0
   54.9420   10.5779    7.6205 H   0  0  0  0  0  0  0  0  0  0  0  0
   46.7722   14.4381    8.2809 H   0  0  0  0  0  0  0  0  0  0  0  0
   48.7910   15.0301    6.8129 H   0  0  0  0  0  0  0  0  0  0  0  0
   46.4110   14.3417   11.6253 H   0  0  0  0  0  0  0  0  0  0  0  0
   42.2893   14.5194   10.3516 H   0  0  0  0  0  0  0  0  0  0  0  0
   42.6960   12.6365    8.7947 H   0  0  0  0  0  0  0  0  0  0  0  0
   44.9613   11.6075    8.6577 H   0  0  0  0  0  0  0  0  0  0  0  0
   52.1754   15.6634    7.7830 H   0  0  0  0  0  0  0  0  0  0  0  0
   52.4098   17.2172    3.7662 H   0  0  0  0  0  0  0  0  0  0  0  0
   51.3132   15.1469    2.9165 H   0  0  0  0  0  0  0  0  0  0  0  0
   50.6661   13.3412    4.5061 H   0  0  0  0  0  0  0  0  0  0  0  0
   52.9457   17.6774    7.2257 H   0  0  0  0  0  0  0  0  0  0  0  0
   43.1863   15.8011   11.9510 H   0  0  0  0  0  0  0  0  0  0  0  0
   47.2012    4.3842   12.9153 H   0  0  0  0  0  0  0  0  0  0  0  0
   57.0157    5.4899    7.4959 H   0  0  0  0  0  0  0  0  0  0  0  0
 25 26  2  0
 26 27  1  0
 27 23  1  0
 28 29  1  0
  1  2  2  0
  3  4  2  0
  7  8  2  0
 14 15  1  0
 29 30  1  0
 30 31  2  0
 31 32  1  0
 32 28  2  0
 15 16  1  0
 29 33  2  0
 17 33  1  0
 16 17  1  0
 14 34  2  0
 22 34  1  0
 17 13  2  0
 27 35  2  0
 19 35  1  0
 18 19  1  0
 24 36  2  0
 32 36  1  0
  8  9  1  0
  4  5  1  0
 37 38  2  0
  9 10  2  0
 38 39  1  0
  2  3  1  0
 39 40  2  0
 10 11  1  0
 40 41  1  0
 19 20  2  0
 41 42  2  0
 42 37  1  0
 33 37  1  0
 20 21  1  0
 21 22  2  0
 43 44  2  0
 22 18  1  0
 44 45  1  0
 23 24  1  0
 45 46  2  0
  5  6  2  0
 46 47  1  0
 11 12  2  0
 47 48  2  0
 48 43  1  0
 36 43  1  0
 12  7  1  0
 45 49  1  0
 13 14  1  0
 39 50  1  0
 35 12  1  0
 34  2  1  0
  6  1  1  0
  4 51  1  0
 24 25  1  0
  8 52  1  0
  1 53  1  0
  3 54  1  0
  5 55  1  0
  6 56  1  0
  7 57  1  0
  9 58  1  0
 10 59  1  0
 11 60  1  0
 15 61  1  0
 15 62  1  0
 16 63  1  0
 16 64  1  0
 18 65  1  0
 20 66  1  0
 21 67  1  0
 23 68  1  0
 25 69  1  0
 26 70  1  0
 30 71  1  0
 31 72  1  0
 38 73  1  0
 40 74  1  0
 41 75  1  0
 42 76  1  0
 44 77  1  0
 46 78  1  0
 47 79  1  0
 48 80  1  0
 49 81  1  0
 50 82  1  0
 51 83  1  0
 52 84  1  0
M  END
> <Uni-Dock RESULT> 
ENERGY=   -4.411  LOWER_BOUND=    5.824  UPPER_BOUND=    9.077
INTER + INTRA:          -4.411
INTER:                  -4.411
INTRA:                   0.000
UNBOUND:                 0.000

$$$$
