
     RDKit          3D

 84 92  0  0  0  0  0  0  0  0999 V2000
   41.5880   13.3989   11.1720 C   0  0  0  0  0  0  0  0  0  0  0  0
   42.5712   12.8277   10.3538 C   0  0  0  0  0  0  0  0  0  0  0  0
   42.4164   12.8579    8.9632 C   0  0  0  0  0  0  0  0  0  0  0  0
   41.2862   13.4539    8.4104 C   0  0  0  0  0  0  0  0  0  0  0  0
   40.3099   14.0270    9.2191 C   0  0  0  0  0  0  0  0  0  0  0  0
   40.4594   13.9981   10.6062 C   0  0  0  0  0  0  0  0  0  0  0  0
   49.7923   15.7407   13.2776 C   0  0  0  0  0  0  0  0  0  0  0  0
   50.2389   17.0303   13.5473 C   0  0  0  0  0  0  0  0  0  0  0  0
   49.4434   17.9317   14.2523 C   0  0  0  0  0  0  0  0  0  0  0  0
   48.1799   17.5348   14.6911 C   0  0  0  0  0  0  0  0  0  0  0  0
   47.7216   16.2429   14.4227 C   0  0  0  0  0  0  0  0  0  0  0  0
   48.5249   15.3379   13.7160 C   0  0  0  0  0  0  0  0  0  0  0  0
   44.8818   10.1729   11.7626 N   0  0  0  0  0  0  0  0  0  0  0  0
   43.8660   10.8785   11.1890 C   0  0  0  0  0  0  0  0  0  0  0  0
   42.7444    9.9341   10.8525 C   0  0  0  0  0  0  0  0  0  0  0  0
   43.4460    8.6023   10.8176 C   0  0  0  0  0  0  0  0  0  0  0  0
   44.6723    8.8241   11.6889 C   0  0  0  0  0  0  0  0  0  0  0  0
   45.9279   12.7958   12.2958 N   0  0  0  0  0  0  0  0  0  0  0  0
   46.8199   13.8303   12.4207 C   0  0  0  0  0  0  0  0  0  0  0  0
   46.4727   14.7944   11.4891 C   0  0  0  0  0  0  0  0  0  0  0  0
   45.3031   14.3601   10.8236 C   0  0  0  0  0  0  0  0  0  0  0  0
   44.9822   13.1347   11.3547 C   0  0  0  0  0  0  0  0  0  0  0  0
   48.4404   11.4078   13.9579 N   0  0  0  0  0  0  0  0  0  0  0  0
   49.2297   10.6801   14.8220 C   0  0  0  0  0  0  0  0  0  0  0  0
   49.9743   11.5532   15.5793 C   0  0  0  0  0  0  0  0  0  0  0  0
   49.6187   12.8579   15.1659 C   0  0  0  0  0  0  0  0  0  0  0  0
   48.6760   12.7468   14.1573 C   0  0  0  0  0  0  0  0  0  0  0  0
   47.2164    8.8746   13.4889 N   0  0  0  0  0  0  0  0  0  0  0  0
   46.4757    7.8251   13.0021 C   0  0  0  0  0  0  0  0  0  0  0  0
   47.1275    6.6246   13.5180 C   0  0  0  0  0  0  0  0  0  0  0  0
   48.1731    6.9775   14.2576 C   0  0  0  0  0  0  0  0  0  0  0  0
   48.2583    8.4182   14.2501 C   0  0  0  0  0  0  0  0  0  0  0  0
   45.3569    7.7517   12.2091 C   0  0  0  0  0  0  0  0  0  0  0  0
   43.7719   12.2119   10.9501 C   0  0  0  0  0  0  0  0  0  0  0  0
   48.0233   13.9726   13.4217 C   0  0  0  0  0  0  0  0  0  0  0  0
   49.2329    9.1006   14.9049 C   0  0  0  0  0  0  0  0  0  0  0  0
   44.8286    6.3924   11.8786 C   0  0  0  0  0  0  0  0  0  0  0  0
   45.2460    5.7218   10.7193 C   0  0  0  0  0  0  0  0  0  0  0  0
   44.7412    4.4584   10.4327 C   0  0  0  0  0  0  0  0  0  0  0  0
   43.8235    3.8431   11.2847 C   0  0  0  0  0  0  0  0  0  0  0  0
   43.4091    4.5008   12.4433 C   0  0  0  0  0  0  0  0  0  0  0  0
   43.9090    5.7698   12.7381 C   0  0  0  0  0  0  0  0  0  0  0  0
   50.3101    8.4287   15.6611 C   0  0  0  0  0  0  0  0  0  0  0  0
   51.4231    7.9143   14.9869 C   0  0  0  0  0  0  0  0  0  0  0  0
   52.4412    7.2978   15.7090 C   0  0  0  0  0  0  0  0  0  0  0  0
   52.3743    7.1952   17.0948 C   0  0  0  0  0  0  0  0  0  0  0  0
   51.2641    7.7013   17.7710 C   0  0  0  0  0  0  0  0  0  0  0  0
   50.2325    8.3134   17.0548 C   0  0  0  0  0  0  0  0  0  0  0  0
   53.5310    6.7701   15.0751 O   0  0  0  0  0  0  0  0  0  0  0  0
   45.1680    3.8301    9.2959 O   0  0  0  0  0  0  0  0  0  0  0  0
   41.1054   13.4916    7.0566 O   0  0  0  0  0  0  0  0  0  0  0  0
   51.4776   17.3875   13.0977 O   0  0  0  0  0  0  0  0  0  0  0  0
   41.7146   13.3639   12.2525 H   0  0  0  0  0  0  0  0  0  0  0  0
   43.1890   12.4055    8.3473 H   0  0  0  0  0  0  0  0  0  0  0  0
   39.4357   14.4867    8.7707 H   0  0  0  0  0  0  0  0  0  0  0  0
   39.7024   14.4360   11.2489 H   0  0  0  0  0  0  0  0  0  0  0  0
   50.4207   15.0460   12.7247 H   0  0  0  0  0  0  0  0  0  0  0  0
   49.7868   18.9374   14.4664 H   0  0  0  0  0  0  0  0  0  0  0  0
   47.5458   18.2259   15.2391 H   0  0  0  0  0  0  0  0  0  0  0  0
   46.7334   15.9326   14.7589 H   0  0  0  0  0  0  0  0  0  0  0  0
   42.2532   10.1313    9.8957 H   0  0  0  0  0  0  0  0  0  0  0  0
   41.9871    9.9508   11.6457 H   0  0  0  0  0  0  0  0  0  0  0  0
   42.7640    7.8222   11.1697 H   0  0  0  0  0  0  0  0  0  0  0  0
   43.7555    8.3637    9.7917 H   0  0  0  0  0  0  0  0  0  0  0  0
   45.9301   11.8749   12.7358 H   0  0  0  0  0  0  0  0  0  0  0  0
   46.9949   15.7237   11.3147 H   0  0  0  0  0  0  0  0  0  0  0  0
   44.7611   14.8751   10.0445 H   0  0  0  0  0  0  0  0  0  0  0  0
   47.7745   10.9483   13.3329 H   0  0  0  0  0  0  0  0  0  0  0  0
   50.6866   11.2848   16.3458 H   0  0  0  0  0  0  0  0  0  0  0  0
   50.0145   13.7801   15.5690 H   0  0  0  0  0  0  0  0  0  0  0  0
   46.8184    5.6106   13.3403 H   0  0  0  0  0  0  0  0  0  0  0  0
   48.8323    6.3009   14.7701 H   0  0  0  0  0  0  0  0  0  0  0  0
   45.9617    6.2041   10.0598 H   0  0  0  0  0  0  0  0  0  0  0  0
   43.4262    2.8594   11.0654 H   0  0  0  0  0  0  0  0  0  0  0  0
   42.7004    4.0373   13.1205 H   0  0  0  0  0  0  0  0  0  0  0  0
   43.5992    6.3002   13.6359 H   0  0  0  0  0  0  0  0  0  0  0  0
   51.4582    8.0058   13.9048 H   0  0  0  0  0  0  0  0  0  0  0  0
   53.1790    6.7163   17.6430 H   0  0  0  0  0  0  0  0  0  0  0  0
   51.1964    7.6216   18.8513 H   0  0  0  0  0  0  0  0  0  0  0  0
   49.3596    8.7091   17.5714 H   0  0  0  0  0  0  0  0  0  0  0  0
   53.3350    6.8023   14.1215 H   0  0  0  0  0  0  0  0  0  0  0  0
   44.7310    2.9685    9.2530 H   0  0  0  0  0  0  0  0  0  0  0  0
   41.8455   12.9921    6.6694 H   0  0  0  0  0  0  0  0  0  0  0  0
   51.6293   18.3160   13.3318 H   0  0  0  0  0  0  0  0  0  0  0  0
 25 26  2  0
 26 27  1  0
 27 23  1  0
 28 29  1  0
  1  2  2  0
  3  4  2  0
  7  8  2  0
 14 15  1  0
 29 30  1  0
 30 31  2  0
 31 32  1  0
 32 28  2  0
 15 16  1  0
 29 33  2  0
 17 33  1  0
 16 17  1  0
 14 34  2  0
 22 34  1  0
 17 13  2  0
 27 35  2  0
 19 35  1  0
 18 19  1  0
 24 36  2  0
 32 36  1  0
  8  9  1  0
  4  5  1  0
 37 38  2  0
  9 10  2  0
 38 39  1  0
  2  3  1  0
 39 40  2  0
 10 11  1  0
 40 41  1  0
 19 20  2  0
 41 42  2  0
 42 37  1  0
 33 37  1  0
 20 21  1  0
 21 22  2  0
 43 44  2  0
 22 18  1  0
 44 45  1  0
 23 24  1  0
 45 46  2  0
  5  6  2  0
 46 47  1  0
 11 12  2  0
 47 48  2  0
 48 43  1  0
 36 43  1  0
 12  7  1  0
 45 49  1  0
 13 14  1  0
 39 50  1  0
 35 12  1  0
 34  2  1  0
  6  1  1  0
  4 51  1  0
 24 25  1  0
  8 52  1  0
  1 53  1  0
  3 54  1  0
  5 55  1  0
  6 56  1  0
  7 57  1  0
  9 58  1  0
 10 59  1  0
 11 60  1  0
 15 61  1  0
 15 62  1  0
 16 63  1  0
 16 64  1  0
 18 65  1  0
 20 66  1  0
 21 67  1  0
 23 68  1  0
 25 69  1  0
 26 70  1  0
 30 71  1  0
 31 72  1  0
 38 73  1  0
 40 74  1  0
 41 75  1  0
 42 76  1  0
 44 77  1  0
 46 78  1  0
 47 79  1  0
 48 80  1  0
 49 81  1  0
 50 82  1  0
 51 83  1  0
 52 84  1  0
M  END
> <Uni-Dock RESULT> 
ENERGY=   -6.045  LOWER_BOUND=    0.000  UPPER_BOUND=    0.000
INTER + INTRA:          -6.045
INTER:                  -6.045
INTRA:                   0.000
UNBOUND:                 0.000

$$$$

     RDKit          3D

 84 92  0  0  0  0  0  0  0  0999 V2000
   52.3717    8.5740   13.4176 C   0  0  0  0  0  0  0  0  0  0  0  0
   51.2907    8.5030   14.3057 C   0  0  0  0  0  0  0  0  0  0  0  0
   51.4458    7.8474   15.5324 C   0  0  0  0  0  0  0  0  0  0  0  0
   52.6723    7.2726   15.8540 C   0  0  0  0  0  0  0  0  0  0  0  0
   53.7500    7.3453   14.9771 C   0  0  0  0  0  0  0  0  0  0  0  0
   53.5995    7.9969   13.7524 C   0  0  0  0  0  0  0  0  0  0  0  0
   48.2661   16.2424   14.6705 C   0  0  0  0  0  0  0  0  0  0  0  0
   48.8699   17.4705   14.9202 C   0  0  0  0  0  0  0  0  0  0  0  0
   50.0574   17.8280   14.2844 C   0  0  0  0  0  0  0  0  0  0  0  0
   50.6500   16.9394   13.3868 C   0  0  0  0  0  0  0  0  0  0  0  0
   50.0527   15.7027   13.1317 C   0  0  0  0  0  0  0  0  0  0  0  0
   48.8571   15.3473   13.7704 C   0  0  0  0  0  0  0  0  0  0  0  0
   47.7522    8.8708   12.9958 N   0  0  0  0  0  0  0  0  0  0  0  0
   48.9773    8.4316   13.4019 C   0  0  0  0  0  0  0  0  0  0  0  0
   49.0936    6.9620   13.1016 C   0  0  0  0  0  0  0  0  0  0  0  0
   47.6521    6.5446   12.9791 C   0  0  0  0  0  0  0  0  0  0  0  0
   46.9367    7.8386   12.6241 C   0  0  0  0  0  0  0  0  0  0  0  0
   48.8841   11.4512   13.5599 N   0  0  0  0  0  0  0  0  0  0  0  0
   48.9967   12.7430   14.0073 C   0  0  0  0  0  0  0  0  0  0  0  0
   49.9452   12.7530   15.0164 C   0  0  0  0  0  0  0  0  0  0  0  0
   50.4653   11.4443   15.1425 C   0  0  0  0  0  0  0  0  0  0  0  0
   49.8049   10.6697   14.2203 C   0  0  0  0  0  0  0  0  0  0  0  0
   46.1046   12.8679   12.4331 N   0  0  0  0  0  0  0  0  0  0  0  0
   45.0170   13.2670   11.6869 C   0  0  0  0  0  0  0  0  0  0  0  0
   45.1059   14.6215   11.4687 C   0  0  0  0  0  0  0  0  0  0  0  0
   46.2941   15.0593   12.0980 C   0  0  0  0  0  0  0  0  0  0  0  0
   46.8927   13.9626   12.6957 C   0  0  0  0  0  0  0  0  0  0  0  0
   45.1601   10.2568   11.7810 N   0  0  0  0  0  0  0  0  0  0  0  0
   44.9376    8.9035   11.7052 C   0  0  0  0  0  0  0  0  0  0  0  0
   43.6147    8.7660   11.1025 C   0  0  0  0  0  0  0  0  0  0  0  0
   43.1218    9.9731   10.8483 C   0  0  0  0  0  0  0  0  0  0  0  0
   44.0913   10.9506   11.2813 C   0  0  0  0  0  0  0  0  0  0  0  0
   45.6823    7.8065   12.0631 C   0  0  0  0  0  0  0  0  0  0  0  0
   49.9999    9.1286   13.9607 C   0  0  0  0  0  0  0  0  0  0  0  0
   48.2382   14.0248   13.5052 C   0  0  0  0  0  0  0  0  0  0  0  0
   43.8850   12.2886   11.1740 C   0  0  0  0  0  0  0  0  0  0  0  0
   45.0871    6.4557   11.8243 C   0  0  0  0  0  0  0  0  0  0  0  0
   44.3371    5.8147   12.8216 C   0  0  0  0  0  0  0  0  0  0  0  0
   43.7931    4.5588   12.5767 C   0  0  0  0  0  0  0  0  0  0  0  0
   43.9800    3.9238   11.3486 C   0  0  0  0  0  0  0  0  0  0  0  0
   44.7188    4.5582   10.3492 C   0  0  0  0  0  0  0  0  0  0  0  0
   45.2700    5.8179   10.5867 C   0  0  0  0  0  0  0  0  0  0  0  0
   42.6377   12.8647   10.6299 C   0  0  0  0  0  0  0  0  0  0  0  0
   41.5039   12.9734   11.4425 C   0  0  0  0  0  0  0  0  0  0  0  0
   40.3381   13.5328   10.9267 C   0  0  0  0  0  0  0  0  0  0  0  0
   40.2864   13.9969    9.6163 C   0  0  0  0  0  0  0  0  0  0  0  0
   41.4123   13.8854    8.8003 C   0  0  0  0  0  0  0  0  0  0  0  0
   42.5843   13.3169    9.3053 C   0  0  0  0  0  0  0  0  0  0  0  0
   39.2103   13.6347   11.6919 O   0  0  0  0  0  0  0  0  0  0  0  0
   43.0664    3.9603   13.5682 O   0  0  0  0  0  0  0  0  0  0  0  0
   52.8503    6.6202   17.0412 O   0  0  0  0  0  0  0  0  0  0  0  0
   48.2665   18.3132   15.8091 O   0  0  0  0  0  0  0  0  0  0  0  0
   52.2384    9.0802   12.4632 H   0  0  0  0  0  0  0  0  0  0  0  0
   50.5934    7.8005   16.2047 H   0  0  0  0  0  0  0  0  0  0  0  0
   54.6980    6.8912   15.2444 H   0  0  0  0  0  0  0  0  0  0  0  0
   54.4302    8.0557   13.0564 H   0  0  0  0  0  0  0  0  0  0  0  0
   47.3403   15.9728   15.1740 H   0  0  0  0  0  0  0  0  0  0  0  0
   50.5316   18.7842   14.4742 H   0  0  0  0  0  0  0  0  0  0  0  0
   51.5773   17.2009   12.8851 H   0  0  0  0  0  0  0  0  0  0  0  0
   50.5163   15.0048   12.4360 H   0  0  0  0  0  0  0  0  0  0  0  0
   49.5955    6.3761   13.8764 H   0  0  0  0  0  0  0  0  0  0  0  0
   49.6209    6.8122   12.1516 H   0  0  0  0  0  0  0  0  0  0  0  0
   47.5656    5.7491   12.2325 H   0  0  0  0  0  0  0  0  0  0  0  0
   47.2837    6.1667   13.9417 H   0  0  0  0  0  0  0  0  0  0  0  0
   48.2168   11.0431   12.9044 H   0  0  0  0  0  0  0  0  0  0  0  0
   50.2467   13.6149   15.5935 H   0  0  0  0  0  0  0  0  0  0  0  0
   51.2266   11.1032   15.8282 H   0  0  0  0  0  0  0  0  0  0  0  0
   46.2537   11.8846   12.6700 H   0  0  0  0  0  0  0  0  0  0  0  0
   44.4019   15.2257   10.9152 H   0  0  0  0  0  0  0  0  0  0  0  0
   46.6685   16.0738   12.1086 H   0  0  0  0  0  0  0  0  0  0  0  0
   43.1099    7.8417   10.8878 H   0  0  0  0  0  0  0  0  0  0  0  0
   42.1680   10.1757   10.3964 H   0  0  0  0  0  0  0  0  0  0  0  0
   44.1928    6.3135   13.7757 H   0  0  0  0  0  0  0  0  0  0  0  0
   43.5594    2.9449   11.1530 H   0  0  0  0  0  0  0  0  0  0  0  0
   44.8712    4.0833    9.3865 H   0  0  0  0  0  0  0  0  0  0  0  0
   45.8493    6.3301    9.8216 H   0  0  0  0  0  0  0  0  0  0  0  0
   41.5643   12.6072   12.4638 H   0  0  0  0  0  0  0  0  0  0  0  0
   39.3714   14.4350    9.2314 H   0  0  0  0  0  0  0  0  0  0  0  0
   41.3831   14.2373    7.7740 H   0  0  0  0  0  0  0  0  0  0  0  0
   43.4682   13.2216    8.6769 H   0  0  0  0  0  0  0  0  0  0  0  0
   39.3876   13.1345   12.5087 H   0  0  0  0  0  0  0  0  0  0  0  0
   42.7574    3.1072   13.2338 H   0  0  0  0  0  0  0  0  0  0  0  0
   51.9828    6.6167   17.4823 H   0  0  0  0  0  0  0  0  0  0  0  0
   48.8193   19.1044   15.9003 H   0  0  0  0  0  0  0  0  0  0  0  0
 25 26  2  0
 26 27  1  0
 27 23  1  0
 28 29  1  0
  1  2  2  0
  3  4  2  0
  7  8  2  0
 14 15  1  0
 29 30  1  0
 30 31  2  0
 31 32  1  0
 32 28  2  0
 15 16  1  0
 29 33  2  0
 17 33  1  0
 16 17  1  0
 14 34  2  0
 22 34  1  0
 17 13  2  0
 27 35  2  0
 19 35  1  0
 18 19  1  0
 24 36  2  0
 32 36  1  0
  8  9  1  0
  4  5  1  0
 37 38  2  0
  9 10  2  0
 38 39  1  0
  2  3  1  0
 39 40  2  0
 10 11  1  0
 40 41  1  0
 19 20  2  0
 41 42  2  0
 42 37  1  0
 33 37  1  0
 20 21  1  0
 21 22  2  0
 43 44  2  0
 22 18  1  0
 44 45  1  0
 23 24  1  0
 45 46  2  0
  5  6  2  0
 46 47  1  0
 11 12  2  0
 47 48  2  0
 48 43  1  0
 36 43  1  0
 12  7  1  0
 45 49  1  0
 13 14  1  0
 39 50  1  0
 35 12  1  0
 34  2  1  0
  6  1  1  0
  4 51  1  0
 24 25  1  0
  8 52  1  0
  1 53  1  0
  3 54  1  0
  5 55  1  0
  6 56  1  0
  7 57  1  0
  9 58  1  0
 10 59  1  0
 11 60  1  0
 15 61  1  0
 15 62  1  0
 16 63  1  0
 16 64  1  0
 18 65  1  0
 20 66  1  0
 21 67  1  0
 23 68  1  0
 25 69  1  0
 26 70  1  0
 30 71  1  0
 31 72  1  0
 38 73  1  0
 40 74  1  0
 41 75  1  0
 42 76  1  0
 44 77  1  0
 46 78  1  0
 47 79  1  0
 48 80  1  0
 49 81  1  0
 50 82  1  0
 51 83  1  0
 52 84  1  0
M  END
> <Uni-Dock RESULT> 
ENERGY=   -6.028  LOWER_BOUND=    1.369  UPPER_BOUND=    8.119
INTER + INTRA:          -6.028
INTER:                  -6.028
INTRA:                   0.000
UNBOUND:                 0.000

$$$$

     RDKit          3D

 84 92  0  0  0  0  0  0  0  0999 V2000
   49.2671    7.7851   17.8398 C   0  0  0  0  0  0  0  0  0  0  0  0
   49.9095    8.1525   16.6504 C   0  0  0  0  0  0  0  0  0  0  0  0
   51.2573    7.8250   16.4631 C   0  0  0  0  0  0  0  0  0  0  0  0
   51.9430    7.1395   17.4620 C   0  0  0  0  0  0  0  0  0  0  0  0
   51.3074    6.7681   18.6425 C   0  0  0  0  0  0  0  0  0  0  0  0
   49.9641    7.0936   18.8342 C   0  0  0  0  0  0  0  0  0  0  0  0
   44.7219    5.8394   10.5745 C   0  0  0  0  0  0  0  0  0  0  0  0
   44.0891    4.6324   10.2955 C   0  0  0  0  0  0  0  0  0  0  0  0
   43.4383    3.9156   11.2980 C   0  0  0  0  0  0  0  0  0  0  0  0
   43.4243    4.4153   12.6005 C   0  0  0  0  0  0  0  0  0  0  0  0
   44.0593    5.6250   12.8910 C   0  0  0  0  0  0  0  0  0  0  0  0
   44.7104    6.3449   11.8802 C   0  0  0  0  0  0  0  0  0  0  0  0
   48.5391   11.0165   14.5789 N   0  0  0  0  0  0  0  0  0  0  0  0
   49.1931   10.2179   15.4695 C   0  0  0  0  0  0  0  0  0  0  0  0
   49.9888   11.0829   16.4086 C   0  0  0  0  0  0  0  0  0  0  0  0
   50.1182   12.3659   15.6312 C   0  0  0  0  0  0  0  0  0  0  0  0
   48.9389   12.3204   14.6723 C   0  0  0  0  0  0  0  0  0  0  0  0
   47.2318    8.5563   13.8744 N   0  0  0  0  0  0  0  0  0  0  0  0
   46.6757    7.5609   13.1119 C   0  0  0  0  0  0  0  0  0  0  0  0
   47.4462    6.4233   13.2859 C   0  0  0  0  0  0  0  0  0  0  0  0
   48.4602    6.7199   14.2257 C   0  0  0  0  0  0  0  0  0  0  0  0
   48.2909    8.0353   14.5827 C   0  0  0  0  0  0  0  0  0  0  0  0
   45.3105   10.2354   11.7550 N   0  0  0  0  0  0  0  0  0  0  0  0
   44.4436   11.1214   11.1530 C   0  0  0  0  0  0  0  0  0  0  0  0
   43.3601   10.4221   10.6763 C   0  0  0  0  0  0  0  0  0  0  0  0
   43.5728    9.0640   11.0079 C   0  0  0  0  0  0  0  0  0  0  0  0
   44.7873    8.9678   11.6664 C   0  0  0  0  0  0  0  0  0  0  0  0
   46.5838   12.6244   12.6534 N   0  0  0  0  0  0  0  0  0  0  0  0
   47.4467   13.5541   13.1802 C   0  0  0  0  0  0  0  0  0  0  0  0
   47.0410   14.8285   12.5942 C   0  0  0  0  0  0  0  0  0  0  0  0
   46.0050   14.6292   11.7869 C   0  0  0  0  0  0  0  0  0  0  0  0
   45.6946   13.2198   11.8002 C   0  0  0  0  0  0  0  0  0  0  0  0
   48.4944   13.4702   14.0643 C   0  0  0  0  0  0  0  0  0  0  0  0
   49.1689    8.8658   15.5925 C   0  0  0  0  0  0  0  0  0  0  0  0
   45.3959    7.6213   12.2014 C   0  0  0  0  0  0  0  0  0  0  0  0
   44.6890   12.6814   11.0631 C   0  0  0  0  0  0  0  0  0  0  0  0
   49.2196   14.7332   14.4028 C   0  0  0  0  0  0  0  0  0  0  0  0
   50.3480   15.1319   13.6709 C   0  0  0  0  0  0  0  0  0  0  0  0
   51.0061   16.3106   14.0039 C   0  0  0  0  0  0  0  0  0  0  0  0
   50.5589   17.1080   15.0578 C   0  0  0  0  0  0  0  0  0  0  0  0
   49.4330   16.7217   15.7858 C   0  0  0  0  0  0  0  0  0  0  0  0
   48.7673   15.5394   15.4599 C   0  0  0  0  0  0  0  0  0  0  0  0
   43.8398   13.4856   10.1599 C   0  0  0  0  0  0  0  0  0  0  0  0
   44.3017   13.8269    8.8840 C   0  0  0  0  0  0  0  0  0  0  0  0
   43.4884   14.5705    8.0334 C   0  0  0  0  0  0  0  0  0  0  0  0
   42.2161   14.9707    8.4291 C   0  0  0  0  0  0  0  0  0  0  0  0
   41.7534   14.6380    9.7023 C   0  0  0  0  0  0  0  0  0  0  0  0
   42.5654   13.9002   10.5671 C   0  0  0  0  0  0  0  0  0  0  0  0
   43.9207   14.9337    6.7888 O   0  0  0  0  0  0  0  0  0  0  0  0
   52.1022   16.6726   13.2713 O   0  0  0  0  0  0  0  0  0  0  0  0
   53.2609    6.8129   17.3093 O   0  0  0  0  0  0  0  0  0  0  0  0
   44.1278    4.1694    9.0116 O   0  0  0  0  0  0  0  0  0  0  0  0
   48.2206    8.0507   17.9784 H   0  0  0  0  0  0  0  0  0  0  0  0
   51.7373    8.1230   15.5348 H   0  0  0  0  0  0  0  0  0  0  0  0
   51.8578    6.2346   19.4100 H   0  0  0  0  0  0  0  0  0  0  0  0
   49.4577    6.8154   19.7529 H   0  0  0  0  0  0  0  0  0  0  0  0
   45.2286    6.3896    9.7847 H   0  0  0  0  0  0  0  0  0  0  0  0
   42.9426    2.9751   11.0860 H   0  0  0  0  0  0  0  0  0  0  0  0
   42.9245    3.8677   13.3944 H   0  0  0  0  0  0  0  0  0  0  0  0
   44.0549    6.0143   13.9081 H   0  0  0  0  0  0  0  0  0  0  0  0
   50.9770   10.6906   16.6639 H   0  0  0  0  0  0  0  0  0  0  0  0
   49.4267   11.2483   17.3358 H   0  0  0  0  0  0  0  0  0  0  0  0
   50.1178   13.2130   16.3240 H   0  0  0  0  0  0  0  0  0  0  0  0
   51.0589   12.3731   15.0654 H   0  0  0  0  0  0  0  0  0  0  0  0
   47.0043    9.5503   13.9173 H   0  0  0  0  0  0  0  0  0  0  0  0
   47.2882    5.4711   12.8010 H   0  0  0  0  0  0  0  0  0  0  0  0
   49.2280    6.0564   14.5949 H   0  0  0  0  0  0  0  0  0  0  0  0
   46.1642   10.5583   12.2158 H   0  0  0  0  0  0  0  0  0  0  0  0
   42.5105   10.8397   10.1559 H   0  0  0  0  0  0  0  0  0  0  0  0
   42.9021    8.2452   10.7856 H   0  0  0  0  0  0  0  0  0  0  0  0
   47.4954   15.7844   12.7814 H   0  0  0  0  0  0  0  0  0  0  0  0
   45.4929   15.3912   11.2284 H   0  0  0  0  0  0  0  0  0  0  0  0
   50.6916   14.5088   12.8503 H   0  0  0  0  0  0  0  0  0  0  0  0
   51.0687   18.0265   15.3222 H   0  0  0  0  0  0  0  0  0  0  0  0
   49.0671   17.3302   16.6052 H   0  0  0  0  0  0  0  0  0  0  0  0
   47.8877   15.2197   16.0145 H   0  0  0  0  0  0  0  0  0  0  0  0
   45.2972   13.5035    8.5923 H   0  0  0  0  0  0  0  0  0  0  0  0
   41.5929   15.5455    7.7519 H   0  0  0  0  0  0  0  0  0  0  0  0
   40.7654   14.9500   10.0259 H   0  0  0  0  0  0  0  0  0  0  0  0
   42.2163   13.6375   11.5644 H   0  0  0  0  0  0  0  0  0  0  0  0
   44.8652   14.6992    6.7480 H   0  0  0  0  0  0  0  0  0  0  0  0
   52.4302   17.5107   13.6252 H   0  0  0  0  0  0  0  0  0  0  0  0
   53.5426    7.2067   16.4651 H   0  0  0  0  0  0  0  0  0  0  0  0
   43.6773    3.3113    8.9848 H   0  0  0  0  0  0  0  0  0  0  0  0
 25 26  2  0
 26 27  1  0
 27 23  1  0
 28 29  1  0
  1  2  2  0
  3  4  2  0
  7  8  2  0
 14 15  1  0
 29 30  1  0
 30 31  2  0
 31 32  1  0
 32 28  2  0
 15 16  1  0
 29 33  2  0
 17 33  1  0
 16 17  1  0
 14 34  2  0
 22 34  1  0
 17 13  2  0
 27 35  2  0
 19 35  1  0
 18 19  1  0
 24 36  2  0
 32 36  1  0
  8  9  1  0
  4  5  1  0
 37 38  2  0
  9 10  2  0
 38 39  1  0
  2  3  1  0
 39 40  2  0
 10 11  1  0
 40 41  1  0
 19 20  2  0
 41 42  2  0
 42 37  1  0
 33 37  1  0
 20 21  1  0
 21 22  2  0
 43 44  2  0
 22 18  1  0
 44 45  1  0
 23 24  1  0
 45 46  2  0
  5  6  2  0
 46 47  1  0
 11 12  2  0
 47 48  2  0
 48 43  1  0
 36 43  1  0
 12  7  1  0
 45 49  1  0
 13 14  1  0
 39 50  1  0
 35 12  1  0
 34  2  1  0
  6  1  1  0
  4 51  1  0
 24 25  1  0
  8 52  1  0
  1 53  1  0
  3 54  1  0
  5 55  1  0
  6 56  1  0
  7 57  1  0
  9 58  1  0
 10 59  1  0
 11 60  1  0
 15 61  1  0
 15 62  1  0
 16 63  1  0
 16 64  1  0
 18 65  1  0
 20 66  1  0
 21 67  1  0
 23 68  1  0
 25 69  1  0
 26 70  1  0
 30 71  1  0
 31 72  1  0
 38 73  1  0
 40 74  1  0
 41 75  1  0
 42 76  1  0
 44 77  1  0
 46 78  1  0
 47 79  1  0
 48 80  1  0
 49 81  1  0
 50 82  1  0
 51 83  1  0
 52 84  1  0
M  END
> <Uni-Dock RESULT> 
ENERGY=   -5.855  LOWER_BOUND=    1.147  UPPER_BOUND=   10.973
INTER + INTRA:          -5.855
INTER:                  -5.855
INTRA:                   0.000
UNBOUND:                 0.000

$$$$

     RDKit          3D

 84 92  0  0  0  0  0  0  0  0999 V2000
   48.0036   15.8684   14.5245 C   0  0  0  0  0  0  0  0  0  0  0  0
   47.9426   15.5271   13.1673 C   0  0  0  0  0  0  0  0  0  0  0  0
   48.2270   16.4954   12.1976 C   0  0  0  0  0  0  0  0  0  0  0  0
   48.5653   17.7863   12.5941 C   0  0  0  0  0  0  0  0  0  0  0  0
   48.6321   18.1281   13.9411 C   0  0  0  0  0  0  0  0  0  0  0  0
   48.3482   17.1662   14.9114 C   0  0  0  0  0  0  0  0  0  0  0  0
   52.1617    8.3876   12.5303 C   0  0  0  0  0  0  0  0  0  0  0  0
   53.4348    8.0144   12.9488 C   0  0  0  0  0  0  0  0  0  0  0  0
   53.8831    8.3127   14.2342 C   0  0  0  0  0  0  0  0  0  0  0  0
   53.0432    8.9982   15.1123 C   0  0  0  0  0  0  0  0  0  0  0  0
   51.7642    9.3797   14.7004 C   0  0  0  0  0  0  0  0  0  0  0  0
   51.3152    9.0758   13.4082 C   0  0  0  0  0  0  0  0  0  0  0  0
   45.8549   12.5610   12.0650 N   0  0  0  0  0  0  0  0  0  0  0  0
   46.3337   13.7864   12.4224 C   0  0  0  0  0  0  0  0  0  0  0  0
   45.1954   14.7699   12.4384 C   0  0  0  0  0  0  0  0  0  0  0  0
   44.1733   14.0919   11.5650 C   0  0  0  0  0  0  0  0  0  0  0  0
   44.5546   12.6223   11.6477 C   0  0  0  0  0  0  0  0  0  0  0  0
   48.4885   11.7025   12.8300 N   0  0  0  0  0  0  0  0  0  0  0  0
   49.6883   11.0381   12.8077 C   0  0  0  0  0  0  0  0  0  0  0  0
   50.6840   11.9824   12.6212 C   0  0  0  0  0  0  0  0  0  0  0  0
   50.0772   13.2592   12.5907 C   0  0  0  0  0  0  0  0  0  0  0  0
   48.7271   13.0552   12.7395 C   0  0  0  0  0  0  0  0  0  0  0  0
   47.5836    8.5631   12.2577 N   0  0  0  0  0  0  0  0  0  0  0  0
   46.9538    7.3376   12.2371 C   0  0  0  0  0  0  0  0  0  0  0  0
   47.8223    6.3881   12.7213 C   0  0  0  0  0  0  0  0  0  0  0  0
   49.0194    7.0624   13.0555 C   0  0  0  0  0  0  0  0  0  0  0  0
   48.8552    8.4041   12.7537 C   0  0  0  0  0  0  0  0  0  0  0  0
   44.9665    9.5327   11.6693 N   0  0  0  0  0  0  0  0  0  0  0  0
   43.8765   10.2957   11.3279 C   0  0  0  0  0  0  0  0  0  0  0  0
   42.8419    9.3375   10.9489 C   0  0  0  0  0  0  0  0  0  0  0  0
   43.3200    8.1044   11.0744 C   0  0  0  0  0  0  0  0  0  0  0  0
   44.6864    8.2004   11.5289 C   0  0  0  0  0  0  0  0  0  0  0  0
   43.6480   11.6496   11.2993 C   0  0  0  0  0  0  0  0  0  0  0  0
   47.5973   14.1522   12.7590 C   0  0  0  0  0  0  0  0  0  0  0  0
   49.9607    9.4990   12.9740 C   0  0  0  0  0  0  0  0  0  0  0  0
   45.4682    7.1109   11.7436 C   0  0  0  0  0  0  0  0  0  0  0  0
   42.2991   12.1165   10.8540 C   0  0  0  0  0  0  0  0  0  0  0  0
   42.0517   12.4168    9.5061 C   0  0  0  0  0  0  0  0  0  0  0  0
   40.7893   12.8490    9.1154 C   0  0  0  0  0  0  0  0  0  0  0  0
   39.7592   12.9876   10.0461 C   0  0  0  0  0  0  0  0  0  0  0  0
   39.9957   12.6840   11.3873 C   0  0  0  0  0  0  0  0  0  0  0  0
   41.2601   12.2512   11.7889 C   0  0  0  0  0  0  0  0  0  0  0  0
   44.9994    5.7301   11.5047 C   0  0  0  0  0  0  0  0  0  0  0  0
   44.9984    5.2056   10.2075 C   0  0  0  0  0  0  0  0  0  0  0  0
   44.5709    3.8981    9.9937 C   0  0  0  0  0  0  0  0  0  0  0  0
   44.1544    3.0993   11.0539 C   0  0  0  0  0  0  0  0  0  0  0  0
   44.1479    3.6196   12.3482 C   0  0  0  0  0  0  0  0  0  0  0  0
   44.5660    4.9336   12.5722 C   0  0  0  0  0  0  0  0  0  0  0  0
   44.5420    3.3659    8.7352 O   0  0  0  0  0  0  0  0  0  0  0  0
   40.5792   13.1329    7.7946 O   0  0  0  0  0  0  0  0  0  0  0  0
   48.8409   18.7536   11.6693 O   0  0  0  0  0  0  0  0  0  0  0  0
   54.2328    7.3506   12.0618 O   0  0  0  0  0  0  0  0  0  0  0  0
   47.7738   15.1098   15.2705 H   0  0  0  0  0  0  0  0  0  0  0  0
   48.1699   16.2105   11.1505 H   0  0  0  0  0  0  0  0  0  0  0  0
   48.8971   19.1390   14.2314 H   0  0  0  0  0  0  0  0  0  0  0  0
   48.3906   17.4210   15.9655 H   0  0  0  0  0  0  0  0  0  0  0  0
   51.8228    8.1515   11.5240 H   0  0  0  0  0  0  0  0  0  0  0  0
   54.8737    8.0232   14.5660 H   0  0  0  0  0  0  0  0  0  0  0  0
   53.3781    9.2415   16.1166 H   0  0  0  0  0  0  0  0  0  0  0  0
   51.1089    9.9201   15.3819 H   0  0  0  0  0  0  0  0  0  0  0  0
   45.4407   15.7586   12.0409 H   0  0  0  0  0  0  0  0  0  0  0  0
   44.8134   14.8873   13.4598 H   0  0  0  0  0  0  0  0  0  0  0  0
   43.1688   14.3297   11.9284 H   0  0  0  0  0  0  0  0  0  0  0  0
   44.2665   14.4438   10.5293 H   0  0  0  0  0  0  0  0  0  0  0  0
   47.5374   11.3327   12.8419 H   0  0  0  0  0  0  0  0  0  0  0  0
   51.7411   11.7791   12.5325 H   0  0  0  0  0  0  0  0  0  0  0  0
   50.5643   14.2152   12.4682 H   0  0  0  0  0  0  0  0  0  0  0  0
   47.0943    9.4160   11.9775 H   0  0  0  0  0  0  0  0  0  0  0  0
   47.6178    5.3328   12.8289 H   0  0  0  0  0  0  0  0  0  0  0  0
   49.9068    6.6077   13.4743 H   0  0  0  0  0  0  0  0  0  0  0  0
   41.8459    9.5771   10.6235 H   0  0  0  0  0  0  0  0  0  0  0  0
   42.7754    7.2001   10.8729 H   0  0  0  0  0  0  0  0  0  0  0  0
   42.8562   12.3059    8.7848 H   0  0  0  0  0  0  0  0  0  0  0  0
   38.7742   13.3252    9.7472 H   0  0  0  0  0  0  0  0  0  0  0  0
   39.2069   12.7807   12.1250 H   0  0  0  0  0  0  0  0  0  0  0  0
   41.4659   12.0093   12.8294 H   0  0  0  0  0  0  0  0  0  0  0  0
   45.3291    5.8440    9.3928 H   0  0  0  0  0  0  0  0  0  0  0  0
   43.8291    2.0806   10.8707 H   0  0  0  0  0  0  0  0  0  0  0  0
   43.8188    3.0092   13.1832 H   0  0  0  0  0  0  0  0  0  0  0  0
   44.5622    5.3516   13.5776 H   0  0  0  0  0  0  0  0  0  0  0  0
   44.7209    4.1019    8.1228 H   0  0  0  0  0  0  0  0  0  0  0  0
   39.6575   13.4082    7.6948 H   0  0  0  0  0  0  0  0  0  0  0  0
   48.6807   18.3504   10.7982 H   0  0  0  0  0  0  0  0  0  0  0  0
   55.0902    7.1913   12.4853 H   0  0  0  0  0  0  0  0  0  0  0  0
 25 26  2  0
 26 27  1  0
 27 23  1  0
 28 29  1  0
  1  2  2  0
  3  4  2  0
  7  8  2  0
 14 15  1  0
 29 30  1  0
 30 31  2  0
 31 32  1  0
 32 28  2  0
 15 16  1  0
 29 33  2  0
 17 33  1  0
 16 17  1  0
 14 34  2  0
 22 34  1  0
 17 13  2  0
 27 35  2  0
 19 35  1  0
 18 19  1  0
 24 36  2  0
 32 36  1  0
  8  9  1  0
  4  5  1  0
 37 38  2  0
  9 10  2  0
 38 39  1  0
  2  3  1  0
 39 40  2  0
 10 11  1  0
 40 41  1  0
 19 20  2  0
 41 42  2  0
 42 37  1  0
 33 37  1  0
 20 21  1  0
 21 22  2  0
 43 44  2  0
 22 18  1  0
 44 45  1  0
 23 24  1  0
 45 46  2  0
  5  6  2  0
 46 47  1  0
 11 12  2  0
 47 48  2  0
 48 43  1  0
 36 43  1  0
 12  7  1  0
 45 49  1  0
 13 14  1  0
 39 50  1  0
 35 12  1  0
 34  2  1  0
  6  1  1  0
  4 51  1  0
 24 25  1  0
  8 52  1  0
  1 53  1  0
  3 54  1  0
  5 55  1  0
  6 56  1  0
  7 57  1  0
  9 58  1  0
 10 59  1  0
 11 60  1  0
 15 61  1  0
 15 62  1  0
 16 63  1  0
 16 64  1  0
 18 65  1  0
 20 66  1  0
 21 67  1  0
 23 68  1  0
 25 69  1  0
 26 70  1  0
 30 71  1  0
 31 72  1  0
 38 73  1  0
 40 74  1  0
 41 75  1  0
 42 76  1  0
 44 77  1  0
 46 78  1  0
 47 79  1  0
 48 80  1  0
 49 81  1  0
 50 82  1  0
 51 83  1  0
 52 84  1  0
M  END
> <Uni-Dock RESULT> 
ENERGY=   -5.836  LOWER_BOUND=    1.565  UPPER_BOUND=    7.391
INTER + INTRA:          -5.836
INTER:                  -5.836
INTRA:                   0.000
UNBOUND:                 0.000

$$$$

     RDKit          3D

 84 92  0  0  0  0  0  0  0  0999 V2000
   43.8382    5.8068   12.8356 C   0  0  0  0  0  0  0  0  0  0  0  0
   44.6610    6.2805   11.8056 C   0  0  0  0  0  0  0  0  0  0  0  0
   44.9039    5.4733   10.6883 C   0  0  0  0  0  0  0  0  0  0  0  0
   44.3258    4.2090   10.6153 C   0  0  0  0  0  0  0  0  0  0  0  0
   43.5037    3.7368   11.6335 C   0  0  0  0  0  0  0  0  0  0  0  0
   43.2598    4.5376   12.7500 C   0  0  0  0  0  0  0  0  0  0  0  0
   41.9389   13.9771   10.2148 C   0  0  0  0  0  0  0  0  0  0  0  0
   40.6723   14.4814    9.9380 C   0  0  0  0  0  0  0  0  0  0  0  0
   39.5701   14.1132   10.7074 C   0  0  0  0  0  0  0  0  0  0  0  0
   39.7400   13.2238   11.7686 C   0  0  0  0  0  0  0  0  0  0  0  0
   41.0074   12.7098   12.0527 C   0  0  0  0  0  0  0  0  0  0  0  0
   42.1143   13.0841   11.2790 C   0  0  0  0  0  0  0  0  0  0  0  0
   47.1834    9.0187   12.5210 N   0  0  0  0  0  0  0  0  0  0  0  0
   46.5142    7.8430   12.3511 C   0  0  0  0  0  0  0  0  0  0  0  0
   47.3916    6.7108   12.8110 C   0  0  0  0  0  0  0  0  0  0  0  0
   48.7648    7.3258   12.7548 C   0  0  0  0  0  0  0  0  0  0  0  0
   48.4907    8.8173   12.8662 C   0  0  0  0  0  0  0  0  0  0  0  0
   44.6242   10.1577   11.8797 N   0  0  0  0  0  0  0  0  0  0  0  0
   43.6801   10.9855   11.3276 C   0  0  0  0  0  0  0  0  0  0  0  0
   42.8999   10.2192   10.4779 C   0  0  0  0  0  0  0  0  0  0  0  0
   43.3440    8.8795   10.5636 C   0  0  0  0  0  0  0  0  0  0  0  0
   44.3949    8.8709   11.4479 C   0  0  0  0  0  0  0  0  0  0  0  0
   45.8811   13.1784   12.4251 N   0  0  0  0  0  0  0  0  0  0  0  0
   46.4891   14.2961   12.9543 C   0  0  0  0  0  0  0  0  0  0  0  0
   45.5568   15.3022   13.0469 C   0  0  0  0  0  0  0  0  0  0  0  0
   44.3370   14.7742   12.5643 C   0  0  0  0  0  0  0  0  0  0  0  0
   44.5600   13.4633   12.1768 C   0  0  0  0  0  0  0  0  0  0  0  0
   48.3222   11.9133   13.1845 N   0  0  0  0  0  0  0  0  0  0  0  0
   49.3706   11.0436   13.3606 C   0  0  0  0  0  0  0  0  0  0  0  0
   50.4972   11.8790   13.7667 C   0  0  0  0  0  0  0  0  0  0  0  0
   50.1047   13.1470   13.8213 C   0  0  0  0  0  0  0  0  0  0  0  0
   48.7125   13.1991   13.4446 C   0  0  0  0  0  0  0  0  0  0  0  0
   49.4949    9.6820   13.2311 C   0  0  0  0  0  0  0  0  0  0  0  0
   45.2565    7.6278   11.8868 C   0  0  0  0  0  0  0  0  0  0  0  0
   43.4542   12.5207   11.5783 C   0  0  0  0  0  0  0  0  0  0  0  0
   48.0098   14.3597   13.3851 C   0  0  0  0  0  0  0  0  0  0  0  0
   50.8337    9.0776   13.5109 C   0  0  0  0  0  0  0  0  0  0  0  0
   51.7676    8.8924   12.4806 C   0  0  0  0  0  0  0  0  0  0  0  0
   53.0065    8.3286   12.7646 C   0  0  0  0  0  0  0  0  0  0  0  0
   53.3380    7.9443   14.0642 C   0  0  0  0  0  0  0  0  0  0  0  0
   52.4170    8.1319   15.0954 C   0  0  0  0  0  0  0  0  0  0  0  0
   51.1706    8.6953   14.8194 C   0  0  0  0  0  0  0  0  0  0  0  0
   48.6143   15.6768   13.6736 C   0  0  0  0  0  0  0  0  0  0  0  0
   49.3651   16.3328   12.6919 C   0  0  0  0  0  0  0  0  0  0  0  0
   49.9170   17.5810   12.9666 C   0  0  0  0  0  0  0  0  0  0  0  0
   49.7236   18.1926   14.2011 C   0  0  0  0  0  0  0  0  0  0  0  0
   48.9809   17.5401   15.1852 C   0  0  0  0  0  0  0  0  0  0  0  0
   48.4307   16.2830   14.9229 C   0  0  0  0  0  0  0  0  0  0  0  0
   50.6700   18.2363   12.0331 O   0  0  0  0  0  0  0  0  0  0  0  0
   53.8955    8.1619   11.7394 O   0  0  0  0  0  0  0  0  0  0  0  0
   44.5511    3.3968    9.5400 O   0  0  0  0  0  0  0  0  0  0  0  0
   40.5408   15.3445    8.8882 O   0  0  0  0  0  0  0  0  0  0  0  0
   43.6614    6.4397   13.7034 H   0  0  0  0  0  0  0  0  0  0  0  0
   45.5483    5.8586    9.9027 H   0  0  0  0  0  0  0  0  0  0  0  0
   43.0621    2.7489   11.5597 H   0  0  0  0  0  0  0  0  0  0  0  0
   42.6255    4.1791   13.5544 H   0  0  0  0  0  0  0  0  0  0  0  0
   42.7919   14.2696    9.6065 H   0  0  0  0  0  0  0  0  0  0  0  0
   38.5811   14.5041   10.4969 H   0  0  0  0  0  0  0  0  0  0  0  0
   38.8911   12.9238   12.3763 H   0  0  0  0  0  0  0  0  0  0  0  0
   41.1418   12.0107   12.8768 H   0  0  0  0  0  0  0  0  0  0  0  0
   47.3487    5.8162   12.1836 H   0  0  0  0  0  0  0  0  0  0  0  0
   47.1361    6.4302   13.8401 H   0  0  0  0  0  0  0  0  0  0  0  0
   49.3835    6.9088   13.5555 H   0  0  0  0  0  0  0  0  0  0  0  0
   49.2400    7.1049   11.7902 H   0  0  0  0  0  0  0  0  0  0  0  0
   45.4297   10.3840   12.4641 H   0  0  0  0  0  0  0  0  0  0  0  0
   42.0833   10.5802    9.8699 H   0  0  0  0  0  0  0  0  0  0  0  0
   42.9499    8.0221   10.0386 H   0  0  0  0  0  0  0  0  0  0  0  0
   46.3915   12.2996   12.3131 H   0  0  0  0  0  0  0  0  0  0  0  0
   45.7303   16.2995   13.4242 H   0  0  0  0  0  0  0  0  0  0  0  0
   43.3955   15.3033   12.5091 H   0  0  0  0  0  0  0  0  0  0  0  0
   51.4901   11.5359   13.9938 H   0  0  0  0  0  0  0  0  0  0  0  0
   50.7228   13.9805   14.1010 H   0  0  0  0  0  0  0  0  0  0  0  0
   51.5058    9.1946   11.4707 H   0  0  0  0  0  0  0  0  0  0  0  0
   54.3013    7.5034   14.2907 H   0  0  0  0  0  0  0  0  0  0  0  0
   52.6576    7.8442   16.1127 H   0  0  0  0  0  0  0  0  0  0  0  0
   50.4379    8.8504   15.6083 H   0  0  0  0  0  0  0  0  0  0  0  0
   49.5034   15.8401   11.7334 H   0  0  0  0  0  0  0  0  0  0  0  0
   50.1564   19.1681   14.3971 H   0  0  0  0  0  0  0  0  0  0  0  0
   48.8283   18.0032   16.1549 H   0  0  0  0  0  0  0  0  0  0  0  0
   47.8520   15.7626   15.6843 H   0  0  0  0  0  0  0  0  0  0  0  0
   50.8165   17.6041   11.3068 H   0  0  0  0  0  0  0  0  0  0  0  0
   54.6996    7.7699   12.1067 H   0  0  0  0  0  0  0  0  0  0  0  0
   45.1908    3.8646    8.9752 H   0  0  0  0  0  0  0  0  0  0  0  0
   39.6037   15.5782    8.8031 H   0  0  0  0  0  0  0  0  0  0  0  0
 25 26  2  0
 26 27  1  0
 27 23  1  0
 28 29  1  0
  1  2  2  0
  3  4  2  0
  7  8  2  0
 14 15  1  0
 29 30  1  0
 30 31  2  0
 31 32  1  0
 32 28  2  0
 15 16  1  0
 29 33  2  0
 17 33  1  0
 16 17  1  0
 14 34  2  0
 22 34  1  0
 17 13  2  0
 27 35  2  0
 19 35  1  0
 18 19  1  0
 24 36  2  0
 32 36  1  0
  8  9  1  0
  4  5  1  0
 37 38  2  0
  9 10  2  0
 38 39  1  0
  2  3  1  0
 39 40  2  0
 10 11  1  0
 40 41  1  0
 19 20  2  0
 41 42  2  0
 42 37  1  0
 33 37  1  0
 20 21  1  0
 21 22  2  0
 43 44  2  0
 22 18  1  0
 44 45  1  0
 23 24  1  0
 45 46  2  0
  5  6  2  0
 46 47  1  0
 11 12  2  0
 47 48  2  0
 48 43  1  0
 36 43  1  0
 12  7  1  0
 45 49  1  0
 13 14  1  0
 39 50  1  0
 35 12  1  0
 34  2  1  0
  6  1  1  0
  4 51  1  0
 24 25  1  0
  8 52  1  0
  1 53  1  0
  3 54  1  0
  5 55  1  0
  6 56  1  0
  7 57  1  0
  9 58  1  0
 10 59  1  0
 11 60  1  0
 15 61  1  0
 15 62  1  0
 16 63  1  0
 16 64  1  0
 18 65  1  0
 20 66  1  0
 21 67  1  0
 23 68  1  0
 25 69  1  0
 26 70  1  0
 30 71  1  0
 31 72  1  0
 38 73  1  0
 40 74  1  0
 41 75  1  0
 42 76  1  0
 44 77  1  0
 46 78  1  0
 47 79  1  0
 48 80  1  0
 49 81  1  0
 50 82  1  0
 51 83  1  0
 52 84  1  0
M  END
> <Uni-Dock RESULT> 
ENERGY=   -5.792  LOWER_BOUND=    1.318  UPPER_BOUND=    7.825
INTER + INTRA:          -5.792
INTER:                  -5.792
INTRA:                   0.000
UNBOUND:                 0.000

$$$$

     RDKit          3D

 84 92  0  0  0  0  0  0  0  0999 V2000
   48.8091   16.0006   15.6757 C   0  0  0  0  0  0  0  0  0  0  0  0
   49.0299   15.6219   14.3452 C   0  0  0  0  0  0  0  0  0  0  0  0
   49.6973   16.4959   13.4795 C   0  0  0  0  0  0  0  0  0  0  0  0
   50.1321   17.7314   13.9511 C   0  0  0  0  0  0  0  0  0  0  0  0
   49.9195   18.1093   15.2731 C   0  0  0  0  0  0  0  0  0  0  0  0
   49.2533   17.2417   16.1395 C   0  0  0  0  0  0  0  0  0  0  0  0
   52.0619    7.8881   14.7617 C   0  0  0  0  0  0  0  0  0  0  0  0
   53.1148    7.3351   15.4833 C   0  0  0  0  0  0  0  0  0  0  0  0
   53.2749    7.6076   16.8407 C   0  0  0  0  0  0  0  0  0  0  0  0
   52.3670    8.4496   17.4835 C   0  0  0  0  0  0  0  0  0  0  0  0
   51.3081    9.0119   16.7668 C   0  0  0  0  0  0  0  0  0  0  0  0
   51.1482    8.7337   15.4026 C   0  0  0  0  0  0  0  0  0  0  0  0
   46.8260   12.9819   12.7498 N   0  0  0  0  0  0  0  0  0  0  0  0
   47.3940   14.1294   13.2184 C   0  0  0  0  0  0  0  0  0  0  0  0
   46.4617   15.2798   12.9527 C   0  0  0  0  0  0  0  0  0  0  0  0
   45.5904   14.7386   11.8504 C   0  0  0  0  0  0  0  0  0  0  0  0
   45.6963   13.2314   12.0217 C   0  0  0  0  0  0  0  0  0  0  0  0
   49.0151   11.7490   14.1449 N   0  0  0  0  0  0  0  0  0  0  0  0
   50.0594   10.9036   14.4207 C   0  0  0  0  0  0  0  0  0  0  0  0
   51.2097   11.6716   14.4906 C   0  0  0  0  0  0  0  0  0  0  0  0
   50.8443   13.0259   14.3131 C   0  0  0  0  0  0  0  0  0  0  0  0
   49.4845   13.0428   14.1202 C   0  0  0  0  0  0  0  0  0  0  0  0
   47.7828    8.7719   13.3571 N   0  0  0  0  0  0  0  0  0  0  0  0
   46.9876    7.6610   13.1771 C   0  0  0  0  0  0  0  0  0  0  0  0
   47.5444    6.6056   13.8600 C   0  0  0  0  0  0  0  0  0  0  0  0
   48.7152    7.0952   14.4837 C   0  0  0  0  0  0  0  0  0  0  0  0
   48.8499    8.4336   14.1540 C   0  0  0  0  0  0  0  0  0  0  0  0
   45.5841   10.1186   12.1374 N   0  0  0  0  0  0  0  0  0  0  0  0
   44.7502   11.0302   11.5371 C   0  0  0  0  0  0  0  0  0  0  0  0
   43.6998   10.2333   10.9097 C   0  0  0  0  0  0  0  0  0  0  0  0
   43.9260    8.9460   11.1473 C   0  0  0  0  0  0  0  0  0  0  0  0
   45.1352    8.8427   11.9283 C   0  0  0  0  0  0  0  0  0  0  0  0
   44.7582   12.4012   11.4559 C   0  0  0  0  0  0  0  0  0  0  0  0
   48.5778   14.3040   13.8602 C   0  0  0  0  0  0  0  0  0  0  0  0
   50.0295    9.3482   14.6456 C   0  0  0  0  0  0  0  0  0  0  0  0
   45.6529    7.6526   12.3283 C   0  0  0  0  0  0  0  0  0  0  0  0
   43.6546   13.0574   10.6896 C   0  0  0  0  0  0  0  0  0  0  0  0
   43.7989   13.3416    9.3234 C   0  0  0  0  0  0  0  0  0  0  0  0
   42.7589   13.9522    8.6315 C   0  0  0  0  0  0  0  0  0  0  0  0
   41.5678   14.2864    9.2765 C   0  0  0  0  0  0  0  0  0  0  0  0
   41.4142   14.0005   10.6335 C   0  0  0  0  0  0  0  0  0  0  0  0
   42.4533   13.3895   11.3364 C   0  0  0  0  0  0  0  0  0  0  0  0
   45.0401    6.3548   11.9765 C   0  0  0  0  0  0  0  0  0  0  0  0
   45.2738    5.7882   10.7187 C   0  0  0  0  0  0  0  0  0  0  0  0
   44.7061    4.5572   10.4018 C   0  0  0  0  0  0  0  0  0  0  0  0
   43.9176    3.8748   11.3227 C   0  0  0  0  0  0  0  0  0  0  0  0
   43.6768    4.4382   12.5758 C   0  0  0  0  0  0  0  0  0  0  0  0
   44.2340    5.6776   12.9003 C   0  0  0  0  0  0  0  0  0  0  0  0
   44.9024    3.9889    9.1745 O   0  0  0  0  0  0  0  0  0  0  0  0
   42.9295   14.2153    7.3007 O   0  0  0  0  0  0  0  0  0  0  0  0
   50.7799   18.6074   13.1267 O   0  0  0  0  0  0  0  0  0  0  0  0
   53.9883    6.5207   14.8215 O   0  0  0  0  0  0  0  0  0  0  0  0
   48.2829   15.3164   16.3389 H   0  0  0  0  0  0  0  0  0  0  0  0
   49.8546   16.1840   12.4505 H   0  0  0  0  0  0  0  0  0  0  0  0
   50.2649   19.0761   15.6229 H   0  0  0  0  0  0  0  0  0  0  0  0
   49.0754   17.5264   17.1716 H   0  0  0  0  0  0  0  0  0  0  0  0
   51.9477    7.6702   13.7021 H   0  0  0  0  0  0  0  0  0  0  0  0
   54.0928    7.1785   17.4082 H   0  0  0  0  0  0  0  0  0  0  0  0
   52.4790    8.6751   18.5402 H   0  0  0  0  0  0  0  0  0  0  0  0
   50.6016    9.6743   17.2648 H   0  0  0  0  0  0  0  0  0  0  0  0
   46.9542   16.2016   12.6314 H   0  0  0  0  0  0  0  0  0  0  0  0
   45.8641   15.4945   13.8469 H   0  0  0  0  0  0  0  0  0  0  0  0
   44.5795   15.1452   11.9525 H   0  0  0  0  0  0  0  0  0  0  0  0
   45.9916   15.0318   10.8715 H   0  0  0  0  0  0  0  0  0  0  0  0
   48.0434   11.5343   13.9184 H   0  0  0  0  0  0  0  0  0  0  0  0
   52.2088   11.3011   14.6676 H   0  0  0  0  0  0  0  0  0  0  0  0
   51.4948   13.8878   14.3183 H   0  0  0  0  0  0  0  0  0  0  0  0
   47.5224    9.6800   12.9660 H   0  0  0  0  0  0  0  0  0  0  0  0
   47.1516    5.6005   13.9106 H   0  0  0  0  0  0  0  0  0  0  0  0
   49.3863    6.5226   15.1093 H   0  0  0  0  0  0  0  0  0  0  0  0
   42.8670   10.6142   10.3470 H   0  0  0  0  0  0  0  0  0  0  0  0
   43.3088    8.1316   10.8142 H   0  0  0  0  0  0  0  0  0  0  0  0
   44.7274   13.0781    8.8251 H   0  0  0  0  0  0  0  0  0  0  0  0
   40.7549   14.7634    8.7423 H   0  0  0  0  0  0  0  0  0  0  0  0
   40.4944   14.2481   11.1515 H   0  0  0  0  0  0  0  0  0  0  0  0
   42.3545   13.1578   12.3947 H   0  0  0  0  0  0  0  0  0  0  0  0
   45.8939    6.3352   10.0138 H   0  0  0  0  0  0  0  0  0  0  0  0
   43.4869    2.9137   11.0615 H   0  0  0  0  0  0  0  0  0  0  0  0
   43.0578    3.9194   13.3009 H   0  0  0  0  0  0  0  0  0  0  0  0
   44.0504    6.1288   13.8740 H   0  0  0  0  0  0  0  0  0  0  0  0
   45.3434    4.6637    8.6278 H   0  0  0  0  0  0  0  0  0  0  0  0
   42.1180   14.6283    6.9750 H   0  0  0  0  0  0  0  0  0  0  0  0
   50.7762   18.2018   12.2421 H   0  0  0  0  0  0  0  0  0  0  0  0
   54.6775    6.2446   15.4450 H   0  0  0  0  0  0  0  0  0  0  0  0
 25 26  2  0
 26 27  1  0
 27 23  1  0
 28 29  1  0
  1  2  2  0
  3  4  2  0
  7  8  2  0
 14 15  1  0
 29 30  1  0
 30 31  2  0
 31 32  1  0
 32 28  2  0
 15 16  1  0
 29 33  2  0
 17 33  1  0
 16 17  1  0
 14 34  2  0
 22 34  1  0
 17 13  2  0
 27 35  2  0
 19 35  1  0
 18 19  1  0
 24 36  2  0
 32 36  1  0
  8  9  1  0
  4  5  1  0
 37 38  2  0
  9 10  2  0
 38 39  1  0
  2  3  1  0
 39 40  2  0
 10 11  1  0
 40 41  1  0
 19 20  2  0
 41 42  2  0
 42 37  1  0
 33 37  1  0
 20 21  1  0
 21 22  2  0
 43 44  2  0
 22 18  1  0
 44 45  1  0
 23 24  1  0
 45 46  2  0
  5  6  2  0
 46 47  1  0
 11 12  2  0
 47 48  2  0
 48 43  1  0
 36 43  1  0
 12  7  1  0
 45 49  1  0
 13 14  1  0
 39 50  1  0
 35 12  1  0
 34  2  1  0
  6  1  1  0
  4 51  1  0
 24 25  1  0
  8 52  1  0
  1 53  1  0
  3 54  1  0
  5 55  1  0
  6 56  1  0
  7 57  1  0
  9 58  1  0
 10 59  1  0
 11 60  1  0
 15 61  1  0
 15 62  1  0
 16 63  1  0
 16 64  1  0
 18 65  1  0
 20 66  1  0
 21 67  1  0
 23 68  1  0
 25 69  1  0
 26 70  1  0
 30 71  1  0
 31 72  1  0
 38 73  1  0
 40 74  1  0
 41 75  1  0
 42 76  1  0
 44 77  1  0
 46 78  1  0
 47 79  1  0
 48 80  1  0
 49 81  1  0
 50 82  1  0
 51 83  1  0
 52 84  1  0
M  END
> <Uni-Dock RESULT> 
ENERGY=   -5.765  LOWER_BOUND=    0.973  UPPER_BOUND=    7.908
INTER + INTRA:          -5.765
INTER:                  -5.765
INTRA:                   0.000
UNBOUND:                 0.000

$$$$

     RDKit          3D

 84 92  0  0  0  0  0  0  0  0999 V2000
   49.6642   16.4275   13.0855 C   0  0  0  0  0  0  0  0  0  0  0  0
   49.0180   15.8164   14.1677 C   0  0  0  0  0  0  0  0  0  0  0  0
   49.0067   16.4520   15.4146 C   0  0  0  0  0  0  0  0  0  0  0  0
   49.6394   17.6831   15.5640 C   0  0  0  0  0  0  0  0  0  0  0  0
   50.2778   18.2960   14.4905 C   0  0  0  0  0  0  0  0  0  0  0  0
   50.2926   17.6653   13.2458 C   0  0  0  0  0  0  0  0  0  0  0  0
   41.6092   13.4494   11.2205 C   0  0  0  0  0  0  0  0  0  0  0  0
   40.6131   14.1377   10.5356 C   0  0  0  0  0  0  0  0  0  0  0  0
   40.9236   14.9595    9.4536 C   0  0  0  0  0  0  0  0  0  0  0  0
   42.2534   15.0954    9.0543 C   0  0  0  0  0  0  0  0  0  0  0  0
   43.2611   14.4106    9.7375 C   0  0  0  0  0  0  0  0  0  0  0  0
   42.9453   13.5827   10.8232 C   0  0  0  0  0  0  0  0  0  0  0  0
   48.4581   12.0670   14.1516 N   0  0  0  0  0  0  0  0  0  0  0  0
   48.9358   13.3362   14.2919 C   0  0  0  0  0  0  0  0  0  0  0  0
   50.3398   13.2732   14.8284 C   0  0  0  0  0  0  0  0  0  0  0  0
   50.3853   11.9015   15.4478 C   0  0  0  0  0  0  0  0  0  0  0  0
   49.2967   11.1412   14.7068 C   0  0  0  0  0  0  0  0  0  0  0  0
   46.3113   13.4057   12.7888 N   0  0  0  0  0  0  0  0  0  0  0  0
   45.0417   13.7329   12.3855 C   0  0  0  0  0  0  0  0  0  0  0  0
   44.7801   15.0167   12.8342 C   0  0  0  0  0  0  0  0  0  0  0  0
   45.9435   15.5035   13.4735 C   0  0  0  0  0  0  0  0  0  0  0  0
   46.8744   14.4953   13.4137 C   0  0  0  0  0  0  0  0  0  0  0  0
   44.9765   10.4523   12.0829 N   0  0  0  0  0  0  0  0  0  0  0  0
   44.7329    9.1643   11.6580 C   0  0  0  0  0  0  0  0  0  0  0  0
   43.7296    9.1929   10.7184 C   0  0  0  0  0  0  0  0  0  0  0  0
   43.3561   10.5477   10.5612 C   0  0  0  0  0  0  0  0  0  0  0  0
   44.1320   11.3094   11.4191 C   0  0  0  0  0  0  0  0  0  0  0  0
   47.2391    9.2459   13.3322 N   0  0  0  0  0  0  0  0  0  0  0  0
   48.3512    8.9729   14.0908 C   0  0  0  0  0  0  0  0  0  0  0  0
   48.4267    7.5158   14.1490 C   0  0  0  0  0  0  0  0  0  0  0  0
   47.4176    6.9971   13.4581 C   0  0  0  0  0  0  0  0  0  0  0  0
   46.6337    8.0869   12.9282 C   0  0  0  0  0  0  0  0  0  0  0  0
   49.2812    9.7668   14.7161 C   0  0  0  0  0  0  0  0  0  0  0  0
   48.3382   14.5186   13.9942 C   0  0  0  0  0  0  0  0  0  0  0  0
   44.0242   12.8714   11.5530 C   0  0  0  0  0  0  0  0  0  0  0  0
   45.5157    7.8935   12.1818 C   0  0  0  0  0  0  0  0  0  0  0  0
   50.3767    9.0872   15.4737 C   0  0  0  0  0  0  0  0  0  0  0  0
   50.2371    8.8058   16.8409 C   0  0  0  0  0  0  0  0  0  0  0  0
   51.2692    8.1729   17.5246 C   0  0  0  0  0  0  0  0  0  0  0  0
   52.4460    7.8096   16.8693 C   0  0  0  0  0  0  0  0  0  0  0  0
   52.5894    8.0799   15.5079 C   0  0  0  0  0  0  0  0  0  0  0  0
   51.5595    8.7163   14.8140 C   0  0  0  0  0  0  0  0  0  0  0  0
   44.9853    6.5504   11.8683 C   0  0  0  0  0  0  0  0  0  0  0  0
   44.2125    5.8650   12.8120 C   0  0  0  0  0  0  0  0  0  0  0  0
   43.7028    4.6071   12.5019 C   0  0  0  0  0  0  0  0  0  0  0  0
   43.9410    4.0248   11.2612 C   0  0  0  0  0  0  0  0  0  0  0  0
   44.7159    4.7015   10.3191 C   0  0  0  0  0  0  0  0  0  0  0  0
   45.2400    5.9602   10.6238 C   0  0  0  0  0  0  0  0  0  0  0  0
   42.9602    3.9071   13.4110 O   0  0  0  0  0  0  0  0  0  0  0  0
   51.1027    7.9113   18.8562 O   0  0  0  0  0  0  0  0  0  0  0  0
   49.6504   18.3231   16.7711 O   0  0  0  0  0  0  0  0  0  0  0  0
   39.3232   13.9870   10.9571 O   0  0  0  0  0  0  0  0  0  0  0  0
   49.6731   15.9215   12.1217 H   0  0  0  0  0  0  0  0  0  0  0  0
   48.5033   15.9587   16.2416 H   0  0  0  0  0  0  0  0  0  0  0  0
   50.7658   19.2552   14.6256 H   0  0  0  0  0  0  0  0  0  0  0  0
   50.7922   18.1294   12.4014 H   0  0  0  0  0  0  0  0  0  0  0  0
   41.3558   12.8123   12.0649 H   0  0  0  0  0  0  0  0  0  0  0  0
   40.1513   15.4973    8.9156 H   0  0  0  0  0  0  0  0  0  0  0  0
   42.5132   15.7345    8.2152 H   0  0  0  0  0  0  0  0  0  0  0  0
   44.3005   14.5196    9.4315 H   0  0  0  0  0  0  0  0  0  0  0  0
   50.5781   14.0363   15.5745 H   0  0  0  0  0  0  0  0  0  0  0  0
   51.0612   13.3494   14.0058 H   0  0  0  0  0  0  0  0  0  0  0  0
   51.3925   11.4871   15.3411 H   0  0  0  0  0  0  0  0  0  0  0  0
   50.1388   11.9595   16.5159 H   0  0  0  0  0  0  0  0  0  0  0  0
   46.8041   12.5136   12.7346 H   0  0  0  0  0  0  0  0  0  0  0  0
   43.8542   15.5572   12.7024 H   0  0  0  0  0  0  0  0  0  0  0  0
   46.0859   16.4717   13.9299 H   0  0  0  0  0  0  0  0  0  0  0  0
   45.7204   10.6582   12.7533 H   0  0  0  0  0  0  0  0  0  0  0  0
   43.3173    8.3397   10.1998 H   0  0  0  0  0  0  0  0  0  0  0  0
   42.5973   10.9214    9.8874 H   0  0  0  0  0  0  0  0  0  0  0  0
   49.1769    6.9409   14.6608 H   0  0  0  0  0  0  0  0  0  0  0  0
   47.2284    5.9480   13.3213 H   0  0  0  0  0  0  0  0  0  0  0  0
   49.3184    9.0890   17.3466 H   0  0  0  0  0  0  0  0  0  0  0  0
   53.2537    7.3175   17.3975 H   0  0  0  0  0  0  0  0  0  0  0  0
   53.4943    7.8011   14.9797 H   0  0  0  0  0  0  0  0  0  0  0  0
   51.6505    8.9364   13.7526 H   0  0  0  0  0  0  0  0  0  0  0  0
   44.0356    6.3370   13.7746 H   0  0  0  0  0  0  0  0  0  0  0  0
   43.5320    3.0459   11.0336 H   0  0  0  0  0  0  0  0  0  0  0  0
   44.9150    4.2553    9.3499 H   0  0  0  0  0  0  0  0  0  0  0  0
   45.8489    6.4964    9.8978 H   0  0  0  0  0  0  0  0  0  0  0  0
   43.0246    4.3957   14.2512 H   0  0  0  0  0  0  0  0  0  0  0  0
   51.9011    7.4660   19.1716 H   0  0  0  0  0  0  0  0  0  0  0  0
   49.2196   17.7204   17.4023 H   0  0  0  0  0  0  0  0  0  0  0  0
   38.7566   14.5499   10.4075 H   0  0  0  0  0  0  0  0  0  0  0  0
 25 26  2  0
 26 27  1  0
 27 23  1  0
 28 29  1  0
  1  2  2  0
  3  4  2  0
  7  8  2  0
 14 15  1  0
 29 30  1  0
 30 31  2  0
 31 32  1  0
 32 28  2  0
 15 16  1  0
 29 33  2  0
 17 33  1  0
 16 17  1  0
 14 34  2  0
 22 34  1  0
 17 13  2  0
 27 35  2  0
 19 35  1  0
 18 19  1  0
 24 36  2  0
 32 36  1  0
  8  9  1  0
  4  5  1  0
 37 38  2  0
  9 10  2  0
 38 39  1  0
  2  3  1  0
 39 40  2  0
 10 11  1  0
 40 41  1  0
 19 20  2  0
 41 42  2  0
 42 37  1  0
 33 37  1  0
 20 21  1  0
 21 22  2  0
 43 44  2  0
 22 18  1  0
 44 45  1  0
 23 24  1  0
 45 46  2  0
  5  6  2  0
 46 47  1  0
 11 12  2  0
 47 48  2  0
 48 43  1  0
 36 43  1  0
 12  7  1  0
 45 49  1  0
 13 14  1  0
 39 50  1  0
 35 12  1  0
 34  2  1  0
  6  1  1  0
  4 51  1  0
 24 25  1  0
  8 52  1  0
  1 53  1  0
  3 54  1  0
  5 55  1  0
  6 56  1  0
  7 57  1  0
  9 58  1  0
 10 59  1  0
 11 60  1  0
 15 61  1  0
 15 62  1  0
 16 63  1  0
 16 64  1  0
 18 65  1  0
 20 66  1  0
 21 67  1  0
 23 68  1  0
 25 69  1  0
 26 70  1  0
 30 71  1  0
 31 72  1  0
 38 73  1  0
 40 74  1  0
 41 75  1  0
 42 76  1  0
 44 77  1  0
 46 78  1  0
 47 79  1  0
 48 80  1  0
 49 81  1  0
 50 82  1  0
 51 83  1  0
 52 84  1  0
M  END
> <Uni-Dock RESULT> 
ENERGY=   -5.655  LOWER_BOUND=    1.518  UPPER_BOUND=    8.042
INTER + INTRA:          -5.655
INTER:                  -5.655
INTRA:                   0.000
UNBOUND:                 0.000

$$$$

     RDKit          3D

 84 92  0  0  0  0  0  0  0  0999 V2000
   49.3821   16.5657   12.9198 C   0  0  0  0  0  0  0  0  0  0  0  0
   48.7695   15.9455   14.0162 C   0  0  0  0  0  0  0  0  0  0  0  0
   48.7580   16.5909   15.2581 C   0  0  0  0  0  0  0  0  0  0  0  0
   49.3571   17.8408   15.3884 C   0  0  0  0  0  0  0  0  0  0  0  0
   49.9620   18.4627   14.3008 C   0  0  0  0  0  0  0  0  0  0  0  0
   49.9770   17.8223   13.0610 C   0  0  0  0  0  0  0  0  0  0  0  0
   41.3899   13.3430   11.1971 C   0  0  0  0  0  0  0  0  0  0  0  0
   40.3646   13.9968   10.5215 C   0  0  0  0  0  0  0  0  0  0  0  0
   40.6357   14.8181    9.4286 C   0  0  0  0  0  0  0  0  0  0  0  0
   41.9551   14.9887    9.0087 C   0  0  0  0  0  0  0  0  0  0  0  0
   42.9918   14.3386    9.6824 C   0  0  0  0  0  0  0  0  0  0  0  0
   42.7157   13.5112   10.7792 C   0  0  0  0  0  0  0  0  0  0  0  0
   48.3173   12.1816   14.0380 N   0  0  0  0  0  0  0  0  0  0  0  0
   48.7603   13.4651   14.1612 C   0  0  0  0  0  0  0  0  0  0  0  0
   50.1732   13.4467   14.6776 C   0  0  0  0  0  0  0  0  0  0  0  0
   50.2670   12.0820   15.3070 C   0  0  0  0  0  0  0  0  0  0  0  0
   49.1901   11.2848   14.5882 C   0  0  0  0  0  0  0  0  0  0  0  0
   46.1134   13.4469   12.6964 N   0  0  0  0  0  0  0  0  0  0  0  0
   44.8293   13.7343   12.3092 C   0  0  0  0  0  0  0  0  0  0  0  0
   44.5374   15.0138   12.7515 C   0  0  0  0  0  0  0  0  0  0  0  0
   45.6955   15.5389   13.3697 C   0  0  0  0  0  0  0  0  0  0  0  0
   46.6540   14.5573   13.3043 C   0  0  0  0  0  0  0  0  0  0  0  0
   44.8539   10.4508   12.0336 N   0  0  0  0  0  0  0  0  0  0  0  0
   44.6413    9.1528   11.6225 C   0  0  0  0  0  0  0  0  0  0  0  0
   43.6241    9.1449   10.6976 C   0  0  0  0  0  0  0  0  0  0  0  0
   43.2096   10.4871   10.5352 C   0  0  0  0  0  0  0  0  0  0  0  0
   43.9757   11.2778   11.3756 C   0  0  0  0  0  0  0  0  0  0  0  0
   47.1681    9.3200   13.2590 N   0  0  0  0  0  0  0  0  0  0  0  0
   48.2984    9.0852   14.0033 C   0  0  0  0  0  0  0  0  0  0  0  0
   48.4166    7.6315   14.0719 C   0  0  0  0  0  0  0  0  0  0  0  0
   47.4129    7.0783   13.4001 C   0  0  0  0  0  0  0  0  0  0  0  0
   46.5904    8.1408   12.8731 C   0  0  0  0  0  0  0  0  0  0  0  0
   49.2142    9.9106   14.6086 C   0  0  0  0  0  0  0  0  0  0  0  0
   48.1248   14.6274   13.8630 C   0  0  0  0  0  0  0  0  0  0  0  0
   43.8249   12.8372   11.4986 C   0  0  0  0  0  0  0  0  0  0  0  0
   45.4678    7.9094   12.1449 C   0  0  0  0  0  0  0  0  0  0  0  0
   50.3396    9.2690   15.3554 C   0  0  0  0  0  0  0  0  0  0  0  0
   50.2279    8.9951   16.7267 C   0  0  0  0  0  0  0  0  0  0  0  0
   51.2876    8.3977   17.4001 C   0  0  0  0  0  0  0  0  0  0  0  0
   52.4648    8.0628   16.7304 C   0  0  0  0  0  0  0  0  0  0  0  0
   52.5806    8.3257   15.3650 C   0  0  0  0  0  0  0  0  0  0  0  0
   51.5229    8.9266   14.6813 C   0  0  0  0  0  0  0  0  0  0  0  0
   44.9717    6.5490   11.8498 C   0  0  0  0  0  0  0  0  0  0  0  0
   44.2326    5.8497   12.8102 C   0  0  0  0  0  0  0  0  0  0  0  0
   43.7548    4.5752   12.5176 C   0  0  0  0  0  0  0  0  0  0  0  0
   43.9917    3.9896   11.2781 C   0  0  0  0  0  0  0  0  0  0  0  0
   44.7331    4.6804   10.3195 C   0  0  0  0  0  0  0  0  0  0  0  0
   45.2252    5.9560   10.6065 C   0  0  0  0  0  0  0  0  0  0  0  0
   43.0459    3.8618   13.4430 O   0  0  0  0  0  0  0  0  0  0  0  0
   51.1480    8.1426   18.7360 O   0  0  0  0  0  0  0  0  0  0  0  0
   49.3672   18.4908   16.5901 O   0  0  0  0  0  0  0  0  0  0  0  0
   39.0858   13.8128   10.9631 O   0  0  0  0  0  0  0  0  0  0  0  0
   49.3916   16.0522   11.9601 H   0  0  0  0  0  0  0  0  0  0  0  0
   48.2810   16.0902   16.0963 H   0  0  0  0  0  0  0  0  0  0  0  0
   50.4242   19.4365   14.4211 H   0  0  0  0  0  0  0  0  0  0  0  0
   50.4508   18.2934   12.2058 H   0  0  0  0  0  0  0  0  0  0  0  0
   41.1671   12.7060   12.0501 H   0  0  0  0  0  0  0  0  0  0  0  0
   39.8405   15.3290    8.8977 H   0  0  0  0  0  0  0  0  0  0  0  0
   42.1842   15.6279    8.1608 H   0  0  0  0  0  0  0  0  0  0  0  0
   44.0231   14.4748    9.3603 H   0  0  0  0  0  0  0  0  0  0  0  0
   50.4003   14.2225   15.4139 H   0  0  0  0  0  0  0  0  0  0  0  0
   50.8802   13.5367   13.8438 H   0  0  0  0  0  0  0  0  0  0  0  0
   51.2841   11.6958   15.1888 H   0  0  0  0  0  0  0  0  0  0  0  0
   50.0345   12.1419   16.3781 H   0  0  0  0  0  0  0  0  0  0  0  0
   46.6308   12.5689   12.6420 H   0  0  0  0  0  0  0  0  0  0  0  0
   43.5946   15.5265   12.6291 H   0  0  0  0  0  0  0  0  0  0  0  0
   45.8166   16.5146   13.8164 H   0  0  0  0  0  0  0  0  0  0  0  0
   45.6013   10.6835   12.6914 H   0  0  0  0  0  0  0  0  0  0  0  0
   43.2290    8.2759   10.1919 H   0  0  0  0  0  0  0  0  0  0  0  0
   42.4307   10.8333    9.8697 H   0  0  0  0  0  0  0  0  0  0  0  0
   49.1903    7.0825   14.5772 H   0  0  0  0  0  0  0  0  0  0  0  0
   47.2520    6.0232   13.2744 H   0  0  0  0  0  0  0  0  0  0  0  0
   49.3090    9.2561   17.2436 H   0  0  0  0  0  0  0  0  0  0  0  0
   53.2938    7.5984   17.2506 H   0  0  0  0  0  0  0  0  0  0  0  0
   53.4854    8.0685   14.8257 H   0  0  0  0  0  0  0  0  0  0  0  0
   51.5922    9.1404   13.6169 H   0  0  0  0  0  0  0  0  0  0  0  0
   44.0562    6.3244   13.7715 H   0  0  0  0  0  0  0  0  0  0  0  0
   43.6078    2.9975   11.0644 H   0  0  0  0  0  0  0  0  0  0  0  0
   44.9309    4.2320    9.3510 H   0  0  0  0  0  0  0  0  0  0  0  0
   45.8079    6.5034    9.8674 H   0  0  0  0  0  0  0  0  0  0  0  0
   43.1084    4.3590   14.2783 H   0  0  0  0  0  0  0  0  0  0  0  0
   51.9633    7.7229   19.0432 H   0  0  0  0  0  0  0  0  0  0  0  0
   48.9631   17.8814   17.2323 H   0  0  0  0  0  0  0  0  0  0  0  0
   38.4954   14.3547   10.4174 H   0  0  0  0  0  0  0  0  0  0  0  0
 25 26  2  0
 26 27  1  0
 27 23  1  0
 28 29  1  0
  1  2  2  0
  3  4  2  0
  7  8  2  0
 14 15  1  0
 29 30  1  0
 30 31  2  0
 31 32  1  0
 32 28  2  0
 15 16  1  0
 29 33  2  0
 17 33  1  0
 16 17  1  0
 14 34  2  0
 22 34  1  0
 17 13  2  0
 27 35  2  0
 19 35  1  0
 18 19  1  0
 24 36  2  0
 32 36  1  0
  8  9  1  0
  4  5  1  0
 37 38  2  0
  9 10  2  0
 38 39  1  0
  2  3  1  0
 39 40  2  0
 10 11  1  0
 40 41  1  0
 19 20  2  0
 41 42  2  0
 42 37  1  0
 33 37  1  0
 20 21  1  0
 21 22  2  0
 43 44  2  0
 22 18  1  0
 44 45  1  0
 23 24  1  0
 45 46  2  0
  5  6  2  0
 46 47  1  0
 11 12  2  0
 47 48  2  0
 48 43  1  0
 36 43  1  0
 12  7  1  0
 45 49  1  0
 13 14  1  0
 39 50  1  0
 35 12  1  0
 34  2  1  0
  6  1  1  0
  4 51  1  0
 24 25  1  0
  8 52  1  0
  1 53  1  0
  3 54  1  0
  5 55  1  0
  6 56  1  0
  7 57  1  0
  9 58  1  0
 10 59  1  0
 11 60  1  0
 15 61  1  0
 15 62  1  0
 16 63  1  0
 16 64  1  0
 18 65  1  0
 20 66  1  0
 21 67  1  0
 23 68  1  0
 25 69  1  0
 26 70  1  0
 30 71  1  0
 31 72  1  0
 38 73  1  0
 40 74  1  0
 41 75  1  0
 42 76  1  0
 44 77  1  0
 46 78  1  0
 47 79  1  0
 48 80  1  0
 49 81  1  0
 50 82  1  0
 51 83  1  0
 52 84  1  0
M  END
> <Uni-Dock RESULT> 
ENERGY=   -5.633  LOWER_BOUND=    1.518  UPPER_BOUND=    8.037
INTER + INTRA:          -5.633
INTER:                  -5.633
INTRA:                   0.000
UNBOUND:                 0.000

$$$$

     RDKit          3D

 84 92  0  0  0  0  0  0  0  0999 V2000
   45.0452   13.1967    8.5976 C   0  0  0  0  0  0  0  0  0  0  0  0
   44.6938   13.3359    9.9465 C   0  0  0  0  0  0  0  0  0  0  0  0
   43.6228   14.1647   10.2998 C   0  0  0  0  0  0  0  0  0  0  0  0
   42.9210   14.8416    9.3062 C   0  0  0  0  0  0  0  0  0  0  0  0
   43.2633   14.7021    7.9650 C   0  0  0  0  0  0  0  0  0  0  0  0
   44.3313   13.8778    7.6081 C   0  0  0  0  0  0  0  0  0  0  0  0
   44.4358    5.5789   12.9367 C   0  0  0  0  0  0  0  0  0  0  0  0
   43.7821    4.4310   12.5007 C   0  0  0  0  0  0  0  0  0  0  0  0
   43.8200    4.0495   11.1608 C   0  0  0  0  0  0  0  0  0  0  0  0
   44.5216    4.8324   10.2437 C   0  0  0  0  0  0  0  0  0  0  0  0
   45.1788    5.9884   10.6714 C   0  0  0  0  0  0  0  0  0  0  0  0
   45.1413    6.3679   12.0199 C   0  0  0  0  0  0  0  0  0  0  0  0
   47.2561   12.6053   12.6433 N   0  0  0  0  0  0  0  0  0  0  0  0
   46.4583   13.1599   11.6870 C   0  0  0  0  0  0  0  0  0  0  0  0
   46.9015   14.5767   11.4426 C   0  0  0  0  0  0  0  0  0  0  0  0
   47.6594   14.8977   12.7035 C   0  0  0  0  0  0  0  0  0  0  0  0
   48.0764   13.5314   13.2246 C   0  0  0  0  0  0  0  0  0  0  0  0
   45.9024   10.1917   11.8682 N   0  0  0  0  0  0  0  0  0  0  0  0
   45.2603    8.9833   11.9621 C   0  0  0  0  0  0  0  0  0  0  0  0
   43.9640    9.1643   11.5095 C   0  0  0  0  0  0  0  0  0  0  0  0
   43.8348   10.5029   11.0727 C   0  0  0  0  0  0  0  0  0  0  0  0
   45.0500   11.1049   11.2900 C   0  0  0  0  0  0  0  0  0  0  0  0
   47.8347    8.4890   13.9585 N   0  0  0  0  0  0  0  0  0  0  0  0
   48.8893    7.9333   14.6498 C   0  0  0  0  0  0  0  0  0  0  0  0
   48.8476    6.5680   14.4937 C   0  0  0  0  0  0  0  0  0  0  0  0
   47.7325    6.2850   13.6715 C   0  0  0  0  0  0  0  0  0  0  0  0
   47.1145    7.4843   13.3583 C   0  0  0  0  0  0  0  0  0  0  0  0
   49.1963   10.9301   14.5262 N   0  0  0  0  0  0  0  0  0  0  0  0
   49.5572   12.2460   14.6841 C   0  0  0  0  0  0  0  0  0  0  0  0
   50.6580   12.2288   15.6432 C   0  0  0  0  0  0  0  0  0  0  0  0
   50.9069   10.9741   16.0017 C   0  0  0  0  0  0  0  0  0  0  0  0
   49.9769   10.1186   15.3043 C   0  0  0  0  0  0  0  0  0  0  0  0
   49.0962   13.4195   14.1394 C   0  0  0  0  0  0  0  0  0  0  0  0
   45.4353   12.6022   10.9897 C   0  0  0  0  0  0  0  0  0  0  0  0
   45.8293    7.6061   12.4623 C   0  0  0  0  0  0  0  0  0  0  0  0
   49.9575    8.7700   15.4628 C   0  0  0  0  0  0  0  0  0  0  0  0
   49.7549   14.6906   14.5707 C   0  0  0  0  0  0  0  0  0  0  0  0
   49.2559   15.4259   15.6562 C   0  0  0  0  0  0  0  0  0  0  0  0
   49.8852   16.6051   16.0393 C   0  0  0  0  0  0  0  0  0  0  0  0
   51.0116   17.0698   15.3597 C   0  0  0  0  0  0  0  0  0  0  0  0
   51.5180   16.3402   14.2835 C   0  0  0  0  0  0  0  0  0  0  0  0
   50.8918   15.1566   13.8909 C   0  0  0  0  0  0  0  0  0  0  0  0
   50.8682    8.0594   16.3843 C   0  0  0  0  0  0  0  0  0  0  0  0
   50.5794    8.0077   17.7524 C   0  0  0  0  0  0  0  0  0  0  0  0
   51.4340    7.3218   18.6111 C   0  0  0  0  0  0  0  0  0  0  0  0
   52.5672    6.6760   18.1271 C   0  0  0  0  0  0  0  0  0  0  0  0
   52.8626    6.7297   16.7649 C   0  0  0  0  0  0  0  0  0  0  0  0
   52.0165    7.4233   15.8961 C   0  0  0  0  0  0  0  0  0  0  0  0
   51.1866    7.2704   19.9542 O   0  0  0  0  0  0  0  0  0  0  0  0
   49.3757   17.2987   17.1016 O   0  0  0  0  0  0  0  0  0  0  0  0
   41.8758   15.6628    9.6225 O   0  0  0  0  0  0  0  0  0  0  0  0
   43.0997    3.6916   13.4237 O   0  0  0  0  0  0  0  0  0  0  0  0
   45.8842   12.5552    8.3341 H   0  0  0  0  0  0  0  0  0  0  0  0
   43.3696   14.2616   11.3521 H   0  0  0  0  0  0  0  0  0  0  0  0
   42.7054   15.2376    7.2044 H   0  0  0  0  0  0  0  0  0  0  0  0
   44.6128   13.7647    6.5661 H   0  0  0  0  0  0  0  0  0  0  0  0
   44.3980    5.8685   13.9845 H   0  0  0  0  0  0  0  0  0  0  0  0
   43.3135    3.1553   10.8158 H   0  0  0  0  0  0  0  0  0  0  0  0
   44.5585    4.5513    9.1951 H   0  0  0  0  0  0  0  0  0  0  0  0
   45.7222    6.6046    9.9565 H   0  0  0  0  0  0  0  0  0  0  0  0
   46.0868   15.2909   11.2954 H   0  0  0  0  0  0  0  0  0  0  0  0
   47.5664   14.6184   10.5714 H   0  0  0  0  0  0  0  0  0  0  0  0
   48.4865   15.5747   12.4687 H   0  0  0  0  0  0  0  0  0  0  0  0
   46.9974   15.3876   13.4293 H   0  0  0  0  0  0  0  0  0  0  0  0
   46.8253   10.4687   12.2047 H   0  0  0  0  0  0  0  0  0  0  0  0
   43.1924    8.4089   11.4794 H   0  0  0  0  0  0  0  0  0  0  0  0
   42.9585   10.9758   10.6550 H   0  0  0  0  0  0  0  0  0  0  0  0
   47.7076    9.5022   13.9090 H   0  0  0  0  0  0  0  0  0  0  0  0
   49.5421    5.8564   14.9160 H   0  0  0  0  0  0  0  0  0  0  0  0
   47.4193    5.3028   13.3448 H   0  0  0  0  0  0  0  0  0  0  0  0
   51.1947   13.0864   16.0063 H   0  0  0  0  0  0  0  0  0  0  0  0
   51.6712   10.6610   16.6892 H   0  0  0  0  0  0  0  0  0  0  0  0
   48.3797   15.0594   16.1833 H   0  0  0  0  0  0  0  0  0  0  0  0
   51.5049   17.9885   15.6533 H   0  0  0  0  0  0  0  0  0  0  0  0
   52.3951   16.6823   13.7457 H   0  0  0  0  0  0  0  0  0  0  0  0
   51.2700   14.5726   13.0547 H   0  0  0  0  0  0  0  0  0  0  0  0
   49.6888    8.5164   18.1111 H   0  0  0  0  0  0  0  0  0  0  0  0
   53.2201    6.1414   18.8092 H   0  0  0  0  0  0  0  0  0  0  0  0
   53.7472    6.2359   16.3754 H   0  0  0  0  0  0  0  0  0  0  0  0
   52.2386    7.4749   14.8315 H   0  0  0  0  0  0  0  0  0  0  0  0
   50.4530    7.8889   20.1212 H   0  0  0  0  0  0  0  0  0  0  0  0
   49.9301   18.0792   17.2379 H   0  0  0  0  0  0  0  0  0  0  0  0
   41.8307   15.6834   10.5944 H   0  0  0  0  0  0  0  0  0  0  0  0
   42.6748    2.9507   12.9649 H   0  0  0  0  0  0  0  0  0  0  0  0
 25 26  2  0
 26 27  1  0
 27 23  1  0
 28 29  1  0
  1  2  2  0
  3  4  2  0
  7  8  2  0
 14 15  1  0
 29 30  1  0
 30 31  2  0
 31 32  1  0
 32 28  2  0
 15 16  1  0
 29 33  2  0
 17 33  1  0
 16 17  1  0
 14 34  2  0
 22 34  1  0
 17 13  2  0
 27 35  2  0
 19 35  1  0
 18 19  1  0
 24 36  2  0
 32 36  1  0
  8  9  1  0
  4  5  1  0
 37 38  2  0
  9 10  2  0
 38 39  1  0
  2  3  1  0
 39 40  2  0
 10 11  1  0
 40 41  1  0
 19 20  2  0
 41 42  2  0
 42 37  1  0
 33 37  1  0
 20 21  1  0
 21 22  2  0
 43 44  2  0
 22 18  1  0
 44 45  1  0
 23 24  1  0
 45 46  2  0
  5  6  2  0
 46 47  1  0
 11 12  2  0
 47 48  2  0
 48 43  1  0
 36 43  1  0
 12  7  1  0
 45 49  1  0
 13 14  1  0
 39 50  1  0
 35 12  1  0
 34  2  1  0
  6  1  1  0
  4 51  1  0
 24 25  1  0
  8 52  1  0
  1 53  1  0
  3 54  1  0
  5 55  1  0
  6 56  1  0
  7 57  1  0
  9 58  1  0
 10 59  1  0
 11 60  1  0
 15 61  1  0
 15 62  1  0
 16 63  1  0
 16 64  1  0
 18 65  1  0
 20 66  1  0
 21 67  1  0
 23 68  1  0
 25 69  1  0
 26 70  1  0
 30 71  1  0
 31 72  1  0
 38 73  1  0
 40 74  1  0
 41 75  1  0
 42 76  1  0
 44 77  1  0
 46 78  1  0
 47 79  1  0
 48 80  1  0
 49 81  1  0
 50 82  1  0
 51 83  1  0
 52 84  1  0
M  END
> <Uni-Dock RESULT> 
ENERGY=   -5.229  LOWER_BOUND=    1.785  UPPER_BOUND=    7.931
INTER + INTRA:          -5.229
INTER:                  -5.229
INTRA:                   0.000
UNBOUND:                 0.000

$$$$
