
     RDKit          3D

 84 92  0  0  0  0  0  0  0  0999 V2000
   51.3280   15.5613   15.5749 C   0  0  0  0  0  0  0  0  0  0  0  0
   50.2591   14.8349   16.1143 C   0  0  0  0  0  0  0  0  0  0  0  0
   49.7240   15.2056   17.3534 C   0  0  0  0  0  0  0  0  0  0  0  0
   50.2608   16.2926   18.0361 C   0  0  0  0  0  0  0  0  0  0  0  0
   51.3217   17.0179   17.5033 C   0  0  0  0  0  0  0  0  0  0  0  0
   51.8594   16.6505   16.2683 C   0  0  0  0  0  0  0  0  0  0  0  0
   47.3813   12.6416    9.1309 C   0  0  0  0  0  0  0  0  0  0  0  0
   47.4395   13.1196    7.8247 C   0  0  0  0  0  0  0  0  0  0  0  0
   46.6647   14.2069    7.4235 C   0  0  0  0  0  0  0  0  0  0  0  0
   45.8171   14.8227    8.3436 C   0  0  0  0  0  0  0  0  0  0  0  0
   45.7529   14.3490    9.6560 C   0  0  0  0  0  0  0  0  0  0  0  0
   46.5379   13.2601   10.0602 C   0  0  0  0  0  0  0  0  0  0  0  0
   49.6058   11.2427   15.0859 N   0  0  0  0  0  0  0  0  0  0  0  0
   50.0605   12.4074   15.6341 C   0  0  0  0  0  0  0  0  0  0  0  0
   51.0960   12.0889   16.6775 C   0  0  0  0  0  0  0  0  0  0  0  0
   51.4641   10.6626   16.3593 C   0  0  0  0  0  0  0  0  0  0  0  0
   50.2810   10.1502   15.5538 C   0  0  0  0  0  0  0  0  0  0  0  0
   48.0602   12.9652   13.4918 N   0  0  0  0  0  0  0  0  0  0  0  0
   47.1701   13.5174   12.6075 C   0  0  0  0  0  0  0  0  0  0  0  0
   47.0646   14.8627   12.8989 C   0  0  0  0  0  0  0  0  0  0  0  0
   47.9599   15.1427   13.9659 C   0  0  0  0  0  0  0  0  0  0  0  0
   48.5782   13.9566   14.2892 C   0  0  0  0  0  0  0  0  0  0  0  0
   46.4507   10.3007   12.2943 N   0  0  0  0  0  0  0  0  0  0  0  0
   45.6338    9.1999   12.2270 C   0  0  0  0  0  0  0  0  0  0  0  0
   44.4258    9.5868   11.6942 C   0  0  0  0  0  0  0  0  0  0  0  0
   44.5432   10.9664   11.3673 C   0  0  0  0  0  0  0  0  0  0  0  0
   45.8181   11.3646   11.7166 C   0  0  0  0  0  0  0  0  0  0  0  0
   47.9986    8.7145   13.9872 N   0  0  0  0  0  0  0  0  0  0  0  0
   49.0510    8.2089   14.7056 C   0  0  0  0  0  0  0  0  0  0  0  0
   48.9050    6.7576   14.6188 C   0  0  0  0  0  0  0  0  0  0  0  0
   47.8189    6.4655   13.9097 C   0  0  0  0  0  0  0  0  0  0  0  0
   47.2168    7.7059   13.4867 C   0  0  0  0  0  0  0  0  0  0  0  0
   50.0766    8.7976   15.4042 C   0  0  0  0  0  0  0  0  0  0  0  0
   49.6849   13.6910   15.3823 C   0  0  0  0  0  0  0  0  0  0  0  0
   46.4539   12.7610   11.4444 C   0  0  0  0  0  0  0  0  0  0  0  0
   46.1007    7.7685   12.7114 C   0  0  0  0  0  0  0  0  0  0  0  0
   51.0730    7.8947   16.0542 C   0  0  0  0  0  0  0  0  0  0  0  0
   52.2401    7.5387   15.3649 C   0  0  0  0  0  0  0  0  0  0  0  0
   53.1692    6.6974   15.9682 C   0  0  0  0  0  0  0  0  0  0  0  0
   52.9558    6.2000   17.2501 C   0  0  0  0  0  0  0  0  0  0  0  0
   51.7947    6.5473   17.9430 C   0  0  0  0  0  0  0  0  0  0  0  0
   50.8562    7.3921   17.3467 C   0  0  0  0  0  0  0  0  0  0  0  0
   45.4042    6.5746   12.1943 C   0  0  0  0  0  0  0  0  0  0  0  0
   44.5005    5.8602   12.9898 C   0  0  0  0  0  0  0  0  0  0  0  0
   43.8605    4.7407   12.4687 C   0  0  0  0  0  0  0  0  0  0  0  0
   44.1036    4.3195   11.1619 C   0  0  0  0  0  0  0  0  0  0  0  0
   45.0030    5.0288   10.3660 C   0  0  0  0  0  0  0  0  0  0  0  0
   45.6502    6.1520   10.8812 C   0  0  0  0  0  0  0  0  0  0  0  0
   42.9848    4.0637   13.2703 O   0  0  0  0  0  0  0  0  0  0  0  0
   54.3152    6.3393   15.3143 O   0  0  0  0  0  0  0  0  0  0  0  0
   49.7600   16.6772   19.2475 O   0  0  0  0  0  0  0  0  0  0  0  0
   48.2759   12.4942    6.9453 O   0  0  0  0  0  0  0  0  0  0  0  0
   51.7411   15.2610   14.6135 H   0  0  0  0  0  0  0  0  0  0  0  0
   48.8980   14.6229   17.7527 H   0  0  0  0  0  0  0  0  0  0  0  0
   51.7312   17.8609   18.0489 H   0  0  0  0  0  0  0  0  0  0  0  0
   52.6914   17.2045   15.8440 H   0  0  0  0  0  0  0  0  0  0  0  0
   47.9916   11.7926    9.4331 H   0  0  0  0  0  0  0  0  0  0  0  0
   46.7054   14.5812    6.4071 H   0  0  0  0  0  0  0  0  0  0  0  0
   45.2026   15.6666    8.0451 H   0  0  0  0  0  0  0  0  0  0  0  0
   45.0844   14.8237   10.3697 H   0  0  0  0  0  0  0  0  0  0  0  0
   51.9820   12.7301   16.6324 H   0  0  0  0  0  0  0  0  0  0  0  0
   50.6589   12.1588   17.6817 H   0  0  0  0  0  0  0  0  0  0  0  0
   51.6493   10.1203   17.2906 H   0  0  0  0  0  0  0  0  0  0  0  0
   52.3749   10.6336   15.7473 H   0  0  0  0  0  0  0  0  0  0  0  0
   48.3496   11.9908   13.6041 H   0  0  0  0  0  0  0  0  0  0  0  0
   46.4389   15.5769   12.3867 H   0  0  0  0  0  0  0  0  0  0  0  0
   48.1432   16.1000   14.4305 H   0  0  0  0  0  0  0  0  0  0  0  0
   47.3683   10.2547   12.7414 H   0  0  0  0  0  0  0  0  0  0  0  0
   43.5705    8.9457   11.5380 H   0  0  0  0  0  0  0  0  0  0  0  0
   43.7928   11.5882   10.9023 H   0  0  0  0  0  0  0  0  0  0  0  0
   49.5605    6.0285   15.0585 H   0  0  0  0  0  0  0  0  0  0  0  0
   47.4662    5.4761   13.6830 H   0  0  0  0  0  0  0  0  0  0  0  0
   52.3800    7.9382   14.3647 H   0  0  0  0  0  0  0  0  0  0  0  0
   53.6878    5.5457   17.7074 H   0  0  0  0  0  0  0  0  0  0  0  0
   51.6157    6.1643   18.9419 H   0  0  0  0  0  0  0  0  0  0  0  0
   49.9430    7.6737   17.8663 H   0  0  0  0  0  0  0  0  0  0  0  0
   44.3166    6.1823   14.0108 H   0  0  0  0  0  0  0  0  0  0  0  0
   43.6059    3.4505   10.7496 H   0  0  0  0  0  0  0  0  0  0  0  0
   45.2079    4.7146    9.3481 H   0  0  0  0  0  0  0  0  0  0  0  0
   46.3596    6.7096   10.2724 H   0  0  0  0  0  0  0  0  0  0  0  0
   42.7026    3.2685   12.7960 H   0  0  0  0  0  0  0  0  0  0  0  0
   54.2775    6.7896   14.4517 H   0  0  0  0  0  0  0  0  0  0  0  0
   49.0783   16.0231   19.4835 H   0  0  0  0  0  0  0  0  0  0  0  0
   48.2300   12.9595    6.0972 H   0  0  0  0  0  0  0  0  0  0  0  0
 25 26  2  0
 26 27  1  0
 27 23  1  0
 28 29  1  0
  1  2  2  0
  3  4  2  0
  7  8  2  0
 14 15  1  0
 29 30  1  0
 30 31  2  0
 31 32  1  0
 32 28  2  0
 15 16  1  0
 29 33  2  0
 17 33  1  0
 16 17  1  0
 14 34  2  0
 22 34  1  0
 17 13  2  0
 27 35  2  0
 19 35  1  0
 18 19  1  0
 24 36  2  0
 32 36  1  0
  8  9  1  0
  4  5  1  0
 37 38  2  0
  9 10  2  0
 38 39  1  0
  2  3  1  0
 39 40  2  0
 10 11  1  0
 40 41  1  0
 19 20  2  0
 41 42  2  0
 42 37  1  0
 33 37  1  0
 20 21  1  0
 21 22  2  0
 43 44  2  0
 22 18  1  0
 44 45  1  0
 23 24  1  0
 45 46  2  0
  5  6  2  0
 46 47  1  0
 11 12  2  0
 47 48  2  0
 48 43  1  0
 36 43  1  0
 12  7  1  0
 45 49  1  0
 13 14  1  0
 39 50  1  0
 35 12  1  0
 34  2  1  0
  6  1  1  0
  4 51  1  0
 24 25  1  0
  8 52  1  0
  1 53  1  0
  3 54  1  0
  5 55  1  0
  6 56  1  0
  7 57  1  0
  9 58  1  0
 10 59  1  0
 11 60  1  0
 15 61  1  0
 15 62  1  0
 16 63  1  0
 16 64  1  0
 18 65  1  0
 20 66  1  0
 21 67  1  0
 23 68  1  0
 25 69  1  0
 26 70  1  0
 30 71  1  0
 31 72  1  0
 38 73  1  0
 40 74  1  0
 41 75  1  0
 42 76  1  0
 44 77  1  0
 46 78  1  0
 47 79  1  0
 48 80  1  0
 49 81  1  0
 50 82  1  0
 51 83  1  0
 52 84  1  0
M  END
> <Uni-Dock RESULT> 
ENERGY=   -6.083  LOWER_BOUND=    0.000  UPPER_BOUND=    0.000
INTER + INTRA:          -6.083
INTER:                  -6.083
INTRA:                   0.000
UNBOUND:                 0.000

$$$$

     RDKit          3D

 84 92  0  0  0  0  0  0  0  0999 V2000
   49.3260   16.3080   14.8380 C   0  0  0  0  0  0  0  0  0  0  0  0
   49.4654   15.4677   13.7264 C   0  0  0  0  0  0  0  0  0  0  0  0
   50.3213   15.8358   12.6818 C   0  0  0  0  0  0  0  0  0  0  0  0
   51.0245   17.0338   12.7597 C   0  0  0  0  0  0  0  0  0  0  0  0
   50.8902   17.8709   13.8627 C   0  0  0  0  0  0  0  0  0  0  0  0
   50.0363   17.5082   14.9061 C   0  0  0  0  0  0  0  0  0  0  0  0
   47.9027    8.8673   17.7081 C   0  0  0  0  0  0  0  0  0  0  0  0
   47.9799    8.4514   19.0343 C   0  0  0  0  0  0  0  0  0  0  0  0
   49.2028    8.1070   19.6081 C   0  0  0  0  0  0  0  0  0  0  0  0
   50.3652    8.1778   18.8413 C   0  0  0  0  0  0  0  0  0  0  0  0
   50.2961    8.5940   17.5098 C   0  0  0  0  0  0  0  0  0  0  0  0
   49.0668    8.9470   16.9360 C   0  0  0  0  0  0  0  0  0  0  0  0
   46.7601   12.9782   12.7925 N   0  0  0  0  0  0  0  0  0  0  0  0
   47.5439   14.0781   12.9917 C   0  0  0  0  0  0  0  0  0  0  0  0
   46.9189   15.2594   12.3016 C   0  0  0  0  0  0  0  0  0  0  0  0
   45.5074   14.7936   12.0531 C   0  0  0  0  0  0  0  0  0  0  0  0
   45.6034   13.2783   12.1290 C   0  0  0  0  0  0  0  0  0  0  0  0
   48.6793   11.7088   14.4056 N   0  0  0  0  0  0  0  0  0  0  0  0
   49.4412   10.8141   15.1116 C   0  0  0  0  0  0  0  0  0  0  0  0
   50.6336   11.4329   15.4295 C   0  0  0  0  0  0  0  0  0  0  0  0
   50.5700   12.7653   14.9405 C   0  0  0  0  0  0  0  0  0  0  0  0
   49.3409   12.9109   14.3389 C   0  0  0  0  0  0  0  0  0  0  0  0
   47.2209    8.7881   13.7228 N   0  0  0  0  0  0  0  0  0  0  0  0
   46.7931    7.6807   13.0342 C   0  0  0  0  0  0  0  0  0  0  0  0
   47.6764    6.6529   13.2715 C   0  0  0  0  0  0  0  0  0  0  0  0
   48.6415    7.1446   14.1939 C   0  0  0  0  0  0  0  0  0  0  0  0
   48.3079    8.4536   14.4793 C   0  0  0  0  0  0  0  0  0  0  0  0
   45.4295   10.1649   12.0879 N   0  0  0  0  0  0  0  0  0  0  0  0
   44.5783   11.1189   11.5930 C   0  0  0  0  0  0  0  0  0  0  0  0
   43.4865   10.3679   10.9771 C   0  0  0  0  0  0  0  0  0  0  0  0
   43.7230    9.0654   11.1002 C   0  0  0  0  0  0  0  0  0  0  0  0
   44.9655    8.9044   11.8146 C   0  0  0  0  0  0  0  0  0  0  0  0
   44.6104   12.4919   11.5910 C   0  0  0  0  0  0  0  0  0  0  0  0
   48.7279   14.1931   13.6530 C   0  0  0  0  0  0  0  0  0  0  0  0
   49.0036    9.3739   15.5268 C   0  0  0  0  0  0  0  0  0  0  0  0
   45.4879    7.6913   12.1410 C   0  0  0  0  0  0  0  0  0  0  0  0
   43.4603   13.2057   10.9600 C   0  0  0  0  0  0  0  0  0  0  0  0
   42.3714   13.6007   11.7489 C   0  0  0  0  0  0  0  0  0  0  0  0
   41.2989   14.2650   11.1631 C   0  0  0  0  0  0  0  0  0  0  0  0
   41.2893   14.5428    9.7997 C   0  0  0  0  0  0  0  0  0  0  0  0
   42.3684   14.1506    9.0057 C   0  0  0  0  0  0  0  0  0  0  0  0
   43.4506   13.4840    9.5842 C   0  0  0  0  0  0  0  0  0  0  0  0
   44.8244    6.4112   11.8265 C   0  0  0  0  0  0  0  0  0  0  0  0
   44.9326    5.8302   10.5573 C   0  0  0  0  0  0  0  0  0  0  0  0
   44.2957    4.6216   10.2969 C   0  0  0  0  0  0  0  0  0  0  0  0
   43.5511    3.9766   11.2838 C   0  0  0  0  0  0  0  0  0  0  0  0
   43.4411    4.5520   12.5496 C   0  0  0  0  0  0  0  0  0  0  0  0
   44.0759    5.7646   12.8189 C   0  0  0  0  0  0  0  0  0  0  0  0
   44.4192    4.0803    9.0482 O   0  0  0  0  0  0  0  0  0  0  0  0
   40.2277   14.6609   11.9148 O   0  0  0  0  0  0  0  0  0  0  0  0
   51.8663   17.4198   11.7554 O   0  0  0  0  0  0  0  0  0  0  0  0
   46.8246    8.3886   19.7593 O   0  0  0  0  0  0  0  0  0  0  0  0
   48.6530   16.0156   15.6421 H   0  0  0  0  0  0  0  0  0  0  0  0
   50.4083   15.1689   11.8281 H   0  0  0  0  0  0  0  0  0  0  0  0
   51.4428   18.8029   13.9073 H   0  0  0  0  0  0  0  0  0  0  0  0
   49.9178   18.1553   15.7700 H   0  0  0  0  0  0  0  0  0  0  0  0
   46.9425    9.1347   17.2710 H   0  0  0  0  0  0  0  0  0  0  0  0
   49.2674    7.7808   20.6398 H   0  0  0  0  0  0  0  0  0  0  0  0
   51.3245    7.9070   19.2717 H   0  0  0  0  0  0  0  0  0  0  0  0
   51.2018    8.6393   16.9102 H   0  0  0  0  0  0  0  0  0  0  0  0
   46.9179   16.1740   12.9030 H   0  0  0  0  0  0  0  0  0  0  0  0
   47.4308   15.4604   11.3519 H   0  0  0  0  0  0  0  0  0  0  0  0
   45.1632   15.1798   11.0897 H   0  0  0  0  0  0  0  0  0  0  0  0
   44.8407   15.1667   12.8412 H   0  0  0  0  0  0  0  0  0  0  0  0
   47.7619   11.5851   13.9712 H   0  0  0  0  0  0  0  0  0  0  0  0
   51.4516   10.9930   15.9783 H   0  0  0  0  0  0  0  0  0  0  0  0
   51.3251   13.5316   15.0323 H   0  0  0  0  0  0  0  0  0  0  0  0
   46.7563    9.6918   13.6167 H   0  0  0  0  0  0  0  0  0  0  0  0
   47.6184    5.6605   12.8489 H   0  0  0  0  0  0  0  0  0  0  0  0
   49.4664    6.5955   14.6228 H   0  0  0  0  0  0  0  0  0  0  0  0
   42.6247   10.7881   10.4920 H   0  0  0  0  0  0  0  0  0  0  0  0
   43.0876    8.2767   10.7410 H   0  0  0  0  0  0  0  0  0  0  0  0
   42.4031   13.3684   12.8094 H   0  0  0  0  0  0  0  0  0  0  0  0
   40.4474   15.0607    9.3570 H   0  0  0  0  0  0  0  0  0  0  0  0
   42.3718   14.3593    7.9412 H   0  0  0  0  0  0  0  0  0  0  0  0
   44.3009   13.1663    8.9848 H   0  0  0  0  0  0  0  0  0  0  0  0
   45.5054    6.3359    9.7851 H   0  0  0  0  0  0  0  0  0  0  0  0
   43.0555    3.0338   11.0880 H   0  0  0  0  0  0  0  0  0  0  0  0
   42.8635    4.0671   13.3294 H   0  0  0  0  0  0  0  0  0  0  0  0
   43.9916    6.2273   13.8006 H   0  0  0  0  0  0  0  0  0  0  0  0
   43.8472    3.3006    9.0050 H   0  0  0  0  0  0  0  0  0  0  0  0
   40.4292   14.3837   12.8263 H   0  0  0  0  0  0  0  0  0  0  0  0
   51.7807   16.7512   11.0526 H   0  0  0  0  0  0  0  0  0  0  0  0
   47.0457    8.1185   20.6626 H   0  0  0  0  0  0  0  0  0  0  0  0
 25 26  2  0
 26 27  1  0
 27 23  1  0
 28 29  1  0
  1  2  2  0
  3  4  2  0
  7  8  2  0
 14 15  1  0
 29 30  1  0
 30 31  2  0
 31 32  1  0
 32 28  2  0
 15 16  1  0
 29 33  2  0
 17 33  1  0
 16 17  1  0
 14 34  2  0
 22 34  1  0
 17 13  2  0
 27 35  2  0
 19 35  1  0
 18 19  1  0
 24 36  2  0
 32 36  1  0
  8  9  1  0
  4  5  1  0
 37 38  2  0
  9 10  2  0
 38 39  1  0
  2  3  1  0
 39 40  2  0
 10 11  1  0
 40 41  1  0
 19 20  2  0
 41 42  2  0
 42 37  1  0
 33 37  1  0
 20 21  1  0
 21 22  2  0
 43 44  2  0
 22 18  1  0
 44 45  1  0
 23 24  1  0
 45 46  2  0
  5  6  2  0
 46 47  1  0
 11 12  2  0
 47 48  2  0
 48 43  1  0
 36 43  1  0
 12  7  1  0
 45 49  1  0
 13 14  1  0
 39 50  1  0
 35 12  1  0
 34  2  1  0
  6  1  1  0
  4 51  1  0
 24 25  1  0
  8 52  1  0
  1 53  1  0
  3 54  1  0
  5 55  1  0
  6 56  1  0
  7 57  1  0
  9 58  1  0
 10 59  1  0
 11 60  1  0
 15 61  1  0
 15 62  1  0
 16 63  1  0
 16 64  1  0
 18 65  1  0
 20 66  1  0
 21 67  1  0
 23 68  1  0
 25 69  1  0
 26 70  1  0
 30 71  1  0
 31 72  1  0
 38 73  1  0
 40 74  1  0
 41 75  1  0
 42 76  1  0
 44 77  1  0
 46 78  1  0
 47 79  1  0
 48 80  1  0
 49 81  1  0
 50 82  1  0
 51 83  1  0
 52 84  1  0
M  END
> <Uni-Dock RESULT> 
ENERGY=   -6.077  LOWER_BOUND=    2.891  UPPER_BOUND=    7.798
INTER + INTRA:          -6.077
INTER:                  -6.077
INTRA:                   0.000
UNBOUND:                 0.000

$$$$

     RDKit          3D

 84 92  0  0  0  0  0  0  0  0999 V2000
   51.3708   15.5711   15.5142 C   0  0  0  0  0  0  0  0  0  0  0  0
   50.2985   14.8539   16.0589 C   0  0  0  0  0  0  0  0  0  0  0  0
   49.7653   15.2362   17.2953 C   0  0  0  0  0  0  0  0  0  0  0  0
   50.3074   16.3255   17.9701 C   0  0  0  0  0  0  0  0  0  0  0  0
   51.3719   17.0417   17.4321 C   0  0  0  0  0  0  0  0  0  0  0  0
   51.9077   16.6627   16.1997 C   0  0  0  0  0  0  0  0  0  0  0  0
   47.4094   12.6247    9.0915 C   0  0  0  0  0  0  0  0  0  0  0  0
   47.4698   13.0930    7.7820 C   0  0  0  0  0  0  0  0  0  0  0  0
   46.7003   14.1812    7.3730 C   0  0  0  0  0  0  0  0  0  0  0  0
   45.8559   14.8078    8.2887 C   0  0  0  0  0  0  0  0  0  0  0  0
   45.7894   14.3438    9.6044 C   0  0  0  0  0  0  0  0  0  0  0  0
   46.5690   13.2540   10.0164 C   0  0  0  0  0  0  0  0  0  0  0  0
   49.6274   11.2577   15.0564 N   0  0  0  0  0  0  0  0  0  0  0  0
   50.0878   12.4241   15.5961 C   0  0  0  0  0  0  0  0  0  0  0  0
   51.1218   12.1080   16.6418 C   0  0  0  0  0  0  0  0  0  0  0  0
   51.4828   10.6777   16.3339 C   0  0  0  0  0  0  0  0  0  0  0  0
   50.2972   10.1654   15.5321 C   0  0  0  0  0  0  0  0  0  0  0  0
   48.0901   12.9763   13.4500 N   0  0  0  0  0  0  0  0  0  0  0  0
   47.2027   13.5266   12.5618 C   0  0  0  0  0  0  0  0  0  0  0  0
   47.1039   14.8744   12.8435 C   0  0  0  0  0  0  0  0  0  0  0  0
   48.0006   15.1577   13.9084 C   0  0  0  0  0  0  0  0  0  0  0  0
   48.6131   13.9709   14.2402 C   0  0  0  0  0  0  0  0  0  0  0  0
   46.4674   10.3113   12.2718 N   0  0  0  0  0  0  0  0  0  0  0  0
   45.6451    9.2141   12.2124 C   0  0  0  0  0  0  0  0  0  0  0  0
   44.4389    9.6031   11.6769 C   0  0  0  0  0  0  0  0  0  0  0  0
   44.5632   10.9797   11.3401 C   0  0  0  0  0  0  0  0  0  0  0  0
   45.8401   11.3741   11.6864 C   0  0  0  0  0  0  0  0  0  0  0  0
   48.0076    8.7297   13.9760 N   0  0  0  0  0  0  0  0  0  0  0  0
   49.0575    8.2241   14.6980 C   0  0  0  0  0  0  0  0  0  0  0  0
   48.9043    6.7729   14.6216 C   0  0  0  0  0  0  0  0  0  0  0  0
   47.8168    6.4811   13.9147 C   0  0  0  0  0  0  0  0  0  0  0  0
   47.2208    7.7214   13.4828 C   0  0  0  0  0  0  0  0  0  0  0  0
   50.0860    8.8127   15.3923 C   0  0  0  0  0  0  0  0  0  0  0  0
   49.7186   13.7077   15.3352 C   0  0  0  0  0  0  0  0  0  0  0  0
   46.4827   12.7654   11.4041 C   0  0  0  0  0  0  0  0  0  0  0  0
   46.1049    7.7839   12.7071 C   0  0  0  0  0  0  0  0  0  0  0  0
   51.0780    7.9096   16.0487 C   0  0  0  0  0  0  0  0  0  0  0  0
   52.2433    7.5428   15.3619 C   0  0  0  0  0  0  0  0  0  0  0  0
   53.1683    6.7013   15.9713 C   0  0  0  0  0  0  0  0  0  0  0  0
   52.9525    6.2143   17.2567 C   0  0  0  0  0  0  0  0  0  0  0  0
   51.7932    6.5723   17.9472 C   0  0  0  0  0  0  0  0  0  0  0  0
   50.8588    7.4174   17.3448 C   0  0  0  0  0  0  0  0  0  0  0  0
   45.4025    6.5898   12.1986 C   0  0  0  0  0  0  0  0  0  0  0  0
   44.4954    5.8855   12.9993 C   0  0  0  0  0  0  0  0  0  0  0  0
   43.8498    4.7656   12.4863 C   0  0  0  0  0  0  0  0  0  0  0  0
   44.0907    4.3337   11.1826 C   0  0  0  0  0  0  0  0  0  0  0  0
   44.9936    5.0328   10.3816 C   0  0  0  0  0  0  0  0  0  0  0  0
   45.6463    6.1565   10.8886 C   0  0  0  0  0  0  0  0  0  0  0  0
   42.9708    4.0987   13.2928 O   0  0  0  0  0  0  0  0  0  0  0  0
   54.3125    6.3329   15.3199 O   0  0  0  0  0  0  0  0  0  0  0  0
   49.8087   16.7213   19.1787 O   0  0  0  0  0  0  0  0  0  0  0  0
   48.3030   12.4571    6.9070 O   0  0  0  0  0  0  0  0  0  0  0  0
   51.7824   15.2619   14.5550 H   0  0  0  0  0  0  0  0  0  0  0  0
   48.9364   14.6605   17.6988 H   0  0  0  0  0  0  0  0  0  0  0  0
   51.7856   17.8866   17.9716 H   0  0  0  0  0  0  0  0  0  0  0  0
   52.7424   17.2096   15.7715 H   0  0  0  0  0  0  0  0  0  0  0  0
   48.0155   11.7749    9.3998 H   0  0  0  0  0  0  0  0  0  0  0  0
   46.7428   14.5480    6.3538 H   0  0  0  0  0  0  0  0  0  0  0  0
   45.2455   15.6525    7.9841 H   0  0  0  0  0  0  0  0  0  0  0  0
   45.1233   14.8270   10.3147 H   0  0  0  0  0  0  0  0  0  0  0  0
   52.0110   12.7445   16.5920 H   0  0  0  0  0  0  0  0  0  0  0  0
   50.6851   12.1872   17.6455 H   0  0  0  0  0  0  0  0  0  0  0  0
   51.6654   10.1412   17.2691 H   0  0  0  0  0  0  0  0  0  0  0  0
   52.3934   10.6398   15.7220 H   0  0  0  0  0  0  0  0  0  0  0  0
   48.3747   12.0013   13.5693 H   0  0  0  0  0  0  0  0  0  0  0  0
   46.4817   15.5880   12.3262 H   0  0  0  0  0  0  0  0  0  0  0  0
   48.1887   16.1173   14.3661 H   0  0  0  0  0  0  0  0  0  0  0  0
   47.3848   10.2639   12.7191 H   0  0  0  0  0  0  0  0  0  0  0  0
   43.5805    8.9651   11.5253 H   0  0  0  0  0  0  0  0  0  0  0  0
   43.8158   11.6018   10.8706 H   0  0  0  0  0  0  0  0  0  0  0  0
   49.5563    6.0437   15.0665 H   0  0  0  0  0  0  0  0  0  0  0  0
   47.4591    5.4918   13.6951 H   0  0  0  0  0  0  0  0  0  0  0  0
   52.3851    7.9345   14.3589 H   0  0  0  0  0  0  0  0  0  0  0  0
   53.6813    5.5597   17.7187 H   0  0  0  0  0  0  0  0  0  0  0  0
   51.6124    6.1973   18.9488 H   0  0  0  0  0  0  0  0  0  0  0  0
   49.9471    7.7072   17.8624 H   0  0  0  0  0  0  0  0  0  0  0  0
   44.3131    6.2159   14.0179 H   0  0  0  0  0  0  0  0  0  0  0  0
   43.5887    3.4642   10.7765 H   0  0  0  0  0  0  0  0  0  0  0  0
   45.1968    4.7103    9.3659 H   0  0  0  0  0  0  0  0  0  0  0  0
   46.3584    6.7062   10.2758 H   0  0  0  0  0  0  0  0  0  0  0  0
   42.6846    3.3014   12.8242 H   0  0  0  0  0  0  0  0  0  0  0  0
   54.2769    6.7772   14.4541 H   0  0  0  0  0  0  0  0  0  0  0  0
   49.1237   16.0722   19.4194 H   0  0  0  0  0  0  0  0  0  0  0  0
   48.2594   12.9165    6.0556 H   0  0  0  0  0  0  0  0  0  0  0  0
 25 26  2  0
 26 27  1  0
 27 23  1  0
 28 29  1  0
  1  2  2  0
  3  4  2  0
  7  8  2  0
 14 15  1  0
 29 30  1  0
 30 31  2  0
 31 32  1  0
 32 28  2  0
 15 16  1  0
 29 33  2  0
 17 33  1  0
 16 17  1  0
 14 34  2  0
 22 34  1  0
 17 13  2  0
 27 35  2  0
 19 35  1  0
 18 19  1  0
 24 36  2  0
 32 36  1  0
  8  9  1  0
  4  5  1  0
 37 38  2  0
  9 10  2  0
 38 39  1  0
  2  3  1  0
 39 40  2  0
 10 11  1  0
 40 41  1  0
 19 20  2  0
 41 42  2  0
 42 37  1  0
 33 37  1  0
 20 21  1  0
 21 22  2  0
 43 44  2  0
 22 18  1  0
 44 45  1  0
 23 24  1  0
 45 46  2  0
  5  6  2  0
 46 47  1  0
 11 12  2  0
 47 48  2  0
 48 43  1  0
 36 43  1  0
 12  7  1  0
 45 49  1  0
 13 14  1  0
 39 50  1  0
 35 12  1  0
 34  2  1  0
  6  1  1  0
  4 51  1  0
 24 25  1  0
  8 52  1  0
  1 53  1  0
  3 54  1  0
  5 55  1  0
  6 56  1  0
  7 57  1  0
  9 58  1  0
 10 59  1  0
 11 60  1  0
 15 61  1  0
 15 62  1  0
 16 63  1  0
 16 64  1  0
 18 65  1  0
 20 66  1  0
 21 67  1  0
 23 68  1  0
 25 69  1  0
 26 70  1  0
 30 71  1  0
 31 72  1  0
 38 73  1  0
 40 74  1  0
 41 75  1  0
 42 76  1  0
 44 77  1  0
 46 78  1  0
 47 79  1  0
 48 80  1  0
 49 81  1  0
 50 82  1  0
 51 83  1  0
 52 84  1  0
M  END
> <Uni-Dock RESULT> 
ENERGY=   -6.075  LOWER_BOUND=    0.049  UPPER_BOUND=    0.049
INTER + INTRA:          -6.075
INTER:                  -6.075
INTRA:                   0.000
UNBOUND:                 0.000

$$$$

     RDKit          3D

 84 92  0  0  0  0  0  0  0  0999 V2000
   51.3064    7.5243   15.4655 C   0  0  0  0  0  0  0  0  0  0  0  0
   50.0423    7.9502   15.8916 C   0  0  0  0  0  0  0  0  0  0  0  0
   49.6390    7.7132   17.2108 C   0  0  0  0  0  0  0  0  0  0  0  0
   50.4994    7.0562   18.0848 C   0  0  0  0  0  0  0  0  0  0  0  0
   51.7567    6.6326   17.6661 C   0  0  0  0  0  0  0  0  0  0  0  0
   52.1623    6.8657   16.3506 C   0  0  0  0  0  0  0  0  0  0  0  0
   49.6573   13.9726   10.8476 C   0  0  0  0  0  0  0  0  0  0  0  0
   50.5697   14.7611   10.1520 C   0  0  0  0  0  0  0  0  0  0  0  0
   51.2704   15.7819   10.7927 C   0  0  0  0  0  0  0  0  0  0  0  0
   51.0520   16.0181   12.1494 C   0  0  0  0  0  0  0  0  0  0  0  0
   50.1380   15.2314   12.8542 C   0  0  0  0  0  0  0  0  0  0  0  0
   49.4393   14.2005   12.2107 C   0  0  0  0  0  0  0  0  0  0  0  0
   47.2207    8.5123   13.4196 N   0  0  0  0  0  0  0  0  0  0  0  0
   48.1598    8.0112   14.2744 C   0  0  0  0  0  0  0  0  0  0  0  0
   47.9550    6.5278   14.4159 C   0  0  0  0  0  0  0  0  0  0  0  0
   47.0743    6.1978   13.2383 C   0  0  0  0  0  0  0  0  0  0  0  0
   46.4469    7.5313   12.8654 C   0  0  0  0  0  0  0  0  0  0  0  0
   48.5569   10.9416   13.8782 N   0  0  0  0  0  0  0  0  0  0  0  0
   48.9551   12.2526   13.9212 C   0  0  0  0  0  0  0  0  0  0  0  0
   49.8946   12.3761   14.9251 C   0  0  0  0  0  0  0  0  0  0  0  0
   50.1074   11.0838   15.4758 C   0  0  0  0  0  0  0  0  0  0  0  0
   49.2875   10.2179   14.7890 C   0  0  0  0  0  0  0  0  0  0  0  0
   46.1384   12.5093   12.1999 N   0  0  0  0  0  0  0  0  0  0  0  0
   44.9101   13.0293   11.8766 C   0  0  0  0  0  0  0  0  0  0  0  0
   44.9009   14.3636   12.2118 C   0  0  0  0  0  0  0  0  0  0  0  0
   46.2011   14.6746   12.6982 C   0  0  0  0  0  0  0  0  0  0  0  0
   46.9494   13.5158   12.6415 C   0  0  0  0  0  0  0  0  0  0  0  0
   44.8767   10.0418   11.8873 N   0  0  0  0  0  0  0  0  0  0  0  0
   44.6505    8.7051   11.6839 C   0  0  0  0  0  0  0  0  0  0  0  0
   43.4368    8.6467   10.8722 C   0  0  0  0  0  0  0  0  0  0  0  0
   42.9946    9.8809   10.6511 C   0  0  0  0  0  0  0  0  0  0  0  0
   43.9038   10.8004   11.2898 C   0  0  0  0  0  0  0  0  0  0  0  0
   45.3121    7.5714   12.0880 C   0  0  0  0  0  0  0  0  0  0  0  0
   49.1380    8.6569   14.9661 C   0  0  0  0  0  0  0  0  0  0  0  0
   48.4688   13.3840   12.9612 C   0  0  0  0  0  0  0  0  0  0  0  0
   43.7628   12.1523   11.2316 C   0  0  0  0  0  0  0  0  0  0  0  0
   44.7637    6.2575   11.6369 C   0  0  0  0  0  0  0  0  0  0  0  0
   45.2455    5.6723   10.4582 C   0  0  0  0  0  0  0  0  0  0  0  0
   44.7356    4.4489   10.0359 C   0  0  0  0  0  0  0  0  0  0  0  0
   43.7490    3.7954   10.7677 C   0  0  0  0  0  0  0  0  0  0  0  0
   43.2612    4.3723   11.9416 C   0  0  0  0  0  0  0  0  0  0  0  0
   43.7671    5.5998   12.3748 C   0  0  0  0  0  0  0  0  0  0  0  0
   42.6824   12.8237   10.4833 C   0  0  0  0  0  0  0  0  0  0  0  0
   41.4026   12.9705   11.0314 C   0  0  0  0  0  0  0  0  0  0  0  0
   40.4091   13.6108   10.2983 C   0  0  0  0  0  0  0  0  0  0  0  0
   40.6695   14.1123    9.0236 C   0  0  0  0  0  0  0  0  0  0  0  0
   41.9435   13.9683    8.4741 C   0  0  0  0  0  0  0  0  0  0  0  0
   42.9454   13.3264    9.2021 C   0  0  0  0  0  0  0  0  0  0  0  0
   39.1698   13.7376   10.8601 O   0  0  0  0  0  0  0  0  0  0  0  0
   45.1931    3.8596    8.8902 O   0  0  0  0  0  0  0  0  0  0  0  0
   50.1330    6.8101   19.3776 O   0  0  0  0  0  0  0  0  0  0  0  0
   50.7600   14.5087    8.8238 O   0  0  0  0  0  0  0  0  0  0  0  0
   51.6081    7.7078   14.4358 H   0  0  0  0  0  0  0  0  0  0  0  0
   48.6513    8.0492   17.5157 H   0  0  0  0  0  0  0  0  0  0  0  0
   52.4148    6.1191   18.3583 H   0  0  0  0  0  0  0  0  0  0  0  0
   53.1387    6.5349   16.0094 H   0  0  0  0  0  0  0  0  0  0  0  0
   49.1167   13.1777   10.3372 H   0  0  0  0  0  0  0  0  0  0  0  0
   51.9804   16.3995   10.2546 H   0  0  0  0  0  0  0  0  0  0  0  0
   51.5852   16.8134   12.6613 H   0  0  0  0  0  0  0  0  0  0  0  0
   49.9614   15.4230   13.9096 H   0  0  0  0  0  0  0  0  0  0  0  0
   48.8817    5.9467   14.3731 H   0  0  0  0  0  0  0  0  0  0  0  0
   47.4387    6.3026   15.3577 H   0  0  0  0  0  0  0  0  0  0  0  0
   46.3585    5.4234   13.5276 H   0  0  0  0  0  0  0  0  0  0  0  0
   47.6814    5.8230   12.4041 H   0  0  0  0  0  0  0  0  0  0  0  0
   47.8463   10.4939   13.2948 H   0  0  0  0  0  0  0  0  0  0  0  0
   50.3987   13.2846   15.2158 H   0  0  0  0  0  0  0  0  0  0  0  0
   50.7908   10.8157   16.2675 H   0  0  0  0  0  0  0  0  0  0  0  0
   46.3312   11.5096   12.1140 H   0  0  0  0  0  0  0  0  0  0  0  0
   44.0644   15.0374   12.0972 H   0  0  0  0  0  0  0  0  0  0  0  0
   46.5574   15.6408   13.0230 H   0  0  0  0  0  0  0  0  0  0  0  0
   42.9613    7.7543   10.5086 H   0  0  0  0  0  0  0  0  0  0  0  0
   42.1204   10.1407   10.0826 H   0  0  0  0  0  0  0  0  0  0  0  0
   46.0131    6.2053    9.9046 H   0  0  0  0  0  0  0  0  0  0  0  0
   43.3611    2.8433   10.4269 H   0  0  0  0  0  0  0  0  0  0  0  0
   42.4905    3.8739   12.5197 H   0  0  0  0  0  0  0  0  0  0  0  0
   43.4001    6.0696   13.2846 H   0  0  0  0  0  0  0  0  0  0  0  0
   41.1961   12.5728   12.0209 H   0  0  0  0  0  0  0  0  0  0  0  0
   39.9009   14.6145    8.4492 H   0  0  0  0  0  0  0  0  0  0  0  0
   42.1644   14.3489    7.4826 H   0  0  0  0  0  0  0  0  0  0  0  0
   43.9414   13.2015    8.7813 H   0  0  0  0  0  0  0  0  0  0  0  0
   38.5790   14.1154   10.1928 H   0  0  0  0  0  0  0  0  0  0  0  0
   45.8722    4.4620    8.5377 H   0  0  0  0  0  0  0  0  0  0  0  0
   49.2123    7.1150   19.4653 H   0  0  0  0  0  0  0  0  0  0  0  0
   51.4422   15.1114    8.4934 H   0  0  0  0  0  0  0  0  0  0  0  0
 25 26  2  0
 26 27  1  0
 27 23  1  0
 28 29  1  0
  1  2  2  0
  3  4  2  0
  7  8  2  0
 14 15  1  0
 29 30  1  0
 30 31  2  0
 31 32  1  0
 32 28  2  0
 15 16  1  0
 29 33  2  0
 17 33  1  0
 16 17  1  0
 14 34  2  0
 22 34  1  0
 17 13  2  0
 27 35  2  0
 19 35  1  0
 18 19  1  0
 24 36  2  0
 32 36  1  0
  8  9  1  0
  4  5  1  0
 37 38  2  0
  9 10  2  0
 38 39  1  0
  2  3  1  0
 39 40  2  0
 10 11  1  0
 40 41  1  0
 19 20  2  0
 41 42  2  0
 42 37  1  0
 33 37  1  0
 20 21  1  0
 21 22  2  0
 43 44  2  0
 22 18  1  0
 44 45  1  0
 23 24  1  0
 45 46  2  0
  5  6  2  0
 46 47  1  0
 11 12  2  0
 47 48  2  0
 48 43  1  0
 36 43  1  0
 12  7  1  0
 45 49  1  0
 13 14  1  0
 39 50  1  0
 35 12  1  0
 34  2  1  0
  6  1  1  0
  4 51  1  0
 24 25  1  0
  8 52  1  0
  1 53  1  0
  3 54  1  0
  5 55  1  0
  6 56  1  0
  7 57  1  0
  9 58  1  0
 10 59  1  0
 11 60  1  0
 15 61  1  0
 15 62  1  0
 16 63  1  0
 16 64  1  0
 18 65  1  0
 20 66  1  0
 21 67  1  0
 23 68  1  0
 25 69  1  0
 26 70  1  0
 30 71  1  0
 31 72  1  0
 38 73  1  0
 40 74  1  0
 41 75  1  0
 42 76  1  0
 44 77  1  0
 46 78  1  0
 47 79  1  0
 48 80  1  0
 49 81  1  0
 50 82  1  0
 51 83  1  0
 52 84  1  0
M  END
> <Uni-Dock RESULT> 
ENERGY=   -6.025  LOWER_BOUND=    2.739  UPPER_BOUND=    7.032
INTER + INTRA:          -6.025
INTER:                  -6.025
INTRA:                   0.000
UNBOUND:                 0.000

$$$$

     RDKit          3D

 84 92  0  0  0  0  0  0  0  0999 V2000
   51.5108    7.3203   15.6084 C   0  0  0  0  0  0  0  0  0  0  0  0
   50.2689    7.8042   16.0378 C   0  0  0  0  0  0  0  0  0  0  0  0
   49.8572    7.5834   17.3573 C   0  0  0  0  0  0  0  0  0  0  0  0
   50.6873    6.8847   18.2281 C   0  0  0  0  0  0  0  0  0  0  0  0
   51.9225    6.4033   17.8062 C   0  0  0  0  0  0  0  0  0  0  0  0
   52.3363    6.6201   16.4904 C   0  0  0  0  0  0  0  0  0  0  0  0
   50.1590   13.8497   11.0079 C   0  0  0  0  0  0  0  0  0  0  0  0
   51.1063   14.5960   10.3124 C   0  0  0  0  0  0  0  0  0  0  0  0
   51.8555   15.5812   10.9540 C   0  0  0  0  0  0  0  0  0  0  0  0
   51.6507   15.8243   12.3116 C   0  0  0  0  0  0  0  0  0  0  0  0
   50.7020   15.0799   13.0164 C   0  0  0  0  0  0  0  0  0  0  0  0
   49.9544   14.0845   12.3719 C   0  0  0  0  0  0  0  0  0  0  0  0
   47.4725    8.5043   13.5723 N   0  0  0  0  0  0  0  0  0  0  0  0
   48.3885    7.9575   14.4243 C   0  0  0  0  0  0  0  0  0  0  0  0
   48.1143    6.4851   14.5628 C   0  0  0  0  0  0  0  0  0  0  0  0
   47.2171    6.1996   13.3862 C   0  0  0  0  0  0  0  0  0  0  0  0
   46.6524    7.5621   13.0174 C   0  0  0  0  0  0  0  0  0  0  0  0
   48.9225   10.8669   14.0339 N   0  0  0  0  0  0  0  0  0  0  0  0
   49.3820   12.1576   14.0789 C   0  0  0  0  0  0  0  0  0  0  0  0
   50.3281   12.2344   15.0814 C   0  0  0  0  0  0  0  0  0  0  0  0
   50.4808   10.9323   15.6288 C   0  0  0  0  0  0  0  0  0  0  0  0
   49.6198   10.1075   14.9417 C   0  0  0  0  0  0  0  0  0  0  0  0
   46.5775   12.5506   12.3635 N   0  0  0  0  0  0  0  0  0  0  0  0
   45.3745   13.1286   12.0436 C   0  0  0  0  0  0  0  0  0  0  0  0
   45.4287   14.4611   12.3819 C   0  0  0  0  0  0  0  0  0  0  0  0
   46.7430   14.7094   12.8665 C   0  0  0  0  0  0  0  0  0  0  0  0
   47.4357   13.5168   12.8059 C   0  0  0  0  0  0  0  0  0  0  0  0
   45.2005   10.1460   12.0478 N   0  0  0  0  0  0  0  0  0  0  0  0
   44.9112    8.8219   11.8418 C   0  0  0  0  0  0  0  0  0  0  0  0
   43.6947    8.8226   11.0323 C   0  0  0  0  0  0  0  0  0  0  0  0
   43.3107   10.0767   10.8148 C   0  0  0  0  0  0  0  0  0  0  0  0
   44.2633   10.9509   11.4538 C   0  0  0  0  0  0  0  0  0  0  0  0
   45.5194    7.6574   12.2422 C   0  0  0  0  0  0  0  0  0  0  0  0
   49.3972    8.5549   15.1156 C   0  0  0  0  0  0  0  0  0  0  0  0
   48.9479   13.3128   13.1224 C   0  0  0  0  0  0  0  0  0  0  0  0
   44.1860   12.3081   11.3989 C   0  0  0  0  0  0  0  0  0  0  0  0
   44.9090    6.3718   11.7892 C   0  0  0  0  0  0  0  0  0  0  0  0
   45.3606    5.7673   10.6083 C   0  0  0  0  0  0  0  0  0  0  0  0
   44.7930    4.5702   10.1842 C   0  0  0  0  0  0  0  0  0  0  0  0
   43.7779    3.9622   10.9165 C   0  0  0  0  0  0  0  0  0  0  0  0
   43.3200    4.5587   12.0925 C   0  0  0  0  0  0  0  0  0  0  0  0
   43.8839    5.7600   12.5275 C   0  0  0  0  0  0  0  0  0  0  0  0
   43.1372   13.0313   10.6541 C   0  0  0  0  0  0  0  0  0  0  0  0
   41.8666   13.2370   11.2049 C   0  0  0  0  0  0  0  0  0  0  0  0
   40.9031   13.9250   10.4751 C   0  0  0  0  0  0  0  0  0  0  0  0
   41.1846   14.4166    9.2010 C   0  0  0  0  0  0  0  0  0  0  0  0
   42.4494   14.2141    8.6488 C   0  0  0  0  0  0  0  0  0  0  0  0
   43.4212   13.5241    9.3735 C   0  0  0  0  0  0  0  0  0  0  0  0
   39.6721   14.1087   11.0395 O   0  0  0  0  0  0  0  0  0  0  0  0
   45.2202    3.9627    9.0364 O   0  0  0  0  0  0  0  0  0  0  0  0
   50.3120    6.6531   19.5211 O   0  0  0  0  0  0  0  0  0  0  0  0
   51.2822   14.3380    8.9833 O   0  0  0  0  0  0  0  0  0  0  0  0
   51.8190    7.4918   14.5785 H   0  0  0  0  0  0  0  0  0  0  0  0
   48.8870    7.9649   17.6647 H   0  0  0  0  0  0  0  0  0  0  0  0
   52.5569    5.8578   18.4960 H   0  0  0  0  0  0  0  0  0  0  0  0
   53.2954    6.2445   16.1467 H   0  0  0  0  0  0  0  0  0  0  0  0
   49.5807   13.0824   10.4968 H   0  0  0  0  0  0  0  0  0  0  0  0
   52.5928   16.1660   10.4160 H   0  0  0  0  0  0  0  0  0  0  0  0
   52.2217   16.5924   12.8243 H   0  0  0  0  0  0  0  0  0  0  0  0
   50.5364   15.2772   14.0726 H   0  0  0  0  0  0  0  0  0  0  0  0
   49.0126    5.8612   14.5171 H   0  0  0  0  0  0  0  0  0  0  0  0
   47.5897    6.2824   15.5051 H   0  0  0  0  0  0  0  0  0  0  0  0
   46.4661    5.4592   13.6751 H   0  0  0  0  0  0  0  0  0  0  0  0
   47.8043    5.7986   12.5500 H   0  0  0  0  0  0  0  0  0  0  0  0
   48.1905   10.4545   13.4508 H   0  0  0  0  0  0  0  0  0  0  0  0
   50.8749   13.1175   15.3732 H   0  0  0  0  0  0  0  0  0  0  0  0
   51.1522   10.6304   16.4187 H   0  0  0  0  0  0  0  0  0  0  0  0
   46.7229   11.5432   12.2751 H   0  0  0  0  0  0  0  0  0  0  0  0
   44.6247   15.1738   12.2703 H   0  0  0  0  0  0  0  0  0  0  0  0
   47.1449   15.6570   13.1928 H   0  0  0  0  0  0  0  0  0  0  0  0
   43.1771    7.9544   10.6676 H   0  0  0  0  0  0  0  0  0  0  0  0
   42.4487   10.3787   10.2485 H   0  0  0  0  0  0  0  0  0  0  0  0
   46.1515    6.2648   10.0545 H   0  0  0  0  0  0  0  0  0  0  0  0
   43.3451    3.0302   10.5742 H   0  0  0  0  0  0  0  0  0  0  0  0
   42.5276    4.0959   12.6710 H   0  0  0  0  0  0  0  0  0  0  0  0
   43.5409    6.2445   13.4390 H   0  0  0  0  0  0  0  0  0  0  0  0
   41.6434   12.8471   12.1939 H   0  0  0  0  0  0  0  0  0  0  0  0
   40.4395   14.9558    8.6292 H   0  0  0  0  0  0  0  0  0  0  0  0
   42.6863   14.5861    7.6577 H   0  0  0  0  0  0  0  0  0  0  0  0
   44.4096   13.3534    8.9506 H   0  0  0  0  0  0  0  0  0  0  0  0
   39.0986   14.5155   10.3741 H   0  0  0  0  0  0  0  0  0  0  0  0
   45.9262    4.5332    8.6839 H   0  0  0  0  0  0  0  0  0  0  0  0
   49.4068    7.0008   19.6112 H   0  0  0  0  0  0  0  0  0  0  0  0
   51.9914   14.9087    8.6530 H   0  0  0  0  0  0  0  0  0  0  0  0
 25 26  2  0
 26 27  1  0
 27 23  1  0
 28 29  1  0
  1  2  2  0
  3  4  2  0
  7  8  2  0
 14 15  1  0
 29 30  1  0
 30 31  2  0
 31 32  1  0
 32 28  2  0
 15 16  1  0
 29 33  2  0
 17 33  1  0
 16 17  1  0
 14 34  2  0
 22 34  1  0
 17 13  2  0
 27 35  2  0
 19 35  1  0
 18 19  1  0
 24 36  2  0
 32 36  1  0
  8  9  1  0
  4  5  1  0
 37 38  2  0
  9 10  2  0
 38 39  1  0
  2  3  1  0
 39 40  2  0
 10 11  1  0
 40 41  1  0
 19 20  2  0
 41 42  2  0
 42 37  1  0
 33 37  1  0
 20 21  1  0
 21 22  2  0
 43 44  2  0
 22 18  1  0
 44 45  1  0
 23 24  1  0
 45 46  2  0
  5  6  2  0
 46 47  1  0
 11 12  2  0
 47 48  2  0
 48 43  1  0
 36 43  1  0
 12  7  1  0
 45 49  1  0
 13 14  1  0
 39 50  1  0
 35 12  1  0
 34  2  1  0
  6  1  1  0
  4 51  1  0
 24 25  1  0
  8 52  1  0
  1 53  1  0
  3 54  1  0
  5 55  1  0
  6 56  1  0
  7 57  1  0
  9 58  1  0
 10 59  1  0
 11 60  1  0
 15 61  1  0
 15 62  1  0
 16 63  1  0
 16 64  1  0
 18 65  1  0
 20 66  1  0
 21 67  1  0
 23 68  1  0
 25 69  1  0
 26 70  1  0
 30 71  1  0
 31 72  1  0
 38 73  1  0
 40 74  1  0
 41 75  1  0
 42 76  1  0
 44 77  1  0
 46 78  1  0
 47 79  1  0
 48 80  1  0
 49 81  1  0
 50 82  1  0
 51 83  1  0
 52 84  1  0
M  END
> <Uni-Dock RESULT> 
ENERGY=   -5.941  LOWER_BOUND=    2.667  UPPER_BOUND=    7.085
INTER + INTRA:          -5.941
INTER:                  -5.941
INTRA:                   0.000
UNBOUND:                 0.000

$$$$

     RDKit          3D

 84 92  0  0  0  0  0  0  0  0999 V2000
   45.0180    5.4534   10.5533 C   0  0  0  0  0  0  0  0  0  0  0  0
   44.9391    6.2093   11.7295 C   0  0  0  0  0  0  0  0  0  0  0  0
   44.2374    5.7065   12.8312 C   0  0  0  0  0  0  0  0  0  0  0  0
   43.6253    4.4600   12.7452 C   0  0  0  0  0  0  0  0  0  0  0  0
   43.7023    3.7050   11.5792 C   0  0  0  0  0  0  0  0  0  0  0  0
   44.3999    4.2037   10.4774 C   0  0  0  0  0  0  0  0  0  0  0  0
   51.7885    9.9015   10.5830 C   0  0  0  0  0  0  0  0  0  0  0  0
   52.9616    9.6475    9.8778 C   0  0  0  0  0  0  0  0  0  0  0  0
   53.9123    8.7521   10.3656 C   0  0  0  0  0  0  0  0  0  0  0  0
   53.6858    8.1037   11.5791 C   0  0  0  0  0  0  0  0  0  0  0  0
   52.5113    8.3532   12.2927 C   0  0  0  0  0  0  0  0  0  0  0  0
   51.5527    9.2483   11.7977 C   0  0  0  0  0  0  0  0  0  0  0  0
   45.3726    9.9773   11.6775 N   0  0  0  0  0  0  0  0  0  0  0  0
   44.9308    8.6882   11.5953 C   0  0  0  0  0  0  0  0  0  0  0  0
   43.4716    8.6903   11.2303 C   0  0  0  0  0  0  0  0  0  0  0  0
   43.2573   10.0907   10.7164 C   0  0  0  0  0  0  0  0  0  0  0  0
   44.4139   10.8792   11.3093 C   0  0  0  0  0  0  0  0  0  0  0  0
   47.8443    8.7616   12.2343 N   0  0  0  0  0  0  0  0  0  0  0  0
   49.1466    8.4855   12.5613 C   0  0  0  0  0  0  0  0  0  0  0  0
   49.2365    7.1351   12.8339 C   0  0  0  0  0  0  0  0  0  0  0  0
   47.9530    6.5664   12.6162 C   0  0  0  0  0  0  0  0  0  0  0  0
   47.1246    7.5916   12.2206 C   0  0  0  0  0  0  0  0  0  0  0  0
   49.0889   11.7742   12.9406 N   0  0  0  0  0  0  0  0  0  0  0  0
   49.3180   12.9661   13.5812 C   0  0  0  0  0  0  0  0  0  0  0  0
   50.4464   12.8330   14.3570 C   0  0  0  0  0  0  0  0  0  0  0  0
   50.9546   11.5250   14.1231 C   0  0  0  0  0  0  0  0  0  0  0  0
   50.1131   10.9132   13.2154 C   0  0  0  0  0  0  0  0  0  0  0  0
   46.5615   12.8397   12.4357 N   0  0  0  0  0  0  0  0  0  0  0  0
   45.3286   13.0774   11.8856 C   0  0  0  0  0  0  0  0  0  0  0  0
   45.1683   14.5292   11.9311 C   0  0  0  0  0  0  0  0  0  0  0  0
   46.2420   15.0737   12.4952 C   0  0  0  0  0  0  0  0  0  0  0  0
   47.1578   14.0102   12.8272 C   0  0  0  0  0  0  0  0  0  0  0  0
   44.3562   12.2526   11.3753 C   0  0  0  0  0  0  0  0  0  0  0  0
   45.5994    7.5245   11.8211 C   0  0  0  0  0  0  0  0  0  0  0  0
   50.3222    9.5130   12.5644 C   0  0  0  0  0  0  0  0  0  0  0  0
   48.3770   14.2232   13.3922 C   0  0  0  0  0  0  0  0  0  0  0  0
   43.1249   12.8973   10.8287 C   0  0  0  0  0  0  0  0  0  0  0  0
   43.0535   13.2119    9.4649 C   0  0  0  0  0  0  0  0  0  0  0  0
   41.9079   13.8130    8.9537 C   0  0  0  0  0  0  0  0  0  0  0  0
   40.8280   14.1099    9.7795 C   0  0  0  0  0  0  0  0  0  0  0  0
   40.8915   13.8025   11.1397 C   0  0  0  0  0  0  0  0  0  0  0  0
   42.0367   13.1980   11.6626 C   0  0  0  0  0  0  0  0  0  0  0  0
   48.9061   15.5667   13.6973 C   0  0  0  0  0  0  0  0  0  0  0  0
   48.5321   16.2465   14.8626 C   0  0  0  0  0  0  0  0  0  0  0  0
   49.0522   17.5106   15.1191 C   0  0  0  0  0  0  0  0  0  0  0  0
   49.9449   18.1118   14.2325 C   0  0  0  0  0  0  0  0  0  0  0  0
   50.3202   17.4376   13.0706 C   0  0  0  0  0  0  0  0  0  0  0  0
   49.8023   16.1699   12.8050 C   0  0  0  0  0  0  0  0  0  0  0  0
   48.6672   18.1491   16.2644 O   0  0  0  0  0  0  0  0  0  0  0  0
   41.8166   14.1263    7.6261 O   0  0  0  0  0  0  0  0  0  0  0  0
   42.9329    3.9437   13.8036 O   0  0  0  0  0  0  0  0  0  0  0  0
   53.1574   10.2999    8.6945 O   0  0  0  0  0  0  0  0  0  0  0  0
   45.5608    5.8563    9.7000 H   0  0  0  0  0  0  0  0  0  0  0  0
   44.1867    6.3144   13.7307 H   0  0  0  0  0  0  0  0  0  0  0  0
   43.2173    2.7365   11.5266 H   0  0  0  0  0  0  0  0  0  0  0  0
   44.4626    3.6272    9.5593 H   0  0  0  0  0  0  0  0  0  0  0  0
   51.0529   10.6018   10.1920 H   0  0  0  0  0  0  0  0  0  0  0  0
   54.8280    8.5528    9.8208 H   0  0  0  0  0  0  0  0  0  0  0  0
   54.4193    7.4082   11.9755 H   0  0  0  0  0  0  0  0  0  0  0  0
   52.3405    7.8545   13.2434 H   0  0  0  0  0  0  0  0  0  0  0  0
   43.2064    7.9576   10.4615 H   0  0  0  0  0  0  0  0  0  0  0  0
   42.8561    8.5085   12.1205 H   0  0  0  0  0  0  0  0  0  0  0  0
   42.2662   10.4396   11.0195 H   0  0  0  0  0  0  0  0  0  0  0  0
   43.3165   10.1055    9.6204 H   0  0  0  0  0  0  0  0  0  0  0  0
   47.4011    9.6577   12.0190 H   0  0  0  0  0  0  0  0  0  0  0  0
   50.1284    6.6039   13.1276 H   0  0  0  0  0  0  0  0  0  0  0  0
   47.6722    5.5289   12.7194 H   0  0  0  0  0  0  0  0  0  0  0  0
   48.2483   11.6259   12.3791 H   0  0  0  0  0  0  0  0  0  0  0  0
   50.8663   13.5957   14.9965 H   0  0  0  0  0  0  0  0  0  0  0  0
   51.8490   11.0922   14.5458 H   0  0  0  0  0  0  0  0  0  0  0  0
   44.3196   15.0833   11.5742 H   0  0  0  0  0  0  0  0  0  0  0  0
   46.3992   16.1242   12.6583 H   0  0  0  0  0  0  0  0  0  0  0  0
   43.9116   12.9725    8.8437 H   0  0  0  0  0  0  0  0  0  0  0  0
   39.9423   14.5781    9.3678 H   0  0  0  0  0  0  0  0  0  0  0  0
   40.0572   14.0310   11.7942 H   0  0  0  0  0  0  0  0  0  0  0  0
   42.1098   12.9522   12.7197 H   0  0  0  0  0  0  0  0  0  0  0  0
   47.8302   15.7828   15.5500 H   0  0  0  0  0  0  0  0  0  0  0  0
   50.3557   19.0945   14.4284 H   0  0  0  0  0  0  0  0  0  0  0  0
   51.0108   17.8903   12.3670 H   0  0  0  0  0  0  0  0  0  0  0  0
   50.0820   15.6368   11.8982 H   0  0  0  0  0  0  0  0  0  0  0  0
   49.0392   19.0426   16.2452 H   0  0  0  0  0  0  0  0  0  0  0  0
   42.6573   13.8368    7.2291 H   0  0  0  0  0  0  0  0  0  0  0  0
   42.9334    4.6306   14.4940 H   0  0  0  0  0  0  0  0  0  0  0  0
   53.9930    9.9943    8.3124 H   0  0  0  0  0  0  0  0  0  0  0  0
 25 26  2  0
 26 27  1  0
 27 23  1  0
 28 29  1  0
  1  2  2  0
  3  4  2  0
  7  8  2  0
 14 15  1  0
 29 30  1  0
 30 31  2  0
 31 32  1  0
 32 28  2  0
 15 16  1  0
 29 33  2  0
 17 33  1  0
 16 17  1  0
 14 34  2  0
 22 34  1  0
 17 13  2  0
 27 35  2  0
 19 35  1  0
 18 19  1  0
 24 36  2  0
 32 36  1  0
  8  9  1  0
  4  5  1  0
 37 38  2  0
  9 10  2  0
 38 39  1  0
  2  3  1  0
 39 40  2  0
 10 11  1  0
 40 41  1  0
 19 20  2  0
 41 42  2  0
 42 37  1  0
 33 37  1  0
 20 21  1  0
 21 22  2  0
 43 44  2  0
 22 18  1  0
 44 45  1  0
 23 24  1  0
 45 46  2  0
  5  6  2  0
 46 47  1  0
 11 12  2  0
 47 48  2  0
 48 43  1  0
 36 43  1  0
 12  7  1  0
 45 49  1  0
 13 14  1  0
 39 50  1  0
 35 12  1  0
 34  2  1  0
  6  1  1  0
  4 51  1  0
 24 25  1  0
  8 52  1  0
  1 53  1  0
  3 54  1  0
  5 55  1  0
  6 56  1  0
  7 57  1  0
  9 58  1  0
 10 59  1  0
 11 60  1  0
 15 61  1  0
 15 62  1  0
 16 63  1  0
 16 64  1  0
 18 65  1  0
 20 66  1  0
 21 67  1  0
 23 68  1  0
 25 69  1  0
 26 70  1  0
 30 71  1  0
 31 72  1  0
 38 73  1  0
 40 74  1  0
 41 75  1  0
 42 76  1  0
 44 77  1  0
 46 78  1  0
 47 79  1  0
 48 80  1  0
 49 81  1  0
 50 82  1  0
 51 83  1  0
 52 84  1  0
M  END
> <Uni-Dock RESULT> 
ENERGY=   -5.520  LOWER_BOUND=    2.870  UPPER_BOUND=   10.425
INTER + INTRA:          -5.520
INTER:                  -5.520
INTRA:                   0.000
UNBOUND:                 0.000

$$$$

     RDKit          3D

 84 92  0  0  0  0  0  0  0  0999 V2000
   43.5618    5.9770   12.3552 C   0  0  0  0  0  0  0  0  0  0  0  0
   44.5638    6.5951   11.5968 C   0  0  0  0  0  0  0  0  0  0  0  0
   45.1074    5.9294   10.4921 C   0  0  0  0  0  0  0  0  0  0  0  0
   44.6459    4.6596   10.1597 C   0  0  0  0  0  0  0  0  0  0  0  0
   43.6497    4.0425   10.9094 C   0  0  0  0  0  0  0  0  0  0  0  0
   43.1059    4.7024   12.0131 C   0  0  0  0  0  0  0  0  0  0  0  0
   42.1436   13.9109   13.1722 C   0  0  0  0  0  0  0  0  0  0  0  0
   40.9482   14.5140   13.5533 C   0  0  0  0  0  0  0  0  0  0  0  0
   39.9308   14.7387   12.6271 C   0  0  0  0  0  0  0  0  0  0  0  0
   40.1147   14.3560   11.2989 C   0  0  0  0  0  0  0  0  0  0  0  0
   41.3112   13.7504   10.9086 C   0  0  0  0  0  0  0  0  0  0  0  0
   42.3308   13.5185   11.8423 C   0  0  0  0  0  0  0  0  0  0  0  0
   46.7531    9.3162   13.0769 N   0  0  0  0  0  0  0  0  0  0  0  0
   46.1549    8.1480   12.7011 C   0  0  0  0  0  0  0  0  0  0  0  0
   46.9575    6.9915   13.2310 C   0  0  0  0  0  0  0  0  0  0  0  0
   47.8234    7.6383   14.2812 C   0  0  0  0  0  0  0  0  0  0  0  0
   47.8259    9.1095   13.8983 C   0  0  0  0  0  0  0  0  0  0  0  0
   44.5693   10.4917   11.7553 N   0  0  0  0  0  0  0  0  0  0  0  0
   43.6724   11.3491   11.1726 C   0  0  0  0  0  0  0  0  0  0  0  0
   42.8271   10.6006   10.3783 C   0  0  0  0  0  0  0  0  0  0  0  0
   43.1958    9.2364   10.5247 C   0  0  0  0  0  0  0  0  0  0  0  0
   44.2555    9.2018   11.4020 C   0  0  0  0  0  0  0  0  0  0  0  0
   46.0276   13.4667   12.1378 N   0  0  0  0  0  0  0  0  0  0  0  0
   46.9132   14.5057   11.9968 C   0  0  0  0  0  0  0  0  0  0  0  0
   46.3953   15.3981   11.0867 C   0  0  0  0  0  0  0  0  0  0  0  0
   45.1136   14.9069   10.7125 C   0  0  0  0  0  0  0  0  0  0  0  0
   44.9038   13.7333   11.4086 C   0  0  0  0  0  0  0  0  0  0  0  0
   48.1680   12.1621   13.3605 N   0  0  0  0  0  0  0  0  0  0  0  0
   48.9091   11.2953   14.1211 C   0  0  0  0  0  0  0  0  0  0  0  0
   49.9889   12.1085   14.6762 C   0  0  0  0  0  0  0  0  0  0  0  0
   49.8726   13.3569   14.2340 C   0  0  0  0  0  0  0  0  0  0  0  0
   48.7068   13.4222   13.3874 C   0  0  0  0  0  0  0  0  0  0  0  0
   48.7956    9.9532   14.3897 C   0  0  0  0  0  0  0  0  0  0  0  0
   45.0417    7.9458   11.9448 C   0  0  0  0  0  0  0  0  0  0  0  0
   43.5939   12.8892   11.4174 C   0  0  0  0  0  0  0  0  0  0  0  0
   48.2780   14.5687   12.7935 C   0  0  0  0  0  0  0  0  0  0  0  0
   49.8058    9.3479   15.3082 C   0  0  0  0  0  0  0  0  0  0  0  0
   49.5359    9.2686   16.6811 C   0  0  0  0  0  0  0  0  0  0  0  0
   50.4757    8.7057   17.5384 C   0  0  0  0  0  0  0  0  0  0  0  0
   51.6856    8.2201   17.0522 C   0  0  0  0  0  0  0  0  0  0  0  0
   51.9640    8.2974   15.6864 C   0  0  0  0  0  0  0  0  0  0  0  0
   51.0268    8.8598   14.8171 C   0  0  0  0  0  0  0  0  0  0  0  0
   48.9413   15.8742   12.9765 C   0  0  0  0  0  0  0  0  0  0  0  0
   50.0792   16.2200   12.2379 C   0  0  0  0  0  0  0  0  0  0  0  0
   50.6771   17.4601   12.4349 C   0  0  0  0  0  0  0  0  0  0  0  0
   50.1579   18.3678   13.3573 C   0  0  0  0  0  0  0  0  0  0  0  0
   49.0241   18.0272   14.0949 C   0  0  0  0  0  0  0  0  0  0  0  0
   48.4189   16.7849   13.9044 C   0  0  0  0  0  0  0  0  0  0  0  0
   51.7872   17.7680   11.6996 O   0  0  0  0  0  0  0  0  0  0  0  0
   50.2316    8.6167   18.8807 O   0  0  0  0  0  0  0  0  0  0  0  0
   45.1581    3.9852    9.0877 O   0  0  0  0  0  0  0  0  0  0  0  0
   40.7984   14.8811   14.8598 O   0  0  0  0  0  0  0  0  0  0  0  0
   43.1500    6.5006   13.2162 H   0  0  0  0  0  0  0  0  0  0  0  0
   45.8871    6.4284    9.9227 H   0  0  0  0  0  0  0  0  0  0  0  0
   43.3027    3.0511   10.6395 H   0  0  0  0  0  0  0  0  0  0  0  0
   42.3320    4.2294   12.6102 H   0  0  0  0  0  0  0  0  0  0  0  0
   42.9306   13.7396   13.9042 H   0  0  0  0  0  0  0  0  0  0  0  0
   38.9992   15.2097   12.9190 H   0  0  0  0  0  0  0  0  0  0  0  0
   39.3344   14.5297   10.5642 H   0  0  0  0  0  0  0  0  0  0  0  0
   41.4572   13.4615    9.8708 H   0  0  0  0  0  0  0  0  0  0  0  0
   46.3494    6.1970   13.6752 H   0  0  0  0  0  0  0  0  0  0  0  0
   47.5764    6.5603   12.4339 H   0  0  0  0  0  0  0  0  0  0  0  0
   48.8096    7.1660   14.2783 H   0  0  0  0  0  0  0  0  0  0  0  0
   47.3741    7.5105   15.2745 H   0  0  0  0  0  0  0  0  0  0  0  0
   45.3644   10.6944   12.3656 H   0  0  0  0  0  0  0  0  0  0  0  0
   42.0137   10.9811    9.7804 H   0  0  0  0  0  0  0  0  0  0  0  0
   42.7313    8.3805   10.0583 H   0  0  0  0  0  0  0  0  0  0  0  0
   46.2564   12.6468   12.7029 H   0  0  0  0  0  0  0  0  0  0  0  0
   46.8738   16.3064   10.7509 H   0  0  0  0  0  0  0  0  0  0  0  0
   44.4131   15.3735   10.0361 H   0  0  0  0  0  0  0  0  0  0  0  0
   50.7654   11.7646   15.3346 H   0  0  0  0  0  0  0  0  0  0  0  0
   50.5278   14.1723   14.4804 H   0  0  0  0  0  0  0  0  0  0  0  0
   48.5856    9.6581   17.0343 H   0  0  0  0  0  0  0  0  0  0  0  0
   52.4081    7.7845   17.7314 H   0  0  0  0  0  0  0  0  0  0  0  0
   52.9045    7.9245   15.2954 H   0  0  0  0  0  0  0  0  0  0  0  0
   51.2233    8.9334   13.7498 H   0  0  0  0  0  0  0  0  0  0  0  0
   50.4896   15.5105   11.5251 H   0  0  0  0  0  0  0  0  0  0  0  0
   50.6172   19.3361   13.5128 H   0  0  0  0  0  0  0  0  0  0  0  0
   48.6074   18.7185   14.8196 H   0  0  0  0  0  0  0  0  0  0  0  0
   47.5380   16.5047   14.4791 H   0  0  0  0  0  0  0  0  0  0  0  0
   52.1300   18.6145   12.0204 H   0  0  0  0  0  0  0  0  0  0  0  0
   49.3455    8.9983   19.0128 H   0  0  0  0  0  0  0  0  0  0  0  0
   45.8766    4.5384    8.7326 H   0  0  0  0  0  0  0  0  0  0  0  0
   39.9107   15.2511   14.9728 H   0  0  0  0  0  0  0  0  0  0  0  0
 25 26  2  0
 26 27  1  0
 27 23  1  0
 28 29  1  0
  1  2  2  0
  3  4  2  0
  7  8  2  0
 14 15  1  0
 29 30  1  0
 30 31  2  0
 31 32  1  0
 32 28  2  0
 15 16  1  0
 29 33  2  0
 17 33  1  0
 16 17  1  0
 14 34  2  0
 22 34  1  0
 17 13  2  0
 27 35  2  0
 19 35  1  0
 18 19  1  0
 24 36  2  0
 32 36  1  0
  8  9  1  0
  4  5  1  0
 37 38  2  0
  9 10  2  0
 38 39  1  0
  2  3  1  0
 39 40  2  0
 10 11  1  0
 40 41  1  0
 19 20  2  0
 41 42  2  0
 42 37  1  0
 33 37  1  0
 20 21  1  0
 21 22  2  0
 43 44  2  0
 22 18  1  0
 44 45  1  0
 23 24  1  0
 45 46  2  0
  5  6  2  0
 46 47  1  0
 11 12  2  0
 47 48  2  0
 48 43  1  0
 36 43  1  0
 12  7  1  0
 45 49  1  0
 13 14  1  0
 39 50  1  0
 35 12  1  0
 34  2  1  0
  6  1  1  0
  4 51  1  0
 24 25  1  0
  8 52  1  0
  1 53  1  0
  3 54  1  0
  5 55  1  0
  6 56  1  0
  7 57  1  0
  9 58  1  0
 10 59  1  0
 11 60  1  0
 15 61  1  0
 15 62  1  0
 16 63  1  0
 16 64  1  0
 18 65  1  0
 20 66  1  0
 21 67  1  0
 23 68  1  0
 25 69  1  0
 26 70  1  0
 30 71  1  0
 31 72  1  0
 38 73  1  0
 40 74  1  0
 41 75  1  0
 42 76  1  0
 44 77  1  0
 46 78  1  0
 47 79  1  0
 48 80  1  0
 49 81  1  0
 50 82  1  0
 51 83  1  0
 52 84  1  0
M  END
> <Uni-Dock RESULT> 
ENERGY=   -4.890  LOWER_BOUND=    3.057  UPPER_BOUND=    8.720
INTER + INTRA:          -4.890
INTER:                  -4.890
INTRA:                   0.000
UNBOUND:                 0.000

$$$$

     RDKit          3D

 84 92  0  0  0  0  0  0  0  0999 V2000
   47.1245   10.9367   20.0137 C   0  0  0  0  0  0  0  0  0  0  0  0
   48.4028   10.9885   19.4442 C   0  0  0  0  0  0  0  0  0  0  0  0
   49.5320   10.8754   20.2635 C   0  0  0  0  0  0  0  0  0  0  0  0
   49.3715   10.7128   21.6360 C   0  0  0  0  0  0  0  0  0  0  0  0
   48.1034   10.6594   22.2057 C   0  0  0  0  0  0  0  0  0  0  0  0
   46.9745   10.7734   21.3922 C   0  0  0  0  0  0  0  0  0  0  0  0
   46.1322    8.0806   12.4980 C   0  0  0  0  0  0  0  0  0  0  0  0
   45.0859    7.2885   12.0335 C   0  0  0  0  0  0  0  0  0  0  0  0
   45.0897    5.9082   12.2291 C   0  0  0  0  0  0  0  0  0  0  0  0
   46.1586    5.3123   12.8974 C   0  0  0  0  0  0  0  0  0  0  0  0
   47.2122    6.1002   13.3664 C   0  0  0  0  0  0  0  0  0  0  0  0
   47.2039    7.4890   13.1755 C   0  0  0  0  0  0  0  0  0  0  0  0
   48.9990   12.6806   16.1021 N   0  0  0  0  0  0  0  0  0  0  0  0
   48.7848   12.3628   17.4124 C   0  0  0  0  0  0  0  0  0  0  0  0
   48.8587   13.6158   18.2412 C   0  0  0  0  0  0  0  0  0  0  0  0
   48.7238   14.7071   17.2107 C   0  0  0  0  0  0  0  0  0  0  0  0
   49.1108   14.0287   15.9064 C   0  0  0  0  0  0  0  0  0  0  0  0
   48.5691    9.9337   15.6934 N   0  0  0  0  0  0  0  0  0  0  0  0
   48.4485    8.6688   15.1789 C   0  0  0  0  0  0  0  0  0  0  0  0
   48.4029    7.7845   16.2381 C   0  0  0  0  0  0  0  0  0  0  0  0
   48.4483    8.5465   17.4363 C   0  0  0  0  0  0  0  0  0  0  0  0
   48.5226    9.8694   17.0648 C   0  0  0  0  0  0  0  0  0  0  0  0
   49.4907   10.3330   12.5130 N   0  0  0  0  0  0  0  0  0  0  0  0
   50.2686   10.5674   11.4069 C   0  0  0  0  0  0  0  0  0  0  0  0
   50.6469    9.3556   10.8765 C   0  0  0  0  0  0  0  0  0  0  0  0
   50.0165    8.3490   11.6596 C   0  0  0  0  0  0  0  0  0  0  0  0
   49.2811    8.9889   12.6372 C   0  0  0  0  0  0  0  0  0  0  0  0
   49.9543   13.0246   13.0771 N   0  0  0  0  0  0  0  0  0  0  0  0
   49.8385   14.2937   13.5824 C   0  0  0  0  0  0  0  0  0  0  0  0
   50.2227   15.1749   12.4818 C   0  0  0  0  0  0  0  0  0  0  0  0
   50.5565   14.4404   11.4251 C   0  0  0  0  0  0  0  0  0  0  0  0
   50.3900   13.0519   11.7778 C   0  0  0  0  0  0  0  0  0  0  0  0
   49.4691   14.7818   14.8118 C   0  0  0  0  0  0  0  0  0  0  0  0
   48.5688   11.1486   17.9880 C   0  0  0  0  0  0  0  0  0  0  0  0
   48.3262    8.3096   13.6643 C   0  0  0  0  0  0  0  0  0  0  0  0
   50.6156   12.0284   10.9103 C   0  0  0  0  0  0  0  0  0  0  0  0
   49.4389   16.2653   14.9819 C   0  0  0  0  0  0  0  0  0  0  0  0
   48.2459   16.9655   14.7569 C   0  0  0  0  0  0  0  0  0  0  0  0
   48.2157   18.3473   14.9141 C   0  0  0  0  0  0  0  0  0  0  0  0
   49.3571   19.0483   15.2908 C   0  0  0  0  0  0  0  0  0  0  0  0
   50.5505   18.3594   15.5144 C   0  0  0  0  0  0  0  0  0  0  0  0
   50.5911   16.9720   15.3603 C   0  0  0  0  0  0  0  0  0  0  0  0
   51.0248   12.2299    9.5068 C   0  0  0  0  0  0  0  0  0  0  0  0
   52.3614   12.4723    9.1682 C   0  0  0  0  0  0  0  0  0  0  0  0
   52.7114   12.6554    7.8346 C   0  0  0  0  0  0  0  0  0  0  0  0
   51.7494   12.5985    6.8268 C   0  0  0  0  0  0  0  0  0  0  0  0
   50.4167   12.3568    7.1601 C   0  0  0  0  0  0  0  0  0  0  0  0
   50.0569   12.1732    8.4952 C   0  0  0  0  0  0  0  0  0  0  0  0
   54.0239   12.8914    7.5361 O   0  0  0  0  0  0  0  0  0  0  0  0
   47.0620   19.0493   14.7017 O   0  0  0  0  0  0  0  0  0  0  0  0
   50.4547   10.6007   22.4607 O   0  0  0  0  0  0  0  0  0  0  0  0
   44.0548    7.8995   11.3797 O   0  0  0  0  0  0  0  0  0  0  0  0
   46.2528   11.0319   19.3685 H   0  0  0  0  0  0  0  0  0  0  0  0
   50.5129   10.9235   19.7980 H   0  0  0  0  0  0  0  0  0  0  0  0
   47.9947   10.5354   23.2776 H   0  0  0  0  0  0  0  0  0  0  0  0
   45.9791   10.7393   21.8250 H   0  0  0  0  0  0  0  0  0  0  0  0
   46.1180    9.1575   12.3405 H   0  0  0  0  0  0  0  0  0  0  0  0
   44.2781    5.2872   11.8675 H   0  0  0  0  0  0  0  0  0  0  0  0
   46.1794    4.2379   13.0522 H   0  0  0  0  0  0  0  0  0  0  0  0
   48.0497    5.6333   13.8786 H   0  0  0  0  0  0  0  0  0  0  0  0
   48.0647   13.6988   18.9901 H   0  0  0  0  0  0  0  0  0  0  0  0
   49.8306   13.6815   18.7465 H   0  0  0  0  0  0  0  0  0  0  0  0
   49.3609   15.5504   17.4912 H   0  0  0  0  0  0  0  0  0  0  0  0
   47.6834   15.0531   17.1588 H   0  0  0  0  0  0  0  0  0  0  0  0
   48.6762   10.8280   15.2091 H   0  0  0  0  0  0  0  0  0  0  0  0
   48.3159    6.7115   16.1671 H   0  0  0  0  0  0  0  0  0  0  0  0
   48.4134    8.1738   18.4491 H   0  0  0  0  0  0  0  0  0  0  0  0
   49.1738   11.0981   13.1113 H   0  0  0  0  0  0  0  0  0  0  0  0
   51.2820    9.2146   10.0141 H   0  0  0  0  0  0  0  0  0  0  0  0
   50.0697    7.2813   11.5071 H   0  0  0  0  0  0  0  0  0  0  0  0
   50.2430   16.2489   12.5090 H   0  0  0  0  0  0  0  0  0  0  0  0
   50.8787   14.8220   10.4735 H   0  0  0  0  0  0  0  0  0  0  0  0
   47.3710   16.3942   14.4605 H   0  0  0  0  0  0  0  0  0  0  0  0
   49.3190   20.1242   15.4094 H   0  0  0  0  0  0  0  0  0  0  0  0
   51.4476   18.8947   15.8062 H   0  0  0  0  0  0  0  0  0  0  0  0
   51.5104   16.4146   15.5261 H   0  0  0  0  0  0  0  0  0  0  0  0
   53.1104   12.5253    9.9531 H   0  0  0  0  0  0  0  0  0  0  0  0
   52.0162   12.7371    5.7864 H   0  0  0  0  0  0  0  0  0  0  0  0
   49.6534   12.3123    6.3905 H   0  0  0  0  0  0  0  0  0  0  0  0
   49.0191   11.9911    8.7686 H   0  0  0  0  0  0  0  0  0  0  0  0
   54.0822   13.0877    6.5900 H   0  0  0  0  0  0  0  0  0  0  0  0
   46.3918   18.3863   14.4577 H   0  0  0  0  0  0  0  0  0  0  0  0
   51.2412   10.7246   21.9000 H   0  0  0  0  0  0  0  0  0  0  0  0
   43.3967    7.2267   11.1518 H   0  0  0  0  0  0  0  0  0  0  0  0
 25 26  2  0
 26 27  1  0
 27 23  1  0
 28 29  1  0
  1  2  2  0
  3  4  2  0
  7  8  2  0
 14 15  1  0
 29 30  1  0
 30 31  2  0
 31 32  1  0
 32 28  2  0
 15 16  1  0
 29 33  2  0
 17 33  1  0
 16 17  1  0
 14 34  2  0
 22 34  1  0
 17 13  2  0
 27 35  2  0
 19 35  1  0
 18 19  1  0
 24 36  2  0
 32 36  1  0
  8  9  1  0
  4  5  1  0
 37 38  2  0
  9 10  2  0
 38 39  1  0
  2  3  1  0
 39 40  2  0
 10 11  1  0
 40 41  1  0
 19 20  2  0
 41 42  2  0
 42 37  1  0
 33 37  1  0
 20 21  1  0
 21 22  2  0
 43 44  2  0
 22 18  1  0
 44 45  1  0
 23 24  1  0
 45 46  2  0
  5  6  2  0
 46 47  1  0
 11 12  2  0
 47 48  2  0
 48 43  1  0
 36 43  1  0
 12  7  1  0
 45 49  1  0
 13 14  1  0
 39 50  1  0
 35 12  1  0
 34  2  1  0
  6  1  1  0
  4 51  1  0
 24 25  1  0
  8 52  1  0
  1 53  1  0
  3 54  1  0
  5 55  1  0
  6 56  1  0
  7 57  1  0
  9 58  1  0
 10 59  1  0
 11 60  1  0
 15 61  1  0
 15 62  1  0
 16 63  1  0
 16 64  1  0
 18 65  1  0
 20 66  1  0
 21 67  1  0
 23 68  1  0
 25 69  1  0
 26 70  1  0
 30 71  1  0
 31 72  1  0
 38 73  1  0
 40 74  1  0
 41 75  1  0
 42 76  1  0
 44 77  1  0
 46 78  1  0
 47 79  1  0
 48 80  1  0
 49 81  1  0
 50 82  1  0
 51 83  1  0
 52 84  1  0
M  END
> <Uni-Dock RESULT> 
ENERGY=   -4.841  LOWER_BOUND=    3.425  UPPER_BOUND=    8.169
INTER + INTRA:          -4.841
INTER:                  -4.841
INTRA:                   0.000
UNBOUND:                 0.000

$$$$
