
     RDKit          3D

 84 92  0  0  0  0  0  0  0  0999 V2000
   48.7887   16.5865   15.2318 C   0  0  0  0  0  0  0  0  0  0  0  0
   49.1406   15.6319   14.2687 C   0  0  0  0  0  0  0  0  0  0  0  0
   50.1958   15.8947   13.3865 C   0  0  0  0  0  0  0  0  0  0  0  0
   50.8847   17.1015   13.4753 C   0  0  0  0  0  0  0  0  0  0  0  0
   50.5411   18.0504   14.4333 C   0  0  0  0  0  0  0  0  0  0  0  0
   49.4885   17.7934   15.3137 C   0  0  0  0  0  0  0  0  0  0  0  0
   50.8235    8.7648   17.3900 C   0  0  0  0  0  0  0  0  0  0  0  0
   51.3338    8.1011   18.5029 C   0  0  0  0  0  0  0  0  0  0  0  0
   50.4876    7.4579   19.4000 C   0  0  0  0  0  0  0  0  0  0  0  0
   49.1094    7.4739   19.1819 C   0  0  0  0  0  0  0  0  0  0  0  0
   48.5866    8.1397   18.0709 C   0  0  0  0  0  0  0  0  0  0  0  0
   49.4391    8.7958   17.1746 C   0  0  0  0  0  0  0  0  0  0  0  0
   46.6746   13.0557   12.9903 N   0  0  0  0  0  0  0  0  0  0  0  0
   47.4007   14.1747   13.2736 C   0  0  0  0  0  0  0  0  0  0  0  0
   46.9475   15.2939   12.3768 C   0  0  0  0  0  0  0  0  0  0  0  0
   45.6004   14.8155   11.9056 C   0  0  0  0  0  0  0  0  0  0  0  0
   45.6687   13.3090   12.0982 C   0  0  0  0  0  0  0  0  0  0  0  0
   48.5116   11.8298   14.8251 N   0  0  0  0  0  0  0  0  0  0  0  0
   49.0326   11.0379   15.8196 C   0  0  0  0  0  0  0  0  0  0  0  0
   49.6658   11.8734   16.7254 C   0  0  0  0  0  0  0  0  0  0  0  0
   49.5602   13.2008   16.2472 C   0  0  0  0  0  0  0  0  0  0  0  0
   48.8441   13.1431   15.0756 C   0  0  0  0  0  0  0  0  0  0  0  0
   47.1402    8.8804   14.1118 N   0  0  0  0  0  0  0  0  0  0  0  0
   46.8408    7.7908   13.3282 C   0  0  0  0  0  0  0  0  0  0  0  0
   47.8049    6.8291   13.5210 C   0  0  0  0  0  0  0  0  0  0  0  0
   48.7031    7.3425   14.4893 C   0  0  0  0  0  0  0  0  0  0  0  0
   48.2476    8.5942   14.8627 C   0  0  0  0  0  0  0  0  0  0  0  0
   45.5101   10.2040   12.1952 N   0  0  0  0  0  0  0  0  0  0  0  0
   44.7442   11.1200   11.5215 C   0  0  0  0  0  0  0  0  0  0  0  0
   43.7552   10.3282   10.7939 C   0  0  0  0  0  0  0  0  0  0  0  0
   43.9677    9.0381   11.0304 C   0  0  0  0  0  0  0  0  0  0  0  0
   45.1042    8.9278   11.9128 C   0  0  0  0  0  0  0  0  0  0  0  0
   44.7815   12.4895   11.4408 C   0  0  0  0  0  0  0  0  0  0  0  0
   48.4073   14.3545   14.1679 C   0  0  0  0  0  0  0  0  0  0  0  0
   48.8871    9.4803   15.9838 C   0  0  0  0  0  0  0  0  0  0  0  0
   45.6073    7.7401   12.3421 C   0  0  0  0  0  0  0  0  0  0  0  0
   43.7883   13.1541   10.5445 C   0  0  0  0  0  0  0  0  0  0  0  0
   44.0780   13.3102    9.1810 C   0  0  0  0  0  0  0  0  0  0  0  0
   43.1565   13.9331    8.3450 C   0  0  0  0  0  0  0  0  0  0  0  0
   41.9457   14.4059    8.8418 C   0  0  0  0  0  0  0  0  0  0  0  0
   41.6461   14.2485   10.1969 C   0  0  0  0  0  0  0  0  0  0  0  0
   42.5644   13.6241   11.0453 C   0  0  0  0  0  0  0  0  0  0  0  0
   45.0629    6.4254   11.9415 C   0  0  0  0  0  0  0  0  0  0  0  0
   44.3608    5.6351   12.8603 C   0  0  0  0  0  0  0  0  0  0  0  0
   43.8687    4.3929   12.4689 C   0  0  0  0  0  0  0  0  0  0  0  0
   44.0687    3.9172   11.1732 C   0  0  0  0  0  0  0  0  0  0  0  0
   44.7725    4.6986   10.2564 C   0  0  0  0  0  0  0  0  0  0  0  0
   45.2696    5.9466   10.6389 C   0  0  0  0  0  0  0  0  0  0  0  0
   43.1853    3.6496   13.3904 O   0  0  0  0  0  0  0  0  0  0  0  0
   43.4217   14.0952    7.0135 O   0  0  0  0  0  0  0  0  0  0  0  0
   51.9123   17.3856   12.6209 O   0  0  0  0  0  0  0  0  0  0  0  0
   52.6777    8.0592   18.7413 O   0  0  0  0  0  0  0  0  0  0  0  0
   47.9609   16.3769   15.9068 H   0  0  0  0  0  0  0  0  0  0  0  0
   50.4426   15.1441   12.6393 H   0  0  0  0  0  0  0  0  0  0  0  0
   51.0857   18.9870   14.4883 H   0  0  0  0  0  0  0  0  0  0  0  0
   49.2065   18.5295   16.0602 H   0  0  0  0  0  0  0  0  0  0  0  0
   51.4774    9.2575   16.6752 H   0  0  0  0  0  0  0  0  0  0  0  0
   50.8995    6.9432   20.2617 H   0  0  0  0  0  0  0  0  0  0  0  0
   48.4381    6.9677   19.8693 H   0  0  0  0  0  0  0  0  0  0  0  0
   47.5122    8.1474   17.8952 H   0  0  0  0  0  0  0  0  0  0  0  0
   46.8498   16.2597   12.8826 H   0  0  0  0  0  0  0  0  0  0  0  0
   47.6356   15.4028   11.5285 H   0  0  0  0  0  0  0  0  0  0  0  0
   45.4436   15.1389   10.8718 H   0  0  0  0  0  0  0  0  0  0  0  0
   44.8035   15.2359   12.5341 H   0  0  0  0  0  0  0  0  0  0  0  0
   47.9051   11.5749   14.0431 H   0  0  0  0  0  0  0  0  0  0  0  0
   50.1439   11.5699   17.6440 H   0  0  0  0  0  0  0  0  0  0  0  0
   49.9408   14.0959   16.7160 H   0  0  0  0  0  0  0  0  0  0  0  0
   46.6191    9.7550   14.0343 H   0  0  0  0  0  0  0  0  0  0  0  0
   47.8542    5.8741   13.0194 H   0  0  0  0  0  0  0  0  0  0  0  0
   49.5720    6.8407   14.8890 H   0  0  0  0  0  0  0  0  0  0  0  0
   42.9719   10.7160   10.1676 H   0  0  0  0  0  0  0  0  0  0  0  0
   43.3868    8.2262   10.6339 H   0  0  0  0  0  0  0  0  0  0  0  0
   45.0305   12.9326    8.8184 H   0  0  0  0  0  0  0  0  0  0  0  0
   41.2397   14.8909    8.1765 H   0  0  0  0  0  0  0  0  0  0  0  0
   40.7022   14.6051   10.5950 H   0  0  0  0  0  0  0  0  0  0  0  0
   42.3517   13.4920   12.1044 H   0  0  0  0  0  0  0  0  0  0  0  0
   44.1968    6.0023   13.8703 H   0  0  0  0  0  0  0  0  0  0  0  0
   43.6860    2.9512   10.8604 H   0  0  0  0  0  0  0  0  0  0  0  0
   44.9328    4.3482    9.2402 H   0  0  0  0  0  0  0  0  0  0  0  0
   45.8150    6.5664    9.9279 H   0  0  0  0  0  0  0  0  0  0  0  0
   42.8622    2.8512   12.9467 H   0  0  0  0  0  0  0  0  0  0  0  0
   44.2863   13.6747    6.8639 H   0  0  0  0  0  0  0  0  0  0  0  0
   51.9863   16.6249   12.0211 H   0  0  0  0  0  0  0  0  0  0  0  0
   53.1084    8.5657   18.0317 H   0  0  0  0  0  0  0  0  0  0  0  0
 25 26  2  0
 26 27  1  0
 27 23  1  0
 28 29  1  0
  1  2  2  0
  3  4  2  0
  7  8  2  0
 14 15  1  0
 29 30  1  0
 30 31  2  0
 31 32  1  0
 32 28  2  0
 15 16  1  0
 29 33  2  0
 17 33  1  0
 16 17  1  0
 14 34  2  0
 22 34  1  0
 17 13  2  0
 27 35  2  0
 19 35  1  0
 18 19  1  0
 24 36  2  0
 32 36  1  0
  8  9  1  0
  4  5  1  0
 37 38  2  0
  9 10  2  0
 38 39  1  0
  2  3  1  0
 39 40  2  0
 10 11  1  0
 40 41  1  0
 19 20  2  0
 41 42  2  0
 42 37  1  0
 33 37  1  0
 20 21  1  0
 21 22  2  0
 43 44  2  0
 22 18  1  0
 44 45  1  0
 23 24  1  0
 45 46  2  0
  5  6  2  0
 46 47  1  0
 11 12  2  0
 47 48  2  0
 48 43  1  0
 36 43  1  0
 12  7  1  0
 45 49  1  0
 13 14  1  0
 39 50  1  0
 35 12  1  0
 34  2  1  0
  6  1  1  0
  4 51  1  0
 24 25  1  0
  8 52  1  0
  1 53  1  0
  3 54  1  0
  5 55  1  0
  6 56  1  0
  7 57  1  0
  9 58  1  0
 10 59  1  0
 11 60  1  0
 15 61  1  0
 15 62  1  0
 16 63  1  0
 16 64  1  0
 18 65  1  0
 20 66  1  0
 21 67  1  0
 23 68  1  0
 25 69  1  0
 26 70  1  0
 30 71  1  0
 31 72  1  0
 38 73  1  0
 40 74  1  0
 41 75  1  0
 42 76  1  0
 44 77  1  0
 46 78  1  0
 47 79  1  0
 48 80  1  0
 49 81  1  0
 50 82  1  0
 51 83  1  0
 52 84  1  0
M  END
> <Uni-Dock RESULT> 
ENERGY=   -5.969  LOWER_BOUND=    0.000  UPPER_BOUND=    0.000
INTER + INTRA:          -5.969
INTER:                  -5.969
INTRA:                   0.000
UNBOUND:                 0.000

$$$$

     RDKit          3D

 84 92  0  0  0  0  0  0  0  0999 V2000
   51.7983   13.9276   16.9137 C   0  0  0  0  0  0  0  0  0  0  0  0
   50.4974   13.4350   17.0808 C   0  0  0  0  0  0  0  0  0  0  0  0
   49.6970   13.9310   18.1172 C   0  0  0  0  0  0  0  0  0  0  0  0
   50.2017   14.9082   18.9711 C   0  0  0  0  0  0  0  0  0  0  0  0
   51.4916   15.4032   18.8059 C   0  0  0  0  0  0  0  0  0  0  0  0
   52.2938   14.9103   17.7750 C   0  0  0  0  0  0  0  0  0  0  0  0
   46.2000   14.2148   10.7046 C   0  0  0  0  0  0  0  0  0  0  0  0
   45.9641   14.9758    9.5623 C   0  0  0  0  0  0  0  0  0  0  0  0
   46.3904   14.5381    8.3129 C   0  0  0  0  0  0  0  0  0  0  0  0
   47.0606   13.3192    8.2000 C   0  0  0  0  0  0  0  0  0  0  0  0
   47.3056   12.5497    9.3396 C   0  0  0  0  0  0  0  0  0  0  0  0
   46.8851   12.9970   10.5981 C   0  0  0  0  0  0  0  0  0  0  0  0
   49.4705   10.0006   15.8551 N   0  0  0  0  0  0  0  0  0  0  0  0
   49.9822   11.0777   16.5167 C   0  0  0  0  0  0  0  0  0  0  0  0
   50.6036   10.6124   17.8049 C   0  0  0  0  0  0  0  0  0  0  0  0
   50.7954    9.1387   17.5665 C   0  0  0  0  0  0  0  0  0  0  0  0
   49.7933    8.8210   16.4682 C   0  0  0  0  0  0  0  0  0  0  0  0
   48.4415   12.0199   14.0922 N   0  0  0  0  0  0  0  0  0  0  0  0
   48.0560   12.6906   12.9567 C   0  0  0  0  0  0  0  0  0  0  0  0
   48.7053   13.9145   12.9582 C   0  0  0  0  0  0  0  0  0  0  0  0
   49.4722   14.0040   14.1437 C   0  0  0  0  0  0  0  0  0  0  0  0
   49.2906   12.8227   14.8221 C   0  0  0  0  0  0  0  0  0  0  0  0
   46.8096    9.6367   12.4353 N   0  0  0  0  0  0  0  0  0  0  0  0
   45.8550    8.6646   12.2489 C   0  0  0  0  0  0  0  0  0  0  0  0
   44.7405    9.2414   11.6860 C   0  0  0  0  0  0  0  0  0  0  0  0
   45.0475   10.6106   11.4884 C   0  0  0  0  0  0  0  0  0  0  0  0
   46.3434   10.8178   11.9259 C   0  0  0  0  0  0  0  0  0  0  0  0
   47.7555    7.7744   14.3639 N   0  0  0  0  0  0  0  0  0  0  0  0
   48.5092    7.1042   15.2925 C   0  0  0  0  0  0  0  0  0  0  0  0
   48.1677    5.6948   15.1148 C   0  0  0  0  0  0  0  0  0  0  0  0
   47.2575    5.5830   14.1533 C   0  0  0  0  0  0  0  0  0  0  0  0
   46.9583    6.9080   13.6663 C   0  0  0  0  0  0  0  0  0  0  0  0
   49.4086    7.5204   16.2418 C   0  0  0  0  0  0  0  0  0  0  0  0
   49.9625   12.3939   16.1810 C   0  0  0  0  0  0  0  0  0  0  0  0
   47.1229   12.1699   11.8025 C   0  0  0  0  0  0  0  0  0  0  0  0
   46.0477    7.1593   12.6886 C   0  0  0  0  0  0  0  0  0  0  0  0
   50.0099    6.4769   17.1256 C   0  0  0  0  0  0  0  0  0  0  0  0
   49.3363    6.0803   18.2903 C   0  0  0  0  0  0  0  0  0  0  0  0
   49.8965    5.1119   19.1175 C   0  0  0  0  0  0  0  0  0  0  0  0
   51.1204    4.5270   18.8067 C   0  0  0  0  0  0  0  0  0  0  0  0
   51.7947    4.9110   17.6454 C   0  0  0  0  0  0  0  0  0  0  0  0
   51.2409    5.8826   16.8074 C   0  0  0  0  0  0  0  0  0  0  0  0
   45.2457    6.1099   12.0247 C   0  0  0  0  0  0  0  0  0  0  0  0
   45.4999    5.7538   10.6942 C   0  0  0  0  0  0  0  0  0  0  0  0
   44.7240    4.7738   10.0810 C   0  0  0  0  0  0  0  0  0  0  0  0
   43.6893    4.1417   10.7702 C   0  0  0  0  0  0  0  0  0  0  0  0
   43.4288    4.4974   12.0938 C   0  0  0  0  0  0  0  0  0  0  0  0
   44.2020    5.4788   12.7184 C   0  0  0  0  0  0  0  0  0  0  0  0
   45.0020    4.4488    8.7826 O   0  0  0  0  0  0  0  0  0  0  0  0
   49.2553    4.7132   20.2574 O   0  0  0  0  0  0  0  0  0  0  0  0
   49.4440   15.4023   19.9952 O   0  0  0  0  0  0  0  0  0  0  0  0
   45.3041   16.1690    9.6366 O   0  0  0  0  0  0  0  0  0  0  0  0
   52.4160   13.5290   16.1110 H   0  0  0  0  0  0  0  0  0  0  0  0
   48.6953   13.5245   18.2350 H   0  0  0  0  0  0  0  0  0  0  0  0
   51.8714   16.1628   19.4809 H   0  0  0  0  0  0  0  0  0  0  0  0
   53.3045   15.2834   17.6412 H   0  0  0  0  0  0  0  0  0  0  0  0
   45.8576   14.5410   11.6832 H   0  0  0  0  0  0  0  0  0  0  0  0
   46.1980   15.1406    7.4314 H   0  0  0  0  0  0  0  0  0  0  0  0
   47.3905   12.9612    7.2293 H   0  0  0  0  0  0  0  0  0  0  0  0
   47.8221   11.5952    9.2527 H   0  0  0  0  0  0  0  0  0  0  0  0
   51.5634   11.0861   18.0343 H   0  0  0  0  0  0  0  0  0  0  0  0
   49.9133   10.7802   18.6417 H   0  0  0  0  0  0  0  0  0  0  0  0
   50.6351    8.5972   18.5040 H   0  0  0  0  0  0  0  0  0  0  0  0
   51.8151    8.9381   17.2101 H   0  0  0  0  0  0  0  0  0  0  0  0
   48.2398   11.0600   14.3791 H   0  0  0  0  0  0  0  0  0  0  0  0
   48.6500   14.6648   12.1844 H   0  0  0  0  0  0  0  0  0  0  0  0
   50.1025   14.8242   14.4534 H   0  0  0  0  0  0  0  0  0  0  0  0
   47.6721    9.4487   12.9484 H   0  0  0  0  0  0  0  0  0  0  0  0
   43.8169    8.7339   11.4505 H   0  0  0  0  0  0  0  0  0  0  0  0
   44.4013   11.3566   11.0497 H   0  0  0  0  0  0  0  0  0  0  0  0
   48.5835    4.8695   15.6645 H   0  0  0  0  0  0  0  0  0  0  0  0
   46.8287    4.6626   13.8027 H   0  0  0  0  0  0  0  0  0  0  0  0
   48.3825    6.5527   18.5103 H   0  0  0  0  0  0  0  0  0  0  0  0
   51.5438    3.7751   19.4638 H   0  0  0  0  0  0  0  0  0  0  0  0
   52.7453    4.4568   17.3875 H   0  0  0  0  0  0  0  0  0  0  0  0
   51.7496    6.1973   15.8983 H   0  0  0  0  0  0  0  0  0  0  0  0
   46.3084    6.2388   10.1530 H   0  0  0  0  0  0  0  0  0  0  0  0
   43.0821    3.3754   10.2995 H   0  0  0  0  0  0  0  0  0  0  0  0
   42.6313    4.0116   12.6497 H   0  0  0  0  0  0  0  0  0  0  0  0
   44.0099    5.7586   13.7537 H   0  0  0  0  0  0  0  0  0  0  0  0
   44.4193    3.7177    8.5286 H   0  0  0  0  0  0  0  0  0  0  0  0
   48.4172    5.2073   20.2749 H   0  0  0  0  0  0  0  0  0  0  0  0
   48.5976   14.9264   19.9622 H   0  0  0  0  0  0  0  0  0  0  0  0
   45.0966   16.3214   10.5742 H   0  0  0  0  0  0  0  0  0  0  0  0
 25 26  2  0
 26 27  1  0
 27 23  1  0
 28 29  1  0
  1  2  2  0
  3  4  2  0
  7  8  2  0
 14 15  1  0
 29 30  1  0
 30 31  2  0
 31 32  1  0
 32 28  2  0
 15 16  1  0
 29 33  2  0
 17 33  1  0
 16 17  1  0
 14 34  2  0
 22 34  1  0
 17 13  2  0
 27 35  2  0
 19 35  1  0
 18 19  1  0
 24 36  2  0
 32 36  1  0
  8  9  1  0
  4  5  1  0
 37 38  2  0
  9 10  2  0
 38 39  1  0
  2  3  1  0
 39 40  2  0
 10 11  1  0
 40 41  1  0
 19 20  2  0
 41 42  2  0
 42 37  1  0
 33 37  1  0
 20 21  1  0
 21 22  2  0
 43 44  2  0
 22 18  1  0
 44 45  1  0
 23 24  1  0
 45 46  2  0
  5  6  2  0
 46 47  1  0
 11 12  2  0
 47 48  2  0
 48 43  1  0
 36 43  1  0
 12  7  1  0
 45 49  1  0
 13 14  1  0
 39 50  1  0
 35 12  1  0
 34  2  1  0
  6  1  1  0
  4 51  1  0
 24 25  1  0
  8 52  1  0
  1 53  1  0
  3 54  1  0
  5 55  1  0
  6 56  1  0
  7 57  1  0
  9 58  1  0
 10 59  1  0
 11 60  1  0
 15 61  1  0
 15 62  1  0
 16 63  1  0
 16 64  1  0
 18 65  1  0
 20 66  1  0
 21 67  1  0
 23 68  1  0
 25 69  1  0
 26 70  1  0
 30 71  1  0
 31 72  1  0
 38 73  1  0
 40 74  1  0
 41 75  1  0
 42 76  1  0
 44 77  1  0
 46 78  1  0
 47 79  1  0
 48 80  1  0
 49 81  1  0
 50 82  1  0
 51 83  1  0
 52 84  1  0
M  END
> <Uni-Dock RESULT> 
ENERGY=   -5.922  LOWER_BOUND=    2.444  UPPER_BOUND=    8.081
INTER + INTRA:          -5.922
INTER:                  -5.922
INTRA:                   0.000
UNBOUND:                 0.000

$$$$

     RDKit          3D

 84 92  0  0  0  0  0  0  0  0999 V2000
   43.8650    5.5464   11.8480 C   0  0  0  0  0  0  0  0  0  0  0  0
   44.9244    6.2802   11.2986 C   0  0  0  0  0  0  0  0  0  0  0  0
   45.5578    5.8190   10.1381 C   0  0  0  0  0  0  0  0  0  0  0  0
   45.1286    4.6361    9.5418 C   0  0  0  0  0  0  0  0  0  0  0  0
   44.0739    3.9066   10.0819 C   0  0  0  0  0  0  0  0  0  0  0  0
   43.4407    4.3618   11.2398 C   0  0  0  0  0  0  0  0  0  0  0  0
   42.9540   13.5843    9.7176 C   0  0  0  0  0  0  0  0  0  0  0  0
   41.9224   14.4427    9.3457 C   0  0  0  0  0  0  0  0  0  0  0  0
   41.3141   15.2740   10.2802 C   0  0  0  0  0  0  0  0  0  0  0  0
   41.7441   15.2515   11.6077 C   0  0  0  0  0  0  0  0  0  0  0  0
   42.7755   14.3918   11.9923 C   0  0  0  0  0  0  0  0  0  0  0  0
   43.3796   13.5479   11.0523 C   0  0  0  0  0  0  0  0  0  0  0  0
   47.0550    8.6146   13.3874 N   0  0  0  0  0  0  0  0  0  0  0  0
   46.4484    7.5556   12.7790 C   0  0  0  0  0  0  0  0  0  0  0  0
   47.1740    6.2927   13.1540 C   0  0  0  0  0  0  0  0  0  0  0  0
   47.9392    6.7032   14.3834 C   0  0  0  0  0  0  0  0  0  0  0  0
   48.0317    8.2155   14.2583 C   0  0  0  0  0  0  0  0  0  0  0  0
   45.2191   10.1322   11.7842 N   0  0  0  0  0  0  0  0  0  0  0  0
   44.3250   11.0924   11.3763 C   0  0  0  0  0  0  0  0  0  0  0  0
   43.1854   10.4375   10.9381 C   0  0  0  0  0  0  0  0  0  0  0  0
   43.4097    9.0448   11.0460 C   0  0  0  0  0  0  0  0  0  0  0  0
   44.6702    8.8869   11.5704 C   0  0  0  0  0  0  0  0  0  0  0  0
   46.6982   12.9158   12.8578 N   0  0  0  0  0  0  0  0  0  0  0  0
   47.7148   13.8350   12.9706 C   0  0  0  0  0  0  0  0  0  0  0  0
   47.5581   14.7898   11.9932 C   0  0  0  0  0  0  0  0  0  0  0  0
   46.3772   14.4559   11.2846 C   0  0  0  0  0  0  0  0  0  0  0  0
   45.8482   13.3163   11.8633 C   0  0  0  0  0  0  0  0  0  0  0  0
   48.5612   11.2807   14.2500 N   0  0  0  0  0  0  0  0  0  0  0  0
   49.1603   10.2695   14.9557 C   0  0  0  0  0  0  0  0  0  0  0  0
   50.1764   10.9264   15.7746 C   0  0  0  0  0  0  0  0  0  0  0  0
   50.1616   12.2316   15.5265 C   0  0  0  0  0  0  0  0  0  0  0  0
   49.1456   12.4853   14.5336 C   0  0  0  0  0  0  0  0  0  0  0  0
   48.9687    8.9108   14.9858 C   0  0  0  0  0  0  0  0  0  0  0  0
   45.3859    7.5310   11.9328 C   0  0  0  0  0  0  0  0  0  0  0  0
   44.4894   12.6547   11.4548 C   0  0  0  0  0  0  0  0  0  0  0  0
   48.8777   13.7210   14.0340 C   0  0  0  0  0  0  0  0  0  0  0  0
   49.8684    8.1076   15.8673 C   0  0  0  0  0  0  0  0  0  0  0  0
   51.1115    7.6753   15.3824 C   0  0  0  0  0  0  0  0  0  0  0  0
   51.9492    6.9231   16.1999 C   0  0  0  0  0  0  0  0  0  0  0  0
   51.5723    6.5912   17.4977 C   0  0  0  0  0  0  0  0  0  0  0  0
   50.3392    7.0233   17.9911 C   0  0  0  0  0  0  0  0  0  0  0  0
   49.4902    7.7795   17.1785 C   0  0  0  0  0  0  0  0  0  0  0  0
   49.6063   14.9434   14.4340 C   0  0  0  0  0  0  0  0  0  0  0  0
   48.9821   15.9194   15.2212 C   0  0  0  0  0  0  0  0  0  0  0  0
   49.6795   17.0713   15.5751 C   0  0  0  0  0  0  0  0  0  0  0  0
   50.9930   17.2738   15.1526 C   0  0  0  0  0  0  0  0  0  0  0  0
   51.6167   16.3070   14.3634 C   0  0  0  0  0  0  0  0  0  0  0  0
   50.9261   15.1475   14.0035 C   0  0  0  0  0  0  0  0  0  0  0  0
   49.0406   18.0013   16.3470 O   0  0  0  0  0  0  0  0  0  0  0  0
   53.1642    6.4919   15.7445 O   0  0  0  0  0  0  0  0  0  0  0  0
   45.7354    4.1602    8.4139 O   0  0  0  0  0  0  0  0  0  0  0  0
   41.4833   14.4954    8.0537 O   0  0  0  0  0  0  0  0  0  0  0  0
   43.3853    5.9082   12.7556 H   0  0  0  0  0  0  0  0  0  0  0  0
   46.3858    6.3987    9.7371 H   0  0  0  0  0  0  0  0  0  0  0  0
   43.7526    2.9856    9.6071 H   0  0  0  0  0  0  0  0  0  0  0  0
   42.6218    3.7969   11.6746 H   0  0  0  0  0  0  0  0  0  0  0  0
   43.4457   12.9419    8.9918 H   0  0  0  0  0  0  0  0  0  0  0  0
   40.5128   15.9389    9.9757 H   0  0  0  0  0  0  0  0  0  0  0  0
   41.2843   15.9022   12.3456 H   0  0  0  0  0  0  0  0  0  0  0  0
   43.1172   14.3778   13.0260 H   0  0  0  0  0  0  0  0  0  0  0  0
   46.5142    5.4500   13.3834 H   0  0  0  0  0  0  0  0  0  0  0  0
   47.8633    5.9986   12.3519 H   0  0  0  0  0  0  0  0  0  0  0  0
   48.9028    6.1846   14.3989 H   0  0  0  0  0  0  0  0  0  0  0  0
   47.3781    6.4378   15.2898 H   0  0  0  0  0  0  0  0  0  0  0  0
   46.1228   10.2423   12.2485 H   0  0  0  0  0  0  0  0  0  0  0  0
   42.2776   10.9052   10.5891 H   0  0  0  0  0  0  0  0  0  0  0  0
   42.7223    8.2512   10.7939 H   0  0  0  0  0  0  0  0  0  0  0  0
   46.6888   12.0574   13.4107 H   0  0  0  0  0  0  0  0  0  0  0  0
   48.2195   15.6241   11.8128 H   0  0  0  0  0  0  0  0  0  0  0  0
   45.9470   15.0041   10.4593 H   0  0  0  0  0  0  0  0  0  0  0  0
   50.8341   10.4426   16.4743 H   0  0  0  0  0  0  0  0  0  0  0  0
   50.7952   12.9634   15.9921 H   0  0  0  0  0  0  0  0  0  0  0  0
   51.3818    7.9477   14.3655 H   0  0  0  0  0  0  0  0  0  0  0  0
   52.2367    6.0022   18.1208 H   0  0  0  0  0  0  0  0  0  0  0  0
   50.0372    6.7784   19.0036 H   0  0  0  0  0  0  0  0  0  0  0  0
   48.5248    8.1257   17.5423 H   0  0  0  0  0  0  0  0  0  0  0  0
   47.9602   15.7652   15.5585 H   0  0  0  0  0  0  0  0  0  0  0  0
   51.5434   18.1679   15.4265 H   0  0  0  0  0  0  0  0  0  0  0  0
   52.6419   16.4435   14.0299 H   0  0  0  0  0  0  0  0  0  0  0  0
   51.4071   14.3841   13.3928 H   0  0  0  0  0  0  0  0  0  0  0  0
   49.6758   18.7035   16.5520 H   0  0  0  0  0  0  0  0  0  0  0  0
   53.2507    6.8510   14.8443 H   0  0  0  0  0  0  0  0  0  0  0  0
   46.4505    4.7840    8.2054 H   0  0  0  0  0  0  0  0  0  0  0  0
   42.0032   13.8465    7.5499 H   0  0  0  0  0  0  0  0  0  0  0  0
 25 26  2  0
 26 27  1  0
 27 23  1  0
 28 29  1  0
  1  2  2  0
  3  4  2  0
  7  8  2  0
 14 15  1  0
 29 30  1  0
 30 31  2  0
 31 32  1  0
 32 28  2  0
 15 16  1  0
 29 33  2  0
 17 33  1  0
 16 17  1  0
 14 34  2  0
 22 34  1  0
 17 13  2  0
 27 35  2  0
 19 35  1  0
 18 19  1  0
 24 36  2  0
 32 36  1  0
  8  9  1  0
  4  5  1  0
 37 38  2  0
  9 10  2  0
 38 39  1  0
  2  3  1  0
 39 40  2  0
 10 11  1  0
 40 41  1  0
 19 20  2  0
 41 42  2  0
 42 37  1  0
 33 37  1  0
 20 21  1  0
 21 22  2  0
 43 44  2  0
 22 18  1  0
 44 45  1  0
 23 24  1  0
 45 46  2  0
  5  6  2  0
 46 47  1  0
 11 12  2  0
 47 48  2  0
 48 43  1  0
 36 43  1  0
 12  7  1  0
 45 49  1  0
 13 14  1  0
 39 50  1  0
 35 12  1  0
 34  2  1  0
  6  1  1  0
  4 51  1  0
 24 25  1  0
  8 52  1  0
  1 53  1  0
  3 54  1  0
  5 55  1  0
  6 56  1  0
  7 57  1  0
  9 58  1  0
 10 59  1  0
 11 60  1  0
 15 61  1  0
 15 62  1  0
 16 63  1  0
 16 64  1  0
 18 65  1  0
 20 66  1  0
 21 67  1  0
 23 68  1  0
 25 69  1  0
 26 70  1  0
 30 71  1  0
 31 72  1  0
 38 73  1  0
 40 74  1  0
 41 75  1  0
 42 76  1  0
 44 77  1  0
 46 78  1  0
 47 79  1  0
 48 80  1  0
 49 81  1  0
 50 82  1  0
 51 83  1  0
 52 84  1  0
M  END
> <Uni-Dock RESULT> 
ENERGY=   -5.901  LOWER_BOUND=    1.549  UPPER_BOUND=   10.898
INTER + INTRA:          -5.901
INTER:                  -5.901
INTRA:                   0.000
UNBOUND:                 0.000

$$$$

     RDKit          3D

 84 92  0  0  0  0  0  0  0  0999 V2000
   51.5246   14.3681   16.8879 C   0  0  0  0  0  0  0  0  0  0  0  0
   50.2627   13.7934   17.0883 C   0  0  0  0  0  0  0  0  0  0  0  0
   49.4696   14.2206   18.1604 C   0  0  0  0  0  0  0  0  0  0  0  0
   49.9428   15.2119   19.0162 C   0  0  0  0  0  0  0  0  0  0  0  0
   51.1937   15.7882   18.8181 C   0  0  0  0  0  0  0  0  0  0  0  0
   51.9885   15.3640   17.7516 C   0  0  0  0  0  0  0  0  0  0  0  0
   45.7091   14.4200   10.8751 C   0  0  0  0  0  0  0  0  0  0  0  0
   45.3881   15.1851    9.7566 C   0  0  0  0  0  0  0  0  0  0  0  0
   45.7971   14.7967    8.4853 C   0  0  0  0  0  0  0  0  0  0  0  0
   46.5360   13.6236    8.3261 C   0  0  0  0  0  0  0  0  0  0  0  0
   46.8666   12.8506    9.4414 C   0  0  0  0  0  0  0  0  0  0  0  0
   46.4631   13.2487   10.7218 C   0  0  0  0  0  0  0  0  0  0  0  0
   49.4055   10.3246   15.8296 N   0  0  0  0  0  0  0  0  0  0  0  0
   49.8730   11.4192   16.4951 C   0  0  0  0  0  0  0  0  0  0  0  0
   50.5656   10.9703   17.7525 C   0  0  0  0  0  0  0  0  0  0  0  0
   50.8386    9.5156   17.4786 C   0  0  0  0  0  0  0  0  0  0  0  0
   49.8206    9.1564   16.4082 C   0  0  0  0  0  0  0  0  0  0  0  0
   48.1954   12.3076   14.1422 N   0  0  0  0  0  0  0  0  0  0  0  0
   47.7309   12.9733   13.0337 C   0  0  0  0  0  0  0  0  0  0  0  0
   48.3040   14.2346   13.0378 C   0  0  0  0  0  0  0  0  0  0  0  0
   49.1043   14.3501   14.1988 C   0  0  0  0  0  0  0  0  0  0  0  0
   49.0185   13.1480   14.8593 C   0  0  0  0  0  0  0  0  0  0  0  0
   46.6558    9.8581   12.4936 N   0  0  0  0  0  0  0  0  0  0  0  0
   45.7564    8.8325   12.3198 C   0  0  0  0  0  0  0  0  0  0  0  0
   44.5902    9.3494   11.8058 C   0  0  0  0  0  0  0  0  0  0  0  0
   44.8061   10.7383   11.6253 C   0  0  0  0  0  0  0  0  0  0  0  0
   46.1012   11.0171   12.0234 C   0  0  0  0  0  0  0  0  0  0  0  0
   47.7792    8.0237   14.3525 N   0  0  0  0  0  0  0  0  0  0  0  0
   48.6038    7.3848   15.2421 C   0  0  0  0  0  0  0  0  0  0  0  0
   48.3430    5.9604   15.0479 C   0  0  0  0  0  0  0  0  0  0  0  0
   47.4088    5.8098   14.1151 C   0  0  0  0  0  0  0  0  0  0  0  0
   47.0128    7.1224   13.6647 C   0  0  0  0  0  0  0  0  0  0  0  0
   49.5083    7.8388   16.1690 C   0  0  0  0  0  0  0  0  0  0  0  0
   49.7616   12.7374   16.1864 C   0  0  0  0  0  0  0  0  0  0  0  0
   46.7921   12.4166   11.9010 C   0  0  0  0  0  0  0  0  0  0  0  0
   46.0555    7.3344   12.7229 C   0  0  0  0  0  0  0  0  0  0  0  0
   50.2021    6.8188   17.0115 C   0  0  0  0  0  0  0  0  0  0  0  0
   49.5944    6.3608   18.1898 C   0  0  0  0  0  0  0  0  0  0  0  0
   50.2407    5.4143   18.9787 C   0  0  0  0  0  0  0  0  0  0  0  0
   51.4865    4.9115   18.6158 C   0  0  0  0  0  0  0  0  0  0  0  0
   52.0959    5.3569   17.4406 C   0  0  0  0  0  0  0  0  0  0  0  0
   51.4554    6.3071   16.6409 C   0  0  0  0  0  0  0  0  0  0  0  0
   45.2967    6.2495   12.0654 C   0  0  0  0  0  0  0  0  0  0  0  0
   45.5262    5.9334   10.7204 C   0  0  0  0  0  0  0  0  0  0  0  0
   44.7908    4.9184   10.1140 C   0  0  0  0  0  0  0  0  0  0  0  0
   43.8210    4.2117   10.8246 C   0  0  0  0  0  0  0  0  0  0  0  0
   43.5849    4.5271   12.1629 C   0  0  0  0  0  0  0  0  0  0  0  0
   44.3178    5.5431   12.7807 C   0  0  0  0  0  0  0  0  0  0  0  0
   45.0433    4.6343    8.8009 O   0  0  0  0  0  0  0  0  0  0  0  0
   49.6646    4.9567   20.1311 O   0  0  0  0  0  0  0  0  0  0  0  0
   49.1921   15.6401   20.0745 O   0  0  0  0  0  0  0  0  0  0  0  0
   44.6595   16.3338    9.8764 O   0  0  0  0  0  0  0  0  0  0  0  0
   52.1374   14.0226   16.0574 H   0  0  0  0  0  0  0  0  0  0  0  0
   48.4992   13.7513   18.3033 H   0  0  0  0  0  0  0  0  0  0  0  0
   51.5495   16.5577   19.4950 H   0  0  0  0  0  0  0  0  0  0  0  0
   52.9694   15.8010   17.5917 H   0  0  0  0  0  0  0  0  0  0  0  0
   45.3813   14.7070   11.8708 H   0  0  0  0  0  0  0  0  0  0  0  0
   45.5381   15.4018    7.6228 H   0  0  0  0  0  0  0  0  0  0  0  0
   46.8537   13.3038    7.3380 H   0  0  0  0  0  0  0  0  0  0  0  0
   47.4369   11.9314    9.3185 H   0  0  0  0  0  0  0  0  0  0  0  0
   51.5020   11.4981   17.9592 H   0  0  0  0  0  0  0  0  0  0  0  0
   49.8955   11.0804   18.6149 H   0  0  0  0  0  0  0  0  0  0  0  0
   50.7439    8.9488   18.4100 H   0  0  0  0  0  0  0  0  0  0  0  0
   51.8557    9.3846   17.0847 H   0  0  0  0  0  0  0  0  0  0  0  0
   48.0626   11.3321   14.4166 H   0  0  0  0  0  0  0  0  0  0  0  0
   48.1765   14.9936   12.2813 H   0  0  0  0  0  0  0  0  0  0  0  0
   49.6937   15.2020   14.5035 H   0  0  0  0  0  0  0  0  0  0  0  0
   47.5453    9.7145   12.9739 H   0  0  0  0  0  0  0  0  0  0  0  0
   43.6916    8.7903   11.5910 H   0  0  0  0  0  0  0  0  0  0  0  0
   44.1009   11.4507   11.2231 H   0  0  0  0  0  0  0  0  0  0  0  0
   48.8270    5.1527   15.5671 H   0  0  0  0  0  0  0  0  0  0  0  0
   47.0252    4.8712   13.7609 H   0  0  0  0  0  0  0  0  0  0  0  0
   48.6217    6.7696   18.4507 H   0  0  0  0  0  0  0  0  0  0  0  0
   51.9773    4.1756   19.2435 H   0  0  0  0  0  0  0  0  0  0  0  0
   53.0630    4.9667   17.1423 H   0  0  0  0  0  0  0  0  0  0  0  0
   51.9124    6.6686   15.7218 H   0  0  0  0  0  0  0  0  0  0  0  0
   46.2846    6.4768   10.1623 H   0  0  0  0  0  0  0  0  0  0  0  0
   43.2457    3.4180   10.3593 H   0  0  0  0  0  0  0  0  0  0  0  0
   42.8381    3.9833   12.7352 H   0  0  0  0  0  0  0  0  0  0  0  0
   44.1447    5.7922   13.8272 H   0  0  0  0  0  0  0  0  0  0  0  0
   44.4979    3.8733    8.5520 H   0  0  0  0  0  0  0  0  0  0  0  0
   48.7990    5.3978   20.1862 H   0  0  0  0  0  0  0  0  0  0  0  0
   48.3757   15.1136   20.0602 H   0  0  0  0  0  0  0  0  0  0  0  0
   44.4755   16.4565   10.8232 H   0  0  0  0  0  0  0  0  0  0  0  0
 25 26  2  0
 26 27  1  0
 27 23  1  0
 28 29  1  0
  1  2  2  0
  3  4  2  0
  7  8  2  0
 14 15  1  0
 29 30  1  0
 30 31  2  0
 31 32  1  0
 32 28  2  0
 15 16  1  0
 29 33  2  0
 17 33  1  0
 16 17  1  0
 14 34  2  0
 22 34  1  0
 17 13  2  0
 27 35  2  0
 19 35  1  0
 18 19  1  0
 24 36  2  0
 32 36  1  0
  8  9  1  0
  4  5  1  0
 37 38  2  0
  9 10  2  0
 38 39  1  0
  2  3  1  0
 39 40  2  0
 10 11  1  0
 40 41  1  0
 19 20  2  0
 41 42  2  0
 42 37  1  0
 33 37  1  0
 20 21  1  0
 21 22  2  0
 43 44  2  0
 22 18  1  0
 44 45  1  0
 23 24  1  0
 45 46  2  0
  5  6  2  0
 46 47  1  0
 11 12  2  0
 47 48  2  0
 48 43  1  0
 36 43  1  0
 12  7  1  0
 45 49  1  0
 13 14  1  0
 39 50  1  0
 35 12  1  0
 34  2  1  0
  6  1  1  0
  4 51  1  0
 24 25  1  0
  8 52  1  0
  1 53  1  0
  3 54  1  0
  5 55  1  0
  6 56  1  0
  7 57  1  0
  9 58  1  0
 10 59  1  0
 11 60  1  0
 15 61  1  0
 15 62  1  0
 16 63  1  0
 16 64  1  0
 18 65  1  0
 20 66  1  0
 21 67  1  0
 23 68  1  0
 25 69  1  0
 26 70  1  0
 30 71  1  0
 31 72  1  0
 38 73  1  0
 40 74  1  0
 41 75  1  0
 42 76  1  0
 44 77  1  0
 46 78  1  0
 47 79  1  0
 48 80  1  0
 49 81  1  0
 50 82  1  0
 51 83  1  0
 52 84  1  0
M  END
> <Uni-Dock RESULT> 
ENERGY=   -5.638  LOWER_BOUND=    2.310  UPPER_BOUND=    8.055
INTER + INTRA:          -5.638
INTER:                  -5.638
INTRA:                   0.000
UNBOUND:                 0.000

$$$$

     RDKit          3D

 84 92  0  0  0  0  0  0  0  0999 V2000
   51.6619   14.8514   16.0171 C   0  0  0  0  0  0  0  0  0  0  0  0
   50.4228   14.2792   16.3332 C   0  0  0  0  0  0  0  0  0  0  0  0
   49.6967   14.7617   17.4290 C   0  0  0  0  0  0  0  0  0  0  0  0
   50.2130   15.8050   18.1931 C   0  0  0  0  0  0  0  0  0  0  0  0
   51.4412   16.3789   17.8798 C   0  0  0  0  0  0  0  0  0  0  0  0
   52.1695   15.8998   16.7893 C   0  0  0  0  0  0  0  0  0  0  0  0
   45.4648   14.5050   10.4088 C   0  0  0  0  0  0  0  0  0  0  0  0
   45.0621   15.2009    9.2717 C   0  0  0  0  0  0  0  0  0  0  0  0
   45.3916   14.7424    8.0007 C   0  0  0  0  0  0  0  0  0  0  0  0
   46.1325   13.5680    7.8609 C   0  0  0  0  0  0  0  0  0  0  0  0
   46.5447   12.8641    8.9947 C   0  0  0  0  0  0  0  0  0  0  0  0
   46.2211   13.3329   10.2738 C   0  0  0  0  0  0  0  0  0  0  0  0
   49.5267   10.7359   15.3361 N   0  0  0  0  0  0  0  0  0  0  0  0
   50.0236   11.8712   15.9050 C   0  0  0  0  0  0  0  0  0  0  0  0
   50.8024   11.5021   17.1377 C   0  0  0  0  0  0  0  0  0  0  0  0
   51.0743   10.0362   16.9307 C   0  0  0  0  0  0  0  0  0  0  0  0
   49.9927    9.6069   15.9524 C   0  0  0  0  0  0  0  0  0  0  0  0
   48.1849   12.6072   13.6208 N   0  0  0  0  0  0  0  0  0  0  0  0
   47.6409   13.2032   12.5089 C   0  0  0  0  0  0  0  0  0  0  0  0
   48.1979   14.4673   12.4024 C   0  0  0  0  0  0  0  0  0  0  0  0
   49.0711   14.6569   13.4993 C   0  0  0  0  0  0  0  0  0  0  0  0
   49.0431   13.4947   14.2323 C   0  0  0  0  0  0  0  0  0  0  0  0
   46.5701   10.0531   12.2216 N   0  0  0  0  0  0  0  0  0  0  0  0
   45.6736    9.0118   12.1671 C   0  0  0  0  0  0  0  0  0  0  0  0
   44.4701    9.4884   11.7023 C   0  0  0  0  0  0  0  0  0  0  0  0
   44.6571   10.8660   11.4281 C   0  0  0  0  0  0  0  0  0  0  0  0
   45.9721   11.1782   11.7231 C   0  0  0  0  0  0  0  0  0  0  0  0
   47.8348    8.3396   14.1049 N   0  0  0  0  0  0  0  0  0  0  0  0
   48.7235    7.7604   14.9734 C   0  0  0  0  0  0  0  0  0  0  0  0
   48.4676    6.3250   14.8794 C   0  0  0  0  0  0  0  0  0  0  0  0
   47.4762    6.1127   14.0206 C   0  0  0  0  0  0  0  0  0  0  0  0
   47.0358    7.3934   13.5224 C   0  0  0  0  0  0  0  0  0  0  0  0
   49.6813    8.2750   15.8108 C   0  0  0  0  0  0  0  0  0  0  0  0
   49.8764   13.1683   15.5289 C   0  0  0  0  0  0  0  0  0  0  0  0
   46.6367   12.5738   11.4748 C   0  0  0  0  0  0  0  0  0  0  0  0
   46.0164    7.5423   12.6353 C   0  0  0  0  0  0  0  0  0  0  0  0
   50.4409    7.3117   16.6630 C   0  0  0  0  0  0  0  0  0  0  0  0
   49.9172    6.9183   17.9034 C   0  0  0  0  0  0  0  0  0  0  0  0
   50.6252    6.0246   18.7010 C   0  0  0  0  0  0  0  0  0  0  0  0
   51.8505    5.5118   18.2863 C   0  0  0  0  0  0  0  0  0  0  0  0
   52.3762    5.8927   17.0496 C   0  0  0  0  0  0  0  0  0  0  0  0
   51.6733    6.7895   16.2405 C   0  0  0  0  0  0  0  0  0  0  0  0
   45.2292    6.4147   12.0930 C   0  0  0  0  0  0  0  0  0  0  0  0
   45.3739    6.0226   10.7562 C   0  0  0  0  0  0  0  0  0  0  0  0
   44.6126    4.9680   10.2593 C   0  0  0  0  0  0  0  0  0  0  0  0
   43.6999    4.2961   11.0720 C   0  0  0  0  0  0  0  0  0  0  0  0
   43.5483    4.6871   12.4026 C   0  0  0  0  0  0  0  0  0  0  0  0
   44.3079    5.7433   12.9110 C   0  0  0  0  0  0  0  0  0  0  0  0
   44.7819    4.6098    8.9510 O   0  0  0  0  0  0  0  0  0  0  0  0
   50.1312    5.6304   19.9135 O   0  0  0  0  0  0  0  0  0  0  0  0
   49.5281   16.2881   19.2722 O   0  0  0  0  0  0  0  0  0  0  0  0
   44.3292   16.3487    9.3729 O   0  0  0  0  0  0  0  0  0  0  0  0
   52.2232   14.4631   15.1692 H   0  0  0  0  0  0  0  0  0  0  0  0
   48.7433   14.2935   17.6626 H   0  0  0  0  0  0  0  0  0  0  0  0
   51.8313   17.1895   18.4862 H   0  0  0  0  0  0  0  0  0  0  0  0
   53.1325   16.3346   16.5400 H   0  0  0  0  0  0  0  0  0  0  0  0
   45.1995   14.8470   11.4058 H   0  0  0  0  0  0  0  0  0  0  0  0
   45.0694   15.2939    7.1237 H   0  0  0  0  0  0  0  0  0  0  0  0
   46.3885   13.1938    6.8741 H   0  0  0  0  0  0  0  0  0  0  0  0
   47.1167   11.9440    8.8876 H   0  0  0  0  0  0  0  0  0  0  0  0
   51.7439   12.0487   17.2513 H   0  0  0  0  0  0  0  0  0  0  0  0
   50.1890   11.6569   18.0347 H   0  0  0  0  0  0  0  0  0  0  0  0
   51.0476    9.5240   17.8975 H   0  0  0  0  0  0  0  0  0  0  0  0
   52.0649    9.8908   16.4787 H   0  0  0  0  0  0  0  0  0  0  0  0
   48.0821   11.6483   13.9592 H   0  0  0  0  0  0  0  0  0  0  0  0
   48.0120   15.1798   11.6135 H   0  0  0  0  0  0  0  0  0  0  0  0
   49.6689   15.5298   13.7148 H   0  0  0  0  0  0  0  0  0  0  0  0
   47.4908    9.9451   12.6496 H   0  0  0  0  0  0  0  0  0  0  0  0
   43.5662    8.9104   11.5800 H   0  0  0  0  0  0  0  0  0  0  0  0
   43.9186   11.5480   11.0330 H   0  0  0  0  0  0  0  0  0  0  0  0
   48.9943    5.5530   15.4111 H   0  0  0  0  0  0  0  0  0  0  0  0
   47.0814    5.1518   13.7472 H   0  0  0  0  0  0  0  0  0  0  0  0
   48.9589    7.3336   18.2040 H   0  0  0  0  0  0  0  0  0  0  0  0
   52.3901    4.8177   18.9215 H   0  0  0  0  0  0  0  0  0  0  0  0
   53.3262    5.4938   16.7110 H   0  0  0  0  0  0  0  0  0  0  0  0
   52.0648    7.1005   15.2739 H   0  0  0  0  0  0  0  0  0  0  0  0
   46.0875    6.5387   10.1189 H   0  0  0  0  0  0  0  0  0  0  0  0
   43.1050    3.4719   10.6923 H   0  0  0  0  0  0  0  0  0  0  0  0
   42.8471    4.1715   13.0535 H   0  0  0  0  0  0  0  0  0  0  0  0
   44.2007    6.0516   13.9505 H   0  0  0  0  0  0  0  0  0  0  0  0
   44.2305    3.8312    8.7830 H   0  0  0  0  0  0  0  0  0  0  0  0
   49.2659    6.0669   20.0001 H   0  0  0  0  0  0  0  0  0  0  0  0
   48.7189   15.7550   19.3423 H   0  0  0  0  0  0  0  0  0  0  0  0
   44.2062   16.5249   10.3212 H   0  0  0  0  0  0  0  0  0  0  0  0
 25 26  2  0
 26 27  1  0
 27 23  1  0
 28 29  1  0
  1  2  2  0
  3  4  2  0
  7  8  2  0
 14 15  1  0
 29 30  1  0
 30 31  2  0
 31 32  1  0
 32 28  2  0
 15 16  1  0
 29 33  2  0
 17 33  1  0
 16 17  1  0
 14 34  2  0
 22 34  1  0
 17 13  2  0
 27 35  2  0
 19 35  1  0
 18 19  1  0
 24 36  2  0
 32 36  1  0
  8  9  1  0
  4  5  1  0
 37 38  2  0
  9 10  2  0
 38 39  1  0
  2  3  1  0
 39 40  2  0
 10 11  1  0
 40 41  1  0
 19 20  2  0
 41 42  2  0
 42 37  1  0
 33 37  1  0
 20 21  1  0
 21 22  2  0
 43 44  2  0
 22 18  1  0
 44 45  1  0
 23 24  1  0
 45 46  2  0
  5  6  2  0
 46 47  1  0
 11 12  2  0
 47 48  2  0
 48 43  1  0
 36 43  1  0
 12  7  1  0
 45 49  1  0
 13 14  1  0
 39 50  1  0
 35 12  1  0
 34  2  1  0
  6  1  1  0
  4 51  1  0
 24 25  1  0
  8 52  1  0
  1 53  1  0
  3 54  1  0
  5 55  1  0
  6 56  1  0
  7 57  1  0
  9 58  1  0
 10 59  1  0
 11 60  1  0
 15 61  1  0
 15 62  1  0
 16 63  1  0
 16 64  1  0
 18 65  1  0
 20 66  1  0
 21 67  1  0
 23 68  1  0
 25 69  1  0
 26 70  1  0
 30 71  1  0
 31 72  1  0
 38 73  1  0
 40 74  1  0
 41 75  1  0
 42 76  1  0
 44 77  1  0
 46 78  1  0
 47 79  1  0
 48 80  1  0
 49 81  1  0
 50 82  1  0
 51 83  1  0
 52 84  1  0
M  END
> <Uni-Dock RESULT> 
ENERGY=   -5.597  LOWER_BOUND=    2.149  UPPER_BOUND=    7.981
INTER + INTRA:          -5.597
INTER:                  -5.597
INTRA:                   0.000
UNBOUND:                 0.000

$$$$

     RDKit          3D

 84 92  0  0  0  0  0  0  0  0999 V2000
   40.8870   12.8167   11.3303 C   0  0  0  0  0  0  0  0  0  0  0  0
   42.0328   12.5751   10.5612 C   0  0  0  0  0  0  0  0  0  0  0  0
   41.9965   12.7904    9.1781 C   0  0  0  0  0  0  0  0  0  0  0  0
   40.8226   13.2424    8.5810 C   0  0  0  0  0  0  0  0  0  0  0  0
   39.6837   13.4877    9.3420 C   0  0  0  0  0  0  0  0  0  0  0  0
   39.7148   13.2726   10.7210 C   0  0  0  0  0  0  0  0  0  0  0  0
   48.1552   16.5897   13.0372 C   0  0  0  0  0  0  0  0  0  0  0  0
   48.5905   17.7597   13.6546 C   0  0  0  0  0  0  0  0  0  0  0  0
   49.0029   17.7545   14.9829 C   0  0  0  0  0  0  0  0  0  0  0  0
   48.9841   16.5617   15.7070 C   0  0  0  0  0  0  0  0  0  0  0  0
   48.5461   15.3832   15.0988 C   0  0  0  0  0  0  0  0  0  0  0  0
   48.1211   15.3923   13.7646 C   0  0  0  0  0  0  0  0  0  0  0  0
   44.7303   10.1568   11.6694 N   0  0  0  0  0  0  0  0  0  0  0  0
   43.6030   10.7706   11.2087 C   0  0  0  0  0  0  0  0  0  0  0  0
   42.6797    9.7326   10.6324 C   0  0  0  0  0  0  0  0  0  0  0  0
   43.1979    8.4558   11.2381 C   0  0  0  0  0  0  0  0  0  0  0  0
   44.6329    8.7935   11.6100 C   0  0  0  0  0  0  0  0  0  0  0  0
   45.6115   12.8601   12.0688 N   0  0  0  0  0  0  0  0  0  0  0  0
   46.1971   13.9767   12.6146 C   0  0  0  0  0  0  0  0  0  0  0  0
   45.2142   14.9467   12.7273 C   0  0  0  0  0  0  0  0  0  0  0  0
   44.0125   14.4181   12.1999 C   0  0  0  0  0  0  0  0  0  0  0  0
   44.2873   13.1316   11.8024 C   0  0  0  0  0  0  0  0  0  0  0  0
   48.5947   11.6777   12.9582 N   0  0  0  0  0  0  0  0  0  0  0  0
   49.8123   11.0678   12.7670 C   0  0  0  0  0  0  0  0  0  0  0  0
   50.7461   12.0305   12.4625 C   0  0  0  0  0  0  0  0  0  0  0  0
   50.0743   13.2774   12.5090 C   0  0  0  0  0  0  0  0  0  0  0  0
   48.7572   13.0322   12.8532 C   0  0  0  0  0  0  0  0  0  0  0  0
   47.6423    9.0697   12.3469 N   0  0  0  0  0  0  0  0  0  0  0  0
   46.8600    7.9571   12.1747 C   0  0  0  0  0  0  0  0  0  0  0  0
   47.7506    6.8242   12.4158 C   0  0  0  0  0  0  0  0  0  0  0  0
   48.9699    7.2765   12.6881 C   0  0  0  0  0  0  0  0  0  0  0  0
   48.9341    8.7179   12.6302 C   0  0  0  0  0  0  0  0  0  0  0  0
   45.5394    7.7861   11.8427 C   0  0  0  0  0  0  0  0  0  0  0  0
   43.2767   12.0892   11.1908 C   0  0  0  0  0  0  0  0  0  0  0  0
   47.6803   14.1386   13.1126 C   0  0  0  0  0  0  0  0  0  0  0  0
   50.0236    9.5037   12.8396 C   0  0  0  0  0  0  0  0  0  0  0  0
   45.0413    6.3853   11.6974 C   0  0  0  0  0  0  0  0  0  0  0  0
   45.1825    5.7213   10.4700 C   0  0  0  0  0  0  0  0  0  0  0  0
   44.7152    4.4181   10.3308 C   0  0  0  0  0  0  0  0  0  0  0  0
   44.1072    3.7591   11.3950 C   0  0  0  0  0  0  0  0  0  0  0  0
   43.9686    4.4103   12.6228 C   0  0  0  0  0  0  0  0  0  0  0  0
   44.4347    5.7191   12.7735 C   0  0  0  0  0  0  0  0  0  0  0  0
   51.3728    8.9751   13.1315 C   0  0  0  0  0  0  0  0  0  0  0  0
   51.9296    9.1096   14.4097 C   0  0  0  0  0  0  0  0  0  0  0  0
   53.2080    8.6189   14.6616 C   0  0  0  0  0  0  0  0  0  0  0  0
   53.9495    7.9978   13.6568 C   0  0  0  0  0  0  0  0  0  0  0  0
   53.4011    7.8668   12.3807 C   0  0  0  0  0  0  0  0  0  0  0  0
   52.1191    8.3551   12.1179 C   0  0  0  0  0  0  0  0  0  0  0  0
   53.7188    8.7644   15.9211 O   0  0  0  0  0  0  0  0  0  0  0  0
   44.8430    3.7550    9.1419 O   0  0  0  0  0  0  0  0  0  0  0  0
   40.7587   13.4521    7.2324 O   0  0  0  0  0  0  0  0  0  0  0  0
   48.6291   18.9419   12.9723 O   0  0  0  0  0  0  0  0  0  0  0  0
   40.9224   12.6373   12.4032 H   0  0  0  0  0  0  0  0  0  0  0  0
   42.8943   12.5841    8.6001 H   0  0  0  0  0  0  0  0  0  0  0  0
   38.7759   13.8373    8.8618 H   0  0  0  0  0  0  0  0  0  0  0  0
   38.8301   13.4531   11.3237 H   0  0  0  0  0  0  0  0  0  0  0  0
   47.8453   16.5804   11.9955 H   0  0  0  0  0  0  0  0  0  0  0  0
   49.3412   18.6733   15.4502 H   0  0  0  0  0  0  0  0  0  0  0  0
   49.3123   16.5418   16.7420 H   0  0  0  0  0  0  0  0  0  0  0  0
   48.5373   14.4502   15.6599 H   0  0  0  0  0  0  0  0  0  0  0  0
   41.6270    9.8758   10.8960 H   0  0  0  0  0  0  0  0  0  0  0  0
   42.7738    9.7059    9.5391 H   0  0  0  0  0  0  0  0  0  0  0  0
   43.0914    7.6429   10.5132 H   0  0  0  0  0  0  0  0  0  0  0  0
   42.6282    8.2024   12.1426 H   0  0  0  0  0  0  0  0  0  0  0  0
   46.0020   11.9266   11.9257 H   0  0  0  0  0  0  0  0  0  0  0  0
   45.3366   15.9295   13.1560 H   0  0  0  0  0  0  0  0  0  0  0  0
   43.0533   14.9104   12.1403 H   0  0  0  0  0  0  0  0  0  0  0  0
   47.7375   11.1360   13.0783 H   0  0  0  0  0  0  0  0  0  0  0  0
   51.7857   11.8519   12.2313 H   0  0  0  0  0  0  0  0  0  0  0  0
   50.5123   14.2494   12.3363 H   0  0  0  0  0  0  0  0  0  0  0  0
   47.4743    5.7855   12.3859 H   0  0  0  0  0  0  0  0  0  0  0  0
   49.8256    6.6683   12.9155 H   0  0  0  0  0  0  0  0  0  0  0  0
   45.6606    6.2583    9.6549 H   0  0  0  0  0  0  0  0  0  0  0  0
   43.7466    2.7440   11.2686 H   0  0  0  0  0  0  0  0  0  0  0  0
   43.5040    3.9048   13.4625 H   0  0  0  0  0  0  0  0  0  0  0  0
   44.3361    6.2455   13.7208 H   0  0  0  0  0  0  0  0  0  0  0  0
   51.3547    9.5879   15.1988 H   0  0  0  0  0  0  0  0  0  0  0  0
   54.9453    7.6109   13.8464 H   0  0  0  0  0  0  0  0  0  0  0  0
   53.9606    7.3800   11.5863 H   0  0  0  0  0  0  0  0  0  0  0  0
   51.6803    8.2517   11.1260 H   0  0  0  0  0  0  0  0  0  0  0  0
   54.5801    8.3214   15.9448 H   0  0  0  0  0  0  0  0  0  0  0  0
   45.3156    4.3652    8.5493 H   0  0  0  0  0  0  0  0  0  0  0  0
   41.6297   13.2089    6.8773 H   0  0  0  0  0  0  0  0  0  0  0  0
   48.2967   18.7641   12.0760 H   0  0  0  0  0  0  0  0  0  0  0  0
 25 26  2  0
 26 27  1  0
 27 23  1  0
 28 29  1  0
  1  2  2  0
  3  4  2  0
  7  8  2  0
 14 15  1  0
 29 30  1  0
 30 31  2  0
 31 32  1  0
 32 28  2  0
 15 16  1  0
 29 33  2  0
 17 33  1  0
 16 17  1  0
 14 34  2  0
 22 34  1  0
 17 13  2  0
 27 35  2  0
 19 35  1  0
 18 19  1  0
 24 36  2  0
 32 36  1  0
  8  9  1  0
  4  5  1  0
 37 38  2  0
  9 10  2  0
 38 39  1  0
  2  3  1  0
 39 40  2  0
 10 11  1  0
 40 41  1  0
 19 20  2  0
 41 42  2  0
 42 37  1  0
 33 37  1  0
 20 21  1  0
 21 22  2  0
 43 44  2  0
 22 18  1  0
 44 45  1  0
 23 24  1  0
 45 46  2  0
  5  6  2  0
 46 47  1  0
 11 12  2  0
 47 48  2  0
 48 43  1  0
 36 43  1  0
 12  7  1  0
 45 49  1  0
 13 14  1  0
 39 50  1  0
 35 12  1  0
 34  2  1  0
  6  1  1  0
  4 51  1  0
 24 25  1  0
  8 52  1  0
  1 53  1  0
  3 54  1  0
  5 55  1  0
  6 56  1  0
  7 57  1  0
  9 58  1  0
 10 59  1  0
 11 60  1  0
 15 61  1  0
 15 62  1  0
 16 63  1  0
 16 64  1  0
 18 65  1  0
 20 66  1  0
 21 67  1  0
 23 68  1  0
 25 69  1  0
 26 70  1  0
 30 71  1  0
 31 72  1  0
 38 73  1  0
 40 74  1  0
 41 75  1  0
 42 76  1  0
 44 77  1  0
 46 78  1  0
 47 79  1  0
 48 80  1  0
 49 81  1  0
 50 82  1  0
 51 83  1  0
 52 84  1  0
M  END
> <Uni-Dock RESULT> 
ENERGY=   -5.556  LOWER_BOUND=    2.381  UPPER_BOUND=    8.241
INTER + INTRA:          -5.556
INTER:                  -5.556
INTRA:                   0.000
UNBOUND:                 0.000

$$$$

     RDKit          3D

 84 92  0  0  0  0  0  0  0  0999 V2000
   45.2915    6.0164   10.6922 C   0  0  0  0  0  0  0  0  0  0  0  0
   45.1683    6.7380   11.8867 C   0  0  0  0  0  0  0  0  0  0  0  0
   44.2576    6.3129   12.8617 C   0  0  0  0  0  0  0  0  0  0  0  0
   43.4838    5.1777   12.6346 C   0  0  0  0  0  0  0  0  0  0  0  0
   43.6063    4.4558   11.4513 C   0  0  0  0  0  0  0  0  0  0  0  0
   44.5117    4.8771   10.4757 C   0  0  0  0  0  0  0  0  0  0  0  0
   51.8969    7.4391   15.6238 C   0  0  0  0  0  0  0  0  0  0  0  0
   53.1322    6.8531   15.8886 C   0  0  0  0  0  0  0  0  0  0  0  0
   54.2887    7.3159   15.2698 C   0  0  0  0  0  0  0  0  0  0  0  0
   54.2126    8.3833   14.3741 C   0  0  0  0  0  0  0  0  0  0  0  0
   52.9783    8.9761   14.0985 C   0  0  0  0  0  0  0  0  0  0  0  0
   51.8135    8.5020   14.7143 C   0  0  0  0  0  0  0  0  0  0  0  0
   46.0726   10.4092   12.1254 N   0  0  0  0  0  0  0  0  0  0  0  0
   45.5000    9.1938   11.8918 C   0  0  0  0  0  0  0  0  0  0  0  0
   44.1244    9.4011   11.3199 C   0  0  0  0  0  0  0  0  0  0  0  0
   44.1800   10.8238   10.8317 C   0  0  0  0  0  0  0  0  0  0  0  0
   45.3078   11.4372   11.6461 C   0  0  0  0  0  0  0  0  0  0  0  0
   48.1244    8.8119   13.3432 N   0  0  0  0  0  0  0  0  0  0  0  0
   49.3540    8.3429   13.7378 C   0  0  0  0  0  0  0  0  0  0  0  0
   49.4417    7.0205   13.3342 C   0  0  0  0  0  0  0  0  0  0  0  0
   48.2196    6.6677   12.7150 C   0  0  0  0  0  0  0  0  0  0  0  0
   47.4279    7.7909   12.7346 C   0  0  0  0  0  0  0  0  0  0  0  0
   49.6199   11.6187   14.3302 N   0  0  0  0  0  0  0  0  0  0  0  0
   49.7668   12.7736   15.0621 C   0  0  0  0  0  0  0  0  0  0  0  0
   50.4734   12.4852   16.2062 C   0  0  0  0  0  0  0  0  0  0  0  0
   50.8005   11.1077   16.1455 C   0  0  0  0  0  0  0  0  0  0  0  0
   50.2930   10.6074   14.9599 C   0  0  0  0  0  0  0  0  0  0  0  0
   47.4278   13.0632   13.2390 N   0  0  0  0  0  0  0  0  0  0  0  0
   46.3755   13.4789   12.4649 C   0  0  0  0  0  0  0  0  0  0  0  0
   46.4183   14.9384   12.5158 C   0  0  0  0  0  0  0  0  0  0  0  0
   47.4268   15.3197   13.2923 C   0  0  0  0  0  0  0  0  0  0  0  0
   48.0813   14.1330   13.7881 C   0  0  0  0  0  0  0  0  0  0  0  0
   45.4143   12.8038   11.7552 C   0  0  0  0  0  0  0  0  0  0  0  0
   45.9825    7.9459   12.1271 C   0  0  0  0  0  0  0  0  0  0  0  0
   50.5090    9.1462   14.4412 C   0  0  0  0  0  0  0  0  0  0  0  0
   49.1469   14.1617   14.6319 C   0  0  0  0  0  0  0  0  0  0  0  0
   44.3757   13.6181   11.0553 C   0  0  0  0  0  0  0  0  0  0  0  0
   43.2277   14.0263   11.7503 C   0  0  0  0  0  0  0  0  0  0  0  0
   42.2567   14.7808   11.0992 C   0  0  0  0  0  0  0  0  0  0  0  0
   42.4066   15.1393    9.7630 C   0  0  0  0  0  0  0  0  0  0  0  0
   43.5497   14.7430    9.0652 C   0  0  0  0  0  0  0  0  0  0  0  0
   44.5313   13.9852    9.7096 C   0  0  0  0  0  0  0  0  0  0  0  0
   49.7466   15.4078   15.1542 C   0  0  0  0  0  0  0  0  0  0  0  0
   51.0055   15.8327   14.7113 C   0  0  0  0  0  0  0  0  0  0  0  0
   51.5609   17.0011   15.2262 C   0  0  0  0  0  0  0  0  0  0  0  0
   50.8846   17.7560   16.1842 C   0  0  0  0  0  0  0  0  0  0  0  0
   49.6329   17.3333   16.6325 C   0  0  0  0  0  0  0  0  0  0  0  0
   49.0667   16.1631   16.1217 C   0  0  0  0  0  0  0  0  0  0  0  0
   52.7897   17.3879   14.7689 O   0  0  0  0  0  0  0  0  0  0  0  0
   41.1306   15.1870   11.7599 O   0  0  0  0  0  0  0  0  0  0  0  0
   42.5820    4.7471   13.5662 O   0  0  0  0  0  0  0  0  0  0  0  0
   53.2429    5.8124   16.7658 O   0  0  0  0  0  0  0  0  0  0  0  0
   45.9954    6.3603    9.9365 H   0  0  0  0  0  0  0  0  0  0  0  0
   44.1704    6.8960   13.7755 H   0  0  0  0  0  0  0  0  0  0  0  0
   42.9947    3.5748   11.2880 H   0  0  0  0  0  0  0  0  0  0  0  0
   44.6103    4.3262    9.5454 H   0  0  0  0  0  0  0  0  0  0  0  0
   50.9899    7.0946   16.1136 H   0  0  0  0  0  0  0  0  0  0  0  0
   55.2444    6.8508   15.4871 H   0  0  0  0  0  0  0  0  0  0  0  0
   55.1091    8.7607   13.8912 H   0  0  0  0  0  0  0  0  0  0  0  0
   52.9179    9.8136   13.4054 H   0  0  0  0  0  0  0  0  0  0  0  0
   43.8784    8.7273   10.4932 H   0  0  0  0  0  0  0  0  0  0  0  0
   43.3662    9.2935   12.1064 H   0  0  0  0  0  0  0  0  0  0  0  0
   43.2022   11.2936   10.9760 H   0  0  0  0  0  0  0  0  0  0  0  0
   44.4338   10.8522    9.7632 H   0  0  0  0  0  0  0  0  0  0  0  0
   47.7470    9.7607   13.3868 H   0  0  0  0  0  0  0  0  0  0  0  0
   50.2972    6.3738   13.4557 H   0  0  0  0  0  0  0  0  0  0  0  0
   47.9578    5.7133   12.2833 H   0  0  0  0  0  0  0  0  0  0  0  0
   49.0254   11.5823   13.5009 H   0  0  0  0  0  0  0  0  0  0  0  0
   50.7190   13.1854   16.9907 H   0  0  0  0  0  0  0  0  0  0  0  0
   51.3680   10.5498   16.8757 H   0  0  0  0  0  0  0  0  0  0  0  0
   45.7493   15.6085   12.0063 H   0  0  0  0  0  0  0  0  0  0  0  0
   47.7026   16.3360   13.5043 H   0  0  0  0  0  0  0  0  0  0  0  0
   43.1348   13.7329   12.7926 H   0  0  0  0  0  0  0  0  0  0  0  0
   41.6389   15.7261    9.2703 H   0  0  0  0  0  0  0  0  0  0  0  0
   43.6826   15.0230    8.0258 H   0  0  0  0  0  0  0  0  0  0  0  0
   45.4292   13.6650    9.1847 H   0  0  0  0  0  0  0  0  0  0  0  0
   51.5356   15.2518   13.9608 H   0  0  0  0  0  0  0  0  0  0  0  0
   51.3102   18.6687   16.5882 H   0  0  0  0  0  0  0  0  0  0  0  0
   49.0874   17.9115   17.3736 H   0  0  0  0  0  0  0  0  0  0  0  0
   48.0870   15.8286   16.4613 H   0  0  0  0  0  0  0  0  0  0  0  0
   53.0028   18.2407   15.1763 H   0  0  0  0  0  0  0  0  0  0  0  0
   41.2322   14.8690   12.6739 H   0  0  0  0  0  0  0  0  0  0  0  0
   42.6247    5.3818   14.3006 H   0  0  0  0  0  0  0  0  0  0  0  0
   52.3468    5.6147   17.0870 H   0  0  0  0  0  0  0  0  0  0  0  0
 25 26  2  0
 26 27  1  0
 27 23  1  0
 28 29  1  0
  1  2  2  0
  3  4  2  0
  7  8  2  0
 14 15  1  0
 29 30  1  0
 30 31  2  0
 31 32  1  0
 32 28  2  0
 15 16  1  0
 29 33  2  0
 17 33  1  0
 16 17  1  0
 14 34  2  0
 22 34  1  0
 17 13  2  0
 27 35  2  0
 19 35  1  0
 18 19  1  0
 24 36  2  0
 32 36  1  0
  8  9  1  0
  4  5  1  0
 37 38  2  0
  9 10  2  0
 38 39  1  0
  2  3  1  0
 39 40  2  0
 10 11  1  0
 40 41  1  0
 19 20  2  0
 41 42  2  0
 42 37  1  0
 33 37  1  0
 20 21  1  0
 21 22  2  0
 43 44  2  0
 22 18  1  0
 44 45  1  0
 23 24  1  0
 45 46  2  0
  5  6  2  0
 46 47  1  0
 11 12  2  0
 47 48  2  0
 48 43  1  0
 36 43  1  0
 12  7  1  0
 45 49  1  0
 13 14  1  0
 39 50  1  0
 35 12  1  0
 34  2  1  0
  6  1  1  0
  4 51  1  0
 24 25  1  0
  8 52  1  0
  1 53  1  0
  3 54  1  0
  5 55  1  0
  6 56  1  0
  7 57  1  0
  9 58  1  0
 10 59  1  0
 11 60  1  0
 15 61  1  0
 15 62  1  0
 16 63  1  0
 16 64  1  0
 18 65  1  0
 20 66  1  0
 21 67  1  0
 23 68  1  0
 25 69  1  0
 26 70  1  0
 30 71  1  0
 31 72  1  0
 38 73  1  0
 40 74  1  0
 41 75  1  0
 42 76  1  0
 44 77  1  0
 46 78  1  0
 47 79  1  0
 48 80  1  0
 49 81  1  0
 50 82  1  0
 51 83  1  0
 52 84  1  0
M  END
> <Uni-Dock RESULT> 
ENERGY=   -5.552  LOWER_BOUND=    1.829  UPPER_BOUND=    8.259
INTER + INTRA:          -5.552
INTER:                  -5.552
INTRA:                   0.000
UNBOUND:                 0.000

$$$$

     RDKit          3D

 84 92  0  0  0  0  0  0  0  0999 V2000
   51.8527    7.5700   15.4471 C   0  0  0  0  0  0  0  0  0  0  0  0
   50.6428    8.1217   15.8880 C   0  0  0  0  0  0  0  0  0  0  0  0
   50.2509    7.9547   17.2219 C   0  0  0  0  0  0  0  0  0  0  0  0
   51.0673    7.2423   18.0965 C   0  0  0  0  0  0  0  0  0  0  0  0
   52.2718    6.6964   17.6636 C   0  0  0  0  0  0  0  0  0  0  0  0
   52.6656    6.8590   16.3341 C   0  0  0  0  0  0  0  0  0  0  0  0
   50.2371   15.7376   14.6366 C   0  0  0  0  0  0  0  0  0  0  0  0
   50.9553   16.9262   14.5334 C   0  0  0  0  0  0  0  0  0  0  0  0
   51.2159   17.4968   13.2920 C   0  0  0  0  0  0  0  0  0  0  0  0
   50.7494   16.8733   12.1340 C   0  0  0  0  0  0  0  0  0  0  0  0
   50.0311   15.6789   12.2257 C   0  0  0  0  0  0  0  0  0  0  0  0
   49.7789   15.1003   13.4757 C   0  0  0  0  0  0  0  0  0  0  0  0
   47.7719    8.8339   13.5208 N   0  0  0  0  0  0  0  0  0  0  0  0
   48.7168    8.2859   14.3373 C   0  0  0  0  0  0  0  0  0  0  0  0
   48.4179    6.8234   14.5214 C   0  0  0  0  0  0  0  0  0  0  0  0
   47.5002    6.5253   13.3662 C   0  0  0  0  0  0  0  0  0  0  0  0
   46.9327    7.8873   12.9999 C   0  0  0  0  0  0  0  0  0  0  0  0
   49.1009   11.2822   14.2162 N   0  0  0  0  0  0  0  0  0  0  0  0
   49.6582   12.5354   14.1352 C   0  0  0  0  0  0  0  0  0  0  0  0
   50.9685   12.4351   14.5741 C   0  0  0  0  0  0  0  0  0  0  0  0
   51.1988   11.0960   14.9683 C   0  0  0  0  0  0  0  0  0  0  0  0
   50.0312   10.4092   14.7362 C   0  0  0  0  0  0  0  0  0  0  0  0
   46.7530   12.9458   12.5405 N   0  0  0  0  0  0  0  0  0  0  0  0
   45.4905   13.4338   12.2974 C   0  0  0  0  0  0  0  0  0  0  0  0
   45.3811   14.6807   12.8672 C   0  0  0  0  0  0  0  0  0  0  0  0
   46.6408   14.9753   13.4454 C   0  0  0  0  0  0  0  0  0  0  0  0
   47.4782   13.9028   13.1965 C   0  0  0  0  0  0  0  0  0  0  0  0
   45.4468   10.4622   12.0845 N   0  0  0  0  0  0  0  0  0  0  0  0
   45.1699    9.1388   11.8576 C   0  0  0  0  0  0  0  0  0  0  0  0
   43.9565    9.1376   11.0438 C   0  0  0  0  0  0  0  0  0  0  0  0
   43.5633   10.3908   10.8427 C   0  0  0  0  0  0  0  0  0  0  0  0
   44.4926   11.2636   11.5188 C   0  0  0  0  0  0  0  0  0  0  0  0
   45.7864    7.9757   12.2457 C   0  0  0  0  0  0  0  0  0  0  0  0
   49.7721    8.8715   14.9609 C   0  0  0  0  0  0  0  0  0  0  0  0
   48.9964   13.8476   13.5746 C   0  0  0  0  0  0  0  0  0  0  0  0
   44.3738   12.6178   11.5336 C   0  0  0  0  0  0  0  0  0  0  0  0
   45.1494    6.6883   11.8354 C   0  0  0  0  0  0  0  0  0  0  0  0
   44.1375    6.1293   12.6298 C   0  0  0  0  0  0  0  0  0  0  0  0
   43.5460    4.9279   12.2521 C   0  0  0  0  0  0  0  0  0  0  0  0
   43.9435    4.2684   11.0931 C   0  0  0  0  0  0  0  0  0  0  0  0
   44.9456    4.8213   10.2925 C   0  0  0  0  0  0  0  0  0  0  0  0
   45.5462    6.0277   10.6624 C   0  0  0  0  0  0  0  0  0  0  0  0
   43.2716   13.3521   10.8770 C   0  0  0  0  0  0  0  0  0  0  0  0
   43.5081   14.1091    9.7225 C   0  0  0  0  0  0  0  0  0  0  0  0
   42.4604   14.8063    9.1268 C   0  0  0  0  0  0  0  0  0  0  0  0
   41.1747   14.7684    9.6658 C   0  0  0  0  0  0  0  0  0  0  0  0
   40.9358   14.0204   10.8189 C   0  0  0  0  0  0  0  0  0  0  0  0
   41.9798   13.3167   11.4237 C   0  0  0  0  0  0  0  0  0  0  0  0
   42.7264   15.5321    7.9994 O   0  0  0  0  0  0  0  0  0  0  0  0
   42.5589    4.3672   13.0142 O   0  0  0  0  0  0  0  0  0  0  0  0
   50.7036    7.0579   19.4005 O   0  0  0  0  0  0  0  0  0  0  0  0
   51.4189   17.5663   15.6470 O   0  0  0  0  0  0  0  0  0  0  0  0
   52.1440    7.6972   14.4061 H   0  0  0  0  0  0  0  0  0  0  0  0
   49.3018    8.3811   17.5380 H   0  0  0  0  0  0  0  0  0  0  0  0
   52.8958    6.1419   18.3564 H   0  0  0  0  0  0  0  0  0  0  0  0
   53.5995    6.4309   15.9831 H   0  0  0  0  0  0  0  0  0  0  0  0
   50.0154   15.2918   15.6028 H   0  0  0  0  0  0  0  0  0  0  0  0
   51.7752   18.4242   13.2270 H   0  0  0  0  0  0  0  0  0  0  0  0
   50.9377   17.3129   11.1590 H   0  0  0  0  0  0  0  0  0  0  0  0
   49.6603   15.1946   11.3239 H   0  0  0  0  0  0  0  0  0  0  0  0
   49.3012    6.1783   14.4786 H   0  0  0  0  0  0  0  0  0  0  0  0
   47.9012    6.6589   15.4758 H   0  0  0  0  0  0  0  0  0  0  0  0
   46.7550    5.7869   13.6782 H   0  0  0  0  0  0  0  0  0  0  0  0
   48.0702    6.1190   12.5195 H   0  0  0  0  0  0  0  0  0  0  0  0
   48.1876   10.9559   13.8941 H   0  0  0  0  0  0  0  0  0  0  0  0
   51.6941   13.2335   14.5981 H   0  0  0  0  0  0  0  0  0  0  0  0
   52.1167   10.6771   15.3529 H   0  0  0  0  0  0  0  0  0  0  0  0
   47.0100   11.9856   12.3071 H   0  0  0  0  0  0  0  0  0  0  0  0
   44.4965   15.3001   12.8674 H   0  0  0  0  0  0  0  0  0  0  0  0
   46.9131   15.8832   13.9632 H   0  0  0  0  0  0  0  0  0  0  0  0
   43.4548    8.2682   10.6584 H   0  0  0  0  0  0  0  0  0  0  0  0
   42.7053   10.6924   10.2712 H   0  0  0  0  0  0  0  0  0  0  0  0
   43.8458    6.6641   13.5299 H   0  0  0  0  0  0  0  0  0  0  0  0
   43.4732    3.3315   10.8146 H   0  0  0  0  0  0  0  0  0  0  0  0
   45.2587    4.3215    9.3822 H   0  0  0  0  0  0  0  0  0  0  0  0
   46.3293    6.4757   10.0539 H   0  0  0  0  0  0  0  0  0  0  0  0
   44.5069   14.1385    9.2942 H   0  0  0  0  0  0  0  0  0  0  0  0
   40.3529   15.3073    9.2056 H   0  0  0  0  0  0  0  0  0  0  0  0
   39.9393   13.9730   11.2501 H   0  0  0  0  0  0  0  0  0  0  0  0
   41.8013   12.7249   12.3209 H   0  0  0  0  0  0  0  0  0  0  0  0
   41.8896   15.9017    7.6804 H   0  0  0  0  0  0  0  0  0  0  0  0
   42.4071    4.9885   13.7475 H   0  0  0  0  0  0  0  0  0  0  0  0
   49.8374    7.4854   19.5049 H   0  0  0  0  0  0  0  0  0  0  0  0
   51.1614   17.0262   16.4134 H   0  0  0  0  0  0  0  0  0  0  0  0
 25 26  2  0
 26 27  1  0
 27 23  1  0
 28 29  1  0
  1  2  2  0
  3  4  2  0
  7  8  2  0
 14 15  1  0
 29 30  1  0
 30 31  2  0
 31 32  1  0
 32 28  2  0
 15 16  1  0
 29 33  2  0
 17 33  1  0
 16 17  1  0
 14 34  2  0
 22 34  1  0
 17 13  2  0
 27 35  2  0
 19 35  1  0
 18 19  1  0
 24 36  2  0
 32 36  1  0
  8  9  1  0
  4  5  1  0
 37 38  2  0
  9 10  2  0
 38 39  1  0
  2  3  1  0
 39 40  2  0
 10 11  1  0
 40 41  1  0
 19 20  2  0
 41 42  2  0
 42 37  1  0
 33 37  1  0
 20 21  1  0
 21 22  2  0
 43 44  2  0
 22 18  1  0
 44 45  1  0
 23 24  1  0
 45 46  2  0
  5  6  2  0
 46 47  1  0
 11 12  2  0
 47 48  2  0
 48 43  1  0
 36 43  1  0
 12  7  1  0
 45 49  1  0
 13 14  1  0
 39 50  1  0
 35 12  1  0
 34  2  1  0
  6  1  1  0
  4 51  1  0
 24 25  1  0
  8 52  1  0
  1 53  1  0
  3 54  1  0
  5 55  1  0
  6 56  1  0
  7 57  1  0
  9 58  1  0
 10 59  1  0
 11 60  1  0
 15 61  1  0
 15 62  1  0
 16 63  1  0
 16 64  1  0
 18 65  1  0
 20 66  1  0
 21 67  1  0
 23 68  1  0
 25 69  1  0
 26 70  1  0
 30 71  1  0
 31 72  1  0
 38 73  1  0
 40 74  1  0
 41 75  1  0
 42 76  1  0
 44 77  1  0
 46 78  1  0
 47 79  1  0
 48 80  1  0
 49 81  1  0
 50 82  1  0
 51 83  1  0
 52 84  1  0
M  END
> <Uni-Dock RESULT> 
ENERGY=   -5.526  LOWER_BOUND=    1.232  UPPER_BOUND=    8.086
INTER + INTRA:          -5.526
INTER:                  -5.526
INTRA:                   0.000
UNBOUND:                 0.000

$$$$

     RDKit          3D

 84 92  0  0  0  0  0  0  0  0999 V2000
   49.3385   16.5997   12.2184 C   0  0  0  0  0  0  0  0  0  0  0  0
   48.2893   15.9435   12.8753 C   0  0  0  0  0  0  0  0  0  0  0  0
   47.5974   16.5986   13.9014 C   0  0  0  0  0  0  0  0  0  0  0  0
   47.9589   17.8950   14.2587 C   0  0  0  0  0  0  0  0  0  0  0  0
   48.9975   18.5517   13.6058 C   0  0  0  0  0  0  0  0  0  0  0  0
   49.6912   17.9018   12.5834 C   0  0  0  0  0  0  0  0  0  0  0  0
   42.7979   13.5331    8.0002 C   0  0  0  0  0  0  0  0  0  0  0  0
   42.1390   13.7776    6.7979 C   0  0  0  0  0  0  0  0  0  0  0  0
   42.4219   13.0244    5.6634 C   0  0  0  0  0  0  0  0  0  0  0  0
   43.3757   12.0078    5.7297 C   0  0  0  0  0  0  0  0  0  0  0  0
   44.0451   11.7565    6.9294 C   0  0  0  0  0  0  0  0  0  0  0  0
   43.7667   12.5228    8.0679 C   0  0  0  0  0  0  0  0  0  0  0  0
   48.0637   12.1654   13.0384 N   0  0  0  0  0  0  0  0  0  0  0  0
   48.3662   13.4866   13.1886 C   0  0  0  0  0  0  0  0  0  0  0  0
   49.3314   13.6422   14.3316 C   0  0  0  0  0  0  0  0  0  0  0  0
   49.8842   12.2511   14.4896 C   0  0  0  0  0  0  0  0  0  0  0  0
   48.8208   11.3698   13.8541 C   0  0  0  0  0  0  0  0  0  0  0  0
   46.1824   13.1789   11.1208 N   0  0  0  0  0  0  0  0  0  0  0  0
   45.4100   13.3128    9.9925 C   0  0  0  0  0  0  0  0  0  0  0  0
   45.6721   14.5635    9.4572 C   0  0  0  0  0  0  0  0  0  0  0  0
   46.5963   15.2193   10.3042 C   0  0  0  0  0  0  0  0  0  0  0  0
   46.8928   14.3423   11.3199 C   0  0  0  0  0  0  0  0  0  0  0  0
   45.0065   10.0856   10.7503 N   0  0  0  0  0  0  0  0  0  0  0  0
   44.3503    8.9374   11.1274 C   0  0  0  0  0  0  0  0  0  0  0  0
   43.0309    9.0388   10.7526 C   0  0  0  0  0  0  0  0  0  0  0  0
   42.8918   10.2824   10.0876 C   0  0  0  0  0  0  0  0  0  0  0  0
   44.1344   10.8899   10.0688 C   0  0  0  0  0  0  0  0  0  0  0  0
   46.7974    9.2570   12.7970 N   0  0  0  0  0  0  0  0  0  0  0  0
   47.8753    9.1256   13.6338 C   0  0  0  0  0  0  0  0  0  0  0  0
   47.9208    7.7061   13.9764 C   0  0  0  0  0  0  0  0  0  0  0  0
   46.9117    7.0796   13.3807 C   0  0  0  0  0  0  0  0  0  0  0  0
   46.1599    8.0573   12.6315 C   0  0  0  0  0  0  0  0  0  0  0  0
   48.7854   10.0236   14.1325 C   0  0  0  0  0  0  0  0  0  0  0  0
   47.9087   14.5665   12.5031 C   0  0  0  0  0  0  0  0  0  0  0  0
   44.4583   12.2402    9.3458 C   0  0  0  0  0  0  0  0  0  0  0  0
   45.0442    7.7568   11.9153 C   0  0  0  0  0  0  0  0  0  0  0  0
   49.8176    9.5045   15.0793 C   0  0  0  0  0  0  0  0  0  0  0  0
   49.5233    9.4154   16.4479 C   0  0  0  0  0  0  0  0  0  0  0  0
   50.4848    8.9365   17.3324 C   0  0  0  0  0  0  0  0  0  0  0  0
   51.7400    8.5422   16.8793 C   0  0  0  0  0  0  0  0  0  0  0  0
   52.0393    8.6211   15.5173 C   0  0  0  0  0  0  0  0  0  0  0  0
   51.0809    9.1003   14.6202 C   0  0  0  0  0  0  0  0  0  0  0  0
   44.4608    6.4008   11.8354 C   0  0  0  0  0  0  0  0  0  0  0  0
   44.5431    5.6585   10.6506 C   0  0  0  0  0  0  0  0  0  0  0  0
   43.9743    4.3891   10.5896 C   0  0  0  0  0  0  0  0  0  0  0  0
   43.3158    3.8438   11.6915 C   0  0  0  0  0  0  0  0  0  0  0  0
   43.2264    4.5821   12.8719 C   0  0  0  0  0  0  0  0  0  0  0  0
   43.7944    5.8561   12.9436 C   0  0  0  0  0  0  0  0  0  0  0  0
   44.0763    3.6914    9.4185 O   0  0  0  0  0  0  0  0  0  0  0  0
   50.2166    8.8434   18.6699 O   0  0  0  0  0  0  0  0  0  0  0  0
   47.3053   18.5528   15.2621 O   0  0  0  0  0  0  0  0  0  0  0  0
   41.1945   14.7591    6.7010 O   0  0  0  0  0  0  0  0  0  0  0  0
   49.8764   16.0786   11.4285 H   0  0  0  0  0  0  0  0  0  0  0  0
   46.7951   16.0648   14.4052 H   0  0  0  0  0  0  0  0  0  0  0  0
   49.2689   19.5608   13.8972 H   0  0  0  0  0  0  0  0  0  0  0  0
   50.5084   18.4014   12.0722 H   0  0  0  0  0  0  0  0  0  0  0  0
   42.5732   14.1062    8.8960 H   0  0  0  0  0  0  0  0  0  0  0  0
   41.8993   13.2249    4.7340 H   0  0  0  0  0  0  0  0  0  0  0  0
   43.5994   11.4060    4.8538 H   0  0  0  0  0  0  0  0  0  0  0  0
   44.7845   10.9593    6.9851 H   0  0  0  0  0  0  0  0  0  0  0  0
   50.1424   14.3513   14.1377 H   0  0  0  0  0  0  0  0  0  0  0  0
   48.7975   13.9497   15.2400 H   0  0  0  0  0  0  0  0  0  0  0  0
   50.0690   12.0543   15.5502 H   0  0  0  0  0  0  0  0  0  0  0  0
   50.8297   12.1502   13.9394 H   0  0  0  0  0  0  0  0  0  0  0  0
   46.3213   12.3621   11.7191 H   0  0  0  0  0  0  0  0  0  0  0  0
   45.2572   14.9648    8.5454 H   0  0  0  0  0  0  0  0  0  0  0  0
   47.0150   16.2060   10.1742 H   0  0  0  0  0  0  0  0  0  0  0  0
   45.9692   10.2704   11.0360 H   0  0  0  0  0  0  0  0  0  0  0  0
   42.2622    8.3041   10.9406 H   0  0  0  0  0  0  0  0  0  0  0  0
   41.9881   10.6775    9.6474 H   0  0  0  0  0  0  0  0  0  0  0  0
   48.6523    7.2307   14.6051 H   0  0  0  0  0  0  0  0  0  0  0  0
   46.7028    6.0281   13.4468 H   0  0  0  0  0  0  0  0  0  0  0  0
   48.5360    9.7300   16.7758 H   0  0  0  0  0  0  0  0  0  0  0  0
   52.4785    8.1732   17.5828 H   0  0  0  0  0  0  0  0  0  0  0  0
   53.0110    8.3091   15.1502 H   0  0  0  0  0  0  0  0  0  0  0  0
   51.2932    9.1711   13.5553 H   0  0  0  0  0  0  0  0  0  0  0  0
   45.0597    6.0756    9.7897 H   0  0  0  0  0  0  0  0  0  0  0  0
   42.8722    2.8543   11.6521 H   0  0  0  0  0  0  0  0  0  0  0  0
   42.7232    4.1717   13.7434 H   0  0  0  0  0  0  0  0  0  0  0  0
   43.7349    6.4375   13.8631 H   0  0  0  0  0  0  0  0  0  0  0  0
   43.6878    2.8154    9.5605 H   0  0  0  0  0  0  0  0  0  0  0  0
   49.2926    9.1300   18.7740 H   0  0  0  0  0  0  0  0  0  0  0  0
   46.6394   17.9340   15.6050 H   0  0  0  0  0  0  0  0  0  0  0  0
   41.1379   15.1864    7.5725 H   0  0  0  0  0  0  0  0  0  0  0  0
 25 26  2  0
 26 27  1  0
 27 23  1  0
 28 29  1  0
  1  2  2  0
  3  4  2  0
  7  8  2  0
 14 15  1  0
 29 30  1  0
 30 31  2  0
 31 32  1  0
 32 28  2  0
 15 16  1  0
 29 33  2  0
 17 33  1  0
 16 17  1  0
 14 34  2  0
 22 34  1  0
 17 13  2  0
 27 35  2  0
 19 35  1  0
 18 19  1  0
 24 36  2  0
 32 36  1  0
  8  9  1  0
  4  5  1  0
 37 38  2  0
  9 10  2  0
 38 39  1  0
  2  3  1  0
 39 40  2  0
 10 11  1  0
 40 41  1  0
 19 20  2  0
 41 42  2  0
 42 37  1  0
 33 37  1  0
 20 21  1  0
 21 22  2  0
 43 44  2  0
 22 18  1  0
 44 45  1  0
 23 24  1  0
 45 46  2  0
  5  6  2  0
 46 47  1  0
 11 12  2  0
 47 48  2  0
 48 43  1  0
 36 43  1  0
 12  7  1  0
 45 49  1  0
 13 14  1  0
 39 50  1  0
 35 12  1  0
 34  2  1  0
  6  1  1  0
  4 51  1  0
 24 25  1  0
  8 52  1  0
  1 53  1  0
  3 54  1  0
  5 55  1  0
  6 56  1  0
  7 57  1  0
  9 58  1  0
 10 59  1  0
 11 60  1  0
 15 61  1  0
 15 62  1  0
 16 63  1  0
 16 64  1  0
 18 65  1  0
 20 66  1  0
 21 67  1  0
 23 68  1  0
 25 69  1  0
 26 70  1  0
 30 71  1  0
 31 72  1  0
 38 73  1  0
 40 74  1  0
 41 75  1  0
 42 76  1  0
 44 77  1  0
 46 78  1  0
 47 79  1  0
 48 80  1  0
 49 81  1  0
 50 82  1  0
 51 83  1  0
 52 84  1  0
M  END
> <Uni-Dock RESULT> 
ENERGY=   -5.240  LOWER_BOUND=    1.820  UPPER_BOUND=    7.977
INTER + INTRA:          -5.240
INTER:                  -5.240
INTRA:                   0.000
UNBOUND:                 0.000

$$$$
