
     RDKit          3D

 84 92  0  0  0  0  0  0  0  0999 V2000
   47.8604   16.2371   14.5178 C   0  0  0  0  0  0  0  0  0  0  0  0
   48.3847   15.5473   13.4158 C   0  0  0  0  0  0  0  0  0  0  0  0
   49.3577   16.1605   12.6180 C   0  0  0  0  0  0  0  0  0  0  0  0
   49.7952   17.4445   12.9305 C   0  0  0  0  0  0  0  0  0  0  0  0
   49.2728   18.1341   14.0244 C   0  0  0  0  0  0  0  0  0  0  0  0
   48.2998   17.5275   14.8189 C   0  0  0  0  0  0  0  0  0  0  0  0
   48.1630    9.8293   17.3571 C   0  0  0  0  0  0  0  0  0  0  0  0
   48.3615    9.6525   18.7248 C   0  0  0  0  0  0  0  0  0  0  0  0
   49.4669    8.9564   19.2040 C   0  0  0  0  0  0  0  0  0  0  0  0
   50.3913    8.4232   18.3026 C   0  0  0  0  0  0  0  0  0  0  0  0
   50.2053    8.5967   16.9288 C   0  0  0  0  0  0  0  0  0  0  0  0
   49.0903    9.2982   16.4532 C   0  0  0  0  0  0  0  0  0  0  0  0
   46.1094   12.7336   12.2635 N   0  0  0  0  0  0  0  0  0  0  0  0
   46.7118   13.9286   12.5306 C   0  0  0  0  0  0  0  0  0  0  0  0
   45.8094   15.0461   12.0895 C   0  0  0  0  0  0  0  0  0  0  0  0
   44.8096   14.3513   11.2013 C   0  0  0  0  0  0  0  0  0  0  0  0
   44.9661   12.8743   11.5298 C   0  0  0  0  0  0  0  0  0  0  0  0
   48.2209   11.7039   13.8067 N   0  0  0  0  0  0  0  0  0  0  0  0
   49.1526   10.8883   14.3862 C   0  0  0  0  0  0  0  0  0  0  0  0
   50.3472   11.5784   14.4315 C   0  0  0  0  0  0  0  0  0  0  0  0
   50.1034   12.8893   13.9390 C   0  0  0  0  0  0  0  0  0  0  0  0
   48.7680   12.9473   13.6159 C   0  0  0  0  0  0  0  0  0  0  0  0
   47.0525    8.6222   13.3507 N   0  0  0  0  0  0  0  0  0  0  0  0
   46.4993    7.4182   12.9890 C   0  0  0  0  0  0  0  0  0  0  0  0
   47.2538    6.4098   13.5393 C   0  0  0  0  0  0  0  0  0  0  0  0
   48.2748    7.0305   14.3065 C   0  0  0  0  0  0  0  0  0  0  0  0
   48.1020    8.3957   14.1990 C   0  0  0  0  0  0  0  0  0  0  0  0
   44.9658    9.7590   11.8621 N   0  0  0  0  0  0  0  0  0  0  0  0
   44.0961   10.6003   11.2145 C   0  0  0  0  0  0  0  0  0  0  0  0
   43.0868    9.7212   10.6239 C   0  0  0  0  0  0  0  0  0  0  0  0
   43.3861    8.4574   10.9015 C   0  0  0  0  0  0  0  0  0  0  0  0
   44.5981    8.4501   11.6846 C   0  0  0  0  0  0  0  0  0  0  0  0
   44.0529   11.9640   11.0500 C   0  0  0  0  0  0  0  0  0  0  0  0
   47.9154   14.1786   13.1189 C   0  0  0  0  0  0  0  0  0  0  0  0
   48.8898    9.4791   15.0006 C   0  0  0  0  0  0  0  0  0  0  0  0
   45.1867    7.3036   12.1169 C   0  0  0  0  0  0  0  0  0  0  0  0
   42.9326   12.5145   10.2286 C   0  0  0  0  0  0  0  0  0  0  0  0
   43.1069   12.7026    8.8501 C   0  0  0  0  0  0  0  0  0  0  0  0
   42.0609   13.2026    8.0812 C   0  0  0  0  0  0  0  0  0  0  0  0
   40.8376   13.5206    8.6572 C   0  0  0  0  0  0  0  0  0  0  0  0
   40.6528   13.3337   10.0271 C   0  0  0  0  0  0  0  0  0  0  0  0
   41.6976   12.8335   10.8087 C   0  0  0  0  0  0  0  0  0  0  0  0
   44.6428    5.9649   11.8197 C   0  0  0  0  0  0  0  0  0  0  0  0
   44.9682    5.3247   10.6202 C   0  0  0  0  0  0  0  0  0  0  0  0
   44.4449    4.0622   10.3513 C   0  0  0  0  0  0  0  0  0  0  0  0
   43.6077    3.4249   11.2620 C   0  0  0  0  0  0  0  0  0  0  0  0
   43.2816    4.0621   12.4603 C   0  0  0  0  0  0  0  0  0  0  0  0
   43.7977    5.3295   12.7375 C   0  0  0  0  0  0  0  0  0  0  0  0
   44.7368    3.4166    9.1818 O   0  0  0  0  0  0  0  0  0  0  0  0
   42.2099   13.3898    6.7338 O   0  0  0  0  0  0  0  0  0  0  0  0
   50.7549   18.0136   12.1422 O   0  0  0  0  0  0  0  0  0  0  0  0
   47.4741   10.1533   19.6342 O   0  0  0  0  0  0  0  0  0  0  0  0
   47.1012   15.7523   15.1290 H   0  0  0  0  0  0  0  0  0  0  0  0
   49.7607   15.6285   11.7608 H   0  0  0  0  0  0  0  0  0  0  0  0
   49.6084   19.1345   14.2735 H   0  0  0  0  0  0  0  0  0  0  0  0
   47.8767   18.0512   15.6712 H   0  0  0  0  0  0  0  0  0  0  0  0
   47.3024   10.3749   16.9690 H   0  0  0  0  0  0  0  0  0  0  0  0
   49.6067    8.8285   20.2734 H   0  0  0  0  0  0  0  0  0  0  0  0
   51.2547    7.8730   18.6644 H   0  0  0  0  0  0  0  0  0  0  0  0
   50.9255    8.1842   16.2228 H   0  0  0  0  0  0  0  0  0  0  0  0
   45.3021   15.4918   12.9548 H   0  0  0  0  0  0  0  0  0  0  0  0
   46.3281   15.8379   11.5383 H   0  0  0  0  0  0  0  0  0  0  0  0
   43.8069   14.7446   11.4046 H   0  0  0  0  0  0  0  0  0  0  0  0
   45.0632   14.5364   10.1509 H   0  0  0  0  0  0  0  0  0  0  0  0
   47.2544   11.5085   13.5432 H   0  0  0  0  0  0  0  0  0  0  0  0
   51.2808   11.2027   14.8188 H   0  0  0  0  0  0  0  0  0  0  0  0
   50.8104   13.7018   13.8689 H   0  0  0  0  0  0  0  0  0  0  0  0
   46.6479    9.5062   13.0376 H   0  0  0  0  0  0  0  0  0  0  0  0
   47.0731    5.3521   13.4313 H   0  0  0  0  0  0  0  0  0  0  0  0
   49.0162    6.5299   14.9114 H   0  0  0  0  0  0  0  0  0  0  0  0
   42.2332   10.0294   10.0471 H   0  0  0  0  0  0  0  0  0  0  0  0
   42.8197    7.5981   10.5904 H   0  0  0  0  0  0  0  0  0  0  0  0
   44.0731   12.4454    8.4247 H   0  0  0  0  0  0  0  0  0  0  0  0
   40.0321   13.9056    8.0457 H   0  0  0  0  0  0  0  0  0  0  0  0
   39.6997   13.5689   10.4875 H   0  0  0  0  0  0  0  0  0  0  0  0
   41.5674   12.6739   11.8759 H   0  0  0  0  0  0  0  0  0  0  0  0
   45.6236    5.8388    9.9227 H   0  0  0  0  0  0  0  0  0  0  0  0
   43.2042    2.4433   11.0381 H   0  0  0  0  0  0  0  0  0  0  0  0
   42.6251    3.5802   13.1785 H   0  0  0  0  0  0  0  0  0  0  0  0
   43.5455    5.8399   13.6661 H   0  0  0  0  0  0  0  0  0  0  0  0
   45.2631    4.0389    8.6479 H   0  0  0  0  0  0  0  0  0  0  0  0
   43.0991   13.0555    6.5167 H   0  0  0  0  0  0  0  0  0  0  0  0
   50.8971   18.9174   12.4620 H   0  0  0  0  0  0  0  0  0  0  0  0
   46.7466   10.5500   19.1216 H   0  0  0  0  0  0  0  0  0  0  0  0
 25 26  2  0
 26 27  1  0
 27 23  1  0
 28 29  1  0
  1  2  2  0
  3  4  2  0
  7  8  2  0
 14 15  1  0
 29 30  1  0
 30 31  2  0
 31 32  1  0
 32 28  2  0
 15 16  1  0
 29 33  2  0
 17 33  1  0
 16 17  1  0
 14 34  2  0
 22 34  1  0
 17 13  2  0
 27 35  2  0
 19 35  1  0
 18 19  1  0
 24 36  2  0
 32 36  1  0
  8  9  1  0
  4  5  1  0
 37 38  2  0
  9 10  2  0
 38 39  1  0
  2  3  1  0
 39 40  2  0
 10 11  1  0
 40 41  1  0
 19 20  2  0
 41 42  2  0
 42 37  1  0
 33 37  1  0
 20 21  1  0
 21 22  2  0
 43 44  2  0
 22 18  1  0
 44 45  1  0
 23 24  1  0
 45 46  2  0
  5  6  2  0
 46 47  1  0
 11 12  2  0
 47 48  2  0
 48 43  1  0
 36 43  1  0
 12  7  1  0
 45 49  1  0
 13 14  1  0
 39 50  1  0
 35 12  1  0
 34  2  1  0
  6  1  1  0
  4 51  1  0
 24 25  1  0
  8 52  1  0
  1 53  1  0
  3 54  1  0
  5 55  1  0
  6 56  1  0
  7 57  1  0
  9 58  1  0
 10 59  1  0
 11 60  1  0
 15 61  1  0
 15 62  1  0
 16 63  1  0
 16 64  1  0
 18 65  1  0
 20 66  1  0
 21 67  1  0
 23 68  1  0
 25 69  1  0
 26 70  1  0
 30 71  1  0
 31 72  1  0
 38 73  1  0
 40 74  1  0
 41 75  1  0
 42 76  1  0
 44 77  1  0
 46 78  1  0
 47 79  1  0
 48 80  1  0
 49 81  1  0
 50 82  1  0
 51 83  1  0
 52 84  1  0
M  END
> <Uni-Dock RESULT> 
ENERGY=   -6.332  LOWER_BOUND=    0.000  UPPER_BOUND=    0.000
INTER + INTRA:          -6.332
INTER:                  -6.332
INTRA:                   0.000
UNBOUND:                 0.000

$$$$

     RDKit          3D

 84 92  0  0  0  0  0  0  0  0999 V2000
   48.7606   15.9160   15.5039 C   0  0  0  0  0  0  0  0  0  0  0  0
   49.2946   15.2610   14.3855 C   0  0  0  0  0  0  0  0  0  0  0  0
   50.3787   15.8289   13.7065 C   0  0  0  0  0  0  0  0  0  0  0  0
   50.9154   17.0338   14.1517 C   0  0  0  0  0  0  0  0  0  0  0  0
   50.3838   17.6891   15.2621 C   0  0  0  0  0  0  0  0  0  0  0  0
   49.3005   17.1279   15.9385 C   0  0  0  0  0  0  0  0  0  0  0  0
   48.2270    9.3154   17.8191 C   0  0  0  0  0  0  0  0  0  0  0  0
   48.3062    9.0165   19.1777 C   0  0  0  0  0  0  0  0  0  0  0  0
   49.3002    8.1759   19.6692 C   0  0  0  0  0  0  0  0  0  0  0  0
   50.2319    7.6198   18.7895 C   0  0  0  0  0  0  0  0  0  0  0  0
   50.1651    7.9146   17.4254 C   0  0  0  0  0  0  0  0  0  0  0  0
   49.1619    8.7612   16.9372 C   0  0  0  0  0  0  0  0  0  0  0  0
   46.8464   12.7918   12.8587 N   0  0  0  0  0  0  0  0  0  0  0  0
   47.5413   13.8948   13.2622 C   0  0  0  0  0  0  0  0  0  0  0  0
   46.7871   15.1294   12.8567 C   0  0  0  0  0  0  0  0  0  0  0  0
   45.7923   14.6104   11.8506 C   0  0  0  0  0  0  0  0  0  0  0  0
   45.7793   13.1046   12.0658 C   0  0  0  0  0  0  0  0  0  0  0  0
   48.7282   11.4365   14.4468 N   0  0  0  0  0  0  0  0  0  0  0  0
   49.5307   10.4878   15.0169 C   0  0  0  0  0  0  0  0  0  0  0  0
   50.7804   11.0456   15.1970 C   0  0  0  0  0  0  0  0  0  0  0  0
   50.7025   12.4080   14.7993 C   0  0  0  0  0  0  0  0  0  0  0  0
   49.4066   12.6276   14.3954 C   0  0  0  0  0  0  0  0  0  0  0  0
   47.3013    8.5349   13.6627 N   0  0  0  0  0  0  0  0  0  0  0  0
   46.6613    7.4251   13.1676 C   0  0  0  0  0  0  0  0  0  0  0  0
   47.2713    6.3056   13.6811 C   0  0  0  0  0  0  0  0  0  0  0  0
   48.2889    6.7581   14.5621 C   0  0  0  0  0  0  0  0  0  0  0  0
   48.2585    8.1380   14.5564 C   0  0  0  0  0  0  0  0  0  0  0  0
   45.4505    9.9898   12.1395 N   0  0  0  0  0  0  0  0  0  0  0  0
   44.7170   10.9627   11.5078 C   0  0  0  0  0  0  0  0  0  0  0  0
   43.6728   10.2394   10.7819 C   0  0  0  0  0  0  0  0  0  0  0  0
   43.8262    8.9342   10.9734 C   0  0  0  0  0  0  0  0  0  0  0  0
   44.9709    8.7429   11.8310 C   0  0  0  0  0  0  0  0  0  0  0  0
   44.8193   12.3321   11.4538 C   0  0  0  0  0  0  0  0  0  0  0  0
   48.7170   13.9742   13.9467 C   0  0  0  0  0  0  0  0  0  0  0  0
   49.0873    9.0708   15.4944 C   0  0  0  0  0  0  0  0  0  0  0  0
   45.4114    7.5125   12.2049 C   0  0  0  0  0  0  0  0  0  0  0  0
   43.8214   13.0555   10.6089 C   0  0  0  0  0  0  0  0  0  0  0  0
   44.1141   13.3280    9.2651 C   0  0  0  0  0  0  0  0  0  0  0  0
   43.1812   13.9898    8.4731 C   0  0  0  0  0  0  0  0  0  0  0  0
   41.9558   14.3878    8.9920 C   0  0  0  0  0  0  0  0  0  0  0  0
   41.6535   14.1183   10.3268 C   0  0  0  0  0  0  0  0  0  0  0  0
   42.5843   13.4555   11.1313 C   0  0  0  0  0  0  0  0  0  0  0  0
   44.7628    6.2632   11.7633 C   0  0  0  0  0  0  0  0  0  0  0  0
   45.1114    5.6852   10.5391 C   0  0  0  0  0  0  0  0  0  0  0  0
   44.4885    4.5073   10.1334 C   0  0  0  0  0  0  0  0  0  0  0  0
   43.5285    3.8928   10.9316 C   0  0  0  0  0  0  0  0  0  0  0  0
   43.1790    4.4680   12.1544 C   0  0  0  0  0  0  0  0  0  0  0  0
   43.7946    5.6509   12.5684 C   0  0  0  0  0  0  0  0  0  0  0  0
   44.8012    3.9251    8.9363 O   0  0  0  0  0  0  0  0  0  0  0  0
   43.4464   14.2618    7.1584 O   0  0  0  0  0  0  0  0  0  0  0  0
   51.9813   17.5587   13.4776 O   0  0  0  0  0  0  0  0  0  0  0  0
   47.4076    9.5360   20.0651 O   0  0  0  0  0  0  0  0  0  0  0  0
   47.9148   15.4674   16.0221 H   0  0  0  0  0  0  0  0  0  0  0  0
   50.7898   15.3244   12.8365 H   0  0  0  0  0  0  0  0  0  0  0  0
   50.7962   18.6279   15.6143 H   0  0  0  0  0  0  0  0  0  0  0  0
   48.8691   17.6266   16.8015 H   0  0  0  0  0  0  0  0  0  0  0  0
   47.4546    9.9745   17.4217 H   0  0  0  0  0  0  0  0  0  0  0  0
   49.3479    7.9540   20.7313 H   0  0  0  0  0  0  0  0  0  0  0  0
   51.0085    6.9578   19.1604 H   0  0  0  0  0  0  0  0  0  0  0  0
   50.8916    7.4845   16.7364 H   0  0  0  0  0  0  0  0  0  0  0  0
   46.2635   15.5585   13.7206 H   0  0  0  0  0  0  0  0  0  0  0  0
   47.4197   15.9028   12.4077 H   0  0  0  0  0  0  0  0  0  0  0  0
   44.8205   15.0885   12.0195 H   0  0  0  0  0  0  0  0  0  0  0  0
   46.1391   14.8471   10.8379 H   0  0  0  0  0  0  0  0  0  0  0  0
   47.7692   11.3622   14.1053 H   0  0  0  0  0  0  0  0  0  0  0  0
   51.6419   10.5475   15.6124 H   0  0  0  0  0  0  0  0  0  0  0  0
   51.4888   13.1463   14.8429 H   0  0  0  0  0  0  0  0  0  0  0  0
   47.0090    9.4770   13.3978 H   0  0  0  0  0  0  0  0  0  0  0  0
   46.9967    5.2834   13.4747 H   0  0  0  0  0  0  0  0  0  0  0  0
   48.9314    6.1395   15.1710 H   0  0  0  0  0  0  0  0  0  0  0  0
   42.8981   10.6765   10.1778 H   0  0  0  0  0  0  0  0  0  0  0  0
   43.2030    8.1637   10.5562 H   0  0  0  0  0  0  0  0  0  0  0  0
   45.0792   13.0054    8.8841 H   0  0  0  0  0  0  0  0  0  0  0  0
   41.2388   14.8989    8.3629 H   0  0  0  0  0  0  0  0  0  0  0  0
   40.6966   14.4151   10.7415 H   0  0  0  0  0  0  0  0  0  0  0  0
   42.3611   13.2302   12.1708 H   0  0  0  0  0  0  0  0  0  0  0  0
   45.8633    6.1801    9.9308 H   0  0  0  0  0  0  0  0  0  0  0  0
   43.0487    2.9778   10.6016 H   0  0  0  0  0  0  0  0  0  0  0  0
   42.4276    4.0037   12.7859 H   0  0  0  0  0  0  0  0  0  0  0  0
   43.5259    6.1132   13.5174 H   0  0  0  0  0  0  0  0  0  0  0  0
   45.4234    4.5283    8.4911 H   0  0  0  0  0  0  0  0  0  0  0  0
   44.3122   13.8549    6.9732 H   0  0  0  0  0  0  0  0  0  0  0  0
   52.1872   18.4163   13.8794 H   0  0  0  0  0  0  0  0  0  0  0  0
   46.7619   10.0432   19.5404 H   0  0  0  0  0  0  0  0  0  0  0  0
 25 26  2  0
 26 27  1  0
 27 23  1  0
 28 29  1  0
  1  2  2  0
  3  4  2  0
  7  8  2  0
 14 15  1  0
 29 30  1  0
 30 31  2  0
 31 32  1  0
 32 28  2  0
 15 16  1  0
 29 33  2  0
 17 33  1  0
 16 17  1  0
 14 34  2  0
 22 34  1  0
 17 13  2  0
 27 35  2  0
 19 35  1  0
 18 19  1  0
 24 36  2  0
 32 36  1  0
  8  9  1  0
  4  5  1  0
 37 38  2  0
  9 10  2  0
 38 39  1  0
  2  3  1  0
 39 40  2  0
 10 11  1  0
 40 41  1  0
 19 20  2  0
 41 42  2  0
 42 37  1  0
 33 37  1  0
 20 21  1  0
 21 22  2  0
 43 44  2  0
 22 18  1  0
 44 45  1  0
 23 24  1  0
 45 46  2  0
  5  6  2  0
 46 47  1  0
 11 12  2  0
 47 48  2  0
 48 43  1  0
 36 43  1  0
 12  7  1  0
 45 49  1  0
 13 14  1  0
 39 50  1  0
 35 12  1  0
 34  2  1  0
  6  1  1  0
  4 51  1  0
 24 25  1  0
  8 52  1  0
  1 53  1  0
  3 54  1  0
  5 55  1  0
  6 56  1  0
  7 57  1  0
  9 58  1  0
 10 59  1  0
 11 60  1  0
 15 61  1  0
 15 62  1  0
 16 63  1  0
 16 64  1  0
 18 65  1  0
 20 66  1  0
 21 67  1  0
 23 68  1  0
 25 69  1  0
 26 70  1  0
 30 71  1  0
 31 72  1  0
 38 73  1  0
 40 74  1  0
 41 75  1  0
 42 76  1  0
 44 77  1  0
 46 78  1  0
 47 79  1  0
 48 80  1  0
 49 81  1  0
 50 82  1  0
 51 83  1  0
 52 84  1  0
M  END
> <Uni-Dock RESULT> 
ENERGY=   -6.252  LOWER_BOUND=    0.974  UPPER_BOUND=    1.012
INTER + INTRA:          -6.252
INTER:                  -6.252
INTRA:                   0.000
UNBOUND:                 0.000

$$$$

     RDKit          3D

 84 92  0  0  0  0  0  0  0  0999 V2000
   50.5222   15.9618   13.9670 C   0  0  0  0  0  0  0  0  0  0  0  0
   49.5453   15.4460   14.8300 C   0  0  0  0  0  0  0  0  0  0  0  0
   49.2162   16.1468   15.9960 C   0  0  0  0  0  0  0  0  0  0  0  0
   49.8591   17.3478   16.2822 C   0  0  0  0  0  0  0  0  0  0  0  0
   50.8336   17.8614   15.4269 C   0  0  0  0  0  0  0  0  0  0  0  0
   51.1672   17.1632   14.2662 C   0  0  0  0  0  0  0  0  0  0  0  0
   46.0751   13.4919    9.1364 C   0  0  0  0  0  0  0  0  0  0  0  0
   45.9636   14.0894    7.8826 C   0  0  0  0  0  0  0  0  0  0  0  0
   44.7541   14.6233    7.4487 C   0  0  0  0  0  0  0  0  0  0  0  0
   43.6328   14.5581    8.2791 C   0  0  0  0  0  0  0  0  0  0  0  0
   43.7326   13.9645    9.5399 C   0  0  0  0  0  0  0  0  0  0  0  0
   44.9529   13.4286    9.9704 C   0  0  0  0  0  0  0  0  0  0  0  0
   48.9994   11.7220   14.3242 N   0  0  0  0  0  0  0  0  0  0  0  0
   49.4594   12.9630   14.6565 C   0  0  0  0  0  0  0  0  0  0  0  0
   50.8314   12.8370   15.2560 C   0  0  0  0  0  0  0  0  0  0  0  0
   50.9338   11.3678   15.5760 C   0  0  0  0  0  0  0  0  0  0  0  0
   49.8122   10.7221   14.7765 C   0  0  0  0  0  0  0  0  0  0  0  0
   46.9720   13.1836   13.0380 N   0  0  0  0  0  0  0  0  0  0  0  0
   45.8096   13.5689   12.4303 C   0  0  0  0  0  0  0  0  0  0  0  0
   45.4747   14.8176   12.9141 C   0  0  0  0  0  0  0  0  0  0  0  0
   46.5208   15.2355   13.7810 C   0  0  0  0  0  0  0  0  0  0  0  0
   47.4540   14.2256   13.7887 C   0  0  0  0  0  0  0  0  0  0  0  0
   45.5438   10.3425   12.0588 N   0  0  0  0  0  0  0  0  0  0  0  0
   45.0327    9.0903   11.8199 C   0  0  0  0  0  0  0  0  0  0  0  0
   43.8531    9.2267   11.1278 C   0  0  0  0  0  0  0  0  0  0  0  0
   43.6699   10.6153   10.8948 C   0  0  0  0  0  0  0  0  0  0  0  0
   44.7479   11.2745   11.4503 C   0  0  0  0  0  0  0  0  0  0  0  0
   47.6361    8.9851   13.3403 N   0  0  0  0  0  0  0  0  0  0  0  0
   48.7662    8.6292   14.0331 C   0  0  0  0  0  0  0  0  0  0  0  0
   48.7773    7.1663   14.0150 C   0  0  0  0  0  0  0  0  0  0  0  0
   47.7023    6.7252   13.3719 C   0  0  0  0  0  0  0  0  0  0  0  0
   46.9419    7.8728   12.9392 C   0  0  0  0  0  0  0  0  0  0  0  0
   49.7467    9.3521   14.6690 C   0  0  0  0  0  0  0  0  0  0  0  0
   48.8660   14.1787   14.4916 C   0  0  0  0  0  0  0  0  0  0  0  0
   45.0592   12.7969   11.3018 C   0  0  0  0  0  0  0  0  0  0  0  0
   45.7664    7.7638   12.2653 C   0  0  0  0  0  0  0  0  0  0  0  0
   50.8251    8.5780   15.3553 C   0  0  0  0  0  0  0  0  0  0  0  0
   50.6843    8.2370   16.7080 C   0  0  0  0  0  0  0  0  0  0  0  0
   51.6810    7.5051   17.3455 C   0  0  0  0  0  0  0  0  0  0  0  0
   52.8209    7.1019   16.6620 C   0  0  0  0  0  0  0  0  0  0  0  0
   52.9689    7.4329   15.3151 C   0  0  0  0  0  0  0  0  0  0  0  0
   51.9744    8.1692   14.6658 C   0  0  0  0  0  0  0  0  0  0  0  0
   45.1602    6.4636   11.9212 C   0  0  0  0  0  0  0  0  0  0  0  0
   44.3459    5.8016   12.8448 C   0  0  0  0  0  0  0  0  0  0  0  0
   43.7828    4.5730   12.5075 C   0  0  0  0  0  0  0  0  0  0  0  0
   44.0130    3.9973   11.2618 C   0  0  0  0  0  0  0  0  0  0  0  0
   44.8255    4.6566   10.3380 C   0  0  0  0  0  0  0  0  0  0  0  0
   45.3981    5.8866   10.6679 C   0  0  0  0  0  0  0  0  0  0  0  0
   42.9912    3.8974   13.3944 O   0  0  0  0  0  0  0  0  0  0  0  0
   51.5606    7.1592   18.6640 O   0  0  0  0  0  0  0  0  0  0  0  0
   49.5089   18.0170   17.4205 O   0  0  0  0  0  0  0  0  0  0  0  0
   47.0371   14.1638    7.0417 O   0  0  0  0  0  0  0  0  0  0  0  0
   50.7734   15.4064   13.0650 H   0  0  0  0  0  0  0  0  0  0  0  0
   48.4628   15.7450   16.6679 H   0  0  0  0  0  0  0  0  0  0  0  0
   51.3389   18.7959   15.6436 H   0  0  0  0  0  0  0  0  0  0  0  0
   51.9280   17.5442   13.5912 H   0  0  0  0  0  0  0  0  0  0  0  0
   47.0176   13.0721    9.4890 H   0  0  0  0  0  0  0  0  0  0  0  0
   44.6850   15.0863    6.4687 H   0  0  0  0  0  0  0  0  0  0  0  0
   42.6821   14.9660    7.9492 H   0  0  0  0  0  0  0  0  0  0  0  0
   42.8606   13.9138   10.1914 H   0  0  0  0  0  0  0  0  0  0  0  0
   51.5967   13.1190   14.5216 H   0  0  0  0  0  0  0  0  0  0  0  0
   50.9722   13.4380   16.1608 H   0  0  0  0  0  0  0  0  0  0  0  0
   51.9326   11.0053   15.3068 H   0  0  0  0  0  0  0  0  0  0  0  0
   50.7723   11.2154   16.6495 H   0  0  0  0  0  0  0  0  0  0  0  0
   47.4756   12.2974   12.9838 H   0  0  0  0  0  0  0  0  0  0  0  0
   44.6021   15.3890   12.6407 H   0  0  0  0  0  0  0  0  0  0  0  0
   46.5989   16.1776   14.3021 H   0  0  0  0  0  0  0  0  0  0  0  0
   46.4183   10.4686   12.5714 H   0  0  0  0  0  0  0  0  0  0  0  0
   43.2152    8.4219   10.7982 H   0  0  0  0  0  0  0  0  0  0  0  0
   42.8663   11.0711   10.3356 H   0  0  0  0  0  0  0  0  0  0  0  0
   49.5253    6.5300   14.4530 H   0  0  0  0  0  0  0  0  0  0  0  0
   47.4508    5.6925   13.2099 H   0  0  0  0  0  0  0  0  0  0  0  0
   49.7829    8.5642   17.2189 H   0  0  0  0  0  0  0  0  0  0  0  0
   53.5863    6.5301   17.1703 H   0  0  0  0  0  0  0  0  0  0  0  0
   53.8495    7.1160   14.7675 H   0  0  0  0  0  0  0  0  0  0  0  0
   52.0701    8.4280   13.6146 H   0  0  0  0  0  0  0  0  0  0  0  0
   44.1782    6.2679   13.8116 H   0  0  0  0  0  0  0  0  0  0  0  0
   43.5711    3.0383   11.0137 H   0  0  0  0  0  0  0  0  0  0  0  0
   45.0192    4.2175    9.3640 H   0  0  0  0  0  0  0  0  0  0  0  0
   46.0392    6.4079    9.9582 H   0  0  0  0  0  0  0  0  0  0  0  0
   43.0083    4.4087   14.2236 H   0  0  0  0  0  0  0  0  0  0  0  0
   50.6811    7.4741   18.9412 H   0  0  0  0  0  0  0  0  0  0  0  0
   50.0877   18.7908   17.4940 H   0  0  0  0  0  0  0  0  0  0  0  0
   47.7675   13.6934    7.4828 H   0  0  0  0  0  0  0  0  0  0  0  0
 25 26  2  0
 26 27  1  0
 27 23  1  0
 28 29  1  0
  1  2  2  0
  3  4  2  0
  7  8  2  0
 14 15  1  0
 29 30  1  0
 30 31  2  0
 31 32  1  0
 32 28  2  0
 15 16  1  0
 29 33  2  0
 17 33  1  0
 16 17  1  0
 14 34  2  0
 22 34  1  0
 17 13  2  0
 27 35  2  0
 19 35  1  0
 18 19  1  0
 24 36  2  0
 32 36  1  0
  8  9  1  0
  4  5  1  0
 37 38  2  0
  9 10  2  0
 38 39  1  0
  2  3  1  0
 39 40  2  0
 10 11  1  0
 40 41  1  0
 19 20  2  0
 41 42  2  0
 42 37  1  0
 33 37  1  0
 20 21  1  0
 21 22  2  0
 43 44  2  0
 22 18  1  0
 44 45  1  0
 23 24  1  0
 45 46  2  0
  5  6  2  0
 46 47  1  0
 11 12  2  0
 47 48  2  0
 48 43  1  0
 36 43  1  0
 12  7  1  0
 45 49  1  0
 13 14  1  0
 39 50  1  0
 35 12  1  0
 34  2  1  0
  6  1  1  0
  4 51  1  0
 24 25  1  0
  8 52  1  0
  1 53  1  0
  3 54  1  0
  5 55  1  0
  6 56  1  0
  7 57  1  0
  9 58  1  0
 10 59  1  0
 11 60  1  0
 15 61  1  0
 15 62  1  0
 16 63  1  0
 16 64  1  0
 18 65  1  0
 20 66  1  0
 21 67  1  0
 23 68  1  0
 25 69  1  0
 26 70  1  0
 30 71  1  0
 31 72  1  0
 38 73  1  0
 40 74  1  0
 41 75  1  0
 42 76  1  0
 44 77  1  0
 46 78  1  0
 47 79  1  0
 48 80  1  0
 49 81  1  0
 50 82  1  0
 51 83  1  0
 52 84  1  0
M  END
> <Uni-Dock RESULT> 
ENERGY=   -6.071  LOWER_BOUND=    2.063  UPPER_BOUND=    7.626
INTER + INTRA:          -6.071
INTER:                  -6.071
INTRA:                   0.000
UNBOUND:                 0.000

$$$$

     RDKit          3D

 84 92  0  0  0  0  0  0  0  0999 V2000
   50.3944   16.0380   13.7778 C   0  0  0  0  0  0  0  0  0  0  0  0
   49.4425   15.5135   14.6631 C   0  0  0  0  0  0  0  0  0  0  0  0
   49.1264   16.2167   15.8313 C   0  0  0  0  0  0  0  0  0  0  0  0
   49.7575   17.4286   16.0976 C   0  0  0  0  0  0  0  0  0  0  0  0
   50.7073   17.9508   15.2201 C   0  0  0  0  0  0  0  0  0  0  0  0
   51.0278   17.2503   14.0571 C   0  0  0  0  0  0  0  0  0  0  0  0
   45.8885   13.4750    9.0514 C   0  0  0  0  0  0  0  0  0  0  0  0
   45.7435   14.0632    7.7966 C   0  0  0  0  0  0  0  0  0  0  0  0
   44.5181   14.5770    7.3838 C   0  0  0  0  0  0  0  0  0  0  0  0
   43.4145   14.5008    8.2367 C   0  0  0  0  0  0  0  0  0  0  0  0
   43.5478   13.9165    9.4988 C   0  0  0  0  0  0  0  0  0  0  0  0
   44.7841   13.4008    9.9080 C   0  0  0  0  0  0  0  0  0  0  0  0
   48.9404   11.7791   14.1901 N   0  0  0  0  0  0  0  0  0  0  0  0
   49.3890   13.0286   14.5059 C   0  0  0  0  0  0  0  0  0  0  0  0
   50.7743   12.9259   15.0787 C   0  0  0  0  0  0  0  0  0  0  0  0
   50.9042   11.4604   15.4052 C   0  0  0  0  0  0  0  0  0  0  0  0
   49.7764   10.7938   14.6320 C   0  0  0  0  0  0  0  0  0  0  0  0
   46.8670   13.2036   12.9361 N   0  0  0  0  0  0  0  0  0  0  0  0
   45.6873   13.5684   12.3495 C   0  0  0  0  0  0  0  0  0  0  0  0
   45.3441   14.8151   12.8325 C   0  0  0  0  0  0  0  0  0  0  0  0
   46.4010   15.2534   13.6759 C   0  0  0  0  0  0  0  0  0  0  0  0
   47.3487   14.2570   13.6709 C   0  0  0  0  0  0  0  0  0  0  0  0
   45.4609   10.3364   12.0022 N   0  0  0  0  0  0  0  0  0  0  0  0
   44.9632    9.0755   11.7808 C   0  0  0  0  0  0  0  0  0  0  0  0
   43.7683    9.1907   11.1116 C   0  0  0  0  0  0  0  0  0  0  0  0
   43.5605   10.5752   10.8743 C   0  0  0  0  0  0  0  0  0  0  0  0
   44.6397   11.2531   11.4042 C   0  0  0  0  0  0  0  0  0  0  0  0
   47.5975    9.0169   13.2497 N   0  0  0  0  0  0  0  0  0  0  0  0
   48.7462    8.6816   13.9218 C   0  0  0  0  0  0  0  0  0  0  0  0
   48.7781    7.2189   13.9121 C   0  0  0  0  0  0  0  0  0  0  0  0
   47.6970    6.7585   13.2932 C   0  0  0  0  0  0  0  0  0  0  0  0
   46.9117    7.8924   12.8691 C   0  0  0  0  0  0  0  0  0  0  0  0
   49.7286    9.4223   14.5339 C   0  0  0  0  0  0  0  0  0  0  0  0
   48.7749   14.2346   14.3458 C   0  0  0  0  0  0  0  0  0  0  0  0
   44.9259   12.7789   11.2406 C   0  0  0  0  0  0  0  0  0  0  0  0
   45.7247    7.7624   12.2194 C   0  0  0  0  0  0  0  0  0  0  0  0
   50.8314    8.6680   15.2031 C   0  0  0  0  0  0  0  0  0  0  0  0
   50.7225    8.3334   16.5602 C   0  0  0  0  0  0  0  0  0  0  0  0
   51.7421    7.6197   17.1820 C   0  0  0  0  0  0  0  0  0  0  0  0
   52.8740    7.2286   16.4783 C   0  0  0  0  0  0  0  0  0  0  0  0
   52.9904    7.5535   15.1268 C   0  0  0  0  0  0  0  0  0  0  0  0
   51.9726    8.2715   14.4932 C   0  0  0  0  0  0  0  0  0  0  0  0
   45.1307    6.4516   11.8950 C   0  0  0  0  0  0  0  0  0  0  0  0
   44.3446    5.7836   12.8385 C   0  0  0  0  0  0  0  0  0  0  0  0
   43.7926    4.5451   12.5197 C   0  0  0  0  0  0  0  0  0  0  0  0
   44.0063    3.9650   11.2731 C   0  0  0  0  0  0  0  0  0  0  0  0
   44.7907    4.6303   10.3294 C   0  0  0  0  0  0  0  0  0  0  0  0
   45.3519    5.8703   10.6406 C   0  0  0  0  0  0  0  0  0  0  0  0
   43.0287    3.8636   13.4262 O   0  0  0  0  0  0  0  0  0  0  0  0
   51.6530    7.2802   18.5047 O   0  0  0  0  0  0  0  0  0  0  0  0
   49.4203   18.0997   17.2388 O   0  0  0  0  0  0  0  0  0  0  0  0
   46.7989   14.1478    6.9340 O   0  0  0  0  0  0  0  0  0  0  0  0
   50.6356   15.4808   12.8743 H   0  0  0  0  0  0  0  0  0  0  0  0
   48.3924   15.8083   16.5204 H   0  0  0  0  0  0  0  0  0  0  0  0
   51.2032   18.8938   15.4211 H   0  0  0  0  0  0  0  0  0  0  0  0
   51.7695   17.6381   13.3648 H   0  0  0  0  0  0  0  0  0  0  0  0
   46.8437   13.0710    9.3876 H   0  0  0  0  0  0  0  0  0  0  0  0
   44.4228   15.0329    6.4027 H   0  0  0  0  0  0  0  0  0  0  0  0
   42.4517   14.8930    7.9235 H   0  0  0  0  0  0  0  0  0  0  0  0
   42.6898   13.8573   10.1678 H   0  0  0  0  0  0  0  0  0  0  0  0
   51.5207   13.2144   14.3275 H   0  0  0  0  0  0  0  0  0  0  0  0
   50.9243   13.5345   15.9770 H   0  0  0  0  0  0  0  0  0  0  0  0
   51.9026   11.1106   15.1183 H   0  0  0  0  0  0  0  0  0  0  0  0
   50.7663   11.3123   16.4826 H   0  0  0  0  0  0  0  0  0  0  0  0
   47.3821   12.3243   12.8770 H   0  0  0  0  0  0  0  0  0  0  0  0
   44.4581   15.3724   12.5732 H   0  0  0  0  0  0  0  0  0  0  0  0
   46.4759   16.1996   14.1898 H   0  0  0  0  0  0  0  0  0  0  0  0
   46.3434   10.4781   12.4965 H   0  0  0  0  0  0  0  0  0  0  0  0
   43.1357    8.3749   10.7996 H   0  0  0  0  0  0  0  0  0  0  0  0
   42.7394   11.0159   10.3285 H   0  0  0  0  0  0  0  0  0  0  0  0
   49.5437    6.5961   14.3389 H   0  0  0  0  0  0  0  0  0  0  0  0
   47.4573    5.7213   13.1422 H   0  0  0  0  0  0  0  0  0  0  0  0
   49.8268    8.6507   17.0871 H   0  0  0  0  0  0  0  0  0  0  0  0
   53.6574    6.6710   16.9746 H   0  0  0  0  0  0  0  0  0  0  0  0
   53.8645    7.2458   14.5637 H   0  0  0  0  0  0  0  0  0  0  0  0
   52.0437    8.5252   13.4388 H   0  0  0  0  0  0  0  0  0  0  0  0
   44.1893    6.2534   13.8057 H   0  0  0  0  0  0  0  0  0  0  0  0
   43.5735    2.9983   11.0395 H   0  0  0  0  0  0  0  0  0  0  0  0
   44.9714    4.1880    9.3543 H   0  0  0  0  0  0  0  0  0  0  0  0
   45.9713    6.3964    9.9152 H   0  0  0  0  0  0  0  0  0  0  0  0
   43.0548    4.3802   14.2518 H   0  0  0  0  0  0  0  0  0  0  0  0
   50.7747    7.5842   18.7975 H   0  0  0  0  0  0  0  0  0  0  0  0
   49.9892   18.8822   17.2961 H   0  0  0  0  0  0  0  0  0  0  0  0
   47.5446   13.6906    7.3632 H   0  0  0  0  0  0  0  0  0  0  0  0
 25 26  2  0
 26 27  1  0
 27 23  1  0
 28 29  1  0
  1  2  2  0
  3  4  2  0
  7  8  2  0
 14 15  1  0
 29 30  1  0
 30 31  2  0
 31 32  1  0
 32 28  2  0
 15 16  1  0
 29 33  2  0
 17 33  1  0
 16 17  1  0
 14 34  2  0
 22 34  1  0
 17 13  2  0
 27 35  2  0
 19 35  1  0
 18 19  1  0
 24 36  2  0
 32 36  1  0
  8  9  1  0
  4  5  1  0
 37 38  2  0
  9 10  2  0
 38 39  1  0
  2  3  1  0
 39 40  2  0
 10 11  1  0
 40 41  1  0
 19 20  2  0
 41 42  2  0
 42 37  1  0
 33 37  1  0
 20 21  1  0
 21 22  2  0
 43 44  2  0
 22 18  1  0
 44 45  1  0
 23 24  1  0
 45 46  2  0
  5  6  2  0
 46 47  1  0
 11 12  2  0
 47 48  2  0
 48 43  1  0
 36 43  1  0
 12  7  1  0
 45 49  1  0
 13 14  1  0
 39 50  1  0
 35 12  1  0
 34  2  1  0
  6  1  1  0
  4 51  1  0
 24 25  1  0
  8 52  1  0
  1 53  1  0
  3 54  1  0
  5 55  1  0
  6 56  1  0
  7 57  1  0
  9 58  1  0
 10 59  1  0
 11 60  1  0
 15 61  1  0
 15 62  1  0
 16 63  1  0
 16 64  1  0
 18 65  1  0
 20 66  1  0
 21 67  1  0
 23 68  1  0
 25 69  1  0
 26 70  1  0
 30 71  1  0
 31 72  1  0
 38 73  1  0
 40 74  1  0
 41 75  1  0
 42 76  1  0
 44 77  1  0
 46 78  1  0
 47 79  1  0
 48 80  1  0
 49 81  1  0
 50 82  1  0
 51 83  1  0
 52 84  1  0
M  END
> <Uni-Dock RESULT> 
ENERGY=   -6.062  LOWER_BOUND=    2.009  UPPER_BOUND=    7.610
INTER + INTRA:          -6.062
INTER:                  -6.062
INTRA:                   0.000
UNBOUND:                 0.000

$$$$

     RDKit          3D

 84 92  0  0  0  0  0  0  0  0999 V2000
   45.2477    5.7674   10.5431 C   0  0  0  0  0  0  0  0  0  0  0  0
   45.0515    6.2813   11.8325 C   0  0  0  0  0  0  0  0  0  0  0  0
   44.3552    5.5209   12.7791 C   0  0  0  0  0  0  0  0  0  0  0  0
   43.8700    4.2636   12.4303 C   0  0  0  0  0  0  0  0  0  0  0  0
   44.0611    3.7515   11.1473 C   0  0  0  0  0  0  0  0  0  0  0  0
   44.7508    4.5087   10.2002 C   0  0  0  0  0  0  0  0  0  0  0  0
   51.4885    8.8588   11.3847 C   0  0  0  0  0  0  0  0  0  0  0  0
   52.6321    8.3615   10.7632 C   0  0  0  0  0  0  0  0  0  0  0  0
   53.7270    7.9389   11.5106 C   0  0  0  0  0  0  0  0  0  0  0  0
   53.6830    8.0160   12.9047 C   0  0  0  0  0  0  0  0  0  0  0  0
   52.5407    8.5096   13.5398 C   0  0  0  0  0  0  0  0  0  0  0  0
   51.4421    8.9337   12.7816 C   0  0  0  0  0  0  0  0  0  0  0  0
   45.4190   10.0594   11.9474 N   0  0  0  0  0  0  0  0  0  0  0  0
   45.0043    8.7707   11.7754 C   0  0  0  0  0  0  0  0  0  0  0  0
   43.7206    8.7650   10.9945 C   0  0  0  0  0  0  0  0  0  0  0  0
   43.2605   10.1977   11.0778 C   0  0  0  0  0  0  0  0  0  0  0  0
   44.4906   10.9699   11.5302 C   0  0  0  0  0  0  0  0  0  0  0  0
   47.7645    8.8272   12.8859 N   0  0  0  0  0  0  0  0  0  0  0  0
   48.9602    8.5620   13.4933 C   0  0  0  0  0  0  0  0  0  0  0  0
   48.8762    7.3058   14.0592 C   0  0  0  0  0  0  0  0  0  0  0  0
   47.6123    6.7603   13.7048 C   0  0  0  0  0  0  0  0  0  0  0  0
   46.9770    7.7050   12.9337 C   0  0  0  0  0  0  0  0  0  0  0  0
   49.1059   11.8171   13.4615 N   0  0  0  0  0  0  0  0  0  0  0  0
   49.4724   13.1135   13.7288 C   0  0  0  0  0  0  0  0  0  0  0  0
   50.7229   13.1033   14.2991 C   0  0  0  0  0  0  0  0  0  0  0  0
   51.1504   11.7496   14.3310 C   0  0  0  0  0  0  0  0  0  0  0  0
   50.1455   10.9844   13.7745 C   0  0  0  0  0  0  0  0  0  0  0  0
   46.7370   12.9418   12.4684 N   0  0  0  0  0  0  0  0  0  0  0  0
   45.4932   13.1737   11.9365 C   0  0  0  0  0  0  0  0  0  0  0  0
   45.3615   14.6303   11.9006 C   0  0  0  0  0  0  0  0  0  0  0  0
   46.4571   15.1846   12.4068 C   0  0  0  0  0  0  0  0  0  0  0  0
   47.3536   14.1223   12.7941 C   0  0  0  0  0  0  0  0  0  0  0  0
   44.4844   12.3454   11.5067 C   0  0  0  0  0  0  0  0  0  0  0  0
   45.5937    7.6106   12.1803 C   0  0  0  0  0  0  0  0  0  0  0  0
   50.2349    9.4597   13.4514 C   0  0  0  0  0  0  0  0  0  0  0  0
   48.5635   14.3547   13.3687 C   0  0  0  0  0  0  0  0  0  0  0  0
   43.2353   12.9973   11.0088 C   0  0  0  0  0  0  0  0  0  0  0  0
   42.1795   13.2484   11.8966 C   0  0  0  0  0  0  0  0  0  0  0  0
   41.0208   13.8671   11.4380 C   0  0  0  0  0  0  0  0  0  0  0  0
   40.8896   14.2445   10.1078 C   0  0  0  0  0  0  0  0  0  0  0  0
   41.9356   14.0025    9.2174 C   0  0  0  0  0  0  0  0  0  0  0  0
   43.1031   13.3802    9.6674 C   0  0  0  0  0  0  0  0  0  0  0  0
   49.0655   15.7125   13.6530 C   0  0  0  0  0  0  0  0  0  0  0  0
   48.7131   16.3572   14.8424 C   0  0  0  0  0  0  0  0  0  0  0  0
   49.1918   17.6404   15.0961 C   0  0  0  0  0  0  0  0  0  0  0  0
   50.0216   18.2884   14.1863 C   0  0  0  0  0  0  0  0  0  0  0  0
   50.3749   17.6465   12.9982 C   0  0  0  0  0  0  0  0  0  0  0  0
   49.8969   16.3618   12.7325 C   0  0  0  0  0  0  0  0  0  0  0  0
   48.8551   18.2998   16.2457 O   0  0  0  0  0  0  0  0  0  0  0  0
   39.9807   14.1241   12.2894 O   0  0  0  0  0  0  0  0  0  0  0  0
   43.2053    3.5380   13.3779 O   0  0  0  0  0  0  0  0  0  0  0  0
   52.7129    8.2792    9.4024 O   0  0  0  0  0  0  0  0  0  0  0  0
   45.7871    6.3690    9.8136 H   0  0  0  0  0  0  0  0  0  0  0  0
   44.1984    5.9208   13.7770 H   0  0  0  0  0  0  0  0  0  0  0  0
   43.6857    2.7733   10.8684 H   0  0  0  0  0  0  0  0  0  0  0  0
   44.9040    4.1292    9.1941 H   0  0  0  0  0  0  0  0  0  0  0  0
   50.6230    9.1908   10.8106 H   0  0  0  0  0  0  0  0  0  0  0  0
   54.6102    7.5531   11.0100 H   0  0  0  0  0  0  0  0  0  0  0  0
   54.5335    7.6947   13.4983 H   0  0  0  0  0  0  0  0  0  0  0  0
   52.5018    8.5691   14.6272 H   0  0  0  0  0  0  0  0  0  0  0  0
   43.9102    8.4880    9.9495 H   0  0  0  0  0  0  0  0  0  0  0  0
   42.9597    8.0925   11.4052 H   0  0  0  0  0  0  0  0  0  0  0  0
   42.8756   10.5138   10.1013 H   0  0  0  0  0  0  0  0  0  0  0  0
   42.4622   10.2824   11.8244 H   0  0  0  0  0  0  0  0  0  0  0  0
   47.4367    9.6809   12.4324 H   0  0  0  0  0  0  0  0  0  0  0  0
   49.6516    6.8126   14.6232 H   0  0  0  0  0  0  0  0  0  0  0  0
   47.2329    5.7801   13.9505 H   0  0  0  0  0  0  0  0  0  0  0  0
   48.2010   11.5987   13.0410 H   0  0  0  0  0  0  0  0  0  0  0  0
   51.2785   13.9689   14.6232 H   0  0  0  0  0  0  0  0  0  0  0  0
   52.1087   11.3878   14.6733 H   0  0  0  0  0  0  0  0  0  0  0  0
   44.5166   15.1841   11.5323 H   0  0  0  0  0  0  0  0  0  0  0  0
   46.6338   16.2403   12.5082 H   0  0  0  0  0  0  0  0  0  0  0  0
   42.3082   12.9437   12.9316 H   0  0  0  0  0  0  0  0  0  0  0  0
   39.9836   14.7279    9.7664 H   0  0  0  0  0  0  0  0  0  0  0  0
   41.8496   14.3010    8.1785 H   0  0  0  0  0  0  0  0  0  0  0  0
   43.9308   13.1922    8.9887 H   0  0  0  0  0  0  0  0  0  0  0  0
   48.0648   15.8341   15.5398 H   0  0  0  0  0  0  0  0  0  0  0  0
   50.3841   19.2891   14.3950 H   0  0  0  0  0  0  0  0  0  0  0  0
   51.0169   18.1413   12.2757 H   0  0  0  0  0  0  0  0  0  0  0  0
   50.1601   15.8529   11.8061 H   0  0  0  0  0  0  0  0  0  0  0  0
   48.2179   17.7300   16.7133 H   0  0  0  0  0  0  0  0  0  0  0  0
   40.2864   13.8472   13.1722 H   0  0  0  0  0  0  0  0  0  0  0  0
   42.8893    2.7254   12.9548 H   0  0  0  0  0  0  0  0  0  0  0  0
   51.8914    8.6687    9.0522 H   0  0  0  0  0  0  0  0  0  0  0  0
 25 26  2  0
 26 27  1  0
 27 23  1  0
 28 29  1  0
  1  2  2  0
  3  4  2  0
  7  8  2  0
 14 15  1  0
 29 30  1  0
 30 31  2  0
 31 32  1  0
 32 28  2  0
 15 16  1  0
 29 33  2  0
 17 33  1  0
 16 17  1  0
 14 34  2  0
 22 34  1  0
 17 13  2  0
 27 35  2  0
 19 35  1  0
 18 19  1  0
 24 36  2  0
 32 36  1  0
  8  9  1  0
  4  5  1  0
 37 38  2  0
  9 10  2  0
 38 39  1  0
  2  3  1  0
 39 40  2  0
 10 11  1  0
 40 41  1  0
 19 20  2  0
 41 42  2  0
 42 37  1  0
 33 37  1  0
 20 21  1  0
 21 22  2  0
 43 44  2  0
 22 18  1  0
 44 45  1  0
 23 24  1  0
 45 46  2  0
  5  6  2  0
 46 47  1  0
 11 12  2  0
 47 48  2  0
 48 43  1  0
 36 43  1  0
 12  7  1  0
 45 49  1  0
 13 14  1  0
 39 50  1  0
 35 12  1  0
 34  2  1  0
  6  1  1  0
  4 51  1  0
 24 25  1  0
  8 52  1  0
  1 53  1  0
  3 54  1  0
  5 55  1  0
  6 56  1  0
  7 57  1  0
  9 58  1  0
 10 59  1  0
 11 60  1  0
 15 61  1  0
 15 62  1  0
 16 63  1  0
 16 64  1  0
 18 65  1  0
 20 66  1  0
 21 67  1  0
 23 68  1  0
 25 69  1  0
 26 70  1  0
 30 71  1  0
 31 72  1  0
 38 73  1  0
 40 74  1  0
 41 75  1  0
 42 76  1  0
 44 77  1  0
 46 78  1  0
 47 79  1  0
 48 80  1  0
 49 81  1  0
 50 82  1  0
 51 83  1  0
 52 84  1  0
M  END
> <Uni-Dock RESULT> 
ENERGY=   -5.773  LOWER_BOUND=    2.505  UPPER_BOUND=    8.637
INTER + INTRA:          -5.773
INTER:                  -5.773
INTRA:                   0.000
UNBOUND:                 0.000

$$$$

     RDKit          3D

 84 92  0  0  0  0  0  0  0  0999 V2000
   51.8793    8.1832   14.6839 C   0  0  0  0  0  0  0  0  0  0  0  0
   50.7752    8.4992   15.4878 C   0  0  0  0  0  0  0  0  0  0  0  0
   50.8160    8.2149   16.8576 C   0  0  0  0  0  0  0  0  0  0  0  0
   51.9525    7.6262   17.4052 C   0  0  0  0  0  0  0  0  0  0  0  0
   53.0509    7.3079   16.6070 C   0  0  0  0  0  0  0  0  0  0  0  0
   53.0117    7.5859   15.2405 C   0  0  0  0  0  0  0  0  0  0  0  0
   50.1377   14.2866   11.6958 C   0  0  0  0  0  0  0  0  0  0  0  0
   51.0989   15.1017   11.1017 C   0  0  0  0  0  0  0  0  0  0  0  0
   51.3207   16.3972   11.5584 C   0  0  0  0  0  0  0  0  0  0  0  0
   50.5680   16.8915   12.6263 C   0  0  0  0  0  0  0  0  0  0  0  0
   49.6035   16.0827   13.2327 C   0  0  0  0  0  0  0  0  0  0  0  0
   49.3850   14.7797   12.7678 C   0  0  0  0  0  0  0  0  0  0  0  0
   47.5885    8.9033   13.4621 N   0  0  0  0  0  0  0  0  0  0  0  0
   48.6802    8.4473   14.1421 C   0  0  0  0  0  0  0  0  0  0  0  0
   48.7992    6.9623   13.9465 C   0  0  0  0  0  0  0  0  0  0  0  0
   47.4473    6.5772   13.4030 C   0  0  0  0  0  0  0  0  0  0  0  0
   46.8265    7.8909   12.9528 C   0  0  0  0  0  0  0  0  0  0  0  0
   48.6634   11.4226   14.0931 N   0  0  0  0  0  0  0  0  0  0  0  0
   48.8405   12.7584   14.3242 C   0  0  0  0  0  0  0  0  0  0  0  0
   49.6141   12.8909   15.4597 C   0  0  0  0  0  0  0  0  0  0  0  0
   49.9879   11.5848   15.8779 C   0  0  0  0  0  0  0  0  0  0  0  0
   49.4296   10.7075   14.9781 C   0  0  0  0  0  0  0  0  0  0  0  0
   46.1231   12.8985   12.5313 N   0  0  0  0  0  0  0  0  0  0  0  0
   44.9686   13.3467   11.9376 C   0  0  0  0  0  0  0  0  0  0  0  0
   44.9586   14.7202   11.9870 C   0  0  0  0  0  0  0  0  0  0  0  0
   46.1806   15.1198   12.5898 C   0  0  0  0  0  0  0  0  0  0  0  0
   46.8929   13.9742   12.8817 C   0  0  0  0  0  0  0  0  0  0  0  0
   45.1612   10.3362   11.9218 N   0  0  0  0  0  0  0  0  0  0  0  0
   44.9657    8.9848   11.7831 C   0  0  0  0  0  0  0  0  0  0  0  0
   43.7195    8.8573   11.0273 C   0  0  0  0  0  0  0  0  0  0  0  0
   43.2295   10.0663   10.7781 C   0  0  0  0  0  0  0  0  0  0  0  0
   44.1284   11.0370   11.3543 C   0  0  0  0  0  0  0  0  0  0  0  0
   45.6690    7.8837   12.2092 C   0  0  0  0  0  0  0  0  0  0  0  0
   49.5899    9.1406   14.8831 C   0  0  0  0  0  0  0  0  0  0  0  0
   48.3627   13.9245   13.4053 C   0  0  0  0  0  0  0  0  0  0  0  0
   43.9020   12.3760   11.2921 C   0  0  0  0  0  0  0  0  0  0  0  0
   45.0993    6.5428   11.8769 C   0  0  0  0  0  0  0  0  0  0  0  0
   44.2358    5.9095   12.7819 C   0  0  0  0  0  0  0  0  0  0  0  0
   43.6939    4.6669   12.4688 C   0  0  0  0  0  0  0  0  0  0  0  0
   43.9934    4.0377   11.2673 C   0  0  0  0  0  0  0  0  0  0  0  0
   44.8486    4.6611   10.3586 C   0  0  0  0  0  0  0  0  0  0  0  0
   45.3995    5.9084   10.6640 C   0  0  0  0  0  0  0  0  0  0  0  0
   42.7151   12.9560   10.6354 C   0  0  0  0  0  0  0  0  0  0  0  0
   41.5164   13.0901   11.3420 C   0  0  0  0  0  0  0  0  0  0  0  0
   40.4028   13.6366   10.7084 C   0  0  0  0  0  0  0  0  0  0  0  0
   40.4672   14.0576    9.3836 C   0  0  0  0  0  0  0  0  0  0  0  0
   41.6631   13.9249    8.6762 C   0  0  0  0  0  0  0  0  0  0  0  0
   42.7839   13.3745    9.3011 C   0  0  0  0  0  0  0  0  0  0  0  0
   39.2142   13.7700   11.3709 O   0  0  0  0  0  0  0  0  0  0  0  0
   42.8462    4.0341   13.3370 O   0  0  0  0  0  0  0  0  0  0  0  0
   51.9697    7.3716   18.7472 O   0  0  0  0  0  0  0  0  0  0  0  0
   51.8475   14.6542   10.0508 O   0  0  0  0  0  0  0  0  0  0  0  0
   51.8352    8.4050   13.6190 H   0  0  0  0  0  0  0  0  0  0  0  0
   49.9587    8.4548   17.4803 H   0  0  0  0  0  0  0  0  0  0  0  0
   53.9391    6.8489   17.0263 H   0  0  0  0  0  0  0  0  0  0  0  0
   53.8549    7.3396   14.6018 H   0  0  0  0  0  0  0  0  0  0  0  0
   49.9560   13.2689   11.3490 H   0  0  0  0  0  0  0  0  0  0  0  0
   52.0745   17.0189   11.0843 H   0  0  0  0  0  0  0  0  0  0  0  0
   50.7279   17.9028   12.9877 H   0  0  0  0  0  0  0  0  0  0  0  0
   49.0160   16.4640   14.0675 H   0  0  0  0  0  0  0  0  0  0  0  0
   49.5819    6.7353   13.2113 H   0  0  0  0  0  0  0  0  0  0  0  0
   49.0127    6.4134   14.8700 H   0  0  0  0  0  0  0  0  0  0  0  0
   47.5744    5.8490   12.5935 H   0  0  0  0  0  0  0  0  0  0  0  0
   46.8470    6.1266   14.2020 H   0  0  0  0  0  0  0  0  0  0  0  0
   48.0914   10.9507   13.3916 H   0  0  0  0  0  0  0  0  0  0  0  0
   49.9188   13.8206   15.9129 H   0  0  0  0  0  0  0  0  0  0  0  0
   50.6218   11.3231   16.7114 H   0  0  0  0  0  0  0  0  0  0  0  0
   46.3258   11.9005   12.6088 H   0  0  0  0  0  0  0  0  0  0  0  0
   44.1812   15.3623   11.6045 H   0  0  0  0  0  0  0  0  0  0  0  0
   46.5196   16.1341   12.7404 H   0  0  0  0  0  0  0  0  0  0  0  0
   43.2537    7.9389   10.7182 H   0  0  0  0  0  0  0  0  0  0  0  0
   42.3207   10.2742   10.2425 H   0  0  0  0  0  0  0  0  0  0  0  0
   44.0175    6.4235   13.7139 H   0  0  0  0  0  0  0  0  0  0  0  0
   43.5617    3.0727   11.0361 H   0  0  0  0  0  0  0  0  0  0  0  0
   45.0829    4.1850    9.4129 H   0  0  0  0  0  0  0  0  0  0  0  0
   46.0607    6.4116    9.9634 H   0  0  0  0  0  0  0  0  0  0  0  0
   41.4868   12.7559   12.3753 H   0  0  0  0  0  0  0  0  0  0  0  0
   39.5913   14.4779    8.9014 H   0  0  0  0  0  0  0  0  0  0  0  0
   41.7275   14.2435    7.6402 H   0  0  0  0  0  0  0  0  0  0  0  0
   43.7211   13.2596    8.7578 H   0  0  0  0  0  0  0  0  0  0  0  0
   39.3384   13.3577   12.2449 H   0  0  0  0  0  0  0  0  0  0  0  0
   42.7151    4.6535   14.0778 H   0  0  0  0  0  0  0  0  0  0  0  0
   52.8000    6.9131   18.9467 H   0  0  0  0  0  0  0  0  0  0  0  0
   51.5172   13.7633    9.8351 H   0  0  0  0  0  0  0  0  0  0  0  0
 25 26  2  0
 26 27  1  0
 27 23  1  0
 28 29  1  0
  1  2  2  0
  3  4  2  0
  7  8  2  0
 14 15  1  0
 29 30  1  0
 30 31  2  0
 31 32  1  0
 32 28  2  0
 15 16  1  0
 29 33  2  0
 17 33  1  0
 16 17  1  0
 14 34  2  0
 22 34  1  0
 17 13  2  0
 27 35  2  0
 19 35  1  0
 18 19  1  0
 24 36  2  0
 32 36  1  0
  8  9  1  0
  4  5  1  0
 37 38  2  0
  9 10  2  0
 38 39  1  0
  2  3  1  0
 39 40  2  0
 10 11  1  0
 40 41  1  0
 19 20  2  0
 41 42  2  0
 42 37  1  0
 33 37  1  0
 20 21  1  0
 21 22  2  0
 43 44  2  0
 22 18  1  0
 44 45  1  0
 23 24  1  0
 45 46  2  0
  5  6  2  0
 46 47  1  0
 11 12  2  0
 47 48  2  0
 48 43  1  0
 36 43  1  0
 12  7  1  0
 45 49  1  0
 13 14  1  0
 39 50  1  0
 35 12  1  0
 34  2  1  0
  6  1  1  0
  4 51  1  0
 24 25  1  0
  8 52  1  0
  1 53  1  0
  3 54  1  0
  5 55  1  0
  6 56  1  0
  7 57  1  0
  9 58  1  0
 10 59  1  0
 11 60  1  0
 15 61  1  0
 15 62  1  0
 16 63  1  0
 16 64  1  0
 18 65  1  0
 20 66  1  0
 21 67  1  0
 23 68  1  0
 25 69  1  0
 26 70  1  0
 30 71  1  0
 31 72  1  0
 38 73  1  0
 40 74  1  0
 41 75  1  0
 42 76  1  0
 44 77  1  0
 46 78  1  0
 47 79  1  0
 48 80  1  0
 49 81  1  0
 50 82  1  0
 51 83  1  0
 52 84  1  0
M  END
> <Uni-Dock RESULT> 
ENERGY=   -5.705  LOWER_BOUND=    1.827  UPPER_BOUND=    7.947
INTER + INTRA:          -5.705
INTER:                  -5.705
INTRA:                   0.000
UNBOUND:                 0.000

$$$$

     RDKit          3D

 84 92  0  0  0  0  0  0  0  0999 V2000
   51.9025   12.2888   17.8453 C   0  0  0  0  0  0  0  0  0  0  0  0
   52.3728   11.4049   16.8642 C   0  0  0  0  0  0  0  0  0  0  0  0
   53.7253   11.4300   16.5048 C   0  0  0  0  0  0  0  0  0  0  0  0
   54.5868   12.3286   17.1280 C   0  0  0  0  0  0  0  0  0  0  0  0
   54.1207   13.2112   18.1020 C   0  0  0  0  0  0  0  0  0  0  0  0
   52.7724   13.1917   18.4593 C   0  0  0  0  0  0  0  0  0  0  0  0
   48.1191    6.6571   19.6287 C   0  0  0  0  0  0  0  0  0  0  0  0
   47.7295    6.4351   20.9479 C   0  0  0  0  0  0  0  0  0  0  0  0
   48.1289    5.2896   21.6295 C   0  0  0  0  0  0  0  0  0  0  0  0
   48.9297    4.3451   20.9830 C   0  0  0  0  0  0  0  0  0  0  0  0
   49.3297    4.5578   19.6614 C   0  0  0  0  0  0  0  0  0  0  0  0
   48.9239    5.7128   18.9810 C   0  0  0  0  0  0  0  0  0  0  0  0
   49.5782   10.0853   14.6572 N   0  0  0  0  0  0  0  0  0  0  0  0
   50.5461   10.8232   15.2745 C   0  0  0  0  0  0  0  0  0  0  0  0
   50.4994   12.2323   14.7550 C   0  0  0  0  0  0  0  0  0  0  0  0
   49.6603   12.1124   13.5090 C   0  0  0  0  0  0  0  0  0  0  0  0
   48.9694   10.7635   13.6401 C   0  0  0  0  0  0  0  0  0  0  0  0
   50.2706    8.1707   16.5951 N   0  0  0  0  0  0  0  0  0  0  0  0
   50.4380    7.0112   17.2998 C   0  0  0  0  0  0  0  0  0  0  0  0
   51.7197    7.0106   17.8122 C   0  0  0  0  0  0  0  0  0  0  0  0
   52.3163    8.2558   17.4749 C   0  0  0  0  0  0  0  0  0  0  0  0
   51.3727    8.9680   16.7725 C   0  0  0  0  0  0  0  0  0  0  0  0
   48.0072    6.0801   15.3396 N   0  0  0  0  0  0  0  0  0  0  0  0
   47.1071    5.3077   14.6470 C   0  0  0  0  0  0  0  0  0  0  0  0
   47.0489    4.0695   15.2407 C   0  0  0  0  0  0  0  0  0  0  0  0
   47.9110    4.1119   16.3682 C   0  0  0  0  0  0  0  0  0  0  0  0
   48.4600    5.3771   16.4227 C   0  0  0  0  0  0  0  0  0  0  0  0
   47.3674    8.0761   13.4770 N   0  0  0  0  0  0  0  0  0  0  0  0
   47.2857    9.2253   12.7312 C   0  0  0  0  0  0  0  0  0  0  0  0
   46.2494    8.9574   11.7338 C   0  0  0  0  0  0  0  0  0  0  0  0
   45.7934    7.7203   11.8933 C   0  0  0  0  0  0  0  0  0  0  0  0
   46.5047    7.1240   12.9982 C   0  0  0  0  0  0  0  0  0  0  0  0
   47.9583   10.4230   12.7715 C   0  0  0  0  0  0  0  0  0  0  0  0
   51.4398   10.4493   16.2330 C   0  0  0  0  0  0  0  0  0  0  0  0
   49.3426    5.9374   17.5820 C   0  0  0  0  0  0  0  0  0  0  0  0
   46.2863    5.8468   13.4092 C   0  0  0  0  0  0  0  0  0  0  0  0
   47.5939   11.4423   11.7414 C   0  0  0  0  0  0  0  0  0  0  0  0
   48.2943   11.4870   10.5276 C   0  0  0  0  0  0  0  0  0  0  0  0
   47.9480   12.4266    9.5619 C   0  0  0  0  0  0  0  0  0  0  0  0
   46.9132   13.3275    9.7785 C   0  0  0  0  0  0  0  0  0  0  0  0
   46.2078   13.2889   10.9813 C   0  0  0  0  0  0  0  0  0  0  0  0
   46.5487   12.3501   11.9585 C   0  0  0  0  0  0  0  0  0  0  0  0
   45.3074    4.9546   12.7595 C   0  0  0  0  0  0  0  0  0  0  0  0
   45.6735    4.2111   11.6337 C   0  0  0  0  0  0  0  0  0  0  0  0
   44.7380    3.3752   11.0285 C   0  0  0  0  0  0  0  0  0  0  0  0
   43.4455    3.2636   11.5318 C   0  0  0  0  0  0  0  0  0  0  0  0
   43.0778    4.0049   12.6559 C   0  0  0  0  0  0  0  0  0  0  0  0
   44.0070    4.8489   13.2674 C   0  0  0  0  0  0  0  0  0  0  0  0
   45.0642    2.6443    9.9199 O   0  0  0  0  0  0  0  0  0  0  0  0
   48.6169   12.4839    8.3694 O   0  0  0  0  0  0  0  0  0  0  0  0
   55.9042   12.3224   16.7668 O   0  0  0  0  0  0  0  0  0  0  0  0
   46.9406    7.3332   21.6083 O   0  0  0  0  0  0  0  0  0  0  0  0
   50.8480   12.2636   18.1141 H   0  0  0  0  0  0  0  0  0  0  0  0
   54.0894   10.7487   15.7408 H   0  0  0  0  0  0  0  0  0  0  0  0
   54.7857   13.9141   18.5913 H   0  0  0  0  0  0  0  0  0  0  0  0
   52.3898   13.8758   19.2113 H   0  0  0  0  0  0  0  0  0  0  0  0
   47.8150    7.5516   19.0845 H   0  0  0  0  0  0  0  0  0  0  0  0
   47.8169    5.1327   22.6578 H   0  0  0  0  0  0  0  0  0  0  0  0
   49.2427    3.4445   21.5026 H   0  0  0  0  0  0  0  0  0  0  0  0
   49.9562    3.8244   19.1545 H   0  0  0  0  0  0  0  0  0  0  0  0
   50.0070   12.8913   15.4816 H   0  0  0  0  0  0  0  0  0  0  0  0
   51.4855   12.6451   14.5160 H   0  0  0  0  0  0  0  0  0  0  0  0
   48.9670   12.9597   13.4540 H   0  0  0  0  0  0  0  0  0  0  0  0
   50.3117   12.1221   12.6273 H   0  0  0  0  0  0  0  0  0  0  0  0
   49.4842    8.4802   16.0226 H   0  0  0  0  0  0  0  0  0  0  0  0
   52.1642    6.2264   18.4039 H   0  0  0  0  0  0  0  0  0  0  0  0
   53.3010    8.6029   17.7488 H   0  0  0  0  0  0  0  0  0  0  0  0
   48.2085    7.0406   15.0567 H   0  0  0  0  0  0  0  0  0  0  0  0
   46.4339    3.2426   14.9226 H   0  0  0  0  0  0  0  0  0  0  0  0
   48.0661    3.3208   17.0867 H   0  0  0  0  0  0  0  0  0  0  0  0
   45.9019    9.6389   10.9782 H   0  0  0  0  0  0  0  0  0  0  0  0
   45.0301    7.2537   11.2969 H   0  0  0  0  0  0  0  0  0  0  0  0
   49.0987   10.7709   10.3834 H   0  0  0  0  0  0  0  0  0  0  0  0
   46.6530   14.0506    9.0166 H   0  0  0  0  0  0  0  0  0  0  0  0
   45.3916   13.9803   11.1590 H   0  0  0  0  0  0  0  0  0  0  0  0
   46.0036   12.3010   12.8975 H   0  0  0  0  0  0  0  0  0  0  0  0
   46.6874    4.3119   11.2566 H   0  0  0  0  0  0  0  0  0  0  0  0
   42.7259    2.6117   11.0484 H   0  0  0  0  0  0  0  0  0  0  0  0
   42.0714    3.9330   13.0570 H   0  0  0  0  0  0  0  0  0  0  0  0
   43.7304    5.4375   14.1412 H   0  0  0  0  0  0  0  0  0  0  0  0
   45.9694    2.9071    9.6735 H   0  0  0  0  0  0  0  0  0  0  0  0
   49.2511   11.7443    8.3858 H   0  0  0  0  0  0  0  0  0  0  0  0
   56.3423   13.0401   17.2487 H   0  0  0  0  0  0  0  0  0  0  0  0
   46.7156    8.0296   20.9650 H   0  0  0  0  0  0  0  0  0  0  0  0
 25 26  2  0
 26 27  1  0
 27 23  1  0
 28 29  1  0
  1  2  2  0
  3  4  2  0
  7  8  2  0
 14 15  1  0
 29 30  1  0
 30 31  2  0
 31 32  1  0
 32 28  2  0
 15 16  1  0
 29 33  2  0
 17 33  1  0
 16 17  1  0
 14 34  2  0
 22 34  1  0
 17 13  2  0
 27 35  2  0
 19 35  1  0
 18 19  1  0
 24 36  2  0
 32 36  1  0
  8  9  1  0
  4  5  1  0
 37 38  2  0
  9 10  2  0
 38 39  1  0
  2  3  1  0
 39 40  2  0
 10 11  1  0
 40 41  1  0
 19 20  2  0
 41 42  2  0
 42 37  1  0
 33 37  1  0
 20 21  1  0
 21 22  2  0
 43 44  2  0
 22 18  1  0
 44 45  1  0
 23 24  1  0
 45 46  2  0
  5  6  2  0
 46 47  1  0
 11 12  2  0
 47 48  2  0
 48 43  1  0
 36 43  1  0
 12  7  1  0
 45 49  1  0
 13 14  1  0
 39 50  1  0
 35 12  1  0
 34  2  1  0
  6  1  1  0
  4 51  1  0
 24 25  1  0
  8 52  1  0
  1 53  1  0
  3 54  1  0
  5 55  1  0
  6 56  1  0
  7 57  1  0
  9 58  1  0
 10 59  1  0
 11 60  1  0
 15 61  1  0
 15 62  1  0
 16 63  1  0
 16 64  1  0
 18 65  1  0
 20 66  1  0
 21 67  1  0
 23 68  1  0
 25 69  1  0
 26 70  1  0
 30 71  1  0
 31 72  1  0
 38 73  1  0
 40 74  1  0
 41 75  1  0
 42 76  1  0
 44 77  1  0
 46 78  1  0
 47 79  1  0
 48 80  1  0
 49 81  1  0
 50 82  1  0
 51 83  1  0
 52 84  1  0
M  END
> <Uni-Dock RESULT> 
ENERGY=   -5.373  LOWER_BOUND=    3.264  UPPER_BOUND=    4.958
INTER + INTRA:          -5.373
INTER:                  -5.373
INTRA:                   0.000
UNBOUND:                 0.000

$$$$

     RDKit          3D

 84 92  0  0  0  0  0  0  0  0999 V2000
   43.8628    6.1426   12.8571 C   0  0  0  0  0  0  0  0  0  0  0  0
   44.3169    6.7910   11.7002 C   0  0  0  0  0  0  0  0  0  0  0  0
   44.3726    6.0865   10.4920 C   0  0  0  0  0  0  0  0  0  0  0  0
   43.9733    4.7535   10.4532 C   0  0  0  0  0  0  0  0  0  0  0  0
   43.5243    4.1053   11.6034 C   0  0  0  0  0  0  0  0  0  0  0  0
   43.4717    4.8033   12.8101 C   0  0  0  0  0  0  0  0  0  0  0  0
   40.8990   12.4061   13.9512 C   0  0  0  0  0  0  0  0  0  0  0  0
   39.7045   12.5279   14.6582 C   0  0  0  0  0  0  0  0  0  0  0  0
   38.5737   13.0794   14.0638 C   0  0  0  0  0  0  0  0  0  0  0  0
   38.6349   13.5211   12.7400 C   0  0  0  0  0  0  0  0  0  0  0  0
   39.8259   13.4013   12.0195 C   0  0  0  0  0  0  0  0  0  0  0  0
   40.9606   12.8455   12.6238 C   0  0  0  0  0  0  0  0  0  0  0  0
   46.3834    9.8760   12.4962 N   0  0  0  0  0  0  0  0  0  0  0  0
   45.9068    8.6132   12.2953 C   0  0  0  0  0  0  0  0  0  0  0  0
   46.9186    7.6188   12.7902 C   0  0  0  0  0  0  0  0  0  0  0  0
   48.1702    8.4452   12.9373 C   0  0  0  0  0  0  0  0  0  0  0  0
   47.6832    9.8862   12.9151 C   0  0  0  0  0  0  0  0  0  0  0  0
   43.7674   10.6175   11.7842 N   0  0  0  0  0  0  0  0  0  0  0  0
   42.6581   11.3057   11.3780 C   0  0  0  0  0  0  0  0  0  0  0  0
   41.9319   10.4801   10.5435 C   0  0  0  0  0  0  0  0  0  0  0  0
   42.5851    9.2180   10.5155 C   0  0  0  0  0  0  0  0  0  0  0  0
   43.6826    9.3234   11.3373 C   0  0  0  0  0  0  0  0  0  0  0  0
   44.5742   13.8240   12.1556 N   0  0  0  0  0  0  0  0  0  0  0  0
   45.0918   15.0920   12.2578 C   0  0  0  0  0  0  0  0  0  0  0  0
   44.0993   15.9930   11.9542 C   0  0  0  0  0  0  0  0  0  0  0  0
   42.9206   15.2403   11.7080 C   0  0  0  0  0  0  0  0  0  0  0  0
   43.2375   13.9074   11.8752 C   0  0  0  0  0  0  0  0  0  0  0  0
   47.1423   12.9720   12.8916 N   0  0  0  0  0  0  0  0  0  0  0  0
   48.2673   12.2526   13.2088 C   0  0  0  0  0  0  0  0  0  0  0  0
   49.2789   13.2565   13.5391 C   0  0  0  0  0  0  0  0  0  0  0  0
   48.7604   14.4702   13.3911 C   0  0  0  0  0  0  0  0  0  0  0  0
   47.3913   14.3185   12.9611 C   0  0  0  0  0  0  0  0  0  0  0  0
   48.5460   10.9073   13.2401 C   0  0  0  0  0  0  0  0  0  0  0  0
   44.7165    8.2115   11.7669 C   0  0  0  0  0  0  0  0  0  0  0  0
   42.2220   12.7219   11.8646 C   0  0  0  0  0  0  0  0  0  0  0  0
   46.5817   15.3786   12.6990 C   0  0  0  0  0  0  0  0  0  0  0  0
   49.9365   10.5098   13.6165 C   0  0  0  0  0  0  0  0  0  0  0  0
   50.9048   10.3336   12.6179 C   0  0  0  0  0  0  0  0  0  0  0  0
   52.2032    9.9763   12.9670 C   0  0  0  0  0  0  0  0  0  0  0  0
   52.5615    9.7905   14.2961 C   0  0  0  0  0  0  0  0  0  0  0  0
   51.6065    9.9669   15.2973 C   0  0  0  0  0  0  0  0  0  0  0  0
   50.2991   10.3241   14.9573 C   0  0  0  0  0  0  0  0  0  0  0  0
   47.0315   16.7779   12.8249 C   0  0  0  0  0  0  0  0  0  0  0  0
   47.6908   17.4024   11.7620 C   0  0  0  0  0  0  0  0  0  0  0  0
   48.1127   18.7231   11.8961 C   0  0  0  0  0  0  0  0  0  0  0  0
   47.8820   19.4331   13.0703 C   0  0  0  0  0  0  0  0  0  0  0  0
   47.2238   18.8117   14.1328 C   0  0  0  0  0  0  0  0  0  0  0  0
   46.8005   17.4868   14.0099 C   0  0  0  0  0  0  0  0  0  0  0  0
   48.7695   19.3562   10.8775 O   0  0  0  0  0  0  0  0  0  0  0  0
   53.1636    9.8033   12.0076 O   0  0  0  0  0  0  0  0  0  0  0  0
   44.0261    4.0941    9.2579 O   0  0  0  0  0  0  0  0  0  0  0  0
   39.6108   12.1139   15.9561 O   0  0  0  0  0  0  0  0  0  0  0  0
   43.8274    6.6988   13.7922 H   0  0  0  0  0  0  0  0  0  0  0  0
   44.7293    6.5869    9.5961 H   0  0  0  0  0  0  0  0  0  0  0  0
   43.2122    3.0672   11.5808 H   0  0  0  0  0  0  0  0  0  0  0  0
   43.1307    4.3136   13.7176 H   0  0  0  0  0  0  0  0  0  0  0  0
   41.7913   11.9735   14.4046 H   0  0  0  0  0  0  0  0  0  0  0  0
   37.6504   13.1661   14.6291 H   0  0  0  0  0  0  0  0  0  0  0  0
   37.7607   13.9585   12.2674 H   0  0  0  0  0  0  0  0  0  0  0  0
   39.8768   13.7426   10.9859 H   0  0  0  0  0  0  0  0  0  0  0  0
   46.6137    7.2161   13.7646 H   0  0  0  0  0  0  0  0  0  0  0  0
   47.0879    6.7844   12.1010 H   0  0  0  0  0  0  0  0  0  0  0  0
   48.6831    8.1672   13.8653 H   0  0  0  0  0  0  0  0  0  0  0  0
   48.8357    8.2554   12.0870 H   0  0  0  0  0  0  0  0  0  0  0  0
   44.5629   10.9303   12.3422 H   0  0  0  0  0  0  0  0  0  0  0  0
   41.0096   10.7355   10.0466 H   0  0  0  0  0  0  0  0  0  0  0  0
   42.2669    8.3302    9.9903 H   0  0  0  0  0  0  0  0  0  0  0  0
   45.1517   13.0004   12.3330 H   0  0  0  0  0  0  0  0  0  0  0  0
   44.1997   17.0667   11.9438 H   0  0  0  0  0  0  0  0  0  0  0  0
   41.9408   15.6374   11.4877 H   0  0  0  0  0  0  0  0  0  0  0  0
   50.2903   13.0630   13.8487 H   0  0  0  0  0  0  0  0  0  0  0  0
   49.2789   15.3965   13.5618 H   0  0  0  0  0  0  0  0  0  0  0  0
   50.5984   10.4857   11.5866 H   0  0  0  0  0  0  0  0  0  0  0  0
   53.5763    9.5159   14.5526 H   0  0  0  0  0  0  0  0  0  0  0  0
   51.8757    9.8343   16.3393 H   0  0  0  0  0  0  0  0  0  0  0  0
   49.5452   10.4739   15.7256 H   0  0  0  0  0  0  0  0  0  0  0  0
   47.8608   16.8311   10.8537 H   0  0  0  0  0  0  0  0  0  0  0  0
   48.2194   20.4599   13.1625 H   0  0  0  0  0  0  0  0  0  0  0  0
   47.0415   19.3507   15.0576 H   0  0  0  0  0  0  0  0  0  0  0  0
   46.2916   16.9886   14.8342 H   0  0  0  0  0  0  0  0  0  0  0  0
   48.9052   18.6889   10.1807 H   0  0  0  0  0  0  0  0  0  0  0  0
   52.7384   10.0363   11.1623 H   0  0  0  0  0  0  0  0  0  0  0  0
   43.7729    3.1730    9.4212 H   0  0  0  0  0  0  0  0  0  0  0  0
   40.5012   11.8163   16.2168 H   0  0  0  0  0  0  0  0  0  0  0  0
 25 26  2  0
 26 27  1  0
 27 23  1  0
 28 29  1  0
  1  2  2  0
  3  4  2  0
  7  8  2  0
 14 15  1  0
 29 30  1  0
 30 31  2  0
 31 32  1  0
 32 28  2  0
 15 16  1  0
 29 33  2  0
 17 33  1  0
 16 17  1  0
 14 34  2  0
 22 34  1  0
 17 13  2  0
 27 35  2  0
 19 35  1  0
 18 19  1  0
 24 36  2  0
 32 36  1  0
  8  9  1  0
  4  5  1  0
 37 38  2  0
  9 10  2  0
 38 39  1  0
  2  3  1  0
 39 40  2  0
 10 11  1  0
 40 41  1  0
 19 20  2  0
 41 42  2  0
 42 37  1  0
 33 37  1  0
 20 21  1  0
 21 22  2  0
 43 44  2  0
 22 18  1  0
 44 45  1  0
 23 24  1  0
 45 46  2  0
  5  6  2  0
 46 47  1  0
 11 12  2  0
 47 48  2  0
 48 43  1  0
 36 43  1  0
 12  7  1  0
 45 49  1  0
 13 14  1  0
 39 50  1  0
 35 12  1  0
 34  2  1  0
  6  1  1  0
  4 51  1  0
 24 25  1  0
  8 52  1  0
  1 53  1  0
  3 54  1  0
  5 55  1  0
  6 56  1  0
  7 57  1  0
  9 58  1  0
 10 59  1  0
 11 60  1  0
 15 61  1  0
 15 62  1  0
 16 63  1  0
 16 64  1  0
 18 65  1  0
 20 66  1  0
 21 67  1  0
 23 68  1  0
 25 69  1  0
 26 70  1  0
 30 71  1  0
 31 72  1  0
 38 73  1  0
 40 74  1  0
 41 75  1  0
 42 76  1  0
 44 77  1  0
 46 78  1  0
 47 79  1  0
 48 80  1  0
 49 81  1  0
 50 82  1  0
 51 83  1  0
 52 84  1  0
M  END
> <Uni-Dock RESULT> 
ENERGY=   -5.313  LOWER_BOUND=    2.642  UPPER_BOUND=   10.422
INTER + INTRA:          -5.313
INTER:                  -5.313
INTRA:                   0.000
UNBOUND:                 0.000

$$$$

     RDKit          3D

 84 92  0  0  0  0  0  0  0  0999 V2000
   54.1571   10.2369   18.4926 C   0  0  0  0  0  0  0  0  0  0  0  0
   54.3588    9.0519   17.7714 C   0  0  0  0  0  0  0  0  0  0  0  0
   55.6372    8.4843   17.7217 C   0  0  0  0  0  0  0  0  0  0  0  0
   56.6907    9.1003   18.3915 C   0  0  0  0  0  0  0  0  0  0  0  0
   56.4933   10.2810   19.1070 C   0  0  0  0  0  0  0  0  0  0  0  0
   55.2213   10.8517   19.1548 C   0  0  0  0  0  0  0  0  0  0  0  0
   48.1637    6.9876   20.1457 C   0  0  0  0  0  0  0  0  0  0  0  0
   47.5267    7.2195   21.3630 C   0  0  0  0  0  0  0  0  0  0  0  0
   47.3104    6.1839   22.2668 C   0  0  0  0  0  0  0  0  0  0  0  0
   47.7343    4.8911   21.9504 C   0  0  0  0  0  0  0  0  0  0  0  0
   48.3773    4.6463   20.7344 C   0  0  0  0  0  0  0  0  0  0  0  0
   48.5916    5.6931   19.8289 C   0  0  0  0  0  0  0  0  0  0  0  0
   51.6292    8.4492   15.2008 N   0  0  0  0  0  0  0  0  0  0  0  0
   52.7126    8.8790   15.9106 C   0  0  0  0  0  0  0  0  0  0  0  0
   53.3308   10.0529   15.2055 C   0  0  0  0  0  0  0  0  0  0  0  0
   52.7120    9.9951   13.8326 C   0  0  0  0  0  0  0  0  0  0  0  0
   51.5137    9.0715   13.9907 C   0  0  0  0  0  0  0  0  0  0  0  0
   51.1717    6.8808   17.4881 N   0  0  0  0  0  0  0  0  0  0  0  0
   50.7379    5.9255   18.3645 C   0  0  0  0  0  0  0  0  0  0  0  0
   51.8130    5.5492   19.1442 C   0  0  0  0  0  0  0  0  0  0  0  0
   52.9142    6.3709   18.7804 C   0  0  0  0  0  0  0  0  0  0  0  0
   52.4654    7.2185   17.7949 C   0  0  0  0  0  0  0  0  0  0  0  0
   48.4592    5.5876   16.0598 N   0  0  0  0  0  0  0  0  0  0  0  0
   47.4336    5.0847   15.2972 C   0  0  0  0  0  0  0  0  0  0  0  0
   46.7809    4.1203   16.0272 C   0  0  0  0  0  0  0  0  0  0  0  0
   47.4059    4.0743   17.3014 C   0  0  0  0  0  0  0  0  0  0  0  0
   48.4146    5.0164   17.3025 C   0  0  0  0  0  0  0  0  0  0  0  0
   48.9865    7.2254   13.8458 N   0  0  0  0  0  0  0  0  0  0  0  0
   49.4992    8.1301   12.9501 C   0  0  0  0  0  0  0  0  0  0  0  0
   48.6051    8.0674   11.7937 C   0  0  0  0  0  0  0  0  0  0  0  0
   47.6599    7.1613   12.0160 C   0  0  0  0  0  0  0  0  0  0  0  0
   47.8884    6.5928   13.3225 C   0  0  0  0  0  0  0  0  0  0  0  0
   50.5931    8.9615   12.9742 C   0  0  0  0  0  0  0  0  0  0  0  0
   53.2187    8.4100   17.0858 C   0  0  0  0  0  0  0  0  0  0  0  0
   49.2678    5.4353   18.5408 C   0  0  0  0  0  0  0  0  0  0  0  0
   47.1027    5.6148   13.8459 C   0  0  0  0  0  0  0  0  0  0  0  0
   50.8402    9.7954   11.7590 C   0  0  0  0  0  0  0  0  0  0  0  0
   51.6674    9.3086   10.7369 C   0  0  0  0  0  0  0  0  0  0  0  0
   51.8883   10.0777    9.5988 C   0  0  0  0  0  0  0  0  0  0  0  0
   51.2996   11.3274    9.4543 C   0  0  0  0  0  0  0  0  0  0  0  0
   50.4721   11.8192   10.4638 C   0  0  0  0  0  0  0  0  0  0  0  0
   50.2450   11.0554   11.6117 C   0  0  0  0  0  0  0  0  0  0  0  0
   45.9504    5.0433   13.1236 C   0  0  0  0  0  0  0  0  0  0  0  0
   46.1380    3.9930   12.2202 C   0  0  0  0  0  0  0  0  0  0  0  0
   45.0413    3.4652   11.5428 C   0  0  0  0  0  0  0  0  0  0  0  0
   43.7597    3.9634   11.7566 C   0  0  0  0  0  0  0  0  0  0  0  0
   43.5700    5.0118   12.6583 C   0  0  0  0  0  0  0  0  0  0  0  0
   44.6634    5.5506   13.3393 C   0  0  0  0  0  0  0  0  0  0  0  0
   45.1959    2.4452   10.6454 O   0  0  0  0  0  0  0  0  0  0  0  0
   52.6893    9.6189    8.5886 O   0  0  0  0  0  0  0  0  0  0  0  0
   57.9250    8.5173   18.3365 O   0  0  0  0  0  0  0  0  0  0  0  0
   47.0921    8.4690   21.7018 O   0  0  0  0  0  0  0  0  0  0  0  0
   53.1597   10.6720   18.5211 H   0  0  0  0  0  0  0  0  0  0  0  0
   55.7953    7.5686   17.1587 H   0  0  0  0  0  0  0  0  0  0  0  0
   57.3091   10.7666   19.6306 H   0  0  0  0  0  0  0  0  0  0  0  0
   55.0495   11.7742   19.7017 H   0  0  0  0  0  0  0  0  0  0  0  0
   48.3415    7.7908   19.4300 H   0  0  0  0  0  0  0  0  0  0  0  0
   46.8130    6.3824   23.2116 H   0  0  0  0  0  0  0  0  0  0  0  0
   47.5659    4.0738   22.6451 H   0  0  0  0  0  0  0  0  0  0  0  0
   48.7115    3.6396   20.4851 H   0  0  0  0  0  0  0  0  0  0  0  0
   53.0538   10.9891   15.7069 H   0  0  0  0  0  0  0  0  0  0  0  0
   54.4228    9.9990   15.1374 H   0  0  0  0  0  0  0  0  0  0  0  0
   52.4481   11.0087   13.5092 H   0  0  0  0  0  0  0  0  0  0  0  0
   53.4316    9.5670   13.1250 H   0  0  0  0  0  0  0  0  0  0  0  0
   50.6783    7.3343   16.7182 H   0  0  0  0  0  0  0  0  0  0  0  0
   51.8001    4.8022   19.9218 H   0  0  0  0  0  0  0  0  0  0  0  0
   53.9018    6.3688   19.2161 H   0  0  0  0  0  0  0  0  0  0  0  0
   49.0796    6.3147   15.6998 H   0  0  0  0  0  0  0  0  0  0  0  0
   45.9333    3.5410   15.6969 H   0  0  0  0  0  0  0  0  0  0  0  0
   47.1114    3.4581   18.1380 H   0  0  0  0  0  0  0  0  0  0  0  0
   48.6869    8.6498   10.8936 H   0  0  0  0  0  0  0  0  0  0  0  0
   46.8694    6.9026   11.3347 H   0  0  0  0  0  0  0  0  0  0  0  0
   52.1148    8.3281   10.8748 H   0  0  0  0  0  0  0  0  0  0  0  0
   51.4781   11.9129    8.5618 H   0  0  0  0  0  0  0  0  0  0  0  0
   49.9988   12.7891   10.3590 H   0  0  0  0  0  0  0  0  0  0  0  0
   49.5962   11.4200   12.4036 H   0  0  0  0  0  0  0  0  0  0  0  0
   47.1462    3.6180   12.0678 H   0  0  0  0  0  0  0  0  0  0  0  0
   42.9151    3.5455   11.2195 H   0  0  0  0  0  0  0  0  0  0  0  0
   42.5769    5.4152   12.8316 H   0  0  0  0  0  0  0  0  0  0  0  0
   44.5293    6.3733   14.0405 H   0  0  0  0  0  0  0  0  0  0  0  0
   46.1542    2.2853   10.5728 H   0  0  0  0  0  0  0  0  0  0  0  0
   52.9504    8.7163    8.8468 H   0  0  0  0  0  0  0  0  0  0  0  0
   58.5442    9.1008   18.8006 H   0  0  0  0  0  0  0  0  0  0  0  0
   47.2734    9.0426   20.9353 H   0  0  0  0  0  0  0  0  0  0  0  0
 25 26  2  0
 26 27  1  0
 27 23  1  0
 28 29  1  0
  1  2  2  0
  3  4  2  0
  7  8  2  0
 14 15  1  0
 29 30  1  0
 30 31  2  0
 31 32  1  0
 32 28  2  0
 15 16  1  0
 29 33  2  0
 17 33  1  0
 16 17  1  0
 14 34  2  0
 22 34  1  0
 17 13  2  0
 27 35  2  0
 19 35  1  0
 18 19  1  0
 24 36  2  0
 32 36  1  0
  8  9  1  0
  4  5  1  0
 37 38  2  0
  9 10  2  0
 38 39  1  0
  2  3  1  0
 39 40  2  0
 10 11  1  0
 40 41  1  0
 19 20  2  0
 41 42  2  0
 42 37  1  0
 33 37  1  0
 20 21  1  0
 21 22  2  0
 43 44  2  0
 22 18  1  0
 44 45  1  0
 23 24  1  0
 45 46  2  0
  5  6  2  0
 46 47  1  0
 11 12  2  0
 47 48  2  0
 48 43  1  0
 36 43  1  0
 12  7  1  0
 45 49  1  0
 13 14  1  0
 39 50  1  0
 35 12  1  0
 34  2  1  0
  6  1  1  0
  4 51  1  0
 24 25  1  0
  8 52  1  0
  1 53  1  0
  3 54  1  0
  5 55  1  0
  6 56  1  0
  7 57  1  0
  9 58  1  0
 10 59  1  0
 11 60  1  0
 15 61  1  0
 15 62  1  0
 16 63  1  0
 16 64  1  0
 18 65  1  0
 20 66  1  0
 21 67  1  0
 23 68  1  0
 25 69  1  0
 26 70  1  0
 30 71  1  0
 31 72  1  0
 38 73  1  0
 40 74  1  0
 41 75  1  0
 42 76  1  0
 44 77  1  0
 46 78  1  0
 47 79  1  0
 48 80  1  0
 49 81  1  0
 50 82  1  0
 51 83  1  0
 52 84  1  0
M  END
> <Uni-Dock RESULT> 
ENERGY=   -4.914  LOWER_BOUND=    5.147  UPPER_BOUND=    7.333
INTER + INTRA:          -4.914
INTER:                  -4.914
INTRA:                   0.000
UNBOUND:                 0.000

$$$$
