
     RDKit          3D

 84 92  0  0  0  0  0  0  0  0999 V2000
   55.9737    8.4157   17.8775 C   0  0  0  0  0  0  0  0  0  0  0  0
   54.6879    8.9610   17.9460 C   0  0  0  0  0  0  0  0  0  0  0  0
   54.4795   10.1560   18.6429 C   0  0  0  0  0  0  0  0  0  0  0  0
   55.5535   10.7935   19.2556 C   0  0  0  0  0  0  0  0  0  0  0  0
   56.8350   10.2571   19.1894 C   0  0  0  0  0  0  0  0  0  0  0  0
   57.0458    9.0632   18.4968 C   0  0  0  0  0  0  0  0  0  0  0  0
   48.3626    5.2354   21.1405 C   0  0  0  0  0  0  0  0  0  0  0  0
   47.7090    5.6433   22.2990 C   0  0  0  0  0  0  0  0  0  0  0  0
   47.3512    6.9779   22.4900 C   0  0  0  0  0  0  0  0  0  0  0  0
   47.6515    7.9162   21.5017 C   0  0  0  0  0  0  0  0  0  0  0  0
   48.3048    7.5171   20.3351 C   0  0  0  0  0  0  0  0  0  0  0  0
   48.6632    6.1754   20.1489 C   0  0  0  0  0  0  0  0  0  0  0  0
   52.0392    8.1877   15.3495 N   0  0  0  0  0  0  0  0  0  0  0  0
   53.1213    8.6397   16.0487 C   0  0  0  0  0  0  0  0  0  0  0  0
   53.8368    9.6748   15.2267 C   0  0  0  0  0  0  0  0  0  0  0  0
   53.3338    9.3939   13.8342 C   0  0  0  0  0  0  0  0  0  0  0  0
   52.0337    8.6348   14.0581 C   0  0  0  0  0  0  0  0  0  0  0  0
   51.3883    6.9666   17.7990 N   0  0  0  0  0  0  0  0  0  0  0  0
   50.8697    6.1438   18.7577 C   0  0  0  0  0  0  0  0  0  0  0  0
   51.8937    5.7880   19.6149 C   0  0  0  0  0  0  0  0  0  0  0  0
   53.0548    6.4985   19.2040 C   0  0  0  0  0  0  0  0  0  0  0  0
   52.6918    7.2560   18.1130 C   0  0  0  0  0  0  0  0  0  0  0  0
   48.6290    5.7104   16.4177 N   0  0  0  0  0  0  0  0  0  0  0  0
   47.6360    5.1375   15.6634 C   0  0  0  0  0  0  0  0  0  0  0  0
   46.9634    4.2322   16.4530 C   0  0  0  0  0  0  0  0  0  0  0  0
   47.5455    4.2921   17.7450 C   0  0  0  0  0  0  0  0  0  0  0  0
   48.5493    5.2424   17.7010 C   0  0  0  0  0  0  0  0  0  0  0  0
   49.3609    7.0071   14.0431 N   0  0  0  0  0  0  0  0  0  0  0  0
   49.9828    7.7370   13.0600 C   0  0  0  0  0  0  0  0  0  0  0  0
   49.1298    7.5898   11.8819 C   0  0  0  0  0  0  0  0  0  0  0  0
   48.1110    6.7863   12.1709 C   0  0  0  0  0  0  0  0  0  0  0  0
   48.2420    6.3824   13.5508 C   0  0  0  0  0  0  0  0  0  0  0  0
   51.1475    8.4646   13.0207 C   0  0  0  0  0  0  0  0  0  0  0  0
   53.5460    8.2967   17.2945 C   0  0  0  0  0  0  0  0  0  0  0  0
   49.3683    5.7611   18.9229 C   0  0  0  0  0  0  0  0  0  0  0  0
   47.3726    5.5254   14.1534 C   0  0  0  0  0  0  0  0  0  0  0  0
   51.5285    9.0844   11.7129 C   0  0  0  0  0  0  0  0  0  0  0  0
   52.3294    8.3653   10.8155 C   0  0  0  0  0  0  0  0  0  0  0  0
   52.7098    8.9462    9.6089 C   0  0  0  0  0  0  0  0  0  0  0  0
   52.2999   10.2329    9.2737 C   0  0  0  0  0  0  0  0  0  0  0  0
   51.4933   10.9536   10.1570 C   0  0  0  0  0  0  0  0  0  0  0  0
   51.1108   10.3796   11.3726 C   0  0  0  0  0  0  0  0  0  0  0  0
   46.1960    4.9578   13.4645 C   0  0  0  0  0  0  0  0  0  0  0  0
   45.0273    5.7190   13.3302 C   0  0  0  0  0  0  0  0  0  0  0  0
   43.9267    5.1784   12.6710 C   0  0  0  0  0  0  0  0  0  0  0  0
   43.9657    3.8858   12.1554 C   0  0  0  0  0  0  0  0  0  0  0  0
   45.1258    3.1214   12.2917 C   0  0  0  0  0  0  0  0  0  0  0  0
   46.2386    3.6580   12.9435 C   0  0  0  0  0  0  0  0  0  0  0  0
   42.7820    5.9084   12.5020 O   0  0  0  0  0  0  0  0  0  0  0  0
   53.5048    8.2661    8.7274 O   0  0  0  0  0  0  0  0  0  0  0  0
   55.3762   11.9713   19.9222 O   0  0  0  0  0  0  0  0  0  0  0  0
   47.4310    4.6986   23.2423 O   0  0  0  0  0  0  0  0  0  0  0  0
   56.1270    7.4901   17.3262 H   0  0  0  0  0  0  0  0  0  0  0  0
   53.4723   10.5613   18.6848 H   0  0  0  0  0  0  0  0  0  0  0  0
   57.6639   10.7703   19.6648 H   0  0  0  0  0  0  0  0  0  0  0  0
   58.0392    8.6332   18.4347 H   0  0  0  0  0  0  0  0  0  0  0  0
   48.6371    4.1945   21.0023 H   0  0  0  0  0  0  0  0  0  0  0  0
   46.8376    7.3037   23.3890 H   0  0  0  0  0  0  0  0  0  0  0  0
   47.3817    8.9595   21.6306 H   0  0  0  0  0  0  0  0  0  0  0  0
   48.5447    8.2507   19.5664 H   0  0  0  0  0  0  0  0  0  0  0  0
   53.5384   10.6815   15.5454 H   0  0  0  0  0  0  0  0  0  0  0  0
   54.9273    9.5999   15.2624 H   0  0  0  0  0  0  0  0  0  0  0  0
   54.0505    8.7532   13.3038 H   0  0  0  0  0  0  0  0  0  0  0  0
   53.2271   10.3322   13.2854 H   0  0  0  0  0  0  0  0  0  0  0  0
   50.9469    7.3502   16.9590 H   0  0  0  0  0  0  0  0  0  0  0  0
   51.8021    5.1353   20.4726 H   0  0  0  0  0  0  0  0  0  0  0  0
   54.0277    6.4844   19.6728 H   0  0  0  0  0  0  0  0  0  0  0  0
   49.2665    6.3973   16.0142 H   0  0  0  0  0  0  0  0  0  0  0  0
   46.1311    3.6184   16.1432 H   0  0  0  0  0  0  0  0  0  0  0  0
   47.2357    3.7326   18.6175 H   0  0  0  0  0  0  0  0  0  0  0  0
   49.3003    8.0371   10.9193 H   0  0  0  0  0  0  0  0  0  0  0  0
   47.3399    6.4767   11.4887 H   0  0  0  0  0  0  0  0  0  0  0  0
   52.6389    7.3638   11.1000 H   0  0  0  0  0  0  0  0  0  0  0  0
   52.6124   10.6751    8.3326 H   0  0  0  0  0  0  0  0  0  0  0  0
   51.1694   11.9594    9.9120 H   0  0  0  0  0  0  0  0  0  0  0  0
   50.4896   10.9268   12.0776 H   0  0  0  0  0  0  0  0  0  0  0  0
   45.0200    6.7290   13.7281 H   0  0  0  0  0  0  0  0  0  0  0  0
   43.0996    3.4781   11.6444 H   0  0  0  0  0  0  0  0  0  0  0  0
   45.1747    2.1145   11.8875 H   0  0  0  0  0  0  0  0  0  0  0  0
   47.1538    3.0777   13.0459 H   0  0  0  0  0  0  0  0  0  0  0  0
   42.9687    6.8007   12.8429 H   0  0  0  0  0  0  0  0  0  0  0  0
   53.6577    7.3883    9.1257 H   0  0  0  0  0  0  0  0  0  0  0  0
   54.4480   12.2295   19.7777 H   0  0  0  0  0  0  0  0  0  0  0  0
   46.9549    5.1316   23.9691 H   0  0  0  0  0  0  0  0  0  0  0  0
 25 26  2  0
 26 27  1  0
 27 23  1  0
 28 29  1  0
  1  2  2  0
  3  4  2  0
  7  8  2  0
 14 15  1  0
 29 30  1  0
 30 31  2  0
 31 32  1  0
 32 28  2  0
 15 16  1  0
 29 33  2  0
 17 33  1  0
 16 17  1  0
 14 34  2  0
 22 34  1  0
 17 13  2  0
 27 35  2  0
 19 35  1  0
 18 19  1  0
 24 36  2  0
 32 36  1  0
  8  9  1  0
  4  5  1  0
 37 38  2  0
  9 10  2  0
 38 39  1  0
  2  3  1  0
 39 40  2  0
 10 11  1  0
 40 41  1  0
 19 20  2  0
 41 42  2  0
 42 37  1  0
 33 37  1  0
 20 21  1  0
 21 22  2  0
 43 44  2  0
 22 18  1  0
 44 45  1  0
 23 24  1  0
 45 46  2  0
  5  6  2  0
 46 47  1  0
 11 12  2  0
 47 48  2  0
 48 43  1  0
 36 43  1  0
 12  7  1  0
 45 49  1  0
 13 14  1  0
 39 50  1  0
 35 12  1  0
 34  2  1  0
  6  1  1  0
  4 51  1  0
 24 25  1  0
  8 52  1  0
  1 53  1  0
  3 54  1  0
  5 55  1  0
  6 56  1  0
  7 57  1  0
  9 58  1  0
 10 59  1  0
 11 60  1  0
 15 61  1  0
 15 62  1  0
 16 63  1  0
 16 64  1  0
 18 65  1  0
 20 66  1  0
 21 67  1  0
 23 68  1  0
 25 69  1  0
 26 70  1  0
 30 71  1  0
 31 72  1  0
 38 73  1  0
 40 74  1  0
 41 75  1  0
 42 76  1  0
 44 77  1  0
 46 78  1  0
 47 79  1  0
 48 80  1  0
 49 81  1  0
 50 82  1  0
 51 83  1  0
 52 84  1  0
M  END
> <Uni-Dock RESULT> 
ENERGY=   -6.318  LOWER_BOUND=    0.000  UPPER_BOUND=    0.000
INTER + INTRA:          -6.318
INTER:                  -6.318
INTRA:                   0.000
UNBOUND:                 0.000

$$$$

     RDKit          3D

 84 92  0  0  0  0  0  0  0  0999 V2000
   43.9740    5.0547   12.5493 C   0  0  0  0  0  0  0  0  0  0  0  0
   44.7772    5.7912   11.6731 C   0  0  0  0  0  0  0  0  0  0  0  0
   45.1568    5.2330   10.4477 C   0  0  0  0  0  0  0  0  0  0  0  0
   44.7269    3.9537   10.1099 C   0  0  0  0  0  0  0  0  0  0  0  0
   43.9264    3.2170   10.9764 C   0  0  0  0  0  0  0  0  0  0  0  0
   43.5481    3.7705   12.2011 C   0  0  0  0  0  0  0  0  0  0  0  0
   52.0990    8.4998   13.4477 C   0  0  0  0  0  0  0  0  0  0  0  0
   53.2718    8.0554   12.8456 C   0  0  0  0  0  0  0  0  0  0  0  0
   53.3663    7.9336   11.4593 C   0  0  0  0  0  0  0  0  0  0  0  0
   52.2676    8.2660   10.6657 C   0  0  0  0  0  0  0  0  0  0  0  0
   51.0874    8.7148   11.2595 C   0  0  0  0  0  0  0  0  0  0  0  0
   50.9974    8.8340   12.6526 C   0  0  0  0  0  0  0  0  0  0  0  0
   44.9027    9.5769   11.7676 N   0  0  0  0  0  0  0  0  0  0  0  0
   44.5677    8.2629   11.6081 C   0  0  0  0  0  0  0  0  0  0  0  0
   43.2848    8.1766   10.8297 C   0  0  0  0  0  0  0  0  0  0  0  0
   42.7028    9.5561   11.0014 C   0  0  0  0  0  0  0  0  0  0  0  0
   43.9012   10.4182   11.3717 C   0  0  0  0  0  0  0  0  0  0  0  0
   47.3287    8.4980   12.6977 N   0  0  0  0  0  0  0  0  0  0  0  0
   48.5298    8.3159   13.3216 C   0  0  0  0  0  0  0  0  0  0  0  0
   48.5165    7.0697   13.9189 C   0  0  0  0  0  0  0  0  0  0  0  0
   47.2905    6.4435   13.5627 C   0  0  0  0  0  0  0  0  0  0  0  0
   46.6066    7.3337   12.7653 C   0  0  0  0  0  0  0  0  0  0  0  0
   48.4882   11.5818   13.1933 N   0  0  0  0  0  0  0  0  0  0  0  0
   48.7496   12.8948   13.4949 C   0  0  0  0  0  0  0  0  0  0  0  0
   49.9531   12.9522   14.1610 C   0  0  0  0  0  0  0  0  0  0  0  0
   50.4575   11.6281   14.2262 C   0  0  0  0  0  0  0  0  0  0  0  0
   49.5459   10.8081   13.5865 C   0  0  0  0  0  0  0  0  0  0  0  0
   46.0441   12.5391   12.2105 N   0  0  0  0  0  0  0  0  0  0  0  0
   44.7756   12.6839   11.7047 C   0  0  0  0  0  0  0  0  0  0  0  0
   44.5533   14.1277   11.6466 C   0  0  0  0  0  0  0  0  0  0  0  0
   45.6166   14.7590   12.1343 C   0  0  0  0  0  0  0  0  0  0  0  0
   46.5864   13.7616   12.5204 C   0  0  0  0  0  0  0  0  0  0  0  0
   43.8055   11.7890   11.3228 C   0  0  0  0  0  0  0  0  0  0  0  0
   45.2312    7.1491   12.0193 C   0  0  0  0  0  0  0  0  0  0  0  0
   49.7435    9.2922   13.2767 C   0  0  0  0  0  0  0  0  0  0  0  0
   47.7811   14.0777   13.0917 C   0  0  0  0  0  0  0  0  0  0  0  0
   42.4944   12.3477   10.8663 C   0  0  0  0  0  0  0  0  0  0  0  0
   41.4718   12.5603   11.8006 C   0  0  0  0  0  0  0  0  0  0  0  0
   40.2406   13.0545   11.3785 C   0  0  0  0  0  0  0  0  0  0  0  0
   40.0094   13.3495   10.0386 C   0  0  0  0  0  0  0  0  0  0  0  0
   41.0256   13.1505    9.1016 C   0  0  0  0  0  0  0  0  0  0  0  0
   42.2631   12.6502    9.5162 C   0  0  0  0  0  0  0  0  0  0  0  0
   48.2117   15.4690   13.3365 C   0  0  0  0  0  0  0  0  0  0  0  0
   48.7470   16.2317   12.2900 C   0  0  0  0  0  0  0  0  0  0  0  0
   49.1414   17.5454   12.5286 C   0  0  0  0  0  0  0  0  0  0  0  0
   49.0251   18.1079   13.7968 C   0  0  0  0  0  0  0  0  0  0  0  0
   48.4978   17.3502   14.8440 C   0  0  0  0  0  0  0  0  0  0  0  0
   48.0906   16.0342   14.6127 C   0  0  0  0  0  0  0  0  0  0  0  0
   49.6425   18.3217   11.5197 O   0  0  0  0  0  0  0  0  0  0  0  0
   39.2249   13.2530   12.2733 O   0  0  0  0  0  0  0  0  0  0  0  0
   45.0677    3.3987    8.9104 O   0  0  0  0  0  0  0  0  0  0  0  0
   54.3250    7.7408   13.6528 O   0  0  0  0  0  0  0  0  0  0  0  0
   43.6775    5.5008   13.4965 H   0  0  0  0  0  0  0  0  0  0  0  0
   45.7821    5.8221    9.7827 H   0  0  0  0  0  0  0  0  0  0  0  0
   43.5921    2.2243   10.6951 H   0  0  0  0  0  0  0  0  0  0  0  0
   42.9229    3.2094   12.8868 H   0  0  0  0  0  0  0  0  0  0  0  0
   52.0360    8.5903   14.5274 H   0  0  0  0  0  0  0  0  0  0  0  0
   54.2788    7.5915   10.9814 H   0  0  0  0  0  0  0  0  0  0  0  0
   52.3203    8.1784    9.5852 H   0  0  0  0  0  0  0  0  0  0  0  0
   50.2277    8.9684   10.6402 H   0  0  0  0  0  0  0  0  0  0  0  0
   43.4984    7.9806    9.7714 H   0  0  0  0  0  0  0  0  0  0  0  0
   42.5878    7.4184   11.1975 H   0  0  0  0  0  0  0  0  0  0  0  0
   41.9793    9.5526   11.8272 H   0  0  0  0  0  0  0  0  0  0  0  0
   42.1895    9.8555   10.0849 H   0  0  0  0  0  0  0  0  0  0  0  0
   46.9540    9.3286   12.2318 H   0  0  0  0  0  0  0  0  0  0  0  0
   49.3213    6.6377   14.4983 H   0  0  0  0  0  0  0  0  0  0  0  0
   46.9656    5.4483   13.8282 H   0  0  0  0  0  0  0  0  0  0  0  0
   47.6268   11.3127   12.7171 H   0  0  0  0  0  0  0  0  0  0  0  0
   50.4279   13.8473   14.5334 H   0  0  0  0  0  0  0  0  0  0  0  0
   51.4007   11.3187   14.6561 H   0  0  0  0  0  0  0  0  0  0  0  0
   43.6645   14.6156   11.2892 H   0  0  0  0  0  0  0  0  0  0  0  0
   45.7230   15.8235   12.2411 H   0  0  0  0  0  0  0  0  0  0  0  0
   41.6748   12.3204   12.8402 H   0  0  0  0  0  0  0  0  0  0  0  0
   39.0408   13.7259    9.7241 H   0  0  0  0  0  0  0  0  0  0  0  0
   40.8592   13.3714    8.0527 H   0  0  0  0  0  0  0  0  0  0  0  0
   43.0648   12.4808    8.8014 H   0  0  0  0  0  0  0  0  0  0  0  0
   48.8187   15.7799   11.3056 H   0  0  0  0  0  0  0  0  0  0  0  0
   49.3372   19.1330   13.9673 H   0  0  0  0  0  0  0  0  0  0  0  0
   48.3928   17.7775   15.8369 H   0  0  0  0  0  0  0  0  0  0  0  0
   47.6662   15.4361   15.4170 H   0  0  0  0  0  0  0  0  0  0  0  0
   49.5677   17.7978   10.7028 H   0  0  0  0  0  0  0  0  0  0  0  0
   39.5881   13.0183   13.1482 H   0  0  0  0  0  0  0  0  0  0  0  0
   45.5394    4.0913    8.4135 H   0  0  0  0  0  0  0  0  0  0  0  0
   55.0681    7.4764   13.0867 H   0  0  0  0  0  0  0  0  0  0  0  0
 25 26  2  0
 26 27  1  0
 27 23  1  0
 28 29  1  0
  1  2  2  0
  3  4  2  0
  7  8  2  0
 14 15  1  0
 29 30  1  0
 30 31  2  0
 31 32  1  0
 32 28  2  0
 15 16  1  0
 29 33  2  0
 17 33  1  0
 16 17  1  0
 14 34  2  0
 22 34  1  0
 17 13  2  0
 27 35  2  0
 19 35  1  0
 18 19  1  0
 24 36  2  0
 32 36  1  0
  8  9  1  0
  4  5  1  0
 37 38  2  0
  9 10  2  0
 38 39  1  0
  2  3  1  0
 39 40  2  0
 10 11  1  0
 40 41  1  0
 19 20  2  0
 41 42  2  0
 42 37  1  0
 33 37  1  0
 20 21  1  0
 21 22  2  0
 43 44  2  0
 22 18  1  0
 44 45  1  0
 23 24  1  0
 45 46  2  0
  5  6  2  0
 46 47  1  0
 11 12  2  0
 47 48  2  0
 48 43  1  0
 36 43  1  0
 12  7  1  0
 45 49  1  0
 13 14  1  0
 39 50  1  0
 35 12  1  0
 34  2  1  0
  6  1  1  0
  4 51  1  0
 24 25  1  0
  8 52  1  0
  1 53  1  0
  3 54  1  0
  5 55  1  0
  6 56  1  0
  7 57  1  0
  9 58  1  0
 10 59  1  0
 11 60  1  0
 15 61  1  0
 15 62  1  0
 16 63  1  0
 16 64  1  0
 18 65  1  0
 20 66  1  0
 21 67  1  0
 23 68  1  0
 25 69  1  0
 26 70  1  0
 30 71  1  0
 31 72  1  0
 38 73  1  0
 40 74  1  0
 41 75  1  0
 42 76  1  0
 44 77  1  0
 46 78  1  0
 47 79  1  0
 48 80  1  0
 49 81  1  0
 50 82  1  0
 51 83  1  0
 52 84  1  0
M  END
> <Uni-Dock RESULT> 
ENERGY=   -6.022  LOWER_BOUND=    5.404  UPPER_BOUND=   11.008
INTER + INTRA:          -6.022
INTER:                  -6.022
INTRA:                   0.000
UNBOUND:                 0.000

$$$$

     RDKit          3D

 84 92  0  0  0  0  0  0  0  0999 V2000
   50.9235    8.0380   16.3555 C   0  0  0  0  0  0  0  0  0  0  0  0
   50.8497    8.5141   15.0427 C   0  0  0  0  0  0  0  0  0  0  0  0
   51.9638    8.4050   14.2036 C   0  0  0  0  0  0  0  0  0  0  0  0
   53.1318    7.8187   14.6805 C   0  0  0  0  0  0  0  0  0  0  0  0
   53.2106    7.3416   15.9846 C   0  0  0  0  0  0  0  0  0  0  0  0
   52.1013    7.4514   16.8253 C   0  0  0  0  0  0  0  0  0  0  0  0
   49.2962   16.1167   13.0725 C   0  0  0  0  0  0  0  0  0  0  0  0
   50.2054   16.9751   12.4626 C   0  0  0  0  0  0  0  0  0  0  0  0
   50.9505   16.5649   11.3571 C   0  0  0  0  0  0  0  0  0  0  0  0
   50.7778   15.2744   10.8548 C   0  0  0  0  0  0  0  0  0  0  0  0
   49.8667   14.4064   11.4578 C   0  0  0  0  0  0  0  0  0  0  0  0
   49.1218   14.8231   12.5689 C   0  0  0  0  0  0  0  0  0  0  0  0
   47.5485    8.8575   13.2151 N   0  0  0  0  0  0  0  0  0  0  0  0
   48.6877    8.4213   13.8286 C   0  0  0  0  0  0  0  0  0  0  0  0
   48.8315    6.9431   13.5982 C   0  0  0  0  0  0  0  0  0  0  0  0
   47.4310    6.5310   13.2241 C   0  0  0  0  0  0  0  0  0  0  0  0
   46.7776    7.8250   12.7604 C   0  0  0  0  0  0  0  0  0  0  0  0
   48.5967   11.3975   13.8193 N   0  0  0  0  0  0  0  0  0  0  0  0
   48.7370   12.7309   14.0788 C   0  0  0  0  0  0  0  0  0  0  0  0
   49.5493   12.8671   15.1885 C   0  0  0  0  0  0  0  0  0  0  0  0
   49.9857   11.5644   15.5552 C   0  0  0  0  0  0  0  0  0  0  0  0
   49.4204   10.6882   14.6559 C   0  0  0  0  0  0  0  0  0  0  0  0
   45.9503   12.8127   12.3725 N   0  0  0  0  0  0  0  0  0  0  0  0
   44.7326   13.2306   11.8972 C   0  0  0  0  0  0  0  0  0  0  0  0
   44.6467   14.5935   12.0723 C   0  0  0  0  0  0  0  0  0  0  0  0
   45.8765   15.0201   12.6358 C   0  0  0  0  0  0  0  0  0  0  0  0
   46.6761   13.9003   12.7755 C   0  0  0  0  0  0  0  0  0  0  0  0
   45.0273   10.2310   11.7902 N   0  0  0  0  0  0  0  0  0  0  0  0
   44.8519    8.8747   11.6654 C   0  0  0  0  0  0  0  0  0  0  0  0
   43.5763    8.7201   10.9682 C   0  0  0  0  0  0  0  0  0  0  0  0
   43.0414    9.9180   10.7535 C   0  0  0  0  0  0  0  0  0  0  0  0
   43.9455   10.9096   11.2863 C   0  0  0  0  0  0  0  0  0  0  0  0
   45.5886    7.7880   12.0706 C   0  0  0  0  0  0  0  0  0  0  0  0
   49.6151    9.1300   14.5270 C   0  0  0  0  0  0  0  0  0  0  0  0
   48.1732   13.8975   13.2132 C   0  0  0  0  0  0  0  0  0  0  0  0
   43.6754   12.2436   11.2584 C   0  0  0  0  0  0  0  0  0  0  0  0
   45.0228    6.4306   11.7941 C   0  0  0  0  0  0  0  0  0  0  0  0
   44.1990    5.8186   12.7484 C   0  0  0  0  0  0  0  0  0  0  0  0
   43.6911    4.5446   12.5092 C   0  0  0  0  0  0  0  0  0  0  0  0
   43.9831    3.8681   11.3290 C   0  0  0  0  0  0  0  0  0  0  0  0
   44.7947    4.4738   10.3675 C   0  0  0  0  0  0  0  0  0  0  0  0
   45.3126    5.7507   10.6018 C   0  0  0  0  0  0  0  0  0  0  0  0
   42.4519   12.8034   10.6494 C   0  0  0  0  0  0  0  0  0  0  0  0
   42.3733   12.9703    9.2604 C   0  0  0  0  0  0  0  0  0  0  0  0
   41.2120   13.4901    8.6951 C   0  0  0  0  0  0  0  0  0  0  0  0
   40.1323   13.8604    9.4921 C   0  0  0  0  0  0  0  0  0  0  0  0
   40.2081   13.7014   10.8770 C   0  0  0  0  0  0  0  0  0  0  0  0
   41.3653   13.1722   11.4531 C   0  0  0  0  0  0  0  0  0  0  0  0
   41.0974   13.6391    7.3400 O   0  0  0  0  0  0  0  0  0  0  0  0
   42.8988    3.9243   13.4360 O   0  0  0  0  0  0  0  0  0  0  0  0
   54.2231    7.6826   13.8721 O   0  0  0  0  0  0  0  0  0  0  0  0
   50.3469   18.2288   12.9803 O   0  0  0  0  0  0  0  0  0  0  0  0
   50.0490    8.1202   16.9978 H   0  0  0  0  0  0  0  0  0  0  0  0
   51.8850    8.7826   13.1879 H   0  0  0  0  0  0  0  0  0  0  0  0
   54.1254    6.8791   16.3393 H   0  0  0  0  0  0  0  0  0  0  0  0
   52.1465    7.0828   17.8440 H   0  0  0  0  0  0  0  0  0  0  0  0
   48.7219   16.4459   13.9326 H   0  0  0  0  0  0  0  0  0  0  0  0
   51.6590   17.2296   10.8731 H   0  0  0  0  0  0  0  0  0  0  0  0
   51.3475   14.9356    9.9955 H   0  0  0  0  0  0  0  0  0  0  0  0
   49.7364   13.3970   11.0694 H   0  0  0  0  0  0  0  0  0  0  0  0
   49.5205    6.7567   12.7647 H   0  0  0  0  0  0  0  0  0  0  0  0
   49.1741    6.3844   14.4737 H   0  0  0  0  0  0  0  0  0  0  0  0
   46.9082    6.1486   14.1107 H   0  0  0  0  0  0  0  0  0  0  0  0
   47.4688    5.7416   12.4701 H   0  0  0  0  0  0  0  0  0  0  0  0
   48.0023   10.9246   13.1333 H   0  0  0  0  0  0  0  0  0  0  0  0
   49.8405   13.8021   15.6480 H   0  0  0  0  0  0  0  0  0  0  0  0
   50.6605   11.3047   16.3574 H   0  0  0  0  0  0  0  0  0  0  0  0
   46.2094   11.8259   12.3601 H   0  0  0  0  0  0  0  0  0  0  0  0
   43.8066   15.2146   11.8007 H   0  0  0  0  0  0  0  0  0  0  0  0
   46.1580   16.0374   12.8724 H   0  0  0  0  0  0  0  0  0  0  0  0
   43.1193    7.7884   10.6875 H   0  0  0  0  0  0  0  0  0  0  0  0
   42.0929   10.1094   10.2851 H   0  0  0  0  0  0  0  0  0  0  0  0
   43.9872    6.3650   13.6628 H   0  0  0  0  0  0  0  0  0  0  0  0
   43.5863    2.8714   11.1613 H   0  0  0  0  0  0  0  0  0  0  0  0
   45.0351    3.9573    9.4444 H   0  0  0  0  0  0  0  0  0  0  0  0
   45.9529    6.2367    9.8695 H   0  0  0  0  0  0  0  0  0  0  0  0
   43.2206   12.6647    8.6545 H   0  0  0  0  0  0  0  0  0  0  0  0
   39.2341   14.2645    9.0369 H   0  0  0  0  0  0  0  0  0  0  0  0
   39.3711   13.9777   11.5115 H   0  0  0  0  0  0  0  0  0  0  0  0
   41.4332   13.0312   12.5303 H   0  0  0  0  0  0  0  0  0  0  0  0
   41.9005   13.2526    6.9491 H   0  0  0  0  0  0  0  0  0  0  0  0
   42.7908    4.5620   14.1669 H   0  0  0  0  0  0  0  0  0  0  0  0
   53.9461    7.9818   12.9873 H   0  0  0  0  0  0  0  0  0  0  0  0
   50.9904   18.7079   12.4338 H   0  0  0  0  0  0  0  0  0  0  0  0
 25 26  2  0
 26 27  1  0
 27 23  1  0
 28 29  1  0
  1  2  2  0
  3  4  2  0
  7  8  2  0
 14 15  1  0
 29 30  1  0
 30 31  2  0
 31 32  1  0
 32 28  2  0
 15 16  1  0
 29 33  2  0
 17 33  1  0
 16 17  1  0
 14 34  2  0
 22 34  1  0
 17 13  2  0
 27 35  2  0
 19 35  1  0
 18 19  1  0
 24 36  2  0
 32 36  1  0
  8  9  1  0
  4  5  1  0
 37 38  2  0
  9 10  2  0
 38 39  1  0
  2  3  1  0
 39 40  2  0
 10 11  1  0
 40 41  1  0
 19 20  2  0
 41 42  2  0
 42 37  1  0
 33 37  1  0
 20 21  1  0
 21 22  2  0
 43 44  2  0
 22 18  1  0
 44 45  1  0
 23 24  1  0
 45 46  2  0
  5  6  2  0
 46 47  1  0
 11 12  2  0
 47 48  2  0
 48 43  1  0
 36 43  1  0
 12  7  1  0
 45 49  1  0
 13 14  1  0
 39 50  1  0
 35 12  1  0
 34  2  1  0
  6  1  1  0
  4 51  1  0
 24 25  1  0
  8 52  1  0
  1 53  1  0
  3 54  1  0
  5 55  1  0
  6 56  1  0
  7 57  1  0
  9 58  1  0
 10 59  1  0
 11 60  1  0
 15 61  1  0
 15 62  1  0
 16 63  1  0
 16 64  1  0
 18 65  1  0
 20 66  1  0
 21 67  1  0
 23 68  1  0
 25 69  1  0
 26 70  1  0
 30 71  1  0
 31 72  1  0
 38 73  1  0
 40 74  1  0
 41 75  1  0
 42 76  1  0
 44 77  1  0
 46 78  1  0
 47 79  1  0
 48 80  1  0
 49 81  1  0
 50 82  1  0
 51 83  1  0
 52 84  1  0
M  END
> <Uni-Dock RESULT> 
ENERGY=   -5.870  LOWER_BOUND=    5.337  UPPER_BOUND=    9.144
INTER + INTRA:          -5.870
INTER:                  -5.870
INTRA:                   0.000
UNBOUND:                 0.000

$$$$

     RDKit          3D

 84 92  0  0  0  0  0  0  0  0999 V2000
   50.9255    8.0413   16.3463 C   0  0  0  0  0  0  0  0  0  0  0  0
   50.8498    8.5169   15.0335 C   0  0  0  0  0  0  0  0  0  0  0  0
   51.9631    8.4086   14.1932 C   0  0  0  0  0  0  0  0  0  0  0  0
   53.1322    7.8238   14.6691 C   0  0  0  0  0  0  0  0  0  0  0  0
   53.2130    7.3472   15.9732 C   0  0  0  0  0  0  0  0  0  0  0  0
   52.1045    7.4562   16.8151 C   0  0  0  0  0  0  0  0  0  0  0  0
   49.2858   16.1171   13.0623 C   0  0  0  0  0  0  0  0  0  0  0  0
   50.1935   16.9762   12.4510 C   0  0  0  0  0  0  0  0  0  0  0  0
   50.9379   16.5664   11.3449 C   0  0  0  0  0  0  0  0  0  0  0  0
   50.7659   15.2756   10.8432 C   0  0  0  0  0  0  0  0  0  0  0  0
   49.8565   14.4068   11.4475 C   0  0  0  0  0  0  0  0  0  0  0  0
   49.1124   14.8231   12.5593 C   0  0  0  0  0  0  0  0  0  0  0  0
   47.5463    8.8560   13.2094 N   0  0  0  0  0  0  0  0  0  0  0  0
   48.6865    8.4213   13.8217 C   0  0  0  0  0  0  0  0  0  0  0  0
   48.8317    6.9431   13.5917 C   0  0  0  0  0  0  0  0  0  0  0  0
   47.4313    6.5293   13.2193 C   0  0  0  0  0  0  0  0  0  0  0  0
   46.7759    7.8225   12.7558 C   0  0  0  0  0  0  0  0  0  0  0  0
   48.5923   11.3973   13.8115 N   0  0  0  0  0  0  0  0  0  0  0  0
   48.7315   12.7309   14.0703 C   0  0  0  0  0  0  0  0  0  0  0  0
   49.5448   12.8684   15.1791 C   0  0  0  0  0  0  0  0  0  0  0  0
   49.9830   11.5663   15.5458 C   0  0  0  0  0  0  0  0  0  0  0  0
   49.4177   10.6892   14.6474 C   0  0  0  0  0  0  0  0  0  0  0  0
   45.9428   12.8092   12.3670 N   0  0  0  0  0  0  0  0  0  0  0  0
   44.7242   13.2256   11.8929 C   0  0  0  0  0  0  0  0  0  0  0  0
   44.6370   14.5884   12.0677 C   0  0  0  0  0  0  0  0  0  0  0  0
   45.8670   15.0165   12.6296 C   0  0  0  0  0  0  0  0  0  0  0  0
   46.6678   13.8977   12.7689 C   0  0  0  0  0  0  0  0  0  0  0  0
   45.0220   10.2263   11.7867 N   0  0  0  0  0  0  0  0  0  0  0  0
   44.8480    8.8697   11.6626 C   0  0  0  0  0  0  0  0  0  0  0  0
   43.5718    8.7135   10.9668 C   0  0  0  0  0  0  0  0  0  0  0  0
   43.0354    9.9107   10.7523 C   0  0  0  0  0  0  0  0  0  0  0  0
   43.9389   10.9035   11.2837 C   0  0  0  0  0  0  0  0  0  0  0  0
   45.5863    7.7840   12.0673 C   0  0  0  0  0  0  0  0  0  0  0  0
   49.6139    9.1312   14.5189 C   0  0  0  0  0  0  0  0  0  0  0  0
   48.1655   13.8967   13.2050 C   0  0  0  0  0  0  0  0  0  0  0  0
   43.6674   12.2372   11.2556 C   0  0  0  0  0  0  0  0  0  0  0  0
   45.0216    6.4258   11.7919 C   0  0  0  0  0  0  0  0  0  0  0  0
   44.1995    5.8132   12.7474 C   0  0  0  0  0  0  0  0  0  0  0  0
   43.6928    4.5386   12.5092 C   0  0  0  0  0  0  0  0  0  0  0  0
   43.9842    3.8620   11.3289 C   0  0  0  0  0  0  0  0  0  0  0  0
   44.7941    4.4683   10.3663 C   0  0  0  0  0  0  0  0  0  0  0  0
   45.3109    5.7458   10.5996 C   0  0  0  0  0  0  0  0  0  0  0  0
   42.4426   12.7954   10.6478 C   0  0  0  0  0  0  0  0  0  0  0  0
   42.3622   12.9618    9.2587 C   0  0  0  0  0  0  0  0  0  0  0  0
   41.1998   13.4801    8.6945 C   0  0  0  0  0  0  0  0  0  0  0  0
   40.1206   13.8495    9.4926 C   0  0  0  0  0  0  0  0  0  0  0  0
   40.1980   13.6911   10.8774 C   0  0  0  0  0  0  0  0  0  0  0  0
   41.3564   13.1634   11.4525 C   0  0  0  0  0  0  0  0  0  0  0  0
   41.0835   13.6285    7.3395 O   0  0  0  0  0  0  0  0  0  0  0  0
   42.9021    3.9178   13.4371 O   0  0  0  0  0  0  0  0  0  0  0  0
   54.2228    7.6886   13.8595 O   0  0  0  0  0  0  0  0  0  0  0  0
   50.3342   18.2302   12.9681 O   0  0  0  0  0  0  0  0  0  0  0  0
   50.0517    8.1228   16.9895 H   0  0  0  0  0  0  0  0  0  0  0  0
   51.8828    8.7858   13.1775 H   0  0  0  0  0  0  0  0  0  0  0  0
   54.1286    6.8858   16.3271 H   0  0  0  0  0  0  0  0  0  0  0  0
   52.1512    7.0879   17.8339 H   0  0  0  0  0  0  0  0  0  0  0  0
   48.7122   16.4459   13.9229 H   0  0  0  0  0  0  0  0  0  0  0  0
   51.6451   17.2317   10.8598 H   0  0  0  0  0  0  0  0  0  0  0  0
   51.3352   14.9370    9.9835 H   0  0  0  0  0  0  0  0  0  0  0  0
   49.7269   13.3971   11.0596 H   0  0  0  0  0  0  0  0  0  0  0  0
   49.5200    6.7572   12.7575 H   0  0  0  0  0  0  0  0  0  0  0  0
   49.1759    6.3851   14.4670 H   0  0  0  0  0  0  0  0  0  0  0  0
   46.9099    6.1468   14.1066 H   0  0  0  0  0  0  0  0  0  0  0  0
   47.4691    5.7398   12.4655 H   0  0  0  0  0  0  0  0  0  0  0  0
   47.9977   10.9235   13.1263 H   0  0  0  0  0  0  0  0  0  0  0  0
   49.8355   13.8039   15.6379 H   0  0  0  0  0  0  0  0  0  0  0  0
   50.6590   11.3077   16.3474 H   0  0  0  0  0  0  0  0  0  0  0  0
   46.2030   11.8226   12.3547 H   0  0  0  0  0  0  0  0  0  0  0  0
   43.7958   15.2085   11.7967 H   0  0  0  0  0  0  0  0  0  0  0  0
   46.1476   16.0342   12.8655 H   0  0  0  0  0  0  0  0  0  0  0  0
   43.1154    7.7812   10.6869 H   0  0  0  0  0  0  0  0  0  0  0  0
   42.0861   10.1009   10.2848 H   0  0  0  0  0  0  0  0  0  0  0  0
   43.9881    6.3598   13.6618 H   0  0  0  0  0  0  0  0  0  0  0  0
   43.5883    2.8648   11.1620 H   0  0  0  0  0  0  0  0  0  0  0  0
   45.0340    3.9517    9.4431 H   0  0  0  0  0  0  0  0  0  0  0  0
   45.9498    6.2322    9.8664 H   0  0  0  0  0  0  0  0  0  0  0  0
   43.2092   12.6569    8.6520 H   0  0  0  0  0  0  0  0  0  0  0  0
   39.2214   14.2524    9.0382 H   0  0  0  0  0  0  0  0  0  0  0  0
   39.3614   13.9667   11.5127 H   0  0  0  0  0  0  0  0  0  0  0  0
   41.4257   13.0228   12.5296 H   0  0  0  0  0  0  0  0  0  0  0  0
   41.8867   13.2427    6.9478 H   0  0  0  0  0  0  0  0  0  0  0  0
   42.7943    4.5557   14.1678 H   0  0  0  0  0  0  0  0  0  0  0  0
   53.9445    7.9871   12.9749 H   0  0  0  0  0  0  0  0  0  0  0  0
   50.9766   18.7099   12.4207 H   0  0  0  0  0  0  0  0  0  0  0  0
 25 26  2  0
 26 27  1  0
 27 23  1  0
 28 29  1  0
  1  2  2  0
  3  4  2  0
  7  8  2  0
 14 15  1  0
 29 30  1  0
 30 31  2  0
 31 32  1  0
 32 28  2  0
 15 16  1  0
 29 33  2  0
 17 33  1  0
 16 17  1  0
 14 34  2  0
 22 34  1  0
 17 13  2  0
 27 35  2  0
 19 35  1  0
 18 19  1  0
 24 36  2  0
 32 36  1  0
  8  9  1  0
  4  5  1  0
 37 38  2  0
  9 10  2  0
 38 39  1  0
  2  3  1  0
 39 40  2  0
 10 11  1  0
 40 41  1  0
 19 20  2  0
 41 42  2  0
 42 37  1  0
 33 37  1  0
 20 21  1  0
 21 22  2  0
 43 44  2  0
 22 18  1  0
 44 45  1  0
 23 24  1  0
 45 46  2  0
  5  6  2  0
 46 47  1  0
 11 12  2  0
 47 48  2  0
 48 43  1  0
 36 43  1  0
 12  7  1  0
 45 49  1  0
 13 14  1  0
 39 50  1  0
 35 12  1  0
 34  2  1  0
  6  1  1  0
  4 51  1  0
 24 25  1  0
  8 52  1  0
  1 53  1  0
  3 54  1  0
  5 55  1  0
  6 56  1  0
  7 57  1  0
  9 58  1  0
 10 59  1  0
 11 60  1  0
 15 61  1  0
 15 62  1  0
 16 63  1  0
 16 64  1  0
 18 65  1  0
 20 66  1  0
 21 67  1  0
 23 68  1  0
 25 69  1  0
 26 70  1  0
 30 71  1  0
 31 72  1  0
 38 73  1  0
 40 74  1  0
 41 75  1  0
 42 76  1  0
 44 77  1  0
 46 78  1  0
 47 79  1  0
 48 80  1  0
 49 81  1  0
 50 82  1  0
 51 83  1  0
 52 84  1  0
M  END
> <Uni-Dock RESULT> 
ENERGY=   -5.863  LOWER_BOUND=    5.336  UPPER_BOUND=    9.146
INTER + INTRA:          -5.863
INTER:                  -5.863
INTRA:                   0.000
UNBOUND:                 0.000

$$$$

     RDKit          3D

 84 92  0  0  0  0  0  0  0  0999 V2000
   50.4899   14.9374   16.4298 C   0  0  0  0  0  0  0  0  0  0  0  0
   50.7315   14.1438   15.3041 C   0  0  0  0  0  0  0  0  0  0  0  0
   51.8354   14.4168   14.4891 C   0  0  0  0  0  0  0  0  0  0  0  0
   52.6852   15.4707   14.8093 C   0  0  0  0  0  0  0  0  0  0  0  0
   52.4512   16.2624   15.9286 C   0  0  0  0  0  0  0  0  0  0  0  0
   51.3489   15.9939   16.7425 C   0  0  0  0  0  0  0  0  0  0  0  0
   45.6200   13.2764    9.2037 C   0  0  0  0  0  0  0  0  0  0  0  0
   45.8480   13.7392    7.9117 C   0  0  0  0  0  0  0  0  0  0  0  0
   47.0643   13.5072    7.2695 C   0  0  0  0  0  0  0  0  0  0  0  0
   48.0654   12.7971    7.9336 C   0  0  0  0  0  0  0  0  0  0  0  0
   47.8461   12.3266    9.2288 C   0  0  0  0  0  0  0  0  0  0  0  0
   46.6229   12.5637    9.8698 C   0  0  0  0  0  0  0  0  0  0  0  0
   49.4355   10.5935   15.0359 N   0  0  0  0  0  0  0  0  0  0  0  0
   50.1047   11.7432   15.3436 C   0  0  0  0  0  0  0  0  0  0  0  0
   51.2899   11.4037   16.2032 C   0  0  0  0  0  0  0  0  0  0  0  0
   50.9310   10.0397   16.7341 C   0  0  0  0  0  0  0  0  0  0  0  0
   49.8954    9.5208   15.7467 C   0  0  0  0  0  0  0  0  0  0  0  0
   48.0513   12.2734   13.2535 N   0  0  0  0  0  0  0  0  0  0  0  0
   47.1144   12.8135   12.4195 C   0  0  0  0  0  0  0  0  0  0  0  0
   46.9804   14.1518   12.7370 C   0  0  0  0  0  0  0  0  0  0  0  0
   47.9412   14.4456   13.7433 C   0  0  0  0  0  0  0  0  0  0  0  0
   48.6194   13.2749   13.9990 C   0  0  0  0  0  0  0  0  0  0  0  0
   46.2359    9.6703   12.2398 N   0  0  0  0  0  0  0  0  0  0  0  0
   45.4700    8.5463   12.0569 C   0  0  0  0  0  0  0  0  0  0  0  0
   44.4214    8.8704   11.2257 C   0  0  0  0  0  0  0  0  0  0  0  0
   44.5848   10.2308   10.8589 C   0  0  0  0  0  0  0  0  0  0  0  0
   45.7367   10.6875   11.4731 C   0  0  0  0  0  0  0  0  0  0  0  0
   47.7104    8.0890   14.0234 N   0  0  0  0  0  0  0  0  0  0  0  0
   48.5804    7.6039   14.9688 C   0  0  0  0  0  0  0  0  0  0  0  0
   48.2691    6.1795   15.0748 C   0  0  0  0  0  0  0  0  0  0  0  0
   47.2520    5.8878   14.2701 C   0  0  0  0  0  0  0  0  0  0  0  0
   46.8606    7.1008   13.5921 C   0  0  0  0  0  0  0  0  0  0  0  0
   49.5514    8.1895   15.7447 C   0  0  0  0  0  0  0  0  0  0  0  0
   49.8411   13.0216   14.9612 C   0  0  0  0  0  0  0  0  0  0  0  0
   46.4016   12.0798   11.2440 C   0  0  0  0  0  0  0  0  0  0  0  0
   45.8187    7.1527   12.7174 C   0  0  0  0  0  0  0  0  0  0  0  0
   50.2665    7.3170   16.7278 C   0  0  0  0  0  0  0  0  0  0  0  0
   49.7632    7.1869   18.0293 C   0  0  0  0  0  0  0  0  0  0  0  0
   50.4384    6.3982   18.9568 C   0  0  0  0  0  0  0  0  0  0  0  0
   51.6068    5.7272   18.6095 C   0  0  0  0  0  0  0  0  0  0  0  0
   52.1106    5.8425   17.3122 C   0  0  0  0  0  0  0  0  0  0  0  0
   51.4415    6.6361   16.3763 C   0  0  0  0  0  0  0  0  0  0  0  0
   45.0155    5.9682   12.3530 C   0  0  0  0  0  0  0  0  0  0  0  0
   45.4977    5.0597   11.4014 C   0  0  0  0  0  0  0  0  0  0  0  0
   44.7373    3.9411   11.0716 C   0  0  0  0  0  0  0  0  0  0  0  0
   43.4968    3.7198   11.6635 C   0  0  0  0  0  0  0  0  0  0  0  0
   43.0094    4.6251   12.6078 C   0  0  0  0  0  0  0  0  0  0  0  0
   43.7688    5.7456   12.9523 C   0  0  0  0  0  0  0  0  0  0  0  0
   45.1951    3.0238   10.1658 O   0  0  0  0  0  0  0  0  0  0  0  0
   49.9715    6.2723   20.2365 O   0  0  0  0  0  0  0  0  0  0  0  0
   53.7799   15.7410   14.0401 O   0  0  0  0  0  0  0  0  0  0  0  0
   44.8465   14.4283    7.2937 O   0  0  0  0  0  0  0  0  0  0  0  0
   49.6334   14.7118   17.0619 H   0  0  0  0  0  0  0  0  0  0  0  0
   52.0035   13.7886   13.6188 H   0  0  0  0  0  0  0  0  0  0  0  0
   53.1278   17.0750   16.1701 H   0  0  0  0  0  0  0  0  0  0  0  0
   51.1539   16.6009   17.6196 H   0  0  0  0  0  0  0  0  0  0  0  0
   44.6701   13.4630    9.6944 H   0  0  0  0  0  0  0  0  0  0  0  0
   47.2488   13.8614    6.2603 H   0  0  0  0  0  0  0  0  0  0  0  0
   49.0188   12.6057    7.4518 H   0  0  0  0  0  0  0  0  0  0  0  0
   48.6299   11.7777    9.7494 H   0  0  0  0  0  0  0  0  0  0  0  0
   52.1976   11.3484   15.5891 H   0  0  0  0  0  0  0  0  0  0  0  0
   51.4607   12.1025   17.0270 H   0  0  0  0  0  0  0  0  0  0  0  0
   50.4780   10.1371   17.7294 H   0  0  0  0  0  0  0  0  0  0  0  0
   51.8321    9.4279   16.8158 H   0  0  0  0  0  0  0  0  0  0  0  0
   48.3427   11.2986   13.3644 H   0  0  0  0  0  0  0  0  0  0  0  0
   46.3069   14.8506   12.2593 H   0  0  0  0  0  0  0  0  0  0  0  0
   48.1363   15.4056   14.1980 H   0  0  0  0  0  0  0  0  0  0  0  0
   47.0562    9.6550   12.8465 H   0  0  0  0  0  0  0  0  0  0  0  0
   43.6429    8.1982   10.8979 H   0  0  0  0  0  0  0  0  0  0  0  0
   43.9530   10.7972   10.1881 H   0  0  0  0  0  0  0  0  0  0  0  0
   48.7622    5.4716   15.7164 H   0  0  0  0  0  0  0  0  0  0  0  0
   46.7910    4.9225   14.1623 H   0  0  0  0  0  0  0  0  0  0  0  0
   48.8513    7.7220   18.2777 H   0  0  0  0  0  0  0  0  0  0  0  0
   52.1264    5.1230   19.3470 H   0  0  0  0  0  0  0  0  0  0  0  0
   53.0229    5.3292   17.0275 H   0  0  0  0  0  0  0  0  0  0  0  0
   51.8214    6.7453   15.3632 H   0  0  0  0  0  0  0  0  0  0  0  0
   46.4723    5.2428   10.9598 H   0  0  0  0  0  0  0  0  0  0  0  0
   42.9154    2.8436   11.3958 H   0  0  0  0  0  0  0  0  0  0  0  0
   42.0473    4.4619   13.0846 H   0  0  0  0  0  0  0  0  0  0  0  0
   43.4067    6.4529   13.6962 H   0  0  0  0  0  0  0  0  0  0  0  0
   46.0997    3.2945    9.9293 H   0  0  0  0  0  0  0  0  0  0  0  0
   49.1426    6.7864   20.2717 H   0  0  0  0  0  0  0  0  0  0  0  0
   53.8261   15.0325   13.3729 H   0  0  0  0  0  0  0  0  0  0  0  0
   45.1473   14.6567    6.3994 H   0  0  0  0  0  0  0  0  0  0  0  0
 25 26  2  0
 26 27  1  0
 27 23  1  0
 28 29  1  0
  1  2  2  0
  3  4  2  0
  7  8  2  0
 14 15  1  0
 29 30  1  0
 30 31  2  0
 31 32  1  0
 32 28  2  0
 15 16  1  0
 29 33  2  0
 17 33  1  0
 16 17  1  0
 14 34  2  0
 22 34  1  0
 17 13  2  0
 27 35  2  0
 19 35  1  0
 18 19  1  0
 24 36  2  0
 32 36  1  0
  8  9  1  0
  4  5  1  0
 37 38  2  0
  9 10  2  0
 38 39  1  0
  2  3  1  0
 39 40  2  0
 10 11  1  0
 40 41  1  0
 19 20  2  0
 41 42  2  0
 42 37  1  0
 33 37  1  0
 20 21  1  0
 21 22  2  0
 43 44  2  0
 22 18  1  0
 44 45  1  0
 23 24  1  0
 45 46  2  0
  5  6  2  0
 46 47  1  0
 11 12  2  0
 47 48  2  0
 48 43  1  0
 36 43  1  0
 12  7  1  0
 45 49  1  0
 13 14  1  0
 39 50  1  0
 35 12  1  0
 34  2  1  0
  6  1  1  0
  4 51  1  0
 24 25  1  0
  8 52  1  0
  1 53  1  0
  3 54  1  0
  5 55  1  0
  6 56  1  0
  7 57  1  0
  9 58  1  0
 10 59  1  0
 11 60  1  0
 15 61  1  0
 15 62  1  0
 16 63  1  0
 16 64  1  0
 18 65  1  0
 20 66  1  0
 21 67  1  0
 23 68  1  0
 25 69  1  0
 26 70  1  0
 30 71  1  0
 31 72  1  0
 38 73  1  0
 40 74  1  0
 41 75  1  0
 42 76  1  0
 44 77  1  0
 46 78  1  0
 47 79  1  0
 48 80  1  0
 49 81  1  0
 50 82  1  0
 51 83  1  0
 52 84  1  0
M  END
> <Uni-Dock RESULT> 
ENERGY=   -5.124  LOWER_BOUND=    4.344  UPPER_BOUND=    8.434
INTER + INTRA:          -5.124
INTER:                  -5.124
INTRA:                   0.000
UNBOUND:                 0.000

$$$$

     RDKit          3D

 84 92  0  0  0  0  0  0  0  0999 V2000
   48.0038   17.5939   11.7637 C   0  0  0  0  0  0  0  0  0  0  0  0
   47.4007   16.8112   12.7532 C   0  0  0  0  0  0  0  0  0  0  0  0
   47.0556   17.3907   13.9789 C   0  0  0  0  0  0  0  0  0  0  0  0
   47.3097   18.7406   14.1996 C   0  0  0  0  0  0  0  0  0  0  0  0
   47.9076   19.5246   13.2186 C   0  0  0  0  0  0  0  0  0  0  0  0
   48.2555   18.9485   11.9952 C   0  0  0  0  0  0  0  0  0  0  0  0
   50.7300   10.3071   16.0253 C   0  0  0  0  0  0  0  0  0  0  0  0
   51.1368   10.2120   17.3523 C   0  0  0  0  0  0  0  0  0  0  0  0
   50.3050   10.6312   18.3906 C   0  0  0  0  0  0  0  0  0  0  0  0
   49.0448   11.1508   18.0919 C   0  0  0  0  0  0  0  0  0  0  0  0
   48.6263   11.2484   16.7643 C   0  0  0  0  0  0  0  0  0  0  0  0
   49.4664   10.8271   15.7251 C   0  0  0  0  0  0  0  0  0  0  0  0
   45.4696   13.6598   11.9195 N   0  0  0  0  0  0  0  0  0  0  0  0
   45.9106   14.9403   12.0925 C   0  0  0  0  0  0  0  0  0  0  0  0
   44.7978   15.8909   11.7500 C   0  0  0  0  0  0  0  0  0  0  0  0
   43.8796   15.0352   10.9159 C   0  0  0  0  0  0  0  0  0  0  0  0
   44.2514   13.6107   11.3023 C   0  0  0  0  0  0  0  0  0  0  0  0
   47.8797   13.0110   13.2177 N   0  0  0  0  0  0  0  0  0  0  0  0
   48.9929   12.3616   13.6693 C   0  0  0  0  0  0  0  0  0  0  0  0
   50.0704   13.2165   13.5349 C   0  0  0  0  0  0  0  0  0  0  0  0
   49.5666   14.4609   13.0664 C   0  0  0  0  0  0  0  0  0  0  0  0
   48.2042   14.3130   12.9326 C   0  0  0  0  0  0  0  0  0  0  0  0
   47.1104    9.7775   12.9890 N   0  0  0  0  0  0  0  0  0  0  0  0
   46.7306    8.4984   12.6682 C   0  0  0  0  0  0  0  0  0  0  0  0
   47.7436    7.6428   13.0386 C   0  0  0  0  0  0  0  0  0  0  0  0
   48.7550    8.4312   13.6446 C   0  0  0  0  0  0  0  0  0  0  0  0
   48.3176    9.7432   13.6320 C   0  0  0  0  0  0  0  0  0  0  0  0
   44.7216   10.5481   11.7417 N   0  0  0  0  0  0  0  0  0  0  0  0
   43.6760   11.2315   11.1710 C   0  0  0  0  0  0  0  0  0  0  0  0
   42.7429   10.1965   10.7293 C   0  0  0  0  0  0  0  0  0  0  0  0
   43.2537    8.9981   10.9939 C   0  0  0  0  0  0  0  0  0  0  0  0
   44.5345    9.1926   11.6312 C   0  0  0  0  0  0  0  0  0  0  0  0
   43.4262   12.5658   10.9589 C   0  0  0  0  0  0  0  0  0  0  0  0
   47.1215   15.3829   12.5259 C   0  0  0  0  0  0  0  0  0  0  0  0
   49.0273   10.9478   14.3236 C   0  0  0  0  0  0  0  0  0  0  0  0
   45.3380    8.1578   12.0015 C   0  0  0  0  0  0  0  0  0  0  0  0
   42.1684   12.9238   10.2314 C   0  0  0  0  0  0  0  0  0  0  0  0
   42.1875   13.0387    8.8348 C   0  0  0  0  0  0  0  0  0  0  0  0
   41.0275   13.3978    8.1541 C   0  0  0  0  0  0  0  0  0  0  0  0
   39.8410   13.6385    8.8399 C   0  0  0  0  0  0  0  0  0  0  0  0
   39.8095   13.5166   10.2307 C   0  0  0  0  0  0  0  0  0  0  0  0
   40.9709   13.1612   10.9222 C   0  0  0  0  0  0  0  0  0  0  0  0
   44.9600    6.7418   11.8195 C   0  0  0  0  0  0  0  0  0  0  0  0
   44.0953    6.1240   12.7328 C   0  0  0  0  0  0  0  0  0  0  0  0
   43.7376    4.7914   12.5473 C   0  0  0  0  0  0  0  0  0  0  0  0
   44.2386    4.0589   11.4746 C   0  0  0  0  0  0  0  0  0  0  0  0
   45.1050    4.6683   10.5653 C   0  0  0  0  0  0  0  0  0  0  0  0
   45.4628    6.0075   10.7374 C   0  0  0  0  0  0  0  0  0  0  0  0
   42.8743    4.1704   13.4081 O   0  0  0  0  0  0  0  0  0  0  0  0
   41.0307   13.5311    6.7925 O   0  0  0  0  0  0  0  0  0  0  0  0
   46.9615   19.3309   15.3799 O   0  0  0  0  0  0  0  0  0  0  0  0
   52.3743    9.6983   17.6061 O   0  0  0  0  0  0  0  0  0  0  0  0
   48.2610   17.1358   10.8108 H   0  0  0  0  0  0  0  0  0  0  0  0
   46.5893   16.7640   14.7340 H   0  0  0  0  0  0  0  0  0  0  0  0
   48.0914   20.5777   13.4022 H   0  0  0  0  0  0  0  0  0  0  0  0
   48.7207   19.5469   11.2198 H   0  0  0  0  0  0  0  0  0  0  0  0
   51.3854    9.9786   15.2250 H   0  0  0  0  0  0  0  0  0  0  0  0
   50.6131   10.5568   19.4287 H   0  0  0  0  0  0  0  0  0  0  0  0
   48.3822   11.4824   18.8849 H   0  0  0  0  0  0  0  0  0  0  0  0
   47.6449   11.6597   16.5310 H   0  0  0  0  0  0  0  0  0  0  0  0
   44.2883   16.2200   12.6644 H   0  0  0  0  0  0  0  0  0  0  0  0
   45.1184   16.7713   11.1858 H   0  0  0  0  0  0  0  0  0  0  0  0
   44.0891   15.1969    9.8503 H   0  0  0  0  0  0  0  0  0  0  0  0
   42.8408   15.3072   11.1157 H   0  0  0  0  0  0  0  0  0  0  0  0
   46.9271   12.6605   13.0867 H   0  0  0  0  0  0  0  0  0  0  0  0
   51.0947   12.9888   13.7977 H   0  0  0  0  0  0  0  0  0  0  0  0
   50.1287   15.3649   12.8845 H   0  0  0  0  0  0  0  0  0  0  0  0
   46.5096   10.5741   12.7751 H   0  0  0  0  0  0  0  0  0  0  0  0
   47.7439    6.5706   12.9125 H   0  0  0  0  0  0  0  0  0  0  0  0
   49.6787    8.0718   14.0779 H   0  0  0  0  0  0  0  0  0  0  0  0
   41.7982   10.3636   10.2441 H   0  0  0  0  0  0  0  0  0  0  0  0
   42.8002    8.0532   10.7544 H   0  0  0  0  0  0  0  0  0  0  0  0
   43.1257   12.8485    8.3217 H   0  0  0  0  0  0  0  0  0  0  0  0
   38.9470   13.9262    8.2951 H   0  0  0  0  0  0  0  0  0  0  0  0
   38.8933   13.7054   10.7799 H   0  0  0  0  0  0  0  0  0  0  0  0
   40.9694   13.0685   12.0057 H   0  0  0  0  0  0  0  0  0  0  0  0
   43.7055    6.7146   13.5559 H   0  0  0  0  0  0  0  0  0  0  0  0
   43.9509    3.0209   11.3436 H   0  0  0  0  0  0  0  0  0  0  0  0
   45.4976    4.1128    9.7188 H   0  0  0  0  0  0  0  0  0  0  0  0
   46.1275    6.4988   10.0292 H   0  0  0  0  0  0  0  0  0  0  0  0
   42.5658    4.8513   14.0314 H   0  0  0  0  0  0  0  0  0  0  0  0
   41.9324   13.2966    6.5020 H   0  0  0  0  0  0  0  0  0  0  0  0
   46.4781   18.6563   15.8901 H   0  0  0  0  0  0  0  0  0  0  0  0
   52.4969    9.6735   18.5688 H   0  0  0  0  0  0  0  0  0  0  0  0
 25 26  2  0
 26 27  1  0
 27 23  1  0
 28 29  1  0
  1  2  2  0
  3  4  2  0
  7  8  2  0
 14 15  1  0
 29 30  1  0
 30 31  2  0
 31 32  1  0
 32 28  2  0
 15 16  1  0
 29 33  2  0
 17 33  1  0
 16 17  1  0
 14 34  2  0
 22 34  1  0
 17 13  2  0
 27 35  2  0
 19 35  1  0
 18 19  1  0
 24 36  2  0
 32 36  1  0
  8  9  1  0
  4  5  1  0
 37 38  2  0
  9 10  2  0
 38 39  1  0
  2  3  1  0
 39 40  2  0
 10 11  1  0
 40 41  1  0
 19 20  2  0
 41 42  2  0
 42 37  1  0
 33 37  1  0
 20 21  1  0
 21 22  2  0
 43 44  2  0
 22 18  1  0
 44 45  1  0
 23 24  1  0
 45 46  2  0
  5  6  2  0
 46 47  1  0
 11 12  2  0
 47 48  2  0
 48 43  1  0
 36 43  1  0
 12  7  1  0
 45 49  1  0
 13 14  1  0
 39 50  1  0
 35 12  1  0
 34  2  1  0
  6  1  1  0
  4 51  1  0
 24 25  1  0
  8 52  1  0
  1 53  1  0
  3 54  1  0
  5 55  1  0
  6 56  1  0
  7 57  1  0
  9 58  1  0
 10 59  1  0
 11 60  1  0
 15 61  1  0
 15 62  1  0
 16 63  1  0
 16 64  1  0
 18 65  1  0
 20 66  1  0
 21 67  1  0
 23 68  1  0
 25 69  1  0
 26 70  1  0
 30 71  1  0
 31 72  1  0
 38 73  1  0
 40 74  1  0
 41 75  1  0
 42 76  1  0
 44 77  1  0
 46 78  1  0
 47 79  1  0
 48 80  1  0
 49 81  1  0
 50 82  1  0
 51 83  1  0
 52 84  1  0
M  END
> <Uni-Dock RESULT> 
ENERGY=   -5.101  LOWER_BOUND=    6.290  UPPER_BOUND=    8.912
INTER + INTRA:          -5.101
INTER:                  -5.101
INTRA:                   0.000
UNBOUND:                 0.000

$$$$

     RDKit          3D

 84 92  0  0  0  0  0  0  0  0999 V2000
   44.7582    6.0751   10.5113 C   0  0  0  0  0  0  0  0  0  0  0  0
   44.5087    6.8357   11.6579 C   0  0  0  0  0  0  0  0  0  0  0  0
   43.8875    6.2406   12.7612 C   0  0  0  0  0  0  0  0  0  0  0  0
   43.5296    4.8973   12.7097 C   0  0  0  0  0  0  0  0  0  0  0  0
   43.7768    4.1351   11.5729 C   0  0  0  0  0  0  0  0  0  0  0  0
   44.3944    4.7268   10.4693 C   0  0  0  0  0  0  0  0  0  0  0  0
   39.9473   13.4132   11.8144 C   0  0  0  0  0  0  0  0  0  0  0  0
   38.7294   13.5128   12.4795 C   0  0  0  0  0  0  0  0  0  0  0  0
   38.5894   13.0654   13.7932 C   0  0  0  0  0  0  0  0  0  0  0  0
   39.6896   12.5126   14.4498 C   0  0  0  0  0  0  0  0  0  0  0  0
   40.9162   12.4101   13.7925 C   0  0  0  0  0  0  0  0  0  0  0  0
   41.0510   12.8597   12.4724 C   0  0  0  0  0  0  0  0  0  0  0  0
   46.5223    9.9364   12.4867 N   0  0  0  0  0  0  0  0  0  0  0  0
   46.0655    8.6678   12.2721 C   0  0  0  0  0  0  0  0  0  0  0  0
   47.0841    7.6884   12.7842 C   0  0  0  0  0  0  0  0  0  0  0  0
   48.3375    8.5225   12.8509 C   0  0  0  0  0  0  0  0  0  0  0  0
   47.8248    9.9548   12.8996 C   0  0  0  0  0  0  0  0  0  0  0  0
   43.9035   10.6453   11.7420 N   0  0  0  0  0  0  0  0  0  0  0  0
   42.8033   11.3231   11.3004 C   0  0  0  0  0  0  0  0  0  0  0  0
   42.1143   10.4992   10.4308 C   0  0  0  0  0  0  0  0  0  0  0  0
   42.7817    9.2437   10.4201 C   0  0  0  0  0  0  0  0  0  0  0  0
   43.8503    9.3544   11.2814 C   0  0  0  0  0  0  0  0  0  0  0  0
   44.6655   13.8573   12.1916 N   0  0  0  0  0  0  0  0  0  0  0  0
   45.1820   15.1270   12.2578 C   0  0  0  0  0  0  0  0  0  0  0  0
   44.2136   16.0086   11.8331 C   0  0  0  0  0  0  0  0  0  0  0  0
   43.0544   15.2455   11.5399 C   0  0  0  0  0  0  0  0  0  0  0  0
   43.3541   13.9220   11.8067 C   0  0  0  0  0  0  0  0  0  0  0  0
   47.2314   13.0270   12.9549 N   0  0  0  0  0  0  0  0  0  0  0  0
   48.3662   12.3177   13.2633 C   0  0  0  0  0  0  0  0  0  0  0  0
   49.3584   13.3286   13.6248 C   0  0  0  0  0  0  0  0  0  0  0  0
   48.8280   14.5393   13.4839 C   0  0  0  0  0  0  0  0  0  0  0  0
   47.4644   14.3773   13.0381 C   0  0  0  0  0  0  0  0  0  0  0  0
   48.6713   10.9780   13.2559 C   0  0  0  0  0  0  0  0  0  0  0  0
   44.8905    8.2568   11.7239 C   0  0  0  0  0  0  0  0  0  0  0  0
   42.3437   12.7340   11.7762 C   0  0  0  0  0  0  0  0  0  0  0  0
   46.6485   15.4321   12.7641 C   0  0  0  0  0  0  0  0  0  0  0  0
   50.0726   10.5889   13.6083 C   0  0  0  0  0  0  0  0  0  0  0  0
   51.0349   10.4817   12.5952 C   0  0  0  0  0  0  0  0  0  0  0  0
   52.3337   10.0939   12.9126 C   0  0  0  0  0  0  0  0  0  0  0  0
   52.6966    9.8169   14.2269 C   0  0  0  0  0  0  0  0  0  0  0  0
   51.7474    9.9308   15.2449 C   0  0  0  0  0  0  0  0  0  0  0  0
   50.4399   10.3149   14.9342 C   0  0  0  0  0  0  0  0  0  0  0  0
   47.0688   16.8380   12.9314 C   0  0  0  0  0  0  0  0  0  0  0  0
   47.0567   17.4269   14.2028 C   0  0  0  0  0  0  0  0  0  0  0  0
   47.4636   18.7500   14.3515 C   0  0  0  0  0  0  0  0  0  0  0  0
   47.8689   19.5015   13.2519 C   0  0  0  0  0  0  0  0  0  0  0  0
   47.8772   18.9210   11.9823 C   0  0  0  0  0  0  0  0  0  0  0  0
   47.4794   17.5914   11.8239 C   0  0  0  0  0  0  0  0  0  0  0  0
   47.4873   19.3423   15.5844 O   0  0  0  0  0  0  0  0  0  0  0  0
   53.2825    9.9677   11.9351 O   0  0  0  0  0  0  0  0  0  0  0  0
   42.9422    4.2915   13.7825 O   0  0  0  0  0  0  0  0  0  0  0  0
   37.6767   14.0594   11.8065 O   0  0  0  0  0  0  0  0  0  0  0  0
   45.2493    6.5449    9.6615 H   0  0  0  0  0  0  0  0  0  0  0  0
   43.7018    6.8503   13.6410 H   0  0  0  0  0  0  0  0  0  0  0  0
   43.4999    3.0866   11.5511 H   0  0  0  0  0  0  0  0  0  0  0  0
   44.5954    4.1456    9.5762 H   0  0  0  0  0  0  0  0  0  0  0  0
   40.0451   13.7638   10.7920 H   0  0  0  0  0  0  0  0  0  0  0  0
   37.6438   13.1431   14.3205 H   0  0  0  0  0  0  0  0  0  0  0  0
   39.6019   12.1586   15.4720 H   0  0  0  0  0  0  0  0  0  0  0  0
   41.7734   11.9728   14.3032 H   0  0  0  0  0  0  0  0  0  0  0  0
   46.8023    7.3407   13.7861 H   0  0  0  0  0  0  0  0  0  0  0  0
   47.2359    6.8201   12.1367 H   0  0  0  0  0  0  0  0  0  0  0  0
   48.9314    8.3721   11.9398 H   0  0  0  0  0  0  0  0  0  0  0  0
   48.9347    8.2207   13.7142 H   0  0  0  0  0  0  0  0  0  0  0  0
   44.6809   10.9699   12.3231 H   0  0  0  0  0  0  0  0  0  0  0  0
   41.2028   10.7539    9.9069 H   0  0  0  0  0  0  0  0  0  0  0  0
   42.4930    8.3565    9.8760 H   0  0  0  0  0  0  0  0  0  0  0  0
   45.2311   13.0455   12.4409 H   0  0  0  0  0  0  0  0  0  0  0  0
   44.3191   17.0809   11.7677 H   0  0  0  0  0  0  0  0  0  0  0  0
   42.0976   15.6282   11.2112 H   0  0  0  0  0  0  0  0  0  0  0  0
   50.3697   13.1377   13.9356 H   0  0  0  0  0  0  0  0  0  0  0  0
   49.3349   15.4725   13.6520 H   0  0  0  0  0  0  0  0  0  0  0  0
   50.7275   10.7005   11.5767 H   0  0  0  0  0  0  0  0  0  0  0  0
   53.7115    9.5072   14.4569 H   0  0  0  0  0  0  0  0  0  0  0  0
   52.0137    9.7139   16.2738 H   0  0  0  0  0  0  0  0  0  0  0  0
   49.6839   10.4020   15.7109 H   0  0  0  0  0  0  0  0  0  0  0  0
   46.7490   16.8216   15.0497 H   0  0  0  0  0  0  0  0  0  0  0  0
   48.1829   20.5317   13.3836 H   0  0  0  0  0  0  0  0  0  0  0  0
   48.1987   19.4915   11.1159 H   0  0  0  0  0  0  0  0  0  0  0  0
   47.4928   17.1224   10.8418 H   0  0  0  0  0  0  0  0  0  0  0  0
   47.2600   18.6500   16.2297 H   0  0  0  0  0  0  0  0  0  0  0  0
   52.8461   10.2285   11.1021 H   0  0  0  0  0  0  0  0  0  0  0  0
   42.9410    4.9498   14.5007 H   0  0  0  0  0  0  0  0  0  0  0  0
   36.9155   14.0828   12.4087 H   0  0  0  0  0  0  0  0  0  0  0  0
 25 26  2  0
 26 27  1  0
 27 23  1  0
 28 29  1  0
  1  2  2  0
  3  4  2  0
  7  8  2  0
 14 15  1  0
 29 30  1  0
 30 31  2  0
 31 32  1  0
 32 28  2  0
 15 16  1  0
 29 33  2  0
 17 33  1  0
 16 17  1  0
 14 34  2  0
 22 34  1  0
 17 13  2  0
 27 35  2  0
 19 35  1  0
 18 19  1  0
 24 36  2  0
 32 36  1  0
  8  9  1  0
  4  5  1  0
 37 38  2  0
  9 10  2  0
 38 39  1  0
  2  3  1  0
 39 40  2  0
 10 11  1  0
 40 41  1  0
 19 20  2  0
 41 42  2  0
 42 37  1  0
 33 37  1  0
 20 21  1  0
 21 22  2  0
 43 44  2  0
 22 18  1  0
 44 45  1  0
 23 24  1  0
 45 46  2  0
  5  6  2  0
 46 47  1  0
 11 12  2  0
 47 48  2  0
 48 43  1  0
 36 43  1  0
 12  7  1  0
 45 49  1  0
 13 14  1  0
 39 50  1  0
 35 12  1  0
 34  2  1  0
  6  1  1  0
  4 51  1  0
 24 25  1  0
  8 52  1  0
  1 53  1  0
  3 54  1  0
  5 55  1  0
  6 56  1  0
  7 57  1  0
  9 58  1  0
 10 59  1  0
 11 60  1  0
 15 61  1  0
 15 62  1  0
 16 63  1  0
 16 64  1  0
 18 65  1  0
 20 66  1  0
 21 67  1  0
 23 68  1  0
 25 69  1  0
 26 70  1  0
 30 71  1  0
 31 72  1  0
 38 73  1  0
 40 74  1  0
 41 75  1  0
 42 76  1  0
 44 77  1  0
 46 78  1  0
 47 79  1  0
 48 80  1  0
 49 81  1  0
 50 82  1  0
 51 83  1  0
 52 84  1  0
M  END
> <Uni-Dock RESULT> 
ENERGY=   -4.912  LOWER_BOUND=    6.294  UPPER_BOUND=   11.319
INTER + INTRA:          -4.912
INTER:                  -4.912
INTRA:                   0.000
UNBOUND:                 0.000

$$$$

     RDKit          3D

 84 92  0  0  0  0  0  0  0  0999 V2000
   42.8062   13.6339    9.6855 C   0  0  0  0  0  0  0  0  0  0  0  0
   43.3009   13.4266   10.9770 C   0  0  0  0  0  0  0  0  0  0  0  0
   42.5626   13.8689   12.0799 C   0  0  0  0  0  0  0  0  0  0  0  0
   41.3412   14.5049   11.8822 C   0  0  0  0  0  0  0  0  0  0  0  0
   40.8431   14.7124   10.6003 C   0  0  0  0  0  0  0  0  0  0  0  0
   41.5789   14.2743    9.4974 C   0  0  0  0  0  0  0  0  0  0  0  0
   50.2704   16.3073   13.6643 C   0  0  0  0  0  0  0  0  0  0  0  0
   50.3941   17.2744   14.6567 C   0  0  0  0  0  0  0  0  0  0  0  0
   49.6736   17.1785   15.8472 C   0  0  0  0  0  0  0  0  0  0  0  0
   48.8185   16.0936   16.0453 C   0  0  0  0  0  0  0  0  0  0  0  0
   48.6890   15.1169   15.0572 C   0  0  0  0  0  0  0  0  0  0  0  0
   49.4140   15.2189   13.8626 C   0  0  0  0  0  0  0  0  0  0  0  0
   45.7691   10.6607   11.7604 N   0  0  0  0  0  0  0  0  0  0  0  0
   44.6734   11.4146   11.4517 C   0  0  0  0  0  0  0  0  0  0  0  0
   43.4562   10.5329   11.4574 C   0  0  0  0  0  0  0  0  0  0  0  0
   44.0484    9.1542   11.3174 C   0  0  0  0  0  0  0  0  0  0  0  0
   45.4890    9.3233   11.7786 C   0  0  0  0  0  0  0  0  0  0  0  0
   47.0273   13.1704   11.9438 N   0  0  0  0  0  0  0  0  0  0  0  0
   47.9510   14.1758   11.9713 C   0  0  0  0  0  0  0  0  0  0  0  0
   47.4734   15.2161   11.1970 C   0  0  0  0  0  0  0  0  0  0  0  0
   46.1696   14.8538   10.7603 C   0  0  0  0  0  0  0  0  0  0  0  0
   45.9070   13.6078   11.2842 C   0  0  0  0  0  0  0  0  0  0  0  0
   49.8842   11.6579   12.7504 N   0  0  0  0  0  0  0  0  0  0  0  0
   51.0070   10.8838   12.9027 C   0  0  0  0  0  0  0  0  0  0  0  0
   52.1020   11.7173   12.9465 C   0  0  0  0  0  0  0  0  0  0  0  0
   51.6174   13.0475   12.8600 C   0  0  0  0  0  0  0  0  0  0  0  0
   50.2386   12.9791   12.7766 C   0  0  0  0  0  0  0  0  0  0  0  0
   48.5132    9.2194   12.5768 N   0  0  0  0  0  0  0  0  0  0  0  0
   47.5857    8.2207   12.4085 C   0  0  0  0  0  0  0  0  0  0  0  0
   48.3173    6.9790   12.6535 C   0  0  0  0  0  0  0  0  0  0  0  0
   49.5932    7.2585   12.9000 C   0  0  0  0  0  0  0  0  0  0  0  0
   49.7528    8.6922   12.8415 C   0  0  0  0  0  0  0  0  0  0  0  0
   46.2559    8.2181   12.0628 C   0  0  0  0  0  0  0  0  0  0  0  0
   44.5897   12.7479   11.1962 C   0  0  0  0  0  0  0  0  0  0  0  0
   49.2613   14.1942   12.8145 C   0  0  0  0  0  0  0  0  0  0  0  0
   50.9546    9.3076   13.0156 C   0  0  0  0  0  0  0  0  0  0  0  0
   45.5842    6.8885   11.9196 C   0  0  0  0  0  0  0  0  0  0  0  0
   45.5753    6.2505   10.6719 C   0  0  0  0  0  0  0  0  0  0  0  0
   44.9290    5.0261   10.5253 C   0  0  0  0  0  0  0  0  0  0  0  0
   44.2947    4.4183   11.6043 C   0  0  0  0  0  0  0  0  0  0  0  0
   44.3069    5.0415   12.8540 C   0  0  0  0  0  0  0  0  0  0  0  0
   44.9494    6.2730   13.0086 C   0  0  0  0  0  0  0  0  0  0  0  0
   52.1988    8.5708   13.3160 C   0  0  0  0  0  0  0  0  0  0  0  0
   52.4627    8.1445   14.6245 C   0  0  0  0  0  0  0  0  0  0  0  0
   53.6339    7.4425   14.8957 C   0  0  0  0  0  0  0  0  0  0  0  0
   54.5545    7.1703   13.8874 C   0  0  0  0  0  0  0  0  0  0  0  0
   54.2988    7.5980   12.5834 C   0  0  0  0  0  0  0  0  0  0  0  0
   53.1222    8.2951   12.2991 C   0  0  0  0  0  0  0  0  0  0  0  0
   53.9048    6.9911   16.1585 O   0  0  0  0  0  0  0  0  0  0  0  0
   44.8954    4.3961    9.3115 O   0  0  0  0  0  0  0  0  0  0  0  0
   40.5947   14.9250   12.9448 O   0  0  0  0  0  0  0  0  0  0  0  0
   51.2397   18.3196   14.4285 O   0  0  0  0  0  0  0  0  0  0  0  0
   43.3841   13.2790    8.8346 H   0  0  0  0  0  0  0  0  0  0  0  0
   42.9662   13.6987   13.0741 H   0  0  0  0  0  0  0  0  0  0  0  0
   39.8851   15.2020   10.4625 H   0  0  0  0  0  0  0  0  0  0  0  0
   41.2032   14.4272    8.4918 H   0  0  0  0  0  0  0  0  0  0  0  0
   50.8352   16.3919   12.7414 H   0  0  0  0  0  0  0  0  0  0  0  0
   49.7673   17.9265   16.6281 H   0  0  0  0  0  0  0  0  0  0  0  0
   48.2491   16.0001   16.9644 H   0  0  0  0  0  0  0  0  0  0  0  0
   48.0167   14.2733   15.2094 H   0  0  0  0  0  0  0  0  0  0  0  0
   42.9273   10.6266   12.4142 H   0  0  0  0  0  0  0  0  0  0  0  0
   42.7544   10.7327   10.6427 H   0  0  0  0  0  0  0  0  0  0  0  0
   44.0301    8.8485   10.2631 H   0  0  0  0  0  0  0  0  0  0  0  0
   43.4619    8.4409   11.9009 H   0  0  0  0  0  0  0  0  0  0  0  0
   47.0812   12.2233   12.3280 H   0  0  0  0  0  0  0  0  0  0  0  0
   47.9819   16.1531   11.0137 H   0  0  0  0  0  0  0  0  0  0  0  0
   45.4925   15.4488   10.1654 H   0  0  0  0  0  0  0  0  0  0  0  0
   48.9596   11.2338   12.6703 H   0  0  0  0  0  0  0  0  0  0  0  0
   53.1299   11.4062   13.0559 H   0  0  0  0  0  0  0  0  0  0  0  0
   52.2093   13.9522   12.8970 H   0  0  0  0  0  0  0  0  0  0  0  0
   47.9053    5.9865   12.6199 H   0  0  0  0  0  0  0  0  0  0  0  0
   50.3706    6.5399   13.0878 H   0  0  0  0  0  0  0  0  0  0  0  0
   46.0747    6.7453    9.8440 H   0  0  0  0  0  0  0  0  0  0  0  0
   43.7875    3.4675   11.4716 H   0  0  0  0  0  0  0  0  0  0  0  0
   43.8131    4.5824   13.7037 H   0  0  0  0  0  0  0  0  0  0  0  0
   44.9638    6.7785   13.9713 H   0  0  0  0  0  0  0  0  0  0  0  0
   51.7275    8.3555   15.3948 H   0  0  0  0  0  0  0  0  0  0  0  0
   55.4631    6.6224   14.1144 H   0  0  0  0  0  0  0  0  0  0  0  0
   55.0031    7.3861   11.7843 H   0  0  0  0  0  0  0  0  0  0  0  0
   52.9042    8.6235   11.2846 H   0  0  0  0  0  0  0  0  0  0  0  0
   53.1220    7.1942   16.7000 H   0  0  0  0  0  0  0  0  0  0  0  0
   45.4108    4.9585    8.7027 H   0  0  0  0  0  0  0  0  0  0  0  0
   41.0553   14.6098   13.7433 H   0  0  0  0  0  0  0  0  0  0  0  0
   51.2353   18.8864   15.2167 H   0  0  0  0  0  0  0  0  0  0  0  0
 25 26  2  0
 26 27  1  0
 27 23  1  0
 28 29  1  0
  1  2  2  0
  3  4  2  0
  7  8  2  0
 14 15  1  0
 29 30  1  0
 30 31  2  0
 31 32  1  0
 32 28  2  0
 15 16  1  0
 29 33  2  0
 17 33  1  0
 16 17  1  0
 14 34  2  0
 22 34  1  0
 17 13  2  0
 27 35  2  0
 19 35  1  0
 18 19  1  0
 24 36  2  0
 32 36  1  0
  8  9  1  0
  4  5  1  0
 37 38  2  0
  9 10  2  0
 38 39  1  0
  2  3  1  0
 39 40  2  0
 10 11  1  0
 40 41  1  0
 19 20  2  0
 41 42  2  0
 42 37  1  0
 33 37  1  0
 20 21  1  0
 21 22  2  0
 43 44  2  0
 22 18  1  0
 44 45  1  0
 23 24  1  0
 45 46  2  0
  5  6  2  0
 46 47  1  0
 11 12  2  0
 47 48  2  0
 48 43  1  0
 36 43  1  0
 12  7  1  0
 45 49  1  0
 13 14  1  0
 39 50  1  0
 35 12  1  0
 34  2  1  0
  6  1  1  0
  4 51  1  0
 24 25  1  0
  8 52  1  0
  1 53  1  0
  3 54  1  0
  5 55  1  0
  6 56  1  0
  7 57  1  0
  9 58  1  0
 10 59  1  0
 11 60  1  0
 15 61  1  0
 15 62  1  0
 16 63  1  0
 16 64  1  0
 18 65  1  0
 20 66  1  0
 21 67  1  0
 23 68  1  0
 25 69  1  0
 26 70  1  0
 30 71  1  0
 31 72  1  0
 38 73  1  0
 40 74  1  0
 41 75  1  0
 42 76  1  0
 44 77  1  0
 46 78  1  0
 47 79  1  0
 48 80  1  0
 49 81  1  0
 50 82  1  0
 51 83  1  0
 52 84  1  0
M  END
> <Uni-Dock RESULT> 
ENERGY=   -4.596  LOWER_BOUND=    5.442  UPPER_BOUND=   10.790
INTER + INTRA:          -4.596
INTER:                  -4.596
INTRA:                   0.000
UNBOUND:                 0.000

$$$$

     RDKit          3D

 84 92  0  0  0  0  0  0  0  0999 V2000
   49.7049   13.3954   18.3210 C   0  0  0  0  0  0  0  0  0  0  0  0
   49.3401   12.1713   17.7519 C   0  0  0  0  0  0  0  0  0  0  0  0
   48.1557   11.5460   18.1563 C   0  0  0  0  0  0  0  0  0  0  0  0
   47.3494   12.1502   19.1155 C   0  0  0  0  0  0  0  0  0  0  0  0
   47.7059   13.3686   19.6837 C   0  0  0  0  0  0  0  0  0  0  0  0
   48.8886   13.9939   19.2841 C   0  0  0  0  0  0  0  0  0  0  0  0
   53.7596    5.5075   18.1468 C   0  0  0  0  0  0  0  0  0  0  0  0
   53.3952    4.3594   18.8429 C   0  0  0  0  0  0  0  0  0  0  0  0
   52.1158    3.8183   18.7166 C   0  0  0  0  0  0  0  0  0  0  0  0
   51.1896    4.4376   17.8764 C   0  0  0  0  0  0  0  0  0  0  0  0
   51.5457    5.5883   17.1720 C   0  0  0  0  0  0  0  0  0  0  0  0
   52.8318    6.1285   17.3036 C   0  0  0  0  0  0  0  0  0  0  0  0
   50.5861   11.0938   14.3398 N   0  0  0  0  0  0  0  0  0  0  0  0
   49.9584   11.6848   15.3986 C   0  0  0  0  0  0  0  0  0  0  0  0
   48.8717   12.5854   14.8818 C   0  0  0  0  0  0  0  0  0  0  0  0
   49.2807   12.8047   13.4481 C   0  0  0  0  0  0  0  0  0  0  0  0
   50.2016   11.6317   13.1440 C   0  0  0  0  0  0  0  0  0  0  0  0
   51.7761    9.5274   16.3512 N   0  0  0  0  0  0  0  0  0  0  0  0
   52.6195    8.7167   17.0557 C   0  0  0  0  0  0  0  0  0  0  0  0
   52.7920    9.2676   18.3113 C   0  0  0  0  0  0  0  0  0  0  0  0
   51.9467   10.4081   18.3921 C   0  0  0  0  0  0  0  0  0  0  0  0
   51.2956   10.5066   17.1829 C   0  0  0  0  0  0  0  0  0  0  0  0
   53.4615    7.8477   14.0193 N   0  0  0  0  0  0  0  0  0  0  0  0
   54.1989    7.3730   12.9638 C   0  0  0  0  0  0  0  0  0  0  0  0
   55.1528    6.5118   13.4576 C   0  0  0  0  0  0  0  0  0  0  0  0
   54.9560    6.4310   14.8600 C   0  0  0  0  0  0  0  0  0  0  0  0
   53.8789    7.2404   15.1721 C   0  0  0  0  0  0  0  0  0  0  0  0
   52.1822    9.4437   12.1030 N   0  0  0  0  0  0  0  0  0  0  0  0
   51.4176   10.3665   11.4324 C   0  0  0  0  0  0  0  0  0  0  0  0
   51.7332   10.1649   10.0193 C   0  0  0  0  0  0  0  0  0  0  0  0
   52.6563    9.2155    9.9031 C   0  0  0  0  0  0  0  0  0  0  0  0
   52.9767    8.7436   11.2294 C   0  0  0  0  0  0  0  0  0  0  0  0
   50.5383   11.3390   11.8433 C   0  0  0  0  0  0  0  0  0  0  0  0
   50.1840   11.5276   16.7306 C   0  0  0  0  0  0  0  0  0  0  0  0
   53.1984    7.3535   16.5711 C   0  0  0  0  0  0  0  0  0  0  0  0
   53.9183    7.7888   11.4643 C   0  0  0  0  0  0  0  0  0  0  0  0
   49.9302   12.2082   10.7878 C   0  0  0  0  0  0  0  0  0  0  0  0
   50.5706   13.3996   10.4212 C   0  0  0  0  0  0  0  0  0  0  0  0
   49.9966   14.2262    9.4593 C   0  0  0  0  0  0  0  0  0  0  0  0
   48.7950   13.8839    8.8469 C   0  0  0  0  0  0  0  0  0  0  0  0
   48.1544   12.6938    9.1982 C   0  0  0  0  0  0  0  0  0  0  0  0
   48.7215   11.8606   10.1665 C   0  0  0  0  0  0  0  0  0  0  0  0
   54.6730    7.1214   10.3844 C   0  0  0  0  0  0  0  0  0  0  0  0
   54.0874    6.0709    9.6654 C   0  0  0  0  0  0  0  0  0  0  0  0
   54.8035    5.4544    8.6430 C   0  0  0  0  0  0  0  0  0  0  0  0
   56.0998    5.8574    8.3341 C   0  0  0  0  0  0  0  0  0  0  0  0
   56.6897    6.8996    9.0514 C   0  0  0  0  0  0  0  0  0  0  0  0
   55.9762    7.5307   10.0730 C   0  0  0  0  0  0  0  0  0  0  0  0
   54.2470    4.4444    7.9070 O   0  0  0  0  0  0  0  0  0  0  0  0
   50.5985   15.4011    9.1003 O   0  0  0  0  0  0  0  0  0  0  0  0
   46.1791   11.5680   19.5085 O   0  0  0  0  0  0  0  0  0  0  0  0
   54.3267    3.7810   19.6537 O   0  0  0  0  0  0  0  0  0  0  0  0
   50.6238   13.8778   17.9939 H   0  0  0  0  0  0  0  0  0  0  0  0
   47.8922   10.5948   17.7022 H   0  0  0  0  0  0  0  0  0  0  0  0
   47.0625   13.8315   20.4241 H   0  0  0  0  0  0  0  0  0  0  0  0
   49.1795   14.9447   19.7165 H   0  0  0  0  0  0  0  0  0  0  0  0
   54.7577    5.9205   18.2527 H   0  0  0  0  0  0  0  0  0  0  0  0
   51.8247    2.9207   19.2531 H   0  0  0  0  0  0  0  0  0  0  0  0
   50.1890    4.0327   17.7640 H   0  0  0  0  0  0  0  0  0  0  0  0
   50.8206    6.0752   16.5210 H   0  0  0  0  0  0  0  0  0  0  0  0
   47.9028   12.0724   14.9289 H   0  0  0  0  0  0  0  0  0  0  0  0
   48.7934   13.5408   15.4083 H   0  0  0  0  0  0  0  0  0  0  0  0
   49.8389   13.7463   13.3621 H   0  0  0  0  0  0  0  0  0  0  0  0
   48.3913   12.8639   12.8167 H   0  0  0  0  0  0  0  0  0  0  0  0
   51.4947    9.4806   15.3682 H   0  0  0  0  0  0  0  0  0  0  0  0
   53.4127    8.8629   19.0994 H   0  0  0  0  0  0  0  0  0  0  0  0
   51.8055   11.0558   19.2448 H   0  0  0  0  0  0  0  0  0  0  0  0
   52.7115    8.5244   13.8751 H   0  0  0  0  0  0  0  0  0  0  0  0
   55.8888    5.9806   12.8732 H   0  0  0  0  0  0  0  0  0  0  0  0
   55.5138    5.8170   15.5542 H   0  0  0  0  0  0  0  0  0  0  0  0
   51.3096   10.7085    9.1941 H   0  0  0  0  0  0  0  0  0  0  0  0
   53.0993    8.8768    8.9840 H   0  0  0  0  0  0  0  0  0  0  0  0
   51.5061   13.6468   10.9146 H   0  0  0  0  0  0  0  0  0  0  0  0
   48.3558   14.5437    8.1048 H   0  0  0  0  0  0  0  0  0  0  0  0
   47.2149   12.4154    8.7331 H   0  0  0  0  0  0  0  0  0  0  0  0
   48.2349   10.9334   10.4598 H   0  0  0  0  0  0  0  0  0  0  0  0
   53.0715    5.7789    9.9126 H   0  0  0  0  0  0  0  0  0  0  0  0
   56.6455    5.3669    7.5347 H   0  0  0  0  0  0  0  0  0  0  0  0
   57.6970    7.2310    8.8169 H   0  0  0  0  0  0  0  0  0  0  0  0
   56.4193    8.3529   10.6321 H   0  0  0  0  0  0  0  0  0  0  0  0
   53.3233    4.3618    8.2023 H   0  0  0  0  0  0  0  0  0  0  0  0
   51.4282   15.4451    9.6122 H   0  0  0  0  0  0  0  0  0  0  0  0
   46.0584   10.7867   18.9392 H   0  0  0  0  0  0  0  0  0  0  0  0
   53.9320    2.9840   20.0429 H   0  0  0  0  0  0  0  0  0  0  0  0
 25 26  2  0
 26 27  1  0
 27 23  1  0
 28 29  1  0
  1  2  2  0
  3  4  2  0
  7  8  2  0
 14 15  1  0
 29 30  1  0
 30 31  2  0
 31 32  1  0
 32 28  2  0
 15 16  1  0
 29 33  2  0
 17 33  1  0
 16 17  1  0
 14 34  2  0
 22 34  1  0
 17 13  2  0
 27 35  2  0
 19 35  1  0
 18 19  1  0
 24 36  2  0
 32 36  1  0
  8  9  1  0
  4  5  1  0
 37 38  2  0
  9 10  2  0
 38 39  1  0
  2  3  1  0
 39 40  2  0
 10 11  1  0
 40 41  1  0
 19 20  2  0
 41 42  2  0
 42 37  1  0
 33 37  1  0
 20 21  1  0
 21 22  2  0
 43 44  2  0
 22 18  1  0
 44 45  1  0
 23 24  1  0
 45 46  2  0
  5  6  2  0
 46 47  1  0
 11 12  2  0
 47 48  2  0
 48 43  1  0
 36 43  1  0
 12  7  1  0
 45 49  1  0
 13 14  1  0
 39 50  1  0
 35 12  1  0
 34  2  1  0
  6  1  1  0
  4 51  1  0
 24 25  1  0
  8 52  1  0
  1 53  1  0
  3 54  1  0
  5 55  1  0
  6 56  1  0
  7 57  1  0
  9 58  1  0
 10 59  1  0
 11 60  1  0
 15 61  1  0
 15 62  1  0
 16 63  1  0
 16 64  1  0
 18 65  1  0
 20 66  1  0
 21 67  1  0
 23 68  1  0
 25 69  1  0
 26 70  1  0
 30 71  1  0
 31 72  1  0
 38 73  1  0
 40 74  1  0
 41 75  1  0
 42 76  1  0
 44 77  1  0
 46 78  1  0
 47 79  1  0
 48 80  1  0
 49 81  1  0
 50 82  1  0
 51 83  1  0
 52 84  1  0
M  END
> <Uni-Dock RESULT> 
ENERGY=   -4.526  LOWER_BOUND=    4.586  UPPER_BOUND=    6.982
INTER + INTRA:          -4.526
INTER:                  -4.526
INTRA:                   0.000
UNBOUND:                 0.000

$$$$
