
     RDKit          3D

 28 29  0  0  0  0  0  0  0  0999 V2000
   44.5919    5.5684   10.2981 C   0  0  0  0  0  0  0  0  0  0  0  0
   45.3760    4.7603    9.5472 O   0  0  0  0  0  0  0  0  0  0  0  0
   43.3744    5.6384   10.2370 O   0  0  0  0  0  0  0  0  0  0  0  0
   45.4199    6.3807   11.2303 C   0  0  0  0  0  0  0  0  0  0  0  0
   44.6500    3.9461    8.6242 C   0  0  0  0  0  0  0  0  0  0  0  0
   45.6486    3.1095    7.8673 C   0  0  0  0  0  0  0  0  0  0  0  0
   44.7656    7.2771   12.0869 C   0  0  0  0  0  0  0  0  0  0  0  0
   46.8173    6.2790   11.2783 C   0  0  0  0  0  0  0  0  0  0  0  0
   46.2279    3.5898    6.6843 C   0  0  0  0  0  0  0  0  0  0  0  0
   46.0445    1.8572    8.3577 C   0  0  0  0  0  0  0  0  0  0  0  0
   45.4991    8.0612   12.9796 C   0  0  0  0  0  0  0  0  0  0  0  0
   47.5475    7.0654   12.1729 C   0  0  0  0  0  0  0  0  0  0  0  0
   47.1679    2.8225    5.9945 C   0  0  0  0  0  0  0  0  0  0  0  0
   46.9847    1.0914    7.6662 C   0  0  0  0  0  0  0  0  0  0  0  0
   46.8887    7.9546   13.0216 C   0  0  0  0  0  0  0  0  0  0  0  0
   47.5440    1.5731    6.4841 C   0  0  0  0  0  0  0  0  0  0  0  0
   44.0825    4.5749    7.9270 H   0  0  0  0  0  0  0  0  0  0  0  0
   43.9470    3.2969    9.1609 H   0  0  0  0  0  0  0  0  0  0  0  0
   43.6812    7.3679   12.0619 H   0  0  0  0  0  0  0  0  0  0  0  0
   47.3516    5.5923   10.6257 H   0  0  0  0  0  0  0  0  0  0  0  0
   45.9506    4.5674    6.2958 H   0  0  0  0  0  0  0  0  0  0  0  0
   45.6232    1.4730    9.2841 H   0  0  0  0  0  0  0  0  0  0  0  0
   44.9859    8.7545   13.6413 H   0  0  0  0  0  0  0  0  0  0  0  0
   48.6313    6.9835   12.2072 H   0  0  0  0  0  0  0  0  0  0  0  0
   47.6092    3.2014    5.0763 H   0  0  0  0  0  0  0  0  0  0  0  0
   47.2832    0.1202    8.0521 H   0  0  0  0  0  0  0  0  0  0  0  0
   47.4593    8.5655   13.7170 H   0  0  0  0  0  0  0  0  0  0  0  0
   48.2768    0.9768    5.9469 H   0  0  0  0  0  0  0  0  0  0  0  0
  2  1  1  0
  3  1  2  0
  4  1  1  0
  5  2  1  0
  6  5  1  0
  7  4  2  0
  8  4  1  0
  9  6  2  0
 10  6  1  0
 11  7  1  0
 12  8  2  0
 13  9  1  0
 14 10  2  0
 15 12  1  0
 16 14  1  0
 15 11  2  0
 16 13  2  0
  5 17  1  0
  5 18  1  0
  7 19  1  0
  8 20  1  0
  9 21  1  0
 10 22  1  0
 11 23  1  0
 12 24  1  0
 13 25  1  0
 14 26  1  0
 15 27  1  0
 16 28  1  0
M  END
> <Uni-Dock RESULT> 
ENERGY=   -6.131  LOWER_BOUND=    0.000  UPPER_BOUND=    0.000
INTER + INTRA:          -6.131
INTER:                  -6.131
INTRA:                   0.000
UNBOUND:                 0.000

$$$$

     RDKit          3D

 28 29  0  0  0  0  0  0  0  0999 V2000
   44.3057    4.3866   10.4354 C   0  0  0  0  0  0  0  0  0  0  0  0
   44.4978    5.7242   10.5112 O   0  0  0  0  0  0  0  0  0  0  0  0
   43.6114    3.7219   11.1883 O   0  0  0  0  0  0  0  0  0  0  0  0
   45.0654    3.8137    9.2911 C   0  0  0  0  0  0  0  0  0  0  0  0
   43.7976    6.3480   11.5895 C   0  0  0  0  0  0  0  0  0  0  0  0
   44.1066    7.8220   11.5446 C   0  0  0  0  0  0  0  0  0  0  0  0
   44.9793    2.4330    9.0645 C   0  0  0  0  0  0  0  0  0  0  0  0
   45.8551    4.6023    8.4426 C   0  0  0  0  0  0  0  0  0  0  0  0
   45.2173    8.3372   12.2276 C   0  0  0  0  0  0  0  0  0  0  0  0
   43.3126    8.6924   10.7847 C   0  0  0  0  0  0  0  0  0  0  0  0
   45.6739    1.8486    8.0034 C   0  0  0  0  0  0  0  0  0  0  0  0
   46.5485    4.0136    7.3820 C   0  0  0  0  0  0  0  0  0  0  0  0
   45.5143    9.6998   12.1692 C   0  0  0  0  0  0  0  0  0  0  0  0
   43.6114   10.0548   10.7276 C   0  0  0  0  0  0  0  0  0  0  0  0
   46.4573    2.6392    7.1637 C   0  0  0  0  0  0  0  0  0  0  0  0
   44.7102   10.5582   11.4215 C   0  0  0  0  0  0  0  0  0  0  0  0
   44.1222    5.9258   12.5486 H   0  0  0  0  0  0  0  0  0  0  0  0
   42.7173    6.1878   11.4848 H   0  0  0  0  0  0  0  0  0  0  0  0
   44.3704    1.8070    9.7143 H   0  0  0  0  0  0  0  0  0  0  0  0
   45.9405    5.6758    8.5943 H   0  0  0  0  0  0  0  0  0  0  0  0
   45.8590    7.6772   12.8073 H   0  0  0  0  0  0  0  0  0  0  0  0
   42.4576    8.3118   10.2304 H   0  0  0  0  0  0  0  0  0  0  0  0
   45.6031    0.7772    7.8329 H   0  0  0  0  0  0  0  0  0  0  0  0
   47.1599    4.6286    6.7260 H   0  0  0  0  0  0  0  0  0  0  0  0
   46.3754   10.0910   12.7047 H   0  0  0  0  0  0  0  0  0  0  0  0
   42.9884   10.7228   10.1386 H   0  0  0  0  0  0  0  0  0  0  0  0
   46.9980    2.1835    6.3376 H   0  0  0  0  0  0  0  0  0  0  0  0
   44.9429   11.6187   11.3756 H   0  0  0  0  0  0  0  0  0  0  0  0
  2  1  1  0
  3  1  2  0
  4  1  1  0
  5  2  1  0
  6  5  1  0
  7  4  2  0
  8  4  1  0
  9  6  2  0
 10  6  1  0
 11  7  1  0
 12  8  2  0
 13  9  1  0
 14 10  2  0
 15 12  1  0
 16 14  1  0
 15 11  2  0
 16 13  2  0
  5 17  1  0
  5 18  1  0
  7 19  1  0
  8 20  1  0
  9 21  1  0
 10 22  1  0
 11 23  1  0
 12 24  1  0
 13 25  1  0
 14 26  1  0
 15 27  1  0
 16 28  1  0
M  END
> <Uni-Dock RESULT> 
ENERGY=   -5.484  LOWER_BOUND=    1.720  UPPER_BOUND=    6.582
INTER + INTRA:          -5.484
INTER:                  -5.484
INTRA:                   0.000
UNBOUND:                 0.000

$$$$

     RDKit          3D

 28 29  0  0  0  0  0  0  0  0999 V2000
   44.6119    6.0407   10.7529 C   0  0  0  0  0  0  0  0  0  0  0  0
   45.3053    5.1477   10.0089 O   0  0  0  0  0  0  0  0  0  0  0  0
   43.4062    6.2268   10.7034 O   0  0  0  0  0  0  0  0  0  0  0  0
   45.5257    6.7855   11.6611 C   0  0  0  0  0  0  0  0  0  0  0  0
   44.4929    4.3915    9.1089 C   0  0  0  0  0  0  0  0  0  0  0  0
   45.3969    3.4492    8.3572 C   0  0  0  0  0  0  0  0  0  0  0  0
   44.9715    7.7556   12.5078 C   0  0  0  0  0  0  0  0  0  0  0  0
   46.9074    6.5502   11.6962 C   0  0  0  0  0  0  0  0  0  0  0  0
   46.0051    3.8507    7.1594 C   0  0  0  0  0  0  0  0  0  0  0  0
   45.6763    2.1733    8.8666 C   0  0  0  0  0  0  0  0  0  0  0  0
   45.7880    8.4807   13.3780 C   0  0  0  0  0  0  0  0  0  0  0  0
   47.7209    7.2779   12.5683 C   0  0  0  0  0  0  0  0  0  0  0  0
   46.8583    2.9843    6.4741 C   0  0  0  0  0  0  0  0  0  0  0  0
   46.5298    1.3084    8.1796 C   0  0  0  0  0  0  0  0  0  0  0  0
   47.1613    8.2412   13.4072 C   0  0  0  0  0  0  0  0  0  0  0  0
   47.1183    1.7131    6.9828 C   0  0  0  0  0  0  0  0  0  0  0  0
   43.9801    5.0598    8.4062 H   0  0  0  0  0  0  0  0  0  0  0  0
   43.7373    3.8226    9.6650 H   0  0  0  0  0  0  0  0  0  0  0  0
   43.9006    7.9502   12.4926 H   0  0  0  0  0  0  0  0  0  0  0  0
   47.3649    5.8038   11.0509 H   0  0  0  0  0  0  0  0  0  0  0  0
   45.8186    4.8434    6.7558 H   0  0  0  0  0  0  0  0  0  0  0  0
   45.2314    1.8478    9.8043 H   0  0  0  0  0  0  0  0  0  0  0  0
   45.3522    9.2318   14.0321 H   0  0  0  0  0  0  0  0  0  0  0  0
   48.7921    7.0924   12.5926 H   0  0  0  0  0  0  0  0  0  0  0  0
   47.3228    3.3027    5.5444 H   0  0  0  0  0  0  0  0  0  0  0  0
   46.7381    0.3197    8.5802 H   0  0  0  0  0  0  0  0  0  0  0  0
   47.7966    8.8062   14.0851 H   0  0  0  0  0  0  0  0  0  0  0  0
   47.7836    1.0396    6.4491 H   0  0  0  0  0  0  0  0  0  0  0  0
  2  1  1  0
  3  1  2  0
  4  1  1  0
  5  2  1  0
  6  5  1  0
  7  4  2  0
  8  4  1  0
  9  6  2  0
 10  6  1  0
 11  7  1  0
 12  8  2  0
 13  9  1  0
 14 10  2  0
 15 12  1  0
 16 14  1  0
 15 11  2  0
 16 13  2  0
  5 17  1  0
  5 18  1  0
  7 19  1  0
  8 20  1  0
  9 21  1  0
 10 22  1  0
 11 23  1  0
 12 24  1  0
 13 25  1  0
 14 26  1  0
 15 27  1  0
 16 28  1  0
M  END
> <Uni-Dock RESULT> 
ENERGY=   -5.305  LOWER_BOUND=    0.633  UPPER_BOUND=    0.633
INTER + INTRA:          -5.305
INTER:                  -5.305
INTRA:                   0.000
UNBOUND:                 0.000

$$$$

     RDKit          3D

 28 29  0  0  0  0  0  0  0  0999 V2000
   45.5871    7.1988   12.0426 C   0  0  0  0  0  0  0  0  0  0  0  0
   45.7260    6.0822   11.2904 O   0  0  0  0  0  0  0  0  0  0  0  0
   44.6042    7.9227   12.0699 O   0  0  0  0  0  0  0  0  0  0  0  0
   46.8125    7.4394   12.8519 C   0  0  0  0  0  0  0  0  0  0  0  0
   44.5855    5.7844   10.4827 C   0  0  0  0  0  0  0  0  0  0  0  0
   44.8870    4.5265    9.7101 C   0  0  0  0  0  0  0  0  0  0  0  0
   46.8405    8.5603   13.6933 C   0  0  0  0  0  0  0  0  0  0  0  0
   47.9268    6.5902   12.8000 C   0  0  0  0  0  0  0  0  0  0  0  0
   45.5115    4.5938    8.4567 C   0  0  0  0  0  0  0  0  0  0  0  0
   44.5861    3.2692   10.2525 C   0  0  0  0  0  0  0  0  0  0  0  0
   47.9678    8.8284   14.4724 C   0  0  0  0  0  0  0  0  0  0  0  0
   49.0528    6.8621   13.5811 C   0  0  0  0  0  0  0  0  0  0  0  0
   45.8086    3.4269    7.7507 C   0  0  0  0  0  0  0  0  0  0  0  0
   44.8841    2.1035    9.5447 C   0  0  0  0  0  0  0  0  0  0  0  0
   49.0723    7.9794   14.4154 C   0  0  0  0  0  0  0  0  0  0  0  0
   45.4927    2.1828    8.2936 C   0  0  0  0  0  0  0  0  0  0  0  0
   44.3838    6.6107    9.7898 H   0  0  0  0  0  0  0  0  0  0  0  0
   43.7009    5.6339   11.1140 H   0  0  0  0  0  0  0  0  0  0  0  0
   45.9834    9.2294   13.7450 H   0  0  0  0  0  0  0  0  0  0  0  0
   47.9333    5.7134   12.1565 H   0  0  0  0  0  0  0  0  0  0  0  0
   45.7723    5.5577    8.0252 H   0  0  0  0  0  0  0  0  0  0  0  0
   44.1196    3.1920   11.2322 H   0  0  0  0  0  0  0  0  0  0  0  0
   47.9834    9.6994   15.1229 H   0  0  0  0  0  0  0  0  0  0  0  0
   49.9152    6.2010   13.5381 H   0  0  0  0  0  0  0  0  0  0  0  0
   46.2898    3.4888    6.7780 H   0  0  0  0  0  0  0  0  0  0  0  0
   44.6441    1.1331    9.9715 H   0  0  0  0  0  0  0  0  0  0  0  0
   49.9499    8.1887   15.0224 H   0  0  0  0  0  0  0  0  0  0  0  0
   45.7254    1.2748    7.7436 H   0  0  0  0  0  0  0  0  0  0  0  0
  2  1  1  0
  3  1  2  0
  4  1  1  0
  5  2  1  0
  6  5  1  0
  7  4  2  0
  8  4  1  0
  9  6  2  0
 10  6  1  0
 11  7  1  0
 12  8  2  0
 13  9  1  0
 14 10  2  0
 15 12  1  0
 16 14  1  0
 15 11  2  0
 16 13  2  0
  5 17  1  0
  5 18  1  0
  7 19  1  0
  8 20  1  0
  9 21  1  0
 10 22  1  0
 11 23  1  0
 12 24  1  0
 13 25  1  0
 14 26  1  0
 15 27  1  0
 16 28  1  0
M  END
> <Uni-Dock RESULT> 
ENERGY=   -4.877  LOWER_BOUND=    1.618  UPPER_BOUND=    2.583
INTER + INTRA:          -4.877
INTER:                  -4.877
INTRA:                   0.000
UNBOUND:                 0.000

$$$$

     RDKit          3D

 28 29  0  0  0  0  0  0  0  0999 V2000
   47.8424    3.6454   16.4300 C   0  0  0  0  0  0  0  0  0  0  0  0
   47.1322    4.4382   15.5940 O   0  0  0  0  0  0  0  0  0  0  0  0
   48.3870    2.5956   16.1265 O   0  0  0  0  0  0  0  0  0  0  0  0
   47.8772    4.2281   17.7989 C   0  0  0  0  0  0  0  0  0  0  0  0
   47.0536    3.9428   14.2560 C   0  0  0  0  0  0  0  0  0  0  0  0
   46.2398    4.9230   13.4515 C   0  0  0  0  0  0  0  0  0  0  0  0
   48.5744    3.5328   18.7967 C   0  0  0  0  0  0  0  0  0  0  0  0
   47.2420    5.4364   18.1183 C   0  0  0  0  0  0  0  0  0  0  0  0
   44.8461    4.7939   13.3717 C   0  0  0  0  0  0  0  0  0  0  0  0
   46.8602    6.0023   12.8067 C   0  0  0  0  0  0  0  0  0  0  0  0
   48.6357    4.0391   20.0965 C   0  0  0  0  0  0  0  0  0  0  0  0
   47.3057    5.9395   19.4202 C   0  0  0  0  0  0  0  0  0  0  0  0
   44.0909    5.7140   12.6427 C   0  0  0  0  0  0  0  0  0  0  0  0
   46.1030    6.9213   12.0782 C   0  0  0  0  0  0  0  0  0  0  0  0
   48.0015    5.2414   20.4067 C   0  0  0  0  0  0  0  0  0  0  0  0
   44.7196    6.7755   11.9944 C   0  0  0  0  0  0  0  0  0  0  0  0
   46.5731    2.9567   14.2430 H   0  0  0  0  0  0  0  0  0  0  0  0
   48.0585    3.8476   13.8260 H   0  0  0  0  0  0  0  0  0  0  0  0
   49.0729    2.5933   18.5648 H   0  0  0  0  0  0  0  0  0  0  0  0
   46.6940    5.9973   17.3647 H   0  0  0  0  0  0  0  0  0  0  0  0
   44.3412    3.9757   13.8806 H   0  0  0  0  0  0  0  0  0  0  0  0
   47.9380    6.1337   12.8714 H   0  0  0  0  0  0  0  0  0  0  0  0
   49.1780    3.4951   20.8660 H   0  0  0  0  0  0  0  0  0  0  0  0
   46.8118    6.8771   19.6639 H   0  0  0  0  0  0  0  0  0  0  0  0
   43.0111    5.6042   12.5834 H   0  0  0  0  0  0  0  0  0  0  0  0
   46.5928    7.7531   11.5786 H   0  0  0  0  0  0  0  0  0  0  0  0
   48.0495    5.6351   21.4192 H   0  0  0  0  0  0  0  0  0  0  0  0
   44.1307    7.4920   11.4280 H   0  0  0  0  0  0  0  0  0  0  0  0
  2  1  1  0
  3  1  2  0
  4  1  1  0
  5  2  1  0
  6  5  1  0
  7  4  2  0
  8  4  1  0
  9  6  2  0
 10  6  1  0
 11  7  1  0
 12  8  2  0
 13  9  1  0
 14 10  2  0
 15 12  1  0
 16 14  1  0
 15 11  2  0
 16 13  2  0
  5 17  1  0
  5 18  1  0
  7 19  1  0
  8 20  1  0
  9 21  1  0
 10 22  1  0
 11 23  1  0
 12 24  1  0
 13 25  1  0
 14 26  1  0
 15 27  1  0
 16 28  1  0
M  END
> <Uni-Dock RESULT> 
ENERGY=   -4.527  LOWER_BOUND=    5.391  UPPER_BOUND=    7.370
INTER + INTRA:          -4.527
INTER:                  -4.527
INTRA:                   0.000
UNBOUND:                 0.000

$$$$

     RDKit          3D

 28 29  0  0  0  0  0  0  0  0999 V2000
   45.7763    7.9217   12.7523 C   0  0  0  0  0  0  0  0  0  0  0  0
   45.6605    6.7246   12.1314 O   0  0  0  0  0  0  0  0  0  0  0  0
   44.9442    8.8150   12.7401 O   0  0  0  0  0  0  0  0  0  0  0  0
   47.0770    8.0146   13.4695 C   0  0  0  0  0  0  0  0  0  0  0  0
   44.4330    6.5602   11.4186 C   0  0  0  0  0  0  0  0  0  0  0  0
   44.4499    5.1926   10.7865 C   0  0  0  0  0  0  0  0  0  0  0  0
   47.3634    9.1941   14.1706 C   0  0  0  0  0  0  0  0  0  0  0  0
   48.0139    6.9716   13.4659 C   0  0  0  0  0  0  0  0  0  0  0  0
   44.9900    5.0073    9.5060 C   0  0  0  0  0  0  0  0  0  0  0  0
   43.9647    4.0792   11.4867 C   0  0  0  0  0  0  0  0  0  0  0  0
   48.5707    9.3290   14.8591 C   0  0  0  0  0  0  0  0  0  0  0  0
   49.2207    7.1106   14.1560 C   0  0  0  0  0  0  0  0  0  0  0  0
   45.0234    3.7367    8.9293 C   0  0  0  0  0  0  0  0  0  0  0  0
   43.9991    2.8093   10.9081 C   0  0  0  0  0  0  0  0  0  0  0  0
   49.4977    8.2875   14.8510 C   0  0  0  0  0  0  0  0  0  0  0  0
   44.5260    2.6390    9.6292 C   0  0  0  0  0  0  0  0  0  0  0  0
   44.3371    7.3305   10.6434 H   0  0  0  0  0  0  0  0  0  0  0  0
   43.5806    6.6461   12.1040 H   0  0  0  0  0  0  0  0  0  0  0  0
   46.6465   10.0131   14.1831 H   0  0  0  0  0  0  0  0  0  0  0  0
   47.8187    6.0452   12.9306 H   0  0  0  0  0  0  0  0  0  0  0  0
   45.3904    5.8537    8.9522 H   0  0  0  0  0  0  0  0  0  0  0  0
   43.5594    4.1960   12.4894 H   0  0  0  0  0  0  0  0  0  0  0  0
   48.7871   10.2464   15.4010 H   0  0  0  0  0  0  0  0  0  0  0  0
   49.9449    6.2994   14.1509 H   0  0  0  0  0  0  0  0  0  0  0  0
   45.4409    3.6029    7.9347 H   0  0  0  0  0  0  0  0  0  0  0  0
   43.6176    1.9523   11.4571 H   0  0  0  0  0  0  0  0  0  0  0  0
   50.4377    8.3932   15.3873 H   0  0  0  0  0  0  0  0  0  0  0  0
   44.5535    1.6498    9.1799 H   0  0  0  0  0  0  0  0  0  0  0  0
  2  1  1  0
  3  1  2  0
  4  1  1  0
  5  2  1  0
  6  5  1  0
  7  4  2  0
  8  4  1  0
  9  6  2  0
 10  6  1  0
 11  7  1  0
 12  8  2  0
 13  9  1  0
 14 10  2  0
 15 12  1  0
 16 14  1  0
 15 11  2  0
 16 13  2  0
  5 17  1  0
  5 18  1  0
  7 19  1  0
  8 20  1  0
  9 21  1  0
 10 22  1  0
 11 23  1  0
 12 24  1  0
 13 25  1  0
 14 26  1  0
 15 27  1  0
 16 28  1  0
M  END
> <Uni-Dock RESULT> 
ENERGY=   -4.394  LOWER_BOUND=    2.342  UPPER_BOUND=    3.725
INTER + INTRA:          -4.394
INTER:                  -4.394
INTRA:                   0.000
UNBOUND:                 0.000

$$$$

     RDKit          3D

 28 29  0  0  0  0  0  0  0  0999 V2000
   47.3117    4.4022   14.8853 C   0  0  0  0  0  0  0  0  0  0  0  0
   47.3277    5.6788   14.4361 O   0  0  0  0  0  0  0  0  0  0  0  0
   47.0293    3.4164   14.2226 O   0  0  0  0  0  0  0  0  0  0  0  0
   47.6910    4.3495   16.3233 C   0  0  0  0  0  0  0  0  0  0  0  0
   46.9730    5.8107   13.0581 C   0  0  0  0  0  0  0  0  0  0  0  0
   47.0352    7.2746   12.7070 C   0  0  0  0  0  0  0  0  0  0  0  0
   47.7260    3.0977   16.9532 C   0  0  0  0  0  0  0  0  0  0  0  0
   48.0106    5.4992   17.0594 C   0  0  0  0  0  0  0  0  0  0  0  0
   45.9097    8.0942   12.8719 C   0  0  0  0  0  0  0  0  0  0  0  0
   48.2312    7.8466   12.2510 C   0  0  0  0  0  0  0  0  0  0  0  0
   48.0760    2.9967   18.3011 C   0  0  0  0  0  0  0  0  0  0  0  0
   48.3602    5.3938   18.4080 C   0  0  0  0  0  0  0  0  0  0  0  0
   45.9740    9.4544   12.5653 C   0  0  0  0  0  0  0  0  0  0  0  0
   48.2933    9.2071   11.9451 C   0  0  0  0  0  0  0  0  0  0  0  0
   48.3926    4.1444   19.0268 C   0  0  0  0  0  0  0  0  0  0  0  0
   47.1645   10.0097   12.0999 C   0  0  0  0  0  0  0  0  0  0  0  0
   45.9594    5.4269   12.8878 H   0  0  0  0  0  0  0  0  0  0  0  0
   47.6714    5.2442   12.4296 H   0  0  0  0  0  0  0  0  0  0  0  0
   47.4806    2.1956   16.3955 H   0  0  0  0  0  0  0  0  0  0  0  0
   47.9918    6.4834   16.5970 H   0  0  0  0  0  0  0  0  0  0  0  0
   44.9767    7.6761   13.2433 H   0  0  0  0  0  0  0  0  0  0  0  0
   49.1225    7.2340   12.1345 H   0  0  0  0  0  0  0  0  0  0  0  0
   48.1014    2.0230   18.7839 H   0  0  0  0  0  0  0  0  0  0  0  0
   48.6075    6.2878   18.9755 H   0  0  0  0  0  0  0  0  0  0  0  0
   45.0955   10.0816   12.6929 H   0  0  0  0  0  0  0  0  0  0  0  0
   49.2239    9.6414   11.5889 H   0  0  0  0  0  0  0  0  0  0  0  0
   48.6651    4.0652   20.0765 H   0  0  0  0  0  0  0  0  0  0  0  0
   47.2140   11.0691   11.8625 H   0  0  0  0  0  0  0  0  0  0  0  0
  2  1  1  0
  3  1  2  0
  4  1  1  0
  5  2  1  0
  6  5  1  0
  7  4  2  0
  8  4  1  0
  9  6  2  0
 10  6  1  0
 11  7  1  0
 12  8  2  0
 13  9  1  0
 14 10  2  0
 15 12  1  0
 16 14  1  0
 15 11  2  0
 16 13  2  0
  5 17  1  0
  5 18  1  0
  7 19  1  0
  8 20  1  0
  9 21  1  0
 10 22  1  0
 11 23  1  0
 12 24  1  0
 13 25  1  0
 14 26  1  0
 15 27  1  0
 16 28  1  0
M  END
> <Uni-Dock RESULT> 
ENERGY=   -4.217  LOWER_BOUND=    5.041  UPPER_BOUND=    7.211
INTER + INTRA:          -4.217
INTER:                  -4.217
INTRA:                   0.000
UNBOUND:                 0.000

$$$$

     RDKit          3D

 28 29  0  0  0  0  0  0  0  0999 V2000
   48.3195    9.1126   17.0712 C   0  0  0  0  0  0  0  0  0  0  0  0
   48.3316    7.7847   17.3328 O   0  0  0  0  0  0  0  0  0  0  0  0
   48.6947    9.6390   16.0354 O   0  0  0  0  0  0  0  0  0  0  0  0
   47.7782    9.8690   18.2329 C   0  0  0  0  0  0  0  0  0  0  0  0
   48.8402    6.9894   16.2600 C   0  0  0  0  0  0  0  0  0  0  0  0
   48.7916    5.5478   16.6954 C   0  0  0  0  0  0  0  0  0  0  0  0
   47.6942   11.2647   18.1328 C   0  0  0  0  0  0  0  0  0  0  0  0
   47.3547    9.2370   19.4105 C   0  0  0  0  0  0  0  0  0  0  0  0
   49.8752    4.9727   17.3741 C   0  0  0  0  0  0  0  0  0  0  0  0
   47.6456    4.7735   16.4656 C   0  0  0  0  0  0  0  0  0  0  0  0
   47.1932   12.0184   19.1962 C   0  0  0  0  0  0  0  0  0  0  0  0
   46.8541    9.9948   20.4722 C   0  0  0  0  0  0  0  0  0  0  0  0
   49.8213    3.6429   17.7948 C   0  0  0  0  0  0  0  0  0  0  0  0
   47.5939    3.4438   16.8872 C   0  0  0  0  0  0  0  0  0  0  0  0
   46.7739   11.3829   20.3642 C   0  0  0  0  0  0  0  0  0  0  0  0
   48.6822    2.8785   17.5491 C   0  0  0  0  0  0  0  0  0  0  0  0
   49.8735    7.2770   16.0298 H   0  0  0  0  0  0  0  0  0  0  0  0
   48.2294    7.1300   15.3595 H   0  0  0  0  0  0  0  0  0  0  0  0
   48.0189   11.7705   17.2253 H   0  0  0  0  0  0  0  0  0  0  0  0
   47.4083    8.1558   19.5163 H   0  0  0  0  0  0  0  0  0  0  0  0
   50.7669    5.5605   17.5810 H   0  0  0  0  0  0  0  0  0  0  0  0
   46.7852    5.2046   15.9585 H   0  0  0  0  0  0  0  0  0  0  0  0
   47.1306   13.1005   19.1125 H   0  0  0  0  0  0  0  0  0  0  0  0
   46.5265    9.5009   21.3839 H   0  0  0  0  0  0  0  0  0  0  0  0
   50.6675    3.2043   18.3174 H   0  0  0  0  0  0  0  0  0  0  0  0
   46.7026    2.8500   16.7017 H   0  0  0  0  0  0  0  0  0  0  0  0
   46.3839   11.9704   21.1920 H   0  0  0  0  0  0  0  0  0  0  0  0
   48.6408    1.8435   17.8780 H   0  0  0  0  0  0  0  0  0  0  0  0
  2  1  1  0
  3  1  2  0
  4  1  1  0
  5  2  1  0
  6  5  1  0
  7  4  2  0
  8  4  1  0
  9  6  2  0
 10  6  1  0
 11  7  1  0
 12  8  2  0
 13  9  1  0
 14 10  2  0
 15 12  1  0
 16 14  1  0
 15 11  2  0
 16 13  2  0
  5 17  1  0
  5 18  1  0
  7 19  1  0
  8 20  1  0
  9 21  1  0
 10 22  1  0
 11 23  1  0
 12 24  1  0
 13 25  1  0
 14 26  1  0
 15 27  1  0
 16 28  1  0
M  END
> <Uni-Dock RESULT> 
ENERGY=   -4.152  LOWER_BOUND=    7.905  UPPER_BOUND=    9.291
INTER + INTRA:          -4.152
INTER:                  -4.152
INTRA:                   0.000
UNBOUND:                 0.000

$$$$

     RDKit          3D

 28 29  0  0  0  0  0  0  0  0999 V2000
   44.8349    9.4556   11.8112 C   0  0  0  0  0  0  0  0  0  0  0  0
   44.4388    8.1764   11.6152 O   0  0  0  0  0  0  0  0  0  0  0  0
   45.8800    9.8062   12.3364 O   0  0  0  0  0  0  0  0  0  0  0  0
   43.8121   10.4046   11.2936 C   0  0  0  0  0  0  0  0  0  0  0  0
   45.3726    7.2037   12.0881 C   0  0  0  0  0  0  0  0  0  0  0  0
   44.7983    5.8404   11.8026 C   0  0  0  0  0  0  0  0  0  0  0  0
   44.0620   11.7785   11.4157 C   0  0  0  0  0  0  0  0  0  0  0  0
   42.6203    9.9726   10.6947 C   0  0  0  0  0  0  0  0  0  0  0  0
   43.9666    5.2086   12.7379 C   0  0  0  0  0  0  0  0  0  0  0  0
   45.0528    5.2030   10.5801 C   0  0  0  0  0  0  0  0  0  0  0  0
   43.1324   12.7082   10.9451 C   0  0  0  0  0  0  0  0  0  0  0  0
   41.6928   10.9061   10.2252 C   0  0  0  0  0  0  0  0  0  0  0  0
   43.4188    3.9543   12.4642 C   0  0  0  0  0  0  0  0  0  0  0  0
   44.5038    3.9486   10.3083 C   0  0  0  0  0  0  0  0  0  0  0  0
   41.9494   12.2712   10.3506 C   0  0  0  0  0  0  0  0  0  0  0  0
   43.6894    3.3239   11.2510 C   0  0  0  0  0  0  0  0  0  0  0  0
   45.5343    7.3243   13.1665 H   0  0  0  0  0  0  0  0  0  0  0  0
   46.3355    7.3200   11.5753 H   0  0  0  0  0  0  0  0  0  0  0  0
   44.9825   12.1300   11.8782 H   0  0  0  0  0  0  0  0  0  0  0  0
   42.3998    8.9131   10.5866 H   0  0  0  0  0  0  0  0  0  0  0  0
   43.7393    5.6933   13.6849 H   0  0  0  0  0  0  0  0  0  0  0  0
   45.6789    5.6831    9.8313 H   0  0  0  0  0  0  0  0  0  0  0  0
   43.3320   13.7724   11.0427 H   0  0  0  0  0  0  0  0  0  0  0  0
   40.7696   10.5671    9.7612 H   0  0  0  0  0  0  0  0  0  0  0  0
   42.7778    3.4704   13.1966 H   0  0  0  0  0  0  0  0  0  0  0  0
   44.7093    3.4604    9.3592 H   0  0  0  0  0  0  0  0  0  0  0  0
   41.2259   12.9956    9.9844 H   0  0  0  0  0  0  0  0  0  0  0  0
   43.2615    2.3479   11.0383 H   0  0  0  0  0  0  0  0  0  0  0  0
  2  1  1  0
  3  1  2  0
  4  1  1  0
  5  2  1  0
  6  5  1  0
  7  4  2  0
  8  4  1  0
  9  6  2  0
 10  6  1  0
 11  7  1  0
 12  8  2  0
 13  9  1  0
 14 10  2  0
 15 12  1  0
 16 14  1  0
 15 11  2  0
 16 13  2  0
  5 17  1  0
  5 18  1  0
  7 19  1  0
  8 20  1  0
  9 21  1  0
 10 22  1  0
 11 23  1  0
 12 24  1  0
 13 25  1  0
 14 26  1  0
 15 27  1  0
 16 28  1  0
M  END
> <Uni-Dock RESULT> 
ENERGY=   -4.141  LOWER_BOUND=    3.563  UPPER_BOUND=    5.566
INTER + INTRA:          -4.141
INTER:                  -4.141
INTRA:                   0.000
UNBOUND:                 0.000

$$$$
