
     RDKit          3D

 28 29  0  0  0  0  0  0  0  0999 V2000
   44.5809    5.5281   10.2814 C   0  0  0  0  0  0  0  0  0  0  0  0
   45.3744    4.7323    9.5270 O   0  0  0  0  0  0  0  0  0  0  0  0
   43.3623    5.5779   10.2265 O   0  0  0  0  0  0  0  0  0  0  0  0
   45.4003    6.3549   11.2086 C   0  0  0  0  0  0  0  0  0  0  0  0
   44.6570    3.9055    8.6085 C   0  0  0  0  0  0  0  0  0  0  0  0
   45.6654    3.0850    7.8469 C   0  0  0  0  0  0  0  0  0  0  0  0
   46.7996    6.2762   11.2494 C   0  0  0  0  0  0  0  0  0  0  0  0
   44.7359    7.2414   12.0675 C   0  0  0  0  0  0  0  0  0  0  0  0
   46.2368    3.5778    6.6653 C   0  0  0  0  0  0  0  0  0  0  0  0
   46.0780    1.8357    8.3314 C   0  0  0  0  0  0  0  0  0  0  0  0
   47.5213    7.0754   12.1394 C   0  0  0  0  0  0  0  0  0  0  0  0
   45.4611    8.0384   12.9555 C   0  0  0  0  0  0  0  0  0  0  0  0
   47.1857    2.8257    5.9709 C   0  0  0  0  0  0  0  0  0  0  0  0
   47.0271    1.0851    7.6354 C   0  0  0  0  0  0  0  0  0  0  0  0
   46.8523    7.9547   12.9905 C   0  0  0  0  0  0  0  0  0  0  0  0
   47.5786    1.5792    6.4547 C   0  0  0  0  0  0  0  0  0  0  0  0
   44.0757    4.5243    7.9136 H   0  0  0  0  0  0  0  0  0  0  0  0
   43.9676    3.2454    9.1495 H   0  0  0  0  0  0  0  0  0  0  0  0
   47.3416    5.5976   10.5948 H   0  0  0  0  0  0  0  0  0  0  0  0
   43.6500    7.3144   12.0481 H   0  0  0  0  0  0  0  0  0  0  0  0
   45.9465    4.5533    6.2813 H   0  0  0  0  0  0  0  0  0  0  0  0
   45.6630    1.4421    9.2566 H   0  0  0  0  0  0  0  0  0  0  0  0
   48.6065    7.0114   12.1680 H   0  0  0  0  0  0  0  0  0  0  0  0
   44.9399    8.7241   13.6192 H   0  0  0  0  0  0  0  0  0  0  0  0
   47.6209    3.2142    5.0538 H   0  0  0  0  0  0  0  0  0  0  0  0
   47.3386    0.1161    8.0166 H   0  0  0  0  0  0  0  0  0  0  0  0
   47.4166    8.5757   13.6822 H   0  0  0  0  0  0  0  0  0  0  0  0
   48.3184    0.9947    5.9140 H   0  0  0  0  0  0  0  0  0  0  0  0
  2  1  1  0
  3  1  2  0
  4  1  1  0
  5  2  1  0
  6  5  1  0
  7  4  2  0
  8  4  1  0
  9  6  2  0
 10  6  1  0
 11  7  1  0
 12  8  2  0
 13  9  1  0
 14 10  2  0
 15 12  1  0
 16 14  1  0
 15 11  2  0
 16 13  2  0
  5 17  1  0
  5 18  1  0
  7 19  1  0
  8 20  1  0
  9 21  1  0
 10 22  1  0
 11 23  1  0
 12 24  1  0
 13 25  1  0
 14 26  1  0
 15 27  1  0
 16 28  1  0
M  END
> <Uni-Dock RESULT> 
ENERGY=   -6.154  LOWER_BOUND=    0.000  UPPER_BOUND=    0.000
INTER + INTRA:          -6.154
INTER:                  -6.154
INTRA:                   0.000
UNBOUND:                 0.000

$$$$

     RDKit          3D

 28 29  0  0  0  0  0  0  0  0999 V2000
   44.3035    4.3923   10.4379 C   0  0  0  0  0  0  0  0  0  0  0  0
   44.4971    5.7298   10.5126 O   0  0  0  0  0  0  0  0  0  0  0  0
   43.6085    3.7291   11.1912 O   0  0  0  0  0  0  0  0  0  0  0  0
   45.0630    3.8177    9.2943 C   0  0  0  0  0  0  0  0  0  0  0  0
   43.7973    6.3552   11.5902 C   0  0  0  0  0  0  0  0  0  0  0  0
   44.1080    7.8288   11.5443 C   0  0  0  0  0  0  0  0  0  0  0  0
   45.8538    4.6047    8.4451 C   0  0  0  0  0  0  0  0  0  0  0  0
   44.9760    2.4368    9.0691 C   0  0  0  0  0  0  0  0  0  0  0  0
   45.2242    8.3418   12.2201 C   0  0  0  0  0  0  0  0  0  0  0  0
   43.3100    8.7012   10.7907 C   0  0  0  0  0  0  0  0  0  0  0  0
   46.5468    4.0144    7.3855 C   0  0  0  0  0  0  0  0  0  0  0  0
   45.6703    1.8509    8.0088 C   0  0  0  0  0  0  0  0  0  0  0  0
   45.5229    9.7040   12.1607 C   0  0  0  0  0  0  0  0  0  0  0  0
   43.6105   10.0631   10.7328 C   0  0  0  0  0  0  0  0  0  0  0  0
   46.4546    2.6398    7.1686 C   0  0  0  0  0  0  0  0  0  0  0  0
   44.7150   10.5641   11.4194 C   0  0  0  0  0  0  0  0  0  0  0  0
   44.1214    5.9336   12.5498 H   0  0  0  0  0  0  0  0  0  0  0  0
   42.7169    6.1959   11.4854 H   0  0  0  0  0  0  0  0  0  0  0  0
   45.9399    5.6783    8.5959 H   0  0  0  0  0  0  0  0  0  0  0  0
   44.3664    1.8119    9.7193 H   0  0  0  0  0  0  0  0  0  0  0  0
   45.8689    7.6803   12.7947 H   0  0  0  0  0  0  0  0  0  0  0  0
   42.4506    8.3223   10.2421 H   0  0  0  0  0  0  0  0  0  0  0  0
   47.1591    4.6282    6.7290 H   0  0  0  0  0  0  0  0  0  0  0  0
   45.5987    0.7792    7.8394 H   0  0  0  0  0  0  0  0  0  0  0  0
   46.3883   10.0934   12.6905 H   0  0  0  0  0  0  0  0  0  0  0  0
   42.9843   10.7326   10.1488 H   0  0  0  0  0  0  0  0  0  0  0  0
   46.9952    2.1829    6.3430 H   0  0  0  0  0  0  0  0  0  0  0  0
   44.9489   11.6245   11.3728 H   0  0  0  0  0  0  0  0  0  0  0  0
  2  1  1  0
  3  1  2  0
  4  1  1  0
  5  2  1  0
  6  5  1  0
  7  4  2  0
  8  4  1  0
  9  6  2  0
 10  6  1  0
 11  7  1  0
 12  8  2  0
 13  9  1  0
 14 10  2  0
 15 12  1  0
 16 14  1  0
 15 11  2  0
 16 13  2  0
  5 17  1  0
  5 18  1  0
  7 19  1  0
  8 20  1  0
  9 21  1  0
 10 22  1  0
 11 23  1  0
 12 24  1  0
 13 25  1  0
 14 26  1  0
 15 27  1  0
 16 28  1  0
M  END
> <Uni-Dock RESULT> 
ENERGY=   -5.495  LOWER_BOUND=    1.719  UPPER_BOUND=    6.586
INTER + INTRA:          -5.495
INTER:                  -5.495
INTRA:                   0.000
UNBOUND:                 0.000

$$$$

     RDKit          3D

 28 29  0  0  0  0  0  0  0  0999 V2000
   44.6565    5.1669   11.5585 C   0  0  0  0  0  0  0  0  0  0  0  0
   45.0991    6.4395   11.4298 O   0  0  0  0  0  0  0  0  0  0  0  0
   44.1097    4.6983   12.5444 O   0  0  0  0  0  0  0  0  0  0  0  0
   44.9267    4.3917   10.3172 C   0  0  0  0  0  0  0  0  0  0  0  0
   44.8743    7.2487   12.5859 C   0  0  0  0  0  0  0  0  0  0  0  0
   45.4154    8.6244   12.2943 C   0  0  0  0  0  0  0  0  0  0  0  0
   45.5569    4.9570    9.1996 C   0  0  0  0  0  0  0  0  0  0  0  0
   44.5315    3.0473   10.2773 C   0  0  0  0  0  0  0  0  0  0  0  0
   46.7547    8.9349   12.5691 C   0  0  0  0  0  0  0  0  0  0  0  0
   44.5989    9.6000   11.7051 C   0  0  0  0  0  0  0  0  0  0  0  0
   45.7870    4.1843    8.0586 C   0  0  0  0  0  0  0  0  0  0  0  0
   44.7634    2.2786    9.1349 C   0  0  0  0  0  0  0  0  0  0  0  0
   47.2606   10.2034   12.2803 C   0  0  0  0  0  0  0  0  0  0  0  0
   45.1068   10.8680   11.4171 C   0  0  0  0  0  0  0  0  0  0  0  0
   45.3906    2.8476    8.0274 C   0  0  0  0  0  0  0  0  0  0  0  0
   46.4362   11.1697   11.7069 C   0  0  0  0  0  0  0  0  0  0  0  0
   45.3880    6.8206   13.4557 H   0  0  0  0  0  0  0  0  0  0  0  0
   43.8013    7.3065   12.8069 H   0  0  0  0  0  0  0  0  0  0  0  0
   45.8743    5.9973    9.2022 H   0  0  0  0  0  0  0  0  0  0  0  0
   44.0412    2.5936   11.1366 H   0  0  0  0  0  0  0  0  0  0  0  0
   47.4120    8.1872   13.0077 H   0  0  0  0  0  0  0  0  0  0  0  0
   43.5621    9.3753   11.4649 H   0  0  0  0  0  0  0  0  0  0  0  0
   46.2760    4.6265    7.1938 H   0  0  0  0  0  0  0  0  0  0  0  0
   44.4545    1.2364    9.1101 H   0  0  0  0  0  0  0  0  0  0  0  0
   48.2993   10.4364   12.4998 H   0  0  0  0  0  0  0  0  0  0  0  0
   44.4656   11.6192   10.9635 H   0  0  0  0  0  0  0  0  0  0  0  0
   45.5709    2.2484    7.1380 H   0  0  0  0  0  0  0  0  0  0  0  0
   46.8312   12.1569   11.4813 H   0  0  0  0  0  0  0  0  0  0  0  0
  2  1  1  0
  3  1  2  0
  4  1  1  0
  5  2  1  0
  6  5  1  0
  7  4  2  0
  8  4  1  0
  9  6  2  0
 10  6  1  0
 11  7  1  0
 12  8  2  0
 13  9  1  0
 14 10  2  0
 15 12  1  0
 16 14  1  0
 15 11  2  0
 16 13  2  0
  5 17  1  0
  5 18  1  0
  7 19  1  0
  8 20  1  0
  9 21  1  0
 10 22  1  0
 11 23  1  0
 12 24  1  0
 13 25  1  0
 14 26  1  0
 15 27  1  0
 16 28  1  0
M  END
> <Uni-Dock RESULT> 
ENERGY=   -5.254  LOWER_BOUND=    1.940  UPPER_BOUND=    6.715
INTER + INTRA:          -5.254
INTER:                  -5.254
INTRA:                   0.000
UNBOUND:                 0.000

$$$$

     RDKit          3D

 28 29  0  0  0  0  0  0  0  0999 V2000
   45.1390    7.4980   12.3274 C   0  0  0  0  0  0  0  0  0  0  0  0
   44.2814    8.3135   11.6705 O   0  0  0  0  0  0  0  0  0  0  0  0
   46.1496    7.8503   12.9148 O   0  0  0  0  0  0  0  0  0  0  0  0
   44.6843    6.0835   12.2415 C   0  0  0  0  0  0  0  0  0  0  0  0
   44.6526    9.6929   11.7086 C   0  0  0  0  0  0  0  0  0  0  0  0
   43.6127   10.4684   10.9422 C   0  0  0  0  0  0  0  0  0  0  0  0
   43.5183    5.7084   11.5594 C   0  0  0  0  0  0  0  0  0  0  0  0
   45.4602    5.0997   12.8702 C   0  0  0  0  0  0  0  0  0  0  0  0
   43.7468   10.6646    9.5604 C   0  0  0  0  0  0  0  0  0  0  0  0
   42.4753   10.9681   11.5920 C   0  0  0  0  0  0  0  0  0  0  0  0
   43.1365    4.3655   11.5091 C   0  0  0  0  0  0  0  0  0  0  0  0
   45.0749    3.7586   12.8174 C   0  0  0  0  0  0  0  0  0  0  0  0
   42.7730   11.3660    8.8475 C   0  0  0  0  0  0  0  0  0  0  0  0
   41.5027   11.6693   10.8772 C   0  0  0  0  0  0  0  0  0  0  0  0
   43.9141    3.3931   12.1373 C   0  0  0  0  0  0  0  0  0  0  0  0
   41.6530   11.8699    9.5063 C   0  0  0  0  0  0  0  0  0  0  0  0
   45.6391    9.8342   11.2498 H   0  0  0  0  0  0  0  0  0  0  0  0
   44.6956   10.0467   12.7462 H   0  0  0  0  0  0  0  0  0  0  0  0
   42.8971    6.4501   11.0625 H   0  0  0  0  0  0  0  0  0  0  0  0
   46.3682    5.3745   13.4037 H   0  0  0  0  0  0  0  0  0  0  0  0
   44.6111   10.2686    9.0318 H   0  0  0  0  0  0  0  0  0  0  0  0
   42.3403   10.8107   12.6598 H   0  0  0  0  0  0  0  0  0  0  0  0
   42.2313    4.0786   10.9791 H   0  0  0  0  0  0  0  0  0  0  0  0
   45.6809    3.0001   13.3071 H   0  0  0  0  0  0  0  0  0  0  0  0
   42.8869   11.5163    7.7771 H   0  0  0  0  0  0  0  0  0  0  0  0
   40.6259   12.0561   11.3899 H   0  0  0  0  0  0  0  0  0  0  0  0
   43.6146    2.3485   12.0966 H   0  0  0  0  0  0  0  0  0  0  0  0
   40.8947   12.4149    8.9503 H   0  0  0  0  0  0  0  0  0  0  0  0
  2  1  1  0
  3  1  2  0
  4  1  1  0
  5  2  1  0
  6  5  1  0
  7  4  2  0
  8  4  1  0
  9  6  2  0
 10  6  1  0
 11  7  1  0
 12  8  2  0
 13  9  1  0
 14 10  2  0
 15 12  1  0
 16 14  1  0
 15 11  2  0
 16 13  2  0
  5 17  1  0
  5 18  1  0
  7 19  1  0
  8 20  1  0
  9 21  1  0
 10 22  1  0
 11 23  1  0
 12 24  1  0
 13 25  1  0
 14 26  1  0
 15 27  1  0
 16 28  1  0
M  END
> <Uni-Dock RESULT> 
ENERGY=   -4.253  LOWER_BOUND=    4.111  UPPER_BOUND=    7.197
INTER + INTRA:          -4.253
INTER:                  -4.253
INTRA:                   0.000
UNBOUND:                 0.000

$$$$

     RDKit          3D

 28 29  0  0  0  0  0  0  0  0999 V2000
   48.3186    9.1151   17.0691 C   0  0  0  0  0  0  0  0  0  0  0  0
   48.3321    7.7869   17.3293 O   0  0  0  0  0  0  0  0  0  0  0  0
   48.6924    9.6428   16.0335 O   0  0  0  0  0  0  0  0  0  0  0  0
   47.7781    9.8699   18.2323 C   0  0  0  0  0  0  0  0  0  0  0  0
   48.8401    6.9932   16.2552 C   0  0  0  0  0  0  0  0  0  0  0  0
   48.7933    5.5511   16.6893 C   0  0  0  0  0  0  0  0  0  0  0  0
   47.3561    9.2363   19.4097 C   0  0  0  0  0  0  0  0  0  0  0  0
   47.6933   11.2657   18.1338 C   0  0  0  0  0  0  0  0  0  0  0  0
   49.8747    4.9790   17.3741 C   0  0  0  0  0  0  0  0  0  0  0  0
   47.6512    4.7733   16.4521 C   0  0  0  0  0  0  0  0  0  0  0  0
   46.8563    9.9927   20.4726 C   0  0  0  0  0  0  0  0  0  0  0  0
   47.1930   12.0178   19.1987 C   0  0  0  0  0  0  0  0  0  0  0  0
   49.8227    3.6487   17.7935 C   0  0  0  0  0  0  0  0  0  0  0  0
   47.6013    3.4431   16.8724 C   0  0  0  0  0  0  0  0  0  0  0  0
   46.7753   11.3808   20.3663 C   0  0  0  0  0  0  0  0  0  0  0  0
   48.6875    2.8809   17.5406 C   0  0  0  0  0  0  0  0  0  0  0  0
   49.8731    7.2817   16.0244 H   0  0  0  0  0  0  0  0  0  0  0  0
   48.2284    7.1344   15.3555 H   0  0  0  0  0  0  0  0  0  0  0  0
   47.4104    8.1551   19.5141 H   0  0  0  0  0  0  0  0  0  0  0  0
   48.0168   11.7727   17.2266 H   0  0  0  0  0  0  0  0  0  0  0  0
   50.7633    5.5695   17.5867 H   0  0  0  0  0  0  0  0  0  0  0  0
   46.7925    5.2019   15.9402 H   0  0  0  0  0  0  0  0  0  0  0  0
   46.5300    9.4975   21.3842 H   0  0  0  0  0  0  0  0  0  0  0  0
   47.1298   13.1002   19.1161 H   0  0  0  0  0  0  0  0  0  0  0  0
   50.6670    3.2124   18.3208 H   0  0  0  0  0  0  0  0  0  0  0  0
   46.7131    2.8465   16.6812 H   0  0  0  0  0  0  0  0  0  0  0  0
   46.3859   11.9671   21.1952 H   0  0  0  0  0  0  0  0  0  0  0  0
   48.6473    1.8454   17.8685 H   0  0  0  0  0  0  0  0  0  0  0  0
  2  1  1  0
  3  1  2  0
  4  1  1  0
  5  2  1  0
  6  5  1  0
  7  4  2  0
  8  4  1  0
  9  6  2  0
 10  6  1  0
 11  7  1  0
 12  8  2  0
 13  9  1  0
 14 10  2  0
 15 12  1  0
 16 14  1  0
 15 11  2  0
 16 13  2  0
  5 17  1  0
  5 18  1  0
  7 19  1  0
  8 20  1  0
  9 21  1  0
 10 22  1  0
 11 23  1  0
 12 24  1  0
 13 25  1  0
 14 26  1  0
 15 27  1  0
 16 28  1  0
M  END
> <Uni-Dock RESULT> 
ENERGY=   -4.150  LOWER_BOUND=    7.921  UPPER_BOUND=    9.316
INTER + INTRA:          -4.150
INTER:                  -4.150
INTRA:                   0.000
UNBOUND:                 0.000

$$$$

     RDKit          3D

 28 29  0  0  0  0  0  0  0  0999 V2000
   47.5766    7.6424   20.0256 C   0  0  0  0  0  0  0  0  0  0  0  0
   47.9558    6.6540   19.1823 O   0  0  0  0  0  0  0  0  0  0  0  0
   47.2300    7.4952   21.1869 O   0  0  0  0  0  0  0  0  0  0  0  0
   47.6366    8.9634   19.3428 C   0  0  0  0  0  0  0  0  0  0  0  0
   47.9239    5.3511   19.7683 C   0  0  0  0  0  0  0  0  0  0  0  0
   48.3673    4.3656   18.7183 C   0  0  0  0  0  0  0  0  0  0  0  0
   48.0390    9.1020   18.0069 C   0  0  0  0  0  0  0  0  0  0  0  0
   47.2744   10.1033   20.0739 C   0  0  0  0  0  0  0  0  0  0  0  0
   47.4345    3.7897   17.8442 C   0  0  0  0  0  0  0  0  0  0  0  0
   49.7239    4.0429   18.5728 C   0  0  0  0  0  0  0  0  0  0  0  0
   48.0774   10.3662   17.4136 C   0  0  0  0  0  0  0  0  0  0  0  0
   47.3143   11.3650   19.4770 C   0  0  0  0  0  0  0  0  0  0  0  0
   47.8486    2.8920   16.8588 C   0  0  0  0  0  0  0  0  0  0  0  0
   50.1359    3.1449   17.5867 C   0  0  0  0  0  0  0  0  0  0  0  0
   47.7155   11.4951   18.1482 C   0  0  0  0  0  0  0  0  0  0  0  0
   49.1982    2.5683   16.7319 C   0  0  0  0  0  0  0  0  0  0  0  0
   46.9077    5.1095   20.1036 H   0  0  0  0  0  0  0  0  0  0  0  0
   48.5974    5.3064   20.6332 H   0  0  0  0  0  0  0  0  0  0  0  0
   48.3254    8.2353   17.4156 H   0  0  0  0  0  0  0  0  0  0  0  0
   46.9597   10.0126   21.1119 H   0  0  0  0  0  0  0  0  0  0  0  0
   46.3792    4.0407   17.9257 H   0  0  0  0  0  0  0  0  0  0  0  0
   50.4677    4.4928   19.2267 H   0  0  0  0  0  0  0  0  0  0  0  0
   48.3901   10.4695   16.3772 H   0  0  0  0  0  0  0  0  0  0  0  0
   47.0322   12.2454   20.0494 H   0  0  0  0  0  0  0  0  0  0  0  0
   47.1181    2.4478   16.1877 H   0  0  0  0  0  0  0  0  0  0  0  0
   51.1892    2.8980   17.4834 H   0  0  0  0  0  0  0  0  0  0  0  0
   47.7463   12.4779   17.6839 H   0  0  0  0  0  0  0  0  0  0  0  0
   49.5199    1.8701   15.9636 H   0  0  0  0  0  0  0  0  0  0  0  0
  2  1  1  0
  3  1  2  0
  4  1  1  0
  5  2  1  0
  6  5  1  0
  7  4  2  0
  8  4  1  0
  9  6  2  0
 10  6  1  0
 11  7  1  0
 12  8  2  0
 13  9  1  0
 14 10  2  0
 15 12  1  0
 16 14  1  0
 15 11  2  0
 16 13  2  0
  5 17  1  0
  5 18  1  0
  7 19  1  0
  8 20  1  0
  9 21  1  0
 10 22  1  0
 11 23  1  0
 12 24  1  0
 13 25  1  0
 14 26  1  0
 15 27  1  0
 16 28  1  0
M  END
> <Uni-Dock RESULT> 
ENERGY=   -4.070  LOWER_BOUND=    8.568  UPPER_BOUND=    9.854
INTER + INTRA:          -4.070
INTER:                  -4.070
INTRA:                   0.000
UNBOUND:                 0.000

$$$$

     RDKit          3D

 28 29  0  0  0  0  0  0  0  0999 V2000
   46.2027    8.3637   12.5963 C   0  0  0  0  0  0  0  0  0  0  0  0
   45.8748    7.1031   12.2284 O   0  0  0  0  0  0  0  0  0  0  0  0
   45.4176    9.2339   12.9382 O   0  0  0  0  0  0  0  0  0  0  0  0
   47.6764    8.5606   12.5300 C   0  0  0  0  0  0  0  0  0  0  0  0
   44.4713    6.8370   12.2668 C   0  0  0  0  0  0  0  0  0  0  0  0
   44.2640    5.4083   11.8353 C   0  0  0  0  0  0  0  0  0  0  0  0
   48.5543    7.5419   12.1334 C   0  0  0  0  0  0  0  0  0  0  0  0
   48.1926    9.8162   12.8795 C   0  0  0  0  0  0  0  0  0  0  0  0
   44.0961    5.0919   10.4798 C   0  0  0  0  0  0  0  0  0  0  0  0
   44.2784    4.3710   12.7784 C   0  0  0  0  0  0  0  0  0  0  0  0
   49.9302    7.7799   12.0884 C   0  0  0  0  0  0  0  0  0  0  0  0
   49.5685   10.0498   12.8331 C   0  0  0  0  0  0  0  0  0  0  0  0
   43.9240    3.7661   10.0788 C   0  0  0  0  0  0  0  0  0  0  0  0
   44.1062    3.0457   12.3751 C   0  0  0  0  0  0  0  0  0  0  0  0
   50.4354    9.0319   12.4378 C   0  0  0  0  0  0  0  0  0  0  0  0
   43.9267    2.7442   11.0264 C   0  0  0  0  0  0  0  0  0  0  0  0
   43.9370    7.5144   11.5891 H   0  0  0  0  0  0  0  0  0  0  0  0
   44.0843    6.9821   13.2830 H   0  0  0  0  0  0  0  0  0  0  0  0
   48.1820    6.5581   11.8568 H   0  0  0  0  0  0  0  0  0  0  0  0
   47.5244   10.6175   13.1894 H   0  0  0  0  0  0  0  0  0  0  0  0
   44.1015    5.8786    9.7285 H   0  0  0  0  0  0  0  0  0  0  0  0
   44.4271    4.5909   13.8332 H   0  0  0  0  0  0  0  0  0  0  0  0
   50.6078    6.9871   11.7803 H   0  0  0  0  0  0  0  0  0  0  0  0
   49.9628   11.0258   13.1054 H   0  0  0  0  0  0  0  0  0  0  0  0
   43.7912    3.5303    9.0261 H   0  0  0  0  0  0  0  0  0  0  0  0
   44.1153    2.2483   13.1135 H   0  0  0  0  0  0  0  0  0  0  0  0
   51.5068    9.2145   12.4018 H   0  0  0  0  0  0  0  0  0  0  0  0
   43.7938    1.7119   10.7131 H   0  0  0  0  0  0  0  0  0  0  0  0
  2  1  1  0
  3  1  2  0
  4  1  1  0
  5  2  1  0
  6  5  1  0
  7  4  2  0
  8  4  1  0
  9  6  2  0
 10  6  1  0
 11  7  1  0
 12  8  2  0
 13  9  1  0
 14 10  2  0
 15 12  1  0
 16 14  1  0
 15 11  2  0
 16 13  2  0
  5 17  1  0
  5 18  1  0
  7 19  1  0
  8 20  1  0
  9 21  1  0
 10 22  1  0
 11 23  1  0
 12 24  1  0
 13 25  1  0
 14 26  1  0
 15 27  1  0
 16 28  1  0
M  END
> <Uni-Dock RESULT> 
ENERGY=   -4.049  LOWER_BOUND=    3.154  UPPER_BOUND=    4.522
INTER + INTRA:          -4.049
INTER:                  -4.049
INTRA:                   0.000
UNBOUND:                 0.000

$$$$

     RDKit          3D

 28 29  0  0  0  0  0  0  0  0999 V2000
   49.6001    3.1596   17.2668 C   0  0  0  0  0  0  0  0  0  0  0  0
   49.4311    4.4613   17.5971 O   0  0  0  0  0  0  0  0  0  0  0  0
   48.7663    2.4453   16.7329 O   0  0  0  0  0  0  0  0  0  0  0  0
   50.9630    2.6972   17.6457 C   0  0  0  0  0  0  0  0  0  0  0  0
   48.1417    4.9791   17.2631 C   0  0  0  0  0  0  0  0  0  0  0  0
   48.1046    6.4243   17.6873 C   0  0  0  0  0  0  0  0  0  0  0  0
   51.9003    3.5410   18.2583 C   0  0  0  0  0  0  0  0  0  0  0  0
   51.3094    1.3662   17.3746 C   0  0  0  0  0  0  0  0  0  0  0  0
   47.7019    6.7751   18.9837 C   0  0  0  0  0  0  0  0  0  0  0  0
   48.5125    7.4354   16.8058 C   0  0  0  0  0  0  0  0  0  0  0  0
   53.1667    3.0559   18.5937 C   0  0  0  0  0  0  0  0  0  0  0  0
   52.5763    0.8855   17.7116 C   0  0  0  0  0  0  0  0  0  0  0  0
   47.6867    8.1126   19.3824 C   0  0  0  0  0  0  0  0  0  0  0  0
   48.4965    8.7725   17.2066 C   0  0  0  0  0  0  0  0  0  0  0  0
   53.5032    1.7304   18.3204 C   0  0  0  0  0  0  0  0  0  0  0  0
   48.0816    9.1106   18.4934 C   0  0  0  0  0  0  0  0  0  0  0  0
   47.3585    4.4151   17.7848 H   0  0  0  0  0  0  0  0  0  0  0  0
   47.9685    4.9004   16.1827 H   0  0  0  0  0  0  0  0  0  0  0  0
   51.6592    4.5780   18.4805 H   0  0  0  0  0  0  0  0  0  0  0  0
   50.5930    0.6984   16.8996 H   0  0  0  0  0  0  0  0  0  0  0  0
   47.4002    6.0056   19.6910 H   0  0  0  0  0  0  0  0  0  0  0  0
   48.8478    7.1851   15.8018 H   0  0  0  0  0  0  0  0  0  0  0  0
   53.8910    3.7136   19.0687 H   0  0  0  0  0  0  0  0  0  0  0  0
   52.8390   -0.1480   17.4987 H   0  0  0  0  0  0  0  0  0  0  0  0
   47.3698    8.3756   20.3882 H   0  0  0  0  0  0  0  0  0  0  0  0
   48.8112    9.5499   16.5154 H   0  0  0  0  0  0  0  0  0  0  0  0
   54.4897    1.3554   18.5826 H   0  0  0  0  0  0  0  0  0  0  0  0
   48.0706   10.1518   18.8050 H   0  0  0  0  0  0  0  0  0  0  0  0
  2  1  1  0
  3  1  2  0
  4  1  1  0
  5  2  1  0
  6  5  1  0
  7  4  2  0
  8  4  1  0
  9  6  2  0
 10  6  1  0
 11  7  1  0
 12  8  2  0
 13  9  1  0
 14 10  2  0
 15 12  1  0
 16 14  1  0
 15 11  2  0
 16 13  2  0
  5 17  1  0
  5 18  1  0
  7 19  1  0
  8 20  1  0
  9 21  1  0
 10 22  1  0
 11 23  1  0
 12 24  1  0
 13 25  1  0
 14 26  1  0
 15 27  1  0
 16 28  1  0
M  END
> <Uni-Dock RESULT> 
ENERGY=   -3.929  LOWER_BOUND=    8.476  UPPER_BOUND=   10.841
INTER + INTRA:          -3.929
INTER:                  -3.929
INTRA:                   0.000
UNBOUND:                 0.000

$$$$

     RDKit          3D

 28 29  0  0  0  0  0  0  0  0999 V2000
   46.5680    5.4805   13.4159 C   0  0  0  0  0  0  0  0  0  0  0  0
   47.3057    6.5532   13.0454 O   0  0  0  0  0  0  0  0  0  0  0  0
   46.9395    4.5786   14.1500 O   0  0  0  0  0  0  0  0  0  0  0  0
   45.2141    5.5401   12.8009 C   0  0  0  0  0  0  0  0  0  0  0  0
   48.6233    6.5665   13.5983 C   0  0  0  0  0  0  0  0  0  0  0  0
   49.3163    7.8083   13.1005 C   0  0  0  0  0  0  0  0  0  0  0  0
   44.8149    6.5894   11.9611 C   0  0  0  0  0  0  0  0  0  0  0  0
   44.3143    4.5019   13.0797 C   0  0  0  0  0  0  0  0  0  0  0  0
   50.0269    7.7904   11.8920 C   0  0  0  0  0  0  0  0  0  0  0  0
   49.2251    9.0099   13.8172 C   0  0  0  0  0  0  0  0  0  0  0  0
   43.5315    6.5967   11.4093 C   0  0  0  0  0  0  0  0  0  0  0  0
   43.0324    4.5131   12.5261 C   0  0  0  0  0  0  0  0  0  0  0  0
   50.6520    8.9463   11.4215 C   0  0  0  0  0  0  0  0  0  0  0  0
   49.8510   10.1648   13.3448 C   0  0  0  0  0  0  0  0  0  0  0  0
   42.6426    5.5599   11.6919 C   0  0  0  0  0  0  0  0  0  0  0  0
   50.5658   10.1319   12.1489 C   0  0  0  0  0  0  0  0  0  0  0  0
   49.1781    5.6749   13.2808 H   0  0  0  0  0  0  0  0  0  0  0  0
   48.5758    6.5769   14.6943 H   0  0  0  0  0  0  0  0  0  0  0  0
   45.4918    7.4080   11.7273 H   0  0  0  0  0  0  0  0  0  0  0  0
   44.6088    3.6800   13.7297 H   0  0  0  0  0  0  0  0  0  0  0  0
   50.0943    6.8743   11.3092 H   0  0  0  0  0  0  0  0  0  0  0  0
   48.6624    9.0523   14.7471 H   0  0  0  0  0  0  0  0  0  0  0  0
   43.2256    7.4124   10.7584 H   0  0  0  0  0  0  0  0  0  0  0  0
   42.3391    3.7049   12.7463 H   0  0  0  0  0  0  0  0  0  0  0  0
   51.2036    8.9223   10.4853 H   0  0  0  0  0  0  0  0  0  0  0  0
   49.7777   11.0910   13.9087 H   0  0  0  0  0  0  0  0  0  0  0  0
   41.6441    5.5680   11.2611 H   0  0  0  0  0  0  0  0  0  0  0  0
   51.0519   11.0319   11.7813 H   0  0  0  0  0  0  0  0  0  0  0  0
  2  1  1  0
  3  1  2  0
  4  1  1  0
  5  2  1  0
  6  5  1  0
  7  4  2  0
  8  4  1  0
  9  6  2  0
 10  6  1  0
 11  7  1  0
 12  8  2  0
 13  9  1  0
 14 10  2  0
 15 12  1  0
 16 14  1  0
 15 11  2  0
 16 13  2  0
  5 17  1  0
  5 18  1  0
  7 19  1  0
  8 20  1  0
  9 21  1  0
 10 22  1  0
 11 23  1  0
 12 24  1  0
 13 25  1  0
 14 26  1  0
 15 27  1  0
 16 28  1  0
M  END
> <Uni-Dock RESULT> 
ENERGY=   -3.702  LOWER_BOUND=    4.673  UPPER_BOUND=    6.698
INTER + INTRA:          -3.702
INTER:                  -3.702
INTRA:                   0.000
UNBOUND:                 0.000

$$$$
