
     RDKit          3D

 28 29  0  0  0  0  0  0  0  0999 V2000
   45.2465    3.9600   11.4602 C   0  0  0  0  0  0  0  0  0  0  0  0
   45.2201    4.6014   10.2678 O   0  0  0  0  0  0  0  0  0  0  0  0
   44.6751    2.9153   11.7313 O   0  0  0  0  0  0  0  0  0  0  0  0
   46.0768    4.7150   12.4381 C   0  0  0  0  0  0  0  0  0  0  0  0
   44.4842    3.9501    9.2258 C   0  0  0  0  0  0  0  0  0  0  0  0
   45.4425    3.2158    8.3251 C   0  0  0  0  0  0  0  0  0  0  0  0
   46.8018    5.8615   12.0837 C   0  0  0  0  0  0  0  0  0  0  0  0
   46.1323    4.2482   13.7590 C   0  0  0  0  0  0  0  0  0  0  0  0
   46.0905    3.8830    7.2763 C   0  0  0  0  0  0  0  0  0  0  0  0
   45.7312    1.8630    8.5514 C   0  0  0  0  0  0  0  0  0  0  0  0
   47.5671    6.5317   13.0413 C   0  0  0  0  0  0  0  0  0  0  0  0
   46.8980    4.9211   14.7131 C   0  0  0  0  0  0  0  0  0  0  0  0
   46.9931    3.2033    6.4566 C   0  0  0  0  0  0  0  0  0  0  0  0
   46.6344    1.1853    7.7313 C   0  0  0  0  0  0  0  0  0  0  0  0
   47.6139    6.0621   14.3535 C   0  0  0  0  0  0  0  0  0  0  0  0
   47.2629    1.8548    6.6829 C   0  0  0  0  0  0  0  0  0  0  0  0
   43.7016    3.2828    9.6072 H   0  0  0  0  0  0  0  0  0  0  0  0
   43.9630    4.7287    8.6567 H   0  0  0  0  0  0  0  0  0  0  0  0
   46.7843    6.2416   11.0654 H   0  0  0  0  0  0  0  0  0  0  0  0
   45.5785    3.3572   14.0495 H   0  0  0  0  0  0  0  0  0  0  0  0
   45.8971    4.9378    7.0949 H   0  0  0  0  0  0  0  0  0  0  0  0
   45.2561    1.3322    9.3750 H   0  0  0  0  0  0  0  0  0  0  0  0
   48.1290    7.4198   12.7621 H   0  0  0  0  0  0  0  0  0  0  0  0
   46.9364    4.5536   15.7357 H   0  0  0  0  0  0  0  0  0  0  0  0
   47.4893    3.7271    5.6437 H   0  0  0  0  0  0  0  0  0  0  0  0
   46.8505    0.1360    7.9146 H   0  0  0  0  0  0  0  0  0  0  0  0
   48.2111    6.5849   15.0968 H   0  0  0  0  0  0  0  0  0  0  0  0
   47.9675    1.3265    6.0460 H   0  0  0  0  0  0  0  0  0  0  0  0
  2  1  1  0
  3  1  2  0
  4  1  1  0
  5  2  1  0
  6  5  1  0
  7  4  2  0
  8  4  1  0
  9  6  2  0
 10  6  1  0
 11  7  1  0
 12  8  2  0
 13  9  1  0
 14 10  2  0
 15 12  1  0
 16 14  1  0
 15 11  2  0
 16 13  2  0
  5 17  1  0
  5 18  1  0
  7 19  1  0
  8 20  1  0
  9 21  1  0
 10 22  1  0
 11 23  1  0
 12 24  1  0
 13 25  1  0
 14 26  1  0
 15 27  1  0
 16 28  1  0
M  END
> <Uni-Dock RESULT> 
ENERGY=   -5.857  LOWER_BOUND=    0.000  UPPER_BOUND=    0.000
INTER + INTRA:          -5.857
INTER:                  -5.857
INTRA:                   0.000
UNBOUND:                 0.000

$$$$

     RDKit          3D

 28 29  0  0  0  0  0  0  0  0999 V2000
   49.2792    5.0885   19.7804 C   0  0  0  0  0  0  0  0  0  0  0  0
   50.5933    5.2504   19.4958 O   0  0  0  0  0  0  0  0  0  0  0  0
   48.3935    4.8295   18.9806 O   0  0  0  0  0  0  0  0  0  0  0  0
   49.0351    5.2822   21.2359 C   0  0  0  0  0  0  0  0  0  0  0  0
   50.9643    5.0475   18.1273 C   0  0  0  0  0  0  0  0  0  0  0  0
   51.5400    3.6646   17.9686 C   0  0  0  0  0  0  0  0  0  0  0  0
   50.0755    5.4855   22.1535 C   0  0  0  0  0  0  0  0  0  0  0  0
   47.7106    5.2523   21.6946 C   0  0  0  0  0  0  0  0  0  0  0  0
   52.8933    3.4190   18.2393 C   0  0  0  0  0  0  0  0  0  0  0  0
   50.7178    2.5950   17.5880 C   0  0  0  0  0  0  0  0  0  0  0  0
   49.7906    5.6604   23.5100 C   0  0  0  0  0  0  0  0  0  0  0  0
   47.4301    5.4279   23.0512 C   0  0  0  0  0  0  0  0  0  0  0  0
   53.4178    2.1318   18.1102 C   0  0  0  0  0  0  0  0  0  0  0  0
   51.2439    1.3088   17.4602 C   0  0  0  0  0  0  0  0  0  0  0  0
   48.4699    5.6323   23.9569 C   0  0  0  0  0  0  0  0  0  0  0  0
   52.5938    1.0781   17.7187 C   0  0  0  0  0  0  0  0  0  0  0  0
   50.1359    5.2191   17.4292 H   0  0  0  0  0  0  0  0  0  0  0  0
   51.7252    5.7966   17.8794 H   0  0  0  0  0  0  0  0  0  0  0  0
   51.1124    5.5053   21.8279 H   0  0  0  0  0  0  0  0  0  0  0  0
   46.8917    5.0914   20.9958 H   0  0  0  0  0  0  0  0  0  0  0  0
   53.5452    4.2300   18.5557 H   0  0  0  0  0  0  0  0  0  0  0  0
   49.6588    2.7602   17.3954 H   0  0  0  0  0  0  0  0  0  0  0  0
   50.6004    5.8165   24.2187 H   0  0  0  0  0  0  0  0  0  0  0  0
   46.4006    5.4035   23.4000 H   0  0  0  0  0  0  0  0  0  0  0  0
   54.4688    1.9501   18.3192 H   0  0  0  0  0  0  0  0  0  0  0  0
   50.5981    0.4864   17.1634 H   0  0  0  0  0  0  0  0  0  0  0  0
   48.2508    5.7677   25.0134 H   0  0  0  0  0  0  0  0  0  0  0  0
   53.0020    0.0757   17.6206 H   0  0  0  0  0  0  0  0  0  0  0  0
  2  1  1  0
  3  1  2  0
  4  1  1  0
  5  2  1  0
  6  5  1  0
  7  4  2  0
  8  4  1  0
  9  6  2  0
 10  6  1  0
 11  7  1  0
 12  8  2  0
 13  9  1  0
 14 10  2  0
 15 12  1  0
 16 14  1  0
 15 11  2  0
 16 13  2  0
  5 17  1  0
  5 18  1  0
  7 19  1  0
  8 20  1  0
  9 21  1  0
 10 22  1  0
 11 23  1  0
 12 24  1  0
 13 25  1  0
 14 26  1  0
 15 27  1  0
 16 28  1  0
M  END
> <Uni-Dock RESULT> 
ENERGY=   -4.320  LOWER_BOUND=    9.054  UPPER_BOUND=   10.567
INTER + INTRA:          -4.320
INTER:                  -4.320
INTRA:                   0.000
UNBOUND:                 0.000

$$$$

     RDKit          3D

 28 29  0  0  0  0  0  0  0  0999 V2000
   46.2210    7.9802   12.5628 C   0  0  0  0  0  0  0  0  0  0  0  0
   45.9112    7.4138   11.3724 O   0  0  0  0  0  0  0  0  0  0  0  0
   45.4286    8.3415   13.4188 O   0  0  0  0  0  0  0  0  0  0  0  0
   47.6961    8.1238   12.7017 C   0  0  0  0  0  0  0  0  0  0  0  0
   44.5176    7.1830   11.1358 C   0  0  0  0  0  0  0  0  0  0  0  0
   44.1978    5.7388   11.4207 C   0  0  0  0  0  0  0  0  0  0  0  0
   48.5947    7.6182   11.7517 C   0  0  0  0  0  0  0  0  0  0  0  0
   48.1929    8.7866   13.8328 C   0  0  0  0  0  0  0  0  0  0  0  0
   44.3967    4.7565   10.4406 C   0  0  0  0  0  0  0  0  0  0  0  0
   43.7364    5.3525   12.6866 C   0  0  0  0  0  0  0  0  0  0  0  0
   49.9707    7.7793   11.9320 C   0  0  0  0  0  0  0  0  0  0  0  0
   49.5689    8.9459   14.0090 C   0  0  0  0  0  0  0  0  0  0  0  0
   44.1180    3.4166   10.7157 C   0  0  0  0  0  0  0  0  0  0  0  0
   43.4590    4.0124   12.9600 C   0  0  0  0  0  0  0  0  0  0  0  0
   50.4559    8.4428   13.0584 C   0  0  0  0  0  0  0  0  0  0  0  0
   43.6473    3.0456   11.9740 C   0  0  0  0  0  0  0  0  0  0  0  0
   43.8687    7.8574   11.7080 H   0  0  0  0  0  0  0  0  0  0  0  0
   44.3232    7.4045   10.0799 H   0  0  0  0  0  0  0  0  0  0  0  0
   48.2386    7.0927   10.8692 H   0  0  0  0  0  0  0  0  0  0  0  0
   47.5088    9.1815   14.5817 H   0  0  0  0  0  0  0  0  0  0  0  0
   44.7733    5.0308    9.4578 H   0  0  0  0  0  0  0  0  0  0  0  0
   43.5970    6.0968   13.4691 H   0  0  0  0  0  0  0  0  0  0  0  0
   50.6645    7.3846   11.1935 H   0  0  0  0  0  0  0  0  0  0  0  0
   49.9473    9.4610   14.8886 H   0  0  0  0  0  0  0  0  0  0  0  0
   44.2722    2.6614    9.9495 H   0  0  0  0  0  0  0  0  0  0  0  0
   43.1005    3.7234   13.9446 H   0  0  0  0  0  0  0  0  0  0  0  0
   51.5274    8.5660   13.1970 H   0  0  0  0  0  0  0  0  0  0  0  0
   43.4328    2.0020   12.1886 H   0  0  0  0  0  0  0  0  0  0  0  0
  2  1  1  0
  3  1  2  0
  4  1  1  0
  5  2  1  0
  6  5  1  0
  7  4  2  0
  8  4  1  0
  9  6  2  0
 10  6  1  0
 11  7  1  0
 12  8  2  0
 13  9  1  0
 14 10  2  0
 15 12  1  0
 16 14  1  0
 15 11  2  0
 16 13  2  0
  5 17  1  0
  5 18  1  0
  7 19  1  0
  8 20  1  0
  9 21  1  0
 10 22  1  0
 11 23  1  0
 12 24  1  0
 13 25  1  0
 14 26  1  0
 15 27  1  0
 16 28  1  0
M  END
> <Uni-Dock RESULT> 
ENERGY=   -3.988  LOWER_BOUND=    3.381  UPPER_BOUND=    4.657
INTER + INTRA:          -3.988
INTER:                  -3.988
INTRA:                   0.000
UNBOUND:                 0.000

$$$$

     RDKit          3D

 28 29  0  0  0  0  0  0  0  0999 V2000
   44.0665    9.1184   11.3000 C   0  0  0  0  0  0  0  0  0  0  0  0
   44.5487   10.3835   11.2707 O   0  0  0  0  0  0  0  0  0  0  0  0
   42.9852    8.7474   10.8708 O   0  0  0  0  0  0  0  0  0  0  0  0
   45.0443    8.2046   11.9517 C   0  0  0  0  0  0  0  0  0  0  0  0
   43.7141   11.3539   10.6280 C   0  0  0  0  0  0  0  0  0  0  0  0
   44.2130   11.5880    9.2262 C   0  0  0  0  0  0  0  0  0  0  0  0
   46.3190    8.6282   12.3533 C   0  0  0  0  0  0  0  0  0  0  0  0
   44.6662    6.8708   12.1607 C   0  0  0  0  0  0  0  0  0  0  0  0
   45.2474   12.5013    8.9794 C   0  0  0  0  0  0  0  0  0  0  0  0
   43.6767   10.8623    8.1536 C   0  0  0  0  0  0  0  0  0  0  0  0
   47.1990    7.7282   12.9595 C   0  0  0  0  0  0  0  0  0  0  0  0
   45.5485    5.9745   12.7673 C   0  0  0  0  0  0  0  0  0  0  0  0
   45.7204   12.7001    7.6812 C   0  0  0  0  0  0  0  0  0  0  0  0
   44.1512   11.0619    6.8565 C   0  0  0  0  0  0  0  0  0  0  0  0
   46.8133    6.4042   13.1664 C   0  0  0  0  0  0  0  0  0  0  0  0
   45.1707   11.9823    6.6204 C   0  0  0  0  0  0  0  0  0  0  0  0
   42.6527   11.0772   10.6345 H   0  0  0  0  0  0  0  0  0  0  0  0
   43.7852   12.2823   11.2067 H   0  0  0  0  0  0  0  0  0  0  0  0
   46.6425    9.6542   12.1965 H   0  0  0  0  0  0  0  0  0  0  0  0
   43.6817    6.5249   11.8511 H   0  0  0  0  0  0  0  0  0  0  0  0
   45.6924   13.0605    9.7993 H   0  0  0  0  0  0  0  0  0  0  0  0
   42.8883   10.1313    8.3270 H   0  0  0  0  0  0  0  0  0  0  0  0
   48.1873    8.0604   13.2684 H   0  0  0  0  0  0  0  0  0  0  0  0
   45.2487    4.9416   12.9263 H   0  0  0  0  0  0  0  0  0  0  0  0
   46.5208   13.4121    7.4978 H   0  0  0  0  0  0  0  0  0  0  0  0
   43.7277   10.4949    6.0315 H   0  0  0  0  0  0  0  0  0  0  0  0
   47.5004    5.7053   13.6375 H   0  0  0  0  0  0  0  0  0  0  0  0
   45.5408   12.1356    5.6101 H   0  0  0  0  0  0  0  0  0  0  0  0
  2  1  1  0
  3  1  2  0
  4  1  1  0
  5  2  1  0
  6  5  1  0
  7  4  2  0
  8  4  1  0
  9  6  2  0
 10  6  1  0
 11  7  1  0
 12  8  2  0
 13  9  1  0
 14 10  2  0
 15 12  1  0
 16 14  1  0
 15 11  2  0
 16 13  2  0
  5 17  1  0
  5 18  1  0
  7 19  1  0
  8 20  1  0
  9 21  1  0
 10 22  1  0
 11 23  1  0
 12 24  1  0
 13 25  1  0
 14 26  1  0
 15 27  1  0
 16 28  1  0
M  END
> <Uni-Dock RESULT> 
ENERGY=   -3.984  LOWER_BOUND=    5.510  UPPER_BOUND=    6.809
INTER + INTRA:          -3.984
INTER:                  -3.984
INTRA:                   0.000
UNBOUND:                 0.000

$$$$

     RDKit          3D

 28 29  0  0  0  0  0  0  0  0999 V2000
   44.3153    6.2665   11.3490 C   0  0  0  0  0  0  0  0  0  0  0  0
   45.0294    7.3506   10.9632 O   0  0  0  0  0  0  0  0  0  0  0  0
   43.5529    6.2052   12.3009 O   0  0  0  0  0  0  0  0  0  0  0  0
   44.5904    5.1150   10.4466 C   0  0  0  0  0  0  0  0  0  0  0  0
   44.8190    8.5411   11.7311 C   0  0  0  0  0  0  0  0  0  0  0  0
   43.8620    9.4432   10.9969 C   0  0  0  0  0  0  0  0  0  0  0  0
   45.3948    5.2291    9.3040 C   0  0  0  0  0  0  0  0  0  0  0  0
   44.0126    3.8765   10.7591 C   0  0  0  0  0  0  0  0  0  0  0  0
   44.3243   10.3180   10.0038 C   0  0  0  0  0  0  0  0  0  0  0  0
   42.4880    9.3886   11.2686 C   0  0  0  0  0  0  0  0  0  0  0  0
   45.6194    4.1162    8.4899 C   0  0  0  0  0  0  0  0  0  0  0  0
   44.2399    2.7664    9.9432 C   0  0  0  0  0  0  0  0  0  0  0  0
   43.4311   11.1377    9.3119 C   0  0  0  0  0  0  0  0  0  0  0  0
   41.5964   10.2084   10.5753 C   0  0  0  0  0  0  0  0  0  0  0  0
   45.0433    2.8873    8.8102 C   0  0  0  0  0  0  0  0  0  0  0  0
   42.0684   11.0842    9.5994 C   0  0  0  0  0  0  0  0  0  0  0  0
   44.4736    8.3367   12.7520 H   0  0  0  0  0  0  0  0  0  0  0  0
   45.7901    9.0386   11.8374 H   0  0  0  0  0  0  0  0  0  0  0  0
   45.8491    6.1787    9.0324 H   0  0  0  0  0  0  0  0  0  0  0  0
   43.3824    3.7720   11.6404 H   0  0  0  0  0  0  0  0  0  0  0  0
   45.3839   10.3624    9.7622 H   0  0  0  0  0  0  0  0  0  0  0  0
   42.1055    8.6996   12.0201 H   0  0  0  0  0  0  0  0  0  0  0  0
   46.2428    4.2090    7.6039 H   0  0  0  0  0  0  0  0  0  0  0  0
   43.7887    1.8089   10.1915 H   0  0  0  0  0  0  0  0  0  0  0  0
   43.7979   11.8152    8.5453 H   0  0  0  0  0  0  0  0  0  0  0  0
   40.5329   10.1592   10.7944 H   0  0  0  0  0  0  0  0  0  0  0  0
   45.2188    2.0227    8.1745 H   0  0  0  0  0  0  0  0  0  0  0  0
   41.3729   11.7209    9.0588 H   0  0  0  0  0  0  0  0  0  0  0  0
  2  1  1  0
  3  1  2  0
  4  1  1  0
  5  2  1  0
  6  5  1  0
  7  4  2  0
  8  4  1  0
  9  6  2  0
 10  6  1  0
 11  7  1  0
 12  8  2  0
 13  9  1  0
 14 10  2  0
 15 12  1  0
 16 14  1  0
 15 11  2  0
 16 13  2  0
  5 17  1  0
  5 18  1  0
  7 19  1  0
  8 20  1  0
  9 21  1  0
 10 22  1  0
 11 23  1  0
 12 24  1  0
 13 25  1  0
 14 26  1  0
 15 27  1  0
 16 28  1  0
M  END
> <Uni-Dock RESULT> 
ENERGY=   -3.976  LOWER_BOUND=    4.193  UPPER_BOUND=    6.570
INTER + INTRA:          -3.976
INTER:                  -3.976
INTRA:                   0.000
UNBOUND:                 0.000

$$$$

     RDKit          3D

 28 29  0  0  0  0  0  0  0  0999 V2000
   41.3119   10.9775   11.2234 C   0  0  0  0  0  0  0  0  0  0  0  0
   42.5737   11.3670   11.5234 O   0  0  0  0  0  0  0  0  0  0  0  0
   40.9752   10.2891   10.2726 O   0  0  0  0  0  0  0  0  0  0  0  0
   40.3498   11.5182   12.2223 C   0  0  0  0  0  0  0  0  0  0  0  0
   43.6011   10.8741   10.6557 C   0  0  0  0  0  0  0  0  0  0  0  0
   44.2711    9.6897   11.3018 C   0  0  0  0  0  0  0  0  0  0  0  0
   40.7633   12.2269   13.3591 C   0  0  0  0  0  0  0  0  0  0  0  0
   38.9816   11.2985   12.0098 C   0  0  0  0  0  0  0  0  0  0  0  0
   45.3126    9.8726   12.2220 C   0  0  0  0  0  0  0  0  0  0  0  0
   43.8317    8.3884   11.0221 C   0  0  0  0  0  0  0  0  0  0  0  0
   39.8179   12.7116   14.2664 C   0  0  0  0  0  0  0  0  0  0  0  0
   38.0397   11.7849   12.9187 C   0  0  0  0  0  0  0  0  0  0  0  0
   45.9170    8.7729   12.8335 C   0  0  0  0  0  0  0  0  0  0  0  0
   44.4367    7.2902   11.6350 C   0  0  0  0  0  0  0  0  0  0  0  0
   38.4588   12.4912   14.0452 C   0  0  0  0  0  0  0  0  0  0  0  0
   45.4805    7.4826   12.5381 C   0  0  0  0  0  0  0  0  0  0  0  0
   43.2325   10.6277    9.6524 H   0  0  0  0  0  0  0  0  0  0  0  0
   44.3291   11.6820   10.5174 H   0  0  0  0  0  0  0  0  0  0  0  0
   41.8178   12.4052   13.5541 H   0  0  0  0  0  0  0  0  0  0  0  0
   38.6442   10.7467   11.1343 H   0  0  0  0  0  0  0  0  0  0  0  0
   45.6561   10.8745   12.4695 H   0  0  0  0  0  0  0  0  0  0  0  0
   43.0088    8.2259   10.3277 H   0  0  0  0  0  0  0  0  0  0  0  0
   40.1427   13.2597   15.1475 H   0  0  0  0  0  0  0  0  0  0  0  0
   36.9802   11.6109   12.7476 H   0  0  0  0  0  0  0  0  0  0  0  0
   46.7259    8.9229   13.5438 H   0  0  0  0  0  0  0  0  0  0  0  0
   44.0893    6.2852   11.4104 H   0  0  0  0  0  0  0  0  0  0  0  0
   37.7248   12.8686   14.7533 H   0  0  0  0  0  0  0  0  0  0  0  0
   45.9497    6.6268   13.0162 H   0  0  0  0  0  0  0  0  0  0  0  0
  2  1  1  0
  3  1  2  0
  4  1  1  0
  5  2  1  0
  6  5  1  0
  7  4  2  0
  8  4  1  0
  9  6  2  0
 10  6  1  0
 11  7  1  0
 12  8  2  0
 13  9  1  0
 14 10  2  0
 15 12  1  0
 16 14  1  0
 15 11  2  0
 16 13  2  0
  5 17  1  0
  5 18  1  0
  7 19  1  0
  8 20  1  0
  9 21  1  0
 10 22  1  0
 11 23  1  0
 12 24  1  0
 13 25  1  0
 14 26  1  0
 15 27  1  0
 16 28  1  0
M  END
> <Uni-Dock RESULT> 
ENERGY=   -3.959  LOWER_BOUND=    7.276  UPPER_BOUND=    8.733
INTER + INTRA:          -3.959
INTER:                  -3.959
INTRA:                   0.000
UNBOUND:                 0.000

$$$$

     RDKit          3D

 28 29  0  0  0  0  0  0  0  0999 V2000
   45.8103    9.7887   12.1941 C   0  0  0  0  0  0  0  0  0  0  0  0
   46.2983   10.9049   11.6025 O   0  0  0  0  0  0  0  0  0  0  0  0
   44.6467    9.5852   12.5038 O   0  0  0  0  0  0  0  0  0  0  0  0
   46.9046    8.8099   12.4394 C   0  0  0  0  0  0  0  0  0  0  0  0
   45.3320   11.9103   11.2754 C   0  0  0  0  0  0  0  0  0  0  0  0
   44.9823   11.8063    9.8139 C   0  0  0  0  0  0  0  0  0  0  0  0
   48.2168    9.0198   11.9927 C   0  0  0  0  0  0  0  0  0  0  0  0
   46.5969    7.6350   13.1398 C   0  0  0  0  0  0  0  0  0  0  0  0
   45.7757   12.4336    8.8433 C   0  0  0  0  0  0  0  0  0  0  0  0
   43.8805   11.0438    9.4022 C   0  0  0  0  0  0  0  0  0  0  0  0
   49.2061    8.0671   12.2489 C   0  0  0  0  0  0  0  0  0  0  0  0
   47.5886    6.6855   13.3941 C   0  0  0  0  0  0  0  0  0  0  0  0
   45.4594   12.3178    7.4887 C   0  0  0  0  0  0  0  0  0  0  0  0
   43.5662   10.9286    8.0474 C   0  0  0  0  0  0  0  0  0  0  0  0
   48.8918    6.9028   12.9491 C   0  0  0  0  0  0  0  0  0  0  0  0
   44.3539   11.5676    7.0916 C   0  0  0  0  0  0  0  0  0  0  0  0
   44.4357   11.8640   11.9060 H   0  0  0  0  0  0  0  0  0  0  0  0
   45.7912   12.8848   11.4784 H   0  0  0  0  0  0  0  0  0  0  0  0
   48.4827    9.9174   11.4402 H   0  0  0  0  0  0  0  0  0  0  0  0
   45.5821    7.4550   13.4899 H   0  0  0  0  0  0  0  0  0  0  0  0
   46.6472   13.0135    9.1386 H   0  0  0  0  0  0  0  0  0  0  0  0
   43.2648   10.5297   10.1386 H   0  0  0  0  0  0  0  0  0  0  0  0
   50.2224    8.2330   11.8997 H   0  0  0  0  0  0  0  0  0  0  0  0
   47.3430    5.7766   13.9379 H   0  0  0  0  0  0  0  0  0  0  0  0
   46.0780   12.8096    6.7425 H   0  0  0  0  0  0  0  0  0  0  0  0
   42.7091   10.3359    7.7387 H   0  0  0  0  0  0  0  0  0  0  0  0
   49.6633    6.1624   13.1464 H   0  0  0  0  0  0  0  0  0  0  0  0
   44.1093   11.4757    6.0367 H   0  0  0  0  0  0  0  0  0  0  0  0
  2  1  1  0
  3  1  2  0
  4  1  1  0
  5  2  1  0
  6  5  1  0
  7  4  2  0
  8  4  1  0
  9  6  2  0
 10  6  1  0
 11  7  1  0
 12  8  2  0
 13  9  1  0
 14 10  2  0
 15 12  1  0
 16 14  1  0
 15 11  2  0
 16 13  2  0
  5 17  1  0
  5 18  1  0
  7 19  1  0
  8 20  1  0
  9 21  1  0
 10 22  1  0
 11 23  1  0
 12 24  1  0
 13 25  1  0
 14 26  1  0
 15 27  1  0
 16 28  1  0
M  END
> <Uni-Dock RESULT> 
ENERGY=   -3.914  LOWER_BOUND=    5.480  UPPER_BOUND=    6.991
INTER + INTRA:          -3.914
INTER:                  -3.914
INTRA:                   0.000
UNBOUND:                 0.000

$$$$

     RDKit          3D

 28 29  0  0  0  0  0  0  0  0999 V2000
   46.9078    5.3233   13.3138 C   0  0  0  0  0  0  0  0  0  0  0  0
   47.2985    6.6164   13.2178 O   0  0  0  0  0  0  0  0  0  0  0  0
   47.5857    4.3921   13.7198 O   0  0  0  0  0  0  0  0  0  0  0  0
   45.5062    5.1672   12.8376 C   0  0  0  0  0  0  0  0  0  0  0  0
   48.6208    6.9045   13.6868 C   0  0  0  0  0  0  0  0  0  0  0  0
   48.5408    7.4787   15.0770 C   0  0  0  0  0  0  0  0  0  0  0  0
   44.7116    6.2603   12.4642 C   0  0  0  0  0  0  0  0  0  0  0  0
   44.9703    3.8734   12.7701 C   0  0  0  0  0  0  0  0  0  0  0  0
   48.3106    8.8477   15.2721 C   0  0  0  0  0  0  0  0  0  0  0  0
   48.6535    6.6421   16.1960 C   0  0  0  0  0  0  0  0  0  0  0  0
   43.4007    6.0576   12.0255 C   0  0  0  0  0  0  0  0  0  0  0  0
   43.6598    3.6751   12.3308 C   0  0  0  0  0  0  0  0  0  0  0  0
   48.2171    9.3721   16.5624 C   0  0  0  0  0  0  0  0  0  0  0  0
   48.5591    7.1681   17.4852 C   0  0  0  0  0  0  0  0  0  0  0  0
   42.8770    4.7670   11.9585 C   0  0  0  0  0  0  0  0  0  0  0  0
   48.3436    8.5328   17.6679 C   0  0  0  0  0  0  0  0  0  0  0  0
   49.2870    6.0338   13.6507 H   0  0  0  0  0  0  0  0  0  0  0  0
   49.0568    7.6438   13.0047 H   0  0  0  0  0  0  0  0  0  0  0  0
   45.0977    7.2753   12.5140 H   0  0  0  0  0  0  0  0  0  0  0  0
   45.5726    3.0145   13.0603 H   0  0  0  0  0  0  0  0  0  0  0  0
   48.1996    9.5122   14.4183 H   0  0  0  0  0  0  0  0  0  0  0  0
   48.8096    5.5723   16.0661 H   0  0  0  0  0  0  0  0  0  0  0  0
   42.7872    6.9081   11.7380 H   0  0  0  0  0  0  0  0  0  0  0  0
   43.2506    2.6690   12.2809 H   0  0  0  0  0  0  0  0  0  0  0  0
   48.0413   10.4350   16.7053 H   0  0  0  0  0  0  0  0  0  0  0  0
   48.6490    6.5109   18.3462 H   0  0  0  0  0  0  0  0  0  0  0  0
   41.8560    4.6118   11.6177 H   0  0  0  0  0  0  0  0  0  0  0  0
   48.2683    8.9410   18.6723 H   0  0  0  0  0  0  0  0  0  0  0  0
  2  1  1  0
  3  1  2  0
  4  1  1  0
  5  2  1  0
  6  5  1  0
  7  4  2  0
  8  4  1  0
  9  6  2  0
 10  6  1  0
 11  7  1  0
 12  8  2  0
 13  9  1  0
 14 10  2  0
 15 12  1  0
 16 14  1  0
 15 11  2  0
 16 13  2  0
  5 17  1  0
  5 18  1  0
  7 19  1  0
  8 20  1  0
  9 21  1  0
 10 22  1  0
 11 23  1  0
 12 24  1  0
 13 25  1  0
 14 26  1  0
 15 27  1  0
 16 28  1  0
M  END
> <Uni-Dock RESULT> 
ENERGY=   -3.873  LOWER_BOUND=    3.978  UPPER_BOUND=    7.327
INTER + INTRA:          -3.873
INTER:                  -3.873
INTRA:                   0.000
UNBOUND:                 0.000

$$$$

     RDKit          3D

 28 29  0  0  0  0  0  0  0  0999 V2000
   48.3758    9.0568   15.9467 C   0  0  0  0  0  0  0  0  0  0  0  0
   48.5875    7.7272   15.8008 O   0  0  0  0  0  0  0  0  0  0  0  0
   48.4533    9.9012   15.0680 O   0  0  0  0  0  0  0  0  0  0  0  0
   48.0360    9.3769   17.3602 C   0  0  0  0  0  0  0  0  0  0  0  0
   48.8830    7.2852   14.4709 C   0  0  0  0  0  0  0  0  0  0  0  0
   47.6342    6.7204   13.8461 C   0  0  0  0  0  0  0  0  0  0  0  0
   47.8589    8.3851   18.3352 C   0  0  0  0  0  0  0  0  0  0  0  0
   47.8843   10.7245   17.7155 C   0  0  0  0  0  0  0  0  0  0  0  0
   47.2636    5.3872   14.0703 C   0  0  0  0  0  0  0  0  0  0  0  0
   46.8026    7.5350   13.0653 C   0  0  0  0  0  0  0  0  0  0  0  0
   47.5388    8.7408   19.6479 C   0  0  0  0  0  0  0  0  0  0  0  0
   47.5648   11.0759   19.0286 C   0  0  0  0  0  0  0  0  0  0  0  0
   46.0948    4.8737   13.5057 C   0  0  0  0  0  0  0  0  0  0  0  0
   45.6341    7.0201   12.5022 C   0  0  0  0  0  0  0  0  0  0  0  0
   47.3931   10.0840   19.9931 C   0  0  0  0  0  0  0  0  0  0  0  0
   45.2821    5.6894   12.7203 C   0  0  0  0  0  0  0  0  0  0  0  0
   49.3229    8.0722   13.8461 H   0  0  0  0  0  0  0  0  0  0  0  0
   49.6461    6.5020   14.5476 H   0  0  0  0  0  0  0  0  0  0  0  0
   47.9621    7.3318   18.0868 H   0  0  0  0  0  0  0  0  0  0  0  0
   48.0145   11.5065   16.9696 H   0  0  0  0  0  0  0  0  0  0  0  0
   47.8832    4.7425   14.6896 H   0  0  0  0  0  0  0  0  0  0  0  0
   47.0605    8.5797   12.8978 H   0  0  0  0  0  0  0  0  0  0  0  0
   47.4010    7.9686   20.4009 H   0  0  0  0  0  0  0  0  0  0  0  0
   47.4487   12.1230   19.2973 H   0  0  0  0  0  0  0  0  0  0  0  0
   45.8159    3.8382   13.6819 H   0  0  0  0  0  0  0  0  0  0  0  0
   44.9968    7.6598   11.8973 H   0  0  0  0  0  0  0  0  0  0  0  0
   47.1429   10.3582   21.0152 H   0  0  0  0  0  0  0  0  0  0  0  0
   44.3710    5.2899   12.2828 H   0  0  0  0  0  0  0  0  0  0  0  0
  2  1  1  0
  3  1  2  0
  4  1  1  0
  5  2  1  0
  6  5  1  0
  7  4  2  0
  8  4  1  0
  9  6  2  0
 10  6  1  0
 11  7  1  0
 12  8  2  0
 13  9  1  0
 14 10  2  0
 15 12  1  0
 16 14  1  0
 15 11  2  0
 16 13  2  0
  5 17  1  0
  5 18  1  0
  7 19  1  0
  8 20  1  0
  9 21  1  0
 10 22  1  0
 11 23  1  0
 12 24  1  0
 13 25  1  0
 14 26  1  0
 15 27  1  0
 16 28  1  0
M  END
> <Uni-Dock RESULT> 
ENERGY=   -3.837  LOWER_BOUND=    4.843  UPPER_BOUND=    7.364
INTER + INTRA:          -3.837
INTER:                  -3.837
INTRA:                   0.000
UNBOUND:                 0.000

$$$$
