
     RDKit          3D

 28 29  0  0  0  0  0  0  0  0999 V2000
   44.5937    5.5432   10.2808 C   0  0  0  0  0  0  0  0  0  0  0  0
   45.3845    4.7439    9.5273 O   0  0  0  0  0  0  0  0  0  0  0  0
   43.3755    5.6008   10.2222 O   0  0  0  0  0  0  0  0  0  0  0  0
   45.4153    6.3632   11.2120 C   0  0  0  0  0  0  0  0  0  0  0  0
   44.6649    3.9232    8.6050 C   0  0  0  0  0  0  0  0  0  0  0  0
   45.6704    3.0973    7.8456 C   0  0  0  0  0  0  0  0  0  0  0  0
   44.7537    7.2518   12.0709 C   0  0  0  0  0  0  0  0  0  0  0  0
   46.8139    6.2758   11.2567 C   0  0  0  0  0  0  0  0  0  0  0  0
   46.2472    3.5871    6.6653 C   0  0  0  0  0  0  0  0  0  0  0  0
   46.0750    1.8457    8.3308 C   0  0  0  0  0  0  0  0  0  0  0  0
   45.4811    8.0425   12.9627 C   0  0  0  0  0  0  0  0  0  0  0  0
   47.5379    7.0688   12.1505 C   0  0  0  0  0  0  0  0  0  0  0  0
   47.1936    2.8299    5.9729 C   0  0  0  0  0  0  0  0  0  0  0  0
   47.0215    1.0900    7.6369 C   0  0  0  0  0  0  0  0  0  0  0  0
   46.8718    7.9503   13.0016 C   0  0  0  0  0  0  0  0  0  0  0  0
   47.5784    1.5811    6.4574 C   0  0  0  0  0  0  0  0  0  0  0  0
   43.9693    3.2667    9.1425 H   0  0  0  0  0  0  0  0  0  0  0  0
   44.0900    4.5469    7.9093 H   0  0  0  0  0  0  0  0  0  0  0  0
   43.6684    7.3313   12.0484 H   0  0  0  0  0  0  0  0  0  0  0  0
   47.3538    5.5953   10.6023 H   0  0  0  0  0  0  0  0  0  0  0  0
   45.9633    4.5643    6.2809 H   0  0  0  0  0  0  0  0  0  0  0  0
   45.6557    1.4542    9.2550 H   0  0  0  0  0  0  0  0  0  0  0  0
   44.9621    8.7298   13.6264 H   0  0  0  0  0  0  0  0  0  0  0  0
   48.6225    6.9983   12.1822 H   0  0  0  0  0  0  0  0  0  0  0  0
   47.6331    3.2162    5.0571 H   0  0  0  0  0  0  0  0  0  0  0  0
   47.3267    0.1192    8.0187 H   0  0  0  0  0  0  0  0  0  0  0  0
   47.4376    8.5664   13.6963 H   0  0  0  0  0  0  0  0  0  0  0  0
   48.3162    0.9927    5.9184 H   0  0  0  0  0  0  0  0  0  0  0  0
  2  1  1  0
  3  1  2  0
  4  1  1  0
  5  2  1  0
  6  5  1  0
  7  4  2  0
  8  4  1  0
  9  6  2  0
 10  6  1  0
 11  7  1  0
 12  8  2  0
 13  9  1  0
 14 10  2  0
 15 12  1  0
 16 14  1  0
 15 11  2  0
 16 13  2  0
  5 17  1  0
  5 18  1  0
  7 19  1  0
  8 20  1  0
  9 21  1  0
 10 22  1  0
 11 23  1  0
 12 24  1  0
 13 25  1  0
 14 26  1  0
 15 27  1  0
 16 28  1  0
M  END
> <Uni-Dock RESULT> 
ENERGY=   -6.154  LOWER_BOUND=    0.000  UPPER_BOUND=    0.000
INTER + INTRA:          -6.154
INTER:                  -6.154
INTRA:                   0.000
UNBOUND:                 0.000

$$$$

     RDKit          3D

 28 29  0  0  0  0  0  0  0  0999 V2000
   44.3150    4.3851   10.4373 C   0  0  0  0  0  0  0  0  0  0  0  0
   44.5059    5.7229   10.5134 O   0  0  0  0  0  0  0  0  0  0  0  0
   43.6233    3.7194   11.1916 O   0  0  0  0  0  0  0  0  0  0  0  0
   45.0726    3.8135    9.2910 C   0  0  0  0  0  0  0  0  0  0  0  0
   43.8077    6.3456   11.5935 C   0  0  0  0  0  0  0  0  0  0  0  0
   44.1147    7.8198   11.5483 C   0  0  0  0  0  0  0  0  0  0  0  0
   44.9874    2.4328    9.0640 C   0  0  0  0  0  0  0  0  0  0  0  0
   45.8598    4.6032    8.4410 C   0  0  0  0  0  0  0  0  0  0  0  0
   45.2301    8.3353   12.2234 C   0  0  0  0  0  0  0  0  0  0  0  0
   43.3139    8.6906   10.7958 C   0  0  0  0  0  0  0  0  0  0  0  0
   45.6800    1.8497    8.0010 C   0  0  0  0  0  0  0  0  0  0  0  0
   46.5512    4.0157    7.3787 C   0  0  0  0  0  0  0  0  0  0  0  0
   45.5254    9.6983   12.1646 C   0  0  0  0  0  0  0  0  0  0  0  0
   43.6108   10.0533   10.7384 C   0  0  0  0  0  0  0  0  0  0  0  0
   46.4609    2.6413    7.1599 C   0  0  0  0  0  0  0  0  0  0  0  0
   44.7146   10.5569   11.4245 C   0  0  0  0  0  0  0  0  0  0  0  0
   42.7274    6.1838   11.4917 H   0  0  0  0  0  0  0  0  0  0  0  0
   44.1354    5.9236   12.5517 H   0  0  0  0  0  0  0  0  0  0  0  0
   44.3805    1.8060    9.7148 H   0  0  0  0  0  0  0  0  0  0  0  0
   45.9444    5.6767    8.5931 H   0  0  0  0  0  0  0  0  0  0  0  0
   45.8771    7.6752   12.7970 H   0  0  0  0  0  0  0  0  0  0  0  0
   42.4549    8.3099   10.2477 H   0  0  0  0  0  0  0  0  0  0  0  0
   45.6098    0.7782    7.8302 H   0  0  0  0  0  0  0  0  0  0  0  0
   47.1607    4.6315    6.7217 H   0  0  0  0  0  0  0  0  0  0  0  0
   46.3902   10.0896   12.6938 H   0  0  0  0  0  0  0  0  0  0  0  0
   42.9825   10.7216   10.1553 H   0  0  0  0  0  0  0  0  0  0  0  0
   47.0000    2.1865    6.3324 H   0  0  0  0  0  0  0  0  0  0  0  0
   44.9457   11.6178   11.3783 H   0  0  0  0  0  0  0  0  0  0  0  0
  2  1  1  0
  3  1  2  0
  4  1  1  0
  5  2  1  0
  6  5  1  0
  7  4  2  0
  8  4  1  0
  9  6  2  0
 10  6  1  0
 11  7  1  0
 12  8  2  0
 13  9  1  0
 14 10  2  0
 15 12  1  0
 16 14  1  0
 15 11  2  0
 16 13  2  0
  5 17  1  0
  5 18  1  0
  7 19  1  0
  8 20  1  0
  9 21  1  0
 10 22  1  0
 11 23  1  0
 12 24  1  0
 13 25  1  0
 14 26  1  0
 15 27  1  0
 16 28  1  0
M  END
> <Uni-Dock RESULT> 
ENERGY=   -5.490  LOWER_BOUND=    1.718  UPPER_BOUND=    6.585
INTER + INTRA:          -5.490
INTER:                  -5.490
INTRA:                   0.000
UNBOUND:                 0.000

$$$$

     RDKit          3D

 28 29  0  0  0  0  0  0  0  0999 V2000
   44.6785    5.1835   11.5804 C   0  0  0  0  0  0  0  0  0  0  0  0
   45.1162    6.4567   11.4408 O   0  0  0  0  0  0  0  0  0  0  0  0
   44.1443    4.7180   12.5747 O   0  0  0  0  0  0  0  0  0  0  0  0
   44.9367    4.4032   10.3398 C   0  0  0  0  0  0  0  0  0  0  0  0
   44.9024    7.2709   12.5955 C   0  0  0  0  0  0  0  0  0  0  0  0
   45.4357    8.6466   12.2912 C   0  0  0  0  0  0  0  0  0  0  0  0
   44.5443    3.0577   10.3105 C   0  0  0  0  0  0  0  0  0  0  0  0
   45.5529    4.9649    9.2126 C   0  0  0  0  0  0  0  0  0  0  0  0
   46.7765    8.9635   12.5510 C   0  0  0  0  0  0  0  0  0  0  0  0
   44.6099    9.6161   11.7046 C   0  0  0  0  0  0  0  0  0  0  0  0
   44.7651    2.2843    9.1691 C   0  0  0  0  0  0  0  0  0  0  0  0
   45.7719    4.1875    8.0727 C   0  0  0  0  0  0  0  0  0  0  0  0
   47.2750   10.2321   12.2502 C   0  0  0  0  0  0  0  0  0  0  0  0
   45.1103   10.8842   11.4046 C   0  0  0  0  0  0  0  0  0  0  0  0
   45.3784    2.8497    8.0519 C   0  0  0  0  0  0  0  0  0  0  0  0
   46.4415   11.1924   11.6797 C   0  0  0  0  0  0  0  0  0  0  0  0
   43.8318    7.3264   12.8289 H   0  0  0  0  0  0  0  0  0  0  0  0
   45.4274    6.8483   13.4613 H   0  0  0  0  0  0  0  0  0  0  0  0
   44.0647    2.6069   11.1774 H   0  0  0  0  0  0  0  0  0  0  0  0
   45.8677    6.0058    9.2068 H   0  0  0  0  0  0  0  0  0  0  0  0
   47.4407    8.2206   12.9872 H   0  0  0  0  0  0  0  0  0  0  0  0
   43.5716    9.3863   11.4758 H   0  0  0  0  0  0  0  0  0  0  0  0
   44.4583    1.2413    9.1527 H   0  0  0  0  0  0  0  0  0  0  0  0
   46.2501    4.6266    7.2004 H   0  0  0  0  0  0  0  0  0  0  0  0
   48.3149   10.4699   12.4581 H   0  0  0  0  0  0  0  0  0  0  0  0
   44.4621   11.6306   10.9531 H   0  0  0  0  0  0  0  0  0  0  0  0
   45.5500    2.2467    7.1635 H   0  0  0  0  0  0  0  0  0  0  0  0
   46.8306   12.1795   11.4447 H   0  0  0  0  0  0  0  0  0  0  0  0
  2  1  1  0
  3  1  2  0
  4  1  1  0
  5  2  1  0
  6  5  1  0
  7  4  2  0
  8  4  1  0
  9  6  2  0
 10  6  1  0
 11  7  1  0
 12  8  2  0
 13  9  1  0
 14 10  2  0
 15 12  1  0
 16 14  1  0
 15 11  2  0
 16 13  2  0
  5 17  1  0
  5 18  1  0
  7 19  1  0
  8 20  1  0
  9 21  1  0
 10 22  1  0
 11 23  1  0
 12 24  1  0
 13 25  1  0
 14 26  1  0
 15 27  1  0
 16 28  1  0
M  END
> <Uni-Dock RESULT> 
ENERGY=   -5.248  LOWER_BOUND=    1.961  UPPER_BOUND=    6.716
INTER + INTRA:          -5.248
INTER:                  -5.248
INTRA:                   0.000
UNBOUND:                 0.000

$$$$

     RDKit          3D

 28 29  0  0  0  0  0  0  0  0999 V2000
   47.8425    3.6437   16.4237 C   0  0  0  0  0  0  0  0  0  0  0  0
   47.1304    4.4358   15.5885 O   0  0  0  0  0  0  0  0  0  0  0  0
   48.3886    2.5950   16.1192 O   0  0  0  0  0  0  0  0  0  0  0  0
   47.8767    4.2254   17.7931 C   0  0  0  0  0  0  0  0  0  0  0  0
   47.0521    3.9413   14.2501 C   0  0  0  0  0  0  0  0  0  0  0  0
   46.2368    4.9208   13.4467 C   0  0  0  0  0  0  0  0  0  0  0  0
   48.5757    3.5305   18.7900 C   0  0  0  0  0  0  0  0  0  0  0  0
   47.2394    5.4323   18.1136 C   0  0  0  0  0  0  0  0  0  0  0  0
   44.8425    4.7936   13.3725 C   0  0  0  0  0  0  0  0  0  0  0  0
   46.8562    5.9979   12.7970 C   0  0  0  0  0  0  0  0  0  0  0  0
   48.6365    4.0360   20.0902 C   0  0  0  0  0  0  0  0  0  0  0  0
   47.3027    5.9345   19.4158 C   0  0  0  0  0  0  0  0  0  0  0  0
   44.0857    5.7132   12.6444 C   0  0  0  0  0  0  0  0  0  0  0  0
   46.0976    6.9163   12.0694 C   0  0  0  0  0  0  0  0  0  0  0  0
   48.0003    5.2369   20.4016 C   0  0  0  0  0  0  0  0  0  0  0  0
   44.7134    6.7723   11.9914 C   0  0  0  0  0  0  0  0  0  0  0  0
   48.0570    3.8476   13.8198 H   0  0  0  0  0  0  0  0  0  0  0  0
   46.5728    2.9546   14.2367 H   0  0  0  0  0  0  0  0  0  0  0  0
   49.0758    2.5922   18.5571 H   0  0  0  0  0  0  0  0  0  0  0  0
   46.6901    5.9928   17.3607 H   0  0  0  0  0  0  0  0  0  0  0  0
   44.3385    3.9773   13.8853 H   0  0  0  0  0  0  0  0  0  0  0  0
   47.9344    6.1280   12.8573 H   0  0  0  0  0  0  0  0  0  0  0  0
   49.1802    3.4924   20.8589 H   0  0  0  0  0  0  0  0  0  0  0  0
   46.8071    6.8709   19.6605 H   0  0  0  0  0  0  0  0  0  0  0  0
   43.0057    5.6048   12.5897 H   0  0  0  0  0  0  0  0  0  0  0  0
   46.5865    7.7463   11.5660 H   0  0  0  0  0  0  0  0  0  0  0  0
   48.0480    5.6299   21.4143 H   0  0  0  0  0  0  0  0  0  0  0  0
   44.1234    7.4885   11.4256 H   0  0  0  0  0  0  0  0  0  0  0  0
  2  1  1  0
  3  1  2  0
  4  1  1  0
  5  2  1  0
  6  5  1  0
  7  4  2  0
  8  4  1  0
  9  6  2  0
 10  6  1  0
 11  7  1  0
 12  8  2  0
 13  9  1  0
 14 10  2  0
 15 12  1  0
 16 14  1  0
 15 11  2  0
 16 13  2  0
  5 17  1  0
  5 18  1  0
  7 19  1  0
  8 20  1  0
  9 21  1  0
 10 22  1  0
 11 23  1  0
 12 24  1  0
 13 25  1  0
 14 26  1  0
 15 27  1  0
 16 28  1  0
M  END
> <Uni-Dock RESULT> 
ENERGY=   -4.519  LOWER_BOUND=    5.401  UPPER_BOUND=    7.382
INTER + INTRA:          -4.519
INTER:                  -4.519
INTRA:                   0.000
UNBOUND:                 0.000

$$$$

     RDKit          3D

 28 29  0  0  0  0  0  0  0  0999 V2000
   45.1381    7.4994   12.3279 C   0  0  0  0  0  0  0  0  0  0  0  0
   44.2808    8.3147   11.6704 O   0  0  0  0  0  0  0  0  0  0  0  0
   46.1485    7.8519   12.9156 O   0  0  0  0  0  0  0  0  0  0  0  0
   44.6835    6.0849   12.2424 C   0  0  0  0  0  0  0  0  0  0  0  0
   44.6518    9.6941   11.7080 C   0  0  0  0  0  0  0  0  0  0  0  0
   43.6119   10.4693   10.9416 C   0  0  0  0  0  0  0  0  0  0  0  0
   45.4588    5.1014   12.8722 C   0  0  0  0  0  0  0  0  0  0  0  0
   43.5179    5.7095   11.5597 C   0  0  0  0  0  0  0  0  0  0  0  0
   43.7470   10.6674    9.5602 C   0  0  0  0  0  0  0  0  0  0  0  0
   42.4733   10.9670   11.5910 C   0  0  0  0  0  0  0  0  0  0  0  0
   45.0735    3.7603   12.8200 C   0  0  0  0  0  0  0  0  0  0  0  0
   43.1360    4.3666   11.5099 C   0  0  0  0  0  0  0  0  0  0  0  0
   42.7731   11.3685    8.8472 C   0  0  0  0  0  0  0  0  0  0  0  0
   41.5006   11.6679   10.8762 C   0  0  0  0  0  0  0  0  0  0  0  0
   43.9131    3.3944   12.1392 C   0  0  0  0  0  0  0  0  0  0  0  0
   41.6520   11.8704    9.5055 C   0  0  0  0  0  0  0  0  0  0  0  0
   44.6949   10.0483   12.7455 H   0  0  0  0  0  0  0  0  0  0  0  0
   45.6383    9.8353   11.2493 H   0  0  0  0  0  0  0  0  0  0  0  0
   46.3665    5.3766   13.4063 H   0  0  0  0  0  0  0  0  0  0  0  0
   42.8971    6.4508   11.0620 H   0  0  0  0  0  0  0  0  0  0  0  0
   44.6122   10.2728    9.0318 H   0  0  0  0  0  0  0  0  0  0  0  0
   42.3376   10.8081   12.6585 H   0  0  0  0  0  0  0  0  0  0  0  0
   45.6791    3.0022   13.3106 H   0  0  0  0  0  0  0  0  0  0  0  0
   42.2314    4.0793   10.9794 H   0  0  0  0  0  0  0  0  0  0  0  0
   42.8878   11.5201    7.7771 H   0  0  0  0  0  0  0  0  0  0  0  0
   40.6229   12.0531   11.3885 H   0  0  0  0  0  0  0  0  0  0  0  0
   43.6138    2.3499   12.0990 H   0  0  0  0  0  0  0  0  0  0  0  0
   40.8936   12.4152    8.9495 H   0  0  0  0  0  0  0  0  0  0  0  0
  2  1  1  0
  3  1  2  0
  4  1  1  0
  5  2  1  0
  6  5  1  0
  7  4  2  0
  8  4  1  0
  9  6  2  0
 10  6  1  0
 11  7  1  0
 12  8  2  0
 13  9  1  0
 14 10  2  0
 15 12  1  0
 16 14  1  0
 15 11  2  0
 16 13  2  0
  5 17  1  0
  5 18  1  0
  7 19  1  0
  8 20  1  0
  9 21  1  0
 10 22  1  0
 11 23  1  0
 12 24  1  0
 13 25  1  0
 14 26  1  0
 15 27  1  0
 16 28  1  0
M  END
> <Uni-Dock RESULT> 
ENERGY=   -4.252  LOWER_BOUND=    4.113  UPPER_BOUND=    7.194
INTER + INTRA:          -4.252
INTER:                  -4.252
INTRA:                   0.000
UNBOUND:                 0.000

$$$$

     RDKit          3D

 28 29  0  0  0  0  0  0  0  0999 V2000
   47.2776    4.5246   14.8770 C   0  0  0  0  0  0  0  0  0  0  0  0
   47.4637    5.7785   14.4026 O   0  0  0  0  0  0  0  0  0  0  0  0
   46.8256    3.5828   14.2450 O   0  0  0  0  0  0  0  0  0  0  0  0
   47.7030    4.4358   16.3003 C   0  0  0  0  0  0  0  0  0  0  0  0
   47.0765    5.9428   13.0370 C   0  0  0  0  0  0  0  0  0  0  0  0
   47.3405    7.3761   12.6552 C   0  0  0  0  0  0  0  0  0  0  0  0
   47.5783    3.2012   16.9525 C   0  0  0  0  0  0  0  0  0  0  0  0
   48.2186    5.5352   17.0011 C   0  0  0  0  0  0  0  0  0  0  0  0
   46.3588    8.3574   12.8529 C   0  0  0  0  0  0  0  0  0  0  0  0
   48.5863    7.7564   12.1365 C   0  0  0  0  0  0  0  0  0  0  0  0
   47.9642    3.0680   18.2879 C   0  0  0  0  0  0  0  0  0  0  0  0
   48.6035    5.3975   18.3370 C   0  0  0  0  0  0  0  0  0  0  0  0
   46.6113    9.6887   12.5175 C   0  0  0  0  0  0  0  0  0  0  0  0
   48.8367    9.0882   11.8017 C   0  0  0  0  0  0  0  0  0  0  0  0
   48.4761    4.1657   18.9784 C   0  0  0  0  0  0  0  0  0  0  0  0
   47.8487   10.0530   11.9900 C   0  0  0  0  0  0  0  0  0  0  0  0
   47.6569    5.2700   12.3934 H   0  0  0  0  0  0  0  0  0  0  0  0
   46.0111    5.7120   12.9133 H   0  0  0  0  0  0  0  0  0  0  0  0
   47.1799    2.3381   16.4224 H   0  0  0  0  0  0  0  0  0  0  0  0
   48.3267    6.5049   16.5207 H   0  0  0  0  0  0  0  0  0  0  0  0
   45.3919    8.0888   13.2727 H   0  0  0  0  0  0  0  0  0  0  0  0
   49.3699    7.0156   11.9931 H   0  0  0  0  0  0  0  0  0  0  0  0
   47.8650    2.1077   18.7882 H   0  0  0  0  0  0  0  0  0  0  0  0
   49.0029    6.2526   18.8772 H   0  0  0  0  0  0  0  0  0  0  0  0
   45.8432   10.4420   12.6712 H   0  0  0  0  0  0  0  0  0  0  0  0
   49.8043    9.3733   11.3970 H   0  0  0  0  0  0  0  0  0  0  0  0
   48.7763    4.0612   20.0183 H   0  0  0  0  0  0  0  0  0  0  0  0
   48.0449   11.0899   11.7302 H   0  0  0  0  0  0  0  0  0  0  0  0
  2  1  1  0
  3  1  2  0
  4  1  1  0
  5  2  1  0
  6  5  1  0
  7  4  2  0
  8  4  1  0
  9  6  2  0
 10  6  1  0
 11  7  1  0
 12  8  2  0
 13  9  1  0
 14 10  2  0
 15 12  1  0
 16 14  1  0
 15 11  2  0
 16 13  2  0
  5 17  1  0
  5 18  1  0
  7 19  1  0
  8 20  1  0
  9 21  1  0
 10 22  1  0
 11 23  1  0
 12 24  1  0
 13 25  1  0
 14 26  1  0
 15 27  1  0
 16 28  1  0
M  END
> <Uni-Dock RESULT> 
ENERGY=   -4.208  LOWER_BOUND=    5.097  UPPER_BOUND=    7.208
INTER + INTRA:          -4.208
INTER:                  -4.208
INTRA:                   0.000
UNBOUND:                 0.000

$$$$

     RDKit          3D

 28 29  0  0  0  0  0  0  0  0999 V2000
   47.9091    5.5802   15.0627 C   0  0  0  0  0  0  0  0  0  0  0  0
   46.8061    5.1580   14.4015 O   0  0  0  0  0  0  0  0  0  0  0  0
   48.6630    6.4685   14.6977 O   0  0  0  0  0  0  0  0  0  0  0  0
   48.0921    4.8067   16.3209 C   0  0  0  0  0  0  0  0  0  0  0  0
   46.5632    5.8561   13.1786 C   0  0  0  0  0  0  0  0  0  0  0  0
   45.3141    5.2811   12.5630 C   0  0  0  0  0  0  0  0  0  0  0  0
   49.1920    5.1153   17.1334 C   0  0  0  0  0  0  0  0  0  0  0  0
   47.2094    3.7910   16.7144 C   0  0  0  0  0  0  0  0  0  0  0  0
   45.3892    4.1804   11.6979 C   0  0  0  0  0  0  0  0  0  0  0  0
   44.0555    5.8114   12.8799 C   0  0  0  0  0  0  0  0  0  0  0  0
   49.4063    4.4175   18.3237 C   0  0  0  0  0  0  0  0  0  0  0  0
   47.4275    3.0952   17.9061 C   0  0  0  0  0  0  0  0  0  0  0  0
   44.2297    3.6355   11.1437 C   0  0  0  0  0  0  0  0  0  0  0  0
   42.8973    5.2652   12.3246 C   0  0  0  0  0  0  0  0  0  0  0  0
   48.5242    3.4086   18.7086 C   0  0  0  0  0  0  0  0  0  0  0  0
   42.9849    4.1794   11.4551 C   0  0  0  0  0  0  0  0  0  0  0  0
   46.4270    6.9274   13.3726 H   0  0  0  0  0  0  0  0  0  0  0  0
   47.4109    5.7300   12.4938 H   0  0  0  0  0  0  0  0  0  0  0  0
   49.8865    5.9011   16.8418 H   0  0  0  0  0  0  0  0  0  0  0  0
   46.3479    3.5302   16.1041 H   0  0  0  0  0  0  0  0  0  0  0  0
   46.3533    3.7398   11.4537 H   0  0  0  0  0  0  0  0  0  0  0  0
   43.9715    6.6527   13.5644 H   0  0  0  0  0  0  0  0  0  0  0  0
   50.2612    4.6616   18.9495 H   0  0  0  0  0  0  0  0  0  0  0  0
   46.7407    2.3081   18.2080 H   0  0  0  0  0  0  0  0  0  0  0  0
   44.2977    2.7843   10.4714 H   0  0  0  0  0  0  0  0  0  0  0  0
   41.9260    5.6849   12.5732 H   0  0  0  0  0  0  0  0  0  0  0  0
   48.6918    2.8656   19.6357 H   0  0  0  0  0  0  0  0  0  0  0  0
   42.0825    3.7539   11.0241 H   0  0  0  0  0  0  0  0  0  0  0  0
  2  1  1  0
  3  1  2  0
  4  1  1  0
  5  2  1  0
  6  5  1  0
  7  4  2  0
  8  4  1  0
  9  6  2  0
 10  6  1  0
 11  7  1  0
 12  8  2  0
 13  9  1  0
 14 10  2  0
 15 12  1  0
 16 14  1  0
 15 11  2  0
 16 13  2  0
  5 17  1  0
  5 18  1  0
  7 19  1  0
  8 20  1  0
  9 21  1  0
 10 22  1  0
 11 23  1  0
 12 24  1  0
 13 25  1  0
 14 26  1  0
 15 27  1  0
 16 28  1  0
M  END
> <Uni-Dock RESULT> 
ENERGY=   -4.176  LOWER_BOUND=    4.637  UPPER_BOUND=    6.423
INTER + INTRA:          -4.176
INTER:                  -4.176
INTRA:                   0.000
UNBOUND:                 0.000

$$$$

     RDKit          3D

 28 29  0  0  0  0  0  0  0  0999 V2000
   40.3099   11.6412   12.0782 C   0  0  0  0  0  0  0  0  0  0  0  0
   41.6437   11.4721   12.2341 O   0  0  0  0  0  0  0  0  0  0  0  0
   39.6808   11.4409   11.0512 O   0  0  0  0  0  0  0  0  0  0  0  0
   39.6914   12.1138   13.3467 C   0  0  0  0  0  0  0  0  0  0  0  0
   42.3101   11.0180   11.0544 C   0  0  0  0  0  0  0  0  0  0  0  0
   43.7742   10.8774   11.3805 C   0  0  0  0  0  0  0  0  0  0  0  0
   38.3083   12.3417   13.3638 C   0  0  0  0  0  0  0  0  0  0  0  0
   40.4398   12.3357   14.5113 C   0  0  0  0  0  0  0  0  0  0  0  0
   44.6455   11.9646   11.2242 C   0  0  0  0  0  0  0  0  0  0  0  0
   44.2780    9.6702   11.8852 C   0  0  0  0  0  0  0  0  0  0  0  0
   37.6820   12.7855   14.5302 C   0  0  0  0  0  0  0  0  0  0  0  0
   39.8091   12.7797   15.6762 C   0  0  0  0  0  0  0  0  0  0  0  0
   45.9981   11.8394   11.5456 C   0  0  0  0  0  0  0  0  0  0  0  0
   45.6309    9.5470   12.2059 C   0  0  0  0  0  0  0  0  0  0  0  0
   38.4327   13.0039   15.6846 C   0  0  0  0  0  0  0  0  0  0  0  0
   46.4906   10.6305   12.0338 C   0  0  0  0  0  0  0  0  0  0  0  0
   41.9021   10.0508   10.7353 H   0  0  0  0  0  0  0  0  0  0  0  0
   42.1752   11.7401   10.2395 H   0  0  0  0  0  0  0  0  0  0  0  0
   37.7133   12.1741   12.4679 H   0  0  0  0  0  0  0  0  0  0  0  0
   41.5141   12.1673   14.5272 H   0  0  0  0  0  0  0  0  0  0  0  0
   44.2729   12.9168   10.8533 H   0  0  0  0  0  0  0  0  0  0  0  0
   43.6166    8.8194   12.0336 H   0  0  0  0  0  0  0  0  0  0  0  0
   36.6089   12.9603   14.5371 H   0  0  0  0  0  0  0  0  0  0  0  0
   40.3930   12.9507   16.5774 H   0  0  0  0  0  0  0  0  0  0  0  0
   46.6669   12.6865   11.4181 H   0  0  0  0  0  0  0  0  0  0  0  0
   46.0134    8.6064   12.5934 H   0  0  0  0  0  0  0  0  0  0  0  0
   37.9442   13.3496   16.5925 H   0  0  0  0  0  0  0  0  0  0  0  0
   47.5436   10.5341   12.2849 H   0  0  0  0  0  0  0  0  0  0  0  0
  2  1  1  0
  3  1  2  0
  4  1  1  0
  5  2  1  0
  6  5  1  0
  7  4  2  0
  8  4  1  0
  9  6  2  0
 10  6  1  0
 11  7  1  0
 12  8  2  0
 13  9  1  0
 14 10  2  0
 15 12  1  0
 16 14  1  0
 15 11  2  0
 16 13  2  0
  5 17  1  0
  5 18  1  0
  7 19  1  0
  8 20  1  0
  9 21  1  0
 10 22  1  0
 11 23  1  0
 12 24  1  0
 13 25  1  0
 14 26  1  0
 15 27  1  0
 16 28  1  0
M  END
> <Uni-Dock RESULT> 
ENERGY=   -4.151  LOWER_BOUND=    6.624  UPPER_BOUND=    9.107
INTER + INTRA:          -4.151
INTER:                  -4.151
INTRA:                   0.000
UNBOUND:                 0.000

$$$$

     RDKit          3D

 28 29  0  0  0  0  0  0  0  0999 V2000
   44.8354    9.4607   11.8045 C   0  0  0  0  0  0  0  0  0  0  0  0
   44.4393    8.1809   11.6118 O   0  0  0  0  0  0  0  0  0  0  0  0
   45.8821    9.8126   12.3254 O   0  0  0  0  0  0  0  0  0  0  0  0
   43.8099   10.4083   11.2894 C   0  0  0  0  0  0  0  0  0  0  0  0
   45.3755    7.2094   12.0826 C   0  0  0  0  0  0  0  0  0  0  0  0
   44.8012    5.8454   11.8008 C   0  0  0  0  0  0  0  0  0  0  0  0
   44.0595   11.7825   11.4085 C   0  0  0  0  0  0  0  0  0  0  0  0
   42.6160    9.9747   10.6958 C   0  0  0  0  0  0  0  0  0  0  0  0
   43.9681    5.2170   12.7371 C   0  0  0  0  0  0  0  0  0  0  0  0
   45.0571    5.2038   10.5807 C   0  0  0  0  0  0  0  0  0  0  0  0
   43.1275   12.7109   10.9402 C   0  0  0  0  0  0  0  0  0  0  0  0
   41.6863   10.9069   10.2285 C   0  0  0  0  0  0  0  0  0  0  0  0
   43.4201    3.9619   12.4669 C   0  0  0  0  0  0  0  0  0  0  0  0
   44.5082    3.9488   10.3124 C   0  0  0  0  0  0  0  0  0  0  0  0
   41.9425   12.2723   10.3509 C   0  0  0  0  0  0  0  0  0  0  0  0
   43.6922    3.3274   11.2562 C   0  0  0  0  0  0  0  0  0  0  0  0
   46.3366    7.3259   11.5664 H   0  0  0  0  0  0  0  0  0  0  0  0
   45.5406    7.3313   13.1603 H   0  0  0  0  0  0  0  0  0  0  0  0
   44.9816   12.1352   11.8670 H   0  0  0  0  0  0  0  0  0  0  0  0
   42.3958    8.9149   10.5901 H   0  0  0  0  0  0  0  0  0  0  0  0
   43.7395    5.7049   13.6821 H   0  0  0  0  0  0  0  0  0  0  0  0
   45.6844    5.6812    9.8311 H   0  0  0  0  0  0  0  0  0  0  0  0
   43.3270   13.7754   11.0354 H   0  0  0  0  0  0  0  0  0  0  0  0
   40.7615   10.5667    9.7687 H   0  0  0  0  0  0  0  0  0  0  0  0
   42.7781    3.4808   13.2000 H   0  0  0  0  0  0  0  0  0  0  0  0
   44.7148    3.4573    9.3653 H   0  0  0  0  0  0  0  0  0  0  0  0
   41.2172   12.9958    9.9865 H   0  0  0  0  0  0  0  0  0  0  0  0
   43.2643    2.3508   11.0460 H   0  0  0  0  0  0  0  0  0  0  0  0
  2  1  1  0
  3  1  2  0
  4  1  1  0
  5  2  1  0
  6  5  1  0
  7  4  2  0
  8  4  1  0
  9  6  2  0
 10  6  1  0
 11  7  1  0
 12  8  2  0
 13  9  1  0
 14 10  2  0
 15 12  1  0
 16 14  1  0
 15 11  2  0
 16 13  2  0
  5 17  1  0
  5 18  1  0
  7 19  1  0
  8 20  1  0
  9 21  1  0
 10 22  1  0
 11 23  1  0
 12 24  1  0
 13 25  1  0
 14 26  1  0
 15 27  1  0
 16 28  1  0
M  END
> <Uni-Dock RESULT> 
ENERGY=   -4.135  LOWER_BOUND=    3.570  UPPER_BOUND=    5.586
INTER + INTRA:          -4.135
INTER:                  -4.135
INTRA:                   0.000
UNBOUND:                 0.000

$$$$
