
     RDKit          3D

 28 29  0  0  0  0  0  0  0  0999 V2000
   45.1964    3.9551   11.1498 C   0  0  0  0  0  0  0  0  0  0  0  0
   45.2037    4.5549    9.9356 O   0  0  0  0  0  0  0  0  0  0  0  0
   44.6489    2.9006   11.4312 O   0  0  0  0  0  0  0  0  0  0  0  0
   45.9543    4.7716   12.1372 C   0  0  0  0  0  0  0  0  0  0  0  0
   44.5397    3.8433    8.8848 C   0  0  0  0  0  0  0  0  0  0  0  0
   45.5633    3.1138    8.0548 C   0  0  0  0  0  0  0  0  0  0  0  0
   45.9638    4.3516   13.4747 C   0  0  0  0  0  0  0  0  0  0  0  0
   46.6553    5.9306   11.7760 C   0  0  0  0  0  0  0  0  0  0  0  0
   46.2363    3.7681    7.0136 C   0  0  0  0  0  0  0  0  0  0  0  0
   45.8869    1.7804    8.3414 C   0  0  0  0  0  0  0  0  0  0  0  0
   46.6612    5.0829   14.4384 C   0  0  0  0  0  0  0  0  0  0  0  0
   47.3522    6.6595   12.7432 C   0  0  0  0  0  0  0  0  0  0  0  0
   47.1987    3.0939    6.2601 C   0  0  0  0  0  0  0  0  0  0  0  0
   46.8499    1.1082    7.5873 C   0  0  0  0  0  0  0  0  0  0  0  0
   47.3537    6.2360   14.0718 C   0  0  0  0  0  0  0  0  0  0  0  0
   47.5034    1.7640    6.5457 C   0  0  0  0  0  0  0  0  0  0  0  0
   44.0193    4.5833    8.2656 H   0  0  0  0  0  0  0  0  0  0  0  0
   43.7633    3.1618    9.2535 H   0  0  0  0  0  0  0  0  0  0  0  0
   45.4280    3.4516   13.7710 H   0  0  0  0  0  0  0  0  0  0  0  0
   46.6724    6.2756   10.7452 H   0  0  0  0  0  0  0  0  0  0  0  0
   46.0159    4.8087    6.7868 H   0  0  0  0  0  0  0  0  0  0  0  0
   45.3923    1.2609    9.1607 H   0  0  0  0  0  0  0  0  0  0  0  0
   46.6644    4.7515   15.4739 H   0  0  0  0  0  0  0  0  0  0  0  0
   47.8958    7.5572   12.4588 H   0  0  0  0  0  0  0  0  0  0  0  0
   47.7141    3.6074    5.4528 H   0  0  0  0  0  0  0  0  0  0  0  0
   47.0927    0.0740    7.8170 H   0  0  0  0  0  0  0  0  0  0  0  0
   47.8975    6.8044   14.8226 H   0  0  0  0  0  0  0  0  0  0  0  0
   48.2543    1.2402    5.9604 H   0  0  0  0  0  0  0  0  0  0  0  0
  2  1  1  0
  3  1  2  0
  4  1  1  0
  5  2  1  0
  6  5  1  0
  7  4  2  0
  8  4  1  0
  9  6  2  0
 10  6  1  0
 11  7  1  0
 12  8  2  0
 13  9  1  0
 14 10  2  0
 15 12  1  0
 16 14  1  0
 15 11  2  0
 16 13  2  0
  5 17  1  0
  5 18  1  0
  7 19  1  0
  8 20  1  0
  9 21  1  0
 10 22  1  0
 11 23  1  0
 12 24  1  0
 13 25  1  0
 14 26  1  0
 15 27  1  0
 16 28  1  0
M  END
> <Uni-Dock RESULT> 
ENERGY=   -5.870  LOWER_BOUND=    0.000  UPPER_BOUND=    0.000
INTER + INTRA:          -5.870
INTER:                  -5.870
INTRA:                   0.000
UNBOUND:                 0.000

$$$$

     RDKit          3D

 28 29  0  0  0  0  0  0  0  0999 V2000
   44.0692    9.1219   11.3006 C   0  0  0  0  0  0  0  0  0  0  0  0
   44.5477   10.3884   11.2704 O   0  0  0  0  0  0  0  0  0  0  0  0
   42.9896    8.7471   10.8705 O   0  0  0  0  0  0  0  0  0  0  0  0
   45.0490    8.2117   11.9545 C   0  0  0  0  0  0  0  0  0  0  0  0
   43.7110   11.3556   10.6255 C   0  0  0  0  0  0  0  0  0  0  0  0
   44.2110   11.5895    9.2240 C   0  0  0  0  0  0  0  0  0  0  0  0
   44.6745    6.8772   12.1647 C   0  0  0  0  0  0  0  0  0  0  0  0
   46.3218    8.6398   12.3574 C   0  0  0  0  0  0  0  0  0  0  0  0
   45.2430   12.5056    8.9774 C   0  0  0  0  0  0  0  0  0  0  0  0
   43.6781   10.8609    8.1516 C   0  0  0  0  0  0  0  0  0  0  0  0
   45.5588    5.9842   12.7733 C   0  0  0  0  0  0  0  0  0  0  0  0
   47.2039    7.7430   12.9657 C   0  0  0  0  0  0  0  0  0  0  0  0
   45.7170   12.7042    7.6796 C   0  0  0  0  0  0  0  0  0  0  0  0
   44.1538   11.0604    6.8548 C   0  0  0  0  0  0  0  0  0  0  0  0
   46.8217    6.4181   13.1736 C   0  0  0  0  0  0  0  0  0  0  0  0
   45.1708   11.9835    6.6189 C   0  0  0  0  0  0  0  0  0  0  0  0
   43.7786   12.2849   11.2032 H   0  0  0  0  0  0  0  0  0  0  0  0
   42.6504   11.0758   10.6310 H   0  0  0  0  0  0  0  0  0  0  0  0
   43.6914    6.5278   11.8541 H   0  0  0  0  0  0  0  0  0  0  0  0
   46.6425    9.6664   12.1997 H   0  0  0  0  0  0  0  0  0  0  0  0
   45.6854   13.0670    9.7972 H   0  0  0  0  0  0  0  0  0  0  0  0
   42.8917   10.1278    8.3248 H   0  0  0  0  0  0  0  0  0  0  0  0
   45.2617    4.9506   12.9333 H   0  0  0  0  0  0  0  0  0  0  0  0
   48.1907    8.0785   13.2755 H   0  0  0  0  0  0  0  0  0  0  0  0
   46.5155   13.4182    7.4964 H   0  0  0  0  0  0  0  0  0  0  0  0
   43.7329   10.4913    6.0301 H   0  0  0  0  0  0  0  0  0  0  0  0
   47.5103    5.7219   13.6464 H   0  0  0  0  0  0  0  0  0  0  0  0
   45.5417   12.1368    5.6090 H   0  0  0  0  0  0  0  0  0  0  0  0
  2  1  1  0
  3  1  2  0
  4  1  1  0
  5  2  1  0
  6  5  1  0
  7  4  2  0
  8  4  1  0
  9  6  2  0
 10  6  1  0
 11  7  1  0
 12  8  2  0
 13  9  1  0
 14 10  2  0
 15 12  1  0
 16 14  1  0
 15 11  2  0
 16 13  2  0
  5 17  1  0
  5 18  1  0
  7 19  1  0
  8 20  1  0
  9 21  1  0
 10 22  1  0
 11 23  1  0
 12 24  1  0
 13 25  1  0
 14 26  1  0
 15 27  1  0
 16 28  1  0
M  END
> <Uni-Dock RESULT> 
ENERGY=   -3.981  LOWER_BOUND=    5.401  UPPER_BOUND=    6.874
INTER + INTRA:          -3.981
INTER:                  -3.981
INTRA:                   0.000
UNBOUND:                 0.000

$$$$

     RDKit          3D

 28 29  0  0  0  0  0  0  0  0999 V2000
   45.8556    9.7547   12.2461 C   0  0  0  0  0  0  0  0  0  0  0  0
   46.3237   10.8823   11.6602 O   0  0  0  0  0  0  0  0  0  0  0  0
   44.6984    9.5347   12.5677 O   0  0  0  0  0  0  0  0  0  0  0  0
   46.9639    8.7860   12.4683 C   0  0  0  0  0  0  0  0  0  0  0  0
   45.3422   11.8797   11.3548 C   0  0  0  0  0  0  0  0  0  0  0  0
   44.9761   11.7864    9.8967 C   0  0  0  0  0  0  0  0  0  0  0  0
   46.6781    7.6008   13.1604 C   0  0  0  0  0  0  0  0  0  0  0  0
   48.2682    9.0156   12.0082 C   0  0  0  0  0  0  0  0  0  0  0  0
   45.7505   12.4325    8.9231 C   0  0  0  0  0  0  0  0  0  0  0  0
   43.8781   11.0155    9.4906 C   0  0  0  0  0  0  0  0  0  0  0  0
   47.6835    6.6602   13.3930 C   0  0  0  0  0  0  0  0  0  0  0  0
   49.2714    8.0717   12.2427 C   0  0  0  0  0  0  0  0  0  0  0  0
   45.4192   12.3267    7.5713 C   0  0  0  0  0  0  0  0  0  0  0  0
   43.5488   10.9103    8.1384 C   0  0  0  0  0  0  0  0  0  0  0  0
   48.9787    6.8969   12.9347 C   0  0  0  0  0  0  0  0  0  0  0  0
   44.3175   11.5678    7.1798 C   0  0  0  0  0  0  0  0  0  0  0  0
   45.7927   12.8574   11.5622 H   0  0  0  0  0  0  0  0  0  0  0  0
   44.4542   11.8168   11.9957 H   0  0  0  0  0  0  0  0  0  0  0  0
   45.6697    7.4054   13.5207 H   0  0  0  0  0  0  0  0  0  0  0  0
   48.5171    9.9216   11.4616 H   0  0  0  0  0  0  0  0  0  0  0  0
   46.6189   13.0194    9.2137 H   0  0  0  0  0  0  0  0  0  0  0  0
   43.2771   10.4869   10.2290 H   0  0  0  0  0  0  0  0  0  0  0  0
   47.4548    5.7432   13.9305 H   0  0  0  0  0  0  0  0  0  0  0  0
   50.2815    8.2528   11.8831 H   0  0  0  0  0  0  0  0  0  0  0  0
   46.0230   12.8328    6.8228 H   0  0  0  0  0  0  0  0  0  0  0  0
   42.6947   10.3110    7.8341 H   0  0  0  0  0  0  0  0  0  0  0  0
   49.7610    6.1635   13.1152 H   0  0  0  0  0  0  0  0  0  0  0  0
   44.0612   11.4837    6.1271 H   0  0  0  0  0  0  0  0  0  0  0  0
  2  1  1  0
  3  1  2  0
  4  1  1  0
  5  2  1  0
  6  5  1  0
  7  4  2  0
  8  4  1  0
  9  6  2  0
 10  6  1  0
 11  7  1  0
 12  8  2  0
 13  9  1  0
 14 10  2  0
 15 12  1  0
 16 14  1  0
 15 11  2  0
 16 13  2  0
  5 17  1  0
  5 18  1  0
  7 19  1  0
  8 20  1  0
  9 21  1  0
 10 22  1  0
 11 23  1  0
 12 24  1  0
 13 25  1  0
 14 26  1  0
 15 27  1  0
 16 28  1  0
M  END
> <Uni-Dock RESULT> 
ENERGY=   -3.916  LOWER_BOUND=    5.620  UPPER_BOUND=    7.090
INTER + INTRA:          -3.916
INTER:                  -3.916
INTRA:                   0.000
UNBOUND:                 0.000

$$$$

     RDKit          3D

 28 29  0  0  0  0  0  0  0  0999 V2000
   46.9077    5.3227   13.3128 C   0  0  0  0  0  0  0  0  0  0  0  0
   47.2984    6.6158   13.2165 O   0  0  0  0  0  0  0  0  0  0  0  0
   47.5854    4.3917   13.7187 O   0  0  0  0  0  0  0  0  0  0  0  0
   45.5059    5.1667   12.8366 C   0  0  0  0  0  0  0  0  0  0  0  0
   48.6207    6.9040   13.6855 C   0  0  0  0  0  0  0  0  0  0  0  0
   48.5407    7.4784   15.0756 C   0  0  0  0  0  0  0  0  0  0  0  0
   44.9701    3.8730   12.7692 C   0  0  0  0  0  0  0  0  0  0  0  0
   44.7115    6.2597   12.4629 C   0  0  0  0  0  0  0  0  0  0  0  0
   48.3106    8.8474   15.2706 C   0  0  0  0  0  0  0  0  0  0  0  0
   48.6535    6.6418   16.1947 C   0  0  0  0  0  0  0  0  0  0  0  0
   43.6595    3.6746   12.3301 C   0  0  0  0  0  0  0  0  0  0  0  0
   43.4005    6.0571   12.0243 C   0  0  0  0  0  0  0  0  0  0  0  0
   48.2171    9.3719   16.5608 C   0  0  0  0  0  0  0  0  0  0  0  0
   48.5590    7.1680   17.4839 C   0  0  0  0  0  0  0  0  0  0  0  0
   42.8767    4.7664   11.9576 C   0  0  0  0  0  0  0  0  0  0  0  0
   48.3436    8.5326   17.6665 C   0  0  0  0  0  0  0  0  0  0  0  0
   49.0567    7.6432   13.0033 H   0  0  0  0  0  0  0  0  0  0  0  0
   49.2869    6.0333   13.6494 H   0  0  0  0  0  0  0  0  0  0  0  0
   45.5723    3.0139   13.0596 H   0  0  0  0  0  0  0  0  0  0  0  0
   45.0976    7.2747   12.5128 H   0  0  0  0  0  0  0  0  0  0  0  0
   48.1995    9.5118   14.4168 H   0  0  0  0  0  0  0  0  0  0  0  0
   48.8096    5.5719   16.0650 H   0  0  0  0  0  0  0  0  0  0  0  0
   43.2504    2.6685   12.2802 H   0  0  0  0  0  0  0  0  0  0  0  0
   42.7870    6.9076   11.7367 H   0  0  0  0  0  0  0  0  0  0  0  0
   48.0412   10.4348   16.7036 H   0  0  0  0  0  0  0  0  0  0  0  0
   48.6491    6.5109   18.3449 H   0  0  0  0  0  0  0  0  0  0  0  0
   41.8558    4.6113   11.6168 H   0  0  0  0  0  0  0  0  0  0  0  0
   48.2684    8.9410   18.6708 H   0  0  0  0  0  0  0  0  0  0  0  0
  2  1  1  0
  3  1  2  0
  4  1  1  0
  5  2  1  0
  6  5  1  0
  7  4  2  0
  8  4  1  0
  9  6  2  0
 10  6  1  0
 11  7  1  0
 12  8  2  0
 13  9  1  0
 14 10  2  0
 15 12  1  0
 16 14  1  0
 15 11  2  0
 16 13  2  0
  5 17  1  0
  5 18  1  0
  7 19  1  0
  8 20  1  0
  9 21  1  0
 10 22  1  0
 11 23  1  0
 12 24  1  0
 13 25  1  0
 14 26  1  0
 15 27  1  0
 16 28  1  0
M  END
> <Uni-Dock RESULT> 
ENERGY=   -3.874  LOWER_BOUND=    4.169  UPPER_BOUND=    7.426
INTER + INTRA:          -3.874
INTER:                  -3.874
INTRA:                   0.000
UNBOUND:                 0.000

$$$$

     RDKit          3D

 28 29  0  0  0  0  0  0  0  0999 V2000
   48.5192    6.3553   15.3039 C   0  0  0  0  0  0  0  0  0  0  0  0
   48.2379    5.8088   14.0972 O   0  0  0  0  0  0  0  0  0  0  0  0
   48.9546    7.4783   15.5045 O   0  0  0  0  0  0  0  0  0  0  0  0
   48.2336    5.3827   16.3941 C   0  0  0  0  0  0  0  0  0  0  0  0
   48.4324    6.6641   12.9650 C   0  0  0  0  0  0  0  0  0  0  0  0
   47.1047    7.2331   12.5381 C   0  0  0  0  0  0  0  0  0  0  0  0
   48.5645    5.7447   17.7074 C   0  0  0  0  0  0  0  0  0  0  0  0
   47.6459    4.1329   16.1533 C   0  0  0  0  0  0  0  0  0  0  0  0
   46.2585    6.5100   11.6860 C   0  0  0  0  0  0  0  0  0  0  0  0
   46.6792    8.4776   13.0229 C   0  0  0  0  0  0  0  0  0  0  0  0
   48.3152    4.8674   18.7648 C   0  0  0  0  0  0  0  0  0  0  0  0
   47.3978    3.2578   17.2140 C   0  0  0  0  0  0  0  0  0  0  0  0
   45.0201    7.0325   11.3093 C   0  0  0  0  0  0  0  0  0  0  0  0
   45.4404    8.9981   12.6456 C   0  0  0  0  0  0  0  0  0  0  0  0
   47.7330    3.6252   18.5169 C   0  0  0  0  0  0  0  0  0  0  0  0
   44.6127    8.2768   11.7872 C   0  0  0  0  0  0  0  0  0  0  0  0
   48.8494    6.0503   12.1581 H   0  0  0  0  0  0  0  0  0  0  0  0
   49.1677    7.4571   13.1488 H   0  0  0  0  0  0  0  0  0  0  0  0
   49.0176    6.7131   17.9120 H   0  0  0  0  0  0  0  0  0  0  0  0
   47.3712    3.8286   15.1464 H   0  0  0  0  0  0  0  0  0  0  0  0
   46.5593    5.5332   11.3141 H   0  0  0  0  0  0  0  0  0  0  0  0
   47.3115    9.0452   13.7040 H   0  0  0  0  0  0  0  0  0  0  0  0
   48.5744    5.1546   19.7808 H   0  0  0  0  0  0  0  0  0  0  0  0
   46.9406    2.2899   17.0233 H   0  0  0  0  0  0  0  0  0  0  0  0
   44.3710    6.4668   10.6462 H   0  0  0  0  0  0  0  0  0  0  0  0
   45.1204    9.9645   13.0262 H   0  0  0  0  0  0  0  0  0  0  0  0
   47.5382    2.9428   19.3409 H   0  0  0  0  0  0  0  0  0  0  0  0
   43.6476    8.6823   11.4955 H   0  0  0  0  0  0  0  0  0  0  0  0
  2  1  1  0
  3  1  2  0
  4  1  1  0
  5  2  1  0
  6  5  1  0
  7  4  2  0
  8  4  1  0
  9  6  2  0
 10  6  1  0
 11  7  1  0
 12  8  2  0
 13  9  1  0
 14 10  2  0
 15 12  1  0
 16 14  1  0
 15 11  2  0
 16 13  2  0
  5 17  1  0
  5 18  1  0
  7 19  1  0
  8 20  1  0
  9 21  1  0
 10 22  1  0
 11 23  1  0
 12 24  1  0
 13 25  1  0
 14 26  1  0
 15 27  1  0
 16 28  1  0
M  END
> <Uni-Dock RESULT> 
ENERGY=   -3.863  LOWER_BOUND=    4.524  UPPER_BOUND=    6.430
INTER + INTRA:          -3.863
INTER:                  -3.863
INTRA:                   0.000
UNBOUND:                 0.000

$$$$

     RDKit          3D

 28 29  0  0  0  0  0  0  0  0999 V2000
   48.4303    8.9248   15.9485 C   0  0  0  0  0  0  0  0  0  0  0  0
   48.6198    7.5869   15.8574 O   0  0  0  0  0  0  0  0  0  0  0  0
   48.5417    9.7336   15.0405 O   0  0  0  0  0  0  0  0  0  0  0  0
   48.0677    9.3045   17.3415 C   0  0  0  0  0  0  0  0  0  0  0  0
   48.9339    7.0894   14.5516 C   0  0  0  0  0  0  0  0  0  0  0  0
   47.6877    6.5239   13.9223 C   0  0  0  0  0  0  0  0  0  0  0  0
   47.9345   10.6672   17.6425 C   0  0  0  0  0  0  0  0  0  0  0  0
   47.8521    8.3540   18.3492 C   0  0  0  0  0  0  0  0  0  0  0  0
   47.2874    5.2071   14.1886 C   0  0  0  0  0  0  0  0  0  0  0  0
   46.8879    7.3232   13.0939 C   0  0  0  0  0  0  0  0  0  0  0  0
   47.5947   11.0741   18.9343 C   0  0  0  0  0  0  0  0  0  0  0  0
   47.5120    8.7651   19.6406 C   0  0  0  0  0  0  0  0  0  0  0  0
   46.1209    4.6939   13.6192 C   0  0  0  0  0  0  0  0  0  0  0  0
   45.7215    6.8085   12.5260 C   0  0  0  0  0  0  0  0  0  0  0  0
   47.3846   10.1229   19.9317 C   0  0  0  0  0  0  0  0  0  0  0  0
   45.3399    5.4937   12.7866 C   0  0  0  0  0  0  0  0  0  0  0  0
   49.6804    6.2959   14.6738 H   0  0  0  0  0  0  0  0  0  0  0  0
   49.4013    7.8439   13.9070 H   0  0  0  0  0  0  0  0  0  0  0  0
   48.0945   11.4178   16.8705 H   0  0  0  0  0  0  0  0  0  0  0  0
   47.9403    7.2903   18.1429 H   0  0  0  0  0  0  0  0  0  0  0  0
   47.8818    4.5754   14.8448 H   0  0  0  0  0  0  0  0  0  0  0  0
   47.1688    8.3559   12.8926 H   0  0  0  0  0  0  0  0  0  0  0  0
   47.4931   12.1326   19.1608 H   0  0  0  0  0  0  0  0  0  0  0  0
   47.3443    8.0248   20.4191 H   0  0  0  0  0  0  0  0  0  0  0  0
   45.8188    3.6711   13.8285 H   0  0  0  0  0  0  0  0  0  0  0  0
   45.1091    7.4362   11.8841 H   0  0  0  0  0  0  0  0  0  0  0  0
   47.1189   10.4403   20.9372 H   0  0  0  0  0  0  0  0  0  0  0  0
   44.4306    5.0945   12.3452 H   0  0  0  0  0  0  0  0  0  0  0  0
  2  1  1  0
  3  1  2  0
  4  1  1  0
  5  2  1  0
  6  5  1  0
  7  4  2  0
  8  4  1  0
  9  6  2  0
 10  6  1  0
 11  7  1  0
 12  8  2  0
 13  9  1  0
 14 10  2  0
 15 12  1  0
 16 14  1  0
 15 11  2  0
 16 13  2  0
  5 17  1  0
  5 18  1  0
  7 19  1  0
  8 20  1  0
  9 21  1  0
 10 22  1  0
 11 23  1  0
 12 24  1  0
 13 25  1  0
 14 26  1  0
 15 27  1  0
 16 28  1  0
M  END
> <Uni-Dock RESULT> 
ENERGY=   -3.842  LOWER_BOUND=    4.994  UPPER_BOUND=    7.526
INTER + INTRA:          -3.842
INTER:                  -3.842
INTRA:                   0.000
UNBOUND:                 0.000

$$$$

     RDKit          3D

 28 29  0  0  0  0  0  0  0  0999 V2000
   48.3177    9.3911   16.4904 C   0  0  0  0  0  0  0  0  0  0  0  0
   48.5995    8.1824   15.9486 O   0  0  0  0  0  0  0  0  0  0  0  0
   48.3179   10.4628   15.9051 O   0  0  0  0  0  0  0  0  0  0  0  0
   48.0075    9.2514   17.9396 C   0  0  0  0  0  0  0  0  0  0  0  0
   48.8750    8.1782   14.5431 C   0  0  0  0  0  0  0  0  0  0  0  0
   47.6401    7.7472   13.7960 C   0  0  0  0  0  0  0  0  0  0  0  0
   47.7918   10.4186   18.6857 C   0  0  0  0  0  0  0  0  0  0  0  0
   47.9197    8.0043   18.5741 C   0  0  0  0  0  0  0  0  0  0  0  0
   47.3534    6.3871   13.6146 C   0  0  0  0  0  0  0  0  0  0  0  0
   46.7382    8.7031   13.3084 C   0  0  0  0  0  0  0  0  0  0  0  0
   47.4966   10.3400   20.0482 C   0  0  0  0  0  0  0  0  0  0  0  0
   47.6238    7.9299   19.9376 C   0  0  0  0  0  0  0  0  0  0  0  0
   46.1974    5.9922   12.9392 C   0  0  0  0  0  0  0  0  0  0  0  0
   45.5826    8.3063   12.6339 C   0  0  0  0  0  0  0  0  0  0  0  0
   47.4136    9.0963   20.6726 C   0  0  0  0  0  0  0  0  0  0  0  0
   45.3140    6.9516   12.4473 C   0  0  0  0  0  0  0  0  0  0  0  0
   49.6835    7.4584   14.3696 H   0  0  0  0  0  0  0  0  0  0  0  0
   49.2486    9.1425   14.1772 H   0  0  0  0  0  0  0  0  0  0  0  0
   47.8523   11.3945   18.2074 H   0  0  0  0  0  0  0  0  0  0  0  0
   48.0739    7.0824   18.0191 H   0  0  0  0  0  0  0  0  0  0  0  0
   48.0287    5.6278   14.0024 H   0  0  0  0  0  0  0  0  0  0  0  0
   46.9307    9.7643   13.4588 H   0  0  0  0  0  0  0  0  0  0  0  0
   47.3304   11.2492   20.6207 H   0  0  0  0  0  0  0  0  0  0  0  0
   47.5552    6.9607   20.4258 H   0  0  0  0  0  0  0  0  0  0  0  0
   45.9835    4.9358   12.8003 H   0  0  0  0  0  0  0  0  0  0  0  0
   44.8904    9.0555   12.2587 H   0  0  0  0  0  0  0  0  0  0  0  0
   47.1826    9.0357   21.7334 H   0  0  0  0  0  0  0  0  0  0  0  0
   44.4129    6.6438   11.9235 H   0  0  0  0  0  0  0  0  0  0  0  0
  2  1  1  0
  3  1  2  0
  4  1  1  0
  5  2  1  0
  6  5  1  0
  7  4  2  0
  8  4  1  0
  9  6  2  0
 10  6  1  0
 11  7  1  0
 12  8  2  0
 13  9  1  0
 14 10  2  0
 15 12  1  0
 16 14  1  0
 15 11  2  0
 16 13  2  0
  5 17  1  0
  5 18  1  0
  7 19  1  0
  8 20  1  0
  9 21  1  0
 10 22  1  0
 11 23  1  0
 12 24  1  0
 13 25  1  0
 14 26  1  0
 15 27  1  0
 16 28  1  0
M  END
> <Uni-Dock RESULT> 
ENERGY=   -3.789  LOWER_BOUND=    5.278  UPPER_BOUND=    7.963
INTER + INTRA:          -3.789
INTER:                  -3.789
INTRA:                   0.000
UNBOUND:                 0.000

$$$$

     RDKit          3D

 28 29  0  0  0  0  0  0  0  0999 V2000
   50.7620    8.7580   11.4844 C   0  0  0  0  0  0  0  0  0  0  0  0
   51.7284    7.8385   11.7182 O   0  0  0  0  0  0  0  0  0  0  0  0
   50.9003    9.8164   10.8914 O   0  0  0  0  0  0  0  0  0  0  0  0
   49.4675    8.3112   12.0681 C   0  0  0  0  0  0  0  0  0  0  0  0
   53.0169    8.1345   11.1674 C   0  0  0  0  0  0  0  0  0  0  0  0
   53.1963    7.3682    9.8831 C   0  0  0  0  0  0  0  0  0  0  0  0
   48.3768    9.1901   12.0095 C   0  0  0  0  0  0  0  0  0  0  0  0
   49.3042    7.0522   12.6626 C   0  0  0  0  0  0  0  0  0  0  0  0
   53.6493    6.0418    9.9002 C   0  0  0  0  0  0  0  0  0  0  0  0
   52.8711    7.9598    8.6546 C   0  0  0  0  0  0  0  0  0  0  0  0
   47.1411    8.8168   12.5421 C   0  0  0  0  0  0  0  0  0  0  0  0
   48.0660    6.6823   13.1941 C   0  0  0  0  0  0  0  0  0  0  0  0
   53.7947    5.3289    8.7089 C   0  0  0  0  0  0  0  0  0  0  0  0
   53.0165    7.2452    7.4646 C   0  0  0  0  0  0  0  0  0  0  0  0
   46.9874    7.5641   13.1342 C   0  0  0  0  0  0  0  0  0  0  0  0
   53.4806    5.9315    7.4919 C   0  0  0  0  0  0  0  0  0  0  0  0
   53.7677    7.8135   11.8987 H   0  0  0  0  0  0  0  0  0  0  0  0
   53.1827    9.2087   11.0195 H   0  0  0  0  0  0  0  0  0  0  0  0
   48.4858   10.1698   11.5477 H   0  0  0  0  0  0  0  0  0  0  0  0
   50.1298    6.3470   12.7149 H   0  0  0  0  0  0  0  0  0  0  0  0
   53.8880    5.5560   10.8435 H   0  0  0  0  0  0  0  0  0  0  0  0
   52.4957    8.9815    8.6212 H   0  0  0  0  0  0  0  0  0  0  0  0
   46.2996    9.5034   12.4933 H   0  0  0  0  0  0  0  0  0  0  0  0
   47.9430    5.7043   13.6533 H   0  0  0  0  0  0  0  0  0  0  0  0
   54.1491    4.3018    8.7303 H   0  0  0  0  0  0  0  0  0  0  0  0
   52.7628    7.7136    6.5173 H   0  0  0  0  0  0  0  0  0  0  0  0
   46.0246    7.2736   13.5477 H   0  0  0  0  0  0  0  0  0  0  0  0
   53.5918    5.3754    6.5648 H   0  0  0  0  0  0  0  0  0  0  0  0
  2  1  1  0
  3  1  2  0
  4  1  1  0
  5  2  1  0
  6  5  1  0
  7  4  2  0
  8  4  1  0
  9  6  2  0
 10  6  1  0
 11  7  1  0
 12  8  2  0
 13  9  1  0
 14 10  2  0
 15 12  1  0
 16 14  1  0
 15 11  2  0
 16 13  2  0
  5 17  1  0
  5 18  1  0
  7 19  1  0
  8 20  1  0
  9 21  1  0
 10 22  1  0
 11 23  1  0
 12 24  1  0
 13 25  1  0
 14 26  1  0
 15 27  1  0
 16 28  1  0
M  END
> <Uni-Dock RESULT> 
ENERGY=   -3.663  LOWER_BOUND=    5.786  UPPER_BOUND=    7.068
INTER + INTRA:          -3.663
INTER:                  -3.663
INTRA:                   0.000
UNBOUND:                 0.000

$$$$

     RDKit          3D

 28 29  0  0  0  0  0  0  0  0999 V2000
   47.8986    7.8578   14.3368 C   0  0  0  0  0  0  0  0  0  0  0  0
   48.1447    9.1220   14.7553 O   0  0  0  0  0  0  0  0  0  0  0  0
   48.4837    6.8496   14.7004 O   0  0  0  0  0  0  0  0  0  0  0  0
   46.7965    7.8471   13.3361 C   0  0  0  0  0  0  0  0  0  0  0  0
   49.1607    9.2608   15.7553 C   0  0  0  0  0  0  0  0  0  0  0  0
   48.5116    9.3964   17.1077 C   0  0  0  0  0  0  0  0  0  0  0  0
   46.4763    6.6305   12.7173 C   0  0  0  0  0  0  0  0  0  0  0  0
   46.0730    9.0000   13.0004 C   0  0  0  0  0  0  0  0  0  0  0  0
   48.0691   10.6452   17.5656 C   0  0  0  0  0  0  0  0  0  0  0  0
   48.3032    8.2655   17.9093 C   0  0  0  0  0  0  0  0  0  0  0  0
   45.4498    6.5687   11.7727 C   0  0  0  0  0  0  0  0  0  0  0  0
   45.0464    8.9340   12.0549 C   0  0  0  0  0  0  0  0  0  0  0  0
   47.4498   10.7628   18.8111 C   0  0  0  0  0  0  0  0  0  0  0  0
   47.6833    8.3850   19.1540 C   0  0  0  0  0  0  0  0  0  0  0  0
   44.7367    7.7201   11.4422 C   0  0  0  0  0  0  0  0  0  0  0  0
   47.2593    9.6334   19.6054 C   0  0  0  0  0  0  0  0  0  0  0  0
   49.7273   10.1701   15.5231 H   0  0  0  0  0  0  0  0  0  0  0  0
   49.8900    8.4415   15.7412 H   0  0  0  0  0  0  0  0  0  0  0  0
   47.0257    5.7253   12.9697 H   0  0  0  0  0  0  0  0  0  0  0  0
   46.2936    9.9553   13.4700 H   0  0  0  0  0  0  0  0  0  0  0  0
   48.2020   11.5330   16.9515 H   0  0  0  0  0  0  0  0  0  0  0  0
   48.6188    7.2827   17.5624 H   0  0  0  0  0  0  0  0  0  0  0  0
   45.2068    5.6219   11.2967 H   0  0  0  0  0  0  0  0  0  0  0  0
   44.4866    9.8301   11.7982 H   0  0  0  0  0  0  0  0  0  0  0  0
   47.1120   11.7349   19.1601 H   0  0  0  0  0  0  0  0  0  0  0  0
   47.5275    7.5020   19.7684 H   0  0  0  0  0  0  0  0  0  0  0  0
   43.9367    7.6710   10.7074 H   0  0  0  0  0  0  0  0  0  0  0  0
   46.7751    9.7249   20.5740 H   0  0  0  0  0  0  0  0  0  0  0  0
  2  1  1  0
  3  1  2  0
  4  1  1  0
  5  2  1  0
  6  5  1  0
  7  4  2  0
  8  4  1  0
  9  6  2  0
 10  6  1  0
 11  7  1  0
 12  8  2  0
 13  9  1  0
 14 10  2  0
 15 12  1  0
 16 14  1  0
 15 11  2  0
 16 13  2  0
  5 17  1  0
  5 18  1  0
  7 19  1  0
  8 20  1  0
  9 21  1  0
 10 22  1  0
 11 23  1  0
 12 24  1  0
 13 25  1  0
 14 26  1  0
 15 27  1  0
 16 28  1  0
M  END
> <Uni-Dock RESULT> 
ENERGY=   -3.658  LOWER_BOUND=    4.775  UPPER_BOUND=    9.216
INTER + INTRA:          -3.658
INTER:                  -3.658
INTRA:                   0.000
UNBOUND:                 0.000

$$$$
