
     RDKit          3D

 28 29  0  0  0  0  0  0  0  0999 V2000
   44.5819    5.5291   10.2773 C   0  0  0  0  0  0  0  0  0  0  0  0
   45.3754    4.7326    9.5236 O   0  0  0  0  0  0  0  0  0  0  0  0
   43.3634    5.5811   10.2204 O   0  0  0  0  0  0  0  0  0  0  0  0
   45.4011    6.3534   11.2069 C   0  0  0  0  0  0  0  0  0  0  0  0
   44.6581    3.9080    8.6030 C   0  0  0  0  0  0  0  0  0  0  0  0
   45.6664    3.0862    7.8426 C   0  0  0  0  0  0  0  0  0  0  0  0
   44.7367    7.2399   12.0659 C   0  0  0  0  0  0  0  0  0  0  0  0
   46.8001    6.2721   11.2500 C   0  0  0  0  0  0  0  0  0  0  0  0
   46.2345    3.5752    6.6578 C   0  0  0  0  0  0  0  0  0  0  0  0
   46.0821    1.8397    8.3313 C   0  0  0  0  0  0  0  0  0  0  0  0
   45.4617    8.0346   12.9561 C   0  0  0  0  0  0  0  0  0  0  0  0
   47.5216    7.0691   12.1423 C   0  0  0  0  0  0  0  0  0  0  0  0
   47.1834    2.8220    5.9645 C   0  0  0  0  0  0  0  0  0  0  0  0
   47.0311    1.0879    7.6364 C   0  0  0  0  0  0  0  0  0  0  0  0
   46.8528    7.9483   12.9933 C   0  0  0  0  0  0  0  0  0  0  0  0
   47.5794    1.5780    6.4526 C   0  0  0  0  0  0  0  0  0  0  0  0
   43.9666    3.2486    9.1420 H   0  0  0  0  0  0  0  0  0  0  0  0
   44.0790    4.5285    7.9078 H   0  0  0  0  0  0  0  0  0  0  0  0
   43.6510    7.3148   12.0446 H   0  0  0  0  0  0  0  0  0  0  0  0
   47.3421    5.5934   10.5956 H   0  0  0  0  0  0  0  0  0  0  0  0
   45.9418    4.5486    6.2704 H   0  0  0  0  0  0  0  0  0  0  0  0
   45.6697    1.4492    9.2591 H   0  0  0  0  0  0  0  0  0  0  0  0
   44.9406    8.7203   13.6197 H   0  0  0  0  0  0  0  0  0  0  0  0
   48.6067    7.0032   12.1728 H   0  0  0  0  0  0  0  0  0  0  0  0
   47.6161    3.2074    5.0451 H   0  0  0  0  0  0  0  0  0  0  0  0
   47.3451    0.1210    8.0211 H   0  0  0  0  0  0  0  0  0  0  0  0
   47.4168    8.5675   13.6869 H   0  0  0  0  0  0  0  0  0  0  0  0
   48.3191    0.9926    5.9129 H   0  0  0  0  0  0  0  0  0  0  0  0
  2  1  1  0
  3  1  2  0
  4  1  1  0
  5  2  1  0
  6  5  1  0
  7  4  2  0
  8  4  1  0
  9  6  2  0
 10  6  1  0
 11  7  1  0
 12  8  2  0
 13  9  1  0
 14 10  2  0
 15 12  1  0
 16 14  1  0
 15 11  2  0
 16 13  2  0
  5 17  1  0
  5 18  1  0
  7 19  1  0
  8 20  1  0
  9 21  1  0
 10 22  1  0
 11 23  1  0
 12 24  1  0
 13 25  1  0
 14 26  1  0
 15 27  1  0
 16 28  1  0
M  END
> <Uni-Dock RESULT> 
ENERGY=   -6.136  LOWER_BOUND=    0.000  UPPER_BOUND=    0.000
INTER + INTRA:          -6.136
INTER:                  -6.136
INTRA:                   0.000
UNBOUND:                 0.000

$$$$

     RDKit          3D

 28 29  0  0  0  0  0  0  0  0999 V2000
   44.6549    5.1557   11.5534 C   0  0  0  0  0  0  0  0  0  0  0  0
   45.0953    6.4293   11.4259 O   0  0  0  0  0  0  0  0  0  0  0  0
   44.1084    4.6853   12.5387 O   0  0  0  0  0  0  0  0  0  0  0  0
   44.9270    4.3821   10.3117 C   0  0  0  0  0  0  0  0  0  0  0  0
   44.8684    7.2372   12.5825 C   0  0  0  0  0  0  0  0  0  0  0  0
   45.4068    8.6141   12.2923 C   0  0  0  0  0  0  0  0  0  0  0  0
   44.5339    3.0371   10.2702 C   0  0  0  0  0  0  0  0  0  0  0  0
   45.5568    4.9494    9.1949 C   0  0  0  0  0  0  0  0  0  0  0  0
   46.7431    8.9298   12.5758 C   0  0  0  0  0  0  0  0  0  0  0  0
   44.5911    9.5857   11.6955 C   0  0  0  0  0  0  0  0  0  0  0  0
   44.7676    2.2698    9.1273 C   0  0  0  0  0  0  0  0  0  0  0  0
   45.7886    4.1780    8.0533 C   0  0  0  0  0  0  0  0  0  0  0  0
   47.2467   10.1995   12.2881 C   0  0  0  0  0  0  0  0  0  0  0  0
   45.0967   10.8549   11.4086 C   0  0  0  0  0  0  0  0  0  0  0  0
   45.3944    2.8408    8.0206 C   0  0  0  0  0  0  0  0  0  0  0  0
   46.4229   11.1619   11.7071 C   0  0  0  0  0  0  0  0  0  0  0  0
   43.7952    7.2929   12.8031 H   0  0  0  0  0  0  0  0  0  0  0  0
   45.3822    6.8092   13.4523 H   0  0  0  0  0  0  0  0  0  0  0  0
   44.0439    2.5818   11.1290 H   0  0  0  0  0  0  0  0  0  0  0  0
   45.8725    5.9901    9.1985 H   0  0  0  0  0  0  0  0  0  0  0  0
   47.3999    8.1854   13.0205 H   0  0  0  0  0  0  0  0  0  0  0  0
   43.5569    9.3568   11.4483 H   0  0  0  0  0  0  0  0  0  0  0  0
   44.4604    1.2271    9.1015 H   0  0  0  0  0  0  0  0  0  0  0  0
   46.2775    4.6217    7.1891 H   0  0  0  0  0  0  0  0  0  0  0  0
   48.2828   10.4366   12.5145 H   0  0  0  0  0  0  0  0  0  0  0  0
   44.4560   11.6030   10.9490 H   0  0  0  0  0  0  0  0  0  0  0  0
   45.5760    2.2426    7.1308 H   0  0  0  0  0  0  0  0  0  0  0  0
   46.8160   12.1500   11.4824 H   0  0  0  0  0  0  0  0  0  0  0  0
  2  1  1  0
  3  1  2  0
  4  1  1  0
  5  2  1  0
  6  5  1  0
  7  4  2  0
  8  4  1  0
  9  6  2  0
 10  6  1  0
 11  7  1  0
 12  8  2  0
 13  9  1  0
 14 10  2  0
 15 12  1  0
 16 14  1  0
 15 11  2  0
 16 13  2  0
  5 17  1  0
  5 18  1  0
  7 19  1  0
  8 20  1  0
  9 21  1  0
 10 22  1  0
 11 23  1  0
 12 24  1  0
 13 25  1  0
 14 26  1  0
 15 27  1  0
 16 28  1  0
M  END
> <Uni-Dock RESULT> 
ENERGY=   -5.253  LOWER_BOUND=    1.940  UPPER_BOUND=    6.714
INTER + INTRA:          -5.253
INTER:                  -5.253
INTRA:                   0.000
UNBOUND:                 0.000

$$$$

     RDKit          3D

 28 29  0  0  0  0  0  0  0  0999 V2000
   45.5680    7.1655   11.9032 C   0  0  0  0  0  0  0  0  0  0  0  0
   45.7264    6.0431   11.1634 O   0  0  0  0  0  0  0  0  0  0  0  0
   44.5858    7.8907   11.8974 O   0  0  0  0  0  0  0  0  0  0  0  0
   46.7704    7.4104   12.7450 C   0  0  0  0  0  0  0  0  0  0  0  0
   44.6086    5.7409   10.3260 C   0  0  0  0  0  0  0  0  0  0  0  0
   44.9299    4.4769    9.5716 C   0  0  0  0  0  0  0  0  0  0  0  0
   46.7763    8.5374   13.5787 C   0  0  0  0  0  0  0  0  0  0  0  0
   47.8845    6.5594   12.7307 C   0  0  0  0  0  0  0  0  0  0  0  0
   45.5898    4.5342    8.3358 C   0  0  0  0  0  0  0  0  0  0  0  0
   44.6117    3.2240   10.1143 C   0  0  0  0  0  0  0  0  0  0  0  0
   47.8817    8.8098   14.3871 C   0  0  0  0  0  0  0  0  0  0  0  0
   48.9884    6.8355   13.5414 C   0  0  0  0  0  0  0  0  0  0  0  0
   45.9051    3.3619    7.6469 C   0  0  0  0  0  0  0  0  0  0  0  0
   44.9279    2.0528    9.4237 C   0  0  0  0  0  0  0  0  0  0  0  0
   48.9860    7.9589   14.3677 C   0  0  0  0  0  0  0  0  0  0  0  0
   45.5719    2.1222    8.1898 C   0  0  0  0  0  0  0  0  0  0  0  0
   43.7065    5.5962   10.9332 H   0  0  0  0  0  0  0  0  0  0  0  0
   44.4277    6.5624    9.6217 H   0  0  0  0  0  0  0  0  0  0  0  0
   45.9192    9.2080   13.6012 H   0  0  0  0  0  0  0  0  0  0  0  0
   47.9078    5.6779   12.0942 H   0  0  0  0  0  0  0  0  0  0  0  0
   45.8643    5.4945    7.9049 H   0  0  0  0  0  0  0  0  0  0  0  0
   44.1177    3.1547   11.0809 H   0  0  0  0  0  0  0  0  0  0  0  0
   47.8802    9.6855   15.0315 H   0  0  0  0  0  0  0  0  0  0  0  0
   49.8506    6.1731   13.5274 H   0  0  0  0  0  0  0  0  0  0  0  0
   46.4136    3.4159    6.6880 H   0  0  0  0  0  0  0  0  0  0  0  0
   44.6743    1.0859    9.8506 H   0  0  0  0  0  0  0  0  0  0  0  0
   49.8465    8.1716   14.9976 H   0  0  0  0  0  0  0  0  0  0  0  0
   45.8187    1.2098    7.6533 H   0  0  0  0  0  0  0  0  0  0  0  0
  2  1  1  0
  3  1  2  0
  4  1  1  0
  5  2  1  0
  6  5  1  0
  7  4  2  0
  8  4  1  0
  9  6  2  0
 10  6  1  0
 11  7  1  0
 12  8  2  0
 13  9  1  0
 14 10  2  0
 15 12  1  0
 16 14  1  0
 15 11  2  0
 16 13  2  0
  5 17  1  0
  5 18  1  0
  7 19  1  0
  8 20  1  0
  9 21  1  0
 10 22  1  0
 11 23  1  0
 12 24  1  0
 13 25  1  0
 14 26  1  0
 15 27  1  0
 16 28  1  0
M  END
> <Uni-Dock RESULT> 
ENERGY=   -4.926  LOWER_BOUND=    1.573  UPPER_BOUND=    2.505
INTER + INTRA:          -4.926
INTER:                  -4.926
INTRA:                   0.000
UNBOUND:                 0.000

$$$$

     RDKit          3D

 28 29  0  0  0  0  0  0  0  0999 V2000
   47.3110    4.3974   14.8883 C   0  0  0  0  0  0  0  0  0  0  0  0
   47.3245    5.6738   14.4381 O   0  0  0  0  0  0  0  0  0  0  0  0
   47.0310    3.4105   14.2262 O   0  0  0  0  0  0  0  0  0  0  0  0
   47.6898    4.3466   16.3265 C   0  0  0  0  0  0  0  0  0  0  0  0
   46.9700    5.8037   13.0599 C   0  0  0  0  0  0  0  0  0  0  0  0
   47.0293    7.2675   12.7077 C   0  0  0  0  0  0  0  0  0  0  0  0
   47.7273    3.0953   16.9574 C   0  0  0  0  0  0  0  0  0  0  0  0
   48.0066    5.4976   17.0618 C   0  0  0  0  0  0  0  0  0  0  0  0
   45.9019    8.0848   12.8715 C   0  0  0  0  0  0  0  0  0  0  0  0
   48.2242    7.8417   12.2516 C   0  0  0  0  0  0  0  0  0  0  0  0
   48.0769    2.9963   18.3056 C   0  0  0  0  0  0  0  0  0  0  0  0
   48.3559    5.3940   18.4106 C   0  0  0  0  0  0  0  0  0  0  0  0
   45.9633    9.4450   12.5641 C   0  0  0  0  0  0  0  0  0  0  0  0
   48.2834    9.2022   11.9445 C   0  0  0  0  0  0  0  0  0  0  0  0
   48.3907    4.1452   19.0304 C   0  0  0  0  0  0  0  0  0  0  0  0
   47.1528   10.0024   12.0985 C   0  0  0  0  0  0  0  0  0  0  0  0
   47.6699    5.2383   12.4322 H   0  0  0  0  0  0  0  0  0  0  0  0
   45.9574    5.4175   12.8894 H   0  0  0  0  0  0  0  0  0  0  0  0
   47.4841    2.1923   16.4004 H   0  0  0  0  0  0  0  0  0  0  0  0
   47.9859    6.4813   16.5987 H   0  0  0  0  0  0  0  0  0  0  0  0
   44.9697    7.6650   13.2430 H   0  0  0  0  0  0  0  0  0  0  0  0
   49.1168    7.2309   12.1358 H   0  0  0  0  0  0  0  0  0  0  0  0
   48.1041    2.0229   18.7891 H   0  0  0  0  0  0  0  0  0  0  0  0
   48.6009    6.2890   18.9776 H   0  0  0  0  0  0  0  0  0  0  0  0
   45.0835   10.0703   12.6909 H   0  0  0  0  0  0  0  0  0  0  0  0
   49.2131    9.6381   11.5883 H   0  0  0  0  0  0  0  0  0  0  0  0
   48.6629    4.0673   20.0803 H   0  0  0  0  0  0  0  0  0  0  0  0
   47.2001   11.0617   11.8604 H   0  0  0  0  0  0  0  0  0  0  0  0
  2  1  1  0
  3  1  2  0
  4  1  1  0
  5  2  1  0
  6  5  1  0
  7  4  2  0
  8  4  1  0
  9  6  2  0
 10  6  1  0
 11  7  1  0
 12  8  2  0
 13  9  1  0
 14 10  2  0
 15 12  1  0
 16 14  1  0
 15 11  2  0
 16 13  2  0
  5 17  1  0
  5 18  1  0
  7 19  1  0
  8 20  1  0
  9 21  1  0
 10 22  1  0
 11 23  1  0
 12 24  1  0
 13 25  1  0
 14 26  1  0
 15 27  1  0
 16 28  1  0
M  END
> <Uni-Dock RESULT> 
ENERGY=   -4.217  LOWER_BOUND=    5.062  UPPER_BOUND=    7.229
INTER + INTRA:          -4.217
INTER:                  -4.217
INTRA:                   0.000
UNBOUND:                 0.000

$$$$

     RDKit          3D

 28 29  0  0  0  0  0  0  0  0999 V2000
   53.6272    9.1715    5.5539 C   0  0  0  0  0  0  0  0  0  0  0  0
   52.3485    9.6151    5.5572 O   0  0  0  0  0  0  0  0  0  0  0  0
   54.5703    9.7180    5.0038 O   0  0  0  0  0  0  0  0  0  0  0  0
   53.7422    7.9032    6.3238 C   0  0  0  0  0  0  0  0  0  0  0  0
   52.1581   10.8335    4.8352 C   0  0  0  0  0  0  0  0  0  0  0  0
   50.6990   11.1978    4.9280 C   0  0  0  0  0  0  0  0  0  0  0  0
   55.0045    7.3014    6.4233 C   0  0  0  0  0  0  0  0  0  0  0  0
   52.6407    7.2983    6.9454 C   0  0  0  0  0  0  0  0  0  0  0  0
   49.7850   10.7215    3.9775 C   0  0  0  0  0  0  0  0  0  0  0  0
   50.2279   11.9829    5.9897 C   0  0  0  0  0  0  0  0  0  0  0  0
   55.1629    6.1106    7.1349 C   0  0  0  0  0  0  0  0  0  0  0  0
   52.8038    6.1068    7.6566 C   0  0  0  0  0  0  0  0  0  0  0  0
   48.4302   11.0429    4.0755 C   0  0  0  0  0  0  0  0  0  0  0  0
   48.8726   12.3032    6.0858 C   0  0  0  0  0  0  0  0  0  0  0  0
   54.0630    5.5149    7.7506 C   0  0  0  0  0  0  0  0  0  0  0  0
   47.9751   11.8353    5.1278 C   0  0  0  0  0  0  0  0  0  0  0  0
   52.7724   11.6325    5.2686 H   0  0  0  0  0  0  0  0  0  0  0  0
   52.4458   10.7022    3.7847 H   0  0  0  0  0  0  0  0  0  0  0  0
   55.8696    7.7585    5.9463 H   0  0  0  0  0  0  0  0  0  0  0  0
   51.6499    7.7425    6.8851 H   0  0  0  0  0  0  0  0  0  0  0  0
   50.1248   10.0942    3.1564 H   0  0  0  0  0  0  0  0  0  0  0  0
   50.9157   12.3469    6.7498 H   0  0  0  0  0  0  0  0  0  0  0  0
   56.1445    5.6488    7.2084 H   0  0  0  0  0  0  0  0  0  0  0  0
   51.9470    5.6406    8.1374 H   0  0  0  0  0  0  0  0  0  0  0  0
   47.7293   10.6721    3.3323 H   0  0  0  0  0  0  0  0  0  0  0  0
   48.5168   12.9153    6.9105 H   0  0  0  0  0  0  0  0  0  0  0  0
   54.1872    4.5875    8.3047 H   0  0  0  0  0  0  0  0  0  0  0  0
   46.9199   12.0842    5.2040 H   0  0  0  0  0  0  0  0  0  0  0  0
  2  1  1  0
  3  1  2  0
  4  1  1  0
  5  2  1  0
  6  5  1  0
  7  4  2  0
  8  4  1  0
  9  6  2  0
 10  6  1  0
 11  7  1  0
 12  8  2  0
 13  9  1  0
 14 10  2  0
 15 12  1  0
 16 14  1  0
 15 11  2  0
 16 13  2  0
  5 17  1  0
  5 18  1  0
  7 19  1  0
  8 20  1  0
  9 21  1  0
 10 22  1  0
 11 23  1  0
 12 24  1  0
 13 25  1  0
 14 26  1  0
 15 27  1  0
 16 28  1  0
M  END
> <Uni-Dock RESULT> 
ENERGY=   -4.186  LOWER_BOUND=    8.630  UPPER_BOUND=   10.168
INTER + INTRA:          -4.186
INTER:                  -4.186
INTRA:                   0.000
UNBOUND:                 0.000

$$$$

     RDKit          3D

 28 29  0  0  0  0  0  0  0  0999 V2000
   47.9069    5.5895   15.0564 C   0  0  0  0  0  0  0  0  0  0  0  0
   46.8049    5.1676   14.3934 O   0  0  0  0  0  0  0  0  0  0  0  0
   48.6593    6.4804   14.6948 O   0  0  0  0  0  0  0  0  0  0  0  0
   48.0905    4.8124   16.3122 C   0  0  0  0  0  0  0  0  0  0  0  0
   46.5615    5.8693   13.1726 C   0  0  0  0  0  0  0  0  0  0  0  0
   45.3139    5.2937   12.5543 C   0  0  0  0  0  0  0  0  0  0  0  0
   49.1895    5.1202   17.1263 C   0  0  0  0  0  0  0  0  0  0  0  0
   47.2093    3.7940   16.7021 C   0  0  0  0  0  0  0  0  0  0  0  0
   45.3924    4.2000   11.6805 C   0  0  0  0  0  0  0  0  0  0  0  0
   44.0536    5.8165   12.8769 C   0  0  0  0  0  0  0  0  0  0  0  0
   49.4043    4.4188   18.3144 C   0  0  0  0  0  0  0  0  0  0  0  0
   47.4280    3.0948   17.8917 C   0  0  0  0  0  0  0  0  0  0  0  0
   44.2344    3.6546   11.1238 C   0  0  0  0  0  0  0  0  0  0  0  0
   42.8968    5.2696   12.3189 C   0  0  0  0  0  0  0  0  0  0  0  0
   48.5237    3.4073   18.6957 C   0  0  0  0  0  0  0  0  0  0  0  0
   42.9878    4.1909   11.4411 C   0  0  0  0  0  0  0  0  0  0  0  0
   46.4228    6.9395   13.3702 H   0  0  0  0  0  0  0  0  0  0  0  0
   47.4100    5.7475   12.4880 H   0  0  0  0  0  0  0  0  0  0  0  0
   49.8829    5.9080   16.8376 H   0  0  0  0  0  0  0  0  0  0  0  0
   46.3485    3.5337   16.0905 H   0  0  0  0  0  0  0  0  0  0  0  0
   46.3580    3.7654   11.4316 H   0  0  0  0  0  0  0  0  0  0  0  0
   43.9671    6.6520   13.5680 H   0  0  0  0  0  0  0  0  0  0  0  0
   50.2585    4.6622   18.9415 H   0  0  0  0  0  0  0  0  0  0  0  0
   46.7422    2.3055   18.1907 H   0  0  0  0  0  0  0  0  0  0  0  0
   44.3049    2.8090   10.4448 H   0  0  0  0  0  0  0  0  0  0  0  0
   41.9242    5.6834   12.5721 H   0  0  0  0  0  0  0  0  0  0  0  0
   48.6917    2.8616   19.6211 H   0  0  0  0  0  0  0  0  0  0  0  0
   42.0865    3.7650   11.0081 H   0  0  0  0  0  0  0  0  0  0  0  0
  2  1  1  0
  3  1  2  0
  4  1  1  0
  5  2  1  0
  6  5  1  0
  7  4  2  0
  8  4  1  0
  9  6  2  0
 10  6  1  0
 11  7  1  0
 12  8  2  0
 13  9  1  0
 14 10  2  0
 15 12  1  0
 16 14  1  0
 15 11  2  0
 16 13  2  0
  5 17  1  0
  5 18  1  0
  7 19  1  0
  8 20  1  0
  9 21  1  0
 10 22  1  0
 11 23  1  0
 12 24  1  0
 13 25  1  0
 14 26  1  0
 15 27  1  0
 16 28  1  0
M  END
> <Uni-Dock RESULT> 
ENERGY=   -4.171  LOWER_BOUND=    4.634  UPPER_BOUND=    6.424
INTER + INTRA:          -4.171
INTER:                  -4.171
INTRA:                   0.000
UNBOUND:                 0.000

$$$$

     RDKit          3D

 28 29  0  0  0  0  0  0  0  0999 V2000
   48.3196    9.1126   17.0712 C   0  0  0  0  0  0  0  0  0  0  0  0
   48.3318    7.7847   17.3326 O   0  0  0  0  0  0  0  0  0  0  0  0
   48.6947    9.6390   16.0354 O   0  0  0  0  0  0  0  0  0  0  0  0
   47.7782    9.8689   18.2328 C   0  0  0  0  0  0  0  0  0  0  0  0
   48.8404    6.9895   16.2598 C   0  0  0  0  0  0  0  0  0  0  0  0
   48.7919    5.5479   16.6951 C   0  0  0  0  0  0  0  0  0  0  0  0
   47.6940   11.2647   18.1328 C   0  0  0  0  0  0  0  0  0  0  0  0
   47.3547    9.2368   19.4104 C   0  0  0  0  0  0  0  0  0  0  0  0
   49.8755    4.9729   17.3740 C   0  0  0  0  0  0  0  0  0  0  0  0
   47.6460    4.7735   16.4650 C   0  0  0  0  0  0  0  0  0  0  0  0
   47.1930   12.0181   19.1963 C   0  0  0  0  0  0  0  0  0  0  0  0
   46.8539    9.9945   20.4720 C   0  0  0  0  0  0  0  0  0  0  0  0
   49.8218    3.6430   17.7947 C   0  0  0  0  0  0  0  0  0  0  0  0
   47.5945    3.4437   16.8865 C   0  0  0  0  0  0  0  0  0  0  0  0
   46.7737   11.3825   20.3642 C   0  0  0  0  0  0  0  0  0  0  0  0
   48.6827    2.8785   17.5487 C   0  0  0  0  0  0  0  0  0  0  0  0
   48.2297    7.1302   15.3593 H   0  0  0  0  0  0  0  0  0  0  0  0
   49.8738    7.2773   16.0297 H   0  0  0  0  0  0  0  0  0  0  0  0
   48.0188   11.7705   17.2254 H   0  0  0  0  0  0  0  0  0  0  0  0
   47.4082    8.1557   19.5161 H   0  0  0  0  0  0  0  0  0  0  0  0
   50.7670    5.5607   17.5811 H   0  0  0  0  0  0  0  0  0  0  0  0
   46.7857    5.2045   15.9579 H   0  0  0  0  0  0  0  0  0  0  0  0
   47.1303   13.1004   19.1125 H   0  0  0  0  0  0  0  0  0  0  0  0
   46.5264    9.5005   21.3838 H   0  0  0  0  0  0  0  0  0  0  0  0
   50.6678    3.2045   18.3173 H   0  0  0  0  0  0  0  0  0  0  0  0
   46.7033    2.8498   16.7009 H   0  0  0  0  0  0  0  0  0  0  0  0
   46.3836   11.9700   21.1920 H   0  0  0  0  0  0  0  0  0  0  0  0
   48.6412    1.8435   17.8776 H   0  0  0  0  0  0  0  0  0  0  0  0
  2  1  1  0
  3  1  2  0
  4  1  1  0
  5  2  1  0
  6  5  1  0
  7  4  2  0
  8  4  1  0
  9  6  2  0
 10  6  1  0
 11  7  1  0
 12  8  2  0
 13  9  1  0
 14 10  2  0
 15 12  1  0
 16 14  1  0
 15 11  2  0
 16 13  2  0
  5 17  1  0
  5 18  1  0
  7 19  1  0
  8 20  1  0
  9 21  1  0
 10 22  1  0
 11 23  1  0
 12 24  1  0
 13 25  1  0
 14 26  1  0
 15 27  1  0
 16 28  1  0
M  END
> <Uni-Dock RESULT> 
ENERGY=   -4.153  LOWER_BOUND=    7.932  UPPER_BOUND=    9.321
INTER + INTRA:          -4.153
INTER:                  -4.153
INTRA:                   0.000
UNBOUND:                 0.000

$$$$

     RDKit          3D

 28 29  0  0  0  0  0  0  0  0999 V2000
   40.6485   10.8476   11.4224 C   0  0  0  0  0  0  0  0  0  0  0  0
   41.9693   10.8535   11.7181 O   0  0  0  0  0  0  0  0  0  0  0  0
   40.1411   10.3405   10.4344 O   0  0  0  0  0  0  0  0  0  0  0  0
   39.8734   11.5538   12.4784 C   0  0  0  0  0  0  0  0  0  0  0  0
   42.7815   10.1915   10.7466 C   0  0  0  0  0  0  0  0  0  0  0  0
   44.2127   10.2799   11.2091 C   0  0  0  0  0  0  0  0  0  0  0  0
   38.4821   11.6421   12.3310 C   0  0  0  0  0  0  0  0  0  0  0  0
   40.4839   12.1268   13.6030 C   0  0  0  0  0  0  0  0  0  0  0  0
   45.0120   11.3726   10.8445 C   0  0  0  0  0  0  0  0  0  0  0  0
   44.7525    9.2924   12.0453 C   0  0  0  0  0  0  0  0  0  0  0  0
   37.7117   12.2949   13.2953 C   0  0  0  0  0  0  0  0  0  0  0  0
   39.7091   12.7790   14.5656 C   0  0  0  0  0  0  0  0  0  0  0  0
   46.3317   11.4639   11.2900 C   0  0  0  0  0  0  0  0  0  0  0  0
   46.0726    9.3856   12.4896 C   0  0  0  0  0  0  0  0  0  0  0  0
   38.3257   12.8623   14.4111 C   0  0  0  0  0  0  0  0  0  0  0  0
   46.8620   10.4695   12.1100 C   0  0  0  0  0  0  0  0  0  0  0  0
   42.4819    9.1403   10.6529 H   0  0  0  0  0  0  0  0  0  0  0  0
   42.6733   10.6743    9.7674 H   0  0  0  0  0  0  0  0  0  0  0  0
   37.9931   11.2025   11.4636 H   0  0  0  0  0  0  0  0  0  0  0  0
   41.5609   12.0736   13.7437 H   0  0  0  0  0  0  0  0  0  0  0  0
   44.6081   12.1607   10.2129 H   0  0  0  0  0  0  0  0  0  0  0  0
   44.1447    8.4459   12.3573 H   0  0  0  0  0  0  0  0  0  0  0  0
   36.6330   12.3601   13.1752 H   0  0  0  0  0  0  0  0  0  0  0  0
   40.1863   13.2222   15.4364 H   0  0  0  0  0  0  0  0  0  0  0  0
   46.9451   12.3128   10.9996 H   0  0  0  0  0  0  0  0  0  0  0  0
   46.4837    8.6136   13.1349 H   0  0  0  0  0  0  0  0  0  0  0  0
   37.7250   13.3705   15.1617 H   0  0  0  0  0  0  0  0  0  0  0  0
   47.8893   10.5418   12.4573 H   0  0  0  0  0  0  0  0  0  0  0  0
  2  1  1  0
  3  1  2  0
  4  1  1  0
  5  2  1  0
  6  5  1  0
  7  4  2  0
  8  4  1  0
  9  6  2  0
 10  6  1  0
 11  7  1  0
 12  8  2  0
 13  9  1  0
 14 10  2  0
 15 12  1  0
 16 14  1  0
 15 11  2  0
 16 13  2  0
  5 17  1  0
  5 18  1  0
  7 19  1  0
  8 20  1  0
  9 21  1  0
 10 22  1  0
 11 23  1  0
 12 24  1  0
 13 25  1  0
 14 26  1  0
 15 27  1  0
 16 28  1  0
M  END
> <Uni-Dock RESULT> 
ENERGY=   -4.091  LOWER_BOUND=    6.375  UPPER_BOUND=    8.583
INTER + INTRA:          -4.091
INTER:                  -4.091
INTRA:                   0.000
UNBOUND:                 0.000

$$$$
