
     RDKit          3D

 28 29  0  0  0  0  0  0  0  0999 V2000
   45.2237    3.7908    8.6740 C   0  0  0  0  0  0  0  0  0  0  0  0
   44.9914    3.0452    9.7803 O   0  0  0  0  0  0  0  0  0  0  0  0
   44.8030    4.9171    8.4605 O   0  0  0  0  0  0  0  0  0  0  0  0
   46.0751    3.0401    7.7109 C   0  0  0  0  0  0  0  0  0  0  0  0
   44.2147    3.6759   10.8053 C   0  0  0  0  0  0  0  0  0  0  0  0
   45.1362    4.2009   11.8748 C   0  0  0  0  0  0  0  0  0  0  0  0
   46.3320    3.6222    6.4616 C   0  0  0  0  0  0  0  0  0  0  0  0
   46.6269    1.7869    8.0115 C   0  0  0  0  0  0  0  0  0  0  0  0
   45.5929    5.5254   11.8281 C   0  0  0  0  0  0  0  0  0  0  0  0
   45.5837    3.3636   12.9063 C   0  0  0  0  0  0  0  0  0  0  0  0
   47.1258    2.9580    5.5243 C   0  0  0  0  0  0  0  0  0  0  0  0
   47.4208    1.1257    7.0710 C   0  0  0  0  0  0  0  0  0  0  0  0
   46.4633    6.0087   12.8060 C   0  0  0  0  0  0  0  0  0  0  0  0
   46.4538    3.8490   13.8839 C   0  0  0  0  0  0  0  0  0  0  0  0
   47.6686    1.7107    5.8297 C   0  0  0  0  0  0  0  0  0  0  0  0
   46.8913    5.1715   13.8348 C   0  0  0  0  0  0  0  0  0  0  0  0
   43.5507    2.9137   11.2294 H   0  0  0  0  0  0  0  0  0  0  0  0
   43.5575    4.4651   10.4199 H   0  0  0  0  0  0  0  0  0  0  0  0
   45.9146    4.5964    6.2140 H   0  0  0  0  0  0  0  0  0  0  0  0
   46.4514    1.3152    8.9752 H   0  0  0  0  0  0  0  0  0  0  0  0
   45.2756    6.1857   11.0224 H   0  0  0  0  0  0  0  0  0  0  0  0
   45.2585    2.3267   12.9508 H   0  0  0  0  0  0  0  0  0  0  0  0
   47.3209    3.4151    4.5573 H   0  0  0  0  0  0  0  0  0  0  0  0
   47.8480    0.1544    7.3085 H   0  0  0  0  0  0  0  0  0  0  0  0
   46.8106    7.0376   12.7613 H   0  0  0  0  0  0  0  0  0  0  0  0
   46.7939    3.1942   14.6818 H   0  0  0  0  0  0  0  0  0  0  0  0
   48.2876    1.1946    5.0997 H   0  0  0  0  0  0  0  0  0  0  0  0
   47.5704    5.5485   14.5947 H   0  0  0  0  0  0  0  0  0  0  0  0
  2  1  1  0
  3  1  2  0
  4  1  1  0
  5  2  1  0
  6  5  1  0
  7  4  2  0
  8  4  1  0
  9  6  2  0
 10  6  1  0
 11  7  1  0
 12  8  2  0
 13  9  1  0
 14 10  2  0
 15 12  1  0
 16 14  1  0
 15 11  2  0
 16 13  2  0
  5 17  1  0
  5 18  1  0
  7 19  1  0
  8 20  1  0
  9 21  1  0
 10 22  1  0
 11 23  1  0
 12 24  1  0
 13 25  1  0
 14 26  1  0
 15 27  1  0
 16 28  1  0
M  END
> <Uni-Dock RESULT> 
ENERGY=   -6.076  LOWER_BOUND=    0.000  UPPER_BOUND=    0.000
INTER + INTRA:          -6.076
INTER:                  -6.076
INTRA:                   0.000
UNBOUND:                 0.000

$$$$

     RDKit          3D

 28 29  0  0  0  0  0  0  0  0999 V2000
   44.2860   10.0875   11.4693 C   0  0  0  0  0  0  0  0  0  0  0  0
   43.2200    9.7617   10.7002 O   0  0  0  0  0  0  0  0  0  0  0  0
   44.6714   11.2167   11.7287 O   0  0  0  0  0  0  0  0  0  0  0  0
   44.9611    8.8584   11.9688 C   0  0  0  0  0  0  0  0  0  0  0  0
   42.4586   10.8630   10.1914 C   0  0  0  0  0  0  0  0  0  0  0  0
   41.2368   11.0610   11.0497 C   0  0  0  0  0  0  0  0  0  0  0  0
   46.1483    9.0063   12.6999 C   0  0  0  0  0  0  0  0  0  0  0  0
   44.4510    7.5729   11.7397 C   0  0  0  0  0  0  0  0  0  0  0  0
   41.2626   11.9661   12.1198 C   0  0  0  0  0  0  0  0  0  0  0  0
   40.0730   10.3146   10.8186 C   0  0  0  0  0  0  0  0  0  0  0  0
   46.8184    7.8838   13.1907 C   0  0  0  0  0  0  0  0  0  0  0  0
   45.1243    6.4523   12.2328 C   0  0  0  0  0  0  0  0  0  0  0  0
   40.1389   12.1365   12.9296 C   0  0  0  0  0  0  0  0  0  0  0  0
   38.9498   10.4869   11.6293 C   0  0  0  0  0  0  0  0  0  0  0  0
   46.3062    6.6086   12.9562 C   0  0  0  0  0  0  0  0  0  0  0  0
   38.9824   11.3991   12.6827 C   0  0  0  0  0  0  0  0  0  0  0  0
   42.1562   10.6081    9.1689 H   0  0  0  0  0  0  0  0  0  0  0  0
   43.0445   11.7868   10.1091 H   0  0  0  0  0  0  0  0  0  0  0  0
   46.5555    9.9976   12.8901 H   0  0  0  0  0  0  0  0  0  0  0  0
   43.5283    7.4283   11.1833 H   0  0  0  0  0  0  0  0  0  0  0  0
   42.1643   12.5391   12.3305 H   0  0  0  0  0  0  0  0  0  0  0  0
   40.0373    9.5918   10.0066 H   0  0  0  0  0  0  0  0  0  0  0  0
   47.7386    8.0058   13.7568 H   0  0  0  0  0  0  0  0  0  0  0  0
   44.7247    5.4570   12.0539 H   0  0  0  0  0  0  0  0  0  0  0  0
   40.1688   12.8418   13.7561 H   0  0  0  0  0  0  0  0  0  0  0  0
   38.0504    9.9063   11.4418 H   0  0  0  0  0  0  0  0  0  0  0  0
   46.8279    5.7350   13.3397 H   0  0  0  0  0  0  0  0  0  0  0  0
   38.1086   11.5314   13.3150 H   0  0  0  0  0  0  0  0  0  0  0  0
  2  1  1  0
  3  1  2  0
  4  1  1  0
  5  2  1  0
  6  5  1  0
  7  4  2  0
  8  4  1  0
  9  6  2  0
 10  6  1  0
 11  7  1  0
 12  8  2  0
 13  9  1  0
 14 10  2  0
 15 12  1  0
 16 14  1  0
 15 11  2  0
 16 13  2  0
  5 17  1  0
  5 18  1  0
  7 19  1  0
  8 20  1  0
  9 21  1  0
 10 22  1  0
 11 23  1  0
 12 24  1  0
 13 25  1  0
 14 26  1  0
 15 27  1  0
 16 28  1  0
M  END
> <Uni-Dock RESULT> 
ENERGY=   -4.233  LOWER_BOUND=    5.934  UPPER_BOUND=    8.247
INTER + INTRA:          -4.233
INTER:                  -4.233
INTRA:                   0.000
UNBOUND:                 0.000

$$$$

     RDKit          3D

 28 29  0  0  0  0  0  0  0  0999 V2000
   44.1061    9.1818   11.3115 C   0  0  0  0  0  0  0  0  0  0  0  0
   44.5953   10.4437   11.2636 O   0  0  0  0  0  0  0  0  0  0  0  0
   43.0201    8.8117   10.8935 O   0  0  0  0  0  0  0  0  0  0  0  0
   45.0828    8.2707   11.9686 C   0  0  0  0  0  0  0  0  0  0  0  0
   43.7622   11.4109   10.6140 C   0  0  0  0  0  0  0  0  0  0  0  0
   44.2538   11.6248    9.2064 C   0  0  0  0  0  0  0  0  0  0  0  0
   44.6984    6.9418   12.1964 C   0  0  0  0  0  0  0  0  0  0  0  0
   46.3622    8.6920   12.3572 C   0  0  0  0  0  0  0  0  0  0  0  0
   43.7068   10.8889    8.1461 C   0  0  0  0  0  0  0  0  0  0  0  0
   45.2919   12.5291    8.9420 C   0  0  0  0  0  0  0  0  0  0  0  0
   45.5794    6.0481   12.8086 C   0  0  0  0  0  0  0  0  0  0  0  0
   47.2410    7.7946   12.9692 C   0  0  0  0  0  0  0  0  0  0  0  0
   44.1746   11.0697    6.8438 C   0  0  0  0  0  0  0  0  0  0  0  0
   45.7580   12.7090    7.6386 C   0  0  0  0  0  0  0  0  0  0  0  0
   46.8490    6.4754   13.1948 C   0  0  0  0  0  0  0  0  0  0  0  0
   45.1979   11.9813    6.5901 C   0  0  0  0  0  0  0  0  0  0  0  0
   43.8420   12.3460   11.1807 H   0  0  0  0  0  0  0  0  0  0  0  0
   42.6992   11.1404   10.6304 H   0  0  0  0  0  0  0  0  0  0  0  0
   43.7101    6.5977   11.8970 H   0  0  0  0  0  0  0  0  0  0  0  0
   46.6906    9.7141   12.1858 H   0  0  0  0  0  0  0  0  0  0  0  0
   42.9155   10.1647    8.3333 H   0  0  0  0  0  0  0  0  0  0  0  0
   45.7450   13.0958    9.7522 H   0  0  0  0  0  0  0  0  0  0  0  0
   45.2747    5.0190   12.9823 H   0  0  0  0  0  0  0  0  0  0  0  0
   48.2329    8.1249   13.2681 H   0  0  0  0  0  0  0  0  0  0  0  0
   43.7429   10.4951    6.0285 H   0  0  0  0  0  0  0  0  0  0  0  0
   46.5612   13.4141    7.4416 H   0  0  0  0  0  0  0  0  0  0  0  0
   47.5350    5.7786   13.6704 H   0  0  0  0  0  0  0  0  0  0  0  0
   45.5625   12.1200    5.5758 H   0  0  0  0  0  0  0  0  0  0  0  0
  2  1  1  0
  3  1  2  0
  4  1  1  0
  5  2  1  0
  6  5  1  0
  7  4  2  0
  8  4  1  0
  9  6  2  0
 10  6  1  0
 11  7  1  0
 12  8  2  0
 13  9  1  0
 14 10  2  0
 15 12  1  0
 16 14  1  0
 15 11  2  0
 16 13  2  0
  5 17  1  0
  5 18  1  0
  7 19  1  0
  8 20  1  0
  9 21  1  0
 10 22  1  0
 11 23  1  0
 12 24  1  0
 13 25  1  0
 14 26  1  0
 15 27  1  0
 16 28  1  0
M  END
> <Uni-Dock RESULT> 
ENERGY=   -3.982  LOWER_BOUND=    5.513  UPPER_BOUND=    8.121
INTER + INTRA:          -3.982
INTER:                  -3.982
INTRA:                   0.000
UNBOUND:                 0.000

$$$$

     RDKit          3D

 28 29  0  0  0  0  0  0  0  0999 V2000
   41.3306   10.9373   11.2063 C   0  0  0  0  0  0  0  0  0  0  0  0
   42.5901   11.3351   11.5055 O   0  0  0  0  0  0  0  0  0  0  0  0
   40.9993   10.2369   10.2625 O   0  0  0  0  0  0  0  0  0  0  0  0
   40.3637   11.4860   12.1962 C   0  0  0  0  0  0  0  0  0  0  0  0
   43.6220   10.8360   10.6466 C   0  0  0  0  0  0  0  0  0  0  0  0
   44.2943    9.6617   11.3082 C   0  0  0  0  0  0  0  0  0  0  0  0
   38.9969   11.2587   11.9821 C   0  0  0  0  0  0  0  0  0  0  0  0
   40.7711   12.2092   13.3259 C   0  0  0  0  0  0  0  0  0  0  0  0
   43.8606    8.3556   11.0422 C   0  0  0  0  0  0  0  0  0  0  0  0
   45.3325    9.8589   12.2293 C   0  0  0  0  0  0  0  0  0  0  0  0
   38.0506   11.7520   12.8827 C   0  0  0  0  0  0  0  0  0  0  0  0
   39.8212   12.7009   14.2248 C   0  0  0  0  0  0  0  0  0  0  0  0
   44.4678    7.2667   11.6694 C   0  0  0  0  0  0  0  0  0  0  0  0
   45.9390    8.7686   12.8553 C   0  0  0  0  0  0  0  0  0  0  0  0
   38.4636   12.4728   14.0023 C   0  0  0  0  0  0  0  0  0  0  0  0
   45.5082    7.4733   12.5735 C   0  0  0  0  0  0  0  0  0  0  0  0
   44.3473   11.6450   10.5011 H   0  0  0  0  0  0  0  0  0  0  0  0
   43.2572   10.5768    9.6451 H   0  0  0  0  0  0  0  0  0  0  0  0
   38.6641   10.6956   11.1121 H   0  0  0  0  0  0  0  0  0  0  0  0
   41.8244   12.3937   13.5220 H   0  0  0  0  0  0  0  0  0  0  0  0
   43.0404    8.1820   10.3473 H   0  0  0  0  0  0  0  0  0  0  0  0
   45.6716   10.8648   12.4663 H   0  0  0  0  0  0  0  0  0  0  0  0
   36.9923   11.5722   12.7104 H   0  0  0  0  0  0  0  0  0  0  0  0
   40.1414   13.2603   15.1006 H   0  0  0  0  0  0  0  0  0  0  0  0
   44.1248    6.2579   11.4553 H   0  0  0  0  0  0  0  0  0  0  0  0
   46.7451    8.9298   13.5661 H   0  0  0  0  0  0  0  0  0  0  0  0
   37.7263   12.8556   14.7038 H   0  0  0  0  0  0  0  0  0  0  0  0
   45.9791    6.6248   13.0626 H   0  0  0  0  0  0  0  0  0  0  0  0
  2  1  1  0
  3  1  2  0
  4  1  1  0
  5  2  1  0
  6  5  1  0
  7  4  2  0
  8  4  1  0
  9  6  2  0
 10  6  1  0
 11  7  1  0
 12  8  2  0
 13  9  1  0
 14 10  2  0
 15 12  1  0
 16 14  1  0
 15 11  2  0
 16 13  2  0
  5 17  1  0
  5 18  1  0
  7 19  1  0
  8 20  1  0
  9 21  1  0
 10 22  1  0
 11 23  1  0
 12 24  1  0
 13 25  1  0
 14 26  1  0
 15 27  1  0
 16 28  1  0
M  END
> <Uni-Dock RESULT> 
ENERGY=   -3.960  LOWER_BOUND=    6.828  UPPER_BOUND=    9.798
INTER + INTRA:          -3.960
INTER:                  -3.960
INTRA:                   0.000
UNBOUND:                 0.000

$$$$

     RDKit          3D

 28 29  0  0  0  0  0  0  0  0999 V2000
   48.8254    9.1449   17.2992 C   0  0  0  0  0  0  0  0  0  0  0  0
   48.9748    7.8682   17.7255 O   0  0  0  0  0  0  0  0  0  0  0  0
   49.2974    9.6264   16.2811 O   0  0  0  0  0  0  0  0  0  0  0  0
   47.9957    9.9202   18.2616 C   0  0  0  0  0  0  0  0  0  0  0  0
   49.7223    7.0055   16.8603 C   0  0  0  0  0  0  0  0  0  0  0  0
   48.7688    6.1699   16.0472 C   0  0  0  0  0  0  0  0  0  0  0  0
   47.8227   11.2922   18.0306 C   0  0  0  0  0  0  0  0  0  0  0  0
   47.3838    9.3286   19.3756 C   0  0  0  0  0  0  0  0  0  0  0  0
   48.3642    6.5945   14.7741 C   0  0  0  0  0  0  0  0  0  0  0  0
   48.2401    4.9800   16.5668 C   0  0  0  0  0  0  0  0  0  0  0  0
   47.0525   12.0626   18.9042 C   0  0  0  0  0  0  0  0  0  0  0  0
   46.6137   10.1029   20.2471 C   0  0  0  0  0  0  0  0  0  0  0  0
   47.4647    5.8329   14.0267 C   0  0  0  0  0  0  0  0  0  0  0  0
   47.3410    4.2193   15.8176 C   0  0  0  0  0  0  0  0  0  0  0  0
   46.4496   11.4675   20.0114 C   0  0  0  0  0  0  0  0  0  0  0  0
   46.9556    4.6445   14.5474 C   0  0  0  0  0  0  0  0  0  0  0  0
   50.3359    6.3559   17.4953 H   0  0  0  0  0  0  0  0  0  0  0  0
   50.4265    7.5489   16.2184 H   0  0  0  0  0  0  0  0  0  0  0  0
   48.2877   11.7662   17.1681 H   0  0  0  0  0  0  0  0  0  0  0  0
   47.4936    8.2656   19.5752 H   0  0  0  0  0  0  0  0  0  0  0  0
   48.7453    7.5273   14.3614 H   0  0  0  0  0  0  0  0  0  0  0  0
   48.5242    4.6418   17.5607 H   0  0  0  0  0  0  0  0  0  0  0  0
   46.9227   13.1261   18.7191 H   0  0  0  0  0  0  0  0  0  0  0  0
   46.1397    9.6400   21.1094 H   0  0  0  0  0  0  0  0  0  0  0  0
   47.1583    6.1703   13.0401 H   0  0  0  0  0  0  0  0  0  0  0  0
   46.9378    3.2966   16.2265 H   0  0  0  0  0  0  0  0  0  0  0  0
   45.8490   12.0677   20.6905 H   0  0  0  0  0  0  0  0  0  0  0  0
   46.2539    4.0532   13.9653 H   0  0  0  0  0  0  0  0  0  0  0  0
  2  1  1  0
  3  1  2  0
  4  1  1  0
  5  2  1  0
  6  5  1  0
  7  4  2  0
  8  4  1  0
  9  6  2  0
 10  6  1  0
 11  7  1  0
 12  8  2  0
 13  9  1  0
 14 10  2  0
 15 12  1  0
 16 14  1  0
 15 11  2  0
 16 13  2  0
  5 17  1  0
  5 18  1  0
  7 19  1  0
  8 20  1  0
  9 21  1  0
 10 22  1  0
 11 23  1  0
 12 24  1  0
 13 25  1  0
 14 26  1  0
 15 27  1  0
 16 28  1  0
M  END
> <Uni-Dock RESULT> 
ENERGY=   -3.918  LOWER_BOUND=    6.583  UPPER_BOUND=   10.728
INTER + INTRA:          -3.918
INTER:                  -3.918
INTRA:                   0.000
UNBOUND:                 0.000

$$$$

     RDKit          3D

 28 29  0  0  0  0  0  0  0  0999 V2000
   45.8547    9.7544   12.2457 C   0  0  0  0  0  0  0  0  0  0  0  0
   46.3232   10.8821   11.6601 O   0  0  0  0  0  0  0  0  0  0  0  0
   44.6973    9.5345   12.5668 O   0  0  0  0  0  0  0  0  0  0  0  0
   46.9629    8.7858   12.4683 C   0  0  0  0  0  0  0  0  0  0  0  0
   45.3419   11.8796   11.3544 C   0  0  0  0  0  0  0  0  0  0  0  0
   44.9763   11.7866    9.8962 C   0  0  0  0  0  0  0  0  0  0  0  0
   46.6766    7.6004   13.1600 C   0  0  0  0  0  0  0  0  0  0  0  0
   48.2673    9.0151   12.0087 C   0  0  0  0  0  0  0  0  0  0  0  0
   43.8785   11.0157    9.4894 C   0  0  0  0  0  0  0  0  0  0  0  0
   45.7512   12.4327    8.9229 C   0  0  0  0  0  0  0  0  0  0  0  0
   47.6820    6.6597   13.3931 C   0  0  0  0  0  0  0  0  0  0  0  0
   49.2704    8.0713   12.2436 C   0  0  0  0  0  0  0  0  0  0  0  0
   43.5497   10.9107    8.1372 C   0  0  0  0  0  0  0  0  0  0  0  0
   45.4204   12.3270    7.5710 C   0  0  0  0  0  0  0  0  0  0  0  0
   48.9774    6.8964   12.9353 C   0  0  0  0  0  0  0  0  0  0  0  0
   44.3189   11.5682    7.1789 C   0  0  0  0  0  0  0  0  0  0  0  0
   45.7923   12.8573   11.5622 H   0  0  0  0  0  0  0  0  0  0  0  0
   44.4536   11.8167   11.9950 H   0  0  0  0  0  0  0  0  0  0  0  0
   45.6681    7.4052   13.5200 H   0  0  0  0  0  0  0  0  0  0  0  0
   48.5166    9.9213   11.4623 H   0  0  0  0  0  0  0  0  0  0  0  0
   43.2772   10.4872   10.2276 H   0  0  0  0  0  0  0  0  0  0  0  0
   46.6195   13.0195    9.2140 H   0  0  0  0  0  0  0  0  0  0  0  0
   47.4530    5.7427   13.9303 H   0  0  0  0  0  0  0  0  0  0  0  0
   50.2806    8.2523   11.8844 H   0  0  0  0  0  0  0  0  0  0  0  0
   42.6958   10.3114    7.8325 H   0  0  0  0  0  0  0  0  0  0  0  0
   46.0246   12.8332    6.8228 H   0  0  0  0  0  0  0  0  0  0  0  0
   49.7595    6.1630   13.1160 H   0  0  0  0  0  0  0  0  0  0  0  0
   44.0630   11.4843    6.1261 H   0  0  0  0  0  0  0  0  0  0  0  0
  2  1  1  0
  3  1  2  0
  4  1  1  0
  5  2  1  0
  6  5  1  0
  7  4  2  0
  8  4  1  0
  9  6  2  0
 10  6  1  0
 11  7  1  0
 12  8  2  0
 13  9  1  0
 14 10  2  0
 15 12  1  0
 16 14  1  0
 15 11  2  0
 16 13  2  0
  5 17  1  0
  5 18  1  0
  7 19  1  0
  8 20  1  0
  9 21  1  0
 10 22  1  0
 11 23  1  0
 12 24  1  0
 13 25  1  0
 14 26  1  0
 15 27  1  0
 16 28  1  0
M  END
> <Uni-Dock RESULT> 
ENERGY=   -3.916  LOWER_BOUND=    6.063  UPPER_BOUND=    8.296
INTER + INTRA:          -3.916
INTER:                  -3.916
INTRA:                   0.000
UNBOUND:                 0.000

$$$$

     RDKit          3D

 28 29  0  0  0  0  0  0  0  0999 V2000
   48.4303    8.9254   15.9485 C   0  0  0  0  0  0  0  0  0  0  0  0
   48.6197    7.5875   15.8574 O   0  0  0  0  0  0  0  0  0  0  0  0
   48.5417    9.7341   15.0404 O   0  0  0  0  0  0  0  0  0  0  0  0
   48.0677    9.3050   17.3414 C   0  0  0  0  0  0  0  0  0  0  0  0
   48.9339    7.0899   14.5516 C   0  0  0  0  0  0  0  0  0  0  0  0
   47.6878    6.5245   13.9222 C   0  0  0  0  0  0  0  0  0  0  0  0
   47.9343   10.6678   17.6423 C   0  0  0  0  0  0  0  0  0  0  0  0
   47.8519    8.3546   18.3492 C   0  0  0  0  0  0  0  0  0  0  0  0
   46.8879    7.3238   13.0938 C   0  0  0  0  0  0  0  0  0  0  0  0
   47.2874    5.2077   14.1885 C   0  0  0  0  0  0  0  0  0  0  0  0
   47.5946   11.0746   18.9342 C   0  0  0  0  0  0  0  0  0  0  0  0
   47.5118    8.7657   19.6405 C   0  0  0  0  0  0  0  0  0  0  0  0
   45.7216    6.8091   12.5259 C   0  0  0  0  0  0  0  0  0  0  0  0
   46.1208    4.6945   13.6191 C   0  0  0  0  0  0  0  0  0  0  0  0
   47.3844   10.1235   19.9316 C   0  0  0  0  0  0  0  0  0  0  0  0
   45.3399    5.4943   12.7864 C   0  0  0  0  0  0  0  0  0  0  0  0
   49.6804    6.2964   14.6738 H   0  0  0  0  0  0  0  0  0  0  0  0
   49.4014    7.8444   13.9070 H   0  0  0  0  0  0  0  0  0  0  0  0
   48.0945   11.4183   16.8704 H   0  0  0  0  0  0  0  0  0  0  0  0
   47.9402    7.2909   18.1429 H   0  0  0  0  0  0  0  0  0  0  0  0
   47.1689    8.3564   12.8925 H   0  0  0  0  0  0  0  0  0  0  0  0
   47.8817    4.5759   14.8447 H   0  0  0  0  0  0  0  0  0  0  0  0
   47.4930   12.1331   19.1607 H   0  0  0  0  0  0  0  0  0  0  0  0
   47.3441    8.0253   20.4190 H   0  0  0  0  0  0  0  0  0  0  0  0
   45.1091    7.4368   11.8840 H   0  0  0  0  0  0  0  0  0  0  0  0
   45.8188    3.6717   13.8283 H   0  0  0  0  0  0  0  0  0  0  0  0
   47.1187   10.4409   20.9371 H   0  0  0  0  0  0  0  0  0  0  0  0
   44.4307    5.0951   12.3451 H   0  0  0  0  0  0  0  0  0  0  0  0
  2  1  1  0
  3  1  2  0
  4  1  1  0
  5  2  1  0
  6  5  1  0
  7  4  2  0
  8  4  1  0
  9  6  2  0
 10  6  1  0
 11  7  1  0
 12  8  2  0
 13  9  1  0
 14 10  2  0
 15 12  1  0
 16 14  1  0
 15 11  2  0
 16 13  2  0
  5 17  1  0
  5 18  1  0
  7 19  1  0
  8 20  1  0
  9 21  1  0
 10 22  1  0
 11 23  1  0
 12 24  1  0
 13 25  1  0
 14 26  1  0
 15 27  1  0
 16 28  1  0
M  END
> <Uni-Dock RESULT> 
ENERGY=   -3.844  LOWER_BOUND=    5.509  UPPER_BOUND=    9.752
INTER + INTRA:          -3.844
INTER:                  -3.844
INTRA:                   0.000
UNBOUND:                 0.000

$$$$

     RDKit          3D

 28 29  0  0  0  0  0  0  0  0999 V2000
   50.7616    8.7564   11.4849 C   0  0  0  0  0  0  0  0  0  0  0  0
   51.7282    7.8372   11.7187 O   0  0  0  0  0  0  0  0  0  0  0  0
   50.8995    9.8149   10.8919 O   0  0  0  0  0  0  0  0  0  0  0  0
   49.4673    8.3091   12.0686 C   0  0  0  0  0  0  0  0  0  0  0  0
   53.0167    8.1338   11.1679 C   0  0  0  0  0  0  0  0  0  0  0  0
   53.1964    7.3676    9.8836 C   0  0  0  0  0  0  0  0  0  0  0  0
   48.3762    9.1875   12.0099 C   0  0  0  0  0  0  0  0  0  0  0  0
   49.3044    7.0499   12.6631 C   0  0  0  0  0  0  0  0  0  0  0  0
   52.8710    7.9590    8.6551 C   0  0  0  0  0  0  0  0  0  0  0  0
   53.6500    6.0413    9.9007 C   0  0  0  0  0  0  0  0  0  0  0  0
   47.1407    8.8138   12.5426 C   0  0  0  0  0  0  0  0  0  0  0  0
   48.0664    6.6796   13.1946 C   0  0  0  0  0  0  0  0  0  0  0  0
   53.0167    7.2445    7.4652 C   0  0  0  0  0  0  0  0  0  0  0  0
   53.7957    5.3285    8.7094 C   0  0  0  0  0  0  0  0  0  0  0  0
   46.9874    7.5610   13.1347 C   0  0  0  0  0  0  0  0  0  0  0  0
   53.4814    5.9308    7.4924 C   0  0  0  0  0  0  0  0  0  0  0  0
   53.7677    7.8131   11.8993 H   0  0  0  0  0  0  0  0  0  0  0  0
   53.1821    9.2081   11.0201 H   0  0  0  0  0  0  0  0  0  0  0  0
   48.4849   10.1672   11.5481 H   0  0  0  0  0  0  0  0  0  0  0  0
   50.1304    6.3451   12.7154 H   0  0  0  0  0  0  0  0  0  0  0  0
   52.4953    8.9805    8.6218 H   0  0  0  0  0  0  0  0  0  0  0  0
   53.8890    5.5556   10.8440 H   0  0  0  0  0  0  0  0  0  0  0  0
   46.2988    9.5000   12.4937 H   0  0  0  0  0  0  0  0  0  0  0  0
   47.9438    5.7016   13.6538 H   0  0  0  0  0  0  0  0  0  0  0  0
   52.7628    7.7127    6.5178 H   0  0  0  0  0  0  0  0  0  0  0  0
   54.1505    4.3015    8.7310 H   0  0  0  0  0  0  0  0  0  0  0  0
   46.0248    7.2701   13.5482 H   0  0  0  0  0  0  0  0  0  0  0  0
   53.5927    5.3749    6.5654 H   0  0  0  0  0  0  0  0  0  0  0  0
  2  1  1  0
  3  1  2  0
  4  1  1  0
  5  2  1  0
  6  5  1  0
  7  4  2  0
  8  4  1  0
  9  6  2  0
 10  6  1  0
 11  7  1  0
 12  8  2  0
 13  9  1  0
 14 10  2  0
 15 12  1  0
 16 14  1  0
 15 11  2  0
 16 13  2  0
  5 17  1  0
  5 18  1  0
  7 19  1  0
  8 20  1  0
  9 21  1  0
 10 22  1  0
 11 23  1  0
 12 24  1  0
 13 25  1  0
 14 26  1  0
 15 27  1  0
 16 28  1  0
M  END
> <Uni-Dock RESULT> 
ENERGY=   -3.661  LOWER_BOUND=    6.183  UPPER_BOUND=    8.625
INTER + INTRA:          -3.661
INTER:                  -3.661
INTRA:                   0.000
UNBOUND:                 0.000

$$$$
