
     RDKit          3D

 28 29  0  0  0  0  0  0  0  0999 V2000
   45.4099    4.9901   10.7184 C   0  0  0  0  0  0  0  0  0  0  0  0
   45.0685    3.6996   10.4909 O   0  0  0  0  0  0  0  0  0  0  0  0
   45.2261    5.9302    9.9609 O   0  0  0  0  0  0  0  0  0  0  0  0
   46.0488    5.1307   12.0555 C   0  0  0  0  0  0  0  0  0  0  0  0
   44.4800    3.4262    9.2141 C   0  0  0  0  0  0  0  0  0  0  0  0
   45.5304    2.8631    8.2930 C   0  0  0  0  0  0  0  0  0  0  0  0
   46.3746    6.4194   12.5012 C   0  0  0  0  0  0  0  0  0  0  0  0
   46.3375    4.0281   12.8718 C   0  0  0  0  0  0  0  0  0  0  0  0
   45.8313    1.4941    8.3051 C   0  0  0  0  0  0  0  0  0  0  0  0
   46.2517    3.7102    7.4402 C   0  0  0  0  0  0  0  0  0  0  0  0
   46.9763    6.6033   13.7477 C   0  0  0  0  0  0  0  0  0  0  0  0
   46.9398    4.2162   14.1183 C   0  0  0  0  0  0  0  0  0  0  0  0
   46.8198    0.9799    7.4642 C   0  0  0  0  0  0  0  0  0  0  0  0
   47.2399    3.1944    6.6006 C   0  0  0  0  0  0  0  0  0  0  0  0
   47.2575    5.5020   14.5549 C   0  0  0  0  0  0  0  0  0  0  0  0
   47.5218    1.8296    6.6110 C   0  0  0  0  0  0  0  0  0  0  0  0
   43.9881    4.3020    8.7731 H   0  0  0  0  0  0  0  0  0  0  0  0
   43.6878    2.6848    9.3702 H   0  0  0  0  0  0  0  0  0  0  0  0
   46.1609    7.2857   11.8777 H   0  0  0  0  0  0  0  0  0  0  0  0
   46.1037    3.0167   12.5489 H   0  0  0  0  0  0  0  0  0  0  0  0
   45.2985    0.8214    8.9733 H   0  0  0  0  0  0  0  0  0  0  0  0
   46.0493    4.7801    7.4320 H   0  0  0  0  0  0  0  0  0  0  0  0
   47.2261    7.6056   14.0871 H   0  0  0  0  0  0  0  0  0  0  0  0
   47.1633    3.3584   14.7480 H   0  0  0  0  0  0  0  0  0  0  0  0
   47.0452   -0.0832    7.4775 H   0  0  0  0  0  0  0  0  0  0  0  0
   47.7927    3.8596    5.9424 H   0  0  0  0  0  0  0  0  0  0  0  0
   47.7272    5.6458   15.5250 H   0  0  0  0  0  0  0  0  0  0  0  0
   48.2928    1.4293    5.9580 H   0  0  0  0  0  0  0  0  0  0  0  0
  2  1  1  0
  3  1  2  0
  4  1  1  0
  5  2  1  0
  6  5  1  0
  7  4  2  0
  8  4  1  0
  9  6  2  0
 10  6  1  0
 11  7  1  0
 12  8  2  0
 13  9  1  0
 14 10  2  0
 15 12  1  0
 16 14  1  0
 15 11  2  0
 16 13  2  0
  5 17  1  0
  5 18  1  0
  7 19  1  0
  8 20  1  0
  9 21  1  0
 10 22  1  0
 11 23  1  0
 12 24  1  0
 13 25  1  0
 14 26  1  0
 15 27  1  0
 16 28  1  0
M  END
> <Uni-Dock RESULT> 
ENERGY=   -5.995  LOWER_BOUND=    0.000  UPPER_BOUND=    0.000
INTER + INTRA:          -5.995
INTER:                  -5.995
INTRA:                   0.000
UNBOUND:                 0.000

$$$$

     RDKit          3D

 28 29  0  0  0  0  0  0  0  0999 V2000
   45.5105    5.5713   11.1842 C   0  0  0  0  0  0  0  0  0  0  0  0
   45.0171    4.3240   10.9984 O   0  0  0  0  0  0  0  0  0  0  0  0
   45.3711    6.5228   10.4316 O   0  0  0  0  0  0  0  0  0  0  0  0
   46.2605    5.6475   12.4678 C   0  0  0  0  0  0  0  0  0  0  0  0
   44.3075    4.1105    9.7727 C   0  0  0  0  0  0  0  0  0  0  0  0
   45.2188    3.4345    8.7821 C   0  0  0  0  0  0  0  0  0  0  0  0
   46.7548    6.8955   12.8724 C   0  0  0  0  0  0  0  0  0  0  0  0
   46.4909    4.5234   13.2731 C   0  0  0  0  0  0  0  0  0  0  0  0
   45.3719    2.0411    8.7878 C   0  0  0  0  0  0  0  0  0  0  0  0
   45.9595    4.1961    7.8675 C   0  0  0  0  0  0  0  0  0  0  0  0
   47.4656    7.0184   14.0679 C   0  0  0  0  0  0  0  0  0  0  0  0
   47.2028    4.6505   14.4686 C   0  0  0  0  0  0  0  0  0  0  0  0
   46.2332    1.4207    7.8812 C   0  0  0  0  0  0  0  0  0  0  0  0
   46.8204    3.5740    6.9623 C   0  0  0  0  0  0  0  0  0  0  0  0
   47.6881    5.8965   14.8648 C   0  0  0  0  0  0  0  0  0  0  0  0
   46.9550    2.1868    6.9677 C   0  0  0  0  0  0  0  0  0  0  0  0
   43.8798    5.0324    9.3595 H   0  0  0  0  0  0  0  0  0  0  0  0
   43.4548    3.4590    9.9966 H   0  0  0  0  0  0  0  0  0  0  0  0
   46.5881    7.7774   12.2565 H   0  0  0  0  0  0  0  0  0  0  0  0
   46.1267    3.5417   12.9808 H   0  0  0  0  0  0  0  0  0  0  0  0
   44.8227    1.4321    9.5021 H   0  0  0  0  0  0  0  0  0  0  0  0
   45.8724    5.2815    7.8618 H   0  0  0  0  0  0  0  0  0  0  0  0
   47.8460    7.9894   14.3757 H   0  0  0  0  0  0  0  0  0  0  0  0
   47.3806    3.7760   15.0899 H   0  0  0  0  0  0  0  0  0  0  0  0
   46.3442    0.3396    7.8903 H   0  0  0  0  0  0  0  0  0  0  0  0
   47.3894    4.1735    6.2565 H   0  0  0  0  0  0  0  0  0  0  0  0
   48.2428    5.9926   15.7951 H   0  0  0  0  0  0  0  0  0  0  0  0
   47.6271    1.7037    6.2635 H   0  0  0  0  0  0  0  0  0  0  0  0
  2  1  1  0
  3  1  2  0
  4  1  1  0
  5  2  1  0
  6  5  1  0
  7  4  2  0
  8  4  1  0
  9  6  2  0
 10  6  1  0
 11  7  1  0
 12  8  2  0
 13  9  1  0
 14 10  2  0
 15 12  1  0
 16 14  1  0
 15 11  2  0
 16 13  2  0
  5 17  1  0
  5 18  1  0
  7 19  1  0
  8 20  1  0
  9 21  1  0
 10 22  1  0
 11 23  1  0
 12 24  1  0
 13 25  1  0
 14 26  1  0
 15 27  1  0
 16 28  1  0
M  END
> <Uni-Dock RESULT> 
ENERGY=   -5.749  LOWER_BOUND=    0.735  UPPER_BOUND=    0.751
INTER + INTRA:          -5.749
INTER:                  -5.749
INTRA:                   0.000
UNBOUND:                 0.000

$$$$

     RDKit          3D

 28 29  0  0  0  0  0  0  0  0999 V2000
   45.2173    5.6610   11.9443 C   0  0  0  0  0  0  0  0  0  0  0  0
   45.6295    6.8816   11.5273 O   0  0  0  0  0  0  0  0  0  0  0  0
   44.9857    5.3316   13.0972 O   0  0  0  0  0  0  0  0  0  0  0  0
   45.0645    4.7400   10.7848 C   0  0  0  0  0  0  0  0  0  0  0  0
   45.8545    7.8496   12.5588 C   0  0  0  0  0  0  0  0  0  0  0  0
   47.3293    7.9260   12.8553 C   0  0  0  0  0  0  0  0  0  0  0  0
   44.5452    3.4594   11.0207 C   0  0  0  0  0  0  0  0  0  0  0  0
   45.4247    5.1057    9.4802 C   0  0  0  0  0  0  0  0  0  0  0  0
   48.1716    8.7394   12.0846 C   0  0  0  0  0  0  0  0  0  0  0  0
   47.8861    7.1502   13.8815 C   0  0  0  0  0  0  0  0  0  0  0  0
   44.3838    2.5586    9.9660 C   0  0  0  0  0  0  0  0  0  0  0  0
   45.2619    4.2014    8.4276 C   0  0  0  0  0  0  0  0  0  0  0  0
   49.5410    8.7915   12.3502 C   0  0  0  0  0  0  0  0  0  0  0  0
   49.2555    7.2033   14.1452 C   0  0  0  0  0  0  0  0  0  0  0  0
   44.7415    2.9307    8.6711 C   0  0  0  0  0  0  0  0  0  0  0  0
   50.0818    8.0255   13.3814 C   0  0  0  0  0  0  0  0  0  0  0  0
   45.2728    7.6501   13.4672 H   0  0  0  0  0  0  0  0  0  0  0  0
   45.5011    8.8170   12.1833 H   0  0  0  0  0  0  0  0  0  0  0  0
   44.2646    3.1584   12.0284 H   0  0  0  0  0  0  0  0  0  0  0  0
   45.8376    6.0888    9.2687 H   0  0  0  0  0  0  0  0  0  0  0  0
   47.7644    9.3343   11.2703 H   0  0  0  0  0  0  0  0  0  0  0  0
   47.2528    6.4944   14.4771 H   0  0  0  0  0  0  0  0  0  0  0  0
   43.9803    1.5670   10.1562 H   0  0  0  0  0  0  0  0  0  0  0  0
   45.5436    4.4883    7.4173 H   0  0  0  0  0  0  0  0  0  0  0  0
   50.1868    9.4268   11.7498 H   0  0  0  0  0  0  0  0  0  0  0  0
   49.6771    6.5985   14.9438 H   0  0  0  0  0  0  0  0  0  0  0  0
   44.6168    2.2284    7.8504 H   0  0  0  0  0  0  0  0  0  0  0  0
   51.1483    8.0647   13.5864 H   0  0  0  0  0  0  0  0  0  0  0  0
  2  1  1  0
  3  1  2  0
  4  1  1  0
  5  2  1  0
  6  5  1  0
  7  4  2  0
  8  4  1  0
  9  6  2  0
 10  6  1  0
 11  7  1  0
 12  8  2  0
 13  9  1  0
 14 10  2  0
 15 12  1  0
 16 14  1  0
 15 11  2  0
 16 13  2  0
  5 17  1  0
  5 18  1  0
  7 19  1  0
  8 20  1  0
  9 21  1  0
 10 22  1  0
 11 23  1  0
 12 24  1  0
 13 25  1  0
 14 26  1  0
 15 27  1  0
 16 28  1  0
M  END
> <Uni-Dock RESULT> 
ENERGY=   -4.641  LOWER_BOUND=    2.142  UPPER_BOUND=    6.350
INTER + INTRA:          -4.641
INTER:                  -4.641
INTRA:                   0.000
UNBOUND:                 0.000

$$$$

     RDKit          3D

 28 29  0  0  0  0  0  0  0  0999 V2000
   50.2146    4.1887   17.9347 C   0  0  0  0  0  0  0  0  0  0  0  0
   49.0436    3.6600   17.5071 O   0  0  0  0  0  0  0  0  0  0  0  0
   50.4017    5.3448   18.2805 O   0  0  0  0  0  0  0  0  0  0  0  0
   51.2813    3.1503   17.9431 C   0  0  0  0  0  0  0  0  0  0  0  0
   47.9442    4.5734   17.4144 C   0  0  0  0  0  0  0  0  0  0  0  0
   47.7783    5.0074   15.9816 C   0  0  0  0  0  0  0  0  0  0  0  0
   52.5387    3.4973   18.4566 C   0  0  0  0  0  0  0  0  0  0  0  0
   51.0730    1.8530   17.4541 C   0  0  0  0  0  0  0  0  0  0  0  0
   47.0410    4.2274   15.0798 C   0  0  0  0  0  0  0  0  0  0  0  0
   48.3962    6.1781   15.5205 C   0  0  0  0  0  0  0  0  0  0  0  0
   53.5722    2.5588   18.4851 C   0  0  0  0  0  0  0  0  0  0  0  0
   52.1098    0.9169   17.4842 C   0  0  0  0  0  0  0  0  0  0  0  0
   46.9069    4.6232   13.7480 C   0  0  0  0  0  0  0  0  0  0  0  0
   48.2614    6.5718   14.1884 C   0  0  0  0  0  0  0  0  0  0  0  0
   53.3565    1.2699   17.9997 C   0  0  0  0  0  0  0  0  0  0  0  0
   47.5150    5.7959   13.3035 C   0  0  0  0  0  0  0  0  0  0  0  0
   48.0463    5.4355   18.0850 H   0  0  0  0  0  0  0  0  0  0  0  0
   47.0460    4.0401   17.7467 H   0  0  0  0  0  0  0  0  0  0  0  0
   52.7180    4.5016   18.8364 H   0  0  0  0  0  0  0  0  0  0  0  0
   50.1110    1.5581   17.0425 H   0  0  0  0  0  0  0  0  0  0  0  0
   46.5700    3.3047   15.4108 H   0  0  0  0  0  0  0  0  0  0  0  0
   48.9924    6.7861   16.1992 H   0  0  0  0  0  0  0  0  0  0  0  0
   54.5450    2.8347   18.8849 H   0  0  0  0  0  0  0  0  0  0  0  0
   51.9447   -0.0880   17.1027 H   0  0  0  0  0  0  0  0  0  0  0  0
   46.3312    4.0143   13.0558 H   0  0  0  0  0  0  0  0  0  0  0  0
   48.7437    7.4819   13.8412 H   0  0  0  0  0  0  0  0  0  0  0  0
   54.1621    0.5398   18.0210 H   0  0  0  0  0  0  0  0  0  0  0  0
   47.4122    6.1026   12.2661 H   0  0  0  0  0  0  0  0  0  0  0  0
  2  1  1  0
  3  1  2  0
  4  1  1  0
  5  2  1  0
  6  5  1  0
  7  4  2  0
  8  4  1  0
  9  6  2  0
 10  6  1  0
 11  7  1  0
 12  8  2  0
 13  9  1  0
 14 10  2  0
 15 12  1  0
 16 14  1  0
 15 11  2  0
 16 13  2  0
  5 17  1  0
  5 18  1  0
  7 19  1  0
  8 20  1  0
  9 21  1  0
 10 22  1  0
 11 23  1  0
 12 24  1  0
 13 25  1  0
 14 26  1  0
 15 27  1  0
 16 28  1  0
M  END
> <Uni-Dock RESULT> 
ENERGY=   -4.265  LOWER_BOUND=    5.532  UPPER_BOUND=    8.273
INTER + INTRA:          -4.265
INTER:                  -4.265
INTRA:                   0.000
UNBOUND:                 0.000

$$$$

     RDKit          3D

 28 29  0  0  0  0  0  0  0  0999 V2000
   45.4256   10.2345   11.9318 C   0  0  0  0  0  0  0  0  0  0  0  0
   44.3030   10.1434   11.1800 O   0  0  0  0  0  0  0  0  0  0  0  0
   46.0083   11.2630   12.2381 O   0  0  0  0  0  0  0  0  0  0  0  0
   45.8727    8.8820   12.3641 C   0  0  0  0  0  0  0  0  0  0  0  0
   43.7948   11.3800   10.6662 C   0  0  0  0  0  0  0  0  0  0  0  0
   44.2279   11.5377    9.2321 C   0  0  0  0  0  0  0  0  0  0  0  0
   46.9654    8.7941   13.2379 C   0  0  0  0  0  0  0  0  0  0  0  0
   45.2472    7.7064   11.9258 C   0  0  0  0  0  0  0  0  0  0  0  0
   43.4904   10.9505    8.1946 C   0  0  0  0  0  0  0  0  0  0  0  0
   45.4003   12.2398    8.9199 C   0  0  0  0  0  0  0  0  0  0  0  0
   47.4232    7.5482   13.6713 C   0  0  0  0  0  0  0  0  0  0  0  0
   45.7084    6.4616   12.3615 C   0  0  0  0  0  0  0  0  0  0  0  0
   43.9068   11.0822    6.8688 C   0  0  0  0  0  0  0  0  0  0  0  0
   45.8152   12.3699    7.5938 C   0  0  0  0  0  0  0  0  0  0  0  0
   46.7941    6.3838   13.2334 C   0  0  0  0  0  0  0  0  0  0  0  0
   45.0672   11.7935    6.5688 C   0  0  0  0  0  0  0  0  0  0  0  0
   44.0874   12.2473   11.2708 H   0  0  0  0  0  0  0  0  0  0  0  0
   42.7009   11.3326   10.7201 H   0  0  0  0  0  0  0  0  0  0  0  0
   47.4648    9.6971   13.5843 H   0  0  0  0  0  0  0  0  0  0  0  0
   44.4031    7.7435   11.2417 H   0  0  0  0  0  0  0  0  0  0  0  0
   42.5886   10.3840    8.4154 H   0  0  0  0  0  0  0  0  0  0  0  0
   45.9999   12.6840    9.7130 H   0  0  0  0  0  0  0  0  0  0  0  0
   48.2711    7.4874   14.3492 H   0  0  0  0  0  0  0  0  0  0  0  0
   45.2214    5.5520   12.0183 H   0  0  0  0  0  0  0  0  0  0  0  0
   43.3279   10.6263    6.0699 H   0  0  0  0  0  0  0  0  0  0  0  0
   46.7252   12.9173    7.3623 H   0  0  0  0  0  0  0  0  0  0  0  0
   47.1519    5.4138   13.5702 H   0  0  0  0  0  0  0  0  0  0  0  0
   45.3923   11.8940    5.5368 H   0  0  0  0  0  0  0  0  0  0  0  0
  2  1  1  0
  3  1  2  0
  4  1  1  0
  5  2  1  0
  6  5  1  0
  7  4  2  0
  8  4  1  0
  9  6  2  0
 10  6  1  0
 11  7  1  0
 12  8  2  0
 13  9  1  0
 14 10  2  0
 15 12  1  0
 16 14  1  0
 15 11  2  0
 16 13  2  0
  5 17  1  0
  5 18  1  0
  7 19  1  0
  8 20  1  0
  9 21  1  0
 10 22  1  0
 11 23  1  0
 12 24  1  0
 13 25  1  0
 14 26  1  0
 15 27  1  0
 16 28  1  0
M  END
> <Uni-Dock RESULT> 
ENERGY=   -4.077  LOWER_BOUND=    5.206  UPPER_BOUND=    6.952
INTER + INTRA:          -4.077
INTER:                  -4.077
INTRA:                   0.000
UNBOUND:                 0.000

$$$$

     RDKit          3D

 28 29  0  0  0  0  0  0  0  0999 V2000
   46.7054    5.2780   13.4512 C   0  0  0  0  0  0  0  0  0  0  0  0
   46.6867    6.5641   13.8748 O   0  0  0  0  0  0  0  0  0  0  0  0
   47.6426    4.5007   13.5433 O   0  0  0  0  0  0  0  0  0  0  0  0
   45.3948    4.9104   12.8483 C   0  0  0  0  0  0  0  0  0  0  0  0
   47.9094    7.0525   14.4387 C   0  0  0  0  0  0  0  0  0  0  0  0
   48.6500    7.8543   13.4007 C   0  0  0  0  0  0  0  0  0  0  0  0
   45.2003    3.5811   12.4476 C   0  0  0  0  0  0  0  0  0  0  0  0
   44.3628    5.8413   12.6651 C   0  0  0  0  0  0  0  0  0  0  0  0
   48.3513    9.2087   13.1974 C   0  0  0  0  0  0  0  0  0  0  0  0
   49.6201    7.2434   12.5940 C   0  0  0  0  0  0  0  0  0  0  0  0
   43.9889    3.1872   11.8759 C   0  0  0  0  0  0  0  0  0  0  0  0
   43.1521    5.4432   12.0924 C   0  0  0  0  0  0  0  0  0  0  0  0
   49.0261    9.9426   12.2204 C   0  0  0  0  0  0  0  0  0  0  0  0
   50.2932    7.9787   11.6173 C   0  0  0  0  0  0  0  0  0  0  0  0
   42.9662    4.1180   11.6996 C   0  0  0  0  0  0  0  0  0  0  0  0
   49.9980    9.3282   11.4326 C   0  0  0  0  0  0  0  0  0  0  0  0
   48.5384    6.2548   14.8529 H   0  0  0  0  0  0  0  0  0  0  0  0
   47.6456    7.6963   15.2859 H   0  0  0  0  0  0  0  0  0  0  0  0
   45.9931    2.8469   12.5791 H   0  0  0  0  0  0  0  0  0  0  0  0
   44.4881    6.8805   12.9586 H   0  0  0  0  0  0  0  0  0  0  0  0
   47.5880    9.6980   13.7980 H   0  0  0  0  0  0  0  0  0  0  0  0
   49.8507    6.1867   12.7202 H   0  0  0  0  0  0  0  0  0  0  0  0
   43.8448    2.1545   11.5674 H   0  0  0  0  0  0  0  0  0  0  0  0
   42.3544    6.1684   11.9507 H   0  0  0  0  0  0  0  0  0  0  0  0
   48.7908   10.9930   12.0710 H   0  0  0  0  0  0  0  0  0  0  0  0
   51.0444    7.4959   10.9977 H   0  0  0  0  0  0  0  0  0  0  0  0
   42.0235    3.8109   11.2531 H   0  0  0  0  0  0  0  0  0  0  0  0
   50.5216    9.8993   10.6706 H   0  0  0  0  0  0  0  0  0  0  0  0
  2  1  1  0
  3  1  2  0
  4  1  1  0
  5  2  1  0
  6  5  1  0
  7  4  2  0
  8  4  1  0
  9  6  2  0
 10  6  1  0
 11  7  1  0
 12  8  2  0
 13  9  1  0
 14 10  2  0
 15 12  1  0
 16 14  1  0
 15 11  2  0
 16 13  2  0
  5 17  1  0
  5 18  1  0
  7 19  1  0
  8 20  1  0
  9 21  1  0
 10 22  1  0
 11 23  1  0
 12 24  1  0
 13 25  1  0
 14 26  1  0
 15 27  1  0
 16 28  1  0
M  END
> <Uni-Dock RESULT> 
ENERGY=   -3.986  LOWER_BOUND=    3.778  UPPER_BOUND=    6.356
INTER + INTRA:          -3.986
INTER:                  -3.986
INTRA:                   0.000
UNBOUND:                 0.000

$$$$

     RDKit          3D

 28 29  0  0  0  0  0  0  0  0999 V2000
   46.5127    6.9848   12.5835 C   0  0  0  0  0  0  0  0  0  0  0  0
   47.3752    6.2636   13.3384 O   0  0  0  0  0  0  0  0  0  0  0  0
   46.7243    8.0846   12.0967 O   0  0  0  0  0  0  0  0  0  0  0  0
   45.2345    6.2434   12.4035 C   0  0  0  0  0  0  0  0  0  0  0  0
   48.6320    6.8904   13.6195 C   0  0  0  0  0  0  0  0  0  0  0  0
   48.5913    7.4876   15.0017 C   0  0  0  0  0  0  0  0  0  0  0  0
   44.2608    6.7980   11.5609 C   0  0  0  0  0  0  0  0  0  0  0  0
   44.9734    5.0255   13.0467 C   0  0  0  0  0  0  0  0  0  0  0  0
   48.8756    6.7024   16.1277 C   0  0  0  0  0  0  0  0  0  0  0  0
   48.2263    8.8288   15.1828 C   0  0  0  0  0  0  0  0  0  0  0  0
   43.0450    6.1413   11.3606 C   0  0  0  0  0  0  0  0  0  0  0  0
   43.7555    4.3716   12.8438 C   0  0  0  0  0  0  0  0  0  0  0  0
   48.8169    7.2550   17.4082 C   0  0  0  0  0  0  0  0  0  0  0  0
   48.1676    9.3794   16.4639 C   0  0  0  0  0  0  0  0  0  0  0  0
   42.7940    4.9289   12.0014 C   0  0  0  0  0  0  0  0  0  0  0  0
   48.4653    8.5933   17.5756 C   0  0  0  0  0  0  0  0  0  0  0  0
   48.9151    7.6379   12.8682 H   0  0  0  0  0  0  0  0  0  0  0  0
   49.4035    6.1129   13.5741 H   0  0  0  0  0  0  0  0  0  0  0  0
   44.4462    7.7450   11.0573 H   0  0  0  0  0  0  0  0  0  0  0  0
   45.7062    4.5759   13.7120 H   0  0  0  0  0  0  0  0  0  0  0  0
   49.1412    5.6541   16.0122 H   0  0  0  0  0  0  0  0  0  0  0  0
   47.9793    9.4498   14.3230 H   0  0  0  0  0  0  0  0  0  0  0  0
   42.2943    6.5770   10.7056 H   0  0  0  0  0  0  0  0  0  0  0  0
   43.5562    3.4276   13.3455 H   0  0  0  0  0  0  0  0  0  0  0  0
   49.0415    6.6403   18.2758 H   0  0  0  0  0  0  0  0  0  0  0  0
   47.8846   10.4207   16.5934 H   0  0  0  0  0  0  0  0  0  0  0  0
   41.8464    4.4186   11.8459 H   0  0  0  0  0  0  0  0  0  0  0  0
   48.4175    9.0227   18.5727 H   0  0  0  0  0  0  0  0  0  0  0  0
  2  1  1  0
  3  1  2  0
  4  1  1  0
  5  2  1  0
  6  5  1  0
  7  4  2  0
  8  4  1  0
  9  6  2  0
 10  6  1  0
 11  7  1  0
 12  8  2  0
 13  9  1  0
 14 10  2  0
 15 12  1  0
 16 14  1  0
 15 11  2  0
 16 13  2  0
  5 17  1  0
  5 18  1  0
  7 19  1  0
  8 20  1  0
  9 21  1  0
 10 22  1  0
 11 23  1  0
 12 24  1  0
 13 25  1  0
 14 26  1  0
 15 27  1  0
 16 28  1  0
M  END
> <Uni-Dock RESULT> 
ENERGY=   -3.946  LOWER_BOUND=    4.400  UPPER_BOUND=    7.365
INTER + INTRA:          -3.946
INTER:                  -3.946
INTRA:                   0.000
UNBOUND:                 0.000

$$$$

     RDKit          3D

 28 29  0  0  0  0  0  0  0  0999 V2000
   43.7421   11.0364    8.8948 C   0  0  0  0  0  0  0  0  0  0  0  0
   44.5075   11.3975    9.9519 O   0  0  0  0  0  0  0  0  0  0  0  0
   42.6748   10.4450    8.9443 O   0  0  0  0  0  0  0  0  0  0  0  0
   44.3763   11.4729    7.6207 C   0  0  0  0  0  0  0  0  0  0  0  0
   44.0232   10.9956   11.2385 C   0  0  0  0  0  0  0  0  0  0  0  0
   44.7545    9.7548   11.6793 C   0  0  0  0  0  0  0  0  0  0  0  0
   43.6695   11.2720    6.4268 C   0  0  0  0  0  0  0  0  0  0  0  0
   45.6456   12.0663    7.5762 C   0  0  0  0  0  0  0  0  0  0  0  0
   45.9987    9.8480   12.3181 C   0  0  0  0  0  0  0  0  0  0  0  0
   44.2180    8.4864   11.4176 C   0  0  0  0  0  0  0  0  0  0  0  0
   44.2223   11.6633    5.2058 C   0  0  0  0  0  0  0  0  0  0  0  0
   46.1954   12.4563    6.3524 C   0  0  0  0  0  0  0  0  0  0  0  0
   46.6822    8.6946   12.7067 C   0  0  0  0  0  0  0  0  0  0  0  0
   44.9031    7.3344   11.8064 C   0  0  0  0  0  0  0  0  0  0  0  0
   45.4839   12.2554    5.1699 C   0  0  0  0  0  0  0  0  0  0  0  0
   46.1333    7.4388   12.4529 C   0  0  0  0  0  0  0  0  0  0  0  0
   42.9362   10.8492   11.2601 H   0  0  0  0  0  0  0  0  0  0  0  0
   44.2289   11.8151   11.9369 H   0  0  0  0  0  0  0  0  0  0  0  0
   42.6846   10.8088    6.4437 H   0  0  0  0  0  0  0  0  0  0  0  0
   46.2202   12.2270    8.4849 H   0  0  0  0  0  0  0  0  0  0  0  0
   46.4435   10.8212   12.5131 H   0  0  0  0  0  0  0  0  0  0  0  0
   43.2635    8.3915   10.9020 H   0  0  0  0  0  0  0  0  0  0  0  0
   43.6686   11.5046    4.2836 H   0  0  0  0  0  0  0  0  0  0  0  0
   47.1808   12.9150    6.3218 H   0  0  0  0  0  0  0  0  0  0  0  0
   47.6452    8.7755   13.2040 H   0  0  0  0  0  0  0  0  0  0  0  0
   44.4779    6.3557   11.5997 H   0  0  0  0  0  0  0  0  0  0  0  0
   45.9144   12.5588    4.2186 H   0  0  0  0  0  0  0  0  0  0  0  0
   46.6667    6.5411   12.7535 H   0  0  0  0  0  0  0  0  0  0  0  0
  2  1  1  0
  3  1  2  0
  4  1  1  0
  5  2  1  0
  6  5  1  0
  7  4  2  0
  8  4  1  0
  9  6  2  0
 10  6  1  0
 11  7  1  0
 12  8  2  0
 13  9  1  0
 14 10  2  0
 15 12  1  0
 16 14  1  0
 15 11  2  0
 16 13  2  0
  5 17  1  0
  5 18  1  0
  7 19  1  0
  8 20  1  0
  9 21  1  0
 10 22  1  0
 11 23  1  0
 12 24  1  0
 13 25  1  0
 14 26  1  0
 15 27  1  0
 16 28  1  0
M  END
> <Uni-Dock RESULT> 
ENERGY=   -3.869  LOWER_BOUND=    5.967  UPPER_BOUND=    8.587
INTER + INTRA:          -3.869
INTER:                  -3.869
INTRA:                   0.000
UNBOUND:                 0.000

$$$$

     RDKit          3D

 28 29  0  0  0  0  0  0  0  0999 V2000
   48.1935    9.5479   17.1441 C   0  0  0  0  0  0  0  0  0  0  0  0
   48.6899   10.2720   16.1130 O   0  0  0  0  0  0  0  0  0  0  0  0
   48.1332    8.3299   17.2084 O   0  0  0  0  0  0  0  0  0  0  0  0
   47.7240   10.4481   18.2327 C   0  0  0  0  0  0  0  0  0  0  0  0
   49.1378    9.5181   14.9806 C   0  0  0  0  0  0  0  0  0  0  0  0
   48.0700    9.5352   13.9183 C   0  0  0  0  0  0  0  0  0  0  0  0
   47.2721    9.8651   19.4249 C   0  0  0  0  0  0  0  0  0  0  0  0
   47.7136   11.8440   18.1035 C   0  0  0  0  0  0  0  0  0  0  0  0
   47.9805   10.6014   13.0127 C   0  0  0  0  0  0  0  0  0  0  0  0
   47.1240    8.5031   13.8490 C   0  0  0  0  0  0  0  0  0  0  0  0
   46.8206   10.6670   20.4751 C   0  0  0  0  0  0  0  0  0  0  0  0
   47.2608   12.6430   19.1565 C   0  0  0  0  0  0  0  0  0  0  0  0
   46.9768   10.6229   12.0428 C   0  0  0  0  0  0  0  0  0  0  0  0
   46.1209    8.5266   12.8790 C   0  0  0  0  0  0  0  0  0  0  0  0
   46.8161   12.0545   20.3401 C   0  0  0  0  0  0  0  0  0  0  0  0
   46.0492    9.5848   11.9749 C   0  0  0  0  0  0  0  0  0  0  0  0
   49.4309    8.4927   15.2377 H   0  0  0  0  0  0  0  0  0  0  0  0
   50.0452   10.0030   14.6020 H   0  0  0  0  0  0  0  0  0  0  0  0
   47.2698    8.7827   19.5398 H   0  0  0  0  0  0  0  0  0  0  0  0
   48.0503   12.3235   17.1878 H   0  0  0  0  0  0  0  0  0  0  0  0
   48.6914   11.4230   13.0610 H   0  0  0  0  0  0  0  0  0  0  0  0
   47.1620    7.6772   14.5577 H   0  0  0  0  0  0  0  0  0  0  0  0
   46.4716   10.2082   21.3970 H   0  0  0  0  0  0  0  0  0  0  0  0
   47.2530   13.7253   19.0520 H   0  0  0  0  0  0  0  0  0  0  0  0
   46.9159   11.4518   11.3425 H   0  0  0  0  0  0  0  0  0  0  0  0
   45.3929    7.7209   12.8331 H   0  0  0  0  0  0  0  0  0  0  0  0
   46.4632   12.6784   21.1577 H   0  0  0  0  0  0  0  0  0  0  0  0
   45.2666    9.6030   11.2212 H   0  0  0  0  0  0  0  0  0  0  0  0
  2  1  1  0
  3  1  2  0
  4  1  1  0
  5  2  1  0
  6  5  1  0
  7  4  2  0
  8  4  1  0
  9  6  2  0
 10  6  1  0
 11  7  1  0
 12  8  2  0
 13  9  1  0
 14 10  2  0
 15 12  1  0
 16 14  1  0
 15 11  2  0
 16 13  2  0
  5 17  1  0
  5 18  1  0
  7 19  1  0
  8 20  1  0
  9 21  1  0
 10 22  1  0
 11 23  1  0
 12 24  1  0
 13 25  1  0
 14 26  1  0
 15 27  1  0
 16 28  1  0
M  END
> <Uni-Dock RESULT> 
ENERGY=   -3.699  LOWER_BOUND=    6.567  UPPER_BOUND=    9.024
INTER + INTRA:          -3.699
INTER:                  -3.699
INTRA:                   0.000
UNBOUND:                 0.000

$$$$
