
     RDKit          3D

 28 29  0  0  0  0  0  0  0  0999 V2000
   45.2021    3.9517   11.1804 C   0  0  0  0  0  0  0  0  0  0  0  0
   45.2020    4.5546    9.9677 O   0  0  0  0  0  0  0  0  0  0  0  0
   44.6553    2.8971   11.4628 O   0  0  0  0  0  0  0  0  0  0  0  0
   45.9673    4.7651   12.1647 C   0  0  0  0  0  0  0  0  0  0  0  0
   44.5303    3.8462    8.9196 C   0  0  0  0  0  0  0  0  0  0  0  0
   45.5477    3.1176    8.0810 C   0  0  0  0  0  0  0  0  0  0  0  0
   46.6673    5.9242   11.8016 C   0  0  0  0  0  0  0  0  0  0  0  0
   45.9854    4.3418   13.5011 C   0  0  0  0  0  0  0  0  0  0  0  0
   45.8718    1.7832    8.3622 C   0  0  0  0  0  0  0  0  0  0  0  0
   46.2144    3.7737    7.0369 C   0  0  0  0  0  0  0  0  0  0  0  0
   47.3712    6.6500   12.7659 C   0  0  0  0  0  0  0  0  0  0  0  0
   46.6898    5.0701   14.4619 C   0  0  0  0  0  0  0  0  0  0  0  0
   46.8290    1.1119    7.6002 C   0  0  0  0  0  0  0  0  0  0  0  0
   47.1711    3.1004    6.2754 C   0  0  0  0  0  0  0  0  0  0  0  0
   47.3811    6.2233   14.0935 C   0  0  0  0  0  0  0  0  0  0  0  0
   47.4762    1.7696    6.5557 C   0  0  0  0  0  0  0  0  0  0  0  0
   44.0065    4.5882    8.3056 H   0  0  0  0  0  0  0  0  0  0  0  0
   43.7556    3.1646    9.2917 H   0  0  0  0  0  0  0  0  0  0  0  0
   46.6779    6.2718   10.7716 H   0  0  0  0  0  0  0  0  0  0  0  0
   45.4505    3.4418   13.7987 H   0  0  0  0  0  0  0  0  0  0  0  0
   45.3821    1.2623    9.1835 H   0  0  0  0  0  0  0  0  0  0  0  0
   45.9935    4.8151    6.8140 H   0  0  0  0  0  0  0  0  0  0  0  0
   47.9139    7.5478   12.4801 H   0  0  0  0  0  0  0  0  0  0  0  0
   46.6995    4.7361   15.4966 H   0  0  0  0  0  0  0  0  0  0  0  0
   47.0722    0.0769    7.8257 H   0  0  0  0  0  0  0  0  0  0  0  0
   47.6815    3.6153    5.4659 H   0  0  0  0  0  0  0  0  0  0  0  0
   47.9305    6.7894   14.8420 H   0  0  0  0  0  0  0  0  0  0  0  0
   48.2227    1.2464    5.9642 H   0  0  0  0  0  0  0  0  0  0  0  0
  2  1  1  0
  3  1  2  0
  4  1  1  0
  5  2  1  0
  6  5  1  0
  7  4  2  0
  8  4  1  0
  9  6  2  0
 10  6  1  0
 11  7  1  0
 12  8  2  0
 13  9  1  0
 14 10  2  0
 15 12  1  0
 16 14  1  0
 15 11  2  0
 16 13  2  0
  5 17  1  0
  5 18  1  0
  7 19  1  0
  8 20  1  0
  9 21  1  0
 10 22  1  0
 11 23  1  0
 12 24  1  0
 13 25  1  0
 14 26  1  0
 15 27  1  0
 16 28  1  0
M  END
> <Uni-Dock RESULT> 
ENERGY=   -5.877  LOWER_BOUND=    0.000  UPPER_BOUND=    0.000
INTER + INTRA:          -5.877
INTER:                  -5.877
INTRA:                   0.000
UNBOUND:                 0.000

$$$$

     RDKit          3D

 28 29  0  0  0  0  0  0  0  0999 V2000
   49.3049    5.1181   19.7887 C   0  0  0  0  0  0  0  0  0  0  0  0
   50.6242    5.2517   19.5134 O   0  0  0  0  0  0  0  0  0  0  0  0
   48.4175    4.8934   18.9806 O   0  0  0  0  0  0  0  0  0  0  0  0
   49.0578    5.2958   21.2459 C   0  0  0  0  0  0  0  0  0  0  0  0
   50.9975    5.0604   18.1439 C   0  0  0  0  0  0  0  0  0  0  0  0
   51.5396    3.6661   17.9668 C   0  0  0  0  0  0  0  0  0  0  0  0
   50.0979    5.4592   22.1716 C   0  0  0  0  0  0  0  0  0  0  0  0
   47.7305    5.2918   21.6973 C   0  0  0  0  0  0  0  0  0  0  0  0
   50.6932    2.6233   17.5659 C   0  0  0  0  0  0  0  0  0  0  0  0
   52.8850    3.3828   18.2405 C   0  0  0  0  0  0  0  0  0  0  0  0
   49.8101    5.6206   23.5293 C   0  0  0  0  0  0  0  0  0  0  0  0
   47.4471    5.4537   23.0550 C   0  0  0  0  0  0  0  0  0  0  0  0
   51.1879    1.3264   17.4210 C   0  0  0  0  0  0  0  0  0  0  0  0
   53.3781    2.0852   18.0945 C   0  0  0  0  0  0  0  0  0  0  0  0
   48.4868    5.6184   23.9691 C   0  0  0  0  0  0  0  0  0  0  0  0
   52.5303    1.0583   17.6827 C   0  0  0  0  0  0  0  0  0  0  0  0
   51.7781    5.7941   17.9112 H   0  0  0  0  0  0  0  0  0  0  0  0
   50.1774    5.2632   17.4442 H   0  0  0  0  0  0  0  0  0  0  0  0
   51.1369    5.4582   21.8517 H   0  0  0  0  0  0  0  0  0  0  0  0
   46.9117    5.1619   20.9921 H   0  0  0  0  0  0  0  0  0  0  0  0
   49.6397    2.8176   17.3704 H   0  0  0  0  0  0  0  0  0  0  0  0
   53.5551    4.1726   18.5726 H   0  0  0  0  0  0  0  0  0  0  0  0
   50.6197    5.7458   24.2444 H   0  0  0  0  0  0  0  0  0  0  0  0
   46.4154    5.4496   23.3982 H   0  0  0  0  0  0  0  0  0  0  0  0
   50.5236    0.5250   17.1084 H   0  0  0  0  0  0  0  0  0  0  0  0
   54.4230    1.8743   18.3060 H   0  0  0  0  0  0  0  0  0  0  0  0
   48.2654    5.7432   25.0264 H   0  0  0  0  0  0  0  0  0  0  0  0
   52.9141    0.0477   17.5713 H   0  0  0  0  0  0  0  0  0  0  0  0
  2  1  1  0
  3  1  2  0
  4  1  1  0
  5  2  1  0
  6  5  1  0
  7  4  2  0
  8  4  1  0
  9  6  2  0
 10  6  1  0
 11  7  1  0
 12  8  2  0
 13  9  1  0
 14 10  2  0
 15 12  1  0
 16 14  1  0
 15 11  2  0
 16 13  2  0
  5 17  1  0
  5 18  1  0
  7 19  1  0
  8 20  1  0
  9 21  1  0
 10 22  1  0
 11 23  1  0
 12 24  1  0
 13 25  1  0
 14 26  1  0
 15 27  1  0
 16 28  1  0
M  END
> <Uni-Dock RESULT> 
ENERGY=   -4.320  LOWER_BOUND=    9.230  UPPER_BOUND=   10.762
INTER + INTRA:          -4.320
INTER:                  -4.320
INTRA:                   0.000
UNBOUND:                 0.000

$$$$

     RDKit          3D

 28 29  0  0  0  0  0  0  0  0999 V2000
   44.2780   10.0997   11.4700 C   0  0  0  0  0  0  0  0  0  0  0  0
   43.2134    9.7742   10.6988 O   0  0  0  0  0  0  0  0  0  0  0  0
   44.6610   11.2288   11.7333 O   0  0  0  0  0  0  0  0  0  0  0  0
   44.9550    8.8703   11.9663 C   0  0  0  0  0  0  0  0  0  0  0  0
   42.4504   10.8758   10.1928 C   0  0  0  0  0  0  0  0  0  0  0  0
   41.2273   11.0688   11.0507 C   0  0  0  0  0  0  0  0  0  0  0  0
   44.4474    7.5845   11.7326 C   0  0  0  0  0  0  0  0  0  0  0  0
   46.1412    9.0180   12.6988 C   0  0  0  0  0  0  0  0  0  0  0  0
   41.2505   11.9705   12.1236 C   0  0  0  0  0  0  0  0  0  0  0  0
   40.0651   10.3209   10.8161 C   0  0  0  0  0  0  0  0  0  0  0  0
   45.1224    6.4637   12.2228 C   0  0  0  0  0  0  0  0  0  0  0  0
   46.8129    7.8953   13.1868 C   0  0  0  0  0  0  0  0  0  0  0  0
   40.1257   12.1364   12.9329 C   0  0  0  0  0  0  0  0  0  0  0  0
   38.9409   10.4886   11.6263 C   0  0  0  0  0  0  0  0  0  0  0  0
   46.3034    6.6199   12.9478 C   0  0  0  0  0  0  0  0  0  0  0  0
   38.9708   11.3976   12.6825 C   0  0  0  0  0  0  0  0  0  0  0  0
   42.1494   10.6235    9.1693 H   0  0  0  0  0  0  0  0  0  0  0  0
   43.0346   11.8008   10.1140 H   0  0  0  0  0  0  0  0  0  0  0  0
   43.5255    7.4399   11.1750 H   0  0  0  0  0  0  0  0  0  0  0  0
   46.5464   10.0095   12.8926 H   0  0  0  0  0  0  0  0  0  0  0  0
   42.1510   12.5445   12.3370 H   0  0  0  0  0  0  0  0  0  0  0  0
   40.0316    9.6007   10.0017 H   0  0  0  0  0  0  0  0  0  0  0  0
   44.7248    5.4682   12.0405 H   0  0  0  0  0  0  0  0  0  0  0  0
   47.7325    8.0172   13.7541 H   0  0  0  0  0  0  0  0  0  0  0  0
   40.1536   12.8390   13.7616 H   0  0  0  0  0  0  0  0  0  0  0  0
   38.0428    9.9070   11.4360 H   0  0  0  0  0  0  0  0  0  0  0  0
   46.8264    5.7461   13.3291 H   0  0  0  0  0  0  0  0  0  0  0  0
   38.0961   11.5261   13.3145 H   0  0  0  0  0  0  0  0  0  0  0  0
  2  1  1  0
  3  1  2  0
  4  1  1  0
  5  2  1  0
  6  5  1  0
  7  4  2  0
  8  4  1  0
  9  6  2  0
 10  6  1  0
 11  7  1  0
 12  8  2  0
 13  9  1  0
 14 10  2  0
 15 12  1  0
 16 14  1  0
 15 11  2  0
 16 13  2  0
  5 17  1  0
  5 18  1  0
  7 19  1  0
  8 20  1  0
  9 21  1  0
 10 22  1  0
 11 23  1  0
 12 24  1  0
 13 25  1  0
 14 26  1  0
 15 27  1  0
 16 28  1  0
M  END
> <Uni-Dock RESULT> 
ENERGY=   -4.231  LOWER_BOUND=    6.223  UPPER_BOUND=    8.421
INTER + INTRA:          -4.231
INTER:                  -4.231
INTRA:                   0.000
UNBOUND:                 0.000

$$$$

     RDKit          3D

 28 29  0  0  0  0  0  0  0  0999 V2000
   44.0711    9.1232   11.3026 C   0  0  0  0  0  0  0  0  0  0  0  0
   44.5468   10.3909   11.2727 O   0  0  0  0  0  0  0  0  0  0  0  0
   42.9923    8.7462   10.8725 O   0  0  0  0  0  0  0  0  0  0  0  0
   45.0529    8.2152   11.9565 C   0  0  0  0  0  0  0  0  0  0  0  0
   43.7078   11.3563   10.6281 C   0  0  0  0  0  0  0  0  0  0  0  0
   44.2073   11.5916    9.2265 C   0  0  0  0  0  0  0  0  0  0  0  0
   46.3249    8.6460   12.3592 C   0  0  0  0  0  0  0  0  0  0  0  0
   44.6815    6.8798   12.1664 C   0  0  0  0  0  0  0  0  0  0  0  0
   43.6760   10.8620    8.1541 C   0  0  0  0  0  0  0  0  0  0  0  0
   45.2372   12.5101    8.9801 C   0  0  0  0  0  0  0  0  0  0  0  0
   47.2089    7.7512   12.9674 C   0  0  0  0  0  0  0  0  0  0  0  0
   45.5678    5.9888   12.7748 C   0  0  0  0  0  0  0  0  0  0  0  0
   44.1510   11.0627    6.8573 C   0  0  0  0  0  0  0  0  0  0  0  0
   45.7107   12.7100    7.6823 C   0  0  0  0  0  0  0  0  0  0  0  0
   46.8298    6.4254   13.1751 C   0  0  0  0  0  0  0  0  0  0  0  0
   45.1660   11.9883    6.6215 C   0  0  0  0  0  0  0  0  0  0  0  0
   43.7733   12.2856   11.2059 H   0  0  0  0  0  0  0  0  0  0  0  0
   42.6479   11.0740   10.6336 H   0  0  0  0  0  0  0  0  0  0  0  0
   46.6433    9.6735   12.2018 H   0  0  0  0  0  0  0  0  0  0  0  0
   43.6992    6.5284   11.8559 H   0  0  0  0  0  0  0  0  0  0  0  0
   42.8913   10.1270    8.3272 H   0  0  0  0  0  0  0  0  0  0  0  0
   45.6782   13.0724    9.8000 H   0  0  0  0  0  0  0  0  0  0  0  0
   48.1950    8.0889   13.2772 H   0  0  0  0  0  0  0  0  0  0  0  0
   45.2731    4.9544   12.9346 H   0  0  0  0  0  0  0  0  0  0  0  0
   43.7315   10.4928    6.0325 H   0  0  0  0  0  0  0  0  0  0  0  0
   46.5075   13.4260    7.4991 H   0  0  0  0  0  0  0  0  0  0  0  0
   47.5201    5.7306   13.6477 H   0  0  0  0  0  0  0  0  0  0  0  0
   45.5365   12.1425    5.6115 H   0  0  0  0  0  0  0  0  0  0  0  0
  2  1  1  0
  3  1  2  0
  4  1  1  0
  5  2  1  0
  6  5  1  0
  7  4  2  0
  8  4  1  0
  9  6  2  0
 10  6  1  0
 11  7  1  0
 12  8  2  0
 13  9  1  0
 14 10  2  0
 15 12  1  0
 16 14  1  0
 15 11  2  0
 16 13  2  0
  5 17  1  0
  5 18  1  0
  7 19  1  0
  8 20  1  0
  9 21  1  0
 10 22  1  0
 11 23  1  0
 12 24  1  0
 13 25  1  0
 14 26  1  0
 15 27  1  0
 16 28  1  0
M  END
> <Uni-Dock RESULT> 
ENERGY=   -3.984  LOWER_BOUND=    5.415  UPPER_BOUND=    6.873
INTER + INTRA:          -3.984
INTER:                  -3.984
INTRA:                   0.000
UNBOUND:                 0.000

$$$$

     RDKit          3D

 28 29  0  0  0  0  0  0  0  0999 V2000
   41.3234   10.9646   11.2128 C   0  0  0  0  0  0  0  0  0  0  0  0
   42.5841   11.3560   11.5154 O   0  0  0  0  0  0  0  0  0  0  0  0
   40.9900   10.2736   10.2629 O   0  0  0  0  0  0  0  0  0  0  0  0
   40.3581   11.5074   12.2076 C   0  0  0  0  0  0  0  0  0  0  0  0
   43.6143   10.8615   10.6519 C   0  0  0  0  0  0  0  0  0  0  0  0
   44.2833    9.6793   11.3031 C   0  0  0  0  0  0  0  0  0  0  0  0
   40.7679   12.2194   13.3436 C   0  0  0  0  0  0  0  0  0  0  0  0
   38.9906   11.2862   11.9916 C   0  0  0  0  0  0  0  0  0  0  0  0
   43.8456    8.3769   11.0256 C   0  0  0  0  0  0  0  0  0  0  0  0
   45.3222    9.8653   12.2258 C   0  0  0  0  0  0  0  0  0  0  0  0
   39.8195   12.7059   14.2469 C   0  0  0  0  0  0  0  0  0  0  0  0
   38.0460   11.7743   12.8966 C   0  0  0  0  0  0  0  0  0  0  0  0
   44.4496    7.2808   11.6431 C   0  0  0  0  0  0  0  0  0  0  0  0
   45.9255    8.7677   12.8420 C   0  0  0  0  0  0  0  0  0  0  0  0
   38.4612   12.4838   14.0225 C   0  0  0  0  0  0  0  0  0  0  0  0
   45.4908    7.4763   12.5487 C   0  0  0  0  0  0  0  0  0  0  0  0
   44.3421   11.6696   10.5136 H   0  0  0  0  0  0  0  0  0  0  0  0
   43.2487   10.6123    9.6483 H   0  0  0  0  0  0  0  0  0  0  0  0
   41.8217   12.3990   13.5413 H   0  0  0  0  0  0  0  0  0  0  0  0
   38.6561   10.7317   11.1167 H   0  0  0  0  0  0  0  0  0  0  0  0
   43.0248    8.2119   10.3293 H   0  0  0  0  0  0  0  0  0  0  0  0
   45.6642   10.8681   12.4716 H   0  0  0  0  0  0  0  0  0  0  0  0
   40.1414   13.2566   15.1275 H   0  0  0  0  0  0  0  0  0  0  0  0
   36.9870   11.5991   12.7229 H   0  0  0  0  0  0  0  0  0  0  0  0
   44.1036    6.2750   11.4201 H   0  0  0  0  0  0  0  0  0  0  0  0
   46.7322    8.9202   13.5541 H   0  0  0  0  0  0  0  0  0  0  0  0
   37.7250   12.8626   14.7276 H   0  0  0  0  0  0  0  0  0  0  0  0
   45.9592    6.6221   13.0304 H   0  0  0  0  0  0  0  0  0  0  0  0
  2  1  1  0
  3  1  2  0
  4  1  1  0
  5  2  1  0
  6  5  1  0
  7  4  2  0
  8  4  1  0
  9  6  2  0
 10  6  1  0
 11  7  1  0
 12  8  2  0
 13  9  1  0
 14 10  2  0
 15 12  1  0
 16 14  1  0
 15 11  2  0
 16 13  2  0
  5 17  1  0
  5 18  1  0
  7 19  1  0
  8 20  1  0
  9 21  1  0
 10 22  1  0
 11 23  1  0
 12 24  1  0
 13 25  1  0
 14 26  1  0
 15 27  1  0
 16 28  1  0
M  END
> <Uni-Dock RESULT> 
ENERGY=   -3.959  LOWER_BOUND=    7.145  UPPER_BOUND=    8.717
INTER + INTRA:          -3.959
INTER:                  -3.959
INTRA:                   0.000
UNBOUND:                 0.000

$$$$

     RDKit          3D

 28 29  0  0  0  0  0  0  0  0999 V2000
   46.9076    5.3236   13.3133 C   0  0  0  0  0  0  0  0  0  0  0  0
   47.2982    6.6168   13.2172 O   0  0  0  0  0  0  0  0  0  0  0  0
   47.5854    4.3925   13.7190 O   0  0  0  0  0  0  0  0  0  0  0  0
   45.5058    5.1676   12.8372 C   0  0  0  0  0  0  0  0  0  0  0  0
   48.6206    6.9048   13.6861 C   0  0  0  0  0  0  0  0  0  0  0  0
   48.5407    7.4790   15.0764 C   0  0  0  0  0  0  0  0  0  0  0  0
   44.7112    6.2607   12.4639 C   0  0  0  0  0  0  0  0  0  0  0  0
   44.9699    3.8739   12.7696 C   0  0  0  0  0  0  0  0  0  0  0  0
   48.6535    6.6423   16.1953 C   0  0  0  0  0  0  0  0  0  0  0  0
   48.3105    8.8480   15.2717 C   0  0  0  0  0  0  0  0  0  0  0  0
   43.4003    6.0581   12.0253 C   0  0  0  0  0  0  0  0  0  0  0  0
   43.6594    3.6756   12.3305 C   0  0  0  0  0  0  0  0  0  0  0  0
   48.5592    7.1681   17.4845 C   0  0  0  0  0  0  0  0  0  0  0  0
   48.2171    9.3722   16.5620 C   0  0  0  0  0  0  0  0  0  0  0  0
   42.8765    4.7674   11.9584 C   0  0  0  0  0  0  0  0  0  0  0  0
   48.3438    8.5329   17.6675 C   0  0  0  0  0  0  0  0  0  0  0  0
   49.0565    7.6442   13.0040 H   0  0  0  0  0  0  0  0  0  0  0  0
   49.2868    6.0342   13.6498 H   0  0  0  0  0  0  0  0  0  0  0  0
   45.0972    7.2758   12.5137 H   0  0  0  0  0  0  0  0  0  0  0  0
   45.5722    3.0149   13.0597 H   0  0  0  0  0  0  0  0  0  0  0  0
   48.8095    5.5724   16.0653 H   0  0  0  0  0  0  0  0  0  0  0  0
   48.1995    9.5126   14.4179 H   0  0  0  0  0  0  0  0  0  0  0  0
   42.7868    6.9087   11.7379 H   0  0  0  0  0  0  0  0  0  0  0  0
   43.2501    2.6695   12.2806 H   0  0  0  0  0  0  0  0  0  0  0  0
   48.6493    6.5109   18.3454 H   0  0  0  0  0  0  0  0  0  0  0  0
   48.0414   10.4351   16.7049 H   0  0  0  0  0  0  0  0  0  0  0  0
   41.8555    4.6125   11.6176 H   0  0  0  0  0  0  0  0  0  0  0  0
   48.2686    8.9410   18.6718 H   0  0  0  0  0  0  0  0  0  0  0  0
  2  1  1  0
  3  1  2  0
  4  1  1  0
  5  2  1  0
  6  5  1  0
  7  4  2  0
  8  4  1  0
  9  6  2  0
 10  6  1  0
 11  7  1  0
 12  8  2  0
 13  9  1  0
 14 10  2  0
 15 12  1  0
 16 14  1  0
 15 11  2  0
 16 13  2  0
  5 17  1  0
  5 18  1  0
  7 19  1  0
  8 20  1  0
  9 21  1  0
 10 22  1  0
 11 23  1  0
 12 24  1  0
 13 25  1  0
 14 26  1  0
 15 27  1  0
 16 28  1  0
M  END
> <Uni-Dock RESULT> 
ENERGY=   -3.874  LOWER_BOUND=    4.151  UPPER_BOUND=    7.419
INTER + INTRA:          -3.874
INTER:                  -3.874
INTRA:                   0.000
UNBOUND:                 0.000

$$$$

     RDKit          3D

 28 29  0  0  0  0  0  0  0  0999 V2000
   48.5181    6.3610   15.3111 C   0  0  0  0  0  0  0  0  0  0  0  0
   48.2436    5.8139   14.1031 O   0  0  0  0  0  0  0  0  0  0  0  0
   48.9473    7.4860   15.5139 O   0  0  0  0  0  0  0  0  0  0  0  0
   48.2335    5.3862   16.3996 C   0  0  0  0  0  0  0  0  0  0  0  0
   48.4380    6.6710   12.9721 C   0  0  0  0  0  0  0  0  0  0  0  0
   47.1089    7.2338   12.5410 C   0  0  0  0  0  0  0  0  0  0  0  0
   47.6526    4.1337   16.1559 C   0  0  0  0  0  0  0  0  0  0  0  0
   48.5579    5.7489   17.7144 C   0  0  0  0  0  0  0  0  0  0  0  0
   46.6757    8.4758   13.0251 C   0  0  0  0  0  0  0  0  0  0  0  0
   46.2693    6.5071   11.6854 C   0  0  0  0  0  0  0  0  0  0  0  0
   47.4052    3.2567   17.2151 C   0  0  0  0  0  0  0  0  0  0  0  0
   48.3093    4.8695   18.7701 C   0  0  0  0  0  0  0  0  0  0  0  0
   45.4358    8.9905   12.6439 C   0  0  0  0  0  0  0  0  0  0  0  0
   45.0297    7.0238   11.3047 C   0  0  0  0  0  0  0  0  0  0  0  0
   47.7340    3.6247   18.5194 C   0  0  0  0  0  0  0  0  0  0  0  0
   44.6146    8.2658   11.7820 C   0  0  0  0  0  0  0  0  0  0  0  0
   48.8608    6.0597   12.1662 H   0  0  0  0  0  0  0  0  0  0  0  0
   49.1687    7.4674   13.1591 H   0  0  0  0  0  0  0  0  0  0  0  0
   47.3830    3.8287   15.1479 H   0  0  0  0  0  0  0  0  0  0  0  0
   49.0056    6.7193   17.9210 H   0  0  0  0  0  0  0  0  0  0  0  0
   47.3028    9.0459   13.7089 H   0  0  0  0  0  0  0  0  0  0  0  0
   46.5763    5.5321   11.3137 H   0  0  0  0  0  0  0  0  0  0  0  0
   46.9534    2.2867   17.0221 H   0  0  0  0  0  0  0  0  0  0  0  0
   48.5635    5.1573   19.7874 H   0  0  0  0  0  0  0  0  0  0  0  0
   45.1096    9.9550   13.0240 H   0  0  0  0  0  0  0  0  0  0  0  0
   44.3857    6.4555   10.6388 H   0  0  0  0  0  0  0  0  0  0  0  0
   47.5396    2.9408   19.3422 H   0  0  0  0  0  0  0  0  0  0  0  0
   43.6484    8.6667   11.4872 H   0  0  0  0  0  0  0  0  0  0  0  0
  2  1  1  0
  3  1  2  0
  4  1  1  0
  5  2  1  0
  6  5  1  0
  7  4  2  0
  8  4  1  0
  9  6  2  0
 10  6  1  0
 11  7  1  0
 12  8  2  0
 13  9  1  0
 14 10  2  0
 15 12  1  0
 16 14  1  0
 15 11  2  0
 16 13  2  0
  5 17  1  0
  5 18  1  0
  7 19  1  0
  8 20  1  0
  9 21  1  0
 10 22  1  0
 11 23  1  0
 12 24  1  0
 13 25  1  0
 14 26  1  0
 15 27  1  0
 16 28  1  0
M  END
> <Uni-Dock RESULT> 
ENERGY=   -3.857  LOWER_BOUND=    4.510  UPPER_BOUND=    6.409
INTER + INTRA:          -3.857
INTER:                  -3.857
INTRA:                   0.000
UNBOUND:                 0.000

$$$$

     RDKit          3D

 28 29  0  0  0  0  0  0  0  0999 V2000
   48.4295    8.9298   15.9248 C   0  0  0  0  0  0  0  0  0  0  0  0
   48.6186    7.5918   15.8353 O   0  0  0  0  0  0  0  0  0  0  0  0
   48.5381    9.7372   15.0152 O   0  0  0  0  0  0  0  0  0  0  0  0
   48.0714    9.3117   17.3184 C   0  0  0  0  0  0  0  0  0  0  0  0
   48.9286    7.0922   14.5292 C   0  0  0  0  0  0  0  0  0  0  0  0
   47.6803    6.5259   13.9046 C   0  0  0  0  0  0  0  0  0  0  0  0
   47.8588    8.3627   18.3282 C   0  0  0  0  0  0  0  0  0  0  0  0
   47.9391   10.6749   17.6177 C   0  0  0  0  0  0  0  0  0  0  0  0
   46.8779    7.3240   13.0776 C   0  0  0  0  0  0  0  0  0  0  0  0
   47.2808    5.2095   14.1742 C   0  0  0  0  0  0  0  0  0  0  0  0
   47.5228    8.7758   19.6200 C   0  0  0  0  0  0  0  0  0  0  0  0
   47.6035   11.0836   18.9100 C   0  0  0  0  0  0  0  0  0  0  0  0
   45.7098    6.8086   12.5141 C   0  0  0  0  0  0  0  0  0  0  0  0
   46.1124    4.6955   13.6093 C   0  0  0  0  0  0  0  0  0  0  0  0
   47.3964   10.1341   19.9095 C   0  0  0  0  0  0  0  0  0  0  0  0
   45.3290    5.4941   12.7779 C   0  0  0  0  0  0  0  0  0  0  0  0
   49.6754    6.2989   14.6503 H   0  0  0  0  0  0  0  0  0  0  0  0
   49.3941    7.8457   13.8820 H   0  0  0  0  0  0  0  0  0  0  0  0
   47.9463    7.2987   18.1234 H   0  0  0  0  0  0  0  0  0  0  0  0
   48.0968   11.4242   16.8441 H   0  0  0  0  0  0  0  0  0  0  0  0
   47.1583    8.3564   12.8739 H   0  0  0  0  0  0  0  0  0  0  0  0
   47.8772    4.5787   14.8294 H   0  0  0  0  0  0  0  0  0  0  0  0
   47.3575    8.0366   20.4001 H   0  0  0  0  0  0  0  0  0  0  0  0
   47.5026   12.1426   19.1352 H   0  0  0  0  0  0  0  0  0  0  0  0
   45.0953    7.4353   11.8732 H   0  0  0  0  0  0  0  0  0  0  0  0
   45.8110    3.6730   13.8210 H   0  0  0  0  0  0  0  0  0  0  0  0
   47.1339   10.4530   20.9154 H   0  0  0  0  0  0  0  0  0  0  0  0
   44.4182    5.0943   12.3401 H   0  0  0  0  0  0  0  0  0  0  0  0
  2  1  1  0
  3  1  2  0
  4  1  1  0
  5  2  1  0
  6  5  1  0
  7  4  2  0
  8  4  1  0
  9  6  2  0
 10  6  1  0
 11  7  1  0
 12  8  2  0
 13  9  1  0
 14 10  2  0
 15 12  1  0
 16 14  1  0
 15 11  2  0
 16 13  2  0
  5 17  1  0
  5 18  1  0
  7 19  1  0
  8 20  1  0
  9 21  1  0
 10 22  1  0
 11 23  1  0
 12 24  1  0
 13 25  1  0
 14 26  1  0
 15 27  1  0
 16 28  1  0
M  END
> <Uni-Dock RESULT> 
ENERGY=   -3.843  LOWER_BOUND=    4.971  UPPER_BOUND=    7.498
INTER + INTRA:          -3.843
INTER:                  -3.843
INTRA:                   0.000
UNBOUND:                 0.000

$$$$

     RDKit          3D

 28 29  0  0  0  0  0  0  0  0999 V2000
   50.7627    8.7546   11.4840 C   0  0  0  0  0  0  0  0  0  0  0  0
   51.7289    7.8349   11.7175 O   0  0  0  0  0  0  0  0  0  0  0  0
   50.9012    9.8133   10.8914 O   0  0  0  0  0  0  0  0  0  0  0  0
   49.4682    8.3077   12.0675 C   0  0  0  0  0  0  0  0  0  0  0  0
   53.0176    8.1312   11.1669 C   0  0  0  0  0  0  0  0  0  0  0  0
   53.1969    7.3653    9.8822 C   0  0  0  0  0  0  0  0  0  0  0  0
   49.3047    7.0484   12.6615 C   0  0  0  0  0  0  0  0  0  0  0  0
   48.3775    9.1866   12.0093 C   0  0  0  0  0  0  0  0  0  0  0  0
   52.8718    7.9573    8.6540 C   0  0  0  0  0  0  0  0  0  0  0  0
   53.6499    6.0388    9.8988 C   0  0  0  0  0  0  0  0  0  0  0  0
   48.0667    6.6784   13.1928 C   0  0  0  0  0  0  0  0  0  0  0  0
   47.1419    8.8132   12.5417 C   0  0  0  0  0  0  0  0  0  0  0  0
   53.0172    7.2433    7.4638 C   0  0  0  0  0  0  0  0  0  0  0  0
   53.7953    5.3264    8.7073 C   0  0  0  0  0  0  0  0  0  0  0  0
   46.9880    7.5603   13.1332 C   0  0  0  0  0  0  0  0  0  0  0  0
   53.4814    5.9294    7.4905 C   0  0  0  0  0  0  0  0  0  0  0  0
   53.7684    7.8098   11.8981 H   0  0  0  0  0  0  0  0  0  0  0  0
   53.1834    9.2054   11.0194 H   0  0  0  0  0  0  0  0  0  0  0  0
   50.1303    6.3431   12.7136 H   0  0  0  0  0  0  0  0  0  0  0  0
   48.4866   10.1664   11.5478 H   0  0  0  0  0  0  0  0  0  0  0  0
   52.4964    8.9790    8.6210 H   0  0  0  0  0  0  0  0  0  0  0  0
   53.8887    5.5527   10.8420 H   0  0  0  0  0  0  0  0  0  0  0  0
   47.9436    5.7002   13.6516 H   0  0  0  0  0  0  0  0  0  0  0  0
   46.3002    9.4999   12.4931 H   0  0  0  0  0  0  0  0  0  0  0  0
   52.7635    7.7119    6.5166 H   0  0  0  0  0  0  0  0  0  0  0  0
   54.1498    4.2993    8.7284 H   0  0  0  0  0  0  0  0  0  0  0  0
   46.0251    7.2696   13.5466 H   0  0  0  0  0  0  0  0  0  0  0  0
   53.5925    5.3737    6.5632 H   0  0  0  0  0  0  0  0  0  0  0  0
  2  1  1  0
  3  1  2  0
  4  1  1  0
  5  2  1  0
  6  5  1  0
  7  4  2  0
  8  4  1  0
  9  6  2  0
 10  6  1  0
 11  7  1  0
 12  8  2  0
 13  9  1  0
 14 10  2  0
 15 12  1  0
 16 14  1  0
 15 11  2  0
 16 13  2  0
  5 17  1  0
  5 18  1  0
  7 19  1  0
  8 20  1  0
  9 21  1  0
 10 22  1  0
 11 23  1  0
 12 24  1  0
 13 25  1  0
 14 26  1  0
 15 27  1  0
 16 28  1  0
M  END
> <Uni-Dock RESULT> 
ENERGY=   -3.661  LOWER_BOUND=    5.779  UPPER_BOUND=    7.072
INTER + INTRA:          -3.661
INTER:                  -3.661
INTRA:                   0.000
UNBOUND:                 0.000

$$$$
