
     RDKit          3D

 28 29  0  0  0  0  0  0  0  0999 V2000
   45.4015    4.0929    8.7100 C   0  0  0  0  0  0  0  0  0  0  0  0
   44.9689    3.4352    9.8119 O   0  0  0  0  0  0  0  0  0  0  0  0
   45.2293    5.2758    8.4607 O   0  0  0  0  0  0  0  0  0  0  0  0
   46.1288    3.1637    7.8023 C   0  0  0  0  0  0  0  0  0  0  0  0
   44.2875    4.2332   10.7867 C   0  0  0  0  0  0  0  0  0  0  0  0
   45.2432    4.5854   11.8965 C   0  0  0  0  0  0  0  0  0  0  0  0
   46.3991    1.8320    8.1473 C   0  0  0  0  0  0  0  0  0  0  0  0
   46.5591    3.6529    6.5610 C   0  0  0  0  0  0  0  0  0  0  0  0
   45.9611    5.7887   11.8571 C   0  0  0  0  0  0  0  0  0  0  0  0
   45.4603    3.6988   12.9603 C   0  0  0  0  0  0  0  0  0  0  0  0
   47.0871    1.0026    7.2580 C   0  0  0  0  0  0  0  0  0  0  0  0
   47.2463    2.8206    5.6750 C   0  0  0  0  0  0  0  0  0  0  0  0
   46.8627    6.1083   12.8733 C   0  0  0  0  0  0  0  0  0  0  0  0
   46.3620    4.0205   13.9761 C   0  0  0  0  0  0  0  0  0  0  0  0
   47.5088    1.4968    6.0240 C   0  0  0  0  0  0  0  0  0  0  0  0
   47.0609    5.2257   13.9334 C   0  0  0  0  0  0  0  0  0  0  0  0
   43.8239    5.1299   10.3575 H   0  0  0  0  0  0  0  0  0  0  0  0
   43.4626    3.6309   11.1850 H   0  0  0  0  0  0  0  0  0  0  0  0
   46.0847    1.4277    9.1062 H   0  0  0  0  0  0  0  0  0  0  0  0
   46.3609    4.6855    6.2797 H   0  0  0  0  0  0  0  0  0  0  0  0
   45.8242    6.4809   11.0277 H   0  0  0  0  0  0  0  0  0  0  0  0
   44.9295    2.7503   13.0008 H   0  0  0  0  0  0  0  0  0  0  0  0
   47.2960   -0.0294    7.5297 H   0  0  0  0  0  0  0  0  0  0  0  0
   47.5771    3.2066    4.7139 H   0  0  0  0  0  0  0  0  0  0  0  0
   47.4135    7.0444   12.8339 H   0  0  0  0  0  0  0  0  0  0  0  0
   46.5227    3.3289   14.7990 H   0  0  0  0  0  0  0  0  0  0  0  0
   48.0450    0.8495    5.3341 H   0  0  0  0  0  0  0  0  0  0  0  0
   47.7646    5.4748   14.7232 H   0  0  0  0  0  0  0  0  0  0  0  0
  2  1  1  0
  3  1  2  0
  4  1  1  0
  5  2  1  0
  6  5  1  0
  7  4  2  0
  8  4  1  0
  9  6  2  0
 10  6  1  0
 11  7  1  0
 12  8  2  0
 13  9  1  0
 14 10  2  0
 15 12  1  0
 16 14  1  0
 15 11  2  0
 16 13  2  0
  5 17  1  0
  5 18  1  0
  7 19  1  0
  8 20  1  0
  9 21  1  0
 10 22  1  0
 11 23  1  0
 12 24  1  0
 13 25  1  0
 14 26  1  0
 15 27  1  0
 16 28  1  0
M  END
> <Uni-Dock RESULT> 
ENERGY=   -6.077  LOWER_BOUND=    0.000  UPPER_BOUND=    0.000
INTER + INTRA:          -6.077
INTER:                  -6.077
INTRA:                   0.000
UNBOUND:                 0.000

$$$$

     RDKit          3D

 28 29  0  0  0  0  0  0  0  0999 V2000
   45.1268    4.0453   10.8153 C   0  0  0  0  0  0  0  0  0  0  0  0
   45.1610    4.5750    9.5694 O   0  0  0  0  0  0  0  0  0  0  0  0
   44.6086    2.9872   11.1364 O   0  0  0  0  0  0  0  0  0  0  0  0
   45.8125    4.9461   11.7819 C   0  0  0  0  0  0  0  0  0  0  0  0
   44.5678    3.7789    8.5371 C   0  0  0  0  0  0  0  0  0  0  0  0
   45.6511    3.0451    7.7910 C   0  0  0  0  0  0  0  0  0  0  0  0
   46.4835    6.1099   11.3810 C   0  0  0  0  0  0  0  0  0  0  0  0
   45.7834    4.6034   13.1410 C   0  0  0  0  0  0  0  0  0  0  0  0
   46.0130    1.7441    8.1671 C   0  0  0  0  0  0  0  0  0  0  0  0
   46.3409    3.6657    6.7402 C   0  0  0  0  0  0  0  0  0  0  0  0
   47.1122    6.9197   12.3302 C   0  0  0  0  0  0  0  0  0  0  0  0
   46.4127    5.4156   14.0866 C   0  0  0  0  0  0  0  0  0  0  0  0
   47.0307    1.0694    7.4911 C   0  0  0  0  0  0  0  0  0  0  0  0
   47.3579    2.9889    6.0649 C   0  0  0  0  0  0  0  0  0  0  0  0
   47.0756    6.5728   13.6804 C   0  0  0  0  0  0  0  0  0  0  0  0
   47.7008    1.6907    6.4390 C   0  0  0  0  0  0  0  0  0  0  0  0
   43.8032    3.0888    8.9147 H   0  0  0  0  0  0  0  0  0  0  0  0
   44.0455    4.4611    7.8562 H   0  0  0  0  0  0  0  0  0  0  0  0
   46.5295    6.3963   10.3333 H   0  0  0  0  0  0  0  0  0  0  0  0
   45.2703    3.7010   13.4683 H   0  0  0  0  0  0  0  0  0  0  0  0
   45.5054    1.2526    8.9956 H   0  0  0  0  0  0  0  0  0  0  0  0
   46.0908    4.6821    6.4447 H   0  0  0  0  0  0  0  0  0  0  0  0
   47.6327    7.8210   12.0152 H   0  0  0  0  0  0  0  0  0  0  0  0
   46.3862    5.1438   15.1390 H   0  0  0  0  0  0  0  0  0  0  0  0
   47.3028    0.0605    7.7898 H   0  0  0  0  0  0  0  0  0  0  0  0
   47.8861    3.4760    5.2493 H   0  0  0  0  0  0  0  0  0  0  0  0
   47.5665    7.2042   14.4171 H   0  0  0  0  0  0  0  0  0  0  0  0
   48.4942    1.1650    5.9145 H   0  0  0  0  0  0  0  0  0  0  0  0
  2  1  1  0
  3  1  2  0
  4  1  1  0
  5  2  1  0
  6  5  1  0
  7  4  2  0
  8  4  1  0
  9  6  2  0
 10  6  1  0
 11  7  1  0
 12  8  2  0
 13  9  1  0
 14 10  2  0
 15 12  1  0
 16 14  1  0
 15 11  2  0
 16 13  2  0
  5 17  1  0
  5 18  1  0
  7 19  1  0
  8 20  1  0
  9 21  1  0
 10 22  1  0
 11 23  1  0
 12 24  1  0
 13 25  1  0
 14 26  1  0
 15 27  1  0
 16 28  1  0
M  END
> <Uni-Dock RESULT> 
ENERGY=   -5.906  LOWER_BOUND=    0.808  UPPER_BOUND=    6.211
INTER + INTRA:          -5.906
INTER:                  -5.906
INTRA:                   0.000
UNBOUND:                 0.000

$$$$

     RDKit          3D

 28 29  0  0  0  0  0  0  0  0999 V2000
   44.2784   10.1011   11.4693 C   0  0  0  0  0  0  0  0  0  0  0  0
   43.2140    9.7759   10.6977 O   0  0  0  0  0  0  0  0  0  0  0  0
   44.6613   11.2302   11.7332 O   0  0  0  0  0  0  0  0  0  0  0  0
   44.9554    8.8716   11.9653 C   0  0  0  0  0  0  0  0  0  0  0  0
   42.4510   10.8776   10.1920 C   0  0  0  0  0  0  0  0  0  0  0  0
   41.2278   11.0702   11.0496 C   0  0  0  0  0  0  0  0  0  0  0  0
   44.4480    7.5859   11.7309 C   0  0  0  0  0  0  0  0  0  0  0  0
   46.1414    9.0191   12.6981 C   0  0  0  0  0  0  0  0  0  0  0  0
   41.2505   11.9715   12.1229 C   0  0  0  0  0  0  0  0  0  0  0  0
   40.0657   10.3223   10.8144 C   0  0  0  0  0  0  0  0  0  0  0  0
   45.1230    6.4650   12.2208 C   0  0  0  0  0  0  0  0  0  0  0  0
   46.8132    7.8963   13.1858 C   0  0  0  0  0  0  0  0  0  0  0  0
   40.1255   12.1368   12.9320 C   0  0  0  0  0  0  0  0  0  0  0  0
   38.9412   10.4895   11.6244 C   0  0  0  0  0  0  0  0  0  0  0  0
   46.3038    6.6210   12.9462 C   0  0  0  0  0  0  0  0  0  0  0  0
   38.9708   11.3980   12.6810 C   0  0  0  0  0  0  0  0  0  0  0  0
   43.0352   11.8028   10.1137 H   0  0  0  0  0  0  0  0  0  0  0  0
   42.1503   10.6257    9.1683 H   0  0  0  0  0  0  0  0  0  0  0  0
   43.5262    7.4415   11.1730 H   0  0  0  0  0  0  0  0  0  0  0  0
   46.5464   10.0106   12.8924 H   0  0  0  0  0  0  0  0  0  0  0  0
   42.1509   12.5454   12.3367 H   0  0  0  0  0  0  0  0  0  0  0  0
   40.0324    9.6023    9.9999 H   0  0  0  0  0  0  0  0  0  0  0  0
   44.7256    5.4695   12.0380 H   0  0  0  0  0  0  0  0  0  0  0  0
   47.7326    8.0181   13.7533 H   0  0  0  0  0  0  0  0  0  0  0  0
   40.1531   12.8391   13.7610 H   0  0  0  0  0  0  0  0  0  0  0  0
   38.0431    9.9078   11.4338 H   0  0  0  0  0  0  0  0  0  0  0  0
   46.8267    5.7471   13.3273 H   0  0  0  0  0  0  0  0  0  0  0  0
   38.0959   11.5263   13.3128 H   0  0  0  0  0  0  0  0  0  0  0  0
  2  1  1  0
  3  1  2  0
  4  1  1  0
  5  2  1  0
  6  5  1  0
  7  4  2  0
  8  4  1  0
  9  6  2  0
 10  6  1  0
 11  7  1  0
 12  8  2  0
 13  9  1  0
 14 10  2  0
 15 12  1  0
 16 14  1  0
 15 11  2  0
 16 13  2  0
  5 17  1  0
  5 18  1  0
  7 19  1  0
  8 20  1  0
  9 21  1  0
 10 22  1  0
 11 23  1  0
 12 24  1  0
 13 25  1  0
 14 26  1  0
 15 27  1  0
 16 28  1  0
M  END
> <Uni-Dock RESULT> 
ENERGY=   -4.236  LOWER_BOUND=    5.916  UPPER_BOUND=    8.115
INTER + INTRA:          -4.236
INTER:                  -4.236
INTRA:                   0.000
UNBOUND:                 0.000

$$$$

     RDKit          3D

 28 29  0  0  0  0  0  0  0  0999 V2000
   46.2190    7.9780   12.5676 C   0  0  0  0  0  0  0  0  0  0  0  0
   45.9095    7.4138   11.3761 O   0  0  0  0  0  0  0  0  0  0  0  0
   45.4266    8.3375   13.4242 O   0  0  0  0  0  0  0  0  0  0  0  0
   47.6942    8.1218   12.7068 C   0  0  0  0  0  0  0  0  0  0  0  0
   44.5160    7.1829   11.1390 C   0  0  0  0  0  0  0  0  0  0  0  0
   44.1966    5.7381   11.4212 C   0  0  0  0  0  0  0  0  0  0  0  0
   48.5929    7.6183   11.7559 C   0  0  0  0  0  0  0  0  0  0  0  0
   48.1907    8.7827   13.8391 C   0  0  0  0  0  0  0  0  0  0  0  0
   43.7353    5.3493   12.6864 C   0  0  0  0  0  0  0  0  0  0  0  0
   44.3958    4.7577   10.4393 C   0  0  0  0  0  0  0  0  0  0  0  0
   49.9689    7.7795   11.9365 C   0  0  0  0  0  0  0  0  0  0  0  0
   49.5666    8.9420   14.0157 C   0  0  0  0  0  0  0  0  0  0  0  0
   43.4583    4.0085   12.9572 C   0  0  0  0  0  0  0  0  0  0  0  0
   44.1176    3.4172   10.7119 C   0  0  0  0  0  0  0  0  0  0  0  0
   50.4539    8.4410   13.0643 C   0  0  0  0  0  0  0  0  0  0  0  0
   43.6470    3.0436   11.9696 C   0  0  0  0  0  0  0  0  0  0  0  0
   43.8669    7.8561   11.7124 H   0  0  0  0  0  0  0  0  0  0  0  0
   44.3215    7.4063   10.0835 H   0  0  0  0  0  0  0  0  0  0  0  0
   48.2370    7.0943   10.8724 H   0  0  0  0  0  0  0  0  0  0  0  0
   47.5065    9.1758   14.5888 H   0  0  0  0  0  0  0  0  0  0  0  0
   43.5957    6.0921   13.4703 H   0  0  0  0  0  0  0  0  0  0  0  0
   44.7724    5.0338    9.4570 H   0  0  0  0  0  0  0  0  0  0  0  0
   50.6629    7.3864   11.1973 H   0  0  0  0  0  0  0  0  0  0  0  0
   49.9448    9.4557   14.8962 H   0  0  0  0  0  0  0  0  0  0  0  0
   43.0999    3.7176   13.9412 H   0  0  0  0  0  0  0  0  0  0  0  0
   44.2721    2.6634    9.9443 H   0  0  0  0  0  0  0  0  0  0  0  0
   51.5253    8.5643   13.2030 H   0  0  0  0  0  0  0  0  0  0  0  0
   43.4327    1.9997   12.1822 H   0  0  0  0  0  0  0  0  0  0  0  0
  2  1  1  0
  3  1  2  0
  4  1  1  0
  5  2  1  0
  6  5  1  0
  7  4  2  0
  8  4  1  0
  9  6  2  0
 10  6  1  0
 11  7  1  0
 12  8  2  0
 13  9  1  0
 14 10  2  0
 15 12  1  0
 16 14  1  0
 15 11  2  0
 16 13  2  0
  5 17  1  0
  5 18  1  0
  7 19  1  0
  8 20  1  0
  9 21  1  0
 10 22  1  0
 11 23  1  0
 12 24  1  0
 13 25  1  0
 14 26  1  0
 15 27  1  0
 16 28  1  0
M  END
> <Uni-Dock RESULT> 
ENERGY=   -3.987  LOWER_BOUND=    3.685  UPPER_BOUND=    6.332
INTER + INTRA:          -3.987
INTER:                  -3.987
INTRA:                   0.000
UNBOUND:                 0.000

$$$$

     RDKit          3D

 28 29  0  0  0  0  0  0  0  0999 V2000
   44.3168    6.2631   11.3487 C   0  0  0  0  0  0  0  0  0  0  0  0
   45.0332    7.3465   10.9654 O   0  0  0  0  0  0  0  0  0  0  0  0
   43.5521    6.2018   12.2987 O   0  0  0  0  0  0  0  0  0  0  0  0
   44.5926    5.1120   10.4459 C   0  0  0  0  0  0  0  0  0  0  0  0
   44.8224    8.5368   11.7338 C   0  0  0  0  0  0  0  0  0  0  0  0
   43.8682    9.4407   10.9981 C   0  0  0  0  0  0  0  0  0  0  0  0
   45.3998    5.2261    9.3054 C   0  0  0  0  0  0  0  0  0  0  0  0
   44.0127    3.8739   10.7562 C   0  0  0  0  0  0  0  0  0  0  0  0
   42.4934    9.3875   11.2666 C   0  0  0  0  0  0  0  0  0  0  0  0
   44.3339   10.3157   10.0069 C   0  0  0  0  0  0  0  0  0  0  0  0
   45.6250    4.1135    8.4908 C   0  0  0  0  0  0  0  0  0  0  0  0
   44.2404    2.7643    9.9397 C   0  0  0  0  0  0  0  0  0  0  0  0
   41.6045   10.2090   10.5718 C   0  0  0  0  0  0  0  0  0  0  0  0
   43.4433   11.1370    9.3135 C   0  0  0  0  0  0  0  0  0  0  0  0
   45.0466    2.8850    8.8088 C   0  0  0  0  0  0  0  0  0  0  0  0
   42.0797   11.0850    9.5978 C   0  0  0  0  0  0  0  0  0  0  0  0
   44.4744    8.3318   12.7537 H   0  0  0  0  0  0  0  0  0  0  0  0
   45.7938    9.0331   11.8428 H   0  0  0  0  0  0  0  0  0  0  0  0
   45.8559    6.1753    9.0355 H   0  0  0  0  0  0  0  0  0  0  0  0
   43.3801    3.7695   11.6357 H   0  0  0  0  0  0  0  0  0  0  0  0
   42.1084    8.6983   12.0166 H   0  0  0  0  0  0  0  0  0  0  0  0
   45.3940   10.3590    9.7676 H   0  0  0  0  0  0  0  0  0  0  0  0
   46.2506    4.2063    7.6063 H   0  0  0  0  0  0  0  0  0  0  0  0
   43.7875    1.8071   10.1863 H   0  0  0  0  0  0  0  0  0  0  0  0
   40.5405   10.1608   10.7884 H   0  0  0  0  0  0  0  0  0  0  0  0
   43.8126   11.8147    8.5483 H   0  0  0  0  0  0  0  0  0  0  0  0
   45.2225    2.0208    8.1727 H   0  0  0  0  0  0  0  0  0  0  0  0
   41.3864   11.7229    9.0561 H   0  0  0  0  0  0  0  0  0  0  0  0
  2  1  1  0
  3  1  2  0
  4  1  1  0
  5  2  1  0
  6  5  1  0
  7  4  2  0
  8  4  1  0
  9  6  2  0
 10  6  1  0
 11  7  1  0
 12  8  2  0
 13  9  1  0
 14 10  2  0
 15 12  1  0
 16 14  1  0
 15 11  2  0
 16 13  2  0
  5 17  1  0
  5 18  1  0
  7 19  1  0
  8 20  1  0
  9 21  1  0
 10 22  1  0
 11 23  1  0
 12 24  1  0
 13 25  1  0
 14 26  1  0
 15 27  1  0
 16 28  1  0
M  END
> <Uni-Dock RESULT> 
ENERGY=   -3.984  LOWER_BOUND=    3.921  UPPER_BOUND=    5.528
INTER + INTRA:          -3.984
INTER:                  -3.984
INTRA:                   0.000
UNBOUND:                 0.000

$$$$

     RDKit          3D

 28 29  0  0  0  0  0  0  0  0999 V2000
   48.8136    9.1520   17.3088 C   0  0  0  0  0  0  0  0  0  0  0  0
   48.9651    7.8743   17.7314 O   0  0  0  0  0  0  0  0  0  0  0  0
   49.2849    9.6373   16.2922 O   0  0  0  0  0  0  0  0  0  0  0  0
   47.9827    9.9233   18.2736 C   0  0  0  0  0  0  0  0  0  0  0  0
   49.7140    7.0155   16.8636 C   0  0  0  0  0  0  0  0  0  0  0  0
   48.7618    6.1807   16.0479 C   0  0  0  0  0  0  0  0  0  0  0  0
   47.3718    9.3272   19.3858 C   0  0  0  0  0  0  0  0  0  0  0  0
   47.8076   11.2956   18.0468 C   0  0  0  0  0  0  0  0  0  0  0  0
   48.3565    6.6085   14.7761 C   0  0  0  0  0  0  0  0  0  0  0  0
   48.2350    4.9885   16.5640 C   0  0  0  0  0  0  0  0  0  0  0  0
   46.6004   10.0977   20.2596 C   0  0  0  0  0  0  0  0  0  0  0  0
   47.0362   12.0622   18.9226 C   0  0  0  0  0  0  0  0  0  0  0  0
   47.4582    5.8475   14.0265 C   0  0  0  0  0  0  0  0  0  0  0  0
   47.3372    4.2285   15.8125 C   0  0  0  0  0  0  0  0  0  0  0  0
   46.4342   11.4628   20.0280 C   0  0  0  0  0  0  0  0  0  0  0  0
   46.9511    4.6570   14.5436 C   0  0  0  0  0  0  0  0  0  0  0  0
   50.4173    7.5619   16.2233 H   0  0  0  0  0  0  0  0  0  0  0  0
   50.3286    6.3649   17.4967 H   0  0  0  0  0  0  0  0  0  0  0  0
   47.4833    8.2638   19.5822 H   0  0  0  0  0  0  0  0  0  0  0  0
   48.2717   11.7729   17.1857 H   0  0  0  0  0  0  0  0  0  0  0  0
   48.7361    7.5432   14.3662 H   0  0  0  0  0  0  0  0  0  0  0  0
   48.5197    4.6477   17.5569 H   0  0  0  0  0  0  0  0  0  0  0  0
   46.1272    9.6315   21.1204 H   0  0  0  0  0  0  0  0  0  0  0  0
   46.9046   13.1260   18.7407 H   0  0  0  0  0  0  0  0  0  0  0  0
   47.1513    6.1876   13.0409 H   0  0  0  0  0  0  0  0  0  0  0  0
   46.9355    3.3039   16.2187 H   0  0  0  0  0  0  0  0  0  0  0  0
   45.8326   12.0600   20.7089 H   0  0  0  0  0  0  0  0  0  0  0  0
   46.2503    4.0662   13.9598 H   0  0  0  0  0  0  0  0  0  0  0  0
  2  1  1  0
  3  1  2  0
  4  1  1  0
  5  2  1  0
  6  5  1  0
  7  4  2  0
  8  4  1  0
  9  6  2  0
 10  6  1  0
 11  7  1  0
 12  8  2  0
 13  9  1  0
 14 10  2  0
 15 12  1  0
 16 14  1  0
 15 11  2  0
 16 13  2  0
  5 17  1  0
  5 18  1  0
  7 19  1  0
  8 20  1  0
  9 21  1  0
 10 22  1  0
 11 23  1  0
 12 24  1  0
 13 25  1  0
 14 26  1  0
 15 27  1  0
 16 28  1  0
M  END
> <Uni-Dock RESULT> 
ENERGY=   -3.916  LOWER_BOUND=    6.445  UPPER_BOUND=   10.608
INTER + INTRA:          -3.916
INTER:                  -3.916
INTRA:                   0.000
UNBOUND:                 0.000

$$$$

     RDKit          3D

 28 29  0  0  0  0  0  0  0  0999 V2000
   46.9073    5.3235   13.3126 C   0  0  0  0  0  0  0  0  0  0  0  0
   47.2978    6.6166   13.2167 O   0  0  0  0  0  0  0  0  0  0  0  0
   47.5852    4.3924   13.7182 O   0  0  0  0  0  0  0  0  0  0  0  0
   45.5054    5.1674   12.8368 C   0  0  0  0  0  0  0  0  0  0  0  0
   48.6202    6.9048   13.6854 C   0  0  0  0  0  0  0  0  0  0  0  0
   48.5406    7.4788   15.0757 C   0  0  0  0  0  0  0  0  0  0  0  0
   44.7108    6.2605   12.4637 C   0  0  0  0  0  0  0  0  0  0  0  0
   44.9697    3.8737   12.7692 C   0  0  0  0  0  0  0  0  0  0  0  0
   48.6537    6.6420   16.1945 C   0  0  0  0  0  0  0  0  0  0  0  0
   48.3104    8.8477   15.2711 C   0  0  0  0  0  0  0  0  0  0  0  0
   43.3997    6.0579   12.0254 C   0  0  0  0  0  0  0  0  0  0  0  0
   43.6590    3.6753   12.3303 C   0  0  0  0  0  0  0  0  0  0  0  0
   48.5595    7.1678   17.4838 C   0  0  0  0  0  0  0  0  0  0  0  0
   48.2172    9.3719   16.5615 C   0  0  0  0  0  0  0  0  0  0  0  0
   42.8760    4.7671   11.9584 C   0  0  0  0  0  0  0  0  0  0  0  0
   48.3440    8.5324   17.6669 C   0  0  0  0  0  0  0  0  0  0  0  0
   49.2865    6.0341   13.6488 H   0  0  0  0  0  0  0  0  0  0  0  0
   49.0560    7.6443   13.0033 H   0  0  0  0  0  0  0  0  0  0  0  0
   45.0967    7.2756   12.5137 H   0  0  0  0  0  0  0  0  0  0  0  0
   45.5720    3.0147   13.0591 H   0  0  0  0  0  0  0  0  0  0  0  0
   48.8098    5.5722   16.0644 H   0  0  0  0  0  0  0  0  0  0  0  0
   48.1990    9.5124   14.4175 H   0  0  0  0  0  0  0  0  0  0  0  0
   42.7861    6.9083   11.7381 H   0  0  0  0  0  0  0  0  0  0  0  0
   43.2499    2.6692   12.2803 H   0  0  0  0  0  0  0  0  0  0  0  0
   48.6497    6.5105   18.3447 H   0  0  0  0  0  0  0  0  0  0  0  0
   48.0413   10.4348   16.7046 H   0  0  0  0  0  0  0  0  0  0  0  0
   41.8550    4.6121   11.6178 H   0  0  0  0  0  0  0  0  0  0  0  0
   48.2690    8.9405   18.6713 H   0  0  0  0  0  0  0  0  0  0  0  0
  2  1  1  0
  3  1  2  0
  4  1  1  0
  5  2  1  0
  6  5  1  0
  7  4  2  0
  8  4  1  0
  9  6  2  0
 10  6  1  0
 11  7  1  0
 12  8  2  0
 13  9  1  0
 14 10  2  0
 15 12  1  0
 16 14  1  0
 15 11  2  0
 16 13  2  0
  5 17  1  0
  5 18  1  0
  7 19  1  0
  8 20  1  0
  9 21  1  0
 10 22  1  0
 11 23  1  0
 12 24  1  0
 13 25  1  0
 14 26  1  0
 15 27  1  0
 16 28  1  0
M  END
> <Uni-Dock RESULT> 
ENERGY=   -3.877  LOWER_BOUND=    4.545  UPPER_BOUND=    6.155
INTER + INTRA:          -3.877
INTER:                  -3.877
INTRA:                   0.000
UNBOUND:                 0.000

$$$$

     RDKit          3D

 28 29  0  0  0  0  0  0  0  0999 V2000
   48.3893    9.0620   15.9330 C   0  0  0  0  0  0  0  0  0  0  0  0
   48.5921    7.7310   15.7869 O   0  0  0  0  0  0  0  0  0  0  0  0
   48.4738    9.9062   15.0547 O   0  0  0  0  0  0  0  0  0  0  0  0
   48.0495    9.3838   17.3461 C   0  0  0  0  0  0  0  0  0  0  0  0
   48.8864    7.2875   14.4572 C   0  0  0  0  0  0  0  0  0  0  0  0
   47.6347    6.7315   13.8303 C   0  0  0  0  0  0  0  0  0  0  0  0
   47.8643    8.3929   18.3204 C   0  0  0  0  0  0  0  0  0  0  0  0
   47.9067   10.7323   17.7017 C   0  0  0  0  0  0  0  0  0  0  0  0
   46.8098    7.5521   13.0486 C   0  0  0  0  0  0  0  0  0  0  0  0
   47.2546    5.4008   14.0535 C   0  0  0  0  0  0  0  0  0  0  0  0
   47.5447    8.7503   19.6328 C   0  0  0  0  0  0  0  0  0  0  0  0
   47.5876   11.0853   19.0145 C   0  0  0  0  0  0  0  0  0  0  0  0
   45.6386    7.0454   12.4837 C   0  0  0  0  0  0  0  0  0  0  0  0
   46.0831    4.8956   13.4869 C   0  0  0  0  0  0  0  0  0  0  0  0
   47.4077   10.0944   19.9784 C   0  0  0  0  0  0  0  0  0  0  0  0
   45.2771    5.7171   12.7007 C   0  0  0  0  0  0  0  0  0  0  0  0
   49.3327    8.0717   13.8334 H   0  0  0  0  0  0  0  0  0  0  0  0
   49.6440    6.4990   14.5347 H   0  0  0  0  0  0  0  0  0  0  0  0
   47.9605    7.3390   18.0718 H   0  0  0  0  0  0  0  0  0  0  0  0
   48.0431   11.5136   16.9563 H   0  0  0  0  0  0  0  0  0  0  0  0
   47.0751    8.5950   12.8820 H   0  0  0  0  0  0  0  0  0  0  0  0
   47.8687    4.7516   14.6734 H   0  0  0  0  0  0  0  0  0  0  0  0
   47.4006    7.9788   20.3854 H   0  0  0  0  0  0  0  0  0  0  0  0
   47.4784   12.1332   19.2834 H   0  0  0  0  0  0  0  0  0  0  0  0
   45.0066    7.6897   11.8782 H   0  0  0  0  0  0  0  0  0  0  0  0
   45.7968    3.8619   13.6625 H   0  0  0  0  0  0  0  0  0  0  0  0
   47.1579   10.3699   21.0002 H   0  0  0  0  0  0  0  0  0  0  0  0
   44.3640    5.3241   12.2618 H   0  0  0  0  0  0  0  0  0  0  0  0
  2  1  1  0
  3  1  2  0
  4  1  1  0
  5  2  1  0
  6  5  1  0
  7  4  2  0
  8  4  1  0
  9  6  2  0
 10  6  1  0
 11  7  1  0
 12  8  2  0
 13  9  1  0
 14 10  2  0
 15 12  1  0
 16 14  1  0
 15 11  2  0
 16 13  2  0
  5 17  1  0
  5 18  1  0
  7 19  1  0
  8 20  1  0
  9 21  1  0
 10 22  1  0
 11 23  1  0
 12 24  1  0
 13 25  1  0
 14 26  1  0
 15 27  1  0
 16 28  1  0
M  END
> <Uni-Dock RESULT> 
ENERGY=   -3.835  LOWER_BOUND=    5.408  UPPER_BOUND=    9.664
INTER + INTRA:          -3.835
INTER:                  -3.835
INTRA:                   0.000
UNBOUND:                 0.000

$$$$

     RDKit          3D

 28 29  0  0  0  0  0  0  0  0999 V2000
   50.7617    8.7581   11.4844 C   0  0  0  0  0  0  0  0  0  0  0  0
   51.7279    7.8385   11.7182 O   0  0  0  0  0  0  0  0  0  0  0  0
   50.9002    9.8167   10.8916 O   0  0  0  0  0  0  0  0  0  0  0  0
   49.4671    8.3114   12.0678 C   0  0  0  0  0  0  0  0  0  0  0  0
   53.0166    8.1346   11.1677 C   0  0  0  0  0  0  0  0  0  0  0  0
   53.1962    7.3685    9.8832 C   0  0  0  0  0  0  0  0  0  0  0  0
   49.3036    7.0522   12.6621 C   0  0  0  0  0  0  0  0  0  0  0  0
   48.3765    9.1904   12.0093 C   0  0  0  0  0  0  0  0  0  0  0  0
   52.8712    7.9602    8.6548 C   0  0  0  0  0  0  0  0  0  0  0  0
   53.6491    6.0420    9.9002 C   0  0  0  0  0  0  0  0  0  0  0  0
   48.0654    6.6824   13.1933 C   0  0  0  0  0  0  0  0  0  0  0  0
   47.1407    8.8171   12.5416 C   0  0  0  0  0  0  0  0  0  0  0  0
   53.0168    7.2458    7.4648 C   0  0  0  0  0  0  0  0  0  0  0  0
   53.7947    5.3293    8.7088 C   0  0  0  0  0  0  0  0  0  0  0  0
   46.9867    7.5643   13.1334 C   0  0  0  0  0  0  0  0  0  0  0  0
   53.4807    5.9320    7.4918 C   0  0  0  0  0  0  0  0  0  0  0  0
   53.1825    9.2088   11.0201 H   0  0  0  0  0  0  0  0  0  0  0  0
   53.7673    7.8133   11.8991 H   0  0  0  0  0  0  0  0  0  0  0  0
   50.1292    6.3469   12.7144 H   0  0  0  0  0  0  0  0  0  0  0  0
   48.4857   10.1700   11.5476 H   0  0  0  0  0  0  0  0  0  0  0  0
   52.4959    8.9819    8.6216 H   0  0  0  0  0  0  0  0  0  0  0  0
   53.8877    5.5559   10.8434 H   0  0  0  0  0  0  0  0  0  0  0  0
   47.9422    5.7043   13.6523 H   0  0  0  0  0  0  0  0  0  0  0  0
   46.2992    9.5038   12.4928 H   0  0  0  0  0  0  0  0  0  0  0  0
   52.7631    7.7143    6.5174 H   0  0  0  0  0  0  0  0  0  0  0  0
   54.1490    4.3020    8.7301 H   0  0  0  0  0  0  0  0  0  0  0  0
   46.0239    7.2738   13.5467 H   0  0  0  0  0  0  0  0  0  0  0  0
   53.5920    5.3761    6.5647 H   0  0  0  0  0  0  0  0  0  0  0  0
  2  1  1  0
  3  1  2  0
  4  1  1  0
  5  2  1  0
  6  5  1  0
  7  4  2  0
  8  4  1  0
  9  6  2  0
 10  6  1  0
 11  7  1  0
 12  8  2  0
 13  9  1  0
 14 10  2  0
 15 12  1  0
 16 14  1  0
 15 11  2  0
 16 13  2  0
  5 17  1  0
  5 18  1  0
  7 19  1  0
  8 20  1  0
  9 21  1  0
 10 22  1  0
 11 23  1  0
 12 24  1  0
 13 25  1  0
 14 26  1  0
 15 27  1  0
 16 28  1  0
M  END
> <Uni-Dock RESULT> 
ENERGY=   -3.662  LOWER_BOUND=    5.926  UPPER_BOUND=    8.470
INTER + INTRA:          -3.662
INTER:                  -3.662
INTRA:                   0.000
UNBOUND:                 0.000

$$$$
