
     RDKit          2D

 19 20  0  0  0  0  0  0  0  0999 V2000
    2.8042   -5.6000    0.0000 S   0  0  0  0  0  0  0  0  0  0  0  0
    3.4167   -5.2417    0.0000 N   0  0  0  0  0  0  0  0  0  0  0  0
    4.0292   -5.5958    0.0000 C   0  0  0  0  0  0  0  0  0  0  0  0
    2.1875   -5.2458    0.0000 C   0  0  0  0  0  0  0  0  0  0  0  0
    3.1542   -6.2125    0.0000 O   0  0  0  0  0  0  0  0  0  0  0  0
    2.4417   -6.2125    0.0000 O   0  0  0  0  0  0  0  0  0  0  0  0
    4.0333   -6.3042    0.0000 O   0  0  0  0  0  0  0  0  0  0  0  0
    4.6417   -5.2375    0.0000 C   0  0  0  0  0  0  0  0  0  0  0  0
    2.1875   -4.5333    0.0000 C   0  0  0  0  0  0  0  0  0  0  0  0
    1.5750   -5.6000    0.0000 C   0  0  0  0  0  0  0  0  0  0  0  0
    0.9625   -4.5375    0.0000 C   0  0  0  0  0  0  0  0  0  0  0  0
    0.3500   -4.1792    0.0000 N   0  0  0  0  0  0  0  0  0  0  0  0
    0.9625   -5.2458    0.0000 C   0  0  0  0  0  0  0  0  0  0  0  0
    1.5750   -4.1792    0.0000 C   0  0  0  0  0  0  0  0  0  0  0  0
    5.2542   -5.5917    0.0000 C   0  0  0  0  0  0  0  0  0  0  0  0
    4.6375   -4.5333    0.0000 C   0  0  0  0  0  0  0  0  0  0  0  0
    5.2458   -4.1750    0.0000 C   0  0  0  0  0  0  0  0  0  0  0  0
    5.8667   -5.2375    0.0000 C   0  0  0  0  0  0  0  0  0  0  0  0
    5.8667   -4.5250    0.0000 C   0  0  0  0  0  0  0  0  0  0  0  0
  2  1  1  0
  3  2  1  0
  4  1  1  0
  5  1  2  0
  6  1  2  0
  7  3  2  0
  8  3  1  0
  9  4  1  0
 10  4  2  0
 11 13  2  0
 12 11  1  0
 13 10  1  0
 14  9  2  0
 15  8  2  0
 16  8  1  0
 17 16  2  0
 18 15  1  0
 19 17  1  0
 11 14  1  0
 19 18  2  0
M  END
> <chembl_id>
CHEMBL1243

> <chembl_pref_name>
SULFABENZAMIDE
