
     RDKit          3D

 31 32  0  0  0  0  0  0  0  0999 V2000
    0.8039   -2.0835    0.9430 S   0  0  0  0  0  0  0  0  0  0  0  0
   -0.6248   -1.4782    0.3448 N   0  0  0  0  0  0  0  0  0  0  0  0
   -1.2673   -0.3263    0.8119 C   0  0  0  0  0  0  0  0  0  0  0  0
    1.9999   -0.8819    0.4238 C   0  0  0  0  0  0  0  0  0  0  0  0
    0.7577   -2.1237    2.3863 O   0  0  0  0  0  0  0  0  0  0  0  0
    1.0434   -3.2920    0.1785 O   0  0  0  0  0  0  0  0  0  0  0  0
   -0.8209    0.3854    1.6973 O   0  0  0  0  0  0  0  0  0  0  0  0
   -2.5589    0.0068    0.1478 C   0  0  0  0  0  0  0  0  0  0  0  0
    2.6313   -1.0210   -0.8140 C   0  0  0  0  0  0  0  0  0  0  0  0
    2.3300    0.1777    1.2695 C   0  0  0  0  0  0  0  0  0  0  0  0
    3.9602    0.9624   -0.3540 C   0  0  0  0  0  0  0  0  0  0  0  0
    4.8283    1.9630   -0.8047 N   0  0  0  0  0  0  0  0  0  0  0  0
    3.2874    1.1109    0.8630 C   0  0  0  0  0  0  0  0  0  0  0  0
    3.5902   -0.0829   -1.2066 C   0  0  0  0  0  0  0  0  0  0  0  0
   -3.4694    0.8082    0.8522 C   0  0  0  0  0  0  0  0  0  0  0  0
   -2.8951   -0.4489   -1.1351 C   0  0  0  0  0  0  0  0  0  0  0  0
   -4.1313   -0.1143   -1.6953 C   0  0  0  0  0  0  0  0  0  0  0  0
   -4.7032    1.1384    0.2888 C   0  0  0  0  0  0  0  0  0  0  0  0
   -5.0338    0.6746   -0.9830 C   0  0  0  0  0  0  0  0  0  0  0  0
   -1.0555   -2.1129   -0.3161 H   0  0  0  0  0  0  0  0  0  0  0  0
    2.3826   -1.8439   -1.4795 H   0  0  0  0  0  0  0  0  0  0  0  0
    1.8327    0.2977    2.2305 H   0  0  0  0  0  0  0  0  0  0  0  0
    5.2711    2.4883   -0.0568 H   0  0  0  0  0  0  0  0  0  0  0  0
    5.4977    1.6460   -1.4990 H   0  0  0  0  0  0  0  0  0  0  0  0
    3.5054    1.9562    1.5109 H   0  0  0  0  0  0  0  0  0  0  0  0
    4.0530   -0.1778   -2.1856 H   0  0  0  0  0  0  0  0  0  0  0  0
   -3.2223    1.1761    1.8471 H   0  0  0  0  0  0  0  0  0  0  0  0
   -2.2046   -1.0354   -1.7331 H   0  0  0  0  0  0  0  0  0  0  0  0
   -4.3892   -0.4619   -2.6934 H   0  0  0  0  0  0  0  0  0  0  0  0
   -5.4045    1.7583    0.8425 H   0  0  0  0  0  0  0  0  0  0  0  0
   -5.9942    0.9346   -1.4225 H   0  0  0  0  0  0  0  0  0  0  0  0
  2  1  1  0
  3  2  1  0
  4  1  1  0
  5  1  2  0
  6  1  2  0
  7  3  2  0
  8  3  1  0
  9  4  2  0
 10  4  1  0
 11 13  1  0
 12 11  1  0
 13 10  2  0
 14  9  1  0
 15  8  2  0
 16  8  1  0
 17 16  2  0
 18 15  1  0
 19 17  1  0
 11 14  2  0
 19 18  2  0
  2 20  1  0
  9 21  1  0
 10 22  1  0
 12 23  1  0
 12 24  1  0
 13 25  1  0
 14 26  1  0
 15 27  1  0
 16 28  1  0
 17 29  1  0
 18 30  1  0
 19 31  1  0
M  END
$$$$
