
     RDKit          3D

 31 32  0  0  0  0  0  0  0  0999 V2000
    0.8687    1.2030   -1.9925 S   0  0  0  0  0  0  0  0  0  0  0  0
   -0.5818    0.5736   -1.4765 N   0  0  0  0  0  0  0  0  0  0  0  0
   -1.2217    0.9112   -0.2791 C   0  0  0  0  0  0  0  0  0  0  0  0
    2.0331    0.5353   -0.8338 C   0  0  0  0  0  0  0  0  0  0  0  0
    1.1138    0.5664   -3.2718 O   0  0  0  0  0  0  0  0  0  0  0  0
    0.8451    2.6431   -1.8795 O   0  0  0  0  0  0  0  0  0  0  0  0
   -0.7530    1.6811    0.5439 O   0  0  0  0  0  0  0  0  0  0  0  0
   -2.5381    0.2542   -0.0415 C   0  0  0  0  0  0  0  0  0  0  0  0
    2.6364   -0.6982   -1.0885 C   0  0  0  0  0  0  0  0  0  0  0  0
    2.3978    1.2797    0.2885 C   0  0  0  0  0  0  0  0  0  0  0  0
    3.8977   -0.5036    0.9814 C   0  0  0  0  0  0  0  0  0  0  0  0
    4.9250   -0.9591    1.8145 N   0  0  0  0  0  0  0  0  0  0  0  0
    3.3392    0.7626    1.1825 C   0  0  0  0  0  0  0  0  0  0  0  0
    3.5775   -1.2032   -0.1867 C   0  0  0  0  0  0  0  0  0  0  0  0
   -2.9158   -0.9437   -0.6653 C   0  0  0  0  0  0  0  0  0  0  0  0
   -3.4294    0.8773    0.8444 C   0  0  0  0  0  0  0  0  0  0  0  0
   -4.6843    0.3189    1.0937 C   0  0  0  0  0  0  0  0  0  0  0  0
   -4.1731   -1.4994   -0.4112 C   0  0  0  0  0  0  0  0  0  0  0  0
   -5.0557   -0.8671    0.4637 C   0  0  0  0  0  0  0  0  0  0  0  0
   -1.0207    0.0064   -2.1911 H   0  0  0  0  0  0  0  0  0  0  0  0
    2.4003   -1.2611   -1.9881 H   0  0  0  0  0  0  0  0  0  0  0  0
    1.9593    2.2588    0.4728 H   0  0  0  0  0  0  0  0  0  0  0  0
    4.8893   -0.5820    2.7566 H   0  0  0  0  0  0  0  0  0  0  0  0
    5.0520   -1.9659    1.8055 H   0  0  0  0  0  0  0  0  0  0  0  0
    3.6331    1.3617    2.0407 H   0  0  0  0  0  0  0  0  0  0  0  0
    4.0669   -2.1486   -0.4074 H   0  0  0  0  0  0  0  0  0  0  0  0
   -2.2435   -1.4821   -1.3258 H   0  0  0  0  0  0  0  0  0  0  0  0
   -3.1509    1.8054    1.3418 H   0  0  0  0  0  0  0  0  0  0  0  0
   -5.3705    0.8100    1.7799 H   0  0  0  0  0  0  0  0  0  0  0  0
   -4.4637   -2.4319   -0.8903 H   0  0  0  0  0  0  0  0  0  0  0  0
   -6.0329   -1.3027    0.6600 H   0  0  0  0  0  0  0  0  0  0  0  0
  2  1  1  0
  3  2  1  0
  4  1  1  0
  5  1  2  0
  6  1  2  0
  7  3  2  0
  8  3  1  0
  9  4  2  0
 10  4  1  0
 11 13  1  0
 12 11  1  0
 13 10  2  0
 14  9  1  0
 15  8  2  0
 16  8  1  0
 17 16  2  0
 18 15  1  0
 19 17  1  0
 11 14  2  0
 19 18  2  0
  2 20  1  0
  9 21  1  0
 10 22  1  0
 12 23  1  0
 12 24  1  0
 13 25  1  0
 14 26  1  0
 15 27  1  0
 16 28  1  0
 17 29  1  0
 18 30  1  0
 19 31  1  0
M  END
$$$$
