
     RDKit          3D

 31 32  0  0  0  0  0  0  0  0999 V2000
    0.4901   -2.4049   -0.0353 S   0  0  0  0  0  0  0  0  0  0  0  0
   -0.7922   -1.4418    0.4056 N   0  0  0  0  0  0  0  0  0  0  0  0
   -1.3664   -0.4527   -0.4001 C   0  0  0  0  0  0  0  0  0  0  0  0
    1.8439   -1.2625   -0.1151 C   0  0  0  0  0  0  0  0  0  0  0  0
    0.2527   -2.9663   -1.3452 O   0  0  0  0  0  0  0  0  0  0  0  0
    0.7151   -3.2674    1.1082 O   0  0  0  0  0  0  0  0  0  0  0  0
   -0.9512   -0.1599   -1.5099 O   0  0  0  0  0  0  0  0  0  0  0  0
   -2.5375    0.2592    0.1851 C   0  0  0  0  0  0  0  0  0  0  0  0
    2.6066   -1.0090    1.0269 C   0  0  0  0  0  0  0  0  0  0  0  0
    2.1878   -0.6804   -1.3357 C   0  0  0  0  0  0  0  0  0  0  0  0
    4.0034    0.5177   -0.2503 C   0  0  0  0  0  0  0  0  0  0  0  0
    5.1599    1.2986   -0.3472 N   0  0  0  0  0  0  0  0  0  0  0  0
    3.2749    0.1953   -1.3996 C   0  0  0  0  0  0  0  0  0  0  0  0
    3.6923   -0.1319    0.9487 C   0  0  0  0  0  0  0  0  0  0  0  0
   -2.7786    0.3239    1.5651 C   0  0  0  0  0  0  0  0  0  0  0  0
   -3.4315    0.8829   -0.6976 C   0  0  0  0  0  0  0  0  0  0  0  0
   -4.5565    1.5503   -0.2100 C   0  0  0  0  0  0  0  0  0  0  0  0
   -3.9059    0.9945    2.0484 C   0  0  0  0  0  0  0  0  0  0  0  0
   -4.7938    1.6030    1.1620 C   0  0  0  0  0  0  0  0  0  0  0  0
   -1.1999   -1.7378    1.2838 H   0  0  0  0  0  0  0  0  0  0  0  0
    2.3810   -1.4998    1.9704 H   0  0  0  0  0  0  0  0  0  0  0  0
    1.6205   -0.9035   -2.2375 H   0  0  0  0  0  0  0  0  0  0  0  0
    5.4409    1.7354    0.5246 H   0  0  0  0  0  0  0  0  0  0  0  0
    5.1510    1.9538   -1.1229 H   0  0  0  0  0  0  0  0  0  0  0  0
    3.5480    0.6244   -2.3605 H   0  0  0  0  0  0  0  0  0  0  0  0
    4.3010    0.0360    1.8336 H   0  0  0  0  0  0  0  0  0  0  0  0
   -2.0929   -0.1082    2.2871 H   0  0  0  0  0  0  0  0  0  0  0  0
   -3.2574    0.8473   -1.7722 H   0  0  0  0  0  0  0  0  0  0  0  0
   -5.2462    2.0287   -0.9015 H   0  0  0  0  0  0  0  0  0  0  0  0
   -4.0896    1.0500    3.1192 H   0  0  0  0  0  0  0  0  0  0  0  0
   -5.6695    2.1250    1.5414 H   0  0  0  0  0  0  0  0  0  0  0  0
  2  1  1  0
  3  2  1  0
  4  1  1  0
  5  1  2  0
  6  1  2  0
  7  3  2  0
  8  3  1  0
  9  4  2  0
 10  4  1  0
 11 13  1  0
 12 11  1  0
 13 10  2  0
 14  9  1  0
 15  8  2  0
 16  8  1  0
 17 16  2  0
 18 15  1  0
 19 17  1  0
 11 14  2  0
 19 18  2  0
  2 20  1  0
  9 21  1  0
 10 22  1  0
 12 23  1  0
 12 24  1  0
 13 25  1  0
 14 26  1  0
 15 27  1  0
 16 28  1  0
 17 29  1  0
 18 30  1  0
 19 31  1  0
M  END
$$$$
