
     RDKit          3D

 31 32  0  0  0  0  0  0  0  0999 V2000
    0.5130   -2.0748   -0.6131 S   0  0  0  0  0  0  0  0  0  0  0  0
   -0.6666   -0.9414   -0.2796 N   0  0  0  0  0  0  0  0  0  0  0  0
   -2.0351   -1.2406   -0.3472 C   0  0  0  0  0  0  0  0  0  0  0  0
    1.9695   -1.1061   -0.2666 C   0  0  0  0  0  0  0  0  0  0  0  0
    0.4615   -3.1178    0.3867 O   0  0  0  0  0  0  0  0  0  0  0  0
    0.5200   -2.3483   -2.0326 O   0  0  0  0  0  0  0  0  0  0  0  0
   -2.4776   -2.3345   -0.6569 O   0  0  0  0  0  0  0  0  0  0  0  0
   -2.9513   -0.1185    0.0008 C   0  0  0  0  0  0  0  0  0  0  0  0
    2.5381   -0.3312   -1.2791 C   0  0  0  0  0  0  0  0  0  0  0  0
    2.5227   -1.1203    1.0150 C   0  0  0  0  0  0  0  0  0  0  0  0
    4.2614    0.4063    0.2686 C   0  0  0  0  0  0  0  0  0  0  0  0
    5.3131    1.2768    0.5750 N   0  0  0  0  0  0  0  0  0  0  0  0
    3.6524   -0.3428    1.2812 C   0  0  0  0  0  0  0  0  0  0  0  0
    3.6679    0.4408   -0.9978 C   0  0  0  0  0  0  0  0  0  0  0  0
   -2.5738    1.2279   -0.1066 C   0  0  0  0  0  0  0  0  0  0  0  0
   -4.2369   -0.4382    0.4601 C   0  0  0  0  0  0  0  0  0  0  0  0
   -5.1284    0.5734    0.8214 C   0  0  0  0  0  0  0  0  0  0  0  0
   -3.4707    2.2369    0.2550 C   0  0  0  0  0  0  0  0  0  0  0  0
   -4.7433    1.9091    0.7215 C   0  0  0  0  0  0  0  0  0  0  0  0
   -0.3396   -0.0964    0.1722 H   0  0  0  0  0  0  0  0  0  0  0  0
    2.1086   -0.3151   -2.2786 H   0  0  0  0  0  0  0  0  0  0  0  0
    2.0823   -1.7203    1.8086 H   0  0  0  0  0  0  0  0  0  0  0  0
    5.8758    0.9791    1.3666 H   0  0  0  0  0  0  0  0  0  0  0  0
    5.8871    1.5257   -0.2253 H   0  0  0  0  0  0  0  0  0  0  0  0
    4.0608   -0.3322    2.2891 H   0  0  0  0  0  0  0  0  0  0  0  0
    4.0883    1.0670   -1.7811 H   0  0  0  0  0  0  0  0  0  0  0  0
   -1.6050    1.5182   -0.5020 H   0  0  0  0  0  0  0  0  0  0  0  0
   -4.5482   -1.4788    0.5407 H   0  0  0  0  0  0  0  0  0  0  0  0
   -6.1237    0.3179    1.1777 H   0  0  0  0  0  0  0  0  0  0  0  0
   -3.1819    3.2817    0.1634 H   0  0  0  0  0  0  0  0  0  0  0  0
   -5.4405    2.6965    0.9992 H   0  0  0  0  0  0  0  0  0  0  0  0
  2  1  1  0
  3  2  1  0
  4  1  1  0
  5  1  2  0
  6  1  2  0
  7  3  2  0
  8  3  1  0
  9  4  2  0
 10  4  1  0
 11 13  1  0
 12 11  1  0
 13 10  2  0
 14  9  1  0
 15  8  2  0
 16  8  1  0
 17 16  2  0
 18 15  1  0
 19 17  1  0
 11 14  2  0
 19 18  2  0
  2 20  1  0
  9 21  1  0
 10 22  1  0
 12 23  1  0
 12 24  1  0
 13 25  1  0
 14 26  1  0
 15 27  1  0
 16 28  1  0
 17 29  1  0
 18 30  1  0
 19 31  1  0
M  END
$$$$
