
     RDKit          3D

 19 20  0  0  0  0  0  0  0  0999 V2000
    0.6540   -1.3995   -0.8584 S   0  0  0  0  0  0  0  0  0  0  0  0
   -0.8229   -0.5275   -0.8200 N   0  0  0  0  0  0  0  0  0  0  0  0
   -1.4407   -0.3247    0.4472 C   0  0  0  0  0  0  0  0  0  0  0  0
    2.0361   -0.3350   -0.6925 C   0  0  0  0  0  0  0  0  0  0  0  0
    0.8194   -2.1720   -2.1323 O   0  0  0  0  0  0  0  0  0  0  0  0
    0.6795   -2.3619    0.2925 O   0  0  0  0  0  0  0  0  0  0  0  0
   -0.8191   -0.8227    1.4433 O   0  0  0  0  0  0  0  0  0  0  0  0
   -2.6810    0.3917    0.6019 C   0  0  0  0  0  0  0  0  0  0  0  0
    2.6656    0.2406   -1.7812 C   0  0  0  0  0  0  0  0  0  0  0  0
    2.5142   -0.0615    0.5790 C   0  0  0  0  0  0  0  0  0  0  0  0
    4.2354    1.3507   -0.3239 C   0  0  0  0  0  0  0  0  0  0  0  0
    5.3578    2.2088   -0.1085 N   0  0  0  0  0  0  0  0  0  0  0  0
    3.6090    0.7773    0.7670 C   0  0  0  0  0  0  0  0  0  0  0  0
    3.7654    1.0842   -1.6043 C   0  0  0  0  0  0  0  0  0  0  0  0
   -3.3514    0.9315   -0.4922 C   0  0  0  0  0  0  0  0  0  0  0  0
   -3.2072    0.5400    1.8682 C   0  0  0  0  0  0  0  0  0  0  0  0
   -4.3991    1.2224    2.0636 C   0  0  0  0  0  0  0  0  0  0  0  0
   -4.5400    1.6071   -0.2600 C   0  0  0  0  0  0  0  0  0  0  0  0
   -5.0750    1.7601    1.0106 C   0  0  0  0  0  0  0  0  0  0  0  0
  2  1  1  0
  3  2  1  0
  4  1  1  0
  5  1  2  0
  6  1  2  0
  7  3  2  0
  8  3  1  0
  9  4  2  0
 10  4  1  0
 11 13  1  0
 12 11  1  0
 13 10  2  0
 14  9  1  0
 15  8  2  0
 16  8  1  0
 17 16  2  0
 18 15  1  0
 19 17  1  0
 11 14  2  0
 19 18  2  0
M  END
