
     RDKit          3D

 31 32  0  0  0  0  0  0  0  0999 V2000
   -0.6884   -2.3288   -0.5734 S   0  0  0  0  0  0  0  0  0  0  0  0
    0.6896   -1.5130   -0.1242 N   0  0  0  0  0  0  0  0  0  0  0  0
    1.2907   -0.4875   -0.8619 C   0  0  0  0  0  0  0  0  0  0  0  0
   -1.9506   -1.0900   -0.4449 C   0  0  0  0  0  0  0  0  0  0  0  0
   -0.5744   -2.7629   -1.9467 O   0  0  0  0  0  0  0  0  0  0  0  0
   -0.9120   -3.2899    0.4888 O   0  0  0  0  0  0  0  0  0  0  0  0
    0.8345   -0.0489   -1.9056 O   0  0  0  0  0  0  0  0  0  0  0  0
    2.5469    0.0718   -0.2875 C   0  0  0  0  0  0  0  0  0  0  0  0
   -2.6216   -0.9055    0.7658 C   0  0  0  0  0  0  0  0  0  0  0  0
   -2.3197   -0.3577   -1.5738 C   0  0  0  0  0  0  0  0  0  0  0  0
   -3.9676    0.8453   -0.2521 C   0  0  0  0  0  0  0  0  0  0  0  0
   -5.0629    1.7133   -0.1907 N   0  0  0  0  0  0  0  0  0  0  0  0
   -3.3365    0.5958   -1.4748 C   0  0  0  0  0  0  0  0  0  0  0  0
   -3.6377    0.0508    0.8507 C   0  0  0  0  0  0  0  0  0  0  0  0
    2.8742   -0.0286    1.0724 C   0  0  0  0  0  0  0  0  0  0  0  0
    3.4331    0.7201   -1.1605 C   0  0  0  0  0  0  0  0  0  0  0  0
    4.6341    1.2490   -0.6844 C   0  0  0  0  0  0  0  0  0  0  0  0
    4.0775    0.5038    1.5443 C   0  0  0  0  0  0  0  0  0  0  0  0
    4.9562    1.1379    0.6667 C   0  0  0  0  0  0  0  0  0  0  0  0
    1.1243   -1.9295    0.6897 H   0  0  0  0  0  0  0  0  0  0  0  0
   -2.3795   -1.5091    1.6370 H   0  0  0  0  0  0  0  0  0  0  0  0
   -1.8264   -0.5236   -2.5299 H   0  0  0  0  0  0  0  0  0  0  0  0
   -5.0487    2.4451   -0.8944 H   0  0  0  0  0  0  0  0  0  0  0  0
   -5.2562    2.0736    0.7381 H   0  0  0  0  0  0  0  0  0  0  0  0
   -3.6317    1.1434   -2.3663 H   0  0  0  0  0  0  0  0  0  0  0  0
   -4.1775    0.1667    1.7872 H   0  0  0  0  0  0  0  0  0  0  0  0
    2.2009   -0.4848    1.7912 H   0  0  0  0  0  0  0  0  0  0  0  0
    3.1930    0.8120   -2.2189 H   0  0  0  0  0  0  0  0  0  0  0  0
    5.3169    1.7476   -1.3685 H   0  0  0  0  0  0  0  0  0  0  0  0
    4.3285    0.4314    2.6004 H   0  0  0  0  0  0  0  0  0  0  0  0
    5.8912    1.5520    1.0373 H   0  0  0  0  0  0  0  0  0  0  0  0
  2  1  1  0
  3  2  1  0
  4  1  1  0
  5  1  2  0
  6  1  2  0
  7  3  2  0
  8  3  1  0
  9  4  2  0
 10  4  1  0
 11 13  1  0
 12 11  1  0
 13 10  2  0
 14  9  1  0
 15  8  2  0
 16  8  1  0
 17 16  2  0
 18 15  1  0
 19 17  1  0
 11 14  2  0
 19 18  2  0
  2 20  1  0
  9 21  1  0
 10 22  1  0
 12 23  1  0
 12 24  1  0
 13 25  1  0
 14 26  1  0
 15 27  1  0
 16 28  1  0
 17 29  1  0
 18 30  1  0
 19 31  1  0
M  END
$$$$
