
     RDKit          3D

140137  0  0  0  0  0  0  0  0999 V2000
    3.4647    0.0977   -0.6885 O   0  0  0  0  0  0  0  0  0  0  0  0
    2.0545   -1.5767    0.0060 O   0  0  0  0  0  0  0  0  0  0  0  0
    6.0921   -2.5068   -0.4275 O   0  0  0  0  0  0  0  0  0  0  0  0
    6.9245    0.0611    0.4042 O   0  0  0  0  0  0  0  0  0  0  0  0
    2.2874   -0.3935   -0.2096 C   0  0  0  0  0  0  0  0  0  0  0  0
    5.1443   -1.5680    0.0982 C   0  0  2  0  0  0  0  0  0  0  0  0
    4.4451   -0.8789   -1.0794 C   0  0  0  0  0  0  0  0  0  0  0  0
    1.3147    0.7442   -0.0058 C   0  0  0  0  0  0  0  0  0  0  0  0
    0.1400    0.3240    0.8764 C   0  0  0  0  0  0  0  0  0  0  0  0
    5.8287   -0.5794    1.0523 C   0  0  0  0  0  0  0  0  0  0  0  0
   -0.7983    1.4860    1.2171 C   0  0  0  0  0  0  0  0  0  0  0  0
   -1.4939    2.1440    0.0194 C   0  0  0  0  0  0  0  0  0  0  0  0
   -2.3371    1.2045   -0.8530 C   0  0  0  0  0  0  0  0  0  0  0  0
   -3.4457    0.4932   -0.0720 C   0  0  0  0  0  0  0  0  0  0  0  0
   -4.3503   -0.3242   -0.9960 C   0  0  0  0  0  0  0  0  0  0  0  0
   -5.3828   -1.1666   -0.2435 C   0  0  0  0  0  0  0  0  0  0  0  0
   -6.4000   -0.3388    0.5262 C   0  0  0  0  0  0  0  0  0  0  0  0
    2.6698    0.0406   -1.1666 C   0  0  0  0  0  0  0  0  0  0  0  0
   -2.4734    0.8533    0.1326 C   0  0  0  0  0  0  0  0  0  0  0  0
    2.2220    1.2402   -0.7048 O   0  0  0  0  0  0  0  0  0  0  0  0
    2.2474   -1.0472   -0.8024 O   0  0  0  0  0  0  0  0  0  0  0  0
   -2.7854    1.1276   -1.0157 O   0  0  0  0  0  0  0  0  0  0  0  0
   -1.1932    0.7425    0.5868 O   0  0  0  0  0  0  0  0  0  0  0  0
    1.1799    1.1763    0.2914 C   0  0  2  0  0  0  0  0  0  0  0  0
   -0.1869    1.0307   -0.3934 C   0  0  0  0  0  0  0  0  0  0  0  0
    0.3460    2.5094    2.2001 O   0  0  0  0  0  0  0  0  0  0  0  0
    3.7392    0.2520   -2.2135 C   0  0  0  0  0  0  0  0  0  0  0  0
   -3.4295    0.6083    1.2784 C   0  0  0  0  0  0  0  0  0  0  0  0
    1.2754    2.4638    1.1260 C   0  0  0  0  0  0  0  0  0  0  0  0
    4.7926   -0.8562   -2.1897 C   0  0  0  0  0  0  0  0  0  0  0  0
   -4.8963    0.5799    0.8513 C   0  0  0  0  0  0  0  0  0  0  0  0
    8.4904   -0.8314    0.5954 C   0  0  0  0  0  0  0  0  0  0  0  0
   -9.1911   -0.8395    0.2375 C   0  0  0  0  0  0  0  0  0  0  0  0
   -7.7581   -0.6475    0.7358 C   0  0  0  0  0  0  0  0  0  0  0  0
    7.5099   -1.9902    0.3891 C   0  0  0  0  0  0  0  0  0  0  0  0
   -5.2736   -0.7207    0.1370 C   0  0  0  0  0  0  0  0  0  0  0  0
   -6.7170   -0.7319   -0.3831 C   0  0  0  0  0  0  0  0  0  0  0  0
    5.6957   -0.7650   -0.9551 C   0  0  0  0  0  0  0  0  0  0  0  0
    6.6952   -1.9178   -0.9078 C   0  0  0  0  0  0  0  0  0  0  0  0
    7.9228    0.3034    1.4404 C   0  0  0  0  0  0  0  0  0  0  0  0
   -9.6842    0.2979   -0.6427 C   0  0  0  0  0  0  0  0  0  0  0  0
    2.5894    0.7944    0.8463 O   0  0  0  0  0  0  0  0  0  0  0  0
    2.1578    0.7044   -1.4049 O   0  0  0  0  0  0  0  0  0  0  0  0
    4.3052   -1.4939    1.4585 O   0  0  0  0  0  0  0  0  0  0  0  0
    6.7496   -0.2353    0.8425 O   0  0  0  0  0  0  0  0  0  0  0  0
    1.7746    0.7544   -0.2454 C   0  0  0  0  0  0  0  0  0  0  0  0
    4.4457   -0.6991    0.2699 C   0  0  1  0  0  0  0  0  0  0  0  0
    3.9994    0.7378    0.5690 C   0  0  0  0  0  0  0  0  0  0  0  0
    0.3331    0.7835    0.2092 C   0  0  0  0  0  0  0  0  0  0  0  0
    5.9062   -0.7513   -0.1873 C   0  0  0  0  0  0  0  0  0  0  0  0
   -0.6400    0.7195   -0.9670 C   0  0  0  0  0  0  0  0  0  0  0  0
   -2.1120    0.8490   -0.5598 C   0  0  0  0  0  0  0  0  0  0  0  0
   -2.5848   -0.2759    0.3673 C   0  0  0  0  0  0  0  0  0  0  0  0
   -4.0818   -0.2097    0.6836 C   0  0  0  0  0  0  0  0  0  0  0  0
   -4.9605   -0.6064   -0.5018 C   0  0  0  0  0  0  0  0  0  0  0  0
   -6.4344   -0.5859   -0.1250 C   0  0  0  0  0  0  0  0  0  0  0  0
    6.8905   -2.4730    0.1324 H   0  0  0  0  0  0  0  0  0  0  0  0
    7.3372    0.6550    1.0534 H   0  0  0  0  0  0  0  0  0  0  0  0
    4.4149   -2.1395    0.6808 H   0  0  0  0  0  0  0  0  0  0  0  0
    5.1870   -0.3628   -1.6977 H   0  0  0  0  0  0  0  0  0  0  0  0
    3.9842   -1.6214   -1.7458 H   0  0  0  0  0  0  0  0  0  0  0  0
    0.9642    1.0580   -0.9941 H   0  0  0  0  0  0  0  0  0  0  0  0
    1.8463    1.5774    0.4667 H   0  0  0  0  0  0  0  0  0  0  0  0
    0.5243   -0.0936    1.8143 H   0  0  0  0  0  0  0  0  0  0  0  0
   -0.4178   -0.4881    0.3958 H   0  0  0  0  0  0  0  0  0  0  0  0
    6.2355   -1.1202    1.9144 H   0  0  0  0  0  0  0  0  0  0  0  0
    5.1305    0.1815    1.4115 H   0  0  0  0  0  0  0  0  0  0  0  0
   -0.2267    2.2575    1.7483 H   0  0  0  0  0  0  0  0  0  0  0  0
   -1.5525    1.1287    1.9287 H   0  0  0  0  0  0  0  0  0  0  0  0
   -2.1386    2.9469    0.4010 H   0  0  0  0  0  0  0  0  0  0  0  0
   -0.7458    2.6320   -0.6178 H   0  0  0  0  0  0  0  0  0  0  0  0
   -1.6943    0.4640   -1.3446 H   0  0  0  0  0  0  0  0  0  0  0  0
   -2.7931    1.8036   -1.6534 H   0  0  0  0  0  0  0  0  0  0  0  0
   -4.0421    1.2363    0.4703 H   0  0  0  0  0  0  0  0  0  0  0  0
   -3.0038   -0.1765    0.6715 H   0  0  0  0  0  0  0  0  0  0  0  0
   -3.7331   -1.0004   -1.6000 H   0  0  0  0  0  0  0  0  0  0  0  0
   -4.8633    0.3436   -1.6960 H   0  0  0  0  0  0  0  0  0  0  0  0
   -4.8735   -1.8434    0.4499 H   0  0  0  0  0  0  0  0  0  0  0  0
   -5.9181   -1.7954   -0.9666 H   0  0  0  0  0  0  0  0  0  0  0  0
   -5.9295    0.2355    1.3289 H   0  0  0  0  0  0  0  0  0  0  0  0
   -6.9188    0.3618   -0.1346 H   0  0  0  0  0  0  0  0  0  0  0  0
   -7.1515   -0.9893    0.9830 H   0  0  0  0  0  0  0  0  0  0  0  0
    1.3405    0.3337    0.9795 H   0  0  0  0  0  0  0  0  0  0  0  0
   -0.4249    1.9558   -0.9348 H   0  0  0  0  0  0  0  0  0  0  0  0
   -0.1575    0.2120   -1.1253 H   0  0  0  0  0  0  0  0  0  0  0  0
    0.4558    1.7029    2.7331 H   0  0  0  0  0  0  0  0  0  0  0  0
    4.2209    1.2228   -2.0539 H   0  0  0  0  0  0  0  0  0  0  0  0
    3.2416    0.2782   -3.1906 H   0  0  0  0  0  0  0  0  0  0  0  0
   -3.2829    1.4269    1.9925 H   0  0  0  0  0  0  0  0  0  0  0  0
   -3.1638   -0.3338    1.7727 H   0  0  0  0  0  0  0  0  0  0  0  0
    1.1098    3.3458    0.4976 H   0  0  0  0  0  0  0  0  0  0  0  0
    2.2831    2.5729    1.5442 H   0  0  0  0  0  0  0  0  0  0  0  0
    5.4132   -0.7701   -3.0906 H   0  0  0  0  0  0  0  0  0  0  0  0
    4.3080   -1.8401   -2.2288 H   0  0  0  0  0  0  0  0  0  0  0  0
   -5.1174    1.4380    0.2091 H   0  0  0  0  0  0  0  0  0  0  0  0
   -5.5077    0.6922    1.7539 H   0  0  0  0  0  0  0  0  0  0  0  0
    8.8426   -0.4475   -0.3710 H   0  0  0  0  0  0  0  0  0  0  0  0
    9.3729   -1.2213    1.1184 H   0  0  0  0  0  0  0  0  0  0  0  0
   -9.8536   -0.9234    1.1067 H   0  0  0  0  0  0  0  0  0  0  0  0
   -9.2731   -1.7867   -0.3085 H   0  0  0  0  0  0  0  0  0  0  0  0
   -7.6875    0.3133    1.2571 H   0  0  0  0  0  0  0  0  0  0  0  0
   -7.5466   -1.4260    1.4773 H   0  0  0  0  0  0  0  0  0  0  0  0
    8.0912   -2.9213    0.3450 H   0  0  0  0  0  0  0  0  0  0  0  0
    6.8367   -2.0907    1.2502 H   0  0  0  0  0  0  0  0  0  0  0  0
   -5.1226   -1.5659    0.8173 H   0  0  0  0  0  0  0  0  0  0  0  0
   -4.6046   -0.8798   -0.7178 H   0  0  0  0  0  0  0  0  0  0  0  0
   -6.8515    0.0967   -1.0870 H   0  0  0  0  0  0  0  0  0  0  0  0
   -6.8681   -1.6612   -0.9459 H   0  0  0  0  0  0  0  0  0  0  0  0
    5.0889   -0.7708   -0.0452 H   0  0  0  0  0  0  0  0  0  0  0  0
    6.2290    0.1896   -0.9852 H   0  0  0  0  0  0  0  0  0  0  0  0
    6.1485   -2.8613   -1.0127 H   0  0  0  0  0  0  0  0  0  0  0  0
    7.3727   -1.8555   -1.7677 H   0  0  0  0  0  0  0  0  0  0  0  0
    7.0551    0.7752    0.9664 H   0  0  0  0  0  0  0  0  0  0  0  0
    8.6919    1.0703    1.5830 H   0  0  0  0  0  0  0  0  0  0  0  0
    7.6221   -0.0649    2.4322 H   0  0  0  0  0  0  0  0  0  0  0  0
   -9.6200    1.2566   -0.1140 H   0  0  0  0  0  0  0  0  0  0  0  0
  -10.7324    0.1286   -0.9123 H   0  0  0  0  0  0  0  0  0  0  0  0
   -9.1080    0.3671   -1.5723 H   0  0  0  0  0  0  0  0  0  0  0  0
    5.0512   -1.2349    2.0319 H   0  0  0  0  0  0  0  0  0  0  0  0
    7.1519    0.5863    0.5026 H   0  0  0  0  0  0  0  0  0  0  0  0
    3.8070   -1.1609   -0.4874 H   0  0  0  0  0  0  0  0  0  0  0  0
    4.4967    1.1165    1.4691 H   0  0  0  0  0  0  0  0  0  0  0  0
    4.2429    1.4193   -0.2545 H   0  0  0  0  0  0  0  0  0  0  0  0
    0.1749    1.7080    0.7750 H   0  0  0  0  0  0  0  0  0  0  0  0
    0.1838   -0.0738    0.8686 H   0  0  0  0  0  0  0  0  0  0  0  0
    6.2148   -1.7874   -0.3532 H   0  0  0  0  0  0  0  0  0  0  0  0
    6.0620   -0.1869   -1.1121 H   0  0  0  0  0  0  0  0  0  0  0  0
   -0.4083    1.5298   -1.6699 H   0  0  0  0  0  0  0  0  0  0  0  0
   -0.4958   -0.2217   -1.5150 H   0  0  0  0  0  0  0  0  0  0  0  0
   -2.7093    0.8485   -1.4778 H   0  0  0  0  0  0  0  0  0  0  0  0
   -2.2738    1.8186   -0.0712 H   0  0  0  0  0  0  0  0  0  0  0  0
   -2.3444   -1.2501   -0.0736 H   0  0  0  0  0  0  0  0  0  0  0  0
   -2.0431   -0.2138    1.3179 H   0  0  0  0  0  0  0  0  0  0  0  0
   -4.3439    0.7989    1.0260 H   0  0  0  0  0  0  0  0  0  0  0  0
   -4.2873   -0.8932    1.5198 H   0  0  0  0  0  0  0  0  0  0  0  0
   -4.6888   -1.6137   -0.8415 H   0  0  0  0  0  0  0  0  0  0  0  0
   -4.8068    0.0727   -1.3475 H   0  0  0  0  0  0  0  0  0  0  0  0
   -7.0453   -0.9137   -0.9718 H   0  0  0  0  0  0  0  0  0  0  0  0
   -6.6341   -1.2560    0.7157 H   0  0  0  0  0  0  0  0  0  0  0  0
   -6.7517    0.4223    0.1552 H   0  0  0  0  0  0  0  0  0  0  0  0
  1  5  1  0
  1  7  1  0
  2  5  2  0
  3  6  1  0
  4 10  1  0
  5  8  1  0
  6  7  1  0
  6 10  1  0
  8  9  1  0
  9 11  1  0
 11 12  1  0
 12 13  1  0
 13 14  1  0
 14 15  1  0
 15 16  1  0
 16 17  1  0
 19 23  1  0
 20 18  1  0
 21 18  2  0
 22 19  2  0
 23 25  1  0
 24 20  1  0
 25 24  1  0
 26 29  1  0
 27 18  1  0
 28 19  1  0
 29 24  1  0
 30 27  1  0
 31 28  1  0
 32 35  1  0
 33 34  1  0
 34 37  1  0
 35 39  1  0
 36 31  1  0
 37 36  1  0
 38 30  1  0
 39 38  1  0
 40 32  1  0
 41 33  1  0
 42 46  1  0
 42 48  1  0
 43 46  2  0
 44 47  1  0
 45 50  1  0
 46 49  1  0
 47 48  1  0
 47 50  1  0
 49 51  1  0
 51 52  1  0
 52 53  1  0
 53 54  1  0
 54 55  1  0
 55 56  1  0
  3 57  1  0
  4 58  1  0
  6 59  1  1
  7 60  1  0
  7 61  1  0
  8 62  1  0
  8 63  1  0
  9 64  1  0
  9 65  1  0
 10 66  1  0
 10 67  1  0
 11 68  1  0
 11 69  1  0
 12 70  1  0
 12 71  1  0
 13 72  1  0
 13 73  1  0
 14 74  1  0
 14 75  1  0
 15 76  1  0
 15 77  1  0
 16 78  1  0
 16 79  1  0
 17 80  1  0
 17 81  1  0
 17 82  1  0
 24 83  1  1
 25 84  1  0
 25 85  1  0
 26 86  1  0
 27 87  1  0
 27 88  1  0
 28 89  1  0
 28 90  1  0
 29 91  1  0
 29 92  1  0
 30 93  1  0
 30 94  1  0
 31 95  1  0
 31 96  1  0
 32 97  1  0
 32 98  1  0
 33 99  1  0
 33100  1  0
 34101  1  0
 34102  1  0
 35103  1  0
 35104  1  0
 36105  1  0
 36106  1  0
 37107  1  0
 37108  1  0
 38109  1  0
 38110  1  0
 39111  1  0
 39112  1  0
 40113  1  0
 40114  1  0
 40115  1  0
 41116  1  0
 41117  1  0
 41118  1  0
 44119  1  0
 45120  1  0
 47121  1  6
 48122  1  0
 48123  1  0
 49124  1  0
 49125  1  0
 50126  1  0
 50127  1  0
 51128  1  0
 51129  1  0
 52130  1  0
 52131  1  0
 53132  1  0
 53133  1  0
 54134  1  0
 54135  1  0
 55136  1  0
 55137  1  0
 56138  1  0
 56139  1  0
 56140  1  0
M  END
$$$$
