
     RDKit          3D

 56 53  0  0  0  0  0  0  0  0999 V2000
    2.4913   -0.0040    0.3517 O   0  0  0  0  0  0  0  0  0  0  0  0
    0.9197    1.4417   -0.5798 O   0  0  0  0  0  0  0  0  0  0  0  0
    3.7400   -0.4128    2.7424 O   0  0  0  0  0  0  0  0  0  0  0  0
    4.7269   -1.1764    0.1908 O   0  0  0  0  0  0  0  0  0  0  0  0
    1.3871    0.2769   -0.4449 C   0  0  0  0  0  0  0  0  0  0  0  0
    4.2771    0.5266    1.8317 C   0  0  0  0  0  0  0  0  0  0  0  0
    3.1074    1.0553    1.0300 C   0  0  0  0  0  0  0  0  0  0  0  0
    0.7373   -0.8778   -1.1675 C   0  0  0  0  0  0  0  0  0  0  0  0
   -0.4320   -1.2555   -0.2896 C   0  0  0  0  0  0  0  0  0  0  0  0
    5.2927   -0.1404    0.9248 C   0  0  0  0  0  0  0  0  0  0  0  0
   -1.3339   -0.0546   -0.1776 C   0  0  0  0  0  0  0  0  0  0  0  0
   -1.7973    0.3073   -1.5716 C   0  0  0  0  0  0  0  0  0  0  0  0
   -2.7168    1.5076   -1.5667 C   0  0  0  0  0  0  0  0  0  0  0  0
   -3.9589    1.2808   -0.7457 C   0  0  0  0  0  0  0  0  0  0  0  0
   -4.8098    0.1426   -1.2078 C   0  0  0  0  0  0  0  0  0  0  0  0
   -6.0580   -0.0671   -0.3639 C   0  0  0  0  0  0  0  0  0  0  0  0
   -5.5729   -0.3502    1.0436 C   0  0  0  0  0  0  0  0  0  0  0  0
    2.2453   -0.3833    0.4713 C   0  0  0  0  0  0  0  0  0  0  0  0
   -2.8656   -1.9303   -0.4192 C   0  0  0  0  0  0  0  0  0  0  0  0
    1.0623   -0.8032    1.0192 O   0  0  0  0  0  0  0  0  0  0  0  0
    2.4284   -0.0537   -0.7227 O   0  0  0  0  0  0  0  0  0  0  0  0
   -3.0167   -1.7131    0.8117 O   0  0  0  0  0  0  0  0  0  0  0  0
   -1.6523   -2.1728   -1.0192 O   0  0  0  0  0  0  0  0  0  0  0  0
   -0.1136   -0.9222    0.3201 C   0  0  0  0  0  0  0  0  0  0  0  0
   -0.4100   -2.2129   -0.3449 C   0  0  0  0  0  0  0  0  0  0  0  0
    0.0650    0.9074   -1.2651 O   0  0  0  0  0  0  0  0  0  0  0  0
    3.4540   -0.3010    1.3649 C   0  0  0  0  0  0  0  0  0  0  0  0
   -4.0712   -1.9314   -1.3214 C   0  0  0  0  0  0  0  0  0  0  0  0
   -0.6980    0.2731   -0.3180 C   0  0  0  0  0  0  0  0  0  0  0  0
    4.6701    0.1690    0.6407 C   0  0  0  0  0  0  0  0  0  0  0  0
   -5.3212   -1.6563   -0.5470 C   0  0  0  0  0  0  0  0  0  0  0  0
    7.2077    0.5969    0.8545 C   0  0  0  0  0  0  0  0  0  0  0  0
   -6.5124    2.2954    0.6753 C   0  0  0  0  0  0  0  0  0  0  0  0
   -5.1842    2.1581   -0.0757 C   0  0  0  0  0  0  0  0  0  0  0  0
    7.0103    1.9594    0.2482 C   0  0  0  0  0  0  0  0  0  0  0  0
   -5.3248   -0.3340    0.1562 C   0  0  0  0  0  0  0  0  0  0  0  0
   -5.1774    0.8288   -0.8164 C   0  0  0  0  0  0  0  0  0  0  0  0
    4.5569    1.5316    0.0234 C   0  0  0  0  0  0  0  0  0  0  0  0
    5.8439    1.9295   -0.6947 C   0  0  0  0  0  0  0  0  0  0  0  0
    8.3835    0.6382    1.8013 C   0  0  0  0  0  0  0  0  0  0  0  0
   -6.5801    1.1267    1.6377 C   0  0  0  0  0  0  0  0  0  0  0  0
   -1.7262    0.9302    0.6677 O   0  0  0  0  0  0  0  0  0  0  0  0
   -1.1358   -1.1436   -0.1973 O   0  0  0  0  0  0  0  0  0  0  0  0
   -3.7186    1.2508   -1.4051 O   0  0  0  0  0  0  0  0  0  0  0  0
   -4.9672   -1.3666    0.7358 O   0  0  0  0  0  0  0  0  0  0  0  0
   -0.8097    0.0228    0.1492 C   0  0  0  0  0  0  0  0  0  0  0  0
   -3.7607    0.2569   -0.4607 C   0  0  0  0  0  0  0  0  0  0  0  0
   -3.0962    0.6228    0.8497 C   0  0  0  0  0  0  0  0  0  0  0  0
    0.5966    0.4910    0.0168 C   0  0  0  0  0  0  0  0  0  0  0  0
   -5.0971   -0.3786   -0.2551 C   0  0  0  0  0  0  0  0  0  0  0  0
    1.5050   -0.5529   -0.5487 C   0  0  0  0  0  0  0  0  0  0  0  0
    2.8967    0.0909   -0.6155 C   0  0  0  0  0  0  0  0  0  0  0  0
    3.8302   -0.9463   -1.1839 C   0  0  0  0  0  0  0  0  0  0  0  0
    5.2137   -0.3483   -1.2653 C   0  0  0  0  0  0  0  0  0  0  0  0
    5.6291    0.0325    0.1360 C   0  0  0  0  0  0  0  0  0  0  0  0
    4.6401    1.0383    0.6545 C   0  0  0  0  0  0  0  0  0  0  0  0
  1  5  1  0
  1  7  1  0
  2  5  2  0
  3  6  1  0
  4 10  1  0
  5  8  1  0
  6  7  1  0
  6 10  1  0
  8  9  1  0
  9 11  1  0
 11 12  1  0
 12 13  1  0
 13 14  1  0
 14 15  1  0
 15 16  1  0
 16 17  1  0
 19 23  1  0
 20 18  1  0
 21 18  2  0
 22 19  2  0
 23 25  1  0
 24 20  1  0
 25 24  1  0
 26 29  1  0
 27 18  1  0
 28 19  1  0
 29 24  1  0
 30 27  1  0
 31 28  1  0
 32 35  1  0
 33 34  1  0
 34 37  1  0
 35 39  1  0
 36 31  1  0
 37 36  1  0
 38 30  1  0
 39 38  1  0
 40 32  1  0
 41 33  1  0
 42 46  1  0
 42 48  1  0
 43 46  2  0
 44 47  1  0
 45 50  1  0
 46 49  1  0
 47 48  1  0
 47 50  1  0
 49 51  1  0
 51 52  1  0
 52 53  1  0
 53 54  1  0
 54 55  1  0
 55 56  1  0
M  END
