
     RDKit          3D

140137  0  0  0  0  0  0  0  0999 V2000
   -2.7416    0.8117   -0.0448 O   0  0  0  0  0  0  0  0  0  0  0  0
   -0.9645    0.5588    1.3954 O   0  0  0  0  0  0  0  0  0  0  0  0
   -4.1856   -0.8412   -1.8008 O   0  0  0  0  0  0  0  0  0  0  0  0
   -5.5321   -2.0736    1.3895 O   0  0  0  0  0  0  0  0  0  0  0  0
   -1.5821    1.2015    0.5548 C   0  0  0  0  0  0  0  0  0  0  0  0
   -4.4995   -0.7858   -0.4024 C   0  0  2  0  0  0  0  0  0  0  0  0
   -3.2343   -0.4660    0.3999 C   0  0  0  0  0  0  0  0  0  0  0  0
   -1.1450    2.5399    0.0186 C   0  0  0  0  0  0  0  0  0  0  0  0
   -0.6089    2.4466   -1.4068 C   0  0  0  0  0  0  0  0  0  0  0  0
   -5.1197   -2.1162    0.0290 C   0  0  0  0  0  0  0  0  0  0  0  0
    0.6368    1.5693   -1.5733 C   0  0  0  0  0  0  0  0  0  0  0  0
    1.8517    2.0843   -0.7946 C   0  0  0  0  0  0  0  0  0  0  0  0
    3.1582    1.3671   -1.1600 C   0  0  0  0  0  0  0  0  0  0  0  0
    3.2020   -0.1360   -0.8522 C   0  0  0  0  0  0  0  0  0  0  0  0
    3.0963   -0.4506    0.6413 C   0  0  0  0  0  0  0  0  0  0  0  0
    3.2151   -1.9483    0.9515 C   0  0  0  0  0  0  0  0  0  0  0  0
    4.6226   -2.4912    0.7568 C   0  0  0  0  0  0  0  0  0  0  0  0
   -2.1323    0.7179   -0.1153 C   0  0  0  0  0  0  0  0  0  0  0  0
    3.0237    1.9700   -0.5351 C   0  0  0  0  0  0  0  0  0  0  0  0
   -1.0055    0.6759    0.6475 O   0  0  0  0  0  0  0  0  0  0  0  0
   -2.3361    1.5180   -1.0125 O   0  0  0  0  0  0  0  0  0  0  0  0
    2.6524    1.2816   -1.4763 O   0  0  0  0  0  0  0  0  0  0  0  0
    2.4339    2.0036    0.6923 O   0  0  0  0  0  0  0  0  0  0  0  0
    0.0166    1.6421    0.3157 C   0  0  2  0  0  0  0  0  0  0  0  0
    1.3358    1.1043    0.8858 C   0  0  0  0  0  0  0  0  0  0  0  0
   -0.4637    2.9356    2.3435 O   0  0  0  0  0  0  0  0  0  0  0  0
   -3.0944   -0.3635    0.3243 C   0  0  0  0  0  0  0  0  0  0  0  0
    4.2098    2.8955   -0.5596 C   0  0  0  0  0  0  0  0  0  0  0  0
   -0.3393    3.0082    0.9225 C   0  0  0  0  0  0  0  0  0  0  0  0
   -4.5361    0.1369    0.2929 C   0  0  0  0  0  0  0  0  0  0  0  0
    5.3743    2.2984    0.2208 C   0  0  0  0  0  0  0  0  0  0  0  0
   -7.4280   -1.7545   -1.2245 C   0  0  0  0  0  0  0  0  0  0  0  0
    5.0746   -1.7664   -0.2414 C   0  0  0  0  0  0  0  0  0  0  0  0
    5.7149   -0.8813    0.8344 C   0  0  0  0  0  0  0  0  0  0  0  0
   -6.0502   -2.3547   -0.9457 C   0  0  0  0  0  0  0  0  0  0  0  0
    6.1358    1.2368   -0.5805 C   0  0  0  0  0  0  0  0  0  0  0  0
    6.7311    0.1491    0.3112 C   0  0  0  0  0  0  0  0  0  0  0  0
   -5.5102   -0.7777    1.0417 C   0  0  0  0  0  0  0  0  0  0  0  0
   -5.6090   -2.2095    0.5182 C   0  0  0  0  0  0  0  0  0  0  0  0
   -7.8950   -2.0542   -2.6334 C   0  0  0  0  0  0  0  0  0  0  0  0
    6.0710   -2.6381   -0.9760 C   0  0  0  0  0  0  0  0  0  0  0  0
   -2.4059   -0.5639   -0.9633 O   0  0  0  0  0  0  0  0  0  0  0  0
   -2.2021    1.4355    0.1418 O   0  0  0  0  0  0  0  0  0  0  0  0
   -4.3759   -2.1300    0.5225 O   0  0  0  0  0  0  0  0  0  0  0  0
   -6.7131   -0.8712   -0.6737 O   0  0  0  0  0  0  0  0  0  0  0  0
   -1.7053    0.4287   -0.3488 C   0  0  0  0  0  0  0  0  0  0  0  0
   -4.4879   -0.7167    0.3218 C   0  0  1  0  0  0  0  0  0  0  0  0
   -3.8311   -0.3649   -1.0223 C   0  0  0  0  0  0  0  0  0  0  0  0
   -0.2316    0.0884   -0.3336 C   0  0  0  0  0  0  0  0  0  0  0  0
   -5.9545   -0.2554    0.3672 C   0  0  0  0  0  0  0  0  0  0  0  0
    0.6225    1.3206   -0.6241 C   0  0  0  0  0  0  0  0  0  0  0  0
    2.1249    1.0181   -0.6871 C   0  0  0  0  0  0  0  0  0  0  0  0
    2.7151    0.6498    0.6808 C   0  0  0  0  0  0  0  0  0  0  0  0
    4.2426    0.5588    0.6637 C   0  0  0  0  0  0  0  0  0  0  0  0
    4.7763   -0.6024   -0.1791 C   0  0  0  0  0  0  0  0  0  0  0  0
    6.2942   -0.6775   -0.1019 C   0  0  0  0  0  0  0  0  0  0  0  0
   -3.6862   -0.0257   -1.9833 H   0  0  0  0  0  0  0  0  0  0  0  0
   -5.9844   -2.9118    1.5679 H   0  0  0  0  0  0  0  0  0  0  0  0
   -5.2177    0.0247   -0.2531 H   0  0  0  0  0  0  0  0  0  0  0  0
   -2.4598   -1.2187    0.2072 H   0  0  0  0  0  0  0  0  0  0  0  0
   -3.4390   -0.4197    1.4738 H   0  0  0  0  0  0  0  0  0  0  0  0
   -0.4040    2.9657    0.7025 H   0  0  0  0  0  0  0  0  0  0  0  0
   -2.0056    3.2218    0.0576 H   0  0  0  0  0  0  0  0  0  0  0  0
   -0.3858    3.4623   -1.7632 H   0  0  0  0  0  0  0  0  0  0  0  0
   -1.3963    2.0507   -2.0642 H   0  0  0  0  0  0  0  0  0  0  0  0
   -4.4138   -2.9399   -0.1037 H   0  0  0  0  0  0  0  0  0  0  0  0
   -5.9890   -2.3333   -0.5995 H   0  0  0  0  0  0  0  0  0  0  0  0
    0.8872    1.5360   -2.6454 H   0  0  0  0  0  0  0  0  0  0  0  0
    0.4072    0.5424   -1.2743 H   0  0  0  0  0  0  0  0  0  0  0  0
    1.9871    3.1539   -1.0092 H   0  0  0  0  0  0  0  0  0  0  0  0
    1.6755    2.0025    0.2798 H   0  0  0  0  0  0  0  0  0  0  0  0
    3.9842    1.8614   -0.6365 H   0  0  0  0  0  0  0  0  0  0  0  0
    3.3481    1.5025   -2.2326 H   0  0  0  0  0  0  0  0  0  0  0  0
    2.4014   -0.6576   -1.3949 H   0  0  0  0  0  0  0  0  0  0  0  0
    4.1471   -0.5260   -1.2485 H   0  0  0  0  0  0  0  0  0  0  0  0
    2.1209   -0.1172    1.0108 H   0  0  0  0  0  0  0  0  0  0  0  0
    3.8590    0.1055    1.2000 H   0  0  0  0  0  0  0  0  0  0  0  0
    2.9273   -2.1133    1.9961 H   0  0  0  0  0  0  0  0  0  0  0  0
    2.5142   -2.5167    0.3319 H   0  0  0  0  0  0  0  0  0  0  0  0
    4.6578   -3.5523    1.0261 H   0  0  0  0  0  0  0  0  0  0  0  0
    5.3417   -1.9646    1.3959 H   0  0  0  0  0  0  0  0  0  0  0  0
    4.9535   -2.4026   -0.2831 H   0  0  0  0  0  0  0  0  0  0  0  0
    0.1026    1.7353   -0.7785 H   0  0  0  0  0  0  0  0  0  0  0  0
    1.2417    0.9391    1.9634 H   0  0  0  0  0  0  0  0  0  0  0  0
    1.5607    0.1143    0.4593 H   0  0  0  0  0  0  0  0  0  0  0  0
   -1.1674    2.2908    2.5236 H   0  0  0  0  0  0  0  0  0  0  0  0
   -2.9565   -1.2302   -0.3321 H   0  0  0  0  0  0  0  0  0  0  0  0
   -2.8361   -0.6683    1.3463 H   0  0  0  0  0  0  0  0  0  0  0  0
    3.9027    3.8519   -0.1200 H   0  0  0  0  0  0  0  0  0  0  0  0
    4.4785    3.1107   -1.6002 H   0  0  0  0  0  0  0  0  0  0  0  0
    0.4301    3.7548    0.6892 H   0  0  0  0  0  0  0  0  0  0  0  0
   -1.2958    3.3802    0.5296 H   0  0  0  0  0  0  0  0  0  0  0  0
   -4.5875    1.1306    0.7517 H   0  0  0  0  0  0  0  0  0  0  0  0
   -4.8663    0.2675   -0.7437 H   0  0  0  0  0  0  0  0  0  0  0  0
    5.0144    1.8874    1.1672 H   0  0  0  0  0  0  0  0  0  0  0  0
    6.0804    3.0924    0.4814 H   0  0  0  0  0  0  0  0  0  0  0  0
   -8.1616   -2.1579   -0.5123 H   0  0  0  0  0  0  0  0  0  0  0  0
   -7.4059   -0.6693   -1.0826 H   0  0  0  0  0  0  0  0  0  0  0  0
    4.3404   -2.4154    0.2445 H   0  0  0  0  0  0  0  0  0  0  0  0
    4.5202   -1.1581   -0.9631 H   0  0  0  0  0  0  0  0  0  0  0  0
    6.2126   -1.5260    1.5673 H   0  0  0  0  0  0  0  0  0  0  0  0
    4.9180   -0.3617    1.3736 H   0  0  0  0  0  0  0  0  0  0  0  0
   -6.0668   -3.4214   -1.1835 H   0  0  0  0  0  0  0  0  0  0  0  0
   -5.3031   -1.9027   -1.6042 H   0  0  0  0  0  0  0  0  0  0  0  0
    6.9582    1.7416   -1.1063 H   0  0  0  0  0  0  0  0  0  0  0  0
    5.5141    0.7843   -1.3574 H   0  0  0  0  0  0  0  0  0  0  0  0
    7.5286   -0.3718   -0.2265 H   0  0  0  0  0  0  0  0  0  0  0  0
    7.2154    0.6186    1.1764 H   0  0  0  0  0  0  0  0  0  0  0  0
   -6.5024   -0.3131    1.0385 H   0  0  0  0  0  0  0  0  0  0  0  0
   -5.2061   -0.8225    2.0945 H   0  0  0  0  0  0  0  0  0  0  0  0
   -6.3122   -2.7608    1.1486 H   0  0  0  0  0  0  0  0  0  0  0  0
   -4.6429   -2.7102    0.6384 H   0  0  0  0  0  0  0  0  0  0  0  0
   -8.8853   -1.6110   -2.8088 H   0  0  0  0  0  0  0  0  0  0  0  0
   -7.2048   -1.6379   -3.3756 H   0  0  0  0  0  0  0  0  0  0  0  0
   -7.9762   -3.1372   -2.8067 H   0  0  0  0  0  0  0  0  0  0  0  0
    6.6701   -3.2343   -0.2830 H   0  0  0  0  0  0  0  0  0  0  0  0
    5.5583   -3.3245   -1.6514 H   0  0  0  0  0  0  0  0  0  0  0  0
    6.7557   -2.0390   -1.5871 H   0  0  0  0  0  0  0  0  0  0  0  0
   -5.1459   -2.4282    1.0375 H   0  0  0  0  0  0  0  0  0  0  0  0
   -7.5977   -0.4625   -0.6595 H   0  0  0  0  0  0  0  0  0  0  0  0
   -3.9548   -0.2451    1.1518 H   0  0  0  0  0  0  0  0  0  0  0  0
   -4.1976   -1.0291   -1.8120 H   0  0  0  0  0  0  0  0  0  0  0  0
   -4.0462    0.6670   -1.3279 H   0  0  0  0  0  0  0  0  0  0  0  0
   -0.0064   -0.3466    0.6444 H   0  0  0  0  0  0  0  0  0  0  0  0
   -0.0326   -0.6732   -1.0975 H   0  0  0  0  0  0  0  0  0  0  0  0
   -6.0192    0.8294    0.2507 H   0  0  0  0  0  0  0  0  0  0  0  0
   -6.4135   -0.5476    1.3145 H   0  0  0  0  0  0  0  0  0  0  0  0
    0.4374    2.1010    0.1296 H   0  0  0  0  0  0  0  0  0  0  0  0
    0.3181    1.7447   -1.5845 H   0  0  0  0  0  0  0  0  0  0  0  0
    2.6360    1.9151   -1.0628 H   0  0  0  0  0  0  0  0  0  0  0  0
    2.3036    0.2174   -1.4096 H   0  0  0  0  0  0  0  0  0  0  0  0
    2.2966   -0.2959    1.0317 H   0  0  0  0  0  0  0  0  0  0  0  0
    2.4316    1.4170    1.4102 H   0  0  0  0  0  0  0  0  0  0  0  0
    4.5933    0.4417    1.6955 H   0  0  0  0  0  0  0  0  0  0  0  0
    4.6619    1.5056    0.2925 H   0  0  0  0  0  0  0  0  0  0  0  0
    4.3440   -1.5474    0.1779 H   0  0  0  0  0  0  0  0  0  0  0  0
    4.4832   -0.4774   -1.2326 H   0  0  0  0  0  0  0  0  0  0  0  0
    6.6554   -1.5172   -0.7112 H   0  0  0  0  0  0  0  0  0  0  0  0
    6.7534    0.2435   -0.4883 H   0  0  0  0  0  0  0  0  0  0  0  0
    6.6311   -0.8304    0.9312 H   0  0  0  0  0  0  0  0  0  0  0  0
  1  5  1  0
  1  7  1  0
  2  5  2  0
  3  6  1  0
  4 10  1  0
  5  8  1  0
  6  7  1  0
  6 10  1  0
  8  9  1  0
  9 11  1  0
 11 12  1  0
 12 13  1  0
 13 14  1  0
 14 15  1  0
 15 16  1  0
 16 17  1  0
 19 23  1  0
 20 18  1  0
 21 18  2  0
 22 19  2  0
 23 25  1  0
 24 20  1  0
 25 24  1  0
 26 29  1  0
 27 18  1  0
 28 19  1  0
 29 24  1  0
 30 27  1  0
 31 28  1  0
 32 35  1  0
 33 34  1  0
 34 37  1  0
 35 39  1  0
 36 31  1  0
 37 36  1  0
 38 30  1  0
 39 38  1  0
 40 32  1  0
 41 33  1  0
 42 46  1  0
 42 48  1  0
 43 46  2  0
 44 47  1  0
 45 50  1  0
 46 49  1  0
 47 48  1  0
 47 50  1  0
 49 51  1  0
 51 52  1  0
 52 53  1  0
 53 54  1  0
 54 55  1  0
 55 56  1  0
  3 57  1  0
  4 58  1  0
  6 59  1  6
  7 60  1  0
  7 61  1  0
  8 62  1  0
  8 63  1  0
  9 64  1  0
  9 65  1  0
 10 66  1  0
 10 67  1  0
 11 68  1  0
 11 69  1  0
 12 70  1  0
 12 71  1  0
 13 72  1  0
 13 73  1  0
 14 74  1  0
 14 75  1  0
 15 76  1  0
 15 77  1  0
 16 78  1  0
 16 79  1  0
 17 80  1  0
 17 81  1  0
 17 82  1  0
 24 83  1  6
 25 84  1  0
 25 85  1  0
 26 86  1  0
 27 87  1  0
 27 88  1  0
 28 89  1  0
 28 90  1  0
 29 91  1  0
 29 92  1  0
 30 93  1  0
 30 94  1  0
 31 95  1  0
 31 96  1  0
 32 97  1  0
 32 98  1  0
 33 99  1  0
 33100  1  0
 34101  1  0
 34102  1  0
 35103  1  0
 35104  1  0
 36105  1  0
 36106  1  0
 37107  1  0
 37108  1  0
 38109  1  0
 38110  1  0
 39111  1  0
 39112  1  0
 40113  1  0
 40114  1  0
 40115  1  0
 41116  1  0
 41117  1  0
 41118  1  0
 44119  1  0
 45120  1  0
 47121  1  1
 48122  1  0
 48123  1  0
 49124  1  0
 49125  1  0
 50126  1  0
 50127  1  0
 51128  1  0
 51129  1  0
 52130  1  0
 52131  1  0
 53132  1  0
 53133  1  0
 54134  1  0
 54135  1  0
 55136  1  0
 55137  1  0
 56138  1  0
 56139  1  0
 56140  1  0
M  END
$$$$
