
     RDKit          3D

140137  0  0  0  0  0  0  0  0999 V2000
    3.5649   -0.1944    0.9187 O   0  0  0  0  0  0  0  0  0  0  0  0
    3.4089   -0.6315    3.1605 O   0  0  0  0  0  0  0  0  0  0  0  0
    7.0906    0.2943   -0.0446 O   0  0  0  0  0  0  0  0  0  0  0  0
    6.0415   -0.0080   -2.5665 O   0  0  0  0  0  0  0  0  0  0  0  0
    2.8837   -0.4045    2.0774 C   0  0  0  0  0  0  0  0  0  0  0  0
    5.6628    0.2947   -0.2034 C   0  0  2  0  0  0  0  0  0  0  0  0
    4.9904   -0.2550    1.0545 C   0  0  0  0  0  0  0  0  0  0  0  0
    1.3882   -0.4057    1.8633 C   0  0  0  0  0  0  0  0  0  0  0  0
    0.9144    0.5683    0.7852 C   0  0  0  0  0  0  0  0  0  0  0  0
    5.3294   -0.5339   -1.4451 C   0  0  0  0  0  0  0  0  0  0  0  0
   -0.6030    0.7808    0.7728 C   0  0  0  0  0  0  0  0  0  0  0  0
   -1.3963   -0.4979    0.4870 C   0  0  0  0  0  0  0  0  0  0  0  0
   -2.9087   -0.2671    0.3922 C   0  0  0  0  0  0  0  0  0  0  0  0
   -3.3292    0.4611   -0.8873 C   0  0  0  0  0  0  0  0  0  0  0  0
   -4.8317    0.7415   -0.9650 C   0  0  0  0  0  0  0  0  0  0  0  0
   -5.6849   -0.5216   -1.0672 C   0  0  0  0  0  0  0  0  0  0  0  0
   -7.1512   -0.1796   -1.2868 C   0  0  0  0  0  0  0  0  0  0  0  0
   -1.8874    0.3443    0.2026 C   0  0  0  0  0  0  0  0  0  0  0  0
    2.6872   -2.1005   -1.1768 C   0  0  0  0  0  0  0  0  0  0  0  0
   -1.4377   -0.8462   -0.2786 O   0  0  0  0  0  0  0  0  0  0  0  0
   -1.2155    1.1451    0.8371 O   0  0  0  0  0  0  0  0  0  0  0  0
    2.5528   -1.1204   -1.8906 O   0  0  0  0  0  0  0  0  0  0  0  0
    1.6610   -2.8040   -0.6185 O   0  0  0  0  0  0  0  0  0  0  0  0
   -0.0723   -1.1854    0.0465 C   0  0  2  0  0  0  0  0  0  0  0  0
    0.3449   -2.3070   -0.9133 C   0  0  0  0  0  0  0  0  0  0  0  0
   -0.6784   -2.8130    1.7897 O   0  0  0  0  0  0  0  0  0  0  0  0
   -3.3254    0.5770   -0.1904 C   0  0  0  0  0  0  0  0  0  0  0  0
    4.0037   -2.7423   -0.8028 C   0  0  0  0  0  0  0  0  0  0  0  0
    0.0489   -1.6149    1.5200 C   0  0  0  0  0  0  0  0  0  0  0  0
   -4.2243   -0.5971    0.1935 C   0  0  0  0  0  0  0  0  0  0  0  0
    5.1884   -1.7843   -0.9334 C   0  0  0  0  0  0  0  0  0  0  0  0
   -8.3322    1.2409   -0.7098 C   0  0  0  0  0  0  0  0  0  0  0  0
    7.6356    2.2149    1.0142 C   0  0  0  0  0  0  0  0  0  0  0  0
    6.3986    1.3174    1.0666 C   0  0  0  0  0  0  0  0  0  0  0  0
   -7.8461    0.8322    0.6833 C   0  0  0  0  0  0  0  0  0  0  0  0
    5.1882   -0.6966    0.1439 C   0  0  0  0  0  0  0  0  0  0  0  0
    6.3973    0.2281   -0.0067 C   0  0  0  0  0  0  0  0  0  0  0  0
   -5.7071   -0.3442   -0.0921 C   0  0  0  0  0  0  0  0  0  0  0  0
   -6.3279    0.6984    0.8424 C   0  0  0  0  0  0  0  0  0  0  0  0
   -7.7699    2.5701   -1.1916 C   0  0  0  0  0  0  0  0  0  0  0  0
    7.7311    3.0479   -0.2560 C   0  0  0  0  0  0  0  0  0  0  0  0
   -2.9558   -0.1548    1.2893 O   0  0  0  0  0  0  0  0  0  0  0  0
   -2.5095    0.9504   -0.6671 O   0  0  0  0  0  0  0  0  0  0  0  0
   -5.4792   -1.4549    1.5683 O   0  0  0  0  0  0  0  0  0  0  0  0
   -5.1798    0.7502   -1.3673 O   0  0  0  0  0  0  0  0  0  0  0  0
   -2.1764    0.1796    0.2237 C   0  0  0  0  0  0  0  0  0  0  0  0
   -5.3774   -0.2017    0.8802 C   0  0  1  0  0  0  0  0  0  0  0  0
   -4.1862    0.5867    1.4366 C   0  0  0  0  0  0  0  0  0  0  0  0
   -0.8705   -0.5769    0.2686 C   0  0  0  0  0  0  0  0  0  0  0  0
   -5.3160   -0.4548   -0.6294 C   0  0  0  0  0  0  0  0  0  0  0  0
    0.2962    0.3296   -0.1106 C   0  0  0  0  0  0  0  0  0  0  0  0
    1.6283   -0.4190   -0.0542 C   0  0  0  0  0  0  0  0  0  0  0  0
    2.8047    0.5068   -0.3696 C   0  0  0  0  0  0  0  0  0  0  0  0
    4.1340   -0.2484   -0.3269 C   0  0  0  0  0  0  0  0  0  0  0  0
    5.3141    0.6897   -0.5842 C   0  0  0  0  0  0  0  0  0  0  0  0
    6.6362   -0.0588   -0.5566 C   0  0  0  0  0  0  0  0  0  0  0  0
    7.3004    0.8845    0.7012 H   0  0  0  0  0  0  0  0  0  0  0  0
    6.9523    0.1342   -2.2413 H   0  0  0  0  0  0  0  0  0  0  0  0
    5.3572    1.3325   -0.3828 H   0  0  0  0  0  0  0  0  0  0  0  0
    5.2978   -1.2930    1.2252 H   0  0  0  0  0  0  0  0  0  0  0  0
    5.3195    0.3384    1.9180 H   0  0  0  0  0  0  0  0  0  0  0  0
    1.0924   -1.4324    1.6173 H   0  0  0  0  0  0  0  0  0  0  0  0
    0.9284   -0.1322    2.8215 H   0  0  0  0  0  0  0  0  0  0  0  0
    1.3974    1.5420    0.9362 H   0  0  0  0  0  0  0  0  0  0  0  0
    1.2376    0.2143   -0.2018 H   0  0  0  0  0  0  0  0  0  0  0  0
    4.2596   -0.5090   -1.6766 H   0  0  0  0  0  0  0  0  0  0  0  0
    5.6415   -1.5778   -1.3229 H   0  0  0  0  0  0  0  0  0  0  0  0
   -0.9232    1.2057    1.7317 H   0  0  0  0  0  0  0  0  0  0  0  0
   -0.8237    1.5359    0.0087 H   0  0  0  0  0  0  0  0  0  0  0  0
   -1.2176   -1.2160    1.2962 H   0  0  0  0  0  0  0  0  0  0  0  0
   -1.0359   -0.9657   -0.4390 H   0  0  0  0  0  0  0  0  0  0  0  0
   -3.2558    0.2866    1.2720 H   0  0  0  0  0  0  0  0  0  0  0  0
   -3.3946   -1.2497    0.4231 H   0  0  0  0  0  0  0  0  0  0  0  0
   -3.0230   -0.1258   -1.7620 H   0  0  0  0  0  0  0  0  0  0  0  0
   -2.8090    1.4231   -0.9523 H   0  0  0  0  0  0  0  0  0  0  0  0
   -5.1429    1.3287   -0.0935 H   0  0  0  0  0  0  0  0  0  0  0  0
   -5.0161    1.3701   -1.8454 H   0  0  0  0  0  0  0  0  0  0  0  0
   -5.5959   -1.1188   -0.1532 H   0  0  0  0  0  0  0  0  0  0  0  0
   -5.3356   -1.1430   -1.8993 H   0  0  0  0  0  0  0  0  0  0  0  0
   -7.5401    0.4283   -0.4641 H   0  0  0  0  0  0  0  0  0  0  0  0
   -7.2902    0.3743   -2.2205 H   0  0  0  0  0  0  0  0  0  0  0  0
   -7.7503   -1.0927   -1.3421 H   0  0  0  0  0  0  0  0  0  0  0  0
    0.5724   -0.3141   -0.1232 H   0  0  0  0  0  0  0  0  0  0  0  0
    0.2695   -1.9777   -1.9580 H   0  0  0  0  0  0  0  0  0  0  0  0
   -0.3469   -3.1547   -0.8333 H   0  0  0  0  0  0  0  0  0  0  0  0
   -0.1206   -3.5627    1.5150 H   0  0  0  0  0  0  0  0  0  0  0  0
   -3.6531    1.4893    0.3183 H   0  0  0  0  0  0  0  0  0  0  0  0
   -3.3619    0.7686   -1.2684 H   0  0  0  0  0  0  0  0  0  0  0  0
    4.1498   -3.5963   -1.4710 H   0  0  0  0  0  0  0  0  0  0  0  0
    3.9461   -3.1154    0.2261 H   0  0  0  0  0  0  0  0  0  0  0  0
   -0.3568   -0.8483    2.1863 H   0  0  0  0  0  0  0  0  0  0  0  0
    1.0960   -1.7732    1.7998 H   0  0  0  0  0  0  0  0  0  0  0  0
   -3.9165   -1.4851   -0.3751 H   0  0  0  0  0  0  0  0  0  0  0  0
   -4.0837   -0.8485    1.2529 H   0  0  0  0  0  0  0  0  0  0  0  0
    6.1133   -2.3662   -0.8509 H   0  0  0  0  0  0  0  0  0  0  0  0
    5.1886   -1.3214   -1.9264 H   0  0  0  0  0  0  0  0  0  0  0  0
   -8.0941    0.4594   -1.4396 H   0  0  0  0  0  0  0  0  0  0  0  0
   -9.4273    1.3128   -0.6817 H   0  0  0  0  0  0  0  0  0  0  0  0
    8.5393    1.6049    1.1168 H   0  0  0  0  0  0  0  0  0  0  0  0
    7.6107    2.8938    1.8739 H   0  0  0  0  0  0  0  0  0  0  0  0
    6.3605    0.8455    2.0572 H   0  0  0  0  0  0  0  0  0  0  0  0
    5.4954    1.9305    0.9717 H   0  0  0  0  0  0  0  0  0  0  0  0
   -8.3172   -0.1225    0.9518 H   0  0  0  0  0  0  0  0  0  0  0  0
   -8.2028    1.5693    1.4127 H   0  0  0  0  0  0  0  0  0  0  0  0
    4.2702   -0.1029    0.0793 H   0  0  0  0  0  0  0  0  0  0  0  0
    5.2032   -1.1623    1.1373 H   0  0  0  0  0  0  0  0  0  0  0  0
    7.3219   -0.3588    0.0679 H   0  0  0  0  0  0  0  0  0  0  0  0
    6.3815    0.6822   -1.0032 H   0  0  0  0  0  0  0  0  0  0  0  0
   -6.2466   -1.2917    0.0237 H   0  0  0  0  0  0  0  0  0  0  0  0
   -5.8224   -0.0376   -1.1383 H   0  0  0  0  0  0  0  0  0  0  0  0
   -6.1167    0.4178    1.8823 H   0  0  0  0  0  0  0  0  0  0  0  0
   -5.8595    1.6765    0.6890 H   0  0  0  0  0  0  0  0  0  0  0  0
   -6.6905    2.5165   -1.3585 H   0  0  0  0  0  0  0  0  0  0  0  0
   -7.9689    3.3651   -0.4677 H   0  0  0  0  0  0  0  0  0  0  0  0
   -8.2375    2.8504   -2.1405 H   0  0  0  0  0  0  0  0  0  0  0  0
    6.8238    3.6393   -0.4097 H   0  0  0  0  0  0  0  0  0  0  0  0
    8.5782    3.7364   -0.1888 H   0  0  0  0  0  0  0  0  0  0  0  0
    7.8891    2.4207   -1.1376 H   0  0  0  0  0  0  0  0  0  0  0  0
   -4.5867   -1.8490    1.5750 H   0  0  0  0  0  0  0  0  0  0  0  0
   -4.2262    0.9895   -1.3709 H   0  0  0  0  0  0  0  0  0  0  0  0
   -6.2886    0.3655    1.0988 H   0  0  0  0  0  0  0  0  0  0  0  0
   -4.3187    0.7201    2.5156 H   0  0  0  0  0  0  0  0  0  0  0  0
   -4.1162    1.5881    0.9978 H   0  0  0  0  0  0  0  0  0  0  0  0
   -0.7136   -0.9663    1.2808 H   0  0  0  0  0  0  0  0  0  0  0  0
   -0.9511   -1.4341   -0.4077 H   0  0  0  0  0  0  0  0  0  0  0  0
   -6.2416   -0.9457   -0.9519 H   0  0  0  0  0  0  0  0  0  0  0  0
   -4.5019   -1.1390   -0.8916 H   0  0  0  0  0  0  0  0  0  0  0  0
    0.3250    1.1919    0.5683 H   0  0  0  0  0  0  0  0  0  0  0  0
    0.1445    0.7305   -1.1199 H   0  0  0  0  0  0  0  0  0  0  0  0
    1.6106   -1.2515   -0.7678 H   0  0  0  0  0  0  0  0  0  0  0  0
    1.7651   -0.8544    0.9433 H   0  0  0  0  0  0  0  0  0  0  0  0
    2.6666    0.9578   -1.3597 H   0  0  0  0  0  0  0  0  0  0  0  0
    2.8271    1.3275    0.3582 H   0  0  0  0  0  0  0  0  0  0  0  0
    4.2558   -0.7298    0.6520 H   0  0  0  0  0  0  0  0  0  0  0  0
    4.1274   -1.0467   -1.0795 H   0  0  0  0  0  0  0  0  0  0  0  0
    5.3299    1.4829    0.1721 H   0  0  0  0  0  0  0  0  0  0  0  0
    5.1990    1.1770   -1.5601 H   0  0  0  0  0  0  0  0  0  0  0  0
    7.4681    0.6344   -0.7203 H   0  0  0  0  0  0  0  0  0  0  0  0
    6.7922   -0.5511    0.4087 H   0  0  0  0  0  0  0  0  0  0  0  0
    6.6708   -0.8212   -1.3418 H   0  0  0  0  0  0  0  0  0  0  0  0
  1  5  1  0
  1  7  1  0
  2  5  2  0
  3  6  1  0
  4 10  1  0
  5  8  1  0
  6  7  1  0
  6 10  1  0
  8  9  1  0
  9 11  1  0
 11 12  1  0
 12 13  1  0
 13 14  1  0
 14 15  1  0
 15 16  1  0
 16 17  1  0
 19 23  1  0
 20 18  1  0
 21 18  2  0
 22 19  2  0
 23 25  1  0
 24 20  1  0
 25 24  1  0
 26 29  1  0
 27 18  1  0
 28 19  1  0
 29 24  1  0
 30 27  1  0
 31 28  1  0
 32 35  1  0
 33 34  1  0
 34 37  1  0
 35 39  1  0
 36 31  1  0
 37 36  1  0
 38 30  1  0
 39 38  1  0
 40 32  1  0
 41 33  1  0
 42 46  1  0
 42 48  1  0
 43 46  2  0
 44 47  1  0
 45 50  1  0
 46 49  1  0
 47 48  1  0
 47 50  1  0
 49 51  1  0
 51 52  1  0
 52 53  1  0
 53 54  1  0
 54 55  1  0
 55 56  1  0
  3 57  1  0
  4 58  1  0
  6 59  1  6
  7 60  1  0
  7 61  1  0
  8 62  1  0
  8 63  1  0
  9 64  1  0
  9 65  1  0
 10 66  1  0
 10 67  1  0
 11 68  1  0
 11 69  1  0
 12 70  1  0
 12 71  1  0
 13 72  1  0
 13 73  1  0
 14 74  1  0
 14 75  1  0
 15 76  1  0
 15 77  1  0
 16 78  1  0
 16 79  1  0
 17 80  1  0
 17 81  1  0
 17 82  1  0
 24 83  1  1
 25 84  1  0
 25 85  1  0
 26 86  1  0
 27 87  1  0
 27 88  1  0
 28 89  1  0
 28 90  1  0
 29 91  1  0
 29 92  1  0
 30 93  1  0
 30 94  1  0
 31 95  1  0
 31 96  1  0
 32 97  1  0
 32 98  1  0
 33 99  1  0
 33100  1  0
 34101  1  0
 34102  1  0
 35103  1  0
 35104  1  0
 36105  1  0
 36106  1  0
 37107  1  0
 37108  1  0
 38109  1  0
 38110  1  0
 39111  1  0
 39112  1  0
 40113  1  0
 40114  1  0
 40115  1  0
 41116  1  0
 41117  1  0
 41118  1  0
 44119  1  0
 45120  1  0
 47121  1  6
 48122  1  0
 48123  1  0
 49124  1  0
 49125  1  0
 50126  1  0
 50127  1  0
 51128  1  0
 51129  1  0
 52130  1  0
 52131  1  0
 53132  1  0
 53133  1  0
 54134  1  0
 54135  1  0
 55136  1  0
 55137  1  0
 56138  1  0
 56139  1  0
 56140  1  0
M  END
$$$$
