
     RDKit          3D

140137  0  0  0  0  0  0  0  0999 V2000
    3.0976   -0.2013   -0.2389 O   0  0  0  0  0  0  0  0  0  0  0  0
    1.9970   -1.9956   -1.1751 O   0  0  0  0  0  0  0  0  0  0  0  0
    5.7949   -0.7260   -1.1324 O   0  0  0  0  0  0  0  0  0  0  0  0
    5.5124    0.9225    2.1373 O   0  0  0  0  0  0  0  0  0  0  0  0
    2.1657   -0.7913   -1.0339 C   0  0  0  0  0  0  0  0  0  0  0  0
    5.4500   -0.6153    0.2541 C   0  0  2  0  0  0  0  0  0  0  0  0
    4.0006   -1.0801    0.4594 C   0  0  0  0  0  0  0  0  0  0  0  0
    1.3493    0.2554   -1.7489 C   0  0  0  0  0  0  0  0  0  0  0  0
    0.5494    1.1447   -0.8002 C   0  0  0  0  0  0  0  0  0  0  0  0
    5.6782    0.8248    0.7278 C   0  0  0  0  0  0  0  0  0  0  0  0
   -0.4418    0.4069    0.1062 C   0  0  0  0  0  0  0  0  0  0  0  0
   -1.5444   -0.3233   -0.6640 C   0  0  0  0  0  0  0  0  0  0  0  0
   -2.5429   -1.0476    0.2468 C   0  0  0  0  0  0  0  0  0  0  0  0
   -3.3487   -0.1561    1.1972 C   0  0  0  0  0  0  0  0  0  0  0  0
   -4.1625    0.9576    0.5302 C   0  0  0  0  0  0  0  0  0  0  0  0
   -5.1734    0.4934   -0.5215 C   0  0  0  0  0  0  0  0  0  0  0  0
   -6.2305   -0.4525    0.0270 C   0  0  0  0  0  0  0  0  0  0  0  0
   -2.0684    0.4013    1.3970 C   0  0  0  0  0  0  0  0  0  0  0  0
    2.4308    1.3970    0.0069 C   0  0  0  0  0  0  0  0  0  0  0  0
   -1.2191   -0.4762    0.7965 O   0  0  0  0  0  0  0  0  0  0  0  0
   -1.9001    0.9108    2.4955 O   0  0  0  0  0  0  0  0  0  0  0  0
    2.8995    2.0796    0.9072 O   0  0  0  0  0  0  0  0  0  0  0  0
    1.4532    0.4617    0.1509 O   0  0  0  0  0  0  0  0  0  0  0  0
   -0.0469   -0.8386    1.5623 C   0  0  2  0  0  0  0  0  0  0  0  0
    1.0132    0.2729    1.5089 C   0  0  0  0  0  0  0  0  0  0  0  0
    1.5869   -2.6406    1.7289 O   0  0  0  0  0  0  0  0  0  0  0  0
   -3.2720    0.6484    0.5251 C   0  0  0  0  0  0  0  0  0  0  0  0
    2.8842    1.4724   -1.4275 C   0  0  0  0  0  0  0  0  0  0  0  0
    0.4747   -2.1598    0.9855 C   0  0  0  0  0  0  0  0  0  0  0  0
   -4.2789   -0.4864    0.6739 C   0  0  0  0  0  0  0  0  0  0  0  0
    3.6646    0.2329   -1.8596 C   0  0  0  0  0  0  0  0  0  0  0  0
   -8.5683   -0.1796   -0.8801 C   0  0  0  0  0  0  0  0  0  0  0  0
    7.9853   -0.5215   -0.6558 C   0  0  0  0  0  0  0  0  0  0  0  0
    7.2468    0.7736   -0.3199 C   0  0  0  0  0  0  0  0  0  0  0  0
   -7.6257    1.0167   -0.7340 C   0  0  0  0  0  0  0  0  0  0  0  0
    4.9312   -0.0541   -1.0408 C   0  0  0  0  0  0  0  0  0  0  0  0
    6.0092    1.0221   -1.1892 C   0  0  0  0  0  0  0  0  0  0  0  0
   -5.5079   -0.3325   -0.2263 C   0  0  0  0  0  0  0  0  0  0  0  0
   -6.4276    0.8145    0.2001 C   0  0  0  0  0  0  0  0  0  0  0  0
   -9.1932   -0.6245    0.4315 C   0  0  0  0  0  0  0  0  0  0  0  0
    9.2907   -0.6364    0.1180 C   0  0  0  0  0  0  0  0  0  0  0  0
    2.2208   -0.3066   -0.3095 O   0  0  0  0  0  0  0  0  0  0  0  0
    2.7827   -2.3966    0.4323 O   0  0  0  0  0  0  0  0  0  0  0  0
    4.2258    1.6023    0.4778 O   0  0  0  0  0  0  0  0  0  0  0  0
    5.9990    1.2322   -1.6339 O   0  0  0  0  0  0  0  0  0  0  0  0
    1.9755   -1.4823    0.3295 C   0  0  0  0  0  0  0  0  0  0  0  0
    4.5556    0.2655    0.0515 C   0  0  1  0  0  0  0  0  0  0  0  0
    3.5061   -0.2076   -0.9607 C   0  0  0  0  0  0  0  0  0  0  0  0
    0.6121   -1.4967    0.9818 C   0  0  0  0  0  0  0  0  0  0  0  0
    5.9569    0.2997   -0.5543 C   0  0  0  0  0  0  0  0  0  0  0  0
   -0.4502   -0.7319    0.1927 C   0  0  0  0  0  0  0  0  0  0  0  0
   -1.8405   -0.9093    0.8033 C   0  0  0  0  0  0  0  0  0  0  0  0
   -2.8866   -0.1027    0.0303 C   0  0  0  0  0  0  0  0  0  0  0  0
   -4.2871   -0.3078    0.6110 C   0  0  0  0  0  0  0  0  0  0  0  0
   -5.3759    0.4359   -0.1666 C   0  0  0  0  0  0  0  0  0  0  0  0
   -5.2593    1.9499   -0.0698 C   0  0  0  0  0  0  0  0  0  0  0  0
    6.7610   -0.6348   -1.1981 H   0  0  0  0  0  0  0  0  0  0  0  0
    5.6130    1.8623    2.3695 H   0  0  0  0  0  0  0  0  0  0  0  0
    6.1010   -1.2947    0.8167 H   0  0  0  0  0  0  0  0  0  0  0  0
    3.9077   -2.1158    0.1113 H   0  0  0  0  0  0  0  0  0  0  0  0
    3.7331   -1.0501    1.5214 H   0  0  0  0  0  0  0  0  0  0  0  0
    0.6886   -0.2484   -2.4620 H   0  0  0  0  0  0  0  0  0  0  0  0
    2.0371    0.8642   -2.3481 H   0  0  0  0  0  0  0  0  0  0  0  0
    1.2421    1.7056   -0.1598 H   0  0  0  0  0  0  0  0  0  0  0  0
    0.0054    1.8900   -1.3933 H   0  0  0  0  0  0  0  0  0  0  0  0
    6.6965    1.1431    0.4776 H   0  0  0  0  0  0  0  0  0  0  0  0
    4.9925    1.5225    0.2327 H   0  0  0  0  0  0  0  0  0  0  0  0
   -0.8926    1.1503    0.7735 H   0  0  0  0  0  0  0  0  0  0  0  0
    0.0921   -0.3043    0.7461 H   0  0  0  0  0  0  0  0  0  0  0  0
   -2.0717    0.3786   -1.3204 H   0  0  0  0  0  0  0  0  0  0  0  0
   -1.0932   -1.0784   -1.3169 H   0  0  0  0  0  0  0  0  0  0  0  0
   -3.2345   -1.6214   -0.3825 H   0  0  0  0  0  0  0  0  0  0  0  0
   -1.9999   -1.7877    0.8489 H   0  0  0  0  0  0  0  0  0  0  0  0
   -4.0218   -0.7946    1.7818 H   0  0  0  0  0  0  0  0  0  0  0  0
   -2.6724    0.2985    1.9308 H   0  0  0  0  0  0  0  0  0  0  0  0
   -3.4810    1.6803    0.0648 H   0  0  0  0  0  0  0  0  0  0  0  0
   -4.6969    1.5094    1.3139 H   0  0  0  0  0  0  0  0  0  0  0  0
   -4.6600    0.0162   -1.3636 H   0  0  0  0  0  0  0  0  0  0  0  0
   -5.6785    1.3778   -0.9284 H   0  0  0  0  0  0  0  0  0  0  0  0
   -6.7444   -0.0120    0.8873 H   0  0  0  0  0  0  0  0  0  0  0  0
   -6.9801   -0.6666   -0.7417 H   0  0  0  0  0  0  0  0  0  0  0  0
   -5.7934   -1.4063    0.3367 H   0  0  0  0  0  0  0  0  0  0  0  0
   -0.3278   -1.0107    2.6099 H   0  0  0  0  0  0  0  0  0  0  0  0
    0.5945    1.2183    1.8691 H   0  0  0  0  0  0  0  0  0  0  0  0
    1.8725    0.0011    2.1335 H   0  0  0  0  0  0  0  0  0  0  0  0
    1.8664   -3.4755    1.3152 H   0  0  0  0  0  0  0  0  0  0  0  0
   -2.9425    0.7604   -0.5132 H   0  0  0  0  0  0  0  0  0  0  0  0
   -3.7012    1.6107    0.8231 H   0  0  0  0  0  0  0  0  0  0  0  0
    3.4803    2.3815   -1.5564 H   0  0  0  0  0  0  0  0  0  0  0  0
    1.9981    1.6023   -2.0588 H   0  0  0  0  0  0  0  0  0  0  0  0
   -0.3189   -2.9158    1.0195 H   0  0  0  0  0  0  0  0  0  0  0  0
    0.7654   -2.0505   -0.0654 H   0  0  0  0  0  0  0  0  0  0  0  0
   -4.5929   -0.5714    1.7217 H   0  0  0  0  0  0  0  0  0  0  0  0
   -3.7868   -1.4364    0.4272 H   0  0  0  0  0  0  0  0  0  0  0  0
    3.9348    0.3369   -2.9168 H   0  0  0  0  0  0  0  0  0  0  0  0
    3.0096   -0.6449   -1.7923 H   0  0  0  0  0  0  0  0  0  0  0  0
   -8.0472   -1.0236   -1.3437 H   0  0  0  0  0  0  0  0  0  0  0  0
   -9.3723    0.0994   -1.5706 H   0  0  0  0  0  0  0  0  0  0  0  0
    8.2010   -0.5625   -1.7295 H   0  0  0  0  0  0  0  0  0  0  0  0
    7.3598   -1.3879   -0.4134 H   0  0  0  0  0  0  0  0  0  0  0  0
    6.9568    0.7684    0.7379 H   0  0  0  0  0  0  0  0  0  0  0  0
    7.9300    1.6215   -0.4529 H   0  0  0  0  0  0  0  0  0  0  0  0
   -8.2030    1.8764   -0.3721 H   0  0  0  0  0  0  0  0  0  0  0  0
   -7.2574    1.2910   -1.7302 H   0  0  0  0  0  0  0  0  0  0  0  0
    5.3298   -1.0161   -1.3828 H   0  0  0  0  0  0  0  0  0  0  0  0
    4.6741   -0.1825    0.0168 H   0  0  0  0  0  0  0  0  0  0  0  0
    5.6015    1.9985   -0.9079 H   0  0  0  0  0  0  0  0  0  0  0  0
    6.3109    1.0964   -2.2401 H   0  0  0  0  0  0  0  0  0  0  0  0
   -5.1875   -0.1911   -1.2658 H   0  0  0  0  0  0  0  0  0  0  0  0
   -6.0655   -1.2745   -0.1887 H   0  0  0  0  0  0  0  0  0  0  0  0
   -5.8639    1.7540    0.2149 H   0  0  0  0  0  0  0  0  0  0  0  0
   -6.7749    0.6490    1.2259 H   0  0  0  0  0  0  0  0  0  0  0  0
   -8.4424   -1.0228    1.1183 H   0  0  0  0  0  0  0  0  0  0  0  0
   -9.7076    0.2065    0.9239 H   0  0  0  0  0  0  0  0  0  0  0  0
   -9.9275   -1.4156    0.2504 H   0  0  0  0  0  0  0  0  0  0  0  0
    9.7950   -1.5765   -0.1257 H   0  0  0  0  0  0  0  0  0  0  0  0
    9.1095   -0.6169    1.1973 H   0  0  0  0  0  0  0  0  0  0  0  0
    9.9674    0.1870   -0.1328 H   0  0  0  0  0  0  0  0  0  0  0  0
    3.2823    1.5848    0.7226 H   0  0  0  0  0  0  0  0  0  0  0  0
    5.6407    2.0639   -1.2636 H   0  0  0  0  0  0  0  0  0  0  0  0
    4.5518   -0.3698    0.9432 H   0  0  0  0  0  0  0  0  0  0  0  0
    3.7807   -1.1615   -1.4289 H   0  0  0  0  0  0  0  0  0  0  0  0
    3.3793    0.5322   -1.7588 H   0  0  0  0  0  0  0  0  0  0  0  0
    0.3062   -2.5460    1.0742 H   0  0  0  0  0  0  0  0  0  0  0  0
    0.7168   -1.0795    1.9899 H   0  0  0  0  0  0  0  0  0  0  0  0
    6.6892    0.6351    0.1882 H   0  0  0  0  0  0  0  0  0  0  0  0
    6.2609   -0.6826   -0.9295 H   0  0  0  0  0  0  0  0  0  0  0  0
   -0.4562   -1.0774   -0.8487 H   0  0  0  0  0  0  0  0  0  0  0  0
   -0.1970    0.3356    0.1711 H   0  0  0  0  0  0  0  0  0  0  0  0
   -2.1133   -1.9718    0.7993 H   0  0  0  0  0  0  0  0  0  0  0  0
   -1.8279   -0.5795    1.8501 H   0  0  0  0  0  0  0  0  0  0  0  0
   -2.6149    0.9585    0.0680 H   0  0  0  0  0  0  0  0  0  0  0  0
   -2.8810   -0.4026   -1.0246 H   0  0  0  0  0  0  0  0  0  0  0  0
   -4.3037    0.0066    1.6627 H   0  0  0  0  0  0  0  0  0  0  0  0
   -4.5270   -1.3791    0.5956 H   0  0  0  0  0  0  0  0  0  0  0  0
   -5.3578    0.1335   -1.2210 H   0  0  0  0  0  0  0  0  0  0  0  0
   -6.3530    0.1377    0.2320 H   0  0  0  0  0  0  0  0  0  0  0  0
   -4.3561    2.3158   -0.5674 H   0  0  0  0  0  0  0  0  0  0  0  0
   -6.1187    2.4248   -0.5550 H   0  0  0  0  0  0  0  0  0  0  0  0
   -5.2362    2.2771    0.9747 H   0  0  0  0  0  0  0  0  0  0  0  0
  1  5  1  0
  1  7  1  0
  2  5  2  0
  3  6  1  0
  4 10  1  0
  5  8  1  0
  6  7  1  0
  6 10  1  0
  8  9  1  0
  9 11  1  0
 11 12  1  0
 12 13  1  0
 13 14  1  0
 14 15  1  0
 15 16  1  0
 16 17  1  0
 19 23  1  0
 20 18  1  0
 21 18  2  0
 22 19  2  0
 23 25  1  0
 24 20  1  0
 25 24  1  0
 26 29  1  0
 27 18  1  0
 28 19  1  0
 29 24  1  0
 30 27  1  0
 31 28  1  0
 32 35  1  0
 33 34  1  0
 34 37  1  0
 35 39  1  0
 36 31  1  0
 37 36  1  0
 38 30  1  0
 39 38  1  0
 40 32  1  0
 41 33  1  0
 42 46  1  0
 42 48  1  0
 43 46  2  0
 44 47  1  0
 45 50  1  0
 46 49  1  0
 47 48  1  0
 47 50  1  0
 49 51  1  0
 51 52  1  0
 52 53  1  0
 53 54  1  0
 54 55  1  0
 55 56  1  0
  3 57  1  0
  4 58  1  0
  6 59  1  1
  7 60  1  0
  7 61  1  0
  8 62  1  0
  8 63  1  0
  9 64  1  0
  9 65  1  0
 10 66  1  0
 10 67  1  0
 11 68  1  0
 11 69  1  0
 12 70  1  0
 12 71  1  0
 13 72  1  0
 13 73  1  0
 14 74  1  0
 14 75  1  0
 15 76  1  0
 15 77  1  0
 16 78  1  0
 16 79  1  0
 17 80  1  0
 17 81  1  0
 17 82  1  0
 24 83  1  1
 25 84  1  0
 25 85  1  0
 26 86  1  0
 27 87  1  0
 27 88  1  0
 28 89  1  0
 28 90  1  0
 29 91  1  0
 29 92  1  0
 30 93  1  0
 30 94  1  0
 31 95  1  0
 31 96  1  0
 32 97  1  0
 32 98  1  0
 33 99  1  0
 33100  1  0
 34101  1  0
 34102  1  0
 35103  1  0
 35104  1  0
 36105  1  0
 36106  1  0
 37107  1  0
 37108  1  0
 38109  1  0
 38110  1  0
 39111  1  0
 39112  1  0
 40113  1  0
 40114  1  0
 40115  1  0
 41116  1  0
 41117  1  0
 41118  1  0
 44119  1  0
 45120  1  0
 47121  1  1
 48122  1  0
 48123  1  0
 49124  1  0
 49125  1  0
 50126  1  0
 50127  1  0
 51128  1  0
 51129  1  0
 52130  1  0
 52131  1  0
 53132  1  0
 53133  1  0
 54134  1  0
 54135  1  0
 55136  1  0
 55137  1  0
 56138  1  0
 56139  1  0
 56140  1  0
M  END
$$$$
