
     RDKit          3D

140137  0  0  0  0  0  0  0  0999 V2000
   -3.4548    0.0379    1.1711 O   0  0  0  0  0  0  0  0  0  0  0  0
   -2.4834    0.5971   -0.8294 O   0  0  0  0  0  0  0  0  0  0  0  0
   -5.5408   -1.7665    0.5157 O   0  0  0  0  0  0  0  0  0  0  0  0
   -6.7309    1.1312   -1.4099 O   0  0  0  0  0  0  0  0  0  0  0  0
   -2.4023    0.1953    0.3208 C   0  0  0  0  0  0  0  0  0  0  0  0
   -5.4065   -0.5348   -0.2020 C   0  0  2  0  0  0  0  0  0  0  0  0
   -4.7327    0.5170    0.6905 C   0  0  0  0  0  0  0  0  0  0  0  0
   -1.1183   -0.1679    1.0347 C   0  0  0  0  0  0  0  0  0  0  0  0
   -0.0168   -0.5754    0.0556 C   0  0  0  0  0  0  0  0  0  0  0  0
   -6.7962   -0.0703   -0.6527 C   0  0  0  0  0  0  0  0  0  0  0  0
    1.2923   -0.9625    0.7546 C   0  0  0  0  0  0  0  0  0  0  0  0
    2.0329    0.1869    1.4498 C   0  0  0  0  0  0  0  0  0  0  0  0
    2.4397    1.3564    0.5458 C   0  0  0  0  0  0  0  0  0  0  0  0
    3.3577    0.9854   -0.6206 C   0  0  0  0  0  0  0  0  0  0  0  0
    4.7717    0.6172   -0.1660 C   0  0  0  0  0  0  0  0  0  0  0  0
    5.6853    0.2539   -1.3375 C   0  0  0  0  0  0  0  0  0  0  0  0
    5.4304   -1.1480   -1.8667 C   0  0  0  0  0  0  0  0  0  0  0  0
    2.3690   -0.7035   -0.9516 C   0  0  0  0  0  0  0  0  0  0  0  0
   -2.7784   -1.7929   -0.6188 C   0  0  0  0  0  0  0  0  0  0  0  0
    1.2706   -1.4945   -1.0602 O   0  0  0  0  0  0  0  0  0  0  0  0
    2.7707    0.0615   -1.8120 O   0  0  0  0  0  0  0  0  0  0  0  0
   -3.2228   -2.8510   -1.0400 O   0  0  0  0  0  0  0  0  0  0  0  0
   -1.5903   -1.2383   -0.9957 O   0  0  0  0  0  0  0  0  0  0  0  0
    0.4790   -1.3336   -2.2631 C   0  0  2  0  0  0  0  0  0  0  0  0
   -0.8848   -1.9892   -1.9996 C   0  0  0  0  0  0  0  0  0  0  0  0
    0.4050   -1.8461   -4.6476 O   0  0  0  0  0  0  0  0  0  0  0  0
    3.0487   -0.9567    0.3757 C   0  0  0  0  0  0  0  0  0  0  0  0
   -3.4376   -0.9248    0.4253 C   0  0  0  0  0  0  0  0  0  0  0  0
    1.1646   -2.0106   -3.4568 C   0  0  0  0  0  0  0  0  0  0  0  0
    3.9059    0.2348    0.8059 C   0  0  0  0  0  0  0  0  0  0  0  0
   -4.9546   -1.1117    0.4961 C   0  0  0  0  0  0  0  0  0  0  0  0
    7.5415    0.8105    1.5805 C   0  0  0  0  0  0  0  0  0  0  0  0
   -7.0965    2.3089   -0.0413 C   0  0  0  0  0  0  0  0  0  0  0  0
   -5.6526    1.8647   -0.2917 C   0  0  0  0  0  0  0  0  0  0  0  0
    6.4055    1.7973    1.8494 C   0  0  0  0  0  0  0  0  0  0  0  0
   -5.7293   -0.7033   -0.7646 C   0  0  0  0  0  0  0  0  0  0  0  0
   -5.4780    0.7130   -1.2882 C   0  0  0  0  0  0  0  0  0  0  0  0
    4.5632   -0.0105    2.1649 C   0  0  0  0  0  0  0  0  0  0  0  0
    5.2890    1.2184    2.7232 C   0  0  0  0  0  0  0  0  0  0  0  0
    8.6711    1.4655    0.7957 C   0  0  0  0  0  0  0  0  0  0  0  0
   -7.8826    1.4120    0.9017 C   0  0  0  0  0  0  0  0  0  0  0  0
    2.9894   -1.1227   -1.0340 O   0  0  0  0  0  0  0  0  0  0  0  0
    1.9048    0.8583   -1.4442 O   0  0  0  0  0  0  0  0  0  0  0  0
    5.6888   -1.1544    0.2340 O   0  0  0  0  0  0  0  0  0  0  0  0
    5.5231    1.3358    1.4018 O   0  0  0  0  0  0  0  0  0  0  0  0
    1.9017   -0.3006   -1.0480 C   0  0  0  0  0  0  0  0  0  0  0  0
    5.1541   -0.0516   -0.5170 C   0  0  1  0  0  0  0  0  0  0  0  0
    4.1994   -0.5756   -1.5932 C   0  0  0  0  0  0  0  0  0  0  0  0
    0.7057   -1.0312   -0.4789 C   0  0  0  0  0  0  0  0  0  0  0  0
    4.5169    0.9261    0.4706 C   0  0  0  0  0  0  0  0  0  0  0  0
   -0.5555   -0.1754   -0.5708 C   0  0  0  0  0  0  0  0  0  0  0  0
   -1.7770   -0.8893    0.0124 C   0  0  0  0  0  0  0  0  0  0  0  0
   -3.0050    0.0234   -0.0134 C   0  0  0  0  0  0  0  0  0  0  0  0
   -4.2359   -0.6726    0.5715 C   0  0  0  0  0  0  0  0  0  0  0  0
   -5.4903    0.2059    0.5380 C   0  0  0  0  0  0  0  0  0  0  0  0
   -5.4067    1.4199    1.4520 C   0  0  0  0  0  0  0  0  0  0  0  0
   -4.6803   -1.9364    0.9396 H   0  0  0  0  0  0  0  0  0  0  0  0
   -6.4144    0.8929   -2.2981 H   0  0  0  0  0  0  0  0  0  0  0  0
   -4.7812   -0.7334   -1.0811 H   0  0  0  0  0  0  0  0  0  0  0  0
   -4.6092    1.4804    0.1837 H   0  0  0  0  0  0  0  0  0  0  0  0
   -5.3396    0.6881    1.5889 H   0  0  0  0  0  0  0  0  0  0  0  0
   -1.3201   -1.0099    1.7091 H   0  0  0  0  0  0  0  0  0  0  0  0
   -0.8182    0.6976    1.6355 H   0  0  0  0  0  0  0  0  0  0  0  0
    0.1612    0.2193   -0.6771 H   0  0  0  0  0  0  0  0  0  0  0  0
   -0.3674   -1.4425   -0.5215 H   0  0  0  0  0  0  0  0  0  0  0  0
   -7.2879   -0.8454   -1.2515 H   0  0  0  0  0  0  0  0  0  0  0  0
   -7.4384    0.1031    0.2195 H   0  0  0  0  0  0  0  0  0  0  0  0
    1.9559   -1.4341    0.0230 H   0  0  0  0  0  0  0  0  0  0  0  0
    1.0785   -1.7379    1.5024 H   0  0  0  0  0  0  0  0  0  0  0  0
    2.9255   -0.2199    1.9365 H   0  0  0  0  0  0  0  0  0  0  0  0
    1.4099    0.5789    2.2621 H   0  0  0  0  0  0  0  0  0  0  0  0
    1.5358    1.8392    0.1517 H   0  0  0  0  0  0  0  0  0  0  0  0
    2.9350    2.1180    1.1625 H   0  0  0  0  0  0  0  0  0  0  0  0
    2.9145    0.1820   -1.2137 H   0  0  0  0  0  0  0  0  0  0  0  0
    3.4274    1.8580   -1.2848 H   0  0  0  0  0  0  0  0  0  0  0  0
    5.2087    1.4874    0.3412 H   0  0  0  0  0  0  0  0  0  0  0  0
    4.7527   -0.1996    0.5583 H   0  0  0  0  0  0  0  0  0  0  0  0
    5.5701    0.9780   -2.1529 H   0  0  0  0  0  0  0  0  0  0  0  0
    6.7304    0.3131   -1.0060 H   0  0  0  0  0  0  0  0  0  0  0  0
    6.1500   -1.3925   -2.6552 H   0  0  0  0  0  0  0  0  0  0  0  0
    5.5496   -1.8885   -1.0669 H   0  0  0  0  0  0  0  0  0  0  0  0
    4.4242   -1.2485   -2.2829 H   0  0  0  0  0  0  0  0  0  0  0  0
    0.3153   -0.2666   -2.4500 H   0  0  0  0  0  0  0  0  0  0  0  0
   -0.7385   -3.0136   -1.6364 H   0  0  0  0  0  0  0  0  0  0  0  0
   -1.4936   -2.0012   -2.9096 H   0  0  0  0  0  0  0  0  0  0  0  0
    0.1258   -2.7298   -4.9533 H   0  0  0  0  0  0  0  0  0  0  0  0
    2.2761   -1.1346    1.1320 H   0  0  0  0  0  0  0  0  0  0  0  0
    3.6581   -1.8592    0.2757 H   0  0  0  0  0  0  0  0  0  0  0  0
   -3.0000   -1.1933    1.3929 H   0  0  0  0  0  0  0  0  0  0  0  0
   -3.1980    0.1247    0.2344 H   0  0  0  0  0  0  0  0  0  0  0  0
    2.1588   -1.5883   -3.6389 H   0  0  0  0  0  0  0  0  0  0  0  0
    1.3151   -3.0802   -3.2643 H   0  0  0  0  0  0  0  0  0  0  0  0
    3.2811    1.1351    0.8519 H   0  0  0  0  0  0  0  0  0  0  0  0
    4.6757    0.4206    0.0473 H   0  0  0  0  0  0  0  0  0  0  0  0
   -5.1808   -2.1680    0.7013 H   0  0  0  0  0  0  0  0  0  0  0  0
   -5.3409   -0.5493    1.3546 H   0  0  0  0  0  0  0  0  0  0  0  0
    7.9377    0.4316    2.5310 H   0  0  0  0  0  0  0  0  0  0  0  0
    7.1704   -0.0504    1.0112 H   0  0  0  0  0  0  0  0  0  0  0  0
   -7.0619    3.3099    0.4093 H   0  0  0  0  0  0  0  0  0  0  0  0
   -7.6364    2.4137   -0.9906 H   0  0  0  0  0  0  0  0  0  0  0  0
   -5.1302    2.7309   -0.7170 H   0  0  0  0  0  0  0  0  0  0  0  0
   -5.1481    1.6525    0.6579 H   0  0  0  0  0  0  0  0  0  0  0  0
    5.9930    2.1581    0.8994 H   0  0  0  0  0  0  0  0  0  0  0  0
    6.8111    2.6805    2.3611 H   0  0  0  0  0  0  0  0  0  0  0  0
   -6.7995   -0.8451   -0.5812 H   0  0  0  0  0  0  0  0  0  0  0  0
   -5.4833   -1.4053   -1.5749 H   0  0  0  0  0  0  0  0  0  0  0  0
   -4.4511    0.7567   -1.6730 H   0  0  0  0  0  0  0  0  0  0  0  0
   -6.1240    0.8864   -2.1593 H   0  0  0  0  0  0  0  0  0  0  0  0
    5.2518   -0.8598    2.0998 H   0  0  0  0  0  0  0  0  0  0  0  0
    3.7909   -0.2993    2.8896 H   0  0  0  0  0  0  0  0  0  0  0  0
    5.7046    0.9604    3.7040 H   0  0  0  0  0  0  0  0  0  0  0  0
    4.5495    2.0102    2.8996 H   0  0  0  0  0  0  0  0  0  0  0  0
    8.3181    1.8181   -0.1792 H   0  0  0  0  0  0  0  0  0  0  0  0
    9.4761    0.7428    0.6247 H   0  0  0  0  0  0  0  0  0  0  0  0
    9.0881    2.3175    1.3414 H   0  0  0  0  0  0  0  0  0  0  0  0
   -8.1633    0.4703    0.4242 H   0  0  0  0  0  0  0  0  0  0  0  0
   -8.8126    1.9128    1.2003 H   0  0  0  0  0  0  0  0  0  0  0  0
   -7.3113    1.1914    1.8118 H   0  0  0  0  0  0  0  0  0  0  0  0
    6.1901   -0.7367    0.9639 H   0  0  0  0  0  0  0  0  0  0  0  0
    5.0634    1.8014    2.1270 H   0  0  0  0  0  0  0  0  0  0  0  0
    6.0132    0.4223   -1.0029 H   0  0  0  0  0  0  0  0  0  0  0  0
    4.6755   -1.3999   -2.1374 H   0  0  0  0  0  0  0  0  0  0  0  0
    3.9821    0.2075   -2.3269 H   0  0  0  0  0  0  0  0  0  0  0  0
    0.5678   -1.9622   -1.0382 H   0  0  0  0  0  0  0  0  0  0  0  0
    0.9258   -1.2703    0.5673 H   0  0  0  0  0  0  0  0  0  0  0  0
    4.1260    1.8134   -0.0360 H   0  0  0  0  0  0  0  0  0  0  0  0
    3.7233    0.4429    1.0471 H   0  0  0  0  0  0  0  0  0  0  0  0
   -0.3938    0.7716   -0.0402 H   0  0  0  0  0  0  0  0  0  0  0  0
   -0.7482    0.0824   -1.6187 H   0  0  0  0  0  0  0  0  0  0  0  0
   -1.5691   -1.1954    1.0458 H   0  0  0  0  0  0  0  0  0  0  0  0
   -1.9793   -1.7997   -0.5655 H   0  0  0  0  0  0  0  0  0  0  0  0
   -2.7847    0.9344    0.5562 H   0  0  0  0  0  0  0  0  0  0  0  0
   -3.2154    0.3308   -1.0462 H   0  0  0  0  0  0  0  0  0  0  0  0
   -4.4369   -1.5855   -0.0040 H   0  0  0  0  0  0  0  0  0  0  0  0
   -4.0345   -0.9872    1.6052 H   0  0  0  0  0  0  0  0  0  0  0  0
   -5.6861    0.5364   -0.4894 H   0  0  0  0  0  0  0  0  0  0  0  0
   -6.3513   -0.4019    0.8459 H   0  0  0  0  0  0  0  0  0  0  0  0
   -6.3655    1.9501    1.4605 H   0  0  0  0  0  0  0  0  0  0  0  0
   -5.1739    1.1229    2.4816 H   0  0  0  0  0  0  0  0  0  0  0  0
   -4.6418    2.1263    1.1138 H   0  0  0  0  0  0  0  0  0  0  0  0
  1  5  1  0
  1  7  1  0
  2  5  2  0
  3  6  1  0
  4 10  1  0
  5  8  1  0
  6  7  1  0
  6 10  1  0
  8  9  1  0
  9 11  1  0
 11 12  1  0
 12 13  1  0
 13 14  1  0
 14 15  1  0
 15 16  1  0
 16 17  1  0
 19 23  1  0
 20 18  1  0
 21 18  2  0
 22 19  2  0
 23 25  1  0
 24 20  1  0
 25 24  1  0
 26 29  1  0
 27 18  1  0
 28 19  1  0
 29 24  1  0
 30 27  1  0
 31 28  1  0
 32 35  1  0
 33 34  1  0
 34 37  1  0
 35 39  1  0
 36 31  1  0
 37 36  1  0
 38 30  1  0
 39 38  1  0
 40 32  1  0
 41 33  1  0
 42 46  1  0
 42 48  1  0
 43 46  2  0
 44 47  1  0
 45 50  1  0
 46 49  1  0
 47 48  1  0
 47 50  1  0
 49 51  1  0
 51 52  1  0
 52 53  1  0
 53 54  1  0
 54 55  1  0
 55 56  1  0
  3 57  1  0
  4 58  1  0
  6 59  1  6
  7 60  1  0
  7 61  1  0
  8 62  1  0
  8 63  1  0
  9 64  1  0
  9 65  1  0
 10 66  1  0
 10 67  1  0
 11 68  1  0
 11 69  1  0
 12 70  1  0
 12 71  1  0
 13 72  1  0
 13 73  1  0
 14 74  1  0
 14 75  1  0
 15 76  1  0
 15 77  1  0
 16 78  1  0
 16 79  1  0
 17 80  1  0
 17 81  1  0
 17 82  1  0
 24 83  1  6
 25 84  1  0
 25 85  1  0
 26 86  1  0
 27 87  1  0
 27 88  1  0
 28 89  1  0
 28 90  1  0
 29 91  1  0
 29 92  1  0
 30 93  1  0
 30 94  1  0
 31 95  1  0
 31 96  1  0
 32 97  1  0
 32 98  1  0
 33 99  1  0
 33100  1  0
 34101  1  0
 34102  1  0
 35103  1  0
 35104  1  0
 36105  1  0
 36106  1  0
 37107  1  0
 37108  1  0
 38109  1  0
 38110  1  0
 39111  1  0
 39112  1  0
 40113  1  0
 40114  1  0
 40115  1  0
 41116  1  0
 41117  1  0
 41118  1  0
 44119  1  0
 45120  1  0
 47121  1  6
 48122  1  0
 48123  1  0
 49124  1  0
 49125  1  0
 50126  1  0
 50127  1  0
 51128  1  0
 51129  1  0
 52130  1  0
 52131  1  0
 53132  1  0
 53133  1  0
 54134  1  0
 54135  1  0
 55136  1  0
 55137  1  0
 56138  1  0
 56139  1  0
 56140  1  0
M  END
$$$$
