
     RDKit          3D

140137  0  0  0  0  0  0  0  0999 V2000
    3.7895    0.6899    0.4494 O   0  0  0  0  0  0  0  0  0  0  0  0
    2.9940    2.6103    1.4292 O   0  0  0  0  0  0  0  0  0  0  0  0
    6.3811   -0.5009    1.2732 O   0  0  0  0  0  0  0  0  0  0  0  0
    6.8731   -1.6344   -1.2119 O   0  0  0  0  0  0  0  0  0  0  0  0
    2.8360    1.4599    1.0380 C   0  0  0  0  0  0  0  0  0  0  0  0
    6.1546    0.2627    0.0785 C   0  0  2  0  0  0  0  0  0  0  0  0
    5.0756    1.3181    0.3271 C   0  0  0  0  0  0  0  0  0  0  0  0
    1.5306    0.7182    1.1135 C   0  0  0  0  0  0  0  0  0  0  0  0
    0.7891    0.8079   -0.2131 C   0  0  0  0  0  0  0  0  0  0  0  0
    5.7978   -0.7028   -1.0578 C   0  0  0  0  0  0  0  0  0  0  0  0
   -0.5218    0.0151   -0.2317 C   0  0  0  0  0  0  0  0  0  0  0  0
   -1.6032    0.6356    0.6609 C   0  0  0  0  0  0  0  0  0  0  0  0
   -2.8924   -0.1957    0.7248 C   0  0  0  0  0  0  0  0  0  0  0  0
   -3.6139   -0.3240   -0.6222 C   0  0  0  0  0  0  0  0  0  0  0  0
   -4.9400   -1.0940   -0.5248 C   0  0  0  0  0  0  0  0  0  0  0  0
   -6.0485   -0.3020    0.1718 C   0  0  0  0  0  0  0  0  0  0  0  0
   -7.3505   -1.0908    0.2136 C   0  0  0  0  0  0  0  0  0  0  0  0
   -2.0810   -0.0932   -0.7344 C   0  0  0  0  0  0  0  0  0  0  0  0
    2.7392    1.1800   -2.3997 C   0  0  0  0  0  0  0  0  0  0  0  0
   -1.5028    0.4726   -1.8300 O   0  0  0  0  0  0  0  0  0  0  0  0
   -1.5519   -0.9501   -0.0382 O   0  0  0  0  0  0  0  0  0  0  0  0
    2.4558    1.7086   -1.3366 O   0  0  0  0  0  0  0  0  0  0  0  0
    1.8346    0.8314   -3.3582 O   0  0  0  0  0  0  0  0  0  0  0  0
   -0.1616    0.0281   -2.1526 C   0  0  2  0  0  0  0  0  0  0  0  0
    0.4627    1.1140   -3.0401 C   0  0  0  0  0  0  0  0  0  0  0  0
   -0.5591   -2.4195   -2.0550 O   0  0  0  0  0  0  0  0  0  0  0  0
   -3.4613    0.4739   -0.5091 C   0  0  0  0  0  0  0  0  0  0  0  0
    4.1316    0.8446   -2.8810 C   0  0  0  0  0  0  0  0  0  0  0  0
   -0.2071   -1.3208   -2.8940 C   0  0  0  0  0  0  0  0  0  0  0  0
   -4.4490   -0.6369   -0.1572 C   0  0  0  0  0  0  0  0  0  0  0  0
    5.1539    0.7726   -1.7461 C   0  0  0  0  0  0  0  0  0  0  0  0
   -6.6167   -0.7951    2.9239 C   0  0  0  0  0  0  0  0  0  0  0  0
    7.2311    0.2867    2.2527 C   0  0  0  0  0  0  0  0  0  0  0  0
    6.1015    0.4748    1.2365 C   0  0  0  0  0  0  0  0  0  0  0  0
   -5.8870    0.4586    2.4401 C   0  0  0  0  0  0  0  0  0  0  0  0
    4.9396   -0.4520   -0.8475 C   0  0  0  0  0  0  0  0  0  0  0  0
    6.0427   -0.6457    0.1950 C   0  0  0  0  0  0  0  0  0  0  0  0
   -5.9020   -0.1551   -0.0770 C   0  0  0  0  0  0  0  0  0  0  0  0
   -6.2004    0.8893    1.0058 C   0  0  0  0  0  0  0  0  0  0  0  0
   -8.1298   -0.6481    2.9186 C   0  0  0  0  0  0  0  0  0  0  0  0
    7.0092   -0.8758    3.2077 C   0  0  0  0  0  0  0  0  0  0  0  0
   -2.8251    0.7174   -0.7276 O   0  0  0  0  0  0  0  0  0  0  0  0
   -2.3606   -1.5216   -0.8615 O   0  0  0  0  0  0  0  0  0  0  0  0
   -6.2593   -0.2272    0.2800 O   0  0  0  0  0  0  0  0  0  0  0  0
   -4.8302    2.2081    1.3835 O   0  0  0  0  0  0  0  0  0  0  0  0
   -1.9915   -0.3611   -0.7676 C   0  0  0  0  0  0  0  0  0  0  0  0
   -4.8440   -0.0872    0.4481 C   0  0  1  0  0  0  0  0  0  0  0  0
   -4.2243    0.4189   -0.8598 C   0  0  0  0  0  0  0  0  0  0  0  0
   -0.5591    0.1066   -0.6493 C   0  0  0  0  0  0  0  0  0  0  0  0
   -4.5556    0.8314    1.6491 C   0  0  0  0  0  0  0  0  0  0  0  0
    0.4303   -1.0447   -0.8129 C   0  0  0  0  0  0  0  0  0  0  0  0
    1.8896   -0.5908   -0.8763 C   0  0  0  0  0  0  0  0  0  0  0  0
    2.3882    0.0462    0.4229 C   0  0  0  0  0  0  0  0  0  0  0  0
    3.8458    0.5154    0.3588 C   0  0  0  0  0  0  0  0  0  0  0  0
    4.8487   -0.6242    0.1682 C   0  0  0  0  0  0  0  0  0  0  0  0
    6.2817   -0.1190    0.2635 C   0  0  0  0  0  0  0  0  0  0  0  0
    6.7676   -1.3522    0.9808 H   0  0  0  0  0  0  0  0  0  0  0  0
    7.5887   -1.1707   -1.6735 H   0  0  0  0  0  0  0  0  0  0  0  0
    7.1050    0.7626   -0.1408 H   0  0  0  0  0  0  0  0  0  0  0  0
    5.3178    1.8742    1.2396 H   0  0  0  0  0  0  0  0  0  0  0  0
    5.0327    2.0123   -0.5199 H   0  0  0  0  0  0  0  0  0  0  0  0
    1.7295   -0.3233    1.3956 H   0  0  0  0  0  0  0  0  0  0  0  0
    0.9488    1.1491    1.9314 H   0  0  0  0  0  0  0  0  0  0  0  0
    0.5968    1.8557   -0.4592 H   0  0  0  0  0  0  0  0  0  0  0  0
    1.4339    0.4219   -1.0148 H   0  0  0  0  0  0  0  0  0  0  0  0
    4.9108   -1.2945   -0.8157 H   0  0  0  0  0  0  0  0  0  0  0  0
    5.6331   -0.1814   -2.0067 H   0  0  0  0  0  0  0  0  0  0  0  0
   -0.3302   -1.0229    0.0638 H   0  0  0  0  0  0  0  0  0  0  0  0
   -0.8759   -0.0136   -1.2664 H   0  0  0  0  0  0  0  0  0  0  0  0
   -1.8424    1.6436    0.3051 H   0  0  0  0  0  0  0  0  0  0  0  0
   -1.2292    0.7399    1.6849 H   0  0  0  0  0  0  0  0  0  0  0  0
   -3.5542    0.2807    1.4521 H   0  0  0  0  0  0  0  0  0  0  0  0
   -2.6619   -1.1948    1.1144 H   0  0  0  0  0  0  0  0  0  0  0  0
   -2.9705   -0.8642   -1.3282 H   0  0  0  0  0  0  0  0  0  0  0  0
   -3.7918    0.6729   -1.0439 H   0  0  0  0  0  0  0  0  0  0  0  0
   -4.7762   -2.0519   -0.0138 H   0  0  0  0  0  0  0  0  0  0  0  0
   -5.2666   -1.3352   -1.5426 H   0  0  0  0  0  0  0  0  0  0  0  0
   -5.7592   -0.0529    1.1979 H   0  0  0  0  0  0  0  0  0  0  0  0
   -6.2135    0.6412   -0.3627 H   0  0  0  0  0  0  0  0  0  0  0  0
   -8.1441   -0.4887    0.6642 H   0  0  0  0  0  0  0  0  0  0  0  0
   -7.2329   -2.0024    0.8100 H   0  0  0  0  0  0  0  0  0  0  0  0
   -7.6672   -1.3781   -0.7969 H   0  0  0  0  0  0  0  0  0  0  0  0
    0.4208   -0.0726   -1.2287 H   0  0  0  0  0  0  0  0  0  0  0  0
    0.3617    2.1096   -2.5846 H   0  0  0  0  0  0  0  0  0  0  0  0
   -0.0765    1.1750   -3.9911 H   0  0  0  0  0  0  0  0  0  0  0  0
   -0.7483   -2.0908   -1.1483 H   0  0  0  0  0  0  0  0  0  0  0  0
   -3.7977    0.9760   -1.4260 H   0  0  0  0  0  0  0  0  0  0  0  0
   -3.3908    1.2266    0.2836 H   0  0  0  0  0  0  0  0  0  0  0  0
    4.1034   -0.1126   -3.4152 H   0  0  0  0  0  0  0  0  0  0  0  0
    4.4277    1.6246   -3.5894 H   0  0  0  0  0  0  0  0  0  0  0  0
   -0.9439   -1.2845   -3.7025 H   0  0  0  0  0  0  0  0  0  0  0  0
    0.7679   -1.5607   -3.3268 H   0  0  0  0  0  0  0  0  0  0  0  0
   -4.3944   -1.4228   -0.9267 H   0  0  0  0  0  0  0  0  0  0  0  0
   -4.1551   -1.1196    0.7835 H   0  0  0  0  0  0  0  0  0  0  0  0
    5.1042    1.6903   -1.1475 H   0  0  0  0  0  0  0  0  0  0  0  0
    6.1573    0.7229   -2.1851 H   0  0  0  0  0  0  0  0  0  0  0  0
   -6.3310   -1.6688    2.3294 H   0  0  0  0  0  0  0  0  0  0  0  0
   -6.2929   -1.0016    3.9526 H   0  0  0  0  0  0  0  0  0  0  0  0
    7.3244    1.2038    2.8444 H   0  0  0  0  0  0  0  0  0  0  0  0
    8.1840    0.1541    1.7300 H   0  0  0  0  0  0  0  0  0  0  0  0
    5.1389    0.5554    1.7565 H   0  0  0  0  0  0  0  0  0  0  0  0
    6.2724    1.4320    0.7320 H   0  0  0  0  0  0  0  0  0  0  0  0
   -6.1438    1.2910    3.1090 H   0  0  0  0  0  0  0  0  0  0  0  0
   -4.8070    0.3041    2.5512 H   0  0  0  0  0  0  0  0  0  0  0  0
    3.9687   -0.3860   -0.3392 H   0  0  0  0  0  0  0  0  0  0  0  0
    4.9043   -1.3527   -1.4725 H   0  0  0  0  0  0  0  0  0  0  0  0
    7.0114   -0.7312   -0.3135 H   0  0  0  0  0  0  0  0  0  0  0  0
    5.8604   -1.6005    0.6990 H   0  0  0  0  0  0  0  0  0  0  0  0
   -6.5527   -1.0253    0.0754 H   0  0  0  0  0  0  0  0  0  0  0  0
   -6.1878    0.2688   -1.0464 H   0  0  0  0  0  0  0  0  0  0  0  0
   -7.2585    1.1709    0.9350 H   0  0  0  0  0  0  0  0  0  0  0  0
   -5.6408    1.8054    0.7868 H   0  0  0  0  0  0  0  0  0  0  0  0
   -8.5292   -0.5666    1.9034 H   0  0  0  0  0  0  0  0  0  0  0  0
   -8.5977   -1.5204    3.3879 H   0  0  0  0  0  0  0  0  0  0  0  0
   -8.4384    0.2382    3.4825 H   0  0  0  0  0  0  0  0  0  0  0  0
    6.0651   -0.7684    3.7475 H   0  0  0  0  0  0  0  0  0  0  0  0
    7.0074   -1.8330    2.6845 H   0  0  0  0  0  0  0  0  0  0  0  0
    7.8141   -0.9096    3.9456 H   0  0  0  0  0  0  0  0  0  0  0  0
   -6.4129   -0.8533   -0.4448 H   0  0  0  0  0  0  0  0  0  0  0  0
   -4.1616    2.5283    0.7548 H   0  0  0  0  0  0  0  0  0  0  0  0
   -4.4583   -1.0821    0.7005 H   0  0  0  0  0  0  0  0  0  0  0  0
   -4.7229    1.3382   -1.1847 H   0  0  0  0  0  0  0  0  0  0  0  0
   -4.3965   -0.2901   -1.6807 H   0  0  0  0  0  0  0  0  0  0  0  0
   -0.4412    0.5707    0.3379 H   0  0  0  0  0  0  0  0  0  0  0  0
   -0.3800    0.8576   -1.4302 H   0  0  0  0  0  0  0  0  0  0  0  0
   -5.1749    0.5378    2.5028 H   0  0  0  0  0  0  0  0  0  0  0  0
   -3.5058    0.7544    1.9484 H   0  0  0  0  0  0  0  0  0  0  0  0
    0.2005   -1.5868   -1.7426 H   0  0  0  0  0  0  0  0  0  0  0  0
    0.2965   -1.7696    0.0022 H   0  0  0  0  0  0  0  0  0  0  0  0
    2.0134    0.1182   -1.7065 H   0  0  0  0  0  0  0  0  0  0  0  0
    2.5027   -1.4705   -1.1125 H   0  0  0  0  0  0  0  0  0  0  0  0
    1.7715    0.9238    0.6638 H   0  0  0  0  0  0  0  0  0  0  0  0
    2.2677   -0.6595    1.2518 H   0  0  0  0  0  0  0  0  0  0  0  0
    4.0702    1.0451    1.2923 H   0  0  0  0  0  0  0  0  0  0  0  0
    3.9591    1.2439   -0.4538 H   0  0  0  0  0  0  0  0  0  0  0  0
    4.6867   -1.3938    0.9300 H   0  0  0  0  0  0  0  0  0  0  0  0
    4.7103   -1.0941   -0.8117 H   0  0  0  0  0  0  0  0  0  0  0  0
    6.4828    0.3012    1.2560 H   0  0  0  0  0  0  0  0  0  0  0  0
    6.9805   -0.9418    0.0973 H   0  0  0  0  0  0  0  0  0  0  0  0
    6.4775    0.6538   -0.4890 H   0  0  0  0  0  0  0  0  0  0  0  0
  1  5  1  0
  1  7  1  0
  2  5  2  0
  3  6  1  0
  4 10  1  0
  5  8  1  0
  6  7  1  0
  6 10  1  0
  8  9  1  0
  9 11  1  0
 11 12  1  0
 12 13  1  0
 13 14  1  0
 14 15  1  0
 15 16  1  0
 16 17  1  0
 19 23  1  0
 20 18  1  0
 21 18  2  0
 22 19  2  0
 23 25  1  0
 24 20  1  0
 25 24  1  0
 26 29  1  0
 27 18  1  0
 28 19  1  0
 29 24  1  0
 30 27  1  0
 31 28  1  0
 32 35  1  0
 33 34  1  0
 34 37  1  0
 35 39  1  0
 36 31  1  0
 37 36  1  0
 38 30  1  0
 39 38  1  0
 40 32  1  0
 41 33  1  0
 42 46  1  0
 42 48  1  0
 43 46  2  0
 44 47  1  0
 45 50  1  0
 46 49  1  0
 47 48  1  0
 47 50  1  0
 49 51  1  0
 51 52  1  0
 52 53  1  0
 53 54  1  0
 54 55  1  0
 55 56  1  0
  3 57  1  0
  4 58  1  0
  6 59  1  6
  7 60  1  0
  7 61  1  0
  8 62  1  0
  8 63  1  0
  9 64  1  0
  9 65  1  0
 10 66  1  0
 10 67  1  0
 11 68  1  0
 11 69  1  0
 12 70  1  0
 12 71  1  0
 13 72  1  0
 13 73  1  0
 14 74  1  0
 14 75  1  0
 15 76  1  0
 15 77  1  0
 16 78  1  0
 16 79  1  0
 17 80  1  0
 17 81  1  0
 17 82  1  0
 24 83  1  1
 25 84  1  0
 25 85  1  0
 26 86  1  0
 27 87  1  0
 27 88  1  0
 28 89  1  0
 28 90  1  0
 29 91  1  0
 29 92  1  0
 30 93  1  0
 30 94  1  0
 31 95  1  0
 31 96  1  0
 32 97  1  0
 32 98  1  0
 33 99  1  0
 33100  1  0
 34101  1  0
 34102  1  0
 35103  1  0
 35104  1  0
 36105  1  0
 36106  1  0
 37107  1  0
 37108  1  0
 38109  1  0
 38110  1  0
 39111  1  0
 39112  1  0
 40113  1  0
 40114  1  0
 40115  1  0
 41116  1  0
 41117  1  0
 41118  1  0
 44119  1  0
 45120  1  0
 47121  1  1
 48122  1  0
 48123  1  0
 49124  1  0
 49125  1  0
 50126  1  0
 50127  1  0
 51128  1  0
 51129  1  0
 52130  1  0
 52131  1  0
 53132  1  0
 53133  1  0
 54134  1  0
 54135  1  0
 55136  1  0
 55137  1  0
 56138  1  0
 56139  1  0
 56140  1  0
M  END
$$$$
