
     RDKit          3D

140137  0  0  0  0  0  0  0  0999 V2000
    4.0993   -1.5209    0.0002 O   0  0  0  0  0  0  0  0  0  0  0  0
    3.5049    0.3043   -1.2525 O   0  0  0  0  0  0  0  0  0  0  0  0
    7.6575   -0.6668    0.5145 O   0  0  0  0  0  0  0  0  0  0  0  0
    6.6748    1.4976    1.8768 O   0  0  0  0  0  0  0  0  0  0  0  0
    3.2079   -0.6434   -0.5413 C   0  0  0  0  0  0  0  0  0  0  0  0
    6.2426   -0.5981    0.7596 C   0  0  2  0  0  0  0  0  0  0  0  0
    5.4777   -1.3246   -0.3497 C   0  0  0  0  0  0  0  0  0  0  0  0
    1.8071   -1.0333   -0.1350 C   0  0  0  0  0  0  0  0  0  0  0  0
    0.7880    0.0514   -0.4743 C   0  0  0  0  0  0  0  0  0  0  0  0
    5.8695    0.8834    0.8683 C   0  0  0  0  0  0  0  0  0  0  0  0
   -0.6273   -0.3754   -0.0831 C   0  0  0  0  0  0  0  0  0  0  0  0
   -1.6462    0.7255   -0.3776 C   0  0  0  0  0  0  0  0  0  0  0  0
   -3.0646    0.2793   -0.0178 C   0  0  0  0  0  0  0  0  0  0  0  0
   -4.0812    1.3931   -0.2841 C   0  0  0  0  0  0  0  0  0  0  0  0
   -5.5083    1.0196    0.1291 C   0  0  0  0  0  0  0  0  0  0  0  0
   -6.1140   -0.0962   -0.7234 C   0  0  0  0  0  0  0  0  0  0  0  0
   -7.5661   -0.3533   -0.3523 C   0  0  0  0  0  0  0  0  0  0  0  0
   -2.4214    0.7661    0.3630 C   0  0  0  0  0  0  0  0  0  0  0  0
    2.8274   -0.0930    0.4303 C   0  0  0  0  0  0  0  0  0  0  0  0
   -1.4914   -0.1940    0.5964 O   0  0  0  0  0  0  0  0  0  0  0  0
   -2.2723    1.9559    0.6065 O   0  0  0  0  0  0  0  0  0  0  0  0
    2.4337    0.2427   -0.6768 O   0  0  0  0  0  0  0  0  0  0  0  0
    2.0667   -0.7058    1.3787 O   0  0  0  0  0  0  0  0  0  0  0  0
   -0.2029    0.2333    1.1082 C   0  0  2  0  0  0  0  0  0  0  0  0
    0.7161   -0.9885    0.9895 C   0  0  0  0  0  0  0  0  0  0  0  0
   -0.6172    2.0787    2.6840 O   0  0  0  0  0  0  0  0  0  0  0  0
   -3.6640    0.1731   -0.2496 C   0  0  0  0  0  0  0  0  0  0  0  0
    4.2401    0.0851    0.9240 C   0  0  0  0  0  0  0  0  0  0  0  0
   -0.3148    0.6878    2.5756 C   0  0  0  0  0  0  0  0  0  0  0  0
   -4.3225   -0.8453    0.6792 C   0  0  0  0  0  0  0  0  0  0  0  0
    5.0630   -1.1885    0.7499 C   0  0  0  0  0  0  0  0  0  0  0  0
   -7.2365    0.8442   -1.3392 C   0  0  0  0  0  0  0  0  0  0  0  0
    7.7712    0.8105   -0.2398 C   0  0  0  0  0  0  0  0  0  0  0  0
    7.5167   -0.3558   -1.1983 C   0  0  0  0  0  0  0  0  0  0  0  0
   -7.1567    0.5823    0.1671 C   0  0  0  0  0  0  0  0  0  0  0  0
    5.3109   -1.5994   -0.7053 C   0  0  0  0  0  0  0  0  0  0  0  0
    6.0546   -0.5936   -1.5918 C   0  0  0  0  0  0  0  0  0  0  0  0
   -5.5802   -1.4833    0.0784 C   0  0  0  0  0  0  0  0  0  0  0  0
   -6.8977   -0.8715    0.5666 C   0  0  0  0  0  0  0  0  0  0  0  0
   -8.3683    0.0936   -2.0260 C   0  0  0  0  0  0  0  0  0  0  0  0
    7.4592    2.1720   -0.8404 C   0  0  0  0  0  0  0  0  0  0  0  0
    2.3370   -0.0139    0.8495 O   0  0  0  0  0  0  0  0  0  0  0  0
    1.9255    1.7594    2.2444 O   0  0  0  0  0  0  0  0  0  0  0  0
    5.9059   -0.9316    0.8283 O   0  0  0  0  0  0  0  0  0  0  0  0
    5.2570   -1.7916   -1.7184 O   0  0  0  0  0  0  0  0  0  0  0  0
    1.5351    0.8849    1.4836 C   0  0  0  0  0  0  0  0  0  0  0  0
    4.5252   -0.9632    0.4320 C   0  0  1  0  0  0  0  0  0  0  0  0
    3.7293    0.1190    1.1616 C   0  0  0  0  0  0  0  0  0  0  0  0
    0.0918    0.6540    1.1165 C   0  0  0  0  0  0  0  0  0  0  0  0
    4.4712   -0.7781   -1.0879 C   0  0  0  0  0  0  0  0  0  0  0  0
   -0.2152    1.2174   -0.2686 C   0  0  0  0  0  0  0  0  0  0  0  0
   -1.6984    1.1240   -0.6370 C   0  0  0  0  0  0  0  0  0  0  0  0
   -2.1778   -0.3191   -0.8250 C   0  0  0  0  0  0  0  0  0  0  0  0
   -3.6220   -0.4167   -1.3253 C   0  0  0  0  0  0  0  0  0  0  0  0
   -4.6493    0.0665   -0.3006 C   0  0  0  0  0  0  0  0  0  0  0  0
   -6.0715   -0.1663   -0.7889 C   0  0  0  0  0  0  0  0  0  0  0  0
    7.9191   -1.6010    0.5988 H   0  0  0  0  0  0  0  0  0  0  0  0
    7.5867    1.2061    1.6766 H   0  0  0  0  0  0  0  0  0  0  0  0
    6.0597   -1.0763    1.7284 H   0  0  0  0  0  0  0  0  0  0  0  0
    5.9087   -2.3219   -0.4894 H   0  0  0  0  0  0  0  0  0  0  0  0
    5.6003   -0.8191   -1.3153 H   0  0  0  0  0  0  0  0  0  0  0  0
    1.5536   -1.9666   -0.6500 H   0  0  0  0  0  0  0  0  0  0  0  0
    1.7988   -1.2106    0.9453 H   0  0  0  0  0  0  0  0  0  0  0  0
    1.0558    0.9813    0.0420 H   0  0  0  0  0  0  0  0  0  0  0  0
    0.8192    0.2690   -1.5481 H   0  0  0  0  0  0  0  0  0  0  0  0
    6.0644    1.4125   -0.0692 H   0  0  0  0  0  0  0  0  0  0  0  0
    4.8206    1.0178    1.1419 H   0  0  0  0  0  0  0  0  0  0  0  0
   -0.9007   -1.2840   -0.6331 H   0  0  0  0  0  0  0  0  0  0  0  0
   -0.6553   -0.6209    0.9852 H   0  0  0  0  0  0  0  0  0  0  0  0
   -1.3875    1.6270    0.1910 H   0  0  0  0  0  0  0  0  0  0  0  0
   -1.6058    0.9929   -1.4401 H   0  0  0  0  0  0  0  0  0  0  0  0
   -3.3172   -0.6119   -0.6035 H   0  0  0  0  0  0  0  0  0  0  0  0
   -3.1047   -0.0071    1.0396 H   0  0  0  0  0  0  0  0  0  0  0  0
   -4.0666    1.6637   -1.3485 H   0  0  0  0  0  0  0  0  0  0  0  0
   -3.7860    2.2881    0.2784 H   0  0  0  0  0  0  0  0  0  0  0  0
   -5.5246    0.7303    1.1871 H   0  0  0  0  0  0  0  0  0  0  0  0
   -6.1363    1.9139    0.0402 H   0  0  0  0  0  0  0  0  0  0  0  0
   -5.5517   -1.0266   -0.5919 H   0  0  0  0  0  0  0  0  0  0  0  0
   -6.0584    0.1715   -1.7844 H   0  0  0  0  0  0  0  0  0  0  0  0
   -8.1754    0.5442   -0.4963 H   0  0  0  0  0  0  0  0  0  0  0  0
   -7.6567   -0.6648    0.6937 H   0  0  0  0  0  0  0  0  0  0  0  0
   -7.9816   -1.1497   -0.9783 H   0  0  0  0  0  0  0  0  0  0  0  0
    0.1755    1.0507    0.4830 H   0  0  0  0  0  0  0  0  0  0  0  0
    0.3528   -1.7939    1.6385 H   0  0  0  0  0  0  0  0  0  0  0  0
    0.6894   -1.4076   -0.0250 H   0  0  0  0  0  0  0  0  0  0  0  0
   -1.2963    2.2970    2.0079 H   0  0  0  0  0  0  0  0  0  0  0  0
   -4.3460    1.0011   -0.4681 H   0  0  0  0  0  0  0  0  0  0  0  0
   -3.3921   -0.2806   -1.2101 H   0  0  0  0  0  0  0  0  0  0  0  0
    4.2009    0.3648    1.9827 H   0  0  0  0  0  0  0  0  0  0  0  0
    4.6842    0.9416    0.4078 H   0  0  0  0  0  0  0  0  0  0  0  0
   -1.1012    0.1363    3.0989 H   0  0  0  0  0  0  0  0  0  0  0  0
    0.6260    0.5432    3.1126 H   0  0  0  0  0  0  0  0  0  0  0  0
   -3.6027   -1.6476    0.8787 H   0  0  0  0  0  0  0  0  0  0  0  0
   -4.5412   -0.3861    1.6500 H   0  0  0  0  0  0  0  0  0  0  0  0
    6.0209   -1.0793    1.2697 H   0  0  0  0  0  0  0  0  0  0  0  0
    4.5432   -2.0172    1.2472 H   0  0  0  0  0  0  0  0  0  0  0  0
   -7.3908    1.9189   -1.4946 H   0  0  0  0  0  0  0  0  0  0  0  0
   -6.2886    0.5940   -1.8273 H   0  0  0  0  0  0  0  0  0  0  0  0
    7.2077    0.6884    0.6879 H   0  0  0  0  0  0  0  0  0  0  0  0
    8.8328    0.7965    0.0392 H   0  0  0  0  0  0  0  0  0  0  0  0
    7.9371   -1.2708   -0.7668 H   0  0  0  0  0  0  0  0  0  0  0  0
    8.0908   -0.1688   -2.1138 H   0  0  0  0  0  0  0  0  0  0  0  0
   -8.1038    0.8979    0.6252 H   0  0  0  0  0  0  0  0  0  0  0  0
   -6.3823    1.2243    0.6032 H   0  0  0  0  0  0  0  0  0  0  0  0
    4.3470   -1.8222   -1.1806 H   0  0  0  0  0  0  0  0  0  0  0  0
    5.8663   -2.5470   -0.7032 H   0  0  0  0  0  0  0  0  0  0  0  0
    5.4969    0.3432   -1.6693 H   0  0  0  0  0  0  0  0  0  0  0  0
    6.0570   -1.0198   -2.6058 H   0  0  0  0  0  0  0  0  0  0  0  0
   -5.5922   -2.5391    0.3814 H   0  0  0  0  0  0  0  0  0  0  0  0
   -5.5370   -1.4909   -1.0165 H   0  0  0  0  0  0  0  0  0  0  0  0
   -7.7241   -1.4978    0.2124 H   0  0  0  0  0  0  0  0  0  0  0  0
   -6.9299   -0.9394    1.6609 H   0  0  0  0  0  0  0  0  0  0  0  0
   -9.3277    0.2956   -1.5374 H   0  0  0  0  0  0  0  0  0  0  0  0
   -8.4465    0.4114   -3.0704 H   0  0  0  0  0  0  0  0  0  0  0  0
   -8.1936   -0.9860   -2.0188 H   0  0  0  0  0  0  0  0  0  0  0  0
    7.7582    2.9646   -0.1462 H   0  0  0  0  0  0  0  0  0  0  0  0
    8.0055    2.3225   -1.7765 H   0  0  0  0  0  0  0  0  0  0  0  0
    6.3906    2.2951   -1.0395 H   0  0  0  0  0  0  0  0  0  0  0  0
    5.9377   -1.1269    1.7821 H   0  0  0  0  0  0  0  0  0  0  0  0
    6.0972   -1.8055   -1.2164 H   0  0  0  0  0  0  0  0  0  0  0  0
    4.1402   -1.9607    0.6777 H   0  0  0  0  0  0  0  0  0  0  0  0
    4.0865    1.1137    0.8679 H   0  0  0  0  0  0  0  0  0  0  0  0
    3.8787    0.0123    2.2435 H   0  0  0  0  0  0  0  0  0  0  0  0
   -0.1141   -0.4202    1.1791 H   0  0  0  0  0  0  0  0  0  0  0  0
   -0.5324    1.1389    1.8766 H   0  0  0  0  0  0  0  0  0  0  0  0
    4.8933    0.1877   -1.3831 H   0  0  0  0  0  0  0  0  0  0  0  0
    3.4493   -0.8487   -1.4700 H   0  0  0  0  0  0  0  0  0  0  0  0
    0.3881    0.7019   -1.0274 H   0  0  0  0  0  0  0  0  0  0  0  0
    0.0864    2.2731   -0.3007 H   0  0  0  0  0  0  0  0  0  0  0  0
   -2.2908    1.6237    0.1386 H   0  0  0  0  0  0  0  0  0  0  0  0
   -1.8594    1.6783   -1.5709 H   0  0  0  0  0  0  0  0  0  0  0  0
   -2.0872   -0.8794    0.1119 H   0  0  0  0  0  0  0  0  0  0  0  0
   -1.5277   -0.8174   -1.5553 H   0  0  0  0  0  0  0  0  0  0  0  0
   -3.8261   -1.4655   -1.5733 H   0  0  0  0  0  0  0  0  0  0  0  0
   -3.7309    0.1493   -2.2581 H   0  0  0  0  0  0  0  0  0  0  0  0
   -4.5053   -0.4641    0.6483 H   0  0  0  0  0  0  0  0  0  0  0  0
   -4.5167    1.1371   -0.1040 H   0  0  0  0  0  0  0  0  0  0  0  0
   -6.7889    0.1892   -0.0429 H   0  0  0  0  0  0  0  0  0  0  0  0
   -6.2618   -1.2323   -0.9584 H   0  0  0  0  0  0  0  0  0  0  0  0
   -6.2600    0.3708   -1.7239 H   0  0  0  0  0  0  0  0  0  0  0  0
  1  5  1  0
  1  7  1  0
  2  5  2  0
  3  6  1  0
  4 10  1  0
  5  8  1  0
  6  7  1  0
  6 10  1  0
  8  9  1  0
  9 11  1  0
 11 12  1  0
 12 13  1  0
 13 14  1  0
 14 15  1  0
 15 16  1  0
 16 17  1  0
 19 23  1  0
 20 18  1  0
 21 18  2  0
 22 19  2  0
 23 25  1  0
 24 20  1  0
 25 24  1  0
 26 29  1  0
 27 18  1  0
 28 19  1  0
 29 24  1  0
 30 27  1  0
 31 28  1  0
 32 35  1  0
 33 34  1  0
 34 37  1  0
 35 39  1  0
 36 31  1  0
 37 36  1  0
 38 30  1  0
 39 38  1  0
 40 32  1  0
 41 33  1  0
 42 46  1  0
 42 48  1  0
 43 46  2  0
 44 47  1  0
 45 50  1  0
 46 49  1  0
 47 48  1  0
 47 50  1  0
 49 51  1  0
 51 52  1  0
 52 53  1  0
 53 54  1  0
 54 55  1  0
 55 56  1  0
  3 57  1  0
  4 58  1  0
  6 59  1  1
  7 60  1  0
  7 61  1  0
  8 62  1  0
  8 63  1  0
  9 64  1  0
  9 65  1  0
 10 66  1  0
 10 67  1  0
 11 68  1  0
 11 69  1  0
 12 70  1  0
 12 71  1  0
 13 72  1  0
 13 73  1  0
 14 74  1  0
 14 75  1  0
 15 76  1  0
 15 77  1  0
 16 78  1  0
 16 79  1  0
 17 80  1  0
 17 81  1  0
 17 82  1  0
 24 83  1  6
 25 84  1  0
 25 85  1  0
 26 86  1  0
 27 87  1  0
 27 88  1  0
 28 89  1  0
 28 90  1  0
 29 91  1  0
 29 92  1  0
 30 93  1  0
 30 94  1  0
 31 95  1  0
 31 96  1  0
 32 97  1  0
 32 98  1  0
 33 99  1  0
 33100  1  0
 34101  1  0
 34102  1  0
 35103  1  0
 35104  1  0
 36105  1  0
 36106  1  0
 37107  1  0
 37108  1  0
 38109  1  0
 38110  1  0
 39111  1  0
 39112  1  0
 40113  1  0
 40114  1  0
 40115  1  0
 41116  1  0
 41117  1  0
 41118  1  0
 44119  1  0
 45120  1  0
 47121  1  6
 48122  1  0
 48123  1  0
 49124  1  0
 49125  1  0
 50126  1  0
 50127  1  0
 51128  1  0
 51129  1  0
 52130  1  0
 52131  1  0
 53132  1  0
 53133  1  0
 54134  1  0
 54135  1  0
 55136  1  0
 55137  1  0
 56138  1  0
 56139  1  0
 56140  1  0
M  END
$$$$
