
     RDKit          3D

 22 14  0  0  0  0  0  0  0  0999 V2000
   -1.4701   -0.8803   -0.0305 O   0  0  0  0  0  0  0  0  0  0  0  0
    1.5404   -0.7694    0.0619 O   0  0  0  0  0  0  0  0  0  0  0  0
   -0.0750    1.6041    0.0142 O   0  0  0  0  0  0  0  0  0  0  0  0
    0.0046    0.0457   -0.0456 Si  0  0  0  0  0  4  0  0  0  0  0  0
    0.0000    0.0000    0.0000 Al  0  0  0  0  0 15  0  0  0  0  0  0
    0.0000    0.0000    0.0000 Al  0  0  0  0  0 15  0  0  0  0  0  0
    0.0000    0.0000    0.0000 Mg  0  0  0  0  0 15  0  0  0  0  0  0
   -1.4897   -0.8479   -0.0401 O   0  0  0  0  0  0  0  0  0  0  0  0
    1.5204   -0.7987   -0.0272 O   0  0  0  0  0  0  0  0  0  0  0  0
   -0.0369    1.6023   -0.0377 O   0  0  0  0  0  0  0  0  0  0  0  0
    0.0062    0.0443    0.1050 Si  0  0  0  0  0  4  0  0  0  0  0  0
    1.6141   -0.5816   -0.0566 O   0  0  0  0  0  0  0  0  0  0  0  0
   -1.3362   -1.0460   -0.0520 O   0  0  0  0  0  0  0  0  0  0  0  0
   -0.2815    1.5789   -0.0605 O   0  0  0  0  0  0  0  0  0  0  0  0
    0.0035    0.0486    0.1692 Si  0  0  0  0  0  4  0  0  0  0  0  0
   -0.0092    0.3753   -0.0000 O   0  0  0  0  0  0  0  0  0  0  0  0
   -1.4120   -0.9508   -0.0507 O   0  0  0  0  0  0  0  0  0  0  0  0
    1.5685   -0.7062   -0.0130 O   0  0  0  0  0  0  0  0  0  0  0  0
   -0.1563    1.6053   -0.0390 O   0  0  0  0  0  0  0  0  0  0  0  0
   -0.0002    0.0517    0.1027 Si  0  0  0  0  0  4  0  0  0  0  0  0
   -0.8096   -0.1909   -0.0000 H   0  0  0  0  0  0  0  0  0  0  0  0
    0.8188   -0.1845    0.0000 H   0  0  0  0  0  0  0  0  0  0  0  0
  4  1  1  0
  4  2  1  0
  4  3  2  0
 11  8  1  0
 11  9  1  0
 11 10  2  0
 15 12  1  0
 15 13  1  0
 15 14  2  0
 20 17  1  0
 20 18  1  0
 20 19  2  0
 16 21  1  0
 16 22  1  0
M  CHG  8   1  -1   2  -1   5   3   6   3   7   2   8  -1   9  -1  12  -1
M  CHG  3  13  -1  17  -1  18  -1
M  END
$$$$
