
     RDKit          3D

 22 14  0  0  0  0  0  0  0  0999 V2000
    1.5666   -0.6673   -0.0599 O   0  0  0  0  0  0  0  0  0  0  0  0
   -1.3938   -0.9634   -0.0554 O   0  0  0  0  0  0  0  0  0  0  0  0
   -0.1786    1.5904   -0.0632 O   0  0  0  0  0  0  0  0  0  0  0  0
    0.0058    0.0403    0.1786 Si  0  0  0  0  0  4  0  0  0  0  0  0
    0.0000    0.0000    0.0000 Al  0  0  0  0  0 15  0  0  0  0  0  0
    0.0000    0.0000    0.0000 Al  0  0  0  0  0 15  0  0  0  0  0  0
    0.0000    0.0000    0.0000 Mg  0  0  0  0  0 15  0  0  0  0  0  0
    1.6021   -0.6502    0.0526 O   0  0  0  0  0  0  0  0  0  0  0  0
   -1.4068   -0.9767   -0.0461 O   0  0  0  0  0  0  0  0  0  0  0  0
   -0.2020    1.5945   -0.0068 O   0  0  0  0  0  0  0  0  0  0  0  0
    0.0067    0.0325    0.0002 Si  0  0  0  0  0  4  0  0  0  0  0  0
   -1.4698   -0.8616   -0.0324 O   0  0  0  0  0  0  0  0  0  0  0  0
    1.5165   -0.7945    0.0677 O   0  0  0  0  0  0  0  0  0  0  0  0
   -0.0468    1.6091    0.0176 O   0  0  0  0  0  0  0  0  0  0  0  0
    0.0002    0.0470   -0.0529 Si  0  0  0  0  0  4  0  0  0  0  0  0
   -0.0067    0.3949   -0.0000 O   0  0  0  0  0  0  0  0  0  0  0  0
   -1.4457   -0.8902   -0.0481 O   0  0  0  0  0  0  0  0  0  0  0  0
    1.5334   -0.7550   -0.0568 O   0  0  0  0  0  0  0  0  0  0  0  0
   -0.0897    1.6020   -0.0579 O   0  0  0  0  0  0  0  0  0  0  0  0
    0.0021    0.0432    0.1627 Si  0  0  0  0  0  4  0  0  0  0  0  0
    0.8010   -0.1950    0.0000 H   0  0  0  0  0  0  0  0  0  0  0  0
   -0.7944   -0.1999   -0.0000 H   0  0  0  0  0  0  0  0  0  0  0  0
  4  1  1  0
  4  2  1  0
  4  3  2  0
 11  8  1  0
 11  9  1  0
 11 10  2  0
 15 12  1  0
 15 13  1  0
 15 14  2  0
 20 17  1  0
 20 18  1  0
 20 19  2  0
 16 21  1  0
 16 22  1  0
M  CHG  8   1  -1   2  -1   5   3   6   3   7   2   8  -1   9  -1  12  -1
M  CHG  3  13  -1  17  -1  18  -1
M  END
$$$$
