
     RDKit          3D

 22 14  0  0  0  0  0  0  0  0999 V2000
   -1.4438   -0.8795    0.5332 O   0  0  0  0  0  0  0  0  0  0  0  0
    1.4997   -0.7559    0.8500 O   0  0  0  0  0  0  0  0  0  0  0  0
   -0.0760    1.5642    0.9367 O   0  0  0  0  0  0  0  0  0  0  0  0
    0.0201    0.0712    0.4247 Si  0  0  0  0  0  4  0  0  0  0  0  0
    0.0000    0.0000    0.0000 Al  0  0  0  0  0 15  0  0  0  0  0  0
    0.0000    0.0000    0.0000 Al  0  0  0  0  0 15  0  0  0  0  0  0
    0.0000    0.0000    0.0000 Mg  0  0  0  0  0 15  0  0  0  0  0  0
   -1.3427   -1.0306   -0.0749 O   0  0  0  0  0  0  0  0  0  0  0  0
    1.5553   -0.5654    0.2477 O   0  0  0  0  0  0  0  0  0  0  0  0
   -0.1626    1.4753   -0.6425 O   0  0  0  0  0  0  0  0  0  0  0  0
   -0.0499    0.1206    0.1667 Si  0  0  0  0  0  4  0  0  0  0  0  0
   -1.4991   -0.8185   -0.0501 O   0  0  0  0  0  0  0  0  0  0  0  0
    1.5193   -0.7957   -0.0525 O   0  0  0  0  0  0  0  0  0  0  0  0
   -0.0168    1.5887   -0.0546 O   0  0  0  0  0  0  0  0  0  0  0  0
   -0.0033    0.0255    0.1571 Si  0  0  0  0  0  4  0  0  0  0  0  0
   -0.0058    0.3736   -0.0000 O   0  0  0  0  0  0  0  0  0  0  0  0
    1.4885   -0.8185   -0.0566 O   0  0  0  0  0  0  0  0  0  0  0  0
   -1.4836   -0.8339   -0.0504 O   0  0  0  0  0  0  0  0  0  0  0  0
   -0.0040    1.6079   -0.0596 O   0  0  0  0  0  0  0  0  0  0  0  0
   -0.0009    0.0446    0.1666 Si  0  0  0  0  0  4  0  0  0  0  0  0
    0.8238   -0.1848    0.0000 H   0  0  0  0  0  0  0  0  0  0  0  0
   -0.8181   -0.1887   -0.0000 H   0  0  0  0  0  0  0  0  0  0  0  0
  4  1  1  0
  4  2  1  0
  4  3  2  0
 11  8  1  0
 11  9  1  0
 11 10  2  0
 15 12  1  0
 15 13  1  0
 15 14  2  0
 20 17  1  0
 20 18  1  0
 20 19  2  0
 16 21  1  0
 16 22  1  0
M  CHG  8   1  -1   2  -1   5   3   6   3   7   2   8  -1   9  -1  12  -1
M  CHG  3  13  -1  17  -1  18  -1
M  END
$$$$
