
     RDKit          3D

 22 14  0  0  0  0  0  0  0  0999 V2000
    1.5261   -0.7674   -0.0463 O   0  0  0  0  0  0  0  0  0  0  0  0
   -1.4592   -0.8874   -0.0204 O   0  0  0  0  0  0  0  0  0  0  0  0
   -0.0692    1.6083   -0.0363 O   0  0  0  0  0  0  0  0  0  0  0  0
    0.0023    0.0465    0.1030 Si  0  0  0  0  0  4  0  0  0  0  0  0
    0.0000    0.0000    0.0000 Al  0  0  0  0  0 15  0  0  0  0  0  0
    0.0000    0.0000    0.0000 Al  0  0  0  0  0 15  0  0  0  0  0  0
    0.0000    0.0000    0.0000 Mg  0  0  0  0  0 15  0  0  0  0  0  0
    1.6555   -0.4906   -0.0420 O   0  0  0  0  0  0  0  0  0  0  0  0
   -1.2763   -1.1227   -0.0298 O   0  0  0  0  0  0  0  0  0  0  0  0
   -0.3847    1.5663   -0.0378 O   0  0  0  0  0  0  0  0  0  0  0  0
    0.0055    0.0469    0.1096 Si  0  0  0  0  0  4  0  0  0  0  0  0
    1.5610   -0.7114    0.0646 O   0  0  0  0  0  0  0  0  0  0  0  0
   -1.4220   -0.9491   -0.0513 O   0  0  0  0  0  0  0  0  0  0  0  0
   -0.1403    1.6068   -0.0013 O   0  0  0  0  0  0  0  0  0  0  0  0
    0.0014    0.0536   -0.0121 Si  0  0  0  0  0  4  0  0  0  0  0  0
   -0.0017    0.4036   -0.0000 O   0  0  0  0  0  0  0  0  0  0  0  0
   -1.4690   -0.8905   -0.0307 O   0  0  0  0  0  0  0  0  0  0  0  0
    1.5691   -0.7325   -0.0434 O   0  0  0  0  0  0  0  0  0  0  0  0
   -0.1053    1.5958   -0.0390 O   0  0  0  0  0  0  0  0  0  0  0  0
    0.0052    0.0272    0.1131 Si  0  0  0  0  0  4  0  0  0  0  0  0
   -0.7894   -0.2025   -0.0000 H   0  0  0  0  0  0  0  0  0  0  0  0
    0.7911   -0.2010    0.0000 H   0  0  0  0  0  0  0  0  0  0  0  0
  4  1  1  0
  4  2  1  0
  4  3  2  0
 11  8  1  0
 11  9  1  0
 11 10  2  0
 15 12  1  0
 15 13  1  0
 15 14  2  0
 20 17  1  0
 20 18  1  0
 20 19  2  0
 16 21  1  0
 16 22  1  0
M  CHG  8   1  -1   2  -1   5   3   6   3   7   2   8  -1   9  -1  12  -1
M  CHG  3  13  -1  17  -1  18  -1
M  END
$$$$
