
     RDKit          3D

 22 14  0  0  0  0  0  0  0  0999 V2000
   -1.4432   -0.8895   -0.0481 O   0  0  0  0  0  0  0  0  0  0  0  0
    1.5338   -0.7444   -0.0550 O   0  0  0  0  0  0  0  0  0  0  0  0
   -0.0968    1.5978   -0.0560 O   0  0  0  0  0  0  0  0  0  0  0  0
    0.0062    0.0361    0.1590 Si  0  0  0  0  0  4  0  0  0  0  0  0
    0.0000    0.0000    0.0000 Al  0  0  0  0  0 15  0  0  0  0  0  0
    0.0000    0.0000    0.0000 Al  0  0  0  0  0 15  0  0  0  0  0  0
    0.0000    0.0000    0.0000 Mg  0  0  0  0  0 15  0  0  0  0  0  0
    1.5365   -0.7809    0.0548 O   0  0  0  0  0  0  0  0  0  0  0  0
   -1.4832   -0.8729   -0.0528 O   0  0  0  0  0  0  0  0  0  0  0  0
   -0.0526    1.6138   -0.0020 O   0  0  0  0  0  0  0  0  0  0  0  0
   -0.0007    0.0401   -0.0000 Si  0  0  0  0  0  4  0  0  0  0  0  0
    1.6305   -0.5524    0.0695 O   0  0  0  0  0  0  0  0  0  0  0  0
   -1.3092   -1.0964   -0.0554 O   0  0  0  0  0  0  0  0  0  0  0  0
   -0.3212    1.5980   -0.0140 O   0  0  0  0  0  0  0  0  0  0  0  0
   -0.0001    0.0507   -0.0000 Si  0  0  0  0  0  4  0  0  0  0  0  0
   -0.0043    0.3965   -0.0000 O   0  0  0  0  0  0  0  0  0  0  0  0
   -1.4871   -0.8501   -0.0403 O   0  0  0  0  0  0  0  0  0  0  0  0
    1.5253   -0.7937   -0.0337 O   0  0  0  0  0  0  0  0  0  0  0  0
   -0.0397    1.6049   -0.0408 O   0  0  0  0  0  0  0  0  0  0  0  0
    0.0016    0.0390    0.1148 Si  0  0  0  0  0  4  0  0  0  0  0  0
    0.7937   -0.1967    0.0000 H   0  0  0  0  0  0  0  0  0  0  0  0
   -0.7895   -0.1998   -0.0000 H   0  0  0  0  0  0  0  0  0  0  0  0
  4  1  1  0
  4  2  1  0
  4  3  2  0
 11  8  1  0
 11  9  1  0
 11 10  2  0
 15 12  1  0
 15 13  1  0
 15 14  2  0
 20 17  1  0
 20 18  1  0
 20 19  2  0
 16 21  1  0
 16 22  1  0
M  CHG  8   1  -1   2  -1   5   3   6   3   7   2   8  -1   9  -1  12  -1
M  CHG  3  13  -1  17  -1  18  -1
M  END
$$$$
