
     RDKit          3D

 22 14  0  0  0  0  0  0  0  0999 V2000
   -1.3712   -0.8654    0.7668 O   0  0  0  0  0  0  0  0  0  0  0  0
    1.5747   -0.5336    0.5932 O   0  0  0  0  0  0  0  0  0  0  0  0
   -0.1965    1.4770   -0.2293 O   0  0  0  0  0  0  0  0  0  0  0  0
   -0.0070   -0.0781    0.0049 Si  0  0  0  0  0  4  0  0  0  0  0  0
    0.0000    0.0000    0.0000 Al  0  0  0  0  0 15  0  0  0  0  0  0
    0.0000    0.0000    0.0000 Al  0  0  0  0  0 15  0  0  0  0  0  0
    0.0000    0.0000    0.0000 Mg  0  0  0  0  0 15  0  0  0  0  0  0
    1.5322   -0.7832   -0.0485 O   0  0  0  0  0  0  0  0  0  0  0  0
   -1.5122   -0.8209   -0.0459 O   0  0  0  0  0  0  0  0  0  0  0  0
   -0.0219    1.5804   -0.0500 O   0  0  0  0  0  0  0  0  0  0  0  0
    0.0019    0.0237    0.1444 Si  0  0  0  0  0  4  0  0  0  0  0  0
    1.5024   -0.7858   -0.0723 O   0  0  0  0  0  0  0  0  0  0  0  0
   -1.4659   -0.8508   -0.0714 O   0  0  0  0  0  0  0  0  0  0  0  0
   -0.0350    1.5876   -0.0810 O   0  0  0  0  0  0  0  0  0  0  0  0
   -0.0015    0.0489    0.2247 Si  0  0  0  0  0  4  0  0  0  0  0  0
   -0.0001    0.3812   -0.0000 O   0  0  0  0  0  0  0  0  0  0  0  0
    1.5813   -0.6499   -0.0518 O   0  0  0  0  0  0  0  0  0  0  0  0
   -1.3783   -0.9908   -0.0375 O   0  0  0  0  0  0  0  0  0  0  0  0
   -0.2021    1.5948   -0.0483 O   0  0  0  0  0  0  0  0  0  0  0  0
   -0.0010    0.0458    0.1376 Si  0  0  0  0  0  4  0  0  0  0  0  0
    0.8027   -0.1906    0.0000 H   0  0  0  0  0  0  0  0  0  0  0  0
   -0.8026   -0.1906   -0.0000 H   0  0  0  0  0  0  0  0  0  0  0  0
  4  1  1  0
  4  2  1  0
  4  3  2  0
 11  8  1  0
 11  9  1  0
 11 10  2  0
 15 12  1  0
 15 13  1  0
 15 14  2  0
 20 17  1  0
 20 18  1  0
 20 19  2  0
 16 21  1  0
 16 22  1  0
M  CHG  8   1  -1   2  -1   5   3   6   3   7   2   8  -1   9  -1  12  -1
M  CHG  3  13  -1  17  -1  18  -1
M  END
$$$$
