
     RDKit          2D

 20 12  0  0  0  0  0  0  0  0999 V2000
    2.7107   -5.5760    0.0000 O   0  0  0  0  0  0  0  0  0  0  0  0
    2.7107   -4.1471    0.0000 O   0  0  0  0  0  0  0  0  0  0  0  0
    3.9482   -4.8616    0.0000 O   0  0  0  0  0  0  0  0  0  0  0  0
    3.1232   -4.8616    0.0000 Si  0  0  0  0  0  4  0  0  0  0  0  0
    0.0000    0.0000    0.0000 Al  0  0  0  0  0 15  0  0  0  0  0  0
    1.1196    0.0000    0.0000 Al  0  0  0  0  0 15  0  0  0  0  0  0
    2.2393    0.0000    0.0000 Mg  0  0  0  0  0 15  0  0  0  0  0  0
   -0.4125   -3.0789    0.0000 O   0  0  0  0  0  0  0  0  0  0  0  0
   -0.4125   -1.6500    0.0000 O   0  0  0  0  0  0  0  0  0  0  0  0
    0.8250   -2.3645    0.0000 O   0  0  0  0  0  0  0  0  0  0  0  0
    0.0000   -2.3645    0.0000 Si  0  0  0  0  0  4  0  0  0  0  0  0
    2.9464   -3.0789    0.0000 O   0  0  0  0  0  0  0  0  0  0  0  0
    2.9464   -1.6500    0.0000 O   0  0  0  0  0  0  0  0  0  0  0  0
    4.1839   -2.3645    0.0000 O   0  0  0  0  0  0  0  0  0  0  0  0
    3.3589   -2.3645    0.0000 Si  0  0  0  0  0  4  0  0  0  0  0  0
    6.4232   -2.3645    0.0000 O   0  0  0  0  0  0  0  0  0  0  0  0
   -0.3830   -5.7823    0.0000 O   0  0  0  0  0  0  0  0  0  0  0  0
   -0.3830   -4.3534    0.0000 O   0  0  0  0  0  0  0  0  0  0  0  0
    0.8545   -5.0679    0.0000 O   0  0  0  0  0  0  0  0  0  0  0  0
    0.0295   -5.0679    0.0000 Si  0  0  0  0  0  4  0  0  0  0  0  0
  4  1  1  0
  4  2  1  0
  4  3  2  0
 11  8  1  0
 11  9  1  0
 11 10  2  0
 15 12  1  0
 15 13  1  0
 15 14  2  0
 20 17  1  0
 20 18  1  0
 20 19  2  0
M  CHG  8   1  -1   2  -1   5   3   6   3   7   2   8  -1   9  -1  12  -1
M  CHG  3  13  -1  17  -1  18  -1
M  END
> <chembl_id>
CHEMBL3833322

> <chembl_pref_name>
ALMASILATE
