
     RDKit          3D

 22 14  0  0  0  0  0  0  0  0999 V2000
    1.5076   -0.8125   -0.0409 O   0  0  0  0  0  0  0  0  0  0  0  0
   -1.5058   -0.8246   -0.0353 O   0  0  0  0  0  0  0  0  0  0  0  0
   -0.0046    1.6029   -0.0414 O   0  0  0  0  0  0  0  0  0  0  0  0
    0.0027    0.0341    0.1176 Si  0  0  0  0  0  4  0  0  0  0  0  0
    0.0000    0.0000    0.0000 Al  0  0  0  0  0 15  0  0  0  0  0  0
    0.0000    0.0000    0.0000 Al  0  0  0  0  0 15  0  0  0  0  0  0
    0.0000    0.0000    0.0000 Mg  0  0  0  0  0 15  0  0  0  0  0  0
    1.6178   -0.5720   -0.0442 O   0  0  0  0  0  0  0  0  0  0  0  0
   -1.3244   -1.0600   -0.0259 O   0  0  0  0  0  0  0  0  0  0  0  0
   -0.2917    1.5816   -0.0368 O   0  0  0  0  0  0  0  0  0  0  0  0
   -0.0018    0.0504    0.1069 Si  0  0  0  0  0  4  0  0  0  0  0  0
    1.5890   -0.6281   -0.0540 O   0  0  0  0  0  0  0  0  0  0  0  0
   -1.3553   -1.0172   -0.0430 O   0  0  0  0  0  0  0  0  0  0  0  0
   -0.2272    1.5974   -0.0531 O   0  0  0  0  0  0  0  0  0  0  0  0
   -0.0065    0.0478    0.1501 Si  0  0  0  0  0  4  0  0  0  0  0  0
   -0.0023    0.3983   -0.0000 O   0  0  0  0  0  0  0  0  0  0  0  0
    1.5267   -0.7873   -0.0528 O   0  0  0  0  0  0  0  0  0  0  0  0
   -1.5048   -0.8289   -0.0510 O   0  0  0  0  0  0  0  0  0  0  0  0
   -0.0241    1.5912   -0.0552 O   0  0  0  0  0  0  0  0  0  0  0  0
    0.0022    0.0249    0.1589 Si  0  0  0  0  0  4  0  0  0  0  0  0
   -0.7938   -0.2000   -0.0000 H   0  0  0  0  0  0  0  0  0  0  0  0
    0.7960   -0.1982    0.0000 H   0  0  0  0  0  0  0  0  0  0  0  0
  4  1  1  0
  4  2  1  0
  4  3  2  0
 11  8  1  0
 11  9  1  0
 11 10  2  0
 15 12  1  0
 15 13  1  0
 15 14  2  0
 20 17  1  0
 20 18  1  0
 20 19  2  0
 16 21  1  0
 16 22  1  0
M  CHG  8   1  -1   2  -1   5   3   6   3   7   2   8  -1   9  -1  12  -1
M  CHG  3  13  -1  17  -1  18  -1
M  END
$$$$
