
     RDKit          3D

 20 12  0  0  0  0  0  0  0  0999 V2000
    1.5233   -0.7959   -0.0426 O   0  0  0  0  0  0  0  0  0  0  0  0
   -1.5140   -0.8103   -0.0370 O   0  0  0  0  0  0  0  0  0  0  0  0
   -0.0046    1.5870   -0.0418 O   0  0  0  0  0  0  0  0  0  0  0  0
   -0.0047    0.0192    0.1214 Si  0  0  0  0  0  4  0  0  0  0  0  0
    0.0000    0.0000    0.0000 Al  0  0  0  0  0 15  0  0  0  0  0  0
    0.0000    0.0000    0.0000 Al  0  0  0  0  0 15  0  0  0  0  0  0
    0.0000    0.0000    0.0000 Mg  0  0  0  0  0 15  0  0  0  0  0  0
    1.6260   -0.5419   -0.0434 O   0  0  0  0  0  0  0  0  0  0  0  0
   -1.3055   -1.0834   -0.0281 O   0  0  0  0  0  0  0  0  0  0  0  0
   -0.3283    1.5726   -0.0380 O   0  0  0  0  0  0  0  0  0  0  0  0
    0.0079    0.0527    0.1095 Si  0  0  0  0  0  4  0  0  0  0  0  0
    1.5312   -0.7671    0.0750 O   0  0  0  0  0  0  0  0  0  0  0  0
   -1.4432   -0.9211   -0.0703 O   0  0  0  0  0  0  0  0  0  0  0  0
   -0.0827    1.6311   -0.0044 O   0  0  0  0  0  0  0  0  0  0  0  0
   -0.0052    0.0571   -0.0003 Si  0  0  0  0  0  4  0  0  0  0  0  0
    0.0000    0.0000    0.0000 O   0  0  0  0  0  0  0  0  0  0  0  0
    1.5092   -0.8059    0.0731 O   0  0  0  0  0  0  0  0  0  0  0  0
   -1.4751   -0.8718   -0.0441 O   0  0  0  0  0  0  0  0  0  0  0  0
   -0.0334    1.6238    0.0140 O   0  0  0  0  0  0  0  0  0  0  0  0
   -0.0007    0.0538   -0.0429 Si  0  0  0  0  0  4  0  0  0  0  0  0
  4  1  1  0
  4  2  1  0
  4  3  2  0
 11  8  1  0
 11  9  1  0
 11 10  2  0
 15 12  1  0
 15 13  1  0
 15 14  2  0
 20 17  1  0
 20 18  1  0
 20 19  2  0
M  CHG  8   1  -1   2  -1   5   3   6   3   7   2   8  -1   9  -1  12  -1
M  CHG  3  13  -1  17  -1  18  -1
M  END
