
     RDKit          3D

 21 16  0  0  0  0  0  0  0  0999 V2000
   -0.0016    0.3978    0.0000 O   0  0  0  0  0  0  0  0  0  0  0  0
    0.8765    0.0480   -0.0218 C   0  0  0  0  0  0  0  0  0  0  0  0
    1.4623   -1.0675   -0.1087 O   0  0  0  0  0  0  0  0  0  0  0  0
    1.3578    1.2133    0.0380 O   0  0  0  0  0  0  0  0  0  0  0  0
   -0.6398   -0.0303    0.0162 C   0  0  0  0  0  0  0  0  0  0  0  0
    0.8730    0.0545   -0.0771 C   0  0  0  0  0  0  0  0  0  0  0  0
    1.4429   -0.9753   -0.5331 O   0  0  0  0  0  0  0  0  0  0  0  0
    1.3653    1.1588    0.2881 O   0  0  0  0  0  0  0  0  0  0  0  0
   -0.6369   -0.0442    0.0546 C   0  0  0  0  0  0  0  0  0  0  0  0
    0.0000    0.0000    0.0000 Zn  0  0  0  0  0 15  0  0  0  0  0  0
    0.0055    0.3978    0.0000 O   0  0  0  0  0  0  0  0  0  0  0  0
    0.7643   -0.1958    0.0000 H   0  0  0  0  0  0  0  0  0  0  0  0
   -0.7626   -0.2020    0.0000 H   0  0  0  0  0  0  0  0  0  0  0  0
   -1.0887    0.9648    0.0916 H   0  0  0  0  0  0  0  0  0  0  0  0
   -1.0092   -0.5081   -0.8961 H   0  0  0  0  0  0  0  0  0  0  0  0
   -0.9589   -0.6201    0.8807 H   0  0  0  0  0  0  0  0  0  0  0  0
   -1.0030   -1.0209   -0.2762 H   0  0  0  0  0  0  0  0  0  0  0  0
   -0.9278    0.0985    1.0996 H   0  0  0  0  0  0  0  0  0  0  0  0
   -1.1134    0.7286   -0.5559 H   0  0  0  0  0  0  0  0  0  0  0  0
    0.7607   -0.2094    0.0000 H   0  0  0  0  0  0  0  0  0  0  0  0
   -0.7661   -0.1884    0.0000 H   0  0  0  0  0  0  0  0  0  0  0  0
  3  2  1  0
  4  2  2  0
  5  2  1  0
  7  6  1  0
  8  6  2  0
  9  6  1  0
  1 12  1  0
  1 13  1  0
  5 14  1  0
  5 15  1  0
  5 16  1  0
  9 17  1  0
  9 18  1  0
  9 19  1  0
 11 20  1  0
 11 21  1  0
M  CHG  3   3  -1   7  -1  10   2
M  END
$$$$
