
     RDKit          3D

 21 16  0  0  0  0  0  0  0  0999 V2000
   -0.0034    0.3978    0.0000 O   0  0  0  0  0  0  0  0  0  0  0  0
    0.8522   -0.0323    0.2092 C   0  0  0  0  0  0  0  0  0  0  0  0
    1.4852    1.0515    0.0753 O   0  0  0  0  0  0  0  0  0  0  0  0
    1.2555   -1.1637    0.5996 O   0  0  0  0  0  0  0  0  0  0  0  0
   -0.6214    0.0281   -0.1537 C   0  0  0  0  0  0  0  0  0  0  0  0
    0.8569   -0.0143   -0.1910 C   0  0  0  0  0  0  0  0  0  0  0  0
    1.4591    1.0774    0.0109 O   0  0  0  0  0  0  0  0  0  0  0  0
    1.2983   -1.1152   -0.6228 O   0  0  0  0  0  0  0  0  0  0  0  0
   -0.6257    0.0059    0.1380 C   0  0  0  0  0  0  0  0  0  0  0  0
    0.0000    0.0000    0.0000 Zn  0  0  0  0  0 15  0  0  0  0  0  0
   -0.0004    0.3978    0.0000 O   0  0  0  0  0  0  0  0  0  0  0  0
    0.7651   -0.1925    0.0000 H   0  0  0  0  0  0  0  0  0  0  0  0
   -0.7618   -0.2053    0.0000 H   0  0  0  0  0  0  0  0  0  0  0  0
   -0.8329   -0.6769   -0.9632 H   0  0  0  0  0  0  0  0  0  0  0  0
   -0.9100    1.0306   -0.4840 H   0  0  0  0  0  0  0  0  0  0  0  0
   -1.2286   -0.2374    0.7168 H   0  0  0  0  0  0  0  0  0  0  0  0
   -1.0908   -0.9651   -0.0572 H   0  0  0  0  0  0  0  0  0  0  0  0
   -0.7674    0.2511    1.1948 H   0  0  0  0  0  0  0  0  0  0  0  0
   -1.1305    0.7603   -0.4727 H   0  0  0  0  0  0  0  0  0  0  0  0
   -0.7632   -0.1998    0.0000 H   0  0  0  0  0  0  0  0  0  0  0  0
    0.7637   -0.1981    0.0000 H   0  0  0  0  0  0  0  0  0  0  0  0
  3  2  1  0
  4  2  2  0
  5  2  1  0
  7  6  1  0
  8  6  2  0
  9  6  1  0
  1 12  1  0
  1 13  1  0
  5 14  1  0
  5 15  1  0
  5 16  1  0
  9 17  1  0
  9 18  1  0
  9 19  1  0
 11 20  1  0
 11 21  1  0
M  CHG  3   3  -1   7  -1  10   2
M  END
$$$$
