
     RDKit          3D

 21 16  0  0  0  0  0  0  0  0999 V2000
    0.0003    0.3978    0.0000 O   0  0  0  0  0  0  0  0  0  0  0  0
    0.8611    0.1177    0.1252 C   0  0  0  0  0  0  0  0  0  0  0  0
    1.5992   -0.8352   -0.2493 O   0  0  0  0  0  0  0  0  0  0  0  0
    1.1694    1.2218    0.6555 O   0  0  0  0  0  0  0  0  0  0  0  0
   -0.6275   -0.0902   -0.0932 C   0  0  0  0  0  0  0  0  0  0  0  0
    0.8755    0.0657    0.0116 C   0  0  0  0  0  0  0  0  0  0  0  0
    1.3396    1.1919   -0.3192 O   0  0  0  0  0  0  0  0  0  0  0  0
    1.4776   -0.9888    0.3591 O   0  0  0  0  0  0  0  0  0  0  0  0
   -0.6392   -0.0434   -0.0099 C   0  0  0  0  0  0  0  0  0  0  0  0
    0.0000    0.0000    0.0000 Zn  0  0  0  0  0 15  0  0  0  0  0  0
   -0.0007    0.3978    0.0000 O   0  0  0  0  0  0  0  0  0  0  0  0
    0.7633   -0.1995    0.0000 H   0  0  0  0  0  0  0  0  0  0  0  0
   -0.7636   -0.1983    0.0000 H   0  0  0  0  0  0  0  0  0  0  0  0
   -1.1525   -0.0456    0.8656 H   0  0  0  0  0  0  0  0  0  0  0  0
   -0.8311   -1.0615   -0.5542 H   0  0  0  0  0  0  0  0  0  0  0  0
   -1.0187    0.6930   -0.7495 H   0  0  0  0  0  0  0  0  0  0  0  0
   -1.1026    0.8989   -0.3175 H   0  0  0  0  0  0  0  0  0  0  0  0
   -1.0064   -0.2997    0.9884 H   0  0  0  0  0  0  0  0  0  0  0  0
   -0.9445   -0.8246   -0.7124 H   0  0  0  0  0  0  0  0  0  0  0  0
    0.7638   -0.1976    0.0000 H   0  0  0  0  0  0  0  0  0  0  0  0
   -0.7631   -0.2002    0.0000 H   0  0  0  0  0  0  0  0  0  0  0  0
  3  2  1  0
  4  2  2  0
  5  2  1  0
  7  6  1  0
  8  6  2  0
  9  6  1  0
  1 12  1  0
  1 13  1  0
  5 14  1  0
  5 15  1  0
  5 16  1  0
  9 17  1  0
  9 18  1  0
  9 19  1  0
 11 20  1  0
 11 21  1  0
M  CHG  3   3  -1   7  -1  10   2
M  END
$$$$
