
     RDKit          3D

 21 16  0  0  0  0  0  0  0  0999 V2000
    0.0011    0.3978    0.0000 O   0  0  0  0  0  0  0  0  0  0  0  0
    0.8777    0.0227    0.0103 C   0  0  0  0  0  0  0  0  0  0  0  0
    1.3924    1.1681   -0.1178 O   0  0  0  0  0  0  0  0  0  0  0  0
    1.4314   -1.1035    0.1520 O   0  0  0  0  0  0  0  0  0  0  0  0
   -0.6406   -0.0119   -0.0081 C   0  0  0  0  0  0  0  0  0  0  0  0
    0.8746    0.0780    0.0080 C   0  0  0  0  0  0  0  0  0  0  0  0
    1.2960    1.2655    0.0929 O   0  0  0  0  0  0  0  0  0  0  0  0
    1.5167   -1.0061   -0.0667 O   0  0  0  0  0  0  0  0  0  0  0  0
   -0.6377   -0.0616   -0.0061 C   0  0  0  0  0  0  0  0  0  0  0  0
    0.0000    0.0000    0.0000 Zn  0  0  0  0  0 15  0  0  0  0  0  0
    0.0003    0.3978    0.0000 O   0  0  0  0  0  0  0  0  0  0  0  0
   -0.7640   -0.1968    0.0000 H   0  0  0  0  0  0  0  0  0  0  0  0
    0.7629   -0.2010    0.0000 H   0  0  0  0  0  0  0  0  0  0  0  0
   -0.9869   -0.6379   -0.8359 H   0  0  0  0  0  0  0  0  0  0  0  0
   -1.0132   -0.4282    0.9326 H   0  0  0  0  0  0  0  0  0  0  0  0
   -1.0609    0.9907   -0.1332 H   0  0  0  0  0  0  0  0  0  0  0  0
   -1.0519    0.4801   -0.8617 H   0  0  0  0  0  0  0  0  0  0  0  0
   -1.0569    0.3545    0.9148 H   0  0  0  0  0  0  0  0  0  0  0  0
   -0.9408   -1.1104   -0.0811 H   0  0  0  0  0  0  0  0  0  0  0  0
   -0.7636   -0.1983    0.0000 H   0  0  0  0  0  0  0  0  0  0  0  0
    0.7633   -0.1995    0.0000 H   0  0  0  0  0  0  0  0  0  0  0  0
  3  2  1  0
  4  2  2  0
  5  2  1  0
  7  6  1  0
  8  6  2  0
  9  6  1  0
  1 12  1  0
  1 13  1  0
  5 14  1  0
  5 15  1  0
  5 16  1  0
  9 17  1  0
  9 18  1  0
  9 19  1  0
 11 20  1  0
 11 21  1  0
M  CHG  3   3  -1   7  -1  10   2
M  END
$$$$
