
     RDKit          3D

 21 16  0  0  0  0  0  0  0  0999 V2000
   -0.0090    0.3977    0.0000 O   0  0  0  0  0  0  0  0  0  0  0  0
    0.8517    0.1138   -0.1809 C   0  0  0  0  0  0  0  0  0  0  0  0
    1.3213    1.2296    0.1790 O   0  0  0  0  0  0  0  0  0  0  0  0
    1.4182   -0.8556   -0.7574 O   0  0  0  0  0  0  0  0  0  0  0  0
   -0.6213   -0.0874    0.1301 C   0  0  0  0  0  0  0  0  0  0  0  0
    0.8565    0.1189   -0.1527 C   0  0  0  0  0  0  0  0  0  0  0  0
    1.5610   -0.9282   -0.1372 O   0  0  0  0  0  0  0  0  0  0  0  0
    1.1929    1.3194   -0.3550 O   0  0  0  0  0  0  0  0  0  0  0  0
   -0.6242   -0.0915    0.1119 C   0  0  0  0  0  0  0  0  0  0  0  0
    0.0000    0.0000    0.0000 Zn  0  0  0  0  0 15  0  0  0  0  0  0
   -0.0006    0.3978    0.0000 O   0  0  0  0  0  0  0  0  0  0  0  0
    0.7678   -0.1816    0.0000 H   0  0  0  0  0  0  0  0  0  0  0  0
   -0.7588   -0.2161    0.0000 H   0  0  0  0  0  0  0  0  0  0  0  0
   -1.2149    0.6802   -0.3753 H   0  0  0  0  0  0  0  0  0  0  0  0
   -0.7860   -0.0111    1.2090 H   0  0  0  0  0  0  0  0  0  0  0  0
   -0.9689   -1.0695   -0.2044 H   0  0  0  0  0  0  0  0  0  0  0  0
   -0.8532   -1.1483    0.2792 H   0  0  0  0  0  0  0  0  0  0  0  0
   -0.9258    0.4725    0.9996 H   0  0  0  0  0  0  0  0  0  0  0  0
   -1.2072    0.2572   -0.7458 H   0  0  0  0  0  0  0  0  0  0  0  0
    0.7638   -0.1978    0.0000 H   0  0  0  0  0  0  0  0  0  0  0  0
   -0.7632   -0.2000    0.0000 H   0  0  0  0  0  0  0  0  0  0  0  0
  3  2  1  0
  4  2  2  0
  5  2  1  0
  7  6  1  0
  8  6  2  0
  9  6  1  0
  1 12  1  0
  1 13  1  0
  5 14  1  0
  5 15  1  0
  5 16  1  0
  9 17  1  0
  9 18  1  0
  9 19  1  0
 11 20  1  0
 11 21  1  0
M  CHG  3   3  -1   7  -1  10   2
M  END
$$$$
