
     RDKit          3D

 21 16  0  0  0  0  0  0  0  0999 V2000
   -0.0024    0.3978    0.0000 O   0  0  0  0  0  0  0  0  0  0  0  0
    0.8654    0.1438   -0.0368 C   0  0  0  0  0  0  0  0  0  0  0  0
    1.5775   -0.8842    0.1401 O   0  0  0  0  0  0  0  0  0  0  0  0
    1.2081    1.3385   -0.2570 O   0  0  0  0  0  0  0  0  0  0  0  0
   -0.6323   -0.1004    0.0260 C   0  0  0  0  0  0  0  0  0  0  0  0
    0.8648    0.0791   -0.1299 C   0  0  0  0  0  0  0  0  0  0  0  0
    1.4664   -1.0106   -0.3437 O   0  0  0  0  0  0  0  0  0  0  0  0
    1.3163    1.2566   -0.0752 O   0  0  0  0  0  0  0  0  0  0  0  0
   -0.6314   -0.0530    0.0953 C   0  0  0  0  0  0  0  0  0  0  0  0
    0.0000    0.0000    0.0000 Zn  0  0  0  0  0 15  0  0  0  0  0  0
    0.0001    0.3978    0.0000 O   0  0  0  0  0  0  0  0  0  0  0  0
   -0.7622   -0.2036    0.0000 H   0  0  0  0  0  0  0  0  0  0  0  0
    0.7647   -0.1942    0.0000 H   0  0  0  0  0  0  0  0  0  0  0  0
   -1.1943    0.8248   -0.1341 H   0  0  0  0  0  0  0  0  0  0  0  0
   -0.9232   -0.8197   -0.7453 H   0  0  0  0  0  0  0  0  0  0  0  0
   -0.9013   -0.5029    1.0072 H   0  0  0  0  0  0  0  0  0  0  0  0
   -1.1004   -0.5024   -0.7851 H   0  0  0  0  0  0  0  0  0  0  0  0
   -1.0953    0.9216    0.2749 H   0  0  0  0  0  0  0  0  0  0  0  0
   -0.8205   -0.6913    0.9636 H   0  0  0  0  0  0  0  0  0  0  0  0
    0.7634   -0.1991    0.0000 H   0  0  0  0  0  0  0  0  0  0  0  0
   -0.7635   -0.1987    0.0000 H   0  0  0  0  0  0  0  0  0  0  0  0
  3  2  1  0
  4  2  2  0
  5  2  1  0
  7  6  1  0
  8  6  2  0
  9  6  1  0
  1 12  1  0
  1 13  1  0
  5 14  1  0
  5 15  1  0
  5 16  1  0
  9 17  1  0
  9 18  1  0
  9 19  1  0
 11 20  1  0
 11 21  1  0
M  CHG  3   3  -1   7  -1  10   2
M  END
$$$$
