
     RDKit          3D

 77 76  0  0  0  0  0  0  0  0999 V2000
    2.0749   -0.2936   -0.1898 C   0  0  0  0  0  0  0  0  0  0  0  0
    2.6611   -1.1285    0.7753 C   0  0  0  0  0  0  0  0  0  0  0  0
    2.6858    0.9385   -0.4749 C   0  0  0  0  0  0  0  0  0  0  0  0
   -1.6632   -0.2943   -1.0142 N   0  0  0  0  0  0  0  0  0  0  0  0
    3.8506    1.3172    0.1859 C   0  0  0  0  0  0  0  0  0  0  0  0
    3.8311   -0.7318    1.4227 C   0  0  0  0  0  0  0  0  0  0  0  0
    4.4327    0.4877    1.1368 C   0  0  0  0  0  0  0  0  0  0  0  0
    0.7896   -0.7048   -0.8731 C   0  0  1  0  0  0  0  0  0  0  0  0
   -2.9401   -0.0229   -0.3202 C   0  0  0  0  0  0  0  0  0  0  0  0
   -0.4459   -0.0420   -0.2146 C   0  0  0  0  0  0  0  0  0  0  0  0
    4.3956    2.5273   -0.1288 O   0  0  0  0  0  0  0  0  0  0  0  0
    4.4252   -1.5250    2.3612 O   0  0  0  0  0  0  0  0  0  0  0  0
    0.8466   -0.3593   -2.2604 O   0  0  0  0  0  0  0  0  0  0  0  0
   -4.0470   -0.1508   -1.3851 C   0  0  0  0  0  0  0  0  0  0  0  0
   -3.0009    1.3920    0.2780 C   0  0  0  0  0  0  0  0  0  0  0  0
   -3.2023   -1.0726    0.7728 C   0  0  0  0  0  0  0  0  0  0  0  0
   -0.0451    0.3982    0.2324 S   0  0  0  0  0  0  0  0  0  0  0  0
    1.1960   -0.6168    0.2950 O   0  0  0  0  0  0  0  0  0  0  0  0
   -0.9954   -0.3450   -0.8241 O   0  0  0  0  0  0  0  0  0  0  0  0
    0.4428    1.6096   -0.3757 O   0  0  0  0  0  0  0  0  0  0  0  0
   -0.7353    0.3550    1.4961 O   0  0  0  0  0  0  0  0  0  0  0  0
    1.6545   -0.6252   -0.7435 C   0  0  0  0  0  0  0  0  0  0  0  0
    2.5189    0.4752   -0.8589 C   0  0  0  0  0  0  0  0  0  0  0  0
    1.8684   -1.5492    0.2928 C   0  0  0  0  0  0  0  0  0  0  0  0
   -1.1397    0.6165   -0.4401 N   0  0  0  0  0  0  0  0  0  0  0  0
    2.9220   -1.3713    1.1847 C   0  0  0  0  0  0  0  0  0  0  0  0
    3.5684    0.6322    0.0452 C   0  0  0  0  0  0  0  0  0  0  0  0
    3.7801   -0.2846    1.0672 C   0  0  0  0  0  0  0  0  0  0  0  0
    0.5075   -0.8014   -1.7206 C   0  0  2  0  0  0  0  0  0  0  0  0
   -2.4392    0.7661    0.2439 C   0  0  0  0  0  0  0  0  0  0  0  0
   -0.8960   -0.6926   -1.0676 C   0  0  0  0  0  0  0  0  0  0  0  0
    3.0822   -2.3011    2.1691 O   0  0  0  0  0  0  0  0  0  0  0  0
    4.4257    1.6905   -0.0415 O   0  0  0  0  0  0  0  0  0  0  0  0
    0.6250   -2.0746   -2.3641 O   0  0  0  0  0  0  0  0  0  0  0  0
   -3.6268    0.5003   -0.6945 C   0  0  0  0  0  0  0  0  0  0  0  0
   -2.5071    2.2333    0.7102 C   0  0  0  0  0  0  0  0  0  0  0  0
   -2.5367   -0.1394    1.4835 C   0  0  0  0  0  0  0  0  0  0  0  0
    2.1989   -2.0822    1.0124 H   0  0  0  0  0  0  0  0  0  0  0  0
    2.2549    1.6045   -1.2205 H   0  0  0  0  0  0  0  0  0  0  0  0
   -1.6107    0.3214   -1.8307 H   0  0  0  0  0  0  0  0  0  0  0  0
    5.3401    0.7707    1.6591 H   0  0  0  0  0  0  0  0  0  0  0  0
    0.6884   -1.7969   -0.8299 H   0  0  0  0  0  0  0  0  0  0  0  0
   -0.5382   -0.4274    0.8062 H   0  0  0  0  0  0  0  0  0  0  0  0
   -0.2917    1.0424   -0.1496 H   0  0  0  0  0  0  0  0  0  0  0  0
    5.2165    2.6355    0.3788 H   0  0  0  0  0  0  0  0  0  0  0  0
    3.9293   -2.3579    2.4242 H   0  0  0  0  0  0  0  0  0  0  0  0
    0.0325   -0.7387   -2.6369 H   0  0  0  0  0  0  0  0  0  0  0  0
   -5.0384    0.0081   -0.9450 H   0  0  0  0  0  0  0  0  0  0  0  0
   -3.9224    0.5879   -2.1854 H   0  0  0  0  0  0  0  0  0  0  0  0
   -4.0474   -1.1456   -1.8450 H   0  0  0  0  0  0  0  0  0  0  0  0
   -2.2883    1.5204    1.1003 H   0  0  0  0  0  0  0  0  0  0  0  0
   -3.9976    1.6030    0.6819 H   0  0  0  0  0  0  0  0  0  0  0  0
   -2.7836    2.1541   -0.4794 H   0  0  0  0  0  0  0  0  0  0  0  0
   -2.5012   -0.9846    1.6093 H   0  0  0  0  0  0  0  0  0  0  0  0
   -4.2114   -0.9605    1.1866 H   0  0  0  0  0  0  0  0  0  0  0  0
   -3.1233   -2.0913    0.3748 H   0  0  0  0  0  0  0  0  0  0  0  0
    1.7307   -0.4729   -0.5118 H   0  0  0  0  0  0  0  0  0  0  0  0
   -1.5936   -0.9281   -0.3119 H   0  0  0  0  0  0  0  0  0  0  0  0
    2.3596    1.2049   -1.6484 H   0  0  0  0  0  0  0  0  0  0  0  0
    1.2142   -2.4115    0.4094 H   0  0  0  0  0  0  0  0  0  0  0  0
   -0.3921    0.7963    0.2344 H   0  0  0  0  0  0  0  0  0  0  0  0
    4.6064   -0.1354    1.7543 H   0  0  0  0  0  0  0  0  0  0  0  0
    0.5841   -0.0504   -2.5160 H   0  0  0  0  0  0  0  0  0  0  0  0
   -1.6336   -0.8771   -1.8567 H   0  0  0  0  0  0  0  0  0  0  0  0
   -1.0109   -1.5047   -0.3406 H   0  0  0  0  0  0  0  0  0  0  0  0
    3.8376   -2.0382    2.7203 H   0  0  0  0  0  0  0  0  0  0  0  0
    4.1714    2.2372   -0.8039 H   0  0  0  0  0  0  0  0  0  0  0  0
    1.5640   -2.3290   -2.3407 H   0  0  0  0  0  0  0  0  0  0  0  0
   -3.5493    1.0944   -1.6127 H   0  0  0  0  0  0  0  0  0  0  0  0
   -3.6974   -0.5557   -0.9769 H   0  0  0  0  0  0  0  0  0  0  0  0
   -4.5757    0.7656   -0.2117 H   0  0  0  0  0  0  0  0  0  0  0  0
   -3.4509    2.4397    1.2280 H   0  0  0  0  0  0  0  0  0  0  0  0
   -2.4386    2.9279   -0.1365 H   0  0  0  0  0  0  0  0  0  0  0  0
   -1.6931    2.4736    1.4045 H   0  0  0  0  0  0  0  0  0  0  0  0
   -2.5803   -1.1998    1.2154 H   0  0  0  0  0  0  0  0  0  0  0  0
   -3.4423    0.0841    2.0595 H   0  0  0  0  0  0  0  0  0  0  0  0
   -1.6803    0.0033    2.1523 H   0  0  0  0  0  0  0  0  0  0  0  0
  2  1  2  0
  3  1  1  0
  4 10  1  0
  5  3  2  0
  6  2  1  0
  7  5  1  0
  8  1  1  0
  9  4  1  0
 10  8  1  0
 11  5  1  0
 12  6  1  0
 13  8  1  0
 14  9  1  0
 15  9  1  0
 16  9  1  0
  6  7  2  0
 18 17  1  0
 19 17  1  0
 20 17  2  0
 21 17  2  0
 23 22  2  0
 24 22  1  0
 25 31  1  0
 26 24  2  0
 27 23  1  0
 28 26  1  0
 29 22  1  0
 30 25  1  0
 31 29  1  0
 32 26  1  0
 33 27  1  0
 34 29  1  0
 35 30  1  0
 36 30  1  0
 37 30  1  0
 27 28  2  0
  2 38  1  0
  3 39  1  0
  4 40  1  0
  7 41  1  0
  8 42  1  6
 10 43  1  0
 10 44  1  0
 11 45  1  0
 12 46  1  0
 13 47  1  0
 14 48  1  0
 14 49  1  0
 14 50  1  0
 15 51  1  0
 15 52  1  0
 15 53  1  0
 16 54  1  0
 16 55  1  0
 16 56  1  0
 18 57  1  0
 19 58  1  0
 23 59  1  0
 24 60  1  0
 25 61  1  0
 28 62  1  0
 29 63  1  6
 31 64  1  0
 31 65  1  0
 32 66  1  0
 33 67  1  0
 34 68  1  0
 35 69  1  0
 35 70  1  0
 35 71  1  0
 36 72  1  0
 36 73  1  0
 36 74  1  0
 37 75  1  0
 37 76  1  0
 37 77  1  0
M  END
$$$$
