
     RDKit          3D

 77 76  0  0  0  0  0  0  0  0999 V2000
    1.7970   -0.8351    0.3897 C   0  0  0  0  0  0  0  0  0  0  0  0
    2.3959   -0.7620    1.6583 C   0  0  0  0  0  0  0  0  0  0  0  0
    2.3243   -0.0496   -0.6474 C   0  0  0  0  0  0  0  0  0  0  0  0
   -1.1023   -0.0200   -0.5347 N   0  0  0  0  0  0  0  0  0  0  0  0
    3.4244    0.7738   -0.4125 C   0  0  0  0  0  0  0  0  0  0  0  0
    3.4945    0.0666    1.8716 C   0  0  0  0  0  0  0  0  0  0  0  0
    4.0181    0.8384    0.8419 C   0  0  0  0  0  0  0  0  0  0  0  0
    0.5936   -1.7286    0.1793 C   0  0  1  0  0  0  0  0  0  0  0  0
   -2.4796    0.4912   -0.5251 C   0  0  0  0  0  0  0  0  0  0  0  0
   -0.7595   -1.0264    0.4805 C   0  0  0  0  0  0  0  0  0  0  0  0
    3.9542    1.5449   -1.4063 O   0  0  0  0  0  0  0  0  0  0  0  0
    4.0344    0.0930    3.1245 O   0  0  0  0  0  0  0  0  0  0  0  0
    0.5818   -2.2423   -1.1618 O   0  0  0  0  0  0  0  0  0  0  0  0
   -2.9064    0.9941    0.8631 C   0  0  0  0  0  0  0  0  0  0  0  0
   -2.4999    1.6807   -1.5033 C   0  0  0  0  0  0  0  0  0  0  0  0
   -3.4723   -0.5700   -1.0284 C   0  0  0  0  0  0  0  0  0  0  0  0
   -0.0010    0.4475    0.0793 S   0  0  0  0  0  0  0  0  0  0  0  0
   -1.2121   -0.6027    0.1398 O   0  0  0  0  0  0  0  0  0  0  0  0
    1.2175   -0.5093   -0.3372 O   0  0  0  0  0  0  0  0  0  0  0  0
   -0.2826    1.3305   -1.0237 O   0  0  0  0  0  0  0  0  0  0  0  0
    0.2756    0.8994    1.4190 O   0  0  0  0  0  0  0  0  0  0  0  0
    2.0263   -0.2380    0.7466 C   0  0  0  0  0  0  0  0  0  0  0  0
    2.7463   -1.4105    0.4639 C   0  0  0  0  0  0  0  0  0  0  0  0
    2.6008    1.0012    0.4200 C   0  0  0  0  0  0  0  0  0  0  0  0
   -1.7866   -0.1001    0.9739 N   0  0  0  0  0  0  0  0  0  0  0  0
    3.8583    1.0601   -0.1736 C   0  0  0  0  0  0  0  0  0  0  0  0
    4.0066   -1.3286   -0.1273 C   0  0  0  0  0  0  0  0  0  0  0  0
    4.5696   -0.1003   -0.4529 C   0  0  0  0  0  0  0  0  0  0  0  0
    0.6456   -0.3198    1.3557 C   0  0  2  0  0  0  0  0  0  0  0  0
   -2.9452    0.2008    0.1085 C   0  0  0  0  0  0  0  0  0  0  0  0
   -0.4708   -0.1034    0.3021 C   0  0  0  0  0  0  0  0  0  0  0  0
    4.3637    2.2913   -0.4732 O   0  0  0  0  0  0  0  0  0  0  0  0
    4.7306   -2.4503   -0.4102 O   0  0  0  0  0  0  0  0  0  0  0  0
    0.5099    0.6589    2.3908 O   0  0  0  0  0  0  0  0  0  0  0  0
   -2.8620    1.6159   -0.4866 C   0  0  0  0  0  0  0  0  0  0  0  0
   -3.1088   -0.8344   -1.0163 C   0  0  0  0  0  0  0  0  0  0  0  0
   -4.1869    0.1329    1.0191 C   0  0  0  0  0  0  0  0  0  0  0  0
    2.0113   -1.3494    2.4882 H   0  0  0  0  0  0  0  0  0  0  0  0
    1.8639   -0.0911   -1.6305 H   0  0  0  0  0  0  0  0  0  0  0  0
   -0.8521   -0.3827   -1.4569 H   0  0  0  0  0  0  0  0  0  0  0  0
    4.8723    1.4883    0.9936 H   0  0  0  0  0  0  0  0  0  0  0  0
    0.6930   -2.6006    0.8380 H   0  0  0  0  0  0  0  0  0  0  0  0
   -1.5261   -1.8085    0.4885 H   0  0  0  0  0  0  0  0  0  0  0  0
   -0.7234   -0.5703    1.4757 H   0  0  0  0  0  0  0  0  0  0  0  0
    3.4231    1.4070   -2.2085 H   0  0  0  0  0  0  0  0  0  0  0  0
    4.7846    0.7107    3.1177 H   0  0  0  0  0  0  0  0  0  0  0  0
   -0.1483   -2.8816   -1.2058 H   0  0  0  0  0  0  0  0  0  0  0  0
   -2.1919    1.7251    1.2588 H   0  0  0  0  0  0  0  0  0  0  0  0
   -3.8862    1.4838    0.8178 H   0  0  0  0  0  0  0  0  0  0  0  0
   -2.9893    0.1757    1.5866 H   0  0  0  0  0  0  0  0  0  0  0  0
   -1.8054    2.4689   -1.1888 H   0  0  0  0  0  0  0  0  0  0  0  0
   -3.4995    2.1270   -1.5623 H   0  0  0  0  0  0  0  0  0  0  0  0
   -2.2183    1.3728   -2.5175 H   0  0  0  0  0  0  0  0  0  0  0  0
   -3.1750   -0.9622   -2.0079 H   0  0  0  0  0  0  0  0  0  0  0  0
   -4.4770   -0.1448   -1.1370 H   0  0  0  0  0  0  0  0  0  0  0  0
   -3.5537   -1.4170   -0.3393 H   0  0  0  0  0  0  0  0  0  0  0  0
   -1.5777   -0.6743   -0.7662 H   0  0  0  0  0  0  0  0  0  0  0  0
    1.5803   -0.8911    0.4889 H   0  0  0  0  0  0  0  0  0  0  0  0
    2.3178   -2.3779    0.7088 H   0  0  0  0  0  0  0  0  0  0  0  0
    2.0692    1.9256    0.6367 H   0  0  0  0  0  0  0  0  0  0  0  0
   -1.9311   -1.0120    1.4122 H   0  0  0  0  0  0  0  0  0  0  0  0
    5.5502   -0.0687   -0.9145 H   0  0  0  0  0  0  0  0  0  0  0  0
    0.5116   -1.2965    1.8369 H   0  0  0  0  0  0  0  0  0  0  0  0
   -0.3062    0.8628   -0.1858 H   0  0  0  0  0  0  0  0  0  0  0  0
   -0.4129   -0.8910   -0.4567 H   0  0  0  0  0  0  0  0  0  0  0  0
    5.2553    2.1755   -0.8403 H   0  0  0  0  0  0  0  0  0  0  0  0
    4.2497   -3.2245   -0.0749 H   0  0  0  0  0  0  0  0  0  0  0  0
   -0.4518    0.8338    2.4355 H   0  0  0  0  0  0  0  0  0  0  0  0
   -3.7975    1.8827   -0.9925 H   0  0  0  0  0  0  0  0  0  0  0  0
   -2.6855    2.3660    0.2930 H   0  0  0  0  0  0  0  0  0  0  0  0
   -2.0622    1.7046   -1.2293 H   0  0  0  0  0  0  0  0  0  0  0  0
   -3.1332   -1.8555   -0.6183 H   0  0  0  0  0  0  0  0  0  0  0  0
   -2.2952   -0.7764   -1.7473 H   0  0  0  0  0  0  0  0  0  0  0  0
   -4.0451   -0.6729   -1.5633 H   0  0  0  0  0  0  0  0  0  0  0  0
   -5.1020    0.3545    0.4575 H   0  0  0  0  0  0  0  0  0  0  0  0
   -4.3075   -0.8632    1.4617 H   0  0  0  0  0  0  0  0  0  0  0  0
   -4.1210    0.8574    1.8398 H   0  0  0  0  0  0  0  0  0  0  0  0
  2  1  2  0
  3  1  1  0
  4 10  1  0
  5  3  2  0
  6  2  1  0
  7  5  1  0
  8  1  1  0
  9  4  1  0
 10  8  1  0
 11  5  1  0
 12  6  1  0
 13  8  1  0
 14  9  1  0
 15  9  1  0
 16  9  1  0
  6  7  2  0
 18 17  1  0
 19 17  1  0
 20 17  2  0
 21 17  2  0
 23 22  2  0
 24 22  1  0
 25 31  1  0
 26 24  2  0
 27 23  1  0
 28 26  1  0
 29 22  1  0
 30 25  1  0
 31 29  1  0
 32 26  1  0
 33 27  1  0
 34 29  1  0
 35 30  1  0
 36 30  1  0
 37 30  1  0
 27 28  2  0
  2 38  1  0
  3 39  1  0
  4 40  1  0
  7 41  1  0
  8 42  1  1
 10 43  1  0
 10 44  1  0
 11 45  1  0
 12 46  1  0
 13 47  1  0
 14 48  1  0
 14 49  1  0
 14 50  1  0
 15 51  1  0
 15 52  1  0
 15 53  1  0
 16 54  1  0
 16 55  1  0
 16 56  1  0
 18 57  1  0
 19 58  1  0
 23 59  1  0
 24 60  1  0
 25 61  1  0
 28 62  1  0
 29 63  1  1
 31 64  1  0
 31 65  1  0
 32 66  1  0
 33 67  1  0
 34 68  1  0
 35 69  1  0
 35 70  1  0
 35 71  1  0
 36 72  1  0
 36 73  1  0
 36 74  1  0
 37 75  1  0
 37 76  1  0
 37 77  1  0
M  END
$$$$
