
     RDKit          3D

 77 76  0  0  0  0  0  0  0  0999 V2000
    1.9929    0.1916    0.5113 C   0  0  0  0  0  0  0  0  0  0  0  0
    2.7524    1.2024   -0.0969 C   0  0  0  0  0  0  0  0  0  0  0  0
    2.5229   -1.1078    0.5560 C   0  0  0  0  0  0  0  0  0  0  0  0
   -1.8104    0.6524    0.6049 N   0  0  0  0  0  0  0  0  0  0  0  0
    3.7815   -1.3757    0.0223 C   0  0  0  0  0  0  0  0  0  0  0  0
    4.0116    0.9180   -0.6205 C   0  0  0  0  0  0  0  0  0  0  0  0
    4.5392   -0.3690   -0.5673 C   0  0  0  0  0  0  0  0  0  0  0  0
    0.6260    0.5125    1.0770 C   0  0  1  0  0  0  0  0  0  0  0  0
   -3.0022    0.1842   -0.1174 C   0  0  0  0  0  0  0  0  0  0  0  0
   -0.5057    0.2783    0.0416 C   0  0  0  0  0  0  0  0  0  0  0  0
    4.2397   -2.6593    0.1004 O   0  0  0  0  0  0  0  0  0  0  0  0
    4.7067    1.9474   -1.1852 O   0  0  0  0  0  0  0  0  0  0  0  0
    0.4019   -0.2766    2.2566 O   0  0  0  0  0  0  0  0  0  0  0  0
   -2.9767    0.5825   -1.6000 C   0  0  0  0  0  0  0  0  0  0  0  0
   -3.1766   -1.3378    0.0176 C   0  0  0  0  0  0  0  0  0  0  0  0
   -4.2070    0.8696    0.5532 C   0  0  0  0  0  0  0  0  0  0  0  0
   -0.0888    0.3214    0.2323 S   0  0  0  0  0  0  0  0  0  0  0  0
    1.1313    0.4170   -0.8073 O   0  0  0  0  0  0  0  0  0  0  0  0
   -0.6709   -1.1393   -0.0847 O   0  0  0  0  0  0  0  0  0  0  0  0
   -1.1157    1.2552   -0.1566 O   0  0  0  0  0  0  0  0  0  0  0  0
    0.4953    0.2837    1.5496 O   0  0  0  0  0  0  0  0  0  0  0  0
    1.9843   -0.2827   -0.4304 C   0  0  0  0  0  0  0  0  0  0  0  0
    3.0121   -0.8865   -1.1795 C   0  0  0  0  0  0  0  0  0  0  0  0
    2.3010    0.8358    0.3556 C   0  0  0  0  0  0  0  0  0  0  0  0
   -1.8555   -0.7093   -0.2795 N   0  0  0  0  0  0  0  0  0  0  0  0
    3.5994    1.3431    0.3662 C   0  0  0  0  0  0  0  0  0  0  0  0
    4.3030   -0.3635   -1.1557 C   0  0  0  0  0  0  0  0  0  0  0  0
    4.6072    0.7532   -0.3881 C   0  0  0  0  0  0  0  0  0  0  0  0
    0.6066   -0.9140   -0.4572 C   0  0  2  0  0  0  0  0  0  0  0  0
   -3.0626   -0.0736    0.2732 C   0  0  0  0  0  0  0  0  0  0  0  0
   -0.5847    0.0088   -0.0834 C   0  0  0  0  0  0  0  0  0  0  0  0
    3.8436    2.4363    1.1463 O   0  0  0  0  0  0  0  0  0  0  0  0
    5.3123   -0.9318   -1.8790 O   0  0  0  0  0  0  0  0  0  0  0  0
    0.5999   -2.0411    0.4365 O   0  0  0  0  0  0  0  0  0  0  0  0
   -4.2507   -0.9269   -0.2147 C   0  0  0  0  0  0  0  0  0  0  0  0
   -3.2513    1.3621   -0.2428 C   0  0  0  0  0  0  0  0  0  0  0  0
   -3.0554   -0.0865    1.8123 C   0  0  0  0  0  0  0  0  0  0  0  0
    2.3725    2.2199   -0.1565 H   0  0  0  0  0  0  0  0  0  0  0  0
    1.9636   -1.9151    1.0204 H   0  0  0  0  0  0  0  0  0  0  0  0
   -1.8662    0.4068    1.5934 H   0  0  0  0  0  0  0  0  0  0  0  0
    5.5170   -0.5816   -0.9810 H   0  0  0  0  0  0  0  0  0  0  0  0
    0.6144    1.5585    1.4078 H   0  0  0  0  0  0  0  0  0  0  0  0
   -0.4986   -0.7789   -0.2429 H   0  0  0  0  0  0  0  0  0  0  0  0
   -0.3061    0.8736   -0.8555 H   0  0  0  0  0  0  0  0  0  0  0  0
    5.1422   -2.6937   -0.2556 H   0  0  0  0  0  0  0  0  0  0  0  0
    5.6129    1.6487   -1.3661 H   0  0  0  0  0  0  0  0  0  0  0  0
   -0.2657   -0.9448    2.0343 H   0  0  0  0  0  0  0  0  0  0  0  0
   -2.1778    0.0720   -2.1489 H   0  0  0  0  0  0  0  0  0  0  0  0
   -2.8330    1.6624   -1.7177 H   0  0  0  0  0  0  0  0  0  0  0  0
   -3.9225    0.3226   -2.0903 H   0  0  0  0  0  0  0  0  0  0  0  0
   -2.3880   -1.8907   -0.5032 H   0  0  0  0  0  0  0  0  0  0  0  0
   -4.1336   -1.6609   -0.4097 H   0  0  0  0  0  0  0  0  0  0  0  0
   -3.1647   -1.6492    1.0686 H   0  0  0  0  0  0  0  0  0  0  0  0
   -4.1280    1.9618    0.4981 H   0  0  0  0  0  0  0  0  0  0  0  0
   -4.2888    0.5932    1.6115 H   0  0  0  0  0  0  0  0  0  0  0  0
   -5.1458    0.5826    0.0666 H   0  0  0  0  0  0  0  0  0  0  0  0
    1.8735   -0.1102   -0.4472 H   0  0  0  0  0  0  0  0  0  0  0  0
   -1.6248   -1.0278   -0.2862 H   0  0  0  0  0  0  0  0  0  0  0  0
    2.7881   -1.7712   -1.7729 H   0  0  0  0  0  0  0  0  0  0  0  0
    1.5546    1.3300    0.9701 H   0  0  0  0  0  0  0  0  0  0  0  0
   -1.7407   -1.6444    0.1227 H   0  0  0  0  0  0  0  0  0  0  0  0
    5.6216    1.1379   -0.3872 H   0  0  0  0  0  0  0  0  0  0  0  0
    0.4282   -1.3026   -1.4685 H   0  0  0  0  0  0  0  0  0  0  0  0
   -0.4854    0.3032    0.9668 H   0  0  0  0  0  0  0  0  0  0  0  0
   -0.5613    0.9066   -0.7106 H   0  0  0  0  0  0  0  0  0  0  0  0
    4.7741    2.6942    1.0256 H   0  0  0  0  0  0  0  0  0  0  0  0
    4.9549   -1.6872   -2.3769 H   0  0  0  0  0  0  0  0  0  0  0  0
    1.3391   -1.9268    1.0604 H   0  0  0  0  0  0  0  0  0  0  0  0
   -4.1680   -1.9646    0.1311 H   0  0  0  0  0  0  0  0  0  0  0  0
   -4.3096   -0.9426   -1.3100 H   0  0  0  0  0  0  0  0  0  0  0  0
   -5.2020   -0.5313    0.1583 H   0  0  0  0  0  0  0  0  0  0  0  0
   -4.2113    1.7734    0.0884 H   0  0  0  0  0  0  0  0  0  0  0  0
   -2.4688    2.0371    0.1245 H   0  0  0  0  0  0  0  0  0  0  0  0
   -3.2387    1.3940   -1.3388 H   0  0  0  0  0  0  0  0  0  0  0  0
   -2.2833    0.5686    2.2276 H   0  0  0  0  0  0  0  0  0  0  0  0
   -2.8833   -1.0967    2.2011 H   0  0  0  0  0  0  0  0  0  0  0  0
   -4.0175    0.2582    2.2086 H   0  0  0  0  0  0  0  0  0  0  0  0
  2  1  2  0
  3  1  1  0
  4 10  1  0
  5  3  2  0
  6  2  1  0
  7  5  1  0
  8  1  1  0
  9  4  1  0
 10  8  1  0
 11  5  1  0
 12  6  1  0
 13  8  1  0
 14  9  1  0
 15  9  1  0
 16  9  1  0
  6  7  2  0
 18 17  1  0
 19 17  1  0
 20 17  2  0
 21 17  2  0
 23 22  2  0
 24 22  1  0
 25 31  1  0
 26 24  2  0
 27 23  1  0
 28 26  1  0
 29 22  1  0
 30 25  1  0
 31 29  1  0
 32 26  1  0
 33 27  1  0
 34 29  1  0
 35 30  1  0
 36 30  1  0
 37 30  1  0
 27 28  2  0
  2 38  1  0
  3 39  1  0
  4 40  1  0
  7 41  1  0
  8 42  1  1
 10 43  1  0
 10 44  1  0
 11 45  1  0
 12 46  1  0
 13 47  1  0
 14 48  1  0
 14 49  1  0
 14 50  1  0
 15 51  1  0
 15 52  1  0
 15 53  1  0
 16 54  1  0
 16 55  1  0
 16 56  1  0
 18 57  1  0
 19 58  1  0
 23 59  1  0
 24 60  1  0
 25 61  1  0
 28 62  1  0
 29 63  1  6
 31 64  1  0
 31 65  1  0
 32 66  1  0
 33 67  1  0
 34 68  1  0
 35 69  1  0
 35 70  1  0
 35 71  1  0
 36 72  1  0
 36 73  1  0
 36 74  1  0
 37 75  1  0
 37 76  1  0
 37 77  1  0
M  END
$$$$
