
     RDKit          3D

 77 76  0  0  0  0  0  0  0  0999 V2000
    2.1111    0.0112   -0.2926 C   0  0  0  0  0  0  0  0  0  0  0  0
    2.7127   -1.0646    0.3892 C   0  0  0  0  0  0  0  0  0  0  0  0
    2.7206    1.2746   -0.2303 C   0  0  0  0  0  0  0  0  0  0  0  0
   -1.6602    0.0205   -0.9436 N   0  0  0  0  0  0  0  0  0  0  0  0
    3.8974    1.4511    0.4967 C   0  0  0  0  0  0  0  0  0  0  0  0
    3.8864   -0.8622    1.1157 C   0  0  0  0  0  0  0  0  0  0  0  0
    4.4820    0.3916    1.1792 C   0  0  0  0  0  0  0  0  0  0  0  0
    0.8177   -0.2023   -1.0491 C   0  0  1  0  0  0  0  0  0  0  0  0
   -2.9080   -0.2135   -0.1869 C   0  0  0  0  0  0  0  0  0  0  0  0
   -0.4196    0.0010   -0.1411 C   0  0  0  0  0  0  0  0  0  0  0  0
    4.5119    2.6663    0.5541 O   0  0  0  0  0  0  0  0  0  0  0  0
    4.4848   -1.8822    1.7939 O   0  0  0  0  0  0  0  0  0  0  0  0
    0.7482    0.6880   -2.1673 O   0  0  0  0  0  0  0  0  0  0  0  0
   -3.0237   -1.6971    0.2009 C   0  0  0  0  0  0  0  0  0  0  0  0
   -3.0256    0.6706    1.0654 C   0  0  0  0  0  0  0  0  0  0  0  0
   -4.0692    0.1324   -1.1417 C   0  0  0  0  0  0  0  0  0  0  0  0
   -0.2604   -0.3221   -0.0211 S   0  0  0  0  0  0  0  0  0  0  0  0
    1.3033    0.0315   -0.0685 O   0  0  0  0  0  0  0  0  0  0  0  0
   -0.9041    1.1093    0.3155 O   0  0  0  0  0  0  0  0  0  0  0  0
   -0.6674   -0.6676   -1.3613 O   0  0  0  0  0  0  0  0  0  0  0  0
   -0.4392   -1.1979    1.1084 O   0  0  0  0  0  0  0  0  0  0  0  0
    1.6952    0.1429    0.4468 C   0  0  0  0  0  0  0  0  0  0  0  0
    2.1487    0.8705   -0.6655 C   0  0  0  0  0  0  0  0  0  0  0  0
    2.3200   -1.0805    0.7458 C   0  0  0  0  0  0  0  0  0  0  0  0
   -1.3239    0.6201   -0.2785 N   0  0  0  0  0  0  0  0  0  0  0  0
    3.3583   -1.5583   -0.0502 C   0  0  0  0  0  0  0  0  0  0  0  0
    3.1755    0.3622   -1.4622 C   0  0  0  0  0  0  0  0  0  0  0  0
    3.7900   -0.8471   -1.1607 C   0  0  0  0  0  0  0  0  0  0  0  0
    0.6257    0.6745    1.3813 C   0  0  2  0  0  0  0  0  0  0  0  0
   -2.5386   -0.0834    0.1750 C   0  0  0  0  0  0  0  0  0  0  0  0
   -0.5860    1.3936    0.7269 C   0  0  0  0  0  0  0  0  0  0  0  0
    3.9363   -2.7420    0.3040 O   0  0  0  0  0  0  0  0  0  0  0  0
    3.6220    1.0430   -2.5569 O   0  0  0  0  0  0  0  0  0  0  0  0
    1.2446    1.5943    2.2949 O   0  0  0  0  0  0  0  0  0  0  0  0
   -2.2855   -1.0209    1.3634 C   0  0  0  0  0  0  0  0  0  0  0  0
   -3.0039   -0.9351   -1.0245 C   0  0  0  0  0  0  0  0  0  0  0  0
   -3.6636    0.9107    0.5235 C   0  0  0  0  0  0  0  0  0  0  0  0
    2.2576   -2.0502    0.3482 H   0  0  0  0  0  0  0  0  0  0  0  0
    2.2630    2.1123   -0.7531 H   0  0  0  0  0  0  0  0  0  0  0  0
   -1.7166    0.9440   -1.3823 H   0  0  0  0  0  0  0  0  0  0  0  0
    5.3959    0.5398    1.7457 H   0  0  0  0  0  0  0  0  0  0  0  0
    0.8090   -1.2190   -1.4625 H   0  0  0  0  0  0  0  0  0  0  0  0
   -0.3337    0.9570    0.3898 H   0  0  0  0  0  0  0  0  0  0  0  0
   -0.4271   -0.7923    0.6132 H   0  0  0  0  0  0  0  0  0  0  0  0
    4.0513    3.2695   -0.0518 H   0  0  0  0  0  0  0  0  0  0  0  0
    3.9856   -2.6996    1.6374 H   0  0  0  0  0  0  0  0  0  0  0  0
   -0.0638    0.4211   -2.6367 H   0  0  0  0  0  0  0  0  0  0  0  0
   -2.9402   -2.3429   -0.6815 H   0  0  0  0  0  0  0  0  0  0  0  0
   -3.9927   -1.9050    0.6694 H   0  0  0  0  0  0  0  0  0  0  0  0
   -2.2499   -1.9985    0.9150 H   0  0  0  0  0  0  0  0  0  0  0  0
   -4.0099    0.5581    1.5345 H   0  0  0  0  0  0  0  0  0  0  0  0
   -2.9057    1.7292    0.8122 H   0  0  0  0  0  0  0  0  0  0  0  0
   -2.2729    0.4191    1.8218 H   0  0  0  0  0  0  0  0  0  0  0  0
   -4.0726    1.1971   -1.3967 H   0  0  0  0  0  0  0  0  0  0  0  0
   -5.0383   -0.0945   -0.6863 H   0  0  0  0  0  0  0  0  0  0  0  0
   -4.0053   -0.4308   -2.0784 H   0  0  0  0  0  0  0  0  0  0  0  0
    1.7595   -0.6246    0.5042 H   0  0  0  0  0  0  0  0  0  0  0  0
   -0.7917    1.6714   -0.4771 H   0  0  0  0  0  0  0  0  0  0  0  0
    1.7051    1.8331   -0.9008 H   0  0  0  0  0  0  0  0  0  0  0  0
    2.0038   -1.6660    1.6084 H   0  0  0  0  0  0  0  0  0  0  0  0
   -1.5783    1.2415   -1.0457 H   0  0  0  0  0  0  0  0  0  0  0  0
    4.5914   -1.2124   -1.7941 H   0  0  0  0  0  0  0  0  0  0  0  0
    0.2512   -0.1523    1.9942 H   0  0  0  0  0  0  0  0  0  0  0  0
   -1.2428    1.7786    1.5144 H   0  0  0  0  0  0  0  0  0  0  0  0
   -0.2172    2.3059    0.2377 H   0  0  0  0  0  0  0  0  0  0  0  0
    4.6899   -2.9000   -0.2852 H   0  0  0  0  0  0  0  0  0  0  0  0
    3.0399    1.8062   -2.7052 H   0  0  0  0  0  0  0  0  0  0  0  0
    2.1981    1.4028    2.2963 H   0  0  0  0  0  0  0  0  0  0  0  0
   -3.1774   -1.6218    1.5856 H   0  0  0  0  0  0  0  0  0  0  0  0
   -1.4656   -1.7191    1.1511 H   0  0  0  0  0  0  0  0  0  0  0  0
   -2.0392   -0.4661    2.2746 H   0  0  0  0  0  0  0  0  0  0  0  0
   -3.9121   -1.4992   -0.7817 H   0  0  0  0  0  0  0  0  0  0  0  0
   -3.2386   -0.3110   -1.8951 H   0  0  0  0  0  0  0  0  0  0  0  0
   -2.2363   -1.6564   -1.3296 H   0  0  0  0  0  0  0  0  0  0  0  0
   -4.5989    0.3805    0.7396 H   0  0  0  0  0  0  0  0  0  0  0  0
   -3.8642    1.5959   -0.3101 H   0  0  0  0  0  0  0  0  0  0  0  0
   -3.4237    1.5152    1.4033 H   0  0  0  0  0  0  0  0  0  0  0  0
  2  1  2  0
  3  1  1  0
  4 10  1  0
  5  3  2  0
  6  2  1  0
  7  5  1  0
  8  1  1  0
  9  4  1  0
 10  8  1  0
 11  5  1  0
 12  6  1  0
 13  8  1  0
 14  9  1  0
 15  9  1  0
 16  9  1  0
  6  7  2  0
 18 17  1  0
 19 17  1  0
 20 17  2  0
 21 17  2  0
 23 22  2  0
 24 22  1  0
 25 31  1  0
 26 24  2  0
 27 23  1  0
 28 26  1  0
 29 22  1  0
 30 25  1  0
 31 29  1  0
 32 26  1  0
 33 27  1  0
 34 29  1  0
 35 30  1  0
 36 30  1  0
 37 30  1  0
 27 28  2  0
  2 38  1  0
  3 39  1  0
  4 40  1  0
  7 41  1  0
  8 42  1  6
 10 43  1  0
 10 44  1  0
 11 45  1  0
 12 46  1  0
 13 47  1  0
 14 48  1  0
 14 49  1  0
 14 50  1  0
 15 51  1  0
 15 52  1  0
 15 53  1  0
 16 54  1  0
 16 55  1  0
 16 56  1  0
 18 57  1  0
 19 58  1  0
 23 59  1  0
 24 60  1  0
 25 61  1  0
 28 62  1  0
 29 63  1  1
 31 64  1  0
 31 65  1  0
 32 66  1  0
 33 67  1  0
 34 68  1  0
 35 69  1  0
 35 70  1  0
 35 71  1  0
 36 72  1  0
 36 73  1  0
 36 74  1  0
 37 75  1  0
 37 76  1  0
 37 77  1  0
M  END
$$$$
