
     RDKit          3D

 77 76  0  0  0  0  0  0  0  0999 V2000
    2.1021   -0.0009    0.3830 C   0  0  0  0  0  0  0  0  0  0  0  0
    2.7663   -1.1783    0.0005 C   0  0  0  0  0  0  0  0  0  0  0  0
    2.6907    1.2381    0.0732 C   0  0  0  0  0  0  0  0  0  0  0  0
   -1.6954   -0.0550    0.8040 N   0  0  0  0  0  0  0  0  0  0  0  0
    3.9124    1.2837   -0.5971 C   0  0  0  0  0  0  0  0  0  0  0  0
    3.9878   -1.1085   -0.6665 C   0  0  0  0  0  0  0  0  0  0  0  0
    4.5654    0.1165   -0.9710 C   0  0  0  0  0  0  0  0  0  0  0  0
    0.7603   -0.0433    1.0814 C   0  0  1  0  0  0  0  0  0  0  0  0
   -2.9117   -0.0159   -0.0340 C   0  0  0  0  0  0  0  0  0  0  0  0
   -0.4159    0.0949    0.0812 C   0  0  0  0  0  0  0  0  0  0  0  0
    4.5048    2.4718   -0.9105 O   0  0  0  0  0  0  0  0  0  0  0  0
    4.6524   -2.2398   -1.0412 O   0  0  0  0  0  0  0  0  0  0  0  0
    0.6040   -1.2688    1.8071 O   0  0  0  0  0  0  0  0  0  0  0  0
   -3.0936    1.3526   -0.7117 C   0  0  0  0  0  0  0  0  0  0  0  0
   -2.9241   -1.1317   -1.0923 C   0  0  0  0  0  0  0  0  0  0  0  0
   -4.0959   -0.2475    0.9250 C   0  0  0  0  0  0  0  0  0  0  0  0
   -0.0762   -0.4440    0.0498 S   0  0  0  0  0  0  0  0  0  0  0  0
   -1.0555    0.6945   -0.5146 O   0  0  0  0  0  0  0  0  0  0  0  0
    1.2352    0.4158    0.3877 O   0  0  0  0  0  0  0  0  0  0  0  0
   -0.6524   -0.8997    1.2892 O   0  0  0  0  0  0  0  0  0  0  0  0
    0.2801   -1.3177   -1.0389 O   0  0  0  0  0  0  0  0  0  0  0  0
    1.8582   -0.4789    0.5538 C   0  0  0  0  0  0  0  0  0  0  0  0
    2.5910    0.6973    0.3246 C   0  0  0  0  0  0  0  0  0  0  0  0
    2.1134   -1.5938   -0.2640 C   0  0  0  0  0  0  0  0  0  0  0  0
   -1.1382    0.5195    0.5733 N   0  0  0  0  0  0  0  0  0  0  0  0
    3.0595   -1.5218   -1.2830 C   0  0  0  0  0  0  0  0  0  0  0  0
    3.5364    0.7473   -0.6995 C   0  0  0  0  0  0  0  0  0  0  0  0
    3.7748   -0.3536   -1.5119 C   0  0  0  0  0  0  0  0  0  0  0  0
    0.8147   -0.5789    1.6518 C   0  0  2  0  0  0  0  0  0  0  0  0
   -2.5072    0.4835    0.0208 C   0  0  0  0  0  0  0  0  0  0  0  0
   -0.6335   -0.7588    1.1170 C   0  0  0  0  0  0  0  0  0  0  0  0
    3.2573   -2.6374   -2.0430 O   0  0  0  0  0  0  0  0  0  0  0  0
    4.2613    1.8784   -0.9367 O   0  0  0  0  0  0  0  0  0  0  0  0
    0.8465    0.5818    2.4948 O   0  0  0  0  0  0  0  0  0  0  0  0
   -2.8326    1.9300   -0.3988 C   0  0  0  0  0  0  0  0  0  0  0  0
   -3.5426    0.0390    1.0659 C   0  0  0  0  0  0  0  0  0  0  0  0
   -2.5960   -0.4161   -1.2235 C   0  0  0  0  0  0  0  0  0  0  0  0
    2.3203   -2.1422    0.2325 H   0  0  0  0  0  0  0  0  0  0  0  0
    2.1888    2.1584    0.3583 H   0  0  0  0  0  0  0  0  0  0  0  0
   -1.7613    0.6826    1.5089 H   0  0  0  0  0  0  0  0  0  0  0  0
    5.5170    0.1604   -1.4910 H   0  0  0  0  0  0  0  0  0  0  0  0
    0.7168    0.7623    1.8252 H   0  0  0  0  0  0  0  0  0  0  0  0
   -0.3554    1.0635   -0.4258 H   0  0  0  0  0  0  0  0  0  0  0  0
   -0.3224   -0.6980   -0.6688 H   0  0  0  0  0  0  0  0  0  0  0  0
    3.9577    3.1974   -0.5687 H   0  0  0  0  0  0  0  0  0  0  0  0
    4.1581   -3.0084   -0.7115 H   0  0  0  0  0  0  0  0  0  0  0  0
   -0.3654   -1.3788    1.8861 H   0  0  0  0  0  0  0  0  0  0  0  0
   -4.0588    1.4061   -1.2278 H   0  0  0  0  0  0  0  0  0  0  0  0
   -3.0679    2.1677    0.0205 H   0  0  0  0  0  0  0  0  0  0  0  0
   -2.3170    1.5462   -1.4594 H   0  0  0  0  0  0  0  0  0  0  0  0
   -3.8977   -1.1830   -1.5943 H   0  0  0  0  0  0  0  0  0  0  0  0
   -2.7355   -2.1127   -0.6402 H   0  0  0  0  0  0  0  0  0  0  0  0
   -2.1729   -0.9672   -1.8721 H   0  0  0  0  0  0  0  0  0  0  0  0
   -4.1443    0.5275    1.6997 H   0  0  0  0  0  0  0  0  0  0  0  0
   -5.0507   -0.2307    0.3855 H   0  0  0  0  0  0  0  0  0  0  0  0
   -4.0190   -1.2191    1.4287 H   0  0  0  0  0  0  0  0  0  0  0  0
   -1.5044    1.0975    0.2571 H   0  0  0  0  0  0  0  0  0  0  0  0
    1.7732    0.4535   -0.4303 H   0  0  0  0  0  0  0  0  0  0  0  0
    2.4219    1.5673    0.9533 H   0  0  0  0  0  0  0  0  0  0  0  0
    1.5799   -2.5292   -0.1106 H   0  0  0  0  0  0  0  0  0  0  0  0
   -0.4971    0.8215   -0.1663 H   0  0  0  0  0  0  0  0  0  0  0  0
    4.5158   -0.2837   -2.3005 H   0  0  0  0  0  0  0  0  0  0  0  0
    1.0738   -1.4329    2.2890 H   0  0  0  0  0  0  0  0  0  0  0  0
   -1.2563   -1.0436    1.9720 H   0  0  0  0  0  0  0  0  0  0  0  0
   -0.6721   -1.5620    0.3761 H   0  0  0  0  0  0  0  0  0  0  0  0
    3.9670   -2.4504   -2.6807 H   0  0  0  0  0  0  0  0  0  0  0  0
    4.0403    2.5328   -0.2527 H   0  0  0  0  0  0  0  0  0  0  0  0
    0.0514    1.0923    2.2352 H   0  0  0  0  0  0  0  0  0  0  0  0
   -3.8425    2.0019   -0.8189 H   0  0  0  0  0  0  0  0  0  0  0  0
   -2.7824    2.6152    0.4561 H   0  0  0  0  0  0  0  0  0  0  0  0
   -2.1341    2.2945   -1.1617 H   0  0  0  0  0  0  0  0  0  0  0  0
   -3.4246   -1.0151    1.3387 H   0  0  0  0  0  0  0  0  0  0  0  0
   -3.4659    0.6374    1.9808 H   0  0  0  0  0  0  0  0  0  0  0  0
   -4.5623    0.1568    0.6810 H   0  0  0  0  0  0  0  0  0  0  0  0
   -3.5768   -0.3229   -1.7041 H   0  0  0  0  0  0  0  0  0  0  0  0
   -1.8397   -0.1434   -1.9686 H   0  0  0  0  0  0  0  0  0  0  0  0
   -2.4593   -1.4739   -0.9752 H   0  0  0  0  0  0  0  0  0  0  0  0
  2  1  2  0
  3  1  1  0
  4 10  1  0
  5  3  2  0
  6  2  1  0
  7  5  1  0
  8  1  1  0
  9  4  1  0
 10  8  1  0
 11  5  1  0
 12  6  1  0
 13  8  1  0
 14  9  1  0
 15  9  1  0
 16  9  1  0
  6  7  2  0
 18 17  1  0
 19 17  1  0
 20 17  2  0
 21 17  2  0
 23 22  2  0
 24 22  1  0
 25 31  1  0
 26 24  2  0
 27 23  1  0
 28 26  1  0
 29 22  1  0
 30 25  1  0
 31 29  1  0
 32 26  1  0
 33 27  1  0
 34 29  1  0
 35 30  1  0
 36 30  1  0
 37 30  1  0
 27 28  2  0
  2 38  1  0
  3 39  1  0
  4 40  1  0
  7 41  1  0
  8 42  1  1
 10 43  1  0
 10 44  1  0
 11 45  1  0
 12 46  1  0
 13 47  1  0
 14 48  1  0
 14 49  1  0
 14 50  1  0
 15 51  1  0
 15 52  1  0
 15 53  1  0
 16 54  1  0
 16 55  1  0
 16 56  1  0
 18 57  1  0
 19 58  1  0
 23 59  1  0
 24 60  1  0
 25 61  1  0
 28 62  1  0
 29 63  1  1
 31 64  1  0
 31 65  1  0
 32 66  1  0
 33 67  1  0
 34 68  1  0
 35 69  1  0
 35 70  1  0
 35 71  1  0
 36 72  1  0
 36 73  1  0
 36 74  1  0
 37 75  1  0
 37 76  1  0
 37 77  1  0
M  END
$$$$
