
     RDKit          3D

 37 36  0  0  0  0  0  0  0  0999 V2000
   -0.9084   -0.3888   -0.1359 C   0  0  0  0  0  0  0  0  0  0  0  0
   -1.5669    0.8216   -0.0966 C   0  0  0  0  0  0  0  0  0  0  0  0
   -1.5875   -1.5937    0.0265 C   0  0  0  0  0  0  0  0  0  0  0  0
    2.4273    1.1654   -0.8377 N   0  0  0  0  0  0  0  0  0  0  0  0
   -2.9533   -1.6111    0.2338 C   0  0  0  0  0  0  0  0  0  0  0  0
   -2.9444    0.8067    0.1126 C   0  0  0  0  0  0  0  0  0  0  0  0
   -3.6214   -0.4052    0.2749 C   0  0  0  0  0  0  0  0  0  0  0  0
    0.5597   -0.4237   -0.3538 C   0  0  0  0  0  0  0  0  0  0  0  0
    3.5497    0.7815   -0.0784 C   0  0  0  0  0  0  0  0  0  0  0  0
    1.1268    0.9235   -0.4231 C   0  0  0  0  0  0  0  0  0  0  0  0
   -3.6711   -2.7797    0.4010 O   0  0  0  0  0  0  0  0  0  0  0  0
   -3.6887    1.9804    0.1680 O   0  0  0  0  0  0  0  0  0  0  0  0
    1.1780   -1.2834    0.4954 O   0  0  0  0  0  0  0  0  0  0  0  0
    3.7504   -0.7015    0.1058 C   0  0  0  0  0  0  0  0  0  0  0  0
    4.8189    1.2788   -0.8002 C   0  0  0  0  0  0  0  0  0  0  0  0
    3.5310    1.4291    1.3145 C   0  0  0  0  0  0  0  0  0  0  0  0
   -0.0017   -0.0185    0.0200 S   0  0  0  0  0  0  0  0  0  0  0  0
   -1.3279    0.9904   -0.1240 O   0  0  0  0  0  0  0  0  0  0  0  0
    1.4339    0.8449    0.0777 O   0  0  0  0  0  0  0  0  0  0  0  0
   -0.1653   -0.9072    1.2193 O   0  0  0  0  0  0  0  0  0  0  0  0
    0.0609   -0.9096   -1.1930 O   0  0  0  0  0  0  0  0  0  0  0  0
   -0.8530   -0.1750   -0.0403 C   0  0  0  0  0  0  0  0  0  0  0  0
   -1.1469    1.1794    0.0239 C   0  0  0  0  0  0  0  0  0  0  0  0
   -1.8713   -1.1128    0.1336 C   0  0  0  0  0  0  0  0  0  0  0  0
    2.7346    0.1356   -1.0231 N   0  0  0  0  0  0  0  0  0  0  0  0
   -3.1880   -0.6972    0.3729 C   0  0  0  0  0  0  0  0  0  0  0  0
   -2.4627    1.5814    0.2631 C   0  0  0  0  0  0  0  0  0  0  0  0
   -3.4820    0.6500    0.4374 C   0  0  0  0  0  0  0  0  0  0  0  0
    0.5321   -0.6743   -0.2947 C   0  0  0  0  0  0  0  0  0  0  0  0
    3.4761   -0.1545    0.1808 C   0  0  0  0  0  0  0  0  0  0  0  0
    1.3589    0.4916   -0.7981 C   0  0  0  0  0  0  0  0  0  0  0  0
   -4.2152   -1.6346    0.5481 O   0  0  0  0  0  0  0  0  0  0  0  0
   -2.7970    2.9418    0.3353 O   0  0  0  0  0  0  0  0  0  0  0  0
    0.5326   -1.7242   -1.2099 O   0  0  0  0  0  0  0  0  0  0  0  0
    2.8785   -1.2792    0.9664 C   0  0  0  0  0  0  0  0  0  0  0  0
    4.8761   -0.5735   -0.2723 C   0  0  0  0  0  0  0  0  0  0  0  0
    3.6271    1.0455    1.0966 C   0  0  0  0  0  0  0  0  0  0  0  0
  2  1  2  0
  3  1  1  0
  4 10  1  0
  5  3  2  0
  6  2  1  0
  7  5  1  0
  8  1  1  0
  9  4  1  0
 10  8  1  0
 11  5  1  0
 12  6  1  0
 13  8  1  0
 14  9  1  0
 15  9  1  0
 16  9  1  0
  6  7  2  0
 18 17  1  0
 19 17  1  0
 20 17  2  0
 21 17  2  0
 23 22  2  0
 24 22  1  0
 25 31  1  0
 26 24  2  0
 27 23  1  0
 28 26  1  0
 29 22  1  0
 30 25  1  0
 31 29  1  0
 32 26  1  0
 33 27  1  0
 34 29  1  0
 35 30  1  0
 36 30  1  0
 37 30  1  0
 27 28  2  0
M  END
