
     RDKit          2D

 37 36  0  0  0  0  0  0  0  0999 V2000
    4.2768   -3.6961    0.0000 C   0  0  0  0  0  0  0  0  0  0  0  0
    4.2768   -2.8711    0.0000 C   0  0  0  0  0  0  0  0  0  0  0  0
    3.5624   -4.1086    0.0000 C   0  0  0  0  0  0  0  0  0  0  0  0
    6.4203   -4.1086    0.0000 N   0  0  0  0  0  0  0  0  0  0  0  0
    2.8479   -3.6961    0.0000 C   0  0  0  0  0  0  0  0  0  0  0  0
    3.5624   -2.4586    0.0000 C   0  0  0  0  0  0  0  0  0  0  0  0
    2.8479   -2.8711    0.0000 C   0  0  0  0  0  0  0  0  0  0  0  0
    4.9913   -4.1086    0.0000 C   0  0  0  0  0  0  0  0  0  0  0  0
    7.1347   -3.6961    0.0000 C   0  0  0  0  0  0  0  0  0  0  0  0
    5.7058   -3.6961    0.0000 C   0  0  0  0  0  0  0  0  0  0  0  0
    2.1334   -4.1086    0.0000 O   0  0  0  0  0  0  0  0  0  0  0  0
    3.5624   -1.6336    0.0000 O   0  0  0  0  0  0  0  0  0  0  0  0
    4.9913   -4.9336    0.0000 O   0  0  0  0  0  0  0  0  0  0  0  0
    7.8492   -3.2836    0.0000 C   0  0  0  0  0  0  0  0  0  0  0  0
    7.5472   -4.4105    0.0000 C   0  0  0  0  0  0  0  0  0  0  0  0
    6.7222   -2.9816    0.0000 C   0  0  0  0  0  0  0  0  0  0  0  0
    0.0000    0.0000    0.0000 S   0  0  0  0  0  0  0  0  0  0  0  0
    0.0000   -0.8250    0.0000 O   0  0  0  0  0  0  0  0  0  0  0  0
    0.0000    0.8250    0.0000 O   0  0  0  0  0  0  0  0  0  0  0  0
    0.8250    0.0000    0.0000 O   0  0  0  0  0  0  0  0  0  0  0  0
   -0.8250    0.0000    0.0000 O   0  0  0  0  0  0  0  0  0  0  0  0
    5.0898   -0.1547    0.0000 C   0  0  0  0  0  0  0  0  0  0  0  0
    5.0898    0.6703    0.0000 C   0  0  0  0  0  0  0  0  0  0  0  0
    4.3754   -0.5672    0.0000 C   0  0  0  0  0  0  0  0  0  0  0  0
    7.2333   -0.5672    0.0000 N   0  0  0  0  0  0  0  0  0  0  0  0
    3.6609   -0.1547    0.0000 C   0  0  0  0  0  0  0  0  0  0  0  0
    4.3754    1.0828    0.0000 C   0  0  0  0  0  0  0  0  0  0  0  0
    3.6609    0.6703    0.0000 C   0  0  0  0  0  0  0  0  0  0  0  0
    5.8043   -0.5672    0.0000 C   0  0  0  0  0  0  0  0  0  0  0  0
    7.9477   -0.1547    0.0000 C   0  0  0  0  0  0  0  0  0  0  0  0
    6.5188   -0.1547    0.0000 C   0  0  0  0  0  0  0  0  0  0  0  0
    2.9464   -0.5672    0.0000 O   0  0  0  0  0  0  0  0  0  0  0  0
    4.3754    1.9078    0.0000 O   0  0  0  0  0  0  0  0  0  0  0  0
    5.8043   -1.3922    0.0000 O   0  0  0  0  0  0  0  0  0  0  0  0
    8.6622    0.2578    0.0000 C   0  0  0  0  0  0  0  0  0  0  0  0
    8.3602   -0.8692    0.0000 C   0  0  0  0  0  0  0  0  0  0  0  0
    7.5352    0.5598    0.0000 C   0  0  0  0  0  0  0  0  0  0  0  0
  2  1  1  0
  3  1  2  0
  4 10  1  0
  5  3  1  0
  6  2  2  0
  7  5  2  0
  8  1  1  0
  9  4  1  0
 10  8  1  0
 11  5  1  0
 12  6  1  0
 13  8  1  0
 14  9  1  0
 15  9  1  0
 16  9  1  0
  6  7  1  0
 18 17  1  0
 19 17  1  0
 20 17  2  0
 21 17  2  0
 23 22  1  0
 24 22  2  0
 25 31  1  0
 26 24  1  0
 27 23  2  0
 28 26  2  0
 29 22  1  0
 30 25  1  0
 31 29  1  0
 32 26  1  0
 33 27  1  0
 34 29  1  0
 35 30  1  0
 36 30  1  0
 37 30  1  0
 27 28  1  0
M  END
> <chembl_id>
CHEMBL1315867

> <chembl_pref_name>
TERBUTALINE SULFATE
