
     RDKit          3D

 77 76  0  0  0  0  0  0  0  0999 V2000
    2.0242    0.2170    0.5494 C   0  0  0  0  0  0  0  0  0  0  0  0
    2.9518   -0.8375    0.5842 C   0  0  0  0  0  0  0  0  0  0  0  0
    2.3981    1.4170   -0.0782 C   0  0  0  0  0  0  0  0  0  0  0  0
   -1.7727   -0.2145    0.7669 N   0  0  0  0  0  0  0  0  0  0  0  0
    3.6586    1.5467   -0.6575 C   0  0  0  0  0  0  0  0  0  0  0  0
    4.2098   -0.6860    0.0013 C   0  0  0  0  0  0  0  0  0  0  0  0
    4.5731    0.5004   -0.6223 C   0  0  0  0  0  0  0  0  0  0  0  0
    0.6484    0.0939    1.1679 C   0  0  1  0  0  0  0  0  0  0  0  0
   -2.9511   -0.2573   -0.1231 C   0  0  0  0  0  0  0  0  0  0  0  0
   -0.4767    0.0315    0.1004 C   0  0  0  0  0  0  0  0  0  0  0  0
    3.9576    2.7330   -1.2632 O   0  0  0  0  0  0  0  0  0  0  0  0
    5.1243   -1.6985    0.0206 O   0  0  0  0  0  0  0  0  0  0  0  0
    0.5542   -1.0739    1.9951 O   0  0  0  0  0  0  0  0  0  0  0  0
   -4.1370   -0.6809    0.7657 C   0  0  0  0  0  0  0  0  0  0  0  0
   -2.7988   -1.2903   -1.2517 C   0  0  0  0  0  0  0  0  0  0  0  0
   -3.2597    1.1293   -0.7153 C   0  0  0  0  0  0  0  0  0  0  0  0
   -0.0633    0.3492    0.2621 S   0  0  0  0  0  0  0  0  0  0  0  0
   -1.0251   -0.1765   -0.9085 O   0  0  0  0  0  0  0  0  0  0  0  0
    1.1297   -0.7210    0.1909 O   0  0  0  0  0  0  0  0  0  0  0  0
    0.5023    1.6106   -0.1418 O   0  0  0  0  0  0  0  0  0  0  0  0
   -0.7779    0.1492    1.4971 O   0  0  0  0  0  0  0  0  0  0  0  0
    1.7223    0.1461    0.3100 C   0  0  0  0  0  0  0  0  0  0  0  0
    2.6984    1.0758   -0.0813 C   0  0  0  0  0  0  0  0  0  0  0  0
    1.8133   -1.1665   -0.1786 C   0  0  0  0  0  0  0  0  0  0  0  0
   -1.2436    0.5725   -0.6159 N   0  0  0  0  0  0  0  0  0  0  0  0
    2.8460   -1.5248   -1.0402 C   0  0  0  0  0  0  0  0  0  0  0  0
    3.7273    0.6976   -0.9401 C   0  0  0  0  0  0  0  0  0  0  0  0
    3.8110   -0.6012   -1.4313 C   0  0  0  0  0  0  0  0  0  0  0  0
    0.5690    0.5469    1.2046 C   0  0  2  0  0  0  0  0  0  0  0  0
   -2.5361   -0.0426   -0.2813 C   0  0  0  0  0  0  0  0  0  0  0  0
   -0.5469    1.3163    0.4414 C   0  0  0  0  0  0  0  0  0  0  0  0
    2.8680   -2.8136   -1.4897 O   0  0  0  0  0  0  0  0  0  0  0  0
    4.6451    1.6468   -1.2830 O   0  0  0  0  0  0  0  0  0  0  0  0
    1.0703    1.3661    2.2663 O   0  0  0  0  0  0  0  0  0  0  0  0
   -2.9347   -0.9088   -1.4924 C   0  0  0  0  0  0  0  0  0  0  0  0
   -3.6090    1.0440   -0.0971 C   0  0  0  0  0  0  0  0  0  0  0  0
   -2.4794   -0.9440    0.9599 C   0  0  0  0  0  0  0  0  0  0  0  0
    2.6821   -1.7706    1.0690 H   0  0  0  0  0  0  0  0  0  0  0  0
    1.7085    2.2593   -0.1247 H   0  0  0  0  0  0  0  0  0  0  0  0
   -1.9246    0.5094    1.4762 H   0  0  0  0  0  0  0  0  0  0  0  0
    5.5569    0.5885   -1.0683 H   0  0  0  0  0  0  0  0  0  0  0  0
    0.4862    0.9539    1.8311 H   0  0  0  0  0  0  0  0  0  0  0  0
   -0.4923    0.9628   -0.4749 H   0  0  0  0  0  0  0  0  0  0  0  0
   -0.2559   -0.7981   -0.5819 H   0  0  0  0  0  0  0  0  0  0  0  0
    4.8640    2.6775   -1.6094 H   0  0  0  0  0  0  0  0  0  0  0  0
    4.7479   -2.4386    0.5277 H   0  0  0  0  0  0  0  0  0  0  0  0
   -0.3995   -1.2976    1.9860 H   0  0  0  0  0  0  0  0  0  0  0  0
   -4.3070    0.0362    1.5778 H   0  0  0  0  0  0  0  0  0  0  0  0
   -5.0642   -0.7400    0.1845 H   0  0  0  0  0  0  0  0  0  0  0  0
   -3.9661   -1.6648    1.2185 H   0  0  0  0  0  0  0  0  0  0  0  0
   -3.7380   -1.4038   -1.8054 H   0  0  0  0  0  0  0  0  0  0  0  0
   -2.5285   -2.2776   -0.8564 H   0  0  0  0  0  0  0  0  0  0  0  0
   -2.0360   -0.9914   -1.9791 H   0  0  0  0  0  0  0  0  0  0  0  0
   -2.4796    1.4630   -1.4092 H   0  0  0  0  0  0  0  0  0  0  0  0
   -3.3553    1.8872    0.0717 H   0  0  0  0  0  0  0  0  0  0  0  0
   -4.2026    1.1146   -1.2731 H   0  0  0  0  0  0  0  0  0  0  0  0
   -1.5905   -0.8742   -0.5154 H   0  0  0  0  0  0  0  0  0  0  0  0
    1.8248   -0.3372   -0.3844 H   0  0  0  0  0  0  0  0  0  0  0  0
    2.6578    2.0983    0.2874 H   0  0  0  0  0  0  0  0  0  0  0  0
    1.0777   -1.9158    0.1070 H   0  0  0  0  0  0  0  0  0  0  0  0
   -0.6090   -0.1125   -1.0264 H   0  0  0  0  0  0  0  0  0  0  0  0
    4.6128   -0.8869   -2.1016 H   0  0  0  0  0  0  0  0  0  0  0  0
    0.1596   -0.3495    1.6823 H   0  0  0  0  0  0  0  0  0  0  0  0
   -1.2488    1.7427    1.1668 H   0  0  0  0  0  0  0  0  0  0  0  0
   -0.0886    2.1933   -0.0353 H   0  0  0  0  0  0  0  0  0  0  0  0
    3.6340   -2.9282   -2.0776 H   0  0  0  0  0  0  0  0  0  0  0  0
    5.2490    1.2786   -1.9460 H   0  0  0  0  0  0  0  0  0  0  0  0
    0.3592    1.4461    2.9222 H   0  0  0  0  0  0  0  0  0  0  0  0
   -3.0021   -0.3103   -2.4092 H   0  0  0  0  0  0  0  0  0  0  0  0
   -3.9116   -1.3800   -1.3355 H   0  0  0  0  0  0  0  0  0  0  0  0
   -2.2077   -1.7105   -1.6673 H   0  0  0  0  0  0  0  0  0  0  0  0
   -3.6637    1.7027   -0.9737 H   0  0  0  0  0  0  0  0  0  0  0  0
   -3.4203    1.6697    0.7820 H   0  0  0  0  0  0  0  0  0  0  0  0
   -4.6012    0.5973    0.0392 H   0  0  0  0  0  0  0  0  0  0  0  0
   -1.7259   -1.7322    0.8517 H   0  0  0  0  0  0  0  0  0  0  0  0
   -2.2502   -0.3764    1.8693 H   0  0  0  0  0  0  0  0  0  0  0  0
   -3.4421   -1.4370    1.1276 H   0  0  0  0  0  0  0  0  0  0  0  0
  2  1  2  0
  3  1  1  0
  4 10  1  0
  5  3  2  0
  6  2  1  0
  7  5  1  0
  8  1  1  0
  9  4  1  0
 10  8  1  0
 11  5  1  0
 12  6  1  0
 13  8  1  0
 14  9  1  0
 15  9  1  0
 16  9  1  0
  6  7  2  0
 18 17  1  0
 19 17  1  0
 20 17  2  0
 21 17  2  0
 23 22  2  0
 24 22  1  0
 25 31  1  0
 26 24  2  0
 27 23  1  0
 28 26  1  0
 29 22  1  0
 30 25  1  0
 31 29  1  0
 32 26  1  0
 33 27  1  0
 34 29  1  0
 35 30  1  0
 36 30  1  0
 37 30  1  0
 27 28  2  0
  2 38  1  0
  3 39  1  0
  4 40  1  0
  7 41  1  0
  8 42  1  1
 10 43  1  0
 10 44  1  0
 11 45  1  0
 12 46  1  0
 13 47  1  0
 14 48  1  0
 14 49  1  0
 14 50  1  0
 15 51  1  0
 15 52  1  0
 15 53  1  0
 16 54  1  0
 16 55  1  0
 16 56  1  0
 18 57  1  0
 19 58  1  0
 23 59  1  0
 24 60  1  0
 25 61  1  0
 28 62  1  0
 29 63  1  1
 31 64  1  0
 31 65  1  0
 32 66  1  0
 33 67  1  0
 34 68  1  0
 35 69  1  0
 35 70  1  0
 35 71  1  0
 36 72  1  0
 36 73  1  0
 36 74  1  0
 37 75  1  0
 37 76  1  0
 37 77  1  0
M  END
$$$$
