
     RDKit          3D

 77 76  0  0  0  0  0  0  0  0999 V2000
    1.8582   -0.1614   -0.1917 C   0  0  0  0  0  0  0  0  0  0  0  0
    2.7610    0.9014   -0.3704 C   0  0  0  0  0  0  0  0  0  0  0  0
    2.2707   -1.2825    0.5437 C   0  0  0  0  0  0  0  0  0  0  0  0
   -1.7915    1.0343   -0.4943 N   0  0  0  0  0  0  0  0  0  0  0  0
    3.5585   -1.3399    1.0698 C   0  0  0  0  0  0  0  0  0  0  0  0
    4.0457    0.8226    0.1633 C   0  0  0  0  0  0  0  0  0  0  0  0
    4.4551   -0.2940    0.8834 C   0  0  0  0  0  0  0  0  0  0  0  0
    0.4538   -0.0983   -0.7522 C   0  0  1  0  0  0  0  0  0  0  0  0
   -2.9236    0.1796   -0.1101 C   0  0  0  0  0  0  0  0  0  0  0  0
   -0.4870    0.7636    0.1291 C   0  0  0  0  0  0  0  0  0  0  0  0
    3.9053   -2.4557    1.7728 O   0  0  0  0  0  0  0  0  0  0  0  0
    4.9442    1.8369   -0.0007 O   0  0  0  0  0  0  0  0  0  0  0  0
    0.4861    0.4300   -2.0848 O   0  0  0  0  0  0  0  0  0  0  0  0
   -4.0967    0.5694   -1.0328 C   0  0  0  0  0  0  0  0  0  0  0  0
   -2.6468   -1.3208   -0.2898 C   0  0  0  0  0  0  0  0  0  0  0  0
   -3.3417    0.4674    1.3436 C   0  0  0  0  0  0  0  0  0  0  0  0
   -0.0809    0.3736    0.1475 S   0  0  0  0  0  0  0  0  0  0  0  0
    1.0731   -0.7271   -0.0279 O   0  0  0  0  0  0  0  0  0  0  0  0
   -1.2399   -0.2227   -0.7890 O   0  0  0  0  0  0  0  0  0  0  0  0
    0.4251    1.5892   -0.4383 O   0  0  0  0  0  0  0  0  0  0  0  0
   -0.5503    0.2884    1.5078 O   0  0  0  0  0  0  0  0  0  0  0  0
    1.9171    0.5706   -0.5234 C   0  0  0  0  0  0  0  0  0  0  0  0
    2.6142   -0.6325   -0.3155 C   0  0  0  0  0  0  0  0  0  0  0  0
    2.5305    1.7795   -0.1624 C   0  0  0  0  0  0  0  0  0  0  0  0
   -1.8892    0.1780   -0.6488 N   0  0  0  0  0  0  0  0  0  0  0  0
    3.8108    1.7786    0.3836 C   0  0  0  0  0  0  0  0  0  0  0  0
    3.8943   -0.6099    0.2333 C   0  0  0  0  0  0  0  0  0  0  0  0
    4.5029    0.5894    0.5829 C   0  0  0  0  0  0  0  0  0  0  0  0
    0.5181    0.5726   -1.1032 C   0  0  2  0  0  0  0  0  0  0  0  0
   -2.9674   -0.4247    0.1532 C   0  0  0  0  0  0  0  0  0  0  0  0
   -0.5401    0.1253   -0.0636 C   0  0  0  0  0  0  0  0  0  0  0  0
    4.3570    2.9833    0.7176 O   0  0  0  0  0  0  0  0  0  0  0  0
    4.5924   -1.7623    0.4481 O   0  0  0  0  0  0  0  0  0  0  0  0
    0.4731   -0.3070   -2.2374 O   0  0  0  0  0  0  0  0  0  0  0  0
   -3.0034    0.1199    1.5906 C   0  0  0  0  0  0  0  0  0  0  0  0
   -4.2838   -0.0383   -0.5473 C   0  0  0  0  0  0  0  0  0  0  0  0
   -2.8606   -1.9597    0.1758 C   0  0  0  0  0  0  0  0  0  0  0  0
    2.4462    1.7819   -0.9260 H   0  0  0  0  0  0  0  0  0  0  0  0
    1.5945   -2.1179    0.7125 H   0  0  0  0  0  0  0  0  0  0  0  0
   -1.6498    1.0168   -1.5105 H   0  0  0  0  0  0  0  0  0  0  0  0
    5.4606   -0.3258    1.2882 H   0  0  0  0  0  0  0  0  0  0  0  0
    0.0571   -1.1129   -0.8441 H   0  0  0  0  0  0  0  0  0  0  0  0
   -0.0225    1.7484    0.2647 H   0  0  0  0  0  0  0  0  0  0  0  0
   -0.5747    0.3343    1.1324 H   0  0  0  0  0  0  0  0  0  0  0  0
    4.8430   -2.3844    2.0188 H   0  0  0  0  0  0  0  0  0  0  0  0
    4.5227    2.5465   -0.5152 H   0  0  0  0  0  0  0  0  0  0  0  0
    1.2043   -0.0344   -2.5487 H   0  0  0  0  0  0  0  0  0  0  0  0
   -3.8659    0.3646   -2.0853 H   0  0  0  0  0  0  0  0  0  0  0  0
   -5.0019    0.0051   -0.7802 H   0  0  0  0  0  0  0  0  0  0  0  0
   -4.3376    1.6364   -0.9438 H   0  0  0  0  0  0  0  0  0  0  0  0
   -1.8759   -1.6782    0.4028 H   0  0  0  0  0  0  0  0  0  0  0  0
   -2.3245   -1.5495   -1.3127 H   0  0  0  0  0  0  0  0  0  0  0  0
   -3.5515   -1.9099   -0.0945 H   0  0  0  0  0  0  0  0  0  0  0  0
   -3.5436    1.5351    1.4946 H   0  0  0  0  0  0  0  0  0  0  0  0
   -4.2577   -0.0772    1.6025 H   0  0  0  0  0  0  0  0  0  0  0  0
   -2.5744    0.1682    2.0657 H   0  0  0  0  0  0  0  0  0  0  0  0
    1.9305   -0.2493   -0.0222 H   0  0  0  0  0  0  0  0  0  0  0  0
   -1.5575   -1.0520   -0.3779 H   0  0  0  0  0  0  0  0  0  0  0  0
    2.1451   -1.5750   -0.5869 H   0  0  0  0  0  0  0  0  0  0  0  0
    2.0154    2.7285   -0.2979 H   0  0  0  0  0  0  0  0  0  0  0  0
   -1.8423   -0.2764   -1.5667 H   0  0  0  0  0  0  0  0  0  0  0  0
    5.5015    0.5759    1.0048 H   0  0  0  0  0  0  0  0  0  0  0  0
    0.2727    1.5754   -1.4753 H   0  0  0  0  0  0  0  0  0  0  0  0
   -0.3084   -0.8971    0.2554 H   0  0  0  0  0  0  0  0  0  0  0  0
   -0.4833    0.7824    0.8113 H   0  0  0  0  0  0  0  0  0  0  0  0
    5.2280    2.8235    1.1181 H   0  0  0  0  0  0  0  0  0  0  0  0
    4.0337   -2.5157    0.1925 H   0  0  0  0  0  0  0  0  0  0  0  0
    1.2315   -0.0632   -2.7969 H   0  0  0  0  0  0  0  0  0  0  0  0
   -3.8944   -0.2360    2.1217 H   0  0  0  0  0  0  0  0  0  0  0  0
   -2.1331   -0.2020    2.1727 H   0  0  0  0  0  0  0  0  0  0  0  0
   -3.0313    1.2162    1.5985 H   0  0  0  0  0  0  0  0  0  0  0  0
   -5.1496   -0.4572   -0.0215 H   0  0  0  0  0  0  0  0  0  0  0  0
   -4.3162   -0.4114   -1.5768 H   0  0  0  0  0  0  0  0  0  0  0  0
   -4.4139    1.0497   -0.5801 H   0  0  0  0  0  0  0  0  0  0  0  0
   -2.8281   -2.3715   -0.8391 H   0  0  0  0  0  0  0  0  0  0  0  0
   -3.7258   -2.4051    0.6804 H   0  0  0  0  0  0  0  0  0  0  0  0
   -1.9675   -2.3038    0.7061 H   0  0  0  0  0  0  0  0  0  0  0  0
  2  1  2  0
  3  1  1  0
  4 10  1  0
  5  3  2  0
  6  2  1  0
  7  5  1  0
  8  1  1  0
  9  4  1  0
 10  8  1  0
 11  5  1  0
 12  6  1  0
 13  8  1  0
 14  9  1  0
 15  9  1  0
 16  9  1  0
  6  7  2  0
 18 17  1  0
 19 17  1  0
 20 17  2  0
 21 17  2  0
 23 22  2  0
 24 22  1  0
 25 31  1  0
 26 24  2  0
 27 23  1  0
 28 26  1  0
 29 22  1  0
 30 25  1  0
 31 29  1  0
 32 26  1  0
 33 27  1  0
 34 29  1  0
 35 30  1  0
 36 30  1  0
 37 30  1  0
 27 28  2  0
  2 38  1  0
  3 39  1  0
  4 40  1  0
  7 41  1  0
  8 42  1  6
 10 43  1  0
 10 44  1  0
 11 45  1  0
 12 46  1  0
 13 47  1  0
 14 48  1  0
 14 49  1  0
 14 50  1  0
 15 51  1  0
 15 52  1  0
 15 53  1  0
 16 54  1  0
 16 55  1  0
 16 56  1  0
 18 57  1  0
 19 58  1  0
 23 59  1  0
 24 60  1  0
 25 61  1  0
 28 62  1  0
 29 63  1  6
 31 64  1  0
 31 65  1  0
 32 66  1  0
 33 67  1  0
 34 68  1  0
 35 69  1  0
 35 70  1  0
 35 71  1  0
 36 72  1  0
 36 73  1  0
 36 74  1  0
 37 75  1  0
 37 76  1  0
 37 77  1  0
M  END
$$$$
