
     RDKit          3D

116121  0  0  0  0  0  0  0  0999 V2000
   50.2634    5.9294   19.1761 C   0  0  0  0  0  0  0  0  0  0  0  0
   50.2348    5.1755   18.1123 N   0  0  0  0  0  0  0  0  0  0  0  0
   50.8720    5.5240   20.4822 C   0  0  0  0  0  0  0  0  0  0  0  0
   53.2014    4.7082   19.1616 S   0  0  0  0  0  0  0  0  0  0  0  0
   49.6487    7.1898   19.1246 N   0  0  0  0  0  0  0  0  0  0  0  0
   52.1693    5.0117   20.5833 C   0  0  0  0  0  0  0  0  0  0  0  0
   50.7823    3.8855   18.0180 C   0  0  0  0  0  0  0  0  0  0  0  0
   52.1031    3.5448   18.3622 C   0  0  0  0  0  0  0  0  0  0  0  0
   48.7119    9.9220   18.5339 N   0  0  0  0  0  0  0  0  0  0  0  0
   50.4823    8.3709   19.4469 C   0  0  0  0  0  0  0  0  0  0  0  0
   48.7635    7.4698   17.9698 C   0  0  0  0  0  0  0  0  0  0  0  0
   49.6141    9.6280   19.6679 C   0  0  0  0  0  0  0  0  0  0  0  0
   47.9018    8.7183   18.2387 C   0  0  0  0  0  0  0  0  0  0  0  0
   50.0984    5.7218   21.6364 C   0  0  0  0  0  0  0  0  0  0  0  0
   52.6763    4.6996   21.8511 C   0  0  0  0  0  0  0  0  0  0  0  0
   47.8549   11.0896   18.8070 C   0  0  0  0  0  0  0  0  0  0  0  0
   47.7898   14.0870   14.9947 O   0  0  0  0  0  0  0  0  0  0  0  0
   49.9763    2.9067   17.4286 C   0  0  0  0  0  0  0  0  0  0  0  0
   52.5822    2.2469   18.1275 C   0  0  0  0  0  0  0  0  0  0  0  0
   49.5683   12.7323   17.9561 O   0  0  0  0  0  0  0  0  0  0  0  0
   48.2454   14.0423   16.3442 C   0  0  0  0  0  0  0  0  0  0  0  0
   48.5938   12.4398   18.9632 C   0  0  0  0  0  0  0  0  0  0  0  0
   49.0876   12.8002   16.6170 C   0  0  0  0  0  0  0  0  0  0  0  0
   50.6118    5.4012   22.8895 C   0  0  0  0  0  0  0  0  0  0  0  0
   51.9019    4.8893   22.9965 C   0  0  0  0  0  0  0  0  0  0  0  0
   51.7588    1.2819   17.5481 C   0  0  0  0  0  0  0  0  0  0  0  0
   50.4522    1.6132   17.1956 C   0  0  0  0  0  0  0  0  0  0  0  0
   50.1622    5.8812   19.5753 C   0  0  0  0  0  0  0  0  0  0  0  0
   50.1351    5.1970   18.4617 N   0  0  0  0  0  0  0  0  0  0  0  0
   50.9763    5.4789   20.7751 C   0  0  0  0  0  0  0  0  0  0  0  0
   53.2285    5.2607   19.1295 S   0  0  0  0  0  0  0  0  0  0  0  0
   49.3773    7.0451   19.6765 N   0  0  0  0  0  0  0  0  0  0  0  0
   52.3610    5.2842   20.6911 C   0  0  0  0  0  0  0  0  0  0  0  0
   50.8830    4.0311   18.2264 C   0  0  0  0  0  0  0  0  0  0  0  0
   52.2781    3.9312   18.3928 C   0  0  0  0  0  0  0  0  0  0  0  0
   49.8931    9.5825   18.4079 N   0  0  0  0  0  0  0  0  0  0  0  0
   49.8638    8.1928   20.4780 C   0  0  0  0  0  0  0  0  0  0  0  0
   48.5269    7.4414   18.5385 C   0  0  0  0  0  0  0  0  0  0  0  0
   49.5455    9.5624   19.8296 C   0  0  0  0  0  0  0  0  0  0  0  0
   49.2428    8.4899   17.6536 C   0  0  0  0  0  0  0  0  0  0  0  0
   50.3239    5.3816   22.0144 C   0  0  0  0  0  0  0  0  0  0  0  0
   53.0867    5.0276   21.8610 C   0  0  0  0  0  0  0  0  0  0  0  0
   49.7909   10.8903   17.7574 C   0  0  0  0  0  0  0  0  0  0  0  0
   47.4261   13.9464   14.6382 O   0  0  0  0  0  0  0  0  0  0  0  0
   50.1942    2.9373   17.6962 C   0  0  0  0  0  0  0  0  0  0  0  0
   52.9512    2.7532   18.0384 C   0  0  0  0  0  0  0  0  0  0  0  0
   48.4747   12.7275   16.9290 O   0  0  0  0  0  0  0  0  0  0  0  0
   47.3633   14.5793   15.9171 C   0  0  0  0  0  0  0  0  0  0  0  0
   48.4216   11.5917   17.7971 C   0  0  0  0  0  0  0  0  0  0  0  0
   47.2789   13.5121   17.0068 C   0  0  0  0  0  0  0  0  0  0  0  0
   51.0595    5.1173   23.1716 C   0  0  0  0  0  0  0  0  0  0  0  0
   52.4375    4.9476   23.0965 C   0  0  0  0  0  0  0  0  0  0  0  0
   52.2408    1.6639   17.5339 C   0  0  0  0  0  0  0  0  0  0  0  0
   50.8604    1.7564   17.3581 C   0  0  0  0  0  0  0  0  0  0  0  0
   50.7750    6.3074   19.8863 C   0  0  0  0  0  0  0  0  0  0  0  0
   49.3701    9.3515   18.1105 C   0  0  0  0  0  0  0  0  0  0  0  0
   50.4334    7.6756   19.4866 C   0  0  0  0  0  0  0  0  0  0  0  0
   49.6418    7.9538   18.4430 C   0  0  0  0  0  0  0  0  0  0  0  0
   51.4825    6.0178   20.8332 O   0  0  0  0  0  0  0  0  0  0  0  0
   49.7672   10.3366   18.7002 O   0  0  0  0  0  0  0  0  0  0  0  0
   50.2291    5.3641   19.1040 O   0  0  0  0  0  0  0  0  0  0  0  0
   48.5963    9.4291   17.0162 O   0  0  0  0  0  0  0  0  0  0  0  0
   51.0735    8.2022   20.3549 H   0  0  0  0  0  0  0  0  0  0  0  0
   51.1904    8.5529   18.6260 H   0  0  0  0  0  0  0  0  0  0  0  0
   49.3642    7.6183   17.0612 H   0  0  0  0  0  0  0  0  0  0  0  0
   48.0878    6.6227   17.7925 H   0  0  0  0  0  0  0  0  0  0  0  0
   49.0202    9.4971   20.5850 H   0  0  0  0  0  0  0  0  0  0  0  0
   50.2929   10.4740   19.8279 H   0  0  0  0  0  0  0  0  0  0  0  0
   47.2877    8.9027   17.3509 H   0  0  0  0  0  0  0  0  0  0  0  0
   47.2303    8.5044   19.0776 H   0  0  0  0  0  0  0  0  0  0  0  0
   49.0879    6.1247   21.5532 H   0  0  0  0  0  0  0  0  0  0  0  0
   53.6834    4.3002   21.9612 H   0  0  0  0  0  0  0  0  0  0  0  0
   47.1524   11.1999   17.9781 H   0  0  0  0  0  0  0  0  0  0  0  0
   47.2502   10.9186   19.7057 H   0  0  0  0  0  0  0  0  0  0  0  0
   47.2663   13.2844   14.8266 H   0  0  0  0  0  0  0  0  0  0  0  0
   48.9654    3.1662   17.1312 H   0  0  0  0  0  0  0  0  0  0  0  0
   53.6042    1.9736   18.3937 H   0  0  0  0  0  0  0  0  0  0  0  0
   47.3691   14.0802   16.9998 H   0  0  0  0  0  0  0  0  0  0  0  0
   48.8295   14.9504   16.5378 H   0  0  0  0  0  0  0  0  0  0  0  0
   47.8676   13.2606   19.0228 H   0  0  0  0  0  0  0  0  0  0  0  0
   49.1318   12.4495   19.9166 H   0  0  0  0  0  0  0  0  0  0  0  0
   49.9656   12.8336   15.9540 H   0  0  0  0  0  0  0  0  0  0  0  0
   48.5492   11.8893   16.3376 H   0  0  0  0  0  0  0  0  0  0  0  0
   50.0064    5.5540   23.7788 H   0  0  0  0  0  0  0  0  0  0  0  0
   52.3023    4.6239   23.9711 H   0  0  0  0  0  0  0  0  0  0  0  0
   52.1336    0.2786   17.3607 H   0  0  0  0  0  0  0  0  0  0  0  0
   49.8045    0.8696   16.7404 H   0  0  0  0  0  0  0  0  0  0  0  0
   49.4142    8.1493   21.4749 H   0  0  0  0  0  0  0  0  0  0  0  0
   50.9519    8.1391   20.6057 H   0  0  0  0  0  0  0  0  0  0  0  0
   48.2061    6.5862   17.9324 H   0  0  0  0  0  0  0  0  0  0  0  0
   47.6063    7.8739   18.9436 H   0  0  0  0  0  0  0  0  0  0  0  0
   48.4814    9.7928   19.9802 H   0  0  0  0  0  0  0  0  0  0  0  0
   50.1202   10.3307   20.3642 H   0  0  0  0  0  0  0  0  0  0  0  0
   48.5032    8.8701   16.9318 H   0  0  0  0  0  0  0  0  0  0  0  0
   50.0261    7.9935   17.0654 H   0  0  0  0  0  0  0  0  0  0  0  0
   49.2442    5.4995   22.0689 H   0  0  0  0  0  0  0  0  0  0  0  0
   54.1602    4.8644   21.8150 H   0  0  0  0  0  0  0  0  0  0  0  0
   50.5235   11.5688   18.2215 H   0  0  0  0  0  0  0  0  0  0  0  0
   50.1293   10.8060   16.7148 H   0  0  0  0  0  0  0  0  0  0  0  0
   48.0229   13.1832   14.7609 H   0  0  0  0  0  0  0  0  0  0  0  0
   49.1243    3.0189   17.5288 H   0  0  0  0  0  0  0  0  0  0  0  0
   54.0270    2.6676   18.1790 H   0  0  0  0  0  0  0  0  0  0  0  0
   48.2717   15.1806   16.0317 H   0  0  0  0  0  0  0  0  0  0  0  0
   46.4892   15.2337   15.9416 H   0  0  0  0  0  0  0  0  0  0  0  0
   48.1913   11.9181   18.8179 H   0  0  0  0  0  0  0  0  0  0  0  0
   47.6284   10.9216   17.4471 H   0  0  0  0  0  0  0  0  0  0  0  0
   47.2115   13.9757   17.9984 H   0  0  0  0  0  0  0  0  0  0  0  0
   46.4097   12.8651   16.8296 H   0  0  0  0  0  0  0  0  0  0  0  0
   50.5542    5.0409   24.1298 H   0  0  0  0  0  0  0  0  0  0  0  0
   53.0160    4.7424   23.9932 H   0  0  0  0  0  0  0  0  0  0  0  0
   52.7648    0.7489   17.2683 H   0  0  0  0  0  0  0  0  0  0  0  0
   50.3070    0.9207   16.9480 H   0  0  0  0  0  0  0  0  0  0  0  0
   50.8781    8.4551   20.0956 H   0  0  0  0  0  0  0  0  0  0  0  0
   49.1975    7.1922   17.8170 H   0  0  0  0  0  0  0  0  0  0  0  0
   50.5515    4.5234   19.4897 H   0  0  0  0  0  0  0  0  0  0  0  0
   48.4980   10.3933   16.8640 H   0  0  0  0  0  0  0  0  0  0  0  0
  2  1  2  0
  3  1  1  0
  4  6  1  0
  5  1  1  0
  6  3  2  0
  7  2  1  0
  8  7  2  0
  9 13  1  0
 10  5  1  0
 11  5  1  0
 12 10  1  0
 13 11  1  0
 14  3  1  0
 15  6  1  0
 16  9  1  0
 17 21  1  0
 18  7  1  0
 19  8  1  0
 20 22  1  0
 21 23  1  0
 22 16  1  0
 23 20  1  0
 24 14  2  0
 25 15  2  0
 26 19  2  0
 27 18  2  0
  9 12  1  0
  8  4  1  0
 24 25  1  0
 27 26  1  0
 29 28  2  0
 30 28  1  0
 31 33  1  0
 32 28  1  0
 33 30  2  0
 34 29  1  0
 35 34  2  0
 36 40  1  0
 37 32  1  0
 38 32  1  0
 39 37  1  0
 40 38  1  0
 41 30  1  0
 42 33  1  0
 43 36  1  0
 44 48  1  0
 45 34  1  0
 46 35  1  0
 47 49  1  0
 48 50  1  0
 49 43  1  0
 50 47  1  0
 51 41  2  0
 52 42  2  0
 53 46  2  0
 54 45  2  0
 36 39  1  0
 35 31  1  0
 51 52  1  0
 54 53  1  0
 56 58  1  0
 57 55  1  0
 58 57  2  0
 59 55  2  0
 60 56  2  0
 61 55  1  0
 62 56  1  0
 10 63  1  0
 10 64  1  0
 11 65  1  0
 11 66  1  0
 12 67  1  0
 12 68  1  0
 13 69  1  0
 13 70  1  0
 14 71  1  0
 15 72  1  0
 16 73  1  0
 16 74  1  0
 17 75  1  0
 18 76  1  0
 19 77  1  0
 21 78  1  0
 21 79  1  0
 22 80  1  0
 22 81  1  0
 23 82  1  0
 23 83  1  0
 24 84  1  0
 25 85  1  0
 26 86  1  0
 27 87  1  0
 37 88  1  0
 37 89  1  0
 38 90  1  0
 38 91  1  0
 39 92  1  0
 39 93  1  0
 40 94  1  0
 40 95  1  0
 41 96  1  0
 42 97  1  0
 43 98  1  0
 43 99  1  0
 44100  1  0
 45101  1  0
 46102  1  0
 48103  1  0
 48104  1  0
 49105  1  0
 49106  1  0
 50107  1  0
 50108  1  0
 51109  1  0
 52110  1  0
 53111  1  0
 54112  1  0
 57113  1  0
 58114  1  0
 61115  1  0
 62116  1  0
M  END
> <Uni-Dock RESULT> 
ENERGY=   -7.533  LOWER_BOUND=    0.000  UPPER_BOUND=    0.000
INTER + INTRA:          -7.533
INTER:                  -7.533
INTRA:                   0.000
UNBOUND:                 0.000

$$$$

     RDKit          3D

116121  0  0  0  0  0  0  0  0999 V2000
   47.8507    6.3942   14.4163 C   0  0  0  0  0  0  0  0  0  0  0  0
   46.7871    5.6646   14.2237 N   0  0  0  0  0  0  0  0  0  0  0  0
   48.4472    7.3052   13.3891 C   0  0  0  0  0  0  0  0  0  0  0  0
   45.9300    8.4272   12.8994 S   0  0  0  0  0  0  0  0  0  0  0  0
   48.5190    6.2984   15.6466 N   0  0  0  0  0  0  0  0  0  0  0  0
   47.6930    8.2568   12.6957 C   0  0  0  0  0  0  0  0  0  0  0  0
   46.0289    5.6331   13.0418 C   0  0  0  0  0  0  0  0  0  0  0  0
   45.5086    6.7655   12.3892 C   0  0  0  0  0  0  0  0  0  0  0  0
   49.3798    6.2243   18.4652 N   0  0  0  0  0  0  0  0  0  0  0  0
   48.7044    7.5460   16.4231 C   0  0  0  0  0  0  0  0  0  0  0  0
   48.1485    5.1741   16.5378 C   0  0  0  0  0  0  0  0  0  0  0  0
   49.7206    7.3493   17.5683 C   0  0  0  0  0  0  0  0  0  0  0  0
   49.1968    4.9997   17.6532 C   0  0  0  0  0  0  0  0  0  0  0  0
   49.8300    7.2038   13.1712 C   0  0  0  0  0  0  0  0  0  0  0  0
   48.3407    9.0992   11.7833 C   0  0  0  0  0  0  0  0  0  0  0  0
   50.4040    6.0271   19.5066 C   0  0  0  0  0  0  0  0  0  0  0  0
   48.3291    5.4410   23.8510 O   0  0  0  0  0  0  0  0  0  0  0  0
   45.6790    4.3688   12.5580 C   0  0  0  0  0  0  0  0  0  0  0  0
   44.6719    6.6156   11.2726 C   0  0  0  0  0  0  0  0  0  0  0  0
   49.3394    7.6884   21.0767 O   0  0  0  0  0  0  0  0  0  0  0  0
   49.1511    6.3678   23.1467 C   0  0  0  0  0  0  0  0  0  0  0  0
   50.5589    7.1856   20.5203 C   0  0  0  0  0  0  0  0  0  0  0  0
   48.5459    6.7529   21.8006 C   0  0  0  0  0  0  0  0  0  0  0  0
   50.4602    8.0425   12.2568 C   0  0  0  0  0  0  0  0  0  0  0  0
   49.7144    8.9908   11.5621 C   0  0  0  0  0  0  0  0  0  0  0  0
   44.3433    5.3455   10.7992 C   0  0  0  0  0  0  0  0  0  0  0  0
   44.8467    4.2183   11.4450 C   0  0  0  0  0  0  0  0  0  0  0  0
   48.2063    6.4581   14.2127 C   0  0  0  0  0  0  0  0  0  0  0  0
   47.1237    5.7334   14.1035 N   0  0  0  0  0  0  0  0  0  0  0  0
   48.6119    7.4984   13.2042 C   0  0  0  0  0  0  0  0  0  0  0  0
   46.0605    8.6301   13.3981 S   0  0  0  0  0  0  0  0  0  0  0  0
   49.0550    6.2488   15.3158 N   0  0  0  0  0  0  0  0  0  0  0  0
   47.7626    8.5580   12.8602 C   0  0  0  0  0  0  0  0  0  0  0  0
   46.1870    5.8552   13.0633 C   0  0  0  0  0  0  0  0  0  0  0  0
   45.5607    7.0606   12.6909 C   0  0  0  0  0  0  0  0  0  0  0  0
   48.5586    7.0447   18.0424 N   0  0  0  0  0  0  0  0  0  0  0  0
   49.7924    7.3922   15.9035 C   0  0  0  0  0  0  0  0  0  0  0  0
   48.7155    5.2015   16.2972 C   0  0  0  0  0  0  0  0  0  0  0  0
   49.8648    7.3358   17.4492 C   0  0  0  0  0  0  0  0  0  0  0  0
   47.9612    5.8029   17.5073 C   0  0  0  0  0  0  0  0  0  0  0  0
   49.9082    7.4308   12.6693 C   0  0  0  0  0  0  0  0  0  0  0  0
   48.2356    9.5629   12.0071 C   0  0  0  0  0  0  0  0  0  0  0  0
   48.4975    7.1474   19.5017 C   0  0  0  0  0  0  0  0  0  0  0  0
   48.1919    4.9384   23.9389 O   0  0  0  0  0  0  0  0  0  0  0  0
   45.7875    4.6735   12.4340 C   0  0  0  0  0  0  0  0  0  0  0  0
   44.5645    7.0659   11.7040 C   0  0  0  0  0  0  0  0  0  0  0  0
   49.0915    6.3423   21.6911 O   0  0  0  0  0  0  0  0  0  0  0  0
   49.4371    5.6382   23.9434 C   0  0  0  0  0  0  0  0  0  0  0  0
   49.4597    6.2599   20.3111 C   0  0  0  0  0  0  0  0  0  0  0  0
   50.0190    5.6455   22.5311 C   0  0  0  0  0  0  0  0  0  0  0  0
   50.3635    8.4360   11.8135 C   0  0  0  0  0  0  0  0  0  0  0  0
   49.5325    9.5024   11.4886 C   0  0  0  0  0  0  0  0  0  0  0  0
   44.1982    5.8782   11.0706 C   0  0  0  0  0  0  0  0  0  0  0  0
   44.8071    4.6787   11.4383 C   0  0  0  0  0  0  0  0  0  0  0  0
   48.2653    7.2509   14.3598 C   0  0  0  0  0  0  0  0  0  0  0  0
   48.5238    6.4012   18.0483 C   0  0  0  0  0  0  0  0  0  0  0  0
   48.5472    7.2778   15.7980 C   0  0  0  0  0  0  0  0  0  0  0  0
   48.2157    6.2775   16.6243 C   0  0  0  0  0  0  0  0  0  0  0  0
   48.5601    8.1365   13.5788 O   0  0  0  0  0  0  0  0  0  0  0  0
   49.0893    7.3246   18.5993 O   0  0  0  0  0  0  0  0  0  0  0  0
   47.6371    6.1374   13.9534 O   0  0  0  0  0  0  0  0  0  0  0  0
   48.0809    5.3247   18.7170 O   0  0  0  0  0  0  0  0  0  0  0  0
   49.0662    8.3601   15.7837 H   0  0  0  0  0  0  0  0  0  0  0  0
   47.7380    7.8637   16.8396 H   0  0  0  0  0  0  0  0  0  0  0  0
   47.1580    5.3535   16.9797 H   0  0  0  0  0  0  0  0  0  0  0  0
   48.0990    4.2364   15.9688 H   0  0  0  0  0  0  0  0  0  0  0  0
   50.7196    7.1854   17.1371 H   0  0  0  0  0  0  0  0  0  0  0  0
   49.7543    8.2821   18.1434 H   0  0  0  0  0  0  0  0  0  0  0  0
   48.8677    4.1803   18.3011 H   0  0  0  0  0  0  0  0  0  0  0  0
   50.1485    4.7091   17.1949 H   0  0  0  0  0  0  0  0  0  0  0  0
   50.4152    6.4621   13.7167 H   0  0  0  0  0  0  0  0  0  0  0  0
   47.7798    9.8505   11.2294 H   0  0  0  0  0  0  0  0  0  0  0  0
   50.1452    5.1320   20.0762 H   0  0  0  0  0  0  0  0  0  0  0  0
   51.3818    5.8325   19.0498 H   0  0  0  0  0  0  0  0  0  0  0  0
   48.2212    4.6505   23.2943 H   0  0  0  0  0  0  0  0  0  0  0  0
   46.0498    3.4875   13.0714 H   0  0  0  0  0  0  0  0  0  0  0  0
   44.2662    7.4884   10.7591 H   0  0  0  0  0  0  0  0  0  0  0  0
   50.1416    5.9174   23.0230 H   0  0  0  0  0  0  0  0  0  0  0  0
   49.2802    7.2568   23.7762 H   0  0  0  0  0  0  0  0  0  0  0  0
   51.2381    6.8882   21.3295 H   0  0  0  0  0  0  0  0  0  0  0  0
   51.0395    8.0364   20.0267 H   0  0  0  0  0  0  0  0  0  0  0  0
   47.5707    7.2267   21.9904 H   0  0  0  0  0  0  0  0  0  0  0  0
   48.3239    5.8657   21.1996 H   0  0  0  0  0  0  0  0  0  0  0  0
   51.5305    7.9568   12.0905 H   0  0  0  0  0  0  0  0  0  0  0  0
   50.1989    9.6384   10.8365 H   0  0  0  0  0  0  0  0  0  0  0  0
   43.6894    5.2309    9.9381 H   0  0  0  0  0  0  0  0  0  0  0  0
   44.5933    3.2250   11.0862 H   0  0  0  0  0  0  0  0  0  0  0  0
   50.8066    7.4131   15.4926 H   0  0  0  0  0  0  0  0  0  0  0  0
   49.3098    8.3399   15.6355 H   0  0  0  0  0  0  0  0  0  0  0  0
   48.1372    4.3809   15.8569 H   0  0  0  0  0  0  0  0  0  0  0  0
   49.6514    4.7482   16.6397 H   0  0  0  0  0  0  0  0  0  0  0  0
   50.6108    6.5855   17.7471 H   0  0  0  0  0  0  0  0  0  0  0  0
   50.2270    8.3095   17.8059 H   0  0  0  0  0  0  0  0  0  0  0  0
   47.8901    5.0155   18.2739 H   0  0  0  0  0  0  0  0  0  0  0  0
   46.9316    6.0425   17.2098 H   0  0  0  0  0  0  0  0  0  0  0  0
   50.5512    6.5882   12.9125 H   0  0  0  0  0  0  0  0  0  0  0  0
   47.5885   10.3879   11.7210 H   0  0  0  0  0  0  0  0  0  0  0  0
   48.6936    8.1928   19.7863 H   0  0  0  0  0  0  0  0  0  0  0  0
   47.4656    6.9693   19.8365 H   0  0  0  0  0  0  0  0  0  0  0  0
   47.7430    5.2230   23.1197 H   0  0  0  0  0  0  0  0  0  0  0  0
   46.2377    3.7343   12.7415 H   0  0  0  0  0  0  0  0  0  0  0  0
   44.0886    7.9975   11.4039 H   0  0  0  0  0  0  0  0  0  0  0  0
   49.2396    6.6592   24.2875 H   0  0  0  0  0  0  0  0  0  0  0  0
   50.1143    5.1438   24.6433 H   0  0  0  0  0  0  0  0  0  0  0  0
   50.4925    6.6045   20.1838 H   0  0  0  0  0  0  0  0  0  0  0  0
   49.3887    5.2138   19.9927 H   0  0  0  0  0  0  0  0  0  0  0  0
   50.9859    6.1628   22.5133 H   0  0  0  0  0  0  0  0  0  0  0  0
   50.1323    4.6154   22.1682 H   0  0  0  0  0  0  0  0  0  0  0  0
   51.3658    8.3826   11.3991 H   0  0  0  0  0  0  0  0  0  0  0  0
   49.8807   10.2884   10.8239 H   0  0  0  0  0  0  0  0  0  0  0  0
   43.4315    5.8873   10.2996 H   0  0  0  0  0  0  0  0  0  0  0  0
   44.5121    3.7510   10.9639 H   0  0  0  0  0  0  0  0  0  0  0  0
   49.0398    8.1770   16.1514 H   0  0  0  0  0  0  0  0  0  0  0  0
   47.7149    5.3778   16.2942 H   0  0  0  0  0  0  0  0  0  0  0  0
   47.5166    6.2735   12.9908 H   0  0  0  0  0  0  0  0  0  0  0  0
   48.3083    5.5168   19.6517 H   0  0  0  0  0  0  0  0  0  0  0  0
  2  1  2  0
  3  1  1  0
  4  6  1  0
  5  1  1  0
  6  3  2  0
  7  2  1  0
  8  7  2  0
  9 13  1  0
 10  5  1  0
 11  5  1  0
 12 10  1  0
 13 11  1  0
 14  3  1  0
 15  6  1  0
 16  9  1  0
 17 21  1  0
 18  7  1  0
 19  8  1  0
 20 22  1  0
 21 23  1  0
 22 16  1  0
 23 20  1  0
 24 14  2  0
 25 15  2  0
 26 19  2  0
 27 18  2  0
  9 12  1  0
  8  4  1  0
 24 25  1  0
 27 26  1  0
 29 28  2  0
 30 28  1  0
 31 33  1  0
 32 28  1  0
 33 30  2  0
 34 29  1  0
 35 34  2  0
 36 40  1  0
 37 32  1  0
 38 32  1  0
 39 37  1  0
 40 38  1  0
 41 30  1  0
 42 33  1  0
 43 36  1  0
 44 48  1  0
 45 34  1  0
 46 35  1  0
 47 49  1  0
 48 50  1  0
 49 43  1  0
 50 47  1  0
 51 41  2  0
 52 42  2  0
 53 46  2  0
 54 45  2  0
 36 39  1  0
 35 31  1  0
 51 52  1  0
 54 53  1  0
 56 58  1  0
 57 55  1  0
 58 57  2  0
 59 55  2  0
 60 56  2  0
 61 55  1  0
 62 56  1  0
 10 63  1  0
 10 64  1  0
 11 65  1  0
 11 66  1  0
 12 67  1  0
 12 68  1  0
 13 69  1  0
 13 70  1  0
 14 71  1  0
 15 72  1  0
 16 73  1  0
 16 74  1  0
 17 75  1  0
 18 76  1  0
 19 77  1  0
 21 78  1  0
 21 79  1  0
 22 80  1  0
 22 81  1  0
 23 82  1  0
 23 83  1  0
 24 84  1  0
 25 85  1  0
 26 86  1  0
 27 87  1  0
 37 88  1  0
 37 89  1  0
 38 90  1  0
 38 91  1  0
 39 92  1  0
 39 93  1  0
 40 94  1  0
 40 95  1  0
 41 96  1  0
 42 97  1  0
 43 98  1  0
 43 99  1  0
 44100  1  0
 45101  1  0
 46102  1  0
 48103  1  0
 48104  1  0
 49105  1  0
 49106  1  0
 50107  1  0
 50108  1  0
 51109  1  0
 52110  1  0
 53111  1  0
 54112  1  0
 57113  1  0
 58114  1  0
 61115  1  0
 62116  1  0
M  END
> <Uni-Dock RESULT> 
ENERGY=   -7.498  LOWER_BOUND=    4.851  UPPER_BOUND=    8.026
INTER + INTRA:          -7.498
INTER:                  -7.498
INTRA:                   0.000
UNBOUND:                 0.000

$$$$

     RDKit          3D

116121  0  0  0  0  0  0  0  0999 V2000
   48.5095    7.2305   18.6041 C   0  0  0  0  0  0  0  0  0  0  0  0
   48.5291    6.6137   17.4552 N   0  0  0  0  0  0  0  0  0  0  0  0
   48.4812    6.5408   19.9324 C   0  0  0  0  0  0  0  0  0  0  0  0
   50.6129    4.9057   19.1466 S   0  0  0  0  0  0  0  0  0  0  0  0
   48.4670    8.6331   18.6145 N   0  0  0  0  0  0  0  0  0  0  0  0
   49.3868    5.5331   20.2786 C   0  0  0  0  0  0  0  0  0  0  0  0
   48.5470    5.2199   17.2837 C   0  0  0  0  0  0  0  0  0  0  0  0
   49.4627    4.3454   17.8968 C   0  0  0  0  0  0  0  0  0  0  0  0
   48.8687   11.5352   18.2860 N   0  0  0  0  0  0  0  0  0  0  0  0
   49.5412    9.3444   19.3452 C   0  0  0  0  0  0  0  0  0  0  0  0
   48.1597    9.3153   17.3355 C   0  0  0  0  0  0  0  0  0  0  0  0
   49.1920   10.8344   19.5473 C   0  0  0  0  0  0  0  0  0  0  0  0
   47.7979   10.7922   17.5833 C   0  0  0  0  0  0  0  0  0  0  0  0
   47.5234    6.9794   20.8598 C   0  0  0  0  0  0  0  0  0  0  0  0
   49.3171    4.9723   21.5601 C   0  0  0  0  0  0  0  0  0  0  0  0
   48.4790   12.9365   18.5248 C   0  0  0  0  0  0  0  0  0  0  0  0
   50.7411   15.8901   15.4132 O   0  0  0  0  0  0  0  0  0  0  0  0
   47.6564    4.6952   16.3421 C   0  0  0  0  0  0  0  0  0  0  0  0
   49.4615    2.9800   17.5727 C   0  0  0  0  0  0  0  0  0  0  0  0
   50.8593   13.7655   18.4530 O   0  0  0  0  0  0  0  0  0  0  0  0
   50.7025   15.5891   16.8055 C   0  0  0  0  0  0  0  0  0  0  0  0
   49.5863   13.8495   19.1026 C   0  0  0  0  0  0  0  0  0  0  0  0
   50.8815   14.0974   17.0680 C   0  0  0  0  0  0  0  0  0  0  0  0
   47.4606    6.4090   22.1276 C   0  0  0  0  0  0  0  0  0  0  0  0
   48.3583    5.4042   22.4777 C   0  0  0  0  0  0  0  0  0  0  0  0
   48.5578    2.4746   16.6384 C   0  0  0  0  0  0  0  0  0  0  0  0
   47.6535    3.3350   16.0196 C   0  0  0  0  0  0  0  0  0  0  0  0
   48.2791    7.2074   18.9482 C   0  0  0  0  0  0  0  0  0  0  0  0
   48.3419    6.6560   17.7645 N   0  0  0  0  0  0  0  0  0  0  0  0
   48.4641    6.4411   20.2298 C   0  0  0  0  0  0  0  0  0  0  0  0
   50.8558    5.3983   19.2196 S   0  0  0  0  0  0  0  0  0  0  0  0
   48.0042    8.5846   19.0420 N   0  0  0  0  0  0  0  0  0  0  0  0
   49.6237    5.6957   20.4787 C   0  0  0  0  0  0  0  0  0  0  0  0
   48.6253    5.2994   17.5334 C   0  0  0  0  0  0  0  0  0  0  0  0
   49.7521    4.6224   18.0392 C   0  0  0  0  0  0  0  0  0  0  0  0
   49.8090   10.7446   18.4164 N   0  0  0  0  0  0  0  0  0  0  0  0
   48.6145    9.3837   20.1307 C   0  0  0  0  0  0  0  0  0  0  0  0
   47.7662    9.3571   17.8084 C   0  0  0  0  0  0  0  0  0  0  0  0
   49.0571   10.7946   19.6713 C   0  0  0  0  0  0  0  0  0  0  0  0
   49.0622   10.0608   17.3392 C   0  0  0  0  0  0  0  0  0  0  0  0
   47.4738    6.5568   21.2182 C   0  0  0  0  0  0  0  0  0  0  0  0
   49.7961    5.1000   21.7344 C   0  0  0  0  0  0  0  0  0  0  0  0
   50.4173   12.0099   18.0008 C   0  0  0  0  0  0  0  0  0  0  0  0
   50.4813   15.9317   14.9549 O   0  0  0  0  0  0  0  0  0  0  0  0
   47.7749    4.6185   16.6586 C   0  0  0  0  0  0  0  0  0  0  0  0
   50.0027    3.2922   17.6732 C   0  0  0  0  0  0  0  0  0  0  0  0
   50.2228   14.2684   17.1909 O   0  0  0  0  0  0  0  0  0  0  0  0
   50.2694   16.4649   16.2630 C   0  0  0  0  0  0  0  0  0  0  0  0
   49.4768   13.2119   17.8024 C   0  0  0  0  0  0  0  0  0  0  0  0
   49.4533   15.4721   17.0886 C   0  0  0  0  0  0  0  0  0  0  0  0
   47.6558    5.9507   22.4630 C   0  0  0  0  0  0  0  0  0  0  0  0
   48.8163    5.2303   22.7230 C   0  0  0  0  0  0  0  0  0  0  0  0
   49.1271    2.6230   16.8180 C   0  0  0  0  0  0  0  0  0  0  0  0
   48.0133    3.2876   16.3058 C   0  0  0  0  0  0  0  0  0  0  0  0
   48.8783    7.3246   19.4783 C   0  0  0  0  0  0  0  0  0  0  0  0
   49.3577   10.7668   17.9568 C   0  0  0  0  0  0  0  0  0  0  0  0
   49.2229    8.7307   19.2486 C   0  0  0  0  0  0  0  0  0  0  0  0
   48.9620    9.3665   18.0993 C   0  0  0  0  0  0  0  0  0  0  0  0
   49.0916    6.7184   20.5118 O   0  0  0  0  0  0  0  0  0  0  0  0
   49.8942   11.4665   18.7927 O   0  0  0  0  0  0  0  0  0  0  0  0
   48.2877    6.7348   18.4280 O   0  0  0  0  0  0  0  0  0  0  0  0
   49.0522   11.2157   16.7290 O   0  0  0  0  0  0  0  0  0  0  0  0
   49.7110    8.8982   20.3324 H   0  0  0  0  0  0  0  0  0  0  0  0
   50.4823    9.2604   18.7833 H   0  0  0  0  0  0  0  0  0  0  0  0
   49.0217    9.2499   16.6564 H   0  0  0  0  0  0  0  0  0  0  0  0
   47.3047    8.8345   16.8423 H   0  0  0  0  0  0  0  0  0  0  0  0
   48.3400   10.9125   20.2393 H   0  0  0  0  0  0  0  0  0  0  0  0
   50.0546   11.3138   20.0247 H   0  0  0  0  0  0  0  0  0  0  0  0
   47.6080   11.2611   16.6120 H   0  0  0  0  0  0  0  0  0  0  0  0
   46.8711   10.8311   18.1663 H   0  0  0  0  0  0  0  0  0  0  0  0
   46.8209    7.7682   20.5866 H   0  0  0  0  0  0  0  0  0  0  0  0
   50.0096    4.1867   21.8587 H   0  0  0  0  0  0  0  0  0  0  0  0
   48.1656   13.3714   17.5733 H   0  0  0  0  0  0  0  0  0  0  0  0
   47.6082   12.9836   19.1896 H   0  0  0  0  0  0  0  0  0  0  0  0
   50.0327   15.3862   14.9763 H   0  0  0  0  0  0  0  0  0  0  0  0
   46.9655    5.3651   15.8404 H   0  0  0  0  0  0  0  0  0  0  0  0
   50.1664    2.2946   18.0453 H   0  0  0  0  0  0  0  0  0  0  0  0
   49.7493   15.9514   17.2049 H   0  0  0  0  0  0  0  0  0  0  0  0
   51.4957   16.1625   17.3009 H   0  0  0  0  0  0  0  0  0  0  0  0
   49.2456   14.8928   19.1123 H   0  0  0  0  0  0  0  0  0  0  0  0
   49.7632   13.5850   20.1501 H   0  0  0  0  0  0  0  0  0  0  0  0
   51.8655   13.7995   16.6745 H   0  0  0  0  0  0  0  0  0  0  0  0
   50.1537   13.5071   16.5026 H   0  0  0  0  0  0  0  0  0  0  0  0
   46.7147    6.7511   22.8399 H   0  0  0  0  0  0  0  0  0  0  0  0
   48.3044    4.9455   23.4611 H   0  0  0  0  0  0  0  0  0  0  0  0
   48.5626    1.4176   16.3834 H   0  0  0  0  0  0  0  0  0  0  0  0
   46.9484    2.9515   15.2879 H   0  0  0  0  0  0  0  0  0  0  0  0
   47.8967    9.4772   20.9516 H   0  0  0  0  0  0  0  0  0  0  0  0
   49.5032    8.8779   20.5276 H   0  0  0  0  0  0  0  0  0  0  0  0
   47.3505    8.7449   16.9996 H   0  0  0  0  0  0  0  0  0  0  0  0
   47.0016   10.1096   18.0273 H   0  0  0  0  0  0  0  0  0  0  0  0
   48.1699   11.4363   19.5757 H   0  0  0  0  0  0  0  0  0  0  0  0
   49.6833   11.2266   20.4635 H   0  0  0  0  0  0  0  0  0  0  0  0
   48.7854   10.7507   16.5269 H   0  0  0  0  0  0  0  0  0  0  0  0
   49.7396    9.3167   16.8993 H   0  0  0  0  0  0  0  0  0  0  0  0
   46.5602    7.1079   21.0077 H   0  0  0  0  0  0  0  0  0  0  0  0
   50.6845    4.5098   21.9433 H   0  0  0  0  0  0  0  0  0  0  0  0
   51.1690   12.2988   18.7518 H   0  0  0  0  0  0  0  0  0  0  0  0
   51.0040   11.8487   17.0852 H   0  0  0  0  0  0  0  0  0  0  0  0
   50.6744   14.9846   15.0944 H   0  0  0  0  0  0  0  0  0  0  0  0
   46.9249    5.1443   16.2337 H   0  0  0  0  0  0  0  0  0  0  0  0
   50.8646    2.7617   18.0735 H   0  0  0  0  0  0  0  0  0  0  0  0
   51.2536   16.6294   16.7148 H   0  0  0  0  0  0  0  0  0  0  0  0
   49.7477   17.4201   16.1717 H   0  0  0  0  0  0  0  0  0  0  0  0
   49.0829   13.5496   18.7681 H   0  0  0  0  0  0  0  0  0  0  0  0
   48.6400   12.9498   17.1454 H   0  0  0  0  0  0  0  0  0  0  0  0
   49.2624   15.8686   18.0932 H   0  0  0  0  0  0  0  0  0  0  0  0
   48.5053   15.2532   16.5798 H   0  0  0  0  0  0  0  0  0  0  0  0
   46.8890    6.0395   23.2268 H   0  0  0  0  0  0  0  0  0  0  0  0
   48.9647    4.7568   23.6898 H   0  0  0  0  0  0  0  0  0  0  0  0
   49.3198    1.5887   16.5432 H   0  0  0  0  0  0  0  0  0  0  0  0
   47.3414    2.7790   15.6255 H   0  0  0  0  0  0  0  0  0  0  0  0
   49.7169    9.2227   20.0792 H   0  0  0  0  0  0  0  0  0  0  0  0
   48.4804    8.8915   17.2557 H   0  0  0  0  0  0  0  0  0  0  0  0
   48.1306    5.8168   18.7316 H   0  0  0  0  0  0  0  0  0  0  0  0
   49.3789   12.1408   16.7274 H   0  0  0  0  0  0  0  0  0  0  0  0
  2  1  2  0
  3  1  1  0
  4  6  1  0
  5  1  1  0
  6  3  2  0
  7  2  1  0
  8  7  2  0
  9 13  1  0
 10  5  1  0
 11  5  1  0
 12 10  1  0
 13 11  1  0
 14  3  1  0
 15  6  1  0
 16  9  1  0
 17 21  1  0
 18  7  1  0
 19  8  1  0
 20 22  1  0
 21 23  1  0
 22 16  1  0
 23 20  1  0
 24 14  2  0
 25 15  2  0
 26 19  2  0
 27 18  2  0
  9 12  1  0
  8  4  1  0
 24 25  1  0
 27 26  1  0
 29 28  2  0
 30 28  1  0
 31 33  1  0
 32 28  1  0
 33 30  2  0
 34 29  1  0
 35 34  2  0
 36 40  1  0
 37 32  1  0
 38 32  1  0
 39 37  1  0
 40 38  1  0
 41 30  1  0
 42 33  1  0
 43 36  1  0
 44 48  1  0
 45 34  1  0
 46 35  1  0
 47 49  1  0
 48 50  1  0
 49 43  1  0
 50 47  1  0
 51 41  2  0
 52 42  2  0
 53 46  2  0
 54 45  2  0
 36 39  1  0
 35 31  1  0
 51 52  1  0
 54 53  1  0
 56 58  1  0
 57 55  1  0
 58 57  2  0
 59 55  2  0
 60 56  2  0
 61 55  1  0
 62 56  1  0
 10 63  1  0
 10 64  1  0
 11 65  1  0
 11 66  1  0
 12 67  1  0
 12 68  1  0
 13 69  1  0
 13 70  1  0
 14 71  1  0
 15 72  1  0
 16 73  1  0
 16 74  1  0
 17 75  1  0
 18 76  1  0
 19 77  1  0
 21 78  1  0
 21 79  1  0
 22 80  1  0
 22 81  1  0
 23 82  1  0
 23 83  1  0
 24 84  1  0
 25 85  1  0
 26 86  1  0
 27 87  1  0
 37 88  1  0
 37 89  1  0
 38 90  1  0
 38 91  1  0
 39 92  1  0
 39 93  1  0
 40 94  1  0
 40 95  1  0
 41 96  1  0
 42 97  1  0
 43 98  1  0
 43 99  1  0
 44100  1  0
 45101  1  0
 46102  1  0
 48103  1  0
 48104  1  0
 49105  1  0
 49106  1  0
 50107  1  0
 50108  1  0
 51109  1  0
 52110  1  0
 53111  1  0
 54112  1  0
 57113  1  0
 58114  1  0
 61115  1  0
 62116  1  0
M  END
> <Uni-Dock RESULT> 
ENERGY=   -7.485  LOWER_BOUND=    1.911  UPPER_BOUND=    2.602
INTER + INTRA:          -7.485
INTER:                  -7.485
INTRA:                   0.000
UNBOUND:                 0.000

$$$$

     RDKit          3D

116121  0  0  0  0  0  0  0  0999 V2000
   50.6023    5.9789   19.0555 C   0  0  0  0  0  0  0  0  0  0  0  0
   50.4931    6.4249   20.2762 N   0  0  0  0  0  0  0  0  0  0  0  0
   49.7447    4.9003   18.4707 C   0  0  0  0  0  0  0  0  0  0  0  0
   47.4463    6.2089   19.3872 S   0  0  0  0  0  0  0  0  0  0  0  0
   51.6140    6.5020   18.2357 N   0  0  0  0  0  0  0  0  0  0  0  0
   48.3480    4.9301   18.5328 C   0  0  0  0  0  0  0  0  0  0  0  0
   49.5508    5.9831   21.2193 C   0  0  0  0  0  0  0  0  0  0  0  0
   48.1629    5.9156   20.9994 C   0  0  0  0  0  0  0  0  0  0  0  0
   53.4935    8.1345   16.6567 N   0  0  0  0  0  0  0  0  0  0  0  0
   51.2053    7.1085   16.9477 C   0  0  0  0  0  0  0  0  0  0  0  0
   52.6688    7.3129   18.8880 C   0  0  0  0  0  0  0  0  0  0  0  0
   52.4206    7.3379   16.0239 C   0  0  0  0  0  0  0  0  0  0  0  0
   53.8695    7.5014   17.9413 C   0  0  0  0  0  0  0  0  0  0  0  0
   50.4003    3.8554   17.8012 C   0  0  0  0  0  0  0  0  0  0  0  0
   47.6217    3.9014   17.9197 C   0  0  0  0  0  0  0  0  0  0  0  0
   54.6617    8.2786   15.7695 C   0  0  0  0  0  0  0  0  0  0  0  0
   56.1924   12.8801   15.6980 O   0  0  0  0  0  0  0  0  0  0  0  0
   50.0341    5.7043   22.5014 C   0  0  0  0  0  0  0  0  0  0  0  0
   47.2979    5.5619   22.0461 C   0  0  0  0  0  0  0  0  0  0  0  0
   53.7271   10.3225   14.6261 O   0  0  0  0  0  0  0  0  0  0  0  0
   55.5964   11.9114   14.8395 C   0  0  0  0  0  0  0  0  0  0  0  0
   54.4185    9.0789   14.4680 C   0  0  0  0  0  0  0  0  0  0  0  0
   54.3534   11.2877   15.4658 C   0  0  0  0  0  0  0  0  0  0  0  0
   49.6668    2.8358   17.2020 C   0  0  0  0  0  0  0  0  0  0  0  0
   48.2761    2.8590   17.2618 C   0  0  0  0  0  0  0  0  0  0  0  0
   47.8011    5.2772   23.3154 C   0  0  0  0  0  0  0  0  0  0  0  0
   49.1734    5.3506   23.5445 C   0  0  0  0  0  0  0  0  0  0  0  0
   50.6339    5.6050   18.8791 C   0  0  0  0  0  0  0  0  0  0  0  0
   50.5530    6.1278   20.0746 N   0  0  0  0  0  0  0  0  0  0  0  0
   49.5982    4.6730   18.3108 C   0  0  0  0  0  0  0  0  0  0  0  0
   47.6145    6.5327   18.9701 S   0  0  0  0  0  0  0  0  0  0  0  0
   51.7534    5.9055   18.0809 N   0  0  0  0  0  0  0  0  0  0  0  0
   48.2505    5.0431   18.2161 C   0  0  0  0  0  0  0  0  0  0  0  0
   49.4828    5.9224   20.9615 C   0  0  0  0  0  0  0  0  0  0  0  0
   48.1289    6.1452   20.6430 C   0  0  0  0  0  0  0  0  0  0  0  0
   52.2906    8.4026   16.7430 N   0  0  0  0  0  0  0  0  0  0  0  0
   51.6013    6.0100   16.6103 C   0  0  0  0  0  0  0  0  0  0  0  0
   52.8137    6.7743   18.6252 C   0  0  0  0  0  0  0  0  0  0  0  0
   52.4433    7.1541   15.9943 C   0  0  0  0  0  0  0  0  0  0  0  0
   52.6088    8.2415   18.1777 C   0  0  0  0  0  0  0  0  0  0  0  0
   50.0296    3.4407   17.7950 C   0  0  0  0  0  0  0  0  0  0  0  0
   47.3507    4.1858   17.5707 C   0  0  0  0  0  0  0  0  0  0  0  0
   52.9101    9.5793   16.1301 C   0  0  0  0  0  0  0  0  0  0  0  0
   56.5243   12.9848   16.0955 O   0  0  0  0  0  0  0  0  0  0  0  0
   49.8106    5.5703   22.2732 C   0  0  0  0  0  0  0  0  0  0  0  0
   47.1381    6.0069   21.6256 C   0  0  0  0  0  0  0  0  0  0  0  0
   54.8636   10.8209   15.4693 O   0  0  0  0  0  0  0  0  0  0  0  0
   56.6523   12.2766   14.8616 C   0  0  0  0  0  0  0  0  0  0  0  0
   54.4227    9.5152   15.8531 C   0  0  0  0  0  0  0  0  0  0  0  0
   56.2385   10.8208   15.0680 C   0  0  0  0  0  0  0  0  0  0  0  0
   49.1194    2.5923   17.1610 C   0  0  0  0  0  0  0  0  0  0  0  0
   47.7854    2.9664   17.0430 C   0  0  0  0  0  0  0  0  0  0  0  0
   47.4846    5.6302   22.9232 C   0  0  0  0  0  0  0  0  0  0  0  0
   48.8232    5.4153   23.2499 C   0  0  0  0  0  0  0  0  0  0  0  0
   50.1731    5.7595   18.2329 C   0  0  0  0  0  0  0  0  0  0  0  0
   52.7332    8.3659   17.2101 C   0  0  0  0  0  0  0  0  0  0  0  0
   51.0075    6.6974   17.4762 C   0  0  0  0  0  0  0  0  0  0  0  0
   51.9615    7.4459   18.0443 C   0  0  0  0  0  0  0  0  0  0  0  0
   49.3047    5.0577   17.7487 O   0  0  0  0  0  0  0  0  0  0  0  0
   52.6331    8.5281   16.0102 O   0  0  0  0  0  0  0  0  0  0  0  0
   50.4485    5.7296   19.5455 O   0  0  0  0  0  0  0  0  0  0  0  0
   53.6076    9.0549   17.9605 O   0  0  0  0  0  0  0  0  0  0  0  0
   50.4913    6.4672   16.4172 H   0  0  0  0  0  0  0  0  0  0  0  0
   50.7027    8.0672   17.1389 H   0  0  0  0  0  0  0  0  0  0  0  0
   52.2649    8.2928   19.1800 H   0  0  0  0  0  0  0  0  0  0  0  0
   53.0282    6.8121   19.7966 H   0  0  0  0  0  0  0  0  0  0  0  0
   52.8231    6.3625   15.7118 H   0  0  0  0  0  0  0  0  0  0  0  0
   52.0598    7.8528   15.1257 H   0  0  0  0  0  0  0  0  0  0  0  0
   54.6078    8.1281   18.4526 H   0  0  0  0  0  0  0  0  0  0  0  0
   54.3249    6.5221   17.7564 H   0  0  0  0  0  0  0  0  0  0  0  0
   51.4900    3.8378   17.7524 H   0  0  0  0  0  0  0  0  0  0  0  0
   46.5332    3.8983   17.9506 H   0  0  0  0  0  0  0  0  0  0  0  0
   55.4502    8.7934   16.3227 H   0  0  0  0  0  0  0  0  0  0  0  0
   55.0626    7.2937   15.5017 H   0  0  0  0  0  0  0  0  0  0  0  0
   56.4242   12.4398   16.5340 H   0  0  0  0  0  0  0  0  0  0  0  0
   51.0999    5.7824   22.6908 H   0  0  0  0  0  0  0  0  0  0  0  0
   46.2207    5.5047   21.8835 H   0  0  0  0  0  0  0  0  0  0  0  0
   56.3504   11.1510   14.6104 H   0  0  0  0  0  0  0  0  0  0  0  0
   55.3414   12.4044   13.8933 H   0  0  0  0  0  0  0  0  0  0  0  0
   55.3703    9.2498   13.9489 H   0  0  0  0  0  0  0  0  0  0  0  0
   53.8101    8.4795   13.7831 H   0  0  0  0  0  0  0  0  0  0  0  0
   53.6231   12.0920   15.6433 H   0  0  0  0  0  0  0  0  0  0  0  0
   54.5747   10.8751   16.4550 H   0  0  0  0  0  0  0  0  0  0  0  0
   50.1806    2.0282   16.6878 H   0  0  0  0  0  0  0  0  0  0  0  0
   47.6991    2.0579   16.8081 H   0  0  0  0  0  0  0  0  0  0  0  0
   47.1289    5.0099   24.1271 H   0  0  0  0  0  0  0  0  0  0  0  0
   49.5744    5.1345   24.5304 H   0  0  0  0  0  0  0  0  0  0  0  0
   51.8901    5.0588   16.1523 H   0  0  0  0  0  0  0  0  0  0  0  0
   50.5540    6.1981   16.3443 H   0  0  0  0  0  0  0  0  0  0  0  0
   52.8892    6.7157   19.7173 H   0  0  0  0  0  0  0  0  0  0  0  0
   53.7734    6.4082   18.2462 H   0  0  0  0  0  0  0  0  0  0  0  0
   53.4968    6.8434   15.9535 H   0  0  0  0  0  0  0  0  0  0  0  0
   52.1096    7.2985   14.9578 H   0  0  0  0  0  0  0  0  0  0  0  0
   53.5122    8.8015   18.4655 H   0  0  0  0  0  0  0  0  0  0  0  0
   51.7763    8.6801   18.7439 H   0  0  0  0  0  0  0  0  0  0  0  0
   51.0701    3.1431   17.9017 H   0  0  0  0  0  0  0  0  0  0  0  0
   46.2994    4.4509   17.4956 H   0  0  0  0  0  0  0  0  0  0  0  0
   52.4067    9.7789   15.1714 H   0  0  0  0  0  0  0  0  0  0  0  0
   52.6864   10.4673   16.7384 H   0  0  0  0  0  0  0  0  0  0  0  0
   55.6919   12.6606   16.4899 H   0  0  0  0  0  0  0  0  0  0  0  0
   50.8551    5.4339   22.5371 H   0  0  0  0  0  0  0  0  0  0  0  0
   46.0897    6.1644   21.3795 H   0  0  0  0  0  0  0  0  0  0  0  0
   55.9989   12.7666   14.1317 H   0  0  0  0  0  0  0  0  0  0  0  0
   57.6889   12.3449   14.5244 H   0  0  0  0  0  0  0  0  0  0  0  0
   54.6313    8.8034   15.0460 H   0  0  0  0  0  0  0  0  0  0  0  0
   54.9724    9.2109   16.7509 H   0  0  0  0  0  0  0  0  0  0  0  0
   56.3459   10.2519   14.1365 H   0  0  0  0  0  0  0  0  0  0  0  0
   56.8471   10.3683   15.8620 H   0  0  0  0  0  0  0  0  0  0  0  0
   49.4532    1.6385   16.7632 H   0  0  0  0  0  0  0  0  0  0  0  0
   47.0720    2.3113   16.5502 H   0  0  0  0  0  0  0  0  0  0  0  0
   46.7127    5.5153   23.6805 H   0  0  0  0  0  0  0  0  0  0  0  0
   49.0996    5.1424   24.2608 H   0  0  0  0  0  0  0  0  0  0  0  0
   50.7902    6.7501   16.4149 H   0  0  0  0  0  0  0  0  0  0  0  0
   52.1866    7.4162   19.1016 H   0  0  0  0  0  0  0  0  0  0  0  0
   49.8147    5.0743   19.9038 H   0  0  0  0  0  0  0  0  0  0  0  0
   54.0479    9.6539   17.3204 H   0  0  0  0  0  0  0  0  0  0  0  0
  2  1  2  0
  3  1  1  0
  4  6  1  0
  5  1  1  0
  6  3  2  0
  7  2  1  0
  8  7  2  0
  9 13  1  0
 10  5  1  0
 11  5  1  0
 12 10  1  0
 13 11  1  0
 14  3  1  0
 15  6  1  0
 16  9  1  0
 17 21  1  0
 18  7  1  0
 19  8  1  0
 20 22  1  0
 21 23  1  0
 22 16  1  0
 23 20  1  0
 24 14  2  0
 25 15  2  0
 26 19  2  0
 27 18  2  0
  9 12  1  0
  8  4  1  0
 24 25  1  0
 27 26  1  0
 29 28  2  0
 30 28  1  0
 31 33  1  0
 32 28  1  0
 33 30  2  0
 34 29  1  0
 35 34  2  0
 36 40  1  0
 37 32  1  0
 38 32  1  0
 39 37  1  0
 40 38  1  0
 41 30  1  0
 42 33  1  0
 43 36  1  0
 44 48  1  0
 45 34  1  0
 46 35  1  0
 47 49  1  0
 48 50  1  0
 49 43  1  0
 50 47  1  0
 51 41  2  0
 52 42  2  0
 53 46  2  0
 54 45  2  0
 36 39  1  0
 35 31  1  0
 51 52  1  0
 54 53  1  0
 56 58  1  0
 57 55  1  0
 58 57  2  0
 59 55  2  0
 60 56  2  0
 61 55  1  0
 62 56  1  0
 10 63  1  0
 10 64  1  0
 11 65  1  0
 11 66  1  0
 12 67  1  0
 12 68  1  0
 13 69  1  0
 13 70  1  0
 14 71  1  0
 15 72  1  0
 16 73  1  0
 16 74  1  0
 17 75  1  0
 18 76  1  0
 19 77  1  0
 21 78  1  0
 21 79  1  0
 22 80  1  0
 22 81  1  0
 23 82  1  0
 23 83  1  0
 24 84  1  0
 25 85  1  0
 26 86  1  0
 27 87  1  0
 37 88  1  0
 37 89  1  0
 38 90  1  0
 38 91  1  0
 39 92  1  0
 39 93  1  0
 40 94  1  0
 40 95  1  0
 41 96  1  0
 42 97  1  0
 43 98  1  0
 43 99  1  0
 44100  1  0
 45101  1  0
 46102  1  0
 48103  1  0
 48104  1  0
 49105  1  0
 49106  1  0
 50107  1  0
 50108  1  0
 51109  1  0
 52110  1  0
 53111  1  0
 54112  1  0
 57113  1  0
 58114  1  0
 61115  1  0
 62116  1  0
M  END
> <Uni-Dock RESULT> 
ENERGY=   -7.157  LOWER_BOUND=    3.548  UPPER_BOUND=    5.652
INTER + INTRA:          -7.157
INTER:                  -7.157
INTRA:                   0.000
UNBOUND:                 0.000

$$$$

     RDKit          3D

116121  0  0  0  0  0  0  0  0999 V2000
   48.3260    9.5055   16.9269 C   0  0  0  0  0  0  0  0  0  0  0  0
   48.1577    9.7544   15.6578 N   0  0  0  0  0  0  0  0  0  0  0  0
   48.3436    8.1325   17.5230 C   0  0  0  0  0  0  0  0  0  0  0  0
   50.1725    7.2939   15.5769 S   0  0  0  0  0  0  0  0  0  0  0  0
   48.4564   10.5856   17.8132 N   0  0  0  0  0  0  0  0  0  0  0  0
   49.1488    7.1037   17.0241 C   0  0  0  0  0  0  0  0  0  0  0  0
   47.9884    8.7838   14.6570 C   0  0  0  0  0  0  0  0  0  0  0  0
   48.8458    7.6890   14.4444 C   0  0  0  0  0  0  0  0  0  0  0  0
   49.1756   13.0257   19.3033 N   0  0  0  0  0  0  0  0  0  0  0  0
   49.6757   10.6382   18.6524 C   0  0  0  0  0  0  0  0  0  0  0  0
   48.1112   11.9327   17.3016 C   0  0  0  0  0  0  0  0  0  0  0  0
   49.5326   11.6749   19.7873 C   0  0  0  0  0  0  0  0  0  0  0  0
   47.9586   12.9308   18.4653 C   0  0  0  0  0  0  0  0  0  0  0  0
   47.5419    7.9169   18.6546 C   0  0  0  0  0  0  0  0  0  0  0  0
   49.1367    5.8614   17.6708 C   0  0  0  0  0  0  0  0  0  0  0  0
   48.9853   13.9718   20.4173 C   0  0  0  0  0  0  0  0  0  0  0  0
   51.2762   18.1507   19.5167 O   0  0  0  0  0  0  0  0  0  0  0  0
   46.9526    9.0030   13.7436 C   0  0  0  0  0  0  0  0  0  0  0  0
   48.6462    6.8376   13.3469 C   0  0  0  0  0  0  0  0  0  0  0  0
   51.4306   14.5799   20.5135 O   0  0  0  0  0  0  0  0  0  0  0  0
   51.3374   17.0383   20.4053 C   0  0  0  0  0  0  0  0  0  0  0  0
   50.2470   14.2761   21.2594 C   0  0  0  0  0  0  0  0  0  0  0  0
   51.3577   15.7121   19.6523 C   0  0  0  0  0  0  0  0  0  0  0  0
   47.5341    6.6756   19.2837 C   0  0  0  0  0  0  0  0  0  0  0  0
   48.3322    5.6470   18.7908 C   0  0  0  0  0  0  0  0  0  0  0  0
   47.6005    7.0674   12.4531 C   0  0  0  0  0  0  0  0  0  0  0  0
   46.7520    8.1547   12.6508 C   0  0  0  0  0  0  0  0  0  0  0  0
   48.1293    9.2776   17.2121 C   0  0  0  0  0  0  0  0  0  0  0  0
   48.0082    9.5977   15.9503 N   0  0  0  0  0  0  0  0  0  0  0  0
   48.3436    7.8678   17.6922 C   0  0  0  0  0  0  0  0  0  0  0  0
   50.4797    7.6208   15.9022 S   0  0  0  0  0  0  0  0  0  0  0  0
   48.0352   10.2930   18.1822 N   0  0  0  0  0  0  0  0  0  0  0  0
   49.4222    7.0951   17.2427 C   0  0  0  0  0  0  0  0  0  0  0  0
   48.0998    8.6848   14.8862 C   0  0  0  0  0  0  0  0  0  0  0  0
   49.1795    7.8037   14.6818 C   0  0  0  0  0  0  0  0  0  0  0  0
   50.0205   12.3003   18.7682 N   0  0  0  0  0  0  0  0  0  0  0  0
   48.8421   10.2024   19.4221 C   0  0  0  0  0  0  0  0  0  0  0  0
   47.7739   11.6790   17.7511 C   0  0  0  0  0  0  0  0  0  0  0  0
   49.4067   11.5700   19.8784 C   0  0  0  0  0  0  0  0  0  0  0  0
   49.0941   12.4773   17.6298 C   0  0  0  0  0  0  0  0  0  0  0  0
   47.4763    7.3649   18.6749 C   0  0  0  0  0  0  0  0  0  0  0  0
   49.6425    5.8342   17.8108 C   0  0  0  0  0  0  0  0  0  0  0  0
   50.7353   13.5222   19.1424 C   0  0  0  0  0  0  0  0  0  0  0  0
   50.9800   18.4814   19.2302 O   0  0  0  0  0  0  0  0  0  0  0  0
   47.0912    8.7396   13.9209 C   0  0  0  0  0  0  0  0  0  0  0  0
   49.2287    6.9976   13.5354 C   0  0  0  0  0  0  0  0  0  0  0  0
   50.7400   15.7885   19.9537 O   0  0  0  0  0  0  0  0  0  0  0  0
   50.9637   18.0735   20.5991 C   0  0  0  0  0  0  0  0  0  0  0  0
   49.9338   14.6089   19.8809 C   0  0  0  0  0  0  0  0  0  0  0  0
   50.1170   16.8100   20.7410 C   0  0  0  0  0  0  0  0  0  0  0  0
   47.7037    6.1024   19.2267 C   0  0  0  0  0  0  0  0  0  0  0  0
   48.7873    5.3420   18.8012 C   0  0  0  0  0  0  0  0  0  0  0  0
   48.1986    7.0499   12.5963 C   0  0  0  0  0  0  0  0  0  0  0  0
   47.1295    7.9250   12.7862 C   0  0  0  0  0  0  0  0  0  0  0  0
   48.7872    9.0131   17.6006 C   0  0  0  0  0  0  0  0  0  0  0  0
   49.5326   12.6232   18.4980 C   0  0  0  0  0  0  0  0  0  0  0  0
   49.2769   10.2350   18.2454 C   0  0  0  0  0  0  0  0  0  0  0  0
   48.9846   11.4626   17.7975 C   0  0  0  0  0  0  0  0  0  0  0  0
   49.0248    7.8832   17.9851 O   0  0  0  0  0  0  0  0  0  0  0  0
   50.2297   12.6180   19.4930 O   0  0  0  0  0  0  0  0  0  0  0  0
   48.0292    9.2407   16.5174 O   0  0  0  0  0  0  0  0  0  0  0  0
   49.1657   13.7573   17.8804 O   0  0  0  0  0  0  0  0  0  0  0  0
   49.8854    9.6628   19.1076 H   0  0  0  0  0  0  0  0  0  0  0  0
   50.5400   10.8975   18.0246 H   0  0  0  0  0  0  0  0  0  0  0  0
   48.8882   12.2832   16.6074 H   0  0  0  0  0  0  0  0  0  0  0  0
   47.1598   11.9010   16.7545 H   0  0  0  0  0  0  0  0  0  0  0  0
   48.7683   11.3257   20.4977 H   0  0  0  0  0  0  0  0  0  0  0  0
   50.4899   11.7152   20.3201 H   0  0  0  0  0  0  0  0  0  0  0  0
   47.7333   13.9143   18.0396 H   0  0  0  0  0  0  0  0  0  0  0  0
   47.1049   12.6228   19.0791 H   0  0  0  0  0  0  0  0  0  0  0  0
   46.9177    8.7233   19.0424 H   0  0  0  0  0  0  0  0  0  0  0  0
   49.7539    5.0418   17.3059 H   0  0  0  0  0  0  0  0  0  0  0  0
   48.6359   14.9206   20.0046 H   0  0  0  0  0  0  0  0  0  0  0  0
   48.1959   13.6165   21.0905 H   0  0  0  0  0  0  0  0  0  0  0  0
   50.4723   18.0606   18.9762 H   0  0  0  0  0  0  0  0  0  0  0  0
   46.3031    9.8616   13.8802 H   0  0  0  0  0  0  0  0  0  0  0  0
   49.3049    5.9849   13.1761 H   0  0  0  0  0  0  0  0  0  0  0  0
   50.4793   17.0976   21.0831 H   0  0  0  0  0  0  0  0  0  0  0  0
   52.2393   17.1423   21.0210 H   0  0  0  0  0  0  0  0  0  0  0  0
   50.0389   15.0884   21.9675 H   0  0  0  0  0  0  0  0  0  0  0  0
   50.4918   13.4029   21.8727 H   0  0  0  0  0  0  0  0  0  0  0  0
   52.2546   15.6980   19.0144 H   0  0  0  0  0  0  0  0  0  0  0  0
   50.5115   15.6371   18.9623 H   0  0  0  0  0  0  0  0  0  0  0  0
   46.9088    6.5144   20.1576 H   0  0  0  0  0  0  0  0  0  0  0  0
   48.3190    4.6717   19.2695 H   0  0  0  0  0  0  0  0  0  0  0  0
   47.4513    6.4107   11.5994 H   0  0  0  0  0  0  0  0  0  0  0  0
   45.9372    8.3441   11.9581 H   0  0  0  0  0  0  0  0  0  0  0  0
   48.2247    9.7792   20.2206 H   0  0  0  0  0  0  0  0  0  0  0  0
   49.6968    9.5305   19.2766 H   0  0  0  0  0  0  0  0  0  0  0  0
   47.2095   11.7306   16.8127 H   0  0  0  0  0  0  0  0  0  0  0  0
   47.1321   12.1480   18.5039 H   0  0  0  0  0  0  0  0  0  0  0  0
   48.5994   12.1564   20.3396 H   0  0  0  0  0  0  0  0  0  0  0  0
   50.1554   11.3824   20.6598 H   0  0  0  0  0  0  0  0  0  0  0  0
   48.8256   13.5343   17.4769 H   0  0  0  0  0  0  0  0  0  0  0  0
   49.6293   12.1575   16.7258 H   0  0  0  0  0  0  0  0  0  0  0  0
   46.6207    7.9546   18.9954 H   0  0  0  0  0  0  0  0  0  0  0  0
   50.4683    5.2159   17.4686 H   0  0  0  0  0  0  0  0  0  0  0  0
   51.5864   13.2457   19.7840 H   0  0  0  0  0  0  0  0  0  0  0  0
   51.2056   13.9572   18.2491 H   0  0  0  0  0  0  0  0  0  0  0  0
   51.0686   17.6540   18.7192 H   0  0  0  0  0  0  0  0  0  0  0  0
   46.2744    9.4433   14.0513 H   0  0  0  0  0  0  0  0  0  0  0  0
   50.0543    6.3054   13.3814 H   0  0  0  0  0  0  0  0  0  0  0  0
   52.0000   17.8824   20.8979 H   0  0  0  0  0  0  0  0  0  0  0  0
   50.5561   18.8876   21.2024 H   0  0  0  0  0  0  0  0  0  0  0  0
   49.6804   14.2723   20.8930 H   0  0  0  0  0  0  0  0  0  0  0  0
   49.0111   14.8494   19.3412 H   0  0  0  0  0  0  0  0  0  0  0  0
   50.0751   16.4877   21.7884 H   0  0  0  0  0  0  0  0  0  0  0  0
   49.1042   16.9940   20.3590 H   0  0  0  0  0  0  0  0  0  0  0  0
   47.0318    5.7132   19.9859 H   0  0  0  0  0  0  0  0  0  0  0  0
   48.9705    4.3591   19.2269 H   0  0  0  0  0  0  0  0  0  0  0  0
   48.2356    6.4170   11.7128 H   0  0  0  0  0  0  0  0  0  0  0  0
   46.3373    7.9841   12.0501 H   0  0  0  0  0  0  0  0  0  0  0  0
   49.9062   10.0738   19.1139 H   0  0  0  0  0  0  0  0  0  0  0  0
   48.3684   11.6447   16.9278 H   0  0  0  0  0  0  0  0  0  0  0  0
   47.7916    8.3436   16.2041 H   0  0  0  0  0  0  0  0  0  0  0  0
   49.6012   14.4633   18.4042 H   0  0  0  0  0  0  0  0  0  0  0  0
  2  1  2  0
  3  1  1  0
  4  6  1  0
  5  1  1  0
  6  3  2  0
  7  2  1  0
  8  7  2  0
  9 13  1  0
 10  5  1  0
 11  5  1  0
 12 10  1  0
 13 11  1  0
 14  3  1  0
 15  6  1  0
 16  9  1  0
 17 21  1  0
 18  7  1  0
 19  8  1  0
 20 22  1  0
 21 23  1  0
 22 16  1  0
 23 20  1  0
 24 14  2  0
 25 15  2  0
 26 19  2  0
 27 18  2  0
  9 12  1  0
  8  4  1  0
 24 25  1  0
 27 26  1  0
 29 28  2  0
 30 28  1  0
 31 33  1  0
 32 28  1  0
 33 30  2  0
 34 29  1  0
 35 34  2  0
 36 40  1  0
 37 32  1  0
 38 32  1  0
 39 37  1  0
 40 38  1  0
 41 30  1  0
 42 33  1  0
 43 36  1  0
 44 48  1  0
 45 34  1  0
 46 35  1  0
 47 49  1  0
 48 50  1  0
 49 43  1  0
 50 47  1  0
 51 41  2  0
 52 42  2  0
 53 46  2  0
 54 45  2  0
 36 39  1  0
 35 31  1  0
 51 52  1  0
 54 53  1  0
 56 58  1  0
 57 55  1  0
 58 57  2  0
 59 55  2  0
 60 56  2  0
 61 55  1  0
 62 56  1  0
 10 63  1  0
 10 64  1  0
 11 65  1  0
 11 66  1  0
 12 67  1  0
 12 68  1  0
 13 69  1  0
 13 70  1  0
 14 71  1  0
 15 72  1  0
 16 73  1  0
 16 74  1  0
 17 75  1  0
 18 76  1  0
 19 77  1  0
 21 78  1  0
 21 79  1  0
 22 80  1  0
 22 81  1  0
 23 82  1  0
 23 83  1  0
 24 84  1  0
 25 85  1  0
 26 86  1  0
 27 87  1  0
 37 88  1  0
 37 89  1  0
 38 90  1  0
 38 91  1  0
 39 92  1  0
 39 93  1  0
 40 94  1  0
 40 95  1  0
 41 96  1  0
 42 97  1  0
 43 98  1  0
 43 99  1  0
 44100  1  0
 45101  1  0
 46102  1  0
 48103  1  0
 48104  1  0
 49105  1  0
 49106  1  0
 50107  1  0
 50108  1  0
 51109  1  0
 52110  1  0
 53111  1  0
 54112  1  0
 57113  1  0
 58114  1  0
 61115  1  0
 62116  1  0
M  END
> <Uni-Dock RESULT> 
ENERGY=   -7.014  LOWER_BOUND=    3.278  UPPER_BOUND=    5.311
INTER + INTRA:          -7.014
INTER:                  -7.014
INTRA:                   0.000
UNBOUND:                 0.000

$$$$

     RDKit          3D

116121  0  0  0  0  0  0  0  0999 V2000
   49.0862    7.4094   15.5302 C   0  0  0  0  0  0  0  0  0  0  0  0
   48.8943    6.1302   15.3635 N   0  0  0  0  0  0  0  0  0  0  0  0
   48.8771    8.1331   16.8237 C   0  0  0  0  0  0  0  0  0  0  0  0
   50.3954    6.2031   18.1673 S   0  0  0  0  0  0  0  0  0  0  0  0
   49.4717    8.1820   14.4240 N   0  0  0  0  0  0  0  0  0  0  0  0
   49.4409    7.7026   18.0288 C   0  0  0  0  0  0  0  0  0  0  0  0
   48.4848    5.2348   16.3650 C   0  0  0  0  0  0  0  0  0  0  0  0
   49.1041    5.0931   17.6201 C   0  0  0  0  0  0  0  0  0  0  0  0
   50.7285    9.4006   12.0519 N   0  0  0  0  0  0  0  0  0  0  0  0
   50.7258    8.9617   14.5381 C   0  0  0  0  0  0  0  0  0  0  0  0
   49.3599    7.5582   13.0846 C   0  0  0  0  0  0  0  0  0  0  0  0
   50.8495    9.9968   13.3996 C   0  0  0  0  0  0  0  0  0  0  0  0
   49.4686    8.6261   11.9795 C   0  0  0  0  0  0  0  0  0  0  0  0
   48.1167    9.3120   16.7806 C   0  0  0  0  0  0  0  0  0  0  0  0
   49.2305    8.4652   19.1845 C   0  0  0  0  0  0  0  0  0  0  0  0
   50.7875   10.4257   10.9945 C   0  0  0  0  0  0  0  0  0  0  0  0
   53.7752    9.0357    7.4359 O   0  0  0  0  0  0  0  0  0  0  0  0
   47.4579    4.3478   16.0276 C   0  0  0  0  0  0  0  0  0  0  0  0
   48.6820    4.0914   18.5076 C   0  0  0  0  0  0  0  0  0  0  0  0
   53.3051   10.3630   10.8689 O   0  0  0  0  0  0  0  0  0  0  0  0
   53.6756   10.0236    8.4581 C   0  0  0  0  0  0  0  0  0  0  0  0
   52.1312   11.1824   10.8707 C   0  0  0  0  0  0  0  0  0  0  0  0
   53.3987    9.4010    9.8227 C   0  0  0  0  0  0  0  0  0  0  0  0
   47.9097   10.0569   17.9377 C   0  0  0  0  0  0  0  0  0  0  0  0
   48.4670    9.6326   19.1407 C   0  0  0  0  0  0  0  0  0  0  0  0
   47.6486    3.2233   18.1561 C   0  0  0  0  0  0  0  0  0  0  0  0
   47.0357    3.3504   16.9114 C   0  0  0  0  0  0  0  0  0  0  0  0
   48.8668    7.7229   15.6899 C   0  0  0  0  0  0  0  0  0  0  0  0
   48.7350    6.4423   15.4623 N   0  0  0  0  0  0  0  0  0  0  0  0
   48.8366    8.3267   17.0678 C   0  0  0  0  0  0  0  0  0  0  0  0
   50.7778    6.4827   17.8798 S   0  0  0  0  0  0  0  0  0  0  0  0
   49.0249    8.5943   14.5960 N   0  0  0  0  0  0  0  0  0  0  0  0
   49.7201    7.9096   18.0717 C   0  0  0  0  0  0  0  0  0  0  0  0
   48.5886    5.4677   16.4637 C   0  0  0  0  0  0  0  0  0  0  0  0
   49.4669    5.3046   17.5527 C   0  0  0  0  0  0  0  0  0  0  0  0
   51.3869    8.9034   12.9715 N   0  0  0  0  0  0  0  0  0  0  0  0
   49.8710    9.8030   14.7351 C   0  0  0  0  0  0  0  0  0  0  0  0
   49.0074    8.0433   13.2280 C   0  0  0  0  0  0  0  0  0  0  0  0
   50.7115   10.1027   13.4696 C   0  0  0  0  0  0  0  0  0  0  0  0
   50.4460    7.7922   12.7159 C   0  0  0  0  0  0  0  0  0  0  0  0
   47.9485    9.3877   17.3054 C   0  0  0  0  0  0  0  0  0  0  0  0
   49.7291    8.5864   19.2977 C   0  0  0  0  0  0  0  0  0  0  0  0
   52.3420    9.1293   11.8848 C   0  0  0  0  0  0  0  0  0  0  0  0
   53.5311    8.7313    7.0797 O   0  0  0  0  0  0  0  0  0  0  0  0
   47.5539    4.5437   16.2967 C   0  0  0  0  0  0  0  0  0  0  0  0
   49.2943    4.2397   18.4486 C   0  0  0  0  0  0  0  0  0  0  0  0
   52.8256    9.7187    9.6016 O   0  0  0  0  0  0  0  0  0  0  0  0
   53.5178   10.1324    7.3571 C   0  0  0  0  0  0  0  0  0  0  0  0
   51.8068    9.7924   10.6032 C   0  0  0  0  0  0  0  0  0  0  0  0
   52.4559   10.4293    8.4143 C   0  0  0  0  0  0  0  0  0  0  0  0
   47.9634   10.0482   18.5357 C   0  0  0  0  0  0  0  0  0  0  0  0
   48.8555    9.6536   19.5266 C   0  0  0  0  0  0  0  0  0  0  0  0
   48.2397    3.3429   18.2775 C   0  0  0  0  0  0  0  0  0  0  0  0
   47.3699    3.4916   17.1977 C   0  0  0  0  0  0  0  0  0  0  0  0
   49.4840    8.1077   16.0432 C   0  0  0  0  0  0  0  0  0  0  0  0
   50.9544    8.6237   12.5841 C   0  0  0  0  0  0  0  0  0  0  0  0
   50.2343    8.6118   14.8893 C   0  0  0  0  0  0  0  0  0  0  0  0
   50.1553    8.0607   13.6715 C   0  0  0  0  0  0  0  0  0  0  0  0
   49.5243    8.5887   17.1604 O   0  0  0  0  0  0  0  0  0  0  0  0
   51.6949    9.5853   12.6394 O   0  0  0  0  0  0  0  0  0  0  0  0
   48.7210    7.0396   15.7663 O   0  0  0  0  0  0  0  0  0  0  0  0
   50.7745    7.9158   11.4577 O   0  0  0  0  0  0  0  0  0  0  0  0
   50.7723    9.4992   15.4927 H   0  0  0  0  0  0  0  0  0  0  0  0
   51.5853    8.2771   14.5074 H   0  0  0  0  0  0  0  0  0  0  0  0
   50.1473    6.8024   12.9535 H   0  0  0  0  0  0  0  0  0  0  0  0
   48.3894    7.0561   12.9772 H   0  0  0  0  0  0  0  0  0  0  0  0
   50.0757   10.7682   13.5306 H   0  0  0  0  0  0  0  0  0  0  0  0
   51.8265   10.4838   13.5010 H   0  0  0  0  0  0  0  0  0  0  0  0
   49.4101    8.1177   11.0113 H   0  0  0  0  0  0  0  0  0  0  0  0
   48.6094    9.3011   12.0611 H   0  0  0  0  0  0  0  0  0  0  0  0
   47.6813    9.6460   15.8376 H   0  0  0  0  0  0  0  0  0  0  0  0
   49.6579    8.1556   20.1371 H   0  0  0  0  0  0  0  0  0  0  0  0
   50.6015    9.9386   10.0349 H   0  0  0  0  0  0  0  0  0  0  0  0
   49.9858   11.1616   11.1297 H   0  0  0  0  0  0  0  0  0  0  0  0
   52.9386    8.5397    7.4137 H   0  0  0  0  0  0  0  0  0  0  0  0
   46.9929    4.4279   15.0503 H   0  0  0  0  0  0  0  0  0  0  0  0
   49.1551    3.9763   19.4838 H   0  0  0  0  0  0  0  0  0  0  0  0
   52.8857   10.7271    8.1745 H   0  0  0  0  0  0  0  0  0  0  0  0
   54.6153   10.5890    8.4794 H   0  0  0  0  0  0  0  0  0  0  0  0
   52.1235   11.8173    9.9754 H   0  0  0  0  0  0  0  0  0  0  0  0
   52.2409   11.8661   11.7187 H   0  0  0  0  0  0  0  0  0  0  0  0
   54.2376    8.7312   10.0663 H   0  0  0  0  0  0  0  0  0  0  0  0
   52.5147    8.7566    9.7903 H   0  0  0  0  0  0  0  0  0  0  0  0
   47.3175   10.9671   17.8980 H   0  0  0  0  0  0  0  0  0  0  0  0
   48.2965   10.2027   20.0498 H   0  0  0  0  0  0  0  0  0  0  0  0
   47.3272    2.4433   18.8421 H   0  0  0  0  0  0  0  0  0  0  0  0
   46.2327    2.6767   16.6271 H   0  0  0  0  0  0  0  0  0  0  0  0
   49.2323   10.6631   14.9594 H   0  0  0  0  0  0  0  0  0  0  0  0
   50.5721    9.6878   15.5707 H   0  0  0  0  0  0  0  0  0  0  0  0
   48.4091    7.1282   13.1483 H   0  0  0  0  0  0  0  0  0  0  0  0
   48.5119    8.7734   12.5798 H   0  0  0  0  0  0  0  0  0  0  0  0
   50.0591   10.5382   12.6996 H   0  0  0  0  0  0  0  0  0  0  0  0
   51.4553   10.8672   13.7316 H   0  0  0  0  0  0  0  0  0  0  0  0
   50.3751    7.5498   11.6440 H   0  0  0  0  0  0  0  0  0  0  0  0
   50.8565    6.9018   13.2106 H   0  0  0  0  0  0  0  0  0  0  0  0
   47.2412    9.6850   16.5348 H   0  0  0  0  0  0  0  0  0  0  0  0
   50.4006    8.2716   20.0922 H   0  0  0  0  0  0  0  0  0  0  0  0
   53.1610    9.7590   12.2656 H   0  0  0  0  0  0  0  0  0  0  0  0
   52.8332    8.1798   11.6284 H   0  0  0  0  0  0  0  0  0  0  0  0
   53.4304    8.2987    7.9494 H   0  0  0  0  0  0  0  0  0  0  0  0
   46.8952    4.6393   15.4386 H   0  0  0  0  0  0  0  0  0  0  0  0
   49.9625    4.1191   19.2991 H   0  0  0  0  0  0  0  0  0  0  0  0
   54.5145   10.4055    7.7202 H   0  0  0  0  0  0  0  0  0  0  0  0
   53.3088   10.6711    6.4303 H   0  0  0  0  0  0  0  0  0  0  0  0
   51.5538   10.8416   10.7954 H   0  0  0  0  0  0  0  0  0  0  0  0
   50.9166    9.2703   10.2348 H   0  0  0  0  0  0  0  0  0  0  0  0
   52.4149   11.5037    8.6308 H   0  0  0  0  0  0  0  0  0  0  0  0
   51.4760   10.0732    8.0700 H   0  0  0  0  0  0  0  0  0  0  0  0
   47.2755   10.8681   18.7195 H   0  0  0  0  0  0  0  0  0  0  0  0
   48.8729   10.1636   20.4859 H   0  0  0  0  0  0  0  0  0  0  0  0
   48.1037    2.5233   18.9792 H   0  0  0  0  0  0  0  0  0  0  0  0
   46.5616    2.7863   17.0489 H   0  0  0  0  0  0  0  0  0  0  0  0
   50.8713    9.4652   15.0947 H   0  0  0  0  0  0  0  0  0  0  0  0
   49.5351    7.2034   13.4483 H   0  0  0  0  0  0  0  0  0  0  0  0
   48.2989    6.8237   16.6235 H   0  0  0  0  0  0  0  0  0  0  0  0
   51.3665    8.3512   10.8077 H   0  0  0  0  0  0  0  0  0  0  0  0
  2  1  2  0
  3  1  1  0
  4  6  1  0
  5  1  1  0
  6  3  2  0
  7  2  1  0
  8  7  2  0
  9 13  1  0
 10  5  1  0
 11  5  1  0
 12 10  1  0
 13 11  1  0
 14  3  1  0
 15  6  1  0
 16  9  1  0
 17 21  1  0
 18  7  1  0
 19  8  1  0
 20 22  1  0
 21 23  1  0
 22 16  1  0
 23 20  1  0
 24 14  2  0
 25 15  2  0
 26 19  2  0
 27 18  2  0
  9 12  1  0
  8  4  1  0
 24 25  1  0
 27 26  1  0
 29 28  2  0
 30 28  1  0
 31 33  1  0
 32 28  1  0
 33 30  2  0
 34 29  1  0
 35 34  2  0
 36 40  1  0
 37 32  1  0
 38 32  1  0
 39 37  1  0
 40 38  1  0
 41 30  1  0
 42 33  1  0
 43 36  1  0
 44 48  1  0
 45 34  1  0
 46 35  1  0
 47 49  1  0
 48 50  1  0
 49 43  1  0
 50 47  1  0
 51 41  2  0
 52 42  2  0
 53 46  2  0
 54 45  2  0
 36 39  1  0
 35 31  1  0
 51 52  1  0
 54 53  1  0
 56 58  1  0
 57 55  1  0
 58 57  2  0
 59 55  2  0
 60 56  2  0
 61 55  1  0
 62 56  1  0
 10 63  1  0
 10 64  1  0
 11 65  1  0
 11 66  1  0
 12 67  1  0
 12 68  1  0
 13 69  1  0
 13 70  1  0
 14 71  1  0
 15 72  1  0
 16 73  1  0
 16 74  1  0
 17 75  1  0
 18 76  1  0
 19 77  1  0
 21 78  1  0
 21 79  1  0
 22 80  1  0
 22 81  1  0
 23 82  1  0
 23 83  1  0
 24 84  1  0
 25 85  1  0
 26 86  1  0
 27 87  1  0
 37 88  1  0
 37 89  1  0
 38 90  1  0
 38 91  1  0
 39 92  1  0
 39 93  1  0
 40 94  1  0
 40 95  1  0
 41 96  1  0
 42 97  1  0
 43 98  1  0
 43 99  1  0
 44100  1  0
 45101  1  0
 46102  1  0
 48103  1  0
 48104  1  0
 49105  1  0
 49106  1  0
 50107  1  0
 50108  1  0
 51109  1  0
 52110  1  0
 53111  1  0
 54112  1  0
 57113  1  0
 58114  1  0
 61115  1  0
 62116  1  0
M  END
> <Uni-Dock RESULT> 
ENERGY=   -6.970  LOWER_BOUND=    4.856  UPPER_BOUND=    6.201
INTER + INTRA:          -6.970
INTER:                  -6.970
INTRA:                   0.000
UNBOUND:                 0.000

$$$$

     RDKit          3D

116121  0  0  0  0  0  0  0  0999 V2000
   48.4077    8.5547   18.9227 C   0  0  0  0  0  0  0  0  0  0  0  0
   48.5145    7.3500   19.4108 N   0  0  0  0  0  0  0  0  0  0  0  0
   47.9891    9.7531   19.7159 C   0  0  0  0  0  0  0  0  0  0  0  0
   49.8457    9.1032   21.7074 S   0  0  0  0  0  0  0  0  0  0  0  0
   48.6547    8.7513   17.5554 N   0  0  0  0  0  0  0  0  0  0  0  0
   48.5856   10.0985   20.9326 C   0  0  0  0  0  0  0  0  0  0  0  0
   48.2759    6.9932   20.7480 C   0  0  0  0  0  0  0  0  0  0  0  0
   48.8597    7.6193   21.8644 C   0  0  0  0  0  0  0  0  0  0  0  0
   49.7015    8.8950   14.8031 N   0  0  0  0  0  0  0  0  0  0  0  0
   49.6962    9.7365   17.1833 C   0  0  0  0  0  0  0  0  0  0  0  0
   48.7402    7.5459   16.6979 C   0  0  0  0  0  0  0  0  0  0  0  0
   49.6308   10.0831   15.6805 C   0  0  0  0  0  0  0  0  0  0  0  0
   48.6515    7.9333   15.2094 C   0  0  0  0  0  0  0  0  0  0  0  0
   46.9861   10.5656   19.1648 C   0  0  0  0  0  0  0  0  0  0  0  0
   48.1627   11.2623   21.5870 C   0  0  0  0  0  0  0  0  0  0  0  0
   49.5720    9.2587   13.3807 C   0  0  0  0  0  0  0  0  0  0  0  0
   52.9376    6.9894   10.7264 O   0  0  0  0  0  0  0  0  0  0  0  0
   47.4888    5.8572   20.9602 C   0  0  0  0  0  0  0  0  0  0  0  0
   48.6373    7.1142   23.1546 C   0  0  0  0  0  0  0  0  0  0  0  0
   52.0425    9.6863   13.1124 O   0  0  0  0  0  0  0  0  0  0  0  0
   52.5774    8.3024   11.1470 C   0  0  0  0  0  0  0  0  0  0  0  0
   50.7156   10.1276   12.8056 C   0  0  0  0  0  0  0  0  0  0  0  0
   52.3920    8.3821   12.6588 C   0  0  0  0  0  0  0  0  0  0  0  0
   46.5703   11.7158   19.8287 C   0  0  0  0  0  0  0  0  0  0  0  0
   47.1592   12.0640   21.0411 C   0  0  0  0  0  0  0  0  0  0  0  0
   47.8401    5.9859   23.3459 C   0  0  0  0  0  0  0  0  0  0  0  0
   47.2655    5.3540   22.2451 C   0  0  0  0  0  0  0  0  0  0  0  0
   48.1172    8.8506   18.9267 C   0  0  0  0  0  0  0  0  0  0  0  0
   48.2855    7.6279   19.3578 N   0  0  0  0  0  0  0  0  0  0  0  0
   47.8963   10.0273   19.8381 C   0  0  0  0  0  0  0  0  0  0  0  0
   50.1670    9.2817   21.2927 S   0  0  0  0  0  0  0  0  0  0  0  0
   48.1202    9.0878   17.5393 N   0  0  0  0  0  0  0  0  0  0  0  0
   48.8092   10.3546   20.8489 C   0  0  0  0  0  0  0  0  0  0  0  0
   48.3207    7.2607   20.7136 C   0  0  0  0  0  0  0  0  0  0  0  0
   49.1682    7.8433   21.6760 C   0  0  0  0  0  0  0  0  0  0  0  0
   50.4167    9.0649   15.7960 N   0  0  0  0  0  0  0  0  0  0  0  0
   48.6672   10.3603   17.0121 C   0  0  0  0  0  0  0  0  0  0  0  0
   48.2824    7.9504   16.6146 C   0  0  0  0  0  0  0  0  0  0  0  0
   49.4698   10.1771   15.7006 C   0  0  0  0  0  0  0  0  0  0  0  0
   49.7603    7.7977   16.1816 C   0  0  0  0  0  0  0  0  0  0  0  0
   46.7840   10.8496   19.5984 C   0  0  0  0  0  0  0  0  0  0  0  0
   48.6164   11.5273   21.5896 C   0  0  0  0  0  0  0  0  0  0  0  0
   51.3402    8.9312   14.6676 C   0  0  0  0  0  0  0  0  0  0  0  0
   52.7827    6.5055   10.5815 O   0  0  0  0  0  0  0  0  0  0  0  0
   47.5274    6.1749   21.0928 C   0  0  0  0  0  0  0  0  0  0  0  0
   49.2026    7.3427   22.9854 C   0  0  0  0  0  0  0  0  0  0  0  0
   51.7717    8.4196   12.3554 O   0  0  0  0  0  0  0  0  0  0  0  0
   52.4442    7.8231   10.1463 C   0  0  0  0  0  0  0  0  0  0  0  0
   50.7225    8.7515   13.2695 C   0  0  0  0  0  0  0  0  0  0  0  0
   51.3006    8.3616   11.0040 C   0  0  0  0  0  0  0  0  0  0  0  0
   46.6002   12.0119   20.3503 C   0  0  0  0  0  0  0  0  0  0  0  0
   47.5171   12.3537   21.3382 C   0  0  0  0  0  0  0  0  0  0  0  0
   48.3839    6.2736   23.3495 C   0  0  0  0  0  0  0  0  0  0  0  0
   47.5475    5.6851   22.4013 C   0  0  0  0  0  0  0  0  0  0  0  0
   48.6175    9.4813   19.0021 C   0  0  0  0  0  0  0  0  0  0  0  0
   50.0742    8.5461   15.6261 C   0  0  0  0  0  0  0  0  0  0  0  0
   49.2819    9.5062   17.6958 C   0  0  0  0  0  0  0  0  0  0  0  0
   49.3781    8.4286   16.9066 C   0  0  0  0  0  0  0  0  0  0  0  0
   48.5033   10.4421   19.7403 O   0  0  0  0  0  0  0  0  0  0  0  0
   50.5772    9.5459   15.1534 O   0  0  0  0  0  0  0  0  0  0  0  0
   48.1254    8.2784   19.3349 O   0  0  0  0  0  0  0  0  0  0  0  0
   50.1036    7.3589   15.0001 O   0  0  0  0  0  0  0  0  0  0  0  0
   49.5820   10.6671   17.7520 H   0  0  0  0  0  0  0  0  0  0  0  0
   50.6879    9.3274   17.4233 H   0  0  0  0  0  0  0  0  0  0  0  0
   49.6818    7.0121   16.8902 H   0  0  0  0  0  0  0  0  0  0  0  0
   47.9123    6.8599   16.9201 H   0  0  0  0  0  0  0  0  0  0  0  0
   48.6990   10.6329   15.4795 H   0  0  0  0  0  0  0  0  0  0  0  0
   50.4687   10.7547   15.4599 H   0  0  0  0  0  0  0  0  0  0  0  0
   48.7480    7.0181   14.6157 H   0  0  0  0  0  0  0  0  0  0  0  0
   47.6602    8.3591   15.0184 H   0  0  0  0  0  0  0  0  0  0  0  0
   46.5256   10.2941   18.2138 H   0  0  0  0  0  0  0  0  0  0  0  0
   48.6095   11.5573   22.5352 H   0  0  0  0  0  0  0  0  0  0  0  0
   49.5393    8.3383   12.7937 H   0  0  0  0  0  0  0  0  0  0  0  0
   48.6208    9.7745   13.2026 H   0  0  0  0  0  0  0  0  0  0  0  0
   52.2352    6.3789   11.0099 H   0  0  0  0  0  0  0  0  0  0  0  0
   47.0578    5.3479   20.1042 H   0  0  0  0  0  0  0  0  0  0  0  0
   49.0840    7.5951   24.0259 H   0  0  0  0  0  0  0  0  0  0  0  0
   51.6621    8.5891   10.6186 H   0  0  0  0  0  0  0  0  0  0  0  0
   53.3647    8.9934   10.8214 H   0  0  0  0  0  0  0  0  0  0  0  0
   50.6021   10.2261   11.7184 H   0  0  0  0  0  0  0  0  0  0  0  0
   50.6346   11.1433   13.2059 H   0  0  0  0  0  0  0  0  0  0  0  0
   53.3492    8.1151   13.1324 H   0  0  0  0  0  0  0  0  0  0  0  0
   51.6772    7.6310   13.0088 H   0  0  0  0  0  0  0  0  0  0  0  0
   45.7912   12.3389   19.3981 H   0  0  0  0  0  0  0  0  0  0  0  0
   46.8283   12.9532   21.5706 H   0  0  0  0  0  0  0  0  0  0  0  0
   47.6743    5.5918   24.3456 H   0  0  0  0  0  0  0  0  0  0  0  0
   46.6463    4.4725   22.3836 H   0  0  0  0  0  0  0  0  0  0  0  0
   47.8433   11.0597   16.8394 H   0  0  0  0  0  0  0  0  0  0  0  0
   49.3417   10.8215   17.7438 H   0  0  0  0  0  0  0  0  0  0  0  0
   47.9084    7.0087   17.0329 H   0  0  0  0  0  0  0  0  0  0  0  0
   47.6626    8.1449   15.7333 H   0  0  0  0  0  0  0  0  0  0  0  0
   48.7683   10.0292   14.8675 H   0  0  0  0  0  0  0  0  0  0  0  0
   50.0119   11.1117   15.5033 H   0  0  0  0  0  0  0  0  0  0  0  0
   49.7892    7.0543   15.3697 H   0  0  0  0  0  0  0  0  0  0  0  0
   50.3395    7.3744   17.0130 H   0  0  0  0  0  0  0  0  0  0  0  0
   46.0599   10.5727   18.8358 H   0  0  0  0  0  0  0  0  0  0  0  0
   49.3085   11.7934   22.3843 H   0  0  0  0  0  0  0  0  0  0  0  0
   51.9809    9.8260   14.6334 H   0  0  0  0  0  0  0  0  0  0  0  0
   52.0419    8.1087   14.8666 H   0  0  0  0  0  0  0  0  0  0  0  0
   52.7464    6.5423   11.5566 H   0  0  0  0  0  0  0  0  0  0  0  0
   46.8995    5.6953   20.3478 H   0  0  0  0  0  0  0  0  0  0  0  0
   49.8457    7.7995   23.7352 H   0  0  0  0  0  0  0  0  0  0  0  0
   53.3386    8.4459   10.2559 H   0  0  0  0  0  0  0  0  0  0  0  0
   52.1576    7.7815    9.0932 H   0  0  0  0  0  0  0  0  0  0  0  0
   50.2330    9.6782   12.9483 H   0  0  0  0  0  0  0  0  0  0  0  0
   49.9879    7.9384   13.2677 H   0  0  0  0  0  0  0  0  0  0  0  0
   51.0109    9.3673   10.6760 H   0  0  0  0  0  0  0  0  0  0  0  0
   50.4404    7.6815   10.9497 H   0  0  0  0  0  0  0  0  0  0  0  0
   45.7390   12.6470   20.1654 H   0  0  0  0  0  0  0  0  0  0  0  0
   47.3806   13.2570   21.9265 H   0  0  0  0  0  0  0  0  0  0  0  0
   48.4068    5.8935   24.3681 H   0  0  0  0  0  0  0  0  0  0  0  0
   46.9248    4.8420   22.6736 H   0  0  0  0  0  0  0  0  0  0  0  0
   49.7023   10.4654   17.4140 H   0  0  0  0  0  0  0  0  0  0  0  0
   48.9756    7.4611   17.1735 H   0  0  0  0  0  0  0  0  0  0  0  0
   47.7280    8.4233   20.2184 H   0  0  0  0  0  0  0  0  0  0  0  0
   50.6087    7.5375   14.1783 H   0  0  0  0  0  0  0  0  0  0  0  0
  2  1  2  0
  3  1  1  0
  4  6  1  0
  5  1  1  0
  6  3  2  0
  7  2  1  0
  8  7  2  0
  9 13  1  0
 10  5  1  0
 11  5  1  0
 12 10  1  0
 13 11  1  0
 14  3  1  0
 15  6  1  0
 16  9  1  0
 17 21  1  0
 18  7  1  0
 19  8  1  0
 20 22  1  0
 21 23  1  0
 22 16  1  0
 23 20  1  0
 24 14  2  0
 25 15  2  0
 26 19  2  0
 27 18  2  0
  9 12  1  0
  8  4  1  0
 24 25  1  0
 27 26  1  0
 29 28  2  0
 30 28  1  0
 31 33  1  0
 32 28  1  0
 33 30  2  0
 34 29  1  0
 35 34  2  0
 36 40  1  0
 37 32  1  0
 38 32  1  0
 39 37  1  0
 40 38  1  0
 41 30  1  0
 42 33  1  0
 43 36  1  0
 44 48  1  0
 45 34  1  0
 46 35  1  0
 47 49  1  0
 48 50  1  0
 49 43  1  0
 50 47  1  0
 51 41  2  0
 52 42  2  0
 53 46  2  0
 54 45  2  0
 36 39  1  0
 35 31  1  0
 51 52  1  0
 54 53  1  0
 56 58  1  0
 57 55  1  0
 58 57  2  0
 59 55  2  0
 60 56  2  0
 61 55  1  0
 62 56  1  0
 10 63  1  0
 10 64  1  0
 11 65  1  0
 11 66  1  0
 12 67  1  0
 12 68  1  0
 13 69  1  0
 13 70  1  0
 14 71  1  0
 15 72  1  0
 16 73  1  0
 16 74  1  0
 17 75  1  0
 18 76  1  0
 19 77  1  0
 21 78  1  0
 21 79  1  0
 22 80  1  0
 22 81  1  0
 23 82  1  0
 23 83  1  0
 24 84  1  0
 25 85  1  0
 26 86  1  0
 27 87  1  0
 37 88  1  0
 37 89  1  0
 38 90  1  0
 38 91  1  0
 39 92  1  0
 39 93  1  0
 40 94  1  0
 40 95  1  0
 41 96  1  0
 42 97  1  0
 43 98  1  0
 43 99  1  0
 44100  1  0
 45101  1  0
 46102  1  0
 48103  1  0
 48104  1  0
 49105  1  0
 49106  1  0
 50107  1  0
 50108  1  0
 51109  1  0
 52110  1  0
 53111  1  0
 54112  1  0
 57113  1  0
 58114  1  0
 61115  1  0
 62116  1  0
M  END
> <Uni-Dock RESULT> 
ENERGY=   -6.902  LOWER_BOUND=    3.729  UPPER_BOUND=    6.023
INTER + INTRA:          -6.902
INTER:                  -6.902
INTRA:                   0.000
UNBOUND:                 0.000

$$$$

     RDKit          3D

116121  0  0  0  0  0  0  0  0999 V2000
   43.7520   11.7236    9.8777 C   0  0  0  0  0  0  0  0  0  0  0  0
   42.8529   11.4941   10.7942 N   0  0  0  0  0  0  0  0  0  0  0  0
   43.4563   11.8382    8.4148 C   0  0  0  0  0  0  0  0  0  0  0  0
   41.3799   13.6347    8.9589 S   0  0  0  0  0  0  0  0  0  0  0  0
   45.0966   11.8288   10.2652 N   0  0  0  0  0  0  0  0  0  0  0  0
   42.4589   12.6784    7.9102 C   0  0  0  0  0  0  0  0  0  0  0  0
   41.4769   11.3398   10.5590 C   0  0  0  0  0  0  0  0  0  0  0  0
   40.6766   12.2466    9.8406 C   0  0  0  0  0  0  0  0  0  0  0  0
   47.7138   12.4707   11.4608 N   0  0  0  0  0  0  0  0  0  0  0  0
   45.8151   13.0744    9.9103 C   0  0  0  0  0  0  0  0  0  0  0  0
   45.4468   11.3920   11.6371 C   0  0  0  0  0  0  0  0  0  0  0  0
   47.3388   12.9184   10.1024 C   0  0  0  0  0  0  0  0  0  0  0  0
   46.9721   11.2297   11.7805 C   0  0  0  0  0  0  0  0  0  0  0  0
   44.2618   11.0928    7.5399 C   0  0  0  0  0  0  0  0  0  0  0  0
   42.2794   12.7582    6.5235 C   0  0  0  0  0  0  0  0  0  0  0  0
   49.1687   12.2717   11.5875 C   0  0  0  0  0  0  0  0  0  0  0  0
   50.8180   14.2970   15.6742 O   0  0  0  0  0  0  0  0  0  0  0  0
   40.8528   10.2597   11.1909 C   0  0  0  0  0  0  0  0  0  0  0  0
   39.2894   12.0520    9.7562 C   0  0  0  0  0  0  0  0  0  0  0  0
   49.5949   14.6823   12.1923 O   0  0  0  0  0  0  0  0  0  0  0  0
   50.9113   14.4520   14.2607 C   0  0  0  0  0  0  0  0  0  0  0  0
   50.0335   13.5461   11.4399 C   0  0  0  0  0  0  0  0  0  0  0  0
   49.5354   14.5156   13.6056 C   0  0  0  0  0  0  0  0  0  0  0  0
   44.0685   11.1762    6.1642 C   0  0  0  0  0  0  0  0  0  0  0  0
   43.0760   12.0095    5.6559 C   0  0  0  0  0  0  0  0  0  0  0  0
   38.6875   10.9622   10.3850 C   0  0  0  0  0  0  0  0  0  0  0  0
   39.4713   10.0641   11.1063 C   0  0  0  0  0  0  0  0  0  0  0  0
   43.8558   11.5505    9.5155 C   0  0  0  0  0  0  0  0  0  0  0  0
   43.0034   11.3645   10.4891 N   0  0  0  0  0  0  0  0  0  0  0  0
   43.4439   11.8590    8.1016 C   0  0  0  0  0  0  0  0  0  0  0  0
   41.8336   13.9359    9.0614 S   0  0  0  0  0  0  0  0  0  0  0  0
   45.2322   11.4384    9.7873 N   0  0  0  0  0  0  0  0  0  0  0  0
   42.6333   12.9600    7.7966 C   0  0  0  0  0  0  0  0  0  0  0  0
   41.6084   11.4650   10.3546 C   0  0  0  0  0  0  0  0  0  0  0  0
   40.9369   12.5823    9.8212 C   0  0  0  0  0  0  0  0  0  0  0  0
   46.8601   13.3327   11.2279 N   0  0  0  0  0  0  0  0  0  0  0  0
   46.1976   12.2954    9.0594 C   0  0  0  0  0  0  0  0  0  0  0  0
   45.6706   11.0862   11.1507 C   0  0  0  0  0  0  0  0  0  0  0  0
   47.3538   12.8019    9.9563 C   0  0  0  0  0  0  0  0  0  0  0  0
   46.0272   12.3556   11.9609 C   0  0  0  0  0  0  0  0  0  0  0  0
   43.9629   11.0580    7.0720 C   0  0  0  0  0  0  0  0  0  0  0  0
   42.3787   13.2696    6.4548 C   0  0  0  0  0  0  0  0  0  0  0  0
   47.8654   13.9939   12.0622 C   0  0  0  0  0  0  0  0  0  0  0  0
   50.7719   13.9726   16.0888 O   0  0  0  0  0  0  0  0  0  0  0  0
   40.8478   10.4190   10.8832 C   0  0  0  0  0  0  0  0  0  0  0  0
   39.5355   12.6316    9.8182 C   0  0  0  0  0  0  0  0  0  0  0  0
   49.8264   13.9065   13.4554 O   0  0  0  0  0  0  0  0  0  0  0  0
   51.6620   14.0304   14.9731 C   0  0  0  0  0  0  0  0  0  0  0  0
   49.0926   13.1633   12.4778 C   0  0  0  0  0  0  0  0  0  0  0  0
   51.0564   13.2594   13.8016 C   0  0  0  0  0  0  0  0  0  0  0  0
   43.6940   11.3743    5.7386 C   0  0  0  0  0  0  0  0  0  0  0  0
   42.9101   12.4806    5.4304 C   0  0  0  0  0  0  0  0  0  0  0  0
   38.7949   11.5653   10.3285 C   0  0  0  0  0  0  0  0  0  0  0  0
   39.4511   10.4584   10.8660 C   0  0  0  0  0  0  0  0  0  0  0  0
   44.0233   12.2360    9.1208 C   0  0  0  0  0  0  0  0  0  0  0  0
   46.8229   12.8182   11.6142 C   0  0  0  0  0  0  0  0  0  0  0  0
   45.2507   12.6829    9.7859 C   0  0  0  0  0  0  0  0  0  0  0  0
   45.5849   12.3077   11.0272 C   0  0  0  0  0  0  0  0  0  0  0  0
   43.6929   12.5489    7.9921 O   0  0  0  0  0  0  0  0  0  0  0  0
   47.6364   13.5517   11.0885 O   0  0  0  0  0  0  0  0  0  0  0  0
   43.2646   11.4263    9.8749 O   0  0  0  0  0  0  0  0  0  0  0  0
   46.9645   12.3671   12.8707 O   0  0  0  0  0  0  0  0  0  0  0  0
   45.6310   13.3537    8.8660 H   0  0  0  0  0  0  0  0  0  0  0  0
   45.4480   13.8990   10.5378 H   0  0  0  0  0  0  0  0  0  0  0  0
   45.0774   12.1220   12.3714 H   0  0  0  0  0  0  0  0  0  0  0  0
   44.9799   10.4236   11.8602 H   0  0  0  0  0  0  0  0  0  0  0  0
   47.7223   12.2016    9.3608 H   0  0  0  0  0  0  0  0  0  0  0  0
   47.7990   13.8916    9.8948 H   0  0  0  0  0  0  0  0  0  0  0  0
   47.1850   10.9355   12.8137 H   0  0  0  0  0  0  0  0  0  0  0  0
   47.2999   10.4178   11.1218 H   0  0  0  0  0  0  0  0  0  0  0  0
   45.0410   10.4409    7.9376 H   0  0  0  0  0  0  0  0  0  0  0  0
   41.5115   13.4047    6.1013 H   0  0  0  0  0  0  0  0  0  0  0  0
   49.3725   11.8560   12.5767 H   0  0  0  0  0  0  0  0  0  0  0  0
   49.5182   11.5288   10.8605 H   0  0  0  0  0  0  0  0  0  0  0  0
   50.3230   13.4792   15.8556 H   0  0  0  0  0  0  0  0  0  0  0  0
   41.4558    9.5703   11.7730 H   0  0  0  0  0  0  0  0  0  0  0  0
   38.6619   12.7489    9.1990 H   0  0  0  0  0  0  0  0  0  0  0  0
   51.5014   13.6183   13.8659 H   0  0  0  0  0  0  0  0  0  0  0  0
   51.4758   15.3697   14.0544 H   0  0  0  0  0  0  0  0  0  0  0  0
   51.0788   13.3213   11.6874 H   0  0  0  0  0  0  0  0  0  0  0  0
   50.0376   13.8609   10.3914 H   0  0  0  0  0  0  0  0  0  0  0  0
   49.0038   15.3872   14.0172 H   0  0  0  0  0  0  0  0  0  0  0  0
   48.9265   13.6491   13.8818 H   0  0  0  0  0  0  0  0  0  0  0  0
   44.6935   10.5941    5.4925 H   0  0  0  0  0  0  0  0  0  0  0  0
   42.9113   12.0674    4.5835 H   0  0  0  0  0  0  0  0  0  0  0  0
   37.6118   10.8165   10.3243 H   0  0  0  0  0  0  0  0  0  0  0  0
   39.0113    9.2146   11.6026 H   0  0  0  0  0  0  0  0  0  0  0  0
   46.6111   11.7325    8.2166 H   0  0  0  0  0  0  0  0  0  0  0  0
   45.6942   13.1791    8.6488 H   0  0  0  0  0  0  0  0  0  0  0  0
   44.9303   10.4847   11.6909 H   0  0  0  0  0  0  0  0  0  0  0  0
   46.5566   10.4489   11.0630 H   0  0  0  0  0  0  0  0  0  0  0  0
   48.0674   11.9821   10.1200 H   0  0  0  0  0  0  0  0  0  0  0  0
   47.8876   13.5888    9.4065 H   0  0  0  0  0  0  0  0  0  0  0  0
   46.5059   12.0246   12.8957 H   0  0  0  0  0  0  0  0  0  0  0  0
   45.1026   12.8726   12.2500 H   0  0  0  0  0  0  0  0  0  0  0  0
   44.5631   10.1845    7.3154 H   0  0  0  0  0  0  0  0  0  0  0  0
   41.7444   14.1142    6.1983 H   0  0  0  0  0  0  0  0  0  0  0  0
   48.2337   14.8825   11.5262 H   0  0  0  0  0  0  0  0  0  0  0  0
   47.3810   14.4057   12.9591 H   0  0  0  0  0  0  0  0  0  0  0  0
   49.8797   14.0865   15.7086 H   0  0  0  0  0  0  0  0  0  0  0  0
   41.3571    9.5708   11.3311 H   0  0  0  0  0  0  0  0  0  0  0  0
   39.0134   13.4871    9.3940 H   0  0  0  0  0  0  0  0  0  0  0  0
   51.7978   15.0861   14.7147 H   0  0  0  0  0  0  0  0  0  0  0  0
   52.6225   13.6024   15.2686 H   0  0  0  0  0  0  0  0  0  0  0  0
   49.7308   12.9671   11.6083 H   0  0  0  0  0  0  0  0  0  0  0  0
   48.7873   12.2091   12.9215 H   0  0  0  0  0  0  0  0  0  0  0  0
   51.7317   13.2748   12.9376 H   0  0  0  0  0  0  0  0  0  0  0  0
   50.8483   12.2244   14.1031 H   0  0  0  0  0  0  0  0  0  0  0  0
   44.0947   10.7538    4.9426 H   0  0  0  0  0  0  0  0  0  0  0  0
   42.6976   12.7328    4.3950 H   0  0  0  0  0  0  0  0  0  0  0  0
   37.7082   11.6031   10.3166 H   0  0  0  0  0  0  0  0  0  0  0  0
   38.8810    9.6369   11.2818 H   0  0  0  0  0  0  0  0  0  0  0  0
   45.8711   13.3524    9.2003 H   0  0  0  0  0  0  0  0  0  0  0  0
   44.9754   11.6500   11.6315 H   0  0  0  0  0  0  0  0  0  0  0  0
   42.4948   11.2259    9.3033 H   0  0  0  0  0  0  0  0  0  0  0  0
   47.7977   12.7833   13.1788 H   0  0  0  0  0  0  0  0  0  0  0  0
  2  1  2  0
  3  1  1  0
  4  6  1  0
  5  1  1  0
  6  3  2  0
  7  2  1  0
  8  7  2  0
  9 13  1  0
 10  5  1  0
 11  5  1  0
 12 10  1  0
 13 11  1  0
 14  3  1  0
 15  6  1  0
 16  9  1  0
 17 21  1  0
 18  7  1  0
 19  8  1  0
 20 22  1  0
 21 23  1  0
 22 16  1  0
 23 20  1  0
 24 14  2  0
 25 15  2  0
 26 19  2  0
 27 18  2  0
  9 12  1  0
  8  4  1  0
 24 25  1  0
 27 26  1  0
 29 28  2  0
 30 28  1  0
 31 33  1  0
 32 28  1  0
 33 30  2  0
 34 29  1  0
 35 34  2  0
 36 40  1  0
 37 32  1  0
 38 32  1  0
 39 37  1  0
 40 38  1  0
 41 30  1  0
 42 33  1  0
 43 36  1  0
 44 48  1  0
 45 34  1  0
 46 35  1  0
 47 49  1  0
 48 50  1  0
 49 43  1  0
 50 47  1  0
 51 41  2  0
 52 42  2  0
 53 46  2  0
 54 45  2  0
 36 39  1  0
 35 31  1  0
 51 52  1  0
 54 53  1  0
 56 58  1  0
 57 55  1  0
 58 57  2  0
 59 55  2  0
 60 56  2  0
 61 55  1  0
 62 56  1  0
 10 63  1  0
 10 64  1  0
 11 65  1  0
 11 66  1  0
 12 67  1  0
 12 68  1  0
 13 69  1  0
 13 70  1  0
 14 71  1  0
 15 72  1  0
 16 73  1  0
 16 74  1  0
 17 75  1  0
 18 76  1  0
 19 77  1  0
 21 78  1  0
 21 79  1  0
 22 80  1  0
 22 81  1  0
 23 82  1  0
 23 83  1  0
 24 84  1  0
 25 85  1  0
 26 86  1  0
 27 87  1  0
 37 88  1  0
 37 89  1  0
 38 90  1  0
 38 91  1  0
 39 92  1  0
 39 93  1  0
 40 94  1  0
 40 95  1  0
 41 96  1  0
 42 97  1  0
 43 98  1  0
 43 99  1  0
 44100  1  0
 45101  1  0
 46102  1  0
 48103  1  0
 48104  1  0
 49105  1  0
 49106  1  0
 50107  1  0
 50108  1  0
 51109  1  0
 52110  1  0
 53111  1  0
 54112  1  0
 57113  1  0
 58114  1  0
 61115  1  0
 62116  1  0
M  END
> <Uni-Dock RESULT> 
ENERGY=   -6.735  LOWER_BOUND=    9.340  UPPER_BOUND=   13.369
INTER + INTRA:          -6.735
INTER:                  -6.735
INTRA:                   0.000
UNBOUND:                 0.000

$$$$

     RDKit          3D

116121  0  0  0  0  0  0  0  0999 V2000
   49.2279    7.3424   17.7778 C   0  0  0  0  0  0  0  0  0  0  0  0
   48.5657    7.9013   18.7525 N   0  0  0  0  0  0  0  0  0  0  0  0
   49.8651    5.9902   17.8562 C   0  0  0  0  0  0  0  0  0  0  0  0
   47.4871    4.9105   18.8635 S   0  0  0  0  0  0  0  0  0  0  0  0
   49.4026    8.0598   16.5845 N   0  0  0  0  0  0  0  0  0  0  0  0
   49.1725    4.8536   18.2852 C   0  0  0  0  0  0  0  0  0  0  0  0
   48.3305    7.3212   20.0098 C   0  0  0  0  0  0  0  0  0  0  0  0
   47.7783    6.0439   20.2161 C   0  0  0  0  0  0  0  0  0  0  0  0
   49.1670    9.6155   14.0913 N   0  0  0  0  0  0  0  0  0  0  0  0
   48.9255    7.4300   15.3317 C   0  0  0  0  0  0  0  0  0  0  0  0
   49.0766    9.5051   16.6041 C   0  0  0  0  0  0  0  0  0  0  0  0
   49.4685    8.1680   14.0894 C   0  0  0  0  0  0  0  0  0  0  0  0
   49.6525   10.2067   15.3591 C   0  0  0  0  0  0  0  0  0  0  0  0
   51.1988    5.8867   17.4315 C   0  0  0  0  0  0  0  0  0  0  0  0
   49.8334    3.6187   18.2850 C   0  0  0  0  0  0  0  0  0  0  0  0
   49.7549   10.2969   12.9241 C   0  0  0  0  0  0  0  0  0  0  0  0
   46.5130   13.2601   10.8669 O   0  0  0  0  0  0  0  0  0  0  0  0
   48.5608    8.1330   21.1247 C   0  0  0  0  0  0  0  0  0  0  0  0
   47.4842    5.6026   21.5153 C   0  0  0  0  0  0  0  0  0  0  0  0
   47.7631    9.8163   11.4543 O   0  0  0  0  0  0  0  0  0  0  0  0
   47.2286   12.0594   10.5900 C   0  0  0  0  0  0  0  0  0  0  0  0
   49.1906    9.8725   11.5475 C   0  0  0  0  0  0  0  0  0  0  0  0
   47.0681   11.0336   11.7073 C   0  0  0  0  0  0  0  0  0  0  0  0
   51.8459    4.6547   17.4428 C   0  0  0  0  0  0  0  0  0  0  0  0
   51.1624    3.5199   17.8704 C   0  0  0  0  0  0  0  0  0  0  0  0
   47.7312    6.4237   22.6153 C   0  0  0  0  0  0  0  0  0  0  0  0
   48.2694    7.6938   22.4195 C   0  0  0  0  0  0  0  0  0  0  0  0
   49.5982    7.1601   17.7383 C   0  0  0  0  0  0  0  0  0  0  0  0
   48.8877    7.7613   18.6564 N   0  0  0  0  0  0  0  0  0  0  0  0
   50.0222    5.7193   17.8303 C   0  0  0  0  0  0  0  0  0  0  0  0
   47.3636    5.0061   18.3319 S   0  0  0  0  0  0  0  0  0  0  0  0
   50.0117    7.8941   16.6108 N   0  0  0  0  0  0  0  0  0  0  0  0
   49.0877    4.6877   17.9886 C   0  0  0  0  0  0  0  0  0  0  0  0
   48.3987    7.1392   19.8175 C   0  0  0  0  0  0  0  0  0  0  0  0
   47.6300    5.9589   19.8267 C   0  0  0  0  0  0  0  0  0  0  0  0
   48.3551    8.7396   14.4075 N   0  0  0  0  0  0  0  0  0  0  0  0
   50.1223    7.2208   15.2952 C   0  0  0  0  0  0  0  0  0  0  0  0
   49.6583    9.3226   16.5122 C   0  0  0  0  0  0  0  0  0  0  0  0
   49.6433    8.1071   14.1193 C   0  0  0  0  0  0  0  0  0  0  0  0
   48.3781    9.5170   15.6648 C   0  0  0  0  0  0  0  0  0  0  0  0
   51.3841    5.4193   17.6695 C   0  0  0  0  0  0  0  0  0  0  0  0
   49.5253    3.3580   17.9486 C   0  0  0  0  0  0  0  0  0  0  0  0
   47.7432    9.4525   13.2844 C   0  0  0  0  0  0  0  0  0  0  0  0
   46.5048   13.7355   11.0974 O   0  0  0  0  0  0  0  0  0  0  0  0
   48.6139    7.8049   21.0268 C   0  0  0  0  0  0  0  0  0  0  0  0
   47.1027    5.4664   21.0291 C   0  0  0  0  0  0  0  0  0  0  0  0
   47.7100   11.2901   11.7300 O   0  0  0  0  0  0  0  0  0  0  0  0
   47.4046   13.0900   10.1953 C   0  0  0  0  0  0  0  0  0  0  0  0
   48.5595   10.5882   12.6422 C   0  0  0  0  0  0  0  0  0  0  0  0
   48.4294   12.2846   10.9919 C   0  0  0  0  0  0  0  0  0  0  0  0
   51.8069    4.0887   17.6394 C   0  0  0  0  0  0  0  0  0  0  0  0
   50.8799    3.0609   17.7717 C   0  0  0  0  0  0  0  0  0  0  0  0
   47.3505    6.1332   22.2290 C   0  0  0  0  0  0  0  0  0  0  0  0
   48.1037    7.3069   22.2286 C   0  0  0  0  0  0  0  0  0  0  0  0
   49.3682    6.5739   17.2312 C   0  0  0  0  0  0  0  0  0  0  0  0
   48.5080    9.2831   14.7184 C   0  0  0  0  0  0  0  0  0  0  0  0
   49.0899    7.3214   16.0015 C   0  0  0  0  0  0  0  0  0  0  0  0
   48.7861    8.6256   15.9944 C   0  0  0  0  0  0  0  0  0  0  0  0
   49.6563    5.3923   17.2742 O   0  0  0  0  0  0  0  0  0  0  0  0
   48.5430    8.7824   13.6119 O   0  0  0  0  0  0  0  0  0  0  0  0
   49.2803    7.3156   18.3456 O   0  0  0  0  0  0  0  0  0  0  0  0
   48.1846   10.5707   14.9174 O   0  0  0  0  0  0  0  0  0  0  0  0
   49.2423    6.3820   15.2700 H   0  0  0  0  0  0  0  0  0  0  0  0
   47.8264    7.4397   15.3138 H   0  0  0  0  0  0  0  0  0  0  0  0
   47.9870    9.6457   16.6425 H   0  0  0  0  0  0  0  0  0  0  0  0
   49.5096    9.9821   17.4932 H   0  0  0  0  0  0  0  0  0  0  0  0
   50.5574    8.0199   14.0317 H   0  0  0  0  0  0  0  0  0  0  0  0
   49.0208    7.6993   13.2051 H   0  0  0  0  0  0  0  0  0  0  0  0
   49.3631   11.2620   15.4018 H   0  0  0  0  0  0  0  0  0  0  0  0
   50.7458   10.1522   15.4027 H   0  0  0  0  0  0  0  0  0  0  0  0
   51.7344    6.7755   17.0946 H   0  0  0  0  0  0  0  0  0  0  0  0
   49.3196    2.7162   18.6126 H   0  0  0  0  0  0  0  0  0  0  0  0
   49.5779   11.3694   13.0289 H   0  0  0  0  0  0  0  0  0  0  0  0
   50.8430   10.1616   12.9099 H   0  0  0  0  0  0  0  0  0  0  0  0
   46.8473   13.6236   11.7052 H   0  0  0  0  0  0  0  0  0  0  0  0
   48.9583    9.1317   20.9757 H   0  0  0  0  0  0  0  0  0  0  0  0
   47.0582    4.6126   21.6844 H   0  0  0  0  0  0  0  0  0  0  0  0
   48.2814   12.3191   10.4371 H   0  0  0  0  0  0  0  0  0  0  0  0
   46.8584   11.6523    9.6411 H   0  0  0  0  0  0  0  0  0  0  0  0
   49.5857   10.5284   10.7612 H   0  0  0  0  0  0  0  0  0  0  0  0
   49.5494    8.8673   11.3038 H   0  0  0  0  0  0  0  0  0  0  0  0
   45.9981   10.7895   11.7924 H   0  0  0  0  0  0  0  0  0  0  0  0
   47.3452   11.4594   12.6766 H   0  0  0  0  0  0  0  0  0  0  0  0
   52.8795    4.5821   17.1156 H   0  0  0  0  0  0  0  0  0  0  0  0
   51.6672    2.5581   17.8947 H   0  0  0  0  0  0  0  0  0  0  0  0
   47.4964    6.0829   23.6207 H   0  0  0  0  0  0  0  0  0  0  0  0
   48.4617    8.3420   23.2694 H   0  0  0  0  0  0  0  0  0  0  0  0
   51.1638    6.9283   15.1293 H   0  0  0  0  0  0  0  0  0  0  0  0
   49.5176    6.3058   15.2793 H   0  0  0  0  0  0  0  0  0  0  0  0
   49.5422    9.7982   17.4930 H   0  0  0  0  0  0  0  0  0  0  0  0
   50.4948    9.8417   16.0332 H   0  0  0  0  0  0  0  0  0  0  0  0
   50.4135    8.8599   13.8997 H   0  0  0  0  0  0  0  0  0  0  0  0
   49.5539    7.4687   13.2300 H   0  0  0  0  0  0  0  0  0  0  0  0
   48.2651   10.5974   15.4840 H   0  0  0  0  0  0  0  0  0  0  0  0
   47.5040    9.2060   16.2522 H   0  0  0  0  0  0  0  0  0  0  0  0
   52.1095    6.2246   17.5815 H   0  0  0  0  0  0  0  0  0  0  0  0
   48.8169    2.5441   18.0790 H   0  0  0  0  0  0  0  0  0  0  0  0
   47.5119    8.7230   12.4927 H   0  0  0  0  0  0  0  0  0  0  0  0
   46.7589    9.8358   13.5891 H   0  0  0  0  0  0  0  0  0  0  0  0
   46.3212   13.0733   11.7911 H   0  0  0  0  0  0  0  0  0  0  0  0
   49.1729    8.7359   21.0239 H   0  0  0  0  0  0  0  0  0  0  0  0
   46.5204    4.5471   21.0418 H   0  0  0  0  0  0  0  0  0  0  0  0
   46.8100   12.4331    9.5511 H   0  0  0  0  0  0  0  0  0  0  0  0
   47.8944   13.8513    9.5843 H   0  0  0  0  0  0  0  0  0  0  0  0
   49.4214   10.1785   12.1027 H   0  0  0  0  0  0  0  0  0  0  0  0
   48.9140   11.2935   13.4022 H   0  0  0  0  0  0  0  0  0  0  0  0
   49.1433   11.7935   10.3196 H   0  0  0  0  0  0  0  0  0  0  0  0
   48.9587   12.9431   11.6932 H   0  0  0  0  0  0  0  0  0  0  0  0
   52.8607    3.8571   17.5162 H   0  0  0  0  0  0  0  0  0  0  0  0
   51.2019    2.0233   17.7484 H   0  0  0  0  0  0  0  0  0  0  0  0
   46.9474    5.7437   23.1608 H   0  0  0  0  0  0  0  0  0  0  0  0
   48.2819    7.8393   23.1546 H   0  0  0  0  0  0  0  0  0  0  0  0
   49.1387    6.7369   15.0892 H   0  0  0  0  0  0  0  0  0  0  0  0
   48.7216    9.2236   16.8931 H   0  0  0  0  0  0  0  0  0  0  0  0
   49.4825    6.6829   19.0656 H   0  0  0  0  0  0  0  0  0  0  0  0
   47.9923   10.9082   14.0165 H   0  0  0  0  0  0  0  0  0  0  0  0
  2  1  2  0
  3  1  1  0
  4  6  1  0
  5  1  1  0
  6  3  2  0
  7  2  1  0
  8  7  2  0
  9 13  1  0
 10  5  1  0
 11  5  1  0
 12 10  1  0
 13 11  1  0
 14  3  1  0
 15  6  1  0
 16  9  1  0
 17 21  1  0
 18  7  1  0
 19  8  1  0
 20 22  1  0
 21 23  1  0
 22 16  1  0
 23 20  1  0
 24 14  2  0
 25 15  2  0
 26 19  2  0
 27 18  2  0
  9 12  1  0
  8  4  1  0
 24 25  1  0
 27 26  1  0
 29 28  2  0
 30 28  1  0
 31 33  1  0
 32 28  1  0
 33 30  2  0
 34 29  1  0
 35 34  2  0
 36 40  1  0
 37 32  1  0
 38 32  1  0
 39 37  1  0
 40 38  1  0
 41 30  1  0
 42 33  1  0
 43 36  1  0
 44 48  1  0
 45 34  1  0
 46 35  1  0
 47 49  1  0
 48 50  1  0
 49 43  1  0
 50 47  1  0
 51 41  2  0
 52 42  2  0
 53 46  2  0
 54 45  2  0
 36 39  1  0
 35 31  1  0
 51 52  1  0
 54 53  1  0
 56 58  1  0
 57 55  1  0
 58 57  2  0
 59 55  2  0
 60 56  2  0
 61 55  1  0
 62 56  1  0
 10 63  1  0
 10 64  1  0
 11 65  1  0
 11 66  1  0
 12 67  1  0
 12 68  1  0
 13 69  1  0
 13 70  1  0
 14 71  1  0
 15 72  1  0
 16 73  1  0
 16 74  1  0
 17 75  1  0
 18 76  1  0
 19 77  1  0
 21 78  1  0
 21 79  1  0
 22 80  1  0
 22 81  1  0
 23 82  1  0
 23 83  1  0
 24 84  1  0
 25 85  1  0
 26 86  1  0
 27 87  1  0
 37 88  1  0
 37 89  1  0
 38 90  1  0
 38 91  1  0
 39 92  1  0
 39 93  1  0
 40 94  1  0
 40 95  1  0
 41 96  1  0
 42 97  1  0
 43 98  1  0
 43 99  1  0
 44100  1  0
 45101  1  0
 46102  1  0
 48103  1  0
 48104  1  0
 49105  1  0
 49106  1  0
 50107  1  0
 50108  1  0
 51109  1  0
 52110  1  0
 53111  1  0
 54112  1  0
 57113  1  0
 58114  1  0
 61115  1  0
 62116  1  0
M  END
> <Uni-Dock RESULT> 
ENERGY=   -6.720  LOWER_BOUND=    3.132  UPPER_BOUND=    5.126
INTER + INTRA:          -6.720
INTER:                  -6.720
INTRA:                   0.000
UNBOUND:                 0.000

$$$$
