
     RDKit          3D

116121  0  0  0  0  0  0  0  0999 V2000
   50.8072    9.2474   12.5052 C   0  0  0  0  0  0  0  0  0  0  0  0
   50.9813    9.8516   11.3569 N   0  0  0  0  0  0  0  0  0  0  0  0
   51.7054    9.4650   13.6879 C   0  0  0  0  0  0  0  0  0  0  0  0
   51.3048   12.2220   13.4464 S   0  0  0  0  0  0  0  0  0  0  0  0
   49.7529    8.3320   12.6314 N   0  0  0  0  0  0  0  0  0  0  0  0
   51.9219   10.7376   14.2274 C   0  0  0  0  0  0  0  0  0  0  0  0
   51.9760   10.8205   11.1116 C   0  0  0  0  0  0  0  0  0  0  0  0
   52.1668   11.9779   11.8903 C   0  0  0  0  0  0  0  0  0  0  0  0
   46.8321    7.6396   12.7421 N   0  0  0  0  0  0  0  0  0  0  0  0
   49.0621    8.1005   13.9163 C   0  0  0  0  0  0  0  0  0  0  0  0
   48.9399    8.0157   11.4341 C   0  0  0  0  0  0  0  0  0  0  0  0
   47.5453    8.3785   13.8036 C   0  0  0  0  0  0  0  0  0  0  0  0
   47.7739    7.0616   11.7609 C   0  0  0  0  0  0  0  0  0  0  0  0
   52.2893    8.3344   14.2774 C   0  0  0  0  0  0  0  0  0  0  0  0
   52.7051   10.8612   15.3823 C   0  0  0  0  0  0  0  0  0  0  0  0
   45.8886    6.6459   13.2822 C   0  0  0  0  0  0  0  0  0  0  0  0
   43.1086    3.5770   13.1338 O   0  0  0  0  0  0  0  0  0  0  0  0
   52.7331   10.6694    9.9483 C   0  0  0  0  0  0  0  0  0  0  0  0
   53.0925   12.9515   11.4925 C   0  0  0  0  0  0  0  0  0  0  0  0
   45.5417    4.8794   11.5783 O   0  0  0  0  0  0  0  0  0  0  0  0
   43.9946    3.0540   12.1448 C   0  0  0  0  0  0  0  0  0  0  0  0
   44.9653    6.0215   12.2155 C   0  0  0  0  0  0  0  0  0  0  0  0
   45.3929    3.6559   12.3055 C   0  0  0  0  0  0  0  0  0  0  0  0
   53.0899    8.4735   15.4066 C   0  0  0  0  0  0  0  0  0  0  0  0
   53.2890    9.7329   15.9663 C   0  0  0  0  0  0  0  0  0  0  0  0
   53.8421   12.7797   10.3323 C   0  0  0  0  0  0  0  0  0  0  0  0
   53.6669   11.6343    9.5598 C   0  0  0  0  0  0  0  0  0  0  0  0
   51.0146    9.1519   12.9951 C   0  0  0  0  0  0  0  0  0  0  0  0
   52.1204    9.0266   13.6825 N   0  0  0  0  0  0  0  0  0  0  0  0
   50.7658   10.2284   11.9748 C   0  0  0  0  0  0  0  0  0  0  0  0
   53.2300    9.6555   10.7751 S   0  0  0  0  0  0  0  0  0  0  0  0
   49.9592    8.2604   13.2447 N   0  0  0  0  0  0  0  0  0  0  0  0
   51.6539   10.4800   10.9197 C   0  0  0  0  0  0  0  0  0  0  0  0
   53.2371    9.8721   13.5628 C   0  0  0  0  0  0  0  0  0  0  0  0
   53.8826   10.1862   12.3529 C   0  0  0  0  0  0  0  0  0  0  0  0
   48.0047    6.0924   13.6922 N   0  0  0  0  0  0  0  0  0  0  0  0
   49.3503    7.5329   12.1050 C   0  0  0  0  0  0  0  0  0  0  0  0
   50.0374    7.4017   14.4452 C   0  0  0  0  0  0  0  0  0  0  0  0
   47.9697    6.9551   12.4875 C   0  0  0  0  0  0  0  0  0  0  0  0
   48.6404    6.8507   14.7964 C   0  0  0  0  0  0  0  0  0  0  0  0
   49.5669   10.9547   12.0666 C   0  0  0  0  0  0  0  0  0  0  0  0
   51.3236   11.4496    9.9641 C   0  0  0  0  0  0  0  0  0  0  0  0
   46.6471    5.6542   14.0928 C   0  0  0  0  0  0  0  0  0  0  0  0
   42.2768    5.1505   11.7903 O   0  0  0  0  0  0  0  0  0  0  0  0
   53.7825   10.3587   14.7561 C   0  0  0  0  0  0  0  0  0  0  0  0
   55.0400   10.9762   12.3562 C   0  0  0  0  0  0  0  0  0  0  0  0
   45.2294    5.4990   12.1231 O   0  0  0  0  0  0  0  0  0  0  0  0
   43.2463    4.1180   11.6389 C   0  0  0  0  0  0  0  0  0  0  0  0
   45.9574    4.7265   13.0798 C   0  0  0  0  0  0  0  0  0  0  0  0
   44.5709    4.6978   11.1351 C   0  0  0  0  0  0  0  0  0  0  0  0
   49.2545   11.9266   11.1187 C   0  0  0  0  0  0  0  0  0  0  0  0
   50.1312   12.1687   10.0621 C   0  0  0  0  0  0  0  0  0  0  0  0
   55.5617   11.4591   13.5532 C   0  0  0  0  0  0  0  0  0  0  0  0
   54.9339   11.1486   14.7560 C   0  0  0  0  0  0  0  0  0  0  0  0
   51.1150    8.5244   12.9576 C   0  0  0  0  0  0  0  0  0  0  0  0
   47.4337    7.6936   12.3040 C   0  0  0  0  0  0  0  0  0  0  0  0
   49.8854    7.8440   12.5488 C   0  0  0  0  0  0  0  0  0  0  0  0
   48.6640    8.3631   12.7348 C   0  0  0  0  0  0  0  0  0  0  0  0
   52.2394    8.1017   12.7466 O   0  0  0  0  0  0  0  0  0  0  0  0
   46.3161    8.1552   12.4380 O   0  0  0  0  0  0  0  0  0  0  0  0
   50.9071    9.6807   13.6014 O   0  0  0  0  0  0  0  0  0  0  0  0
   47.6423    6.5002   11.7247 O   0  0  0  0  0  0  0  0  0  0  0  0
   49.2335    7.0648   14.2313 H   0  0  0  0  0  0  0  0  0  0  0  0
   49.4555    8.7463   14.7074 H   0  0  0  0  0  0  0  0  0  0  0  0
   49.5738    7.5364   10.6809 H   0  0  0  0  0  0  0  0  0  0  0  0
   48.5399    8.9405   11.0010 H   0  0  0  0  0  0  0  0  0  0  0  0
   47.4138    9.4461   13.5734 H   0  0  0  0  0  0  0  0  0  0  0  0
   47.0833    8.2229   14.7870 H   0  0  0  0  0  0  0  0  0  0  0  0
   48.1866    6.1168   12.1399 H   0  0  0  0  0  0  0  0  0  0  0  0
   47.2386    6.8411   10.8291 H   0  0  0  0  0  0  0  0  0  0  0  0
   52.1223    7.3526   13.8391 H   0  0  0  0  0  0  0  0  0  0  0  0
   52.8939   11.8407   15.8138 H   0  0  0  0  0  0  0  0  0  0  0  0
   45.2330    7.1698   13.9871 H   0  0  0  0  0  0  0  0  0  0  0  0
   46.4259    5.8729   13.8442 H   0  0  0  0  0  0  0  0  0  0  0  0
   42.2067    3.3336   12.8636 H   0  0  0  0  0  0  0  0  0  0  0  0
   52.5726    9.7960    9.3234 H   0  0  0  0  0  0  0  0  0  0  0  0
   53.2376   13.8441   12.0969 H   0  0  0  0  0  0  0  0  0  0  0  0
   44.0328    1.9684   12.2948 H   0  0  0  0  0  0  0  0  0  0  0  0
   43.5767    3.2719   11.1552 H   0  0  0  0  0  0  0  0  0  0  0  0
   44.7669    6.7556   11.4289 H   0  0  0  0  0  0  0  0  0  0  0  0
   43.9960    5.7778   12.6520 H   0  0  0  0  0  0  0  0  0  0  0  0
   45.6634    3.7967   13.3581 H   0  0  0  0  0  0  0  0  0  0  0  0
   46.1136    2.9580   11.8630 H   0  0  0  0  0  0  0  0  0  0  0  0
   53.5512    7.5966   15.8555 H   0  0  0  0  0  0  0  0  0  0  0  0
   53.9038    9.8438   16.8583 H   0  0  0  0  0  0  0  0  0  0  0  0
   54.5507   13.5409   10.0262 H   0  0  0  0  0  0  0  0  0  0  0  0
   54.2417   11.4993    8.6520 H   0  0  0  0  0  0  0  0  0  0  0  0
   49.2126    8.1936   11.2419 H   0  0  0  0  0  0  0  0  0  0  0  0
   50.0272    6.7246   11.7940 H   0  0  0  0  0  0  0  0  0  0  0  0
   50.7469    6.5818   14.2721 H   0  0  0  0  0  0  0  0  0  0  0  0
   50.3951    7.9819   15.3042 H   0  0  0  0  0  0  0  0  0  0  0  0
   47.2723    7.7899   12.6333 H   0  0  0  0  0  0  0  0  0  0  0  0
   47.6125    6.3862   11.6235 H   0  0  0  0  0  0  0  0  0  0  0  0
   48.0019    7.6931   15.0843 H   0  0  0  0  0  0  0  0  0  0  0  0
   48.7454    6.2011   15.6735 H   0  0  0  0  0  0  0  0  0  0  0  0
   48.8713   10.7500   12.8780 H   0  0  0  0  0  0  0  0  0  0  0  0
   52.0030   11.6587    9.1414 H   0  0  0  0  0  0  0  0  0  0  0  0
   46.7397    5.0959   15.0332 H   0  0  0  0  0  0  0  0  0  0  0  0
   46.0100    6.5275   14.2890 H   0  0  0  0  0  0  0  0  0  0  0  0
   41.4616    4.7405   12.1279 H   0  0  0  0  0  0  0  0  0  0  0  0
   53.2974   10.1070   15.6949 H   0  0  0  0  0  0  0  0  0  0  0  0
   55.5355   11.2358   11.4233 H   0  0  0  0  0  0  0  0  0  0  0  0
   42.8543    3.3995   10.9122 H   0  0  0  0  0  0  0  0  0  0  0  0
   43.3632    3.6216   12.6063 H   0  0  0  0  0  0  0  0  0  0  0  0
   45.2623    4.0784   13.6203 H   0  0  0  0  0  0  0  0  0  0  0  0
   46.6872    4.0899   12.5717 H   0  0  0  0  0  0  0  0  0  0  0  0
   44.3770    5.3561   10.2842 H   0  0  0  0  0  0  0  0  0  0  0  0
   45.2455    3.9041   10.7944 H   0  0  0  0  0  0  0  0  0  0  0  0
   48.3308   12.4913   11.2066 H   0  0  0  0  0  0  0  0  0  0  0  0
   49.8874   12.9207    9.3142 H   0  0  0  0  0  0  0  0  0  0  0  0
   56.4610   12.0701   13.5483 H   0  0  0  0  0  0  0  0  0  0  0  0
   55.3387   11.5134   15.6956 H   0  0  0  0  0  0  0  0  0  0  0  0
   50.0447    6.8863   12.0645 H   0  0  0  0  0  0  0  0  0  0  0  0
   48.5073    9.3230   13.2158 H   0  0  0  0  0  0  0  0  0  0  0  0
   51.8132   10.0244   13.7717 H   0  0  0  0  0  0  0  0  0  0  0  0
   46.7418    6.1968   11.4780 H   0  0  0  0  0  0  0  0  0  0  0  0
  2  1  2  0
  3  1  1  0
  4  6  1  0
  5  1  1  0
  6  3  2  0
  7  2  1  0
  8  7  2  0
  9 13  1  0
 10  5  1  0
 11  5  1  0
 12 10  1  0
 13 11  1  0
 14  3  1  0
 15  6  1  0
 16  9  1  0
 17 21  1  0
 18  7  1  0
 19  8  1  0
 20 22  1  0
 21 23  1  0
 22 16  1  0
 23 20  1  0
 24 14  2  0
 25 15  2  0
 26 19  2  0
 27 18  2  0
  9 12  1  0
  8  4  1  0
 24 25  1  0
 27 26  1  0
 29 28  2  0
 30 28  1  0
 31 33  1  0
 32 28  1  0
 33 30  2  0
 34 29  1  0
 35 34  2  0
 36 40  1  0
 37 32  1  0
 38 32  1  0
 39 37  1  0
 40 38  1  0
 41 30  1  0
 42 33  1  0
 43 36  1  0
 44 48  1  0
 45 34  1  0
 46 35  1  0
 47 49  1  0
 48 50  1  0
 49 43  1  0
 50 47  1  0
 51 41  2  0
 52 42  2  0
 53 46  2  0
 54 45  2  0
 36 39  1  0
 35 31  1  0
 51 52  1  0
 54 53  1  0
 56 58  1  0
 57 55  1  0
 58 57  2  0
 59 55  2  0
 60 56  2  0
 61 55  1  0
 62 56  1  0
 10 63  1  0
 10 64  1  0
 11 65  1  0
 11 66  1  0
 12 67  1  0
 12 68  1  0
 13 69  1  0
 13 70  1  0
 14 71  1  0
 15 72  1  0
 16 73  1  0
 16 74  1  0
 17 75  1  0
 18 76  1  0
 19 77  1  0
 21 78  1  0
 21 79  1  0
 22 80  1  0
 22 81  1  0
 23 82  1  0
 23 83  1  0
 24 84  1  0
 25 85  1  0
 26 86  1  0
 27 87  1  0
 37 88  1  0
 37 89  1  0
 38 90  1  0
 38 91  1  0
 39 92  1  0
 39 93  1  0
 40 94  1  0
 40 95  1  0
 41 96  1  0
 42 97  1  0
 43 98  1  0
 43 99  1  0
 44100  1  0
 45101  1  0
 46102  1  0
 48103  1  0
 48104  1  0
 49105  1  0
 49106  1  0
 50107  1  0
 50108  1  0
 51109  1  0
 52110  1  0
 53111  1  0
 54112  1  0
 57113  1  0
 58114  1  0
 61115  1  0
 62116  1  0
M  END
> <Uni-Dock RESULT> 
ENERGY=   -5.686  LOWER_BOUND=    0.000  UPPER_BOUND=    0.000
INTER + INTRA:          -5.686
INTER:                  -5.686
INTRA:                   0.000
UNBOUND:                 0.000

$$$$

     RDKit          3D

116121  0  0  0  0  0  0  0  0999 V2000
   48.7197    8.3123   17.8187 C   0  0  0  0  0  0  0  0  0  0  0  0
   48.8567    7.0337   17.5729 N   0  0  0  0  0  0  0  0  0  0  0  0
   48.5263    8.8627   19.2017 C   0  0  0  0  0  0  0  0  0  0  0  0
   50.8095    7.4814   20.0378 S   0  0  0  0  0  0  0  0  0  0  0  0
   48.7232    9.2093   16.7414 N   0  0  0  0  0  0  0  0  0  0  0  0
   49.4427    8.6170   20.2299 C   0  0  0  0  0  0  0  0  0  0  0  0
   48.9098    6.0347   18.5666 C   0  0  0  0  0  0  0  0  0  0  0  0
   49.7990    6.0466   19.6583 C   0  0  0  0  0  0  0  0  0  0  0  0
   50.0757   10.6176   14.4587 N   0  0  0  0  0  0  0  0  0  0  0  0
   49.2187   10.5946   16.8731 C   0  0  0  0  0  0  0  0  0  0  0  0
   48.7857    8.6656   15.3648 C   0  0  0  0  0  0  0  0  0  0  0  0
   50.3697   10.8825   15.8817 C   0  0  0  0  0  0  0  0  0  0  0  0
   48.8670    9.7814   14.3041 C   0  0  0  0  0  0  0  0  0  0  0  0
   47.4120    9.6847   19.4242 C   0  0  0  0  0  0  0  0  0  0  0  0
   49.2466    9.2287   21.4748 C   0  0  0  0  0  0  0  0  0  0  0  0
   50.0245   11.8499   13.6538 C   0  0  0  0  0  0  0  0  0  0  0  0
   49.4545   14.1393   10.2476 O   0  0  0  0  0  0  0  0  0  0  0  0
   48.1066    4.9089   18.3755 C   0  0  0  0  0  0  0  0  0  0  0  0
   49.8720    4.9451   20.5212 C   0  0  0  0  0  0  0  0  0  0  0  0
   48.6100   11.4332   11.6615 O   0  0  0  0  0  0  0  0  0  0  0  0
   48.3213   13.2894   10.0747 C   0  0  0  0  0  0  0  0  0  0  0  0
   49.9489   11.5969   12.1338 C   0  0  0  0  0  0  0  0  0  0  0  0
   47.9156   12.6587   11.4093 C   0  0  0  0  0  0  0  0  0  0  0  0
   47.2120   10.2624   20.6738 C   0  0  0  0  0  0  0  0  0  0  0  0
   48.1331   10.0451   21.6953 C   0  0  0  0  0  0  0  0  0  0  0  0
   49.0585    3.8342   20.3171 C   0  0  0  0  0  0  0  0  0  0  0  0
   48.1696    3.8164   19.2452 C   0  0  0  0  0  0  0  0  0  0  0  0
   48.6045    8.6849   18.1930 C   0  0  0  0  0  0  0  0  0  0  0  0
   47.9325    8.9281   19.2886 N   0  0  0  0  0  0  0  0  0  0  0  0
   49.3880    7.4266   17.9386 C   0  0  0  0  0  0  0  0  0  0  0  0
   47.1780    5.8966   18.7228 S   0  0  0  0  0  0  0  0  0  0  0  0
   48.6489    9.6708   17.1945 N   0  0  0  0  0  0  0  0  0  0  0  0
   48.8237    6.1512   18.0813 C   0  0  0  0  0  0  0  0  0  0  0  0
   47.8380    8.0488   20.3812 C   0  0  0  0  0  0  0  0  0  0  0  0
   47.4468    6.7001   20.2973 C   0  0  0  0  0  0  0  0  0  0  0  0
   48.3396   11.7323   15.1029 N   0  0  0  0  0  0  0  0  0  0  0  0
   48.2831    9.3018   15.8057 C   0  0  0  0  0  0  0  0  0  0  0  0
   48.1698   11.0283   17.5296 C   0  0  0  0  0  0  0  0  0  0  0  0
   48.7936   10.3549   14.7974 C   0  0  0  0  0  0  0  0  0  0  0  0
   48.7052   12.0488   16.5046 C   0  0  0  0  0  0  0  0  0  0  0  0
   50.7111    7.5581   17.4854 C   0  0  0  0  0  0  0  0  0  0  0  0
   49.5902    5.0241   17.7579 C   0  0  0  0  0  0  0  0  0  0  0  0
   48.9437   12.7255   14.1840 C   0  0  0  0  0  0  0  0  0  0  0  0
   50.9233   12.5780    9.6327 O   0  0  0  0  0  0  0  0  0  0  0  0
   48.0726    8.5981   21.6467 C   0  0  0  0  0  0  0  0  0  0  0  0
   47.3070    5.9332   21.4618 C   0  0  0  0  0  0  0  0  0  0  0  0
   49.3719   11.6832   12.0291 O   0  0  0  0  0  0  0  0  0  0  0  0
   49.5048   12.6226    9.7544 C   0  0  0  0  0  0  0  0  0  0  0  0
   48.5016   12.5823   12.7189 C   0  0  0  0  0  0  0  0  0  0  0  0
   49.0096   11.4890   10.6569 C   0  0  0  0  0  0  0  0  0  0  0  0
   51.4693    6.4300   17.1798 C   0  0  0  0  0  0  0  0  0  0  0  0
   50.9049    5.1618   17.3095 C   0  0  0  0  0  0  0  0  0  0  0  0
   47.5545    6.4953   22.7112 C   0  0  0  0  0  0  0  0  0  0  0  0
   47.9359    7.8306   22.8051 C   0  0  0  0  0  0  0  0  0  0  0  0
   48.0623    8.9213   17.9575 C   0  0  0  0  0  0  0  0  0  0  0  0
   49.6557   10.0335   14.6569 C   0  0  0  0  0  0  0  0  0  0  0  0
   48.2574    9.3314   16.5662 C   0  0  0  0  0  0  0  0  0  0  0  0
   49.4560    9.6461   16.0561 C   0  0  0  0  0  0  0  0  0  0  0  0
   46.9932    8.5729   18.4300 O   0  0  0  0  0  0  0  0  0  0  0  0
   50.7360   10.2985   14.1640 O   0  0  0  0  0  0  0  0  0  0  0  0
   49.1793    8.9590   18.6962 O   0  0  0  0  0  0  0  0  0  0  0  0
   48.5220   10.0655   13.9381 O   0  0  0  0  0  0  0  0  0  0  0  0
   48.3881   11.2880   16.6986 H   0  0  0  0  0  0  0  0  0  0  0  0
   49.5970   10.7931   17.8806 H   0  0  0  0  0  0  0  0  0  0  0  0
   47.8877    8.0709   15.1680 H   0  0  0  0  0  0  0  0  0  0  0  0
   49.6567    8.0068   15.2641 H   0  0  0  0  0  0  0  0  0  0  0  0
   51.2143   10.2289   16.1457 H   0  0  0  0  0  0  0  0  0  0  0  0
   50.7228   11.9098   16.0386 H   0  0  0  0  0  0  0  0  0  0  0  0
   47.9632   10.4016   14.3744 H   0  0  0  0  0  0  0  0  0  0  0  0
   48.8732    9.3130   13.3122 H   0  0  0  0  0  0  0  0  0  0  0  0
   46.7011    9.8565   18.6187 H   0  0  0  0  0  0  0  0  0  0  0  0
   49.9408    9.0452   22.2907 H   0  0  0  0  0  0  0  0  0  0  0  0
   50.9611   12.3915   13.8287 H   0  0  0  0  0  0  0  0  0  0  0  0
   49.2036   12.4941   13.9906 H   0  0  0  0  0  0  0  0  0  0  0  0
   49.7951   14.3418    9.3594 H   0  0  0  0  0  0  0  0  0  0  0  0
   47.4393    4.8754   17.5194 H   0  0  0  0  0  0  0  0  0  0  0  0
   50.5598    4.9581   21.3637 H   0  0  0  0  0  0  0  0  0  0  0  0
   47.5080   13.9181    9.6930 H   0  0  0  0  0  0  0  0  0  0  0  0
   48.5721   12.5245    9.3308 H   0  0  0  0  0  0  0  0  0  0  0  0
   50.4850   10.6749   11.8896 H   0  0  0  0  0  0  0  0  0  0  0  0
   50.4592   12.3948   11.5930 H   0  0  0  0  0  0  0  0  0  0  0  0
   48.0392   13.3526   12.2485 H   0  0  0  0  0  0  0  0  0  0  0  0
   46.8540   12.3911   11.3472 H   0  0  0  0  0  0  0  0  0  0  0  0
   46.3409   10.8903   20.8477 H   0  0  0  0  0  0  0  0  0  0  0  0
   47.9870   10.5069   22.6707 H   0  0  0  0  0  0  0  0  0  0  0  0
   49.1260    2.9822   20.9838 H   0  0  0  0  0  0  0  0  0  0  0  0
   47.5400    2.9514   19.0772 H   0  0  0  0  0  0  0  0  0  0  0  0
   48.7118    8.3325   15.5277 H   0  0  0  0  0  0  0  0  0  0  0  0
   47.1901    9.2084   15.7364 H   0  0  0  0  0  0  0  0  0  0  0  0
   47.0722   11.0412   17.5547 H   0  0  0  0  0  0  0  0  0  0  0  0
   48.5337   11.3253   18.5205 H   0  0  0  0  0  0  0  0  0  0  0  0
   49.8898   10.3087   14.7722 H   0  0  0  0  0  0  0  0  0  0  0  0
   48.4370   10.0482   13.8092 H   0  0  0  0  0  0  0  0  0  0  0  0
   49.7953   12.0941   16.6031 H   0  0  0  0  0  0  0  0  0  0  0  0
   48.3080   13.0352   16.7726 H   0  0  0  0  0  0  0  0  0  0  0  0
   51.1445    8.5484   17.3618 H   0  0  0  0  0  0  0  0  0  0  0  0
   49.1682    4.0279   17.8660 H   0  0  0  0  0  0  0  0  0  0  0  0
   48.6346   13.7235   14.5201 H   0  0  0  0  0  0  0  0  0  0  0  0
   50.0397   12.6812   14.2463 H   0  0  0  0  0  0  0  0  0  0  0  0
   51.1930   13.3234    9.0685 H   0  0  0  0  0  0  0  0  0  0  0  0
   48.3601    9.6432   21.7192 H   0  0  0  0  0  0  0  0  0  0  0  0
   47.0199    4.8856   21.4035 H   0  0  0  0  0  0  0  0  0  0  0  0
   49.0826   12.5105    8.7508 H   0  0  0  0  0  0  0  0  0  0  0  0
   49.2317   13.6046   10.1505 H   0  0  0  0  0  0  0  0  0  0  0  0
   48.5527   13.5655   12.2435 H   0  0  0  0  0  0  0  0  0  0  0  0
   47.4686   12.2292   12.6543 H   0  0  0  0  0  0  0  0  0  0  0  0
   49.4743   10.5498   10.3457 H   0  0  0  0  0  0  0  0  0  0  0  0
   47.9236   11.3654   10.5762 H   0  0  0  0  0  0  0  0  0  0  0  0
   52.4956    6.5427   16.8425 H   0  0  0  0  0  0  0  0  0  0  0  0
   51.4902    4.2780   17.0635 H   0  0  0  0  0  0  0  0  0  0  0  0
   47.4424    5.8947   23.6106 H   0  0  0  0  0  0  0  0  0  0  0  0
   48.1224    8.2802   23.7761 H   0  0  0  0  0  0  0  0  0  0  0  0
   47.3492    9.3441   15.9728 H   0  0  0  0  0  0  0  0  0  0  0  0
   50.3636    9.6288   16.6505 H   0  0  0  0  0  0  0  0  0  0  0  0
   48.8935    8.6262   19.5769 H   0  0  0  0  0  0  0  0  0  0  0  0
   48.8208   10.3152   13.0368 H   0  0  0  0  0  0  0  0  0  0  0  0
  2  1  2  0
  3  1  1  0
  4  6  1  0
  5  1  1  0
  6  3  2  0
  7  2  1  0
  8  7  2  0
  9 13  1  0
 10  5  1  0
 11  5  1  0
 12 10  1  0
 13 11  1  0
 14  3  1  0
 15  6  1  0
 16  9  1  0
 17 21  1  0
 18  7  1  0
 19  8  1  0
 20 22  1  0
 21 23  1  0
 22 16  1  0
 23 20  1  0
 24 14  2  0
 25 15  2  0
 26 19  2  0
 27 18  2  0
  9 12  1  0
  8  4  1  0
 24 25  1  0
 27 26  1  0
 29 28  2  0
 30 28  1  0
 31 33  1  0
 32 28  1  0
 33 30  2  0
 34 29  1  0
 35 34  2  0
 36 40  1  0
 37 32  1  0
 38 32  1  0
 39 37  1  0
 40 38  1  0
 41 30  1  0
 42 33  1  0
 43 36  1  0
 44 48  1  0
 45 34  1  0
 46 35  1  0
 47 49  1  0
 48 50  1  0
 49 43  1  0
 50 47  1  0
 51 41  2  0
 52 42  2  0
 53 46  2  0
 54 45  2  0
 36 39  1  0
 35 31  1  0
 51 52  1  0
 54 53  1  0
 56 58  1  0
 57 55  1  0
 58 57  2  0
 59 55  2  0
 60 56  2  0
 61 55  1  0
 62 56  1  0
 10 63  1  0
 10 64  1  0
 11 65  1  0
 11 66  1  0
 12 67  1  0
 12 68  1  0
 13 69  1  0
 13 70  1  0
 14 71  1  0
 15 72  1  0
 16 73  1  0
 16 74  1  0
 17 75  1  0
 18 76  1  0
 19 77  1  0
 21 78  1  0
 21 79  1  0
 22 80  1  0
 22 81  1  0
 23 82  1  0
 23 83  1  0
 24 84  1  0
 25 85  1  0
 26 86  1  0
 27 87  1  0
 37 88  1  0
 37 89  1  0
 38 90  1  0
 38 91  1  0
 39 92  1  0
 39 93  1  0
 40 94  1  0
 40 95  1  0
 41 96  1  0
 42 97  1  0
 43 98  1  0
 43 99  1  0
 44100  1  0
 45101  1  0
 46102  1  0
 48103  1  0
 48104  1  0
 49105  1  0
 49106  1  0
 50107  1  0
 50108  1  0
 51109  1  0
 52110  1  0
 53111  1  0
 54112  1  0
 57113  1  0
 58114  1  0
 61115  1  0
 62116  1  0
M  END
> <Uni-Dock RESULT> 
ENERGY=   -5.068  LOWER_BOUND=    4.654  UPPER_BOUND=    8.235
INTER + INTRA:          -5.068
INTER:                  -5.068
INTRA:                   0.000
UNBOUND:                 0.000

$$$$

     RDKit          3D

116121  0  0  0  0  0  0  0  0999 V2000
   48.7197    8.3121   17.8186 C   0  0  0  0  0  0  0  0  0  0  0  0
   48.8568    7.0334   17.5728 N   0  0  0  0  0  0  0  0  0  0  0  0
   48.5263    8.8625   19.2016 C   0  0  0  0  0  0  0  0  0  0  0  0
   50.8096    7.4811   20.0377 S   0  0  0  0  0  0  0  0  0  0  0  0
   48.7233    9.2091   16.7413 N   0  0  0  0  0  0  0  0  0  0  0  0
   49.4427    8.6167   20.2298 C   0  0  0  0  0  0  0  0  0  0  0  0
   48.9098    6.0344   18.5665 C   0  0  0  0  0  0  0  0  0  0  0  0
   49.7990    6.0463   19.6581 C   0  0  0  0  0  0  0  0  0  0  0  0
   50.0757   10.6174   14.4587 N   0  0  0  0  0  0  0  0  0  0  0  0
   49.2188   10.5944   16.8730 C   0  0  0  0  0  0  0  0  0  0  0  0
   48.7857    8.6654   15.3647 C   0  0  0  0  0  0  0  0  0  0  0  0
   50.3698   10.8823   15.8817 C   0  0  0  0  0  0  0  0  0  0  0  0
   48.8671    9.7812   14.3041 C   0  0  0  0  0  0  0  0  0  0  0  0
   47.4120    9.6845   19.4241 C   0  0  0  0  0  0  0  0  0  0  0  0
   49.2466    9.2284   21.4747 C   0  0  0  0  0  0  0  0  0  0  0  0
   50.0246   11.8498   13.6537 C   0  0  0  0  0  0  0  0  0  0  0  0
   49.4547   14.1393   10.2476 O   0  0  0  0  0  0  0  0  0  0  0  0
   48.1066    4.9086   18.3753 C   0  0  0  0  0  0  0  0  0  0  0  0
   49.8720    4.9448   20.5210 C   0  0  0  0  0  0  0  0  0  0  0  0
   48.6101   11.4331   11.6614 O   0  0  0  0  0  0  0  0  0  0  0  0
   48.3214   13.2893   10.0747 C   0  0  0  0  0  0  0  0  0  0  0  0
   49.9490   11.5968   12.1338 C   0  0  0  0  0  0  0  0  0  0  0  0
   47.9157   12.6587   11.4093 C   0  0  0  0  0  0  0  0  0  0  0  0
   47.2120   10.2621   20.6738 C   0  0  0  0  0  0  0  0  0  0  0  0
   48.1331   10.0448   21.6952 C   0  0  0  0  0  0  0  0  0  0  0  0
   49.0584    3.8339   20.3169 C   0  0  0  0  0  0  0  0  0  0  0  0
   48.1695    3.8161   19.2450 C   0  0  0  0  0  0  0  0  0  0  0  0
   48.6046    8.6846   18.1929 C   0  0  0  0  0  0  0  0  0  0  0  0
   47.9325    8.9279   19.2884 N   0  0  0  0  0  0  0  0  0  0  0  0
   49.3880    7.4263   17.9384 C   0  0  0  0  0  0  0  0  0  0  0  0
   47.1780    5.8964   18.7226 S   0  0  0  0  0  0  0  0  0  0  0  0
   48.6490    9.6705   17.1944 N   0  0  0  0  0  0  0  0  0  0  0  0
   48.8237    6.1510   18.0812 C   0  0  0  0  0  0  0  0  0  0  0  0
   47.8380    8.0485   20.3811 C   0  0  0  0  0  0  0  0  0  0  0  0
   47.4468    6.6998   20.2971 C   0  0  0  0  0  0  0  0  0  0  0  0
   48.3397   11.7322   15.1029 N   0  0  0  0  0  0  0  0  0  0  0  0
   48.2832    9.3016   15.8056 C   0  0  0  0  0  0  0  0  0  0  0  0
   48.1699   11.0281   17.5296 C   0  0  0  0  0  0  0  0  0  0  0  0
   48.7936   10.3548   14.7973 C   0  0  0  0  0  0  0  0  0  0  0  0
   48.7052   12.0486   16.5046 C   0  0  0  0  0  0  0  0  0  0  0  0
   50.7111    7.5578   17.4853 C   0  0  0  0  0  0  0  0  0  0  0  0
   49.5901    5.0239   17.7577 C   0  0  0  0  0  0  0  0  0  0  0  0
   48.9438   12.7254   14.1840 C   0  0  0  0  0  0  0  0  0  0  0  0
   50.9235   12.5780    9.6327 O   0  0  0  0  0  0  0  0  0  0  0  0
   48.0726    8.5978   21.6466 C   0  0  0  0  0  0  0  0  0  0  0  0
   47.3070    5.9329   21.4616 C   0  0  0  0  0  0  0  0  0  0  0  0
   49.3720   11.6831   12.0291 O   0  0  0  0  0  0  0  0  0  0  0  0
   49.5050   12.6225    9.7544 C   0  0  0  0  0  0  0  0  0  0  0  0
   48.5017   12.5822   12.7189 C   0  0  0  0  0  0  0  0  0  0  0  0
   49.0097   11.4890   10.6569 C   0  0  0  0  0  0  0  0  0  0  0  0
   51.4693    6.4298   17.1797 C   0  0  0  0  0  0  0  0  0  0  0  0
   50.9049    5.1616   17.3093 C   0  0  0  0  0  0  0  0  0  0  0  0
   47.5545    6.4950   22.7111 C   0  0  0  0  0  0  0  0  0  0  0  0
   47.9359    7.8302   22.8050 C   0  0  0  0  0  0  0  0  0  0  0  0
   48.0624    8.9210   17.9574 C   0  0  0  0  0  0  0  0  0  0  0  0
   49.6558   10.0333   14.6569 C   0  0  0  0  0  0  0  0  0  0  0  0
   48.2575    9.3313   16.5661 C   0  0  0  0  0  0  0  0  0  0  0  0
   49.4561    9.6459   16.0560 C   0  0  0  0  0  0  0  0  0  0  0  0
   46.9932    8.5727   18.4298 O   0  0  0  0  0  0  0  0  0  0  0  0
   50.7360   10.2983   14.1639 O   0  0  0  0  0  0  0  0  0  0  0  0
   49.1794    8.9587   18.6961 O   0  0  0  0  0  0  0  0  0  0  0  0
   48.5221   10.0654   13.9380 O   0  0  0  0  0  0  0  0  0  0  0  0
   48.3881   11.2878   16.6986 H   0  0  0  0  0  0  0  0  0  0  0  0
   49.5970   10.7929   17.8805 H   0  0  0  0  0  0  0  0  0  0  0  0
   47.8877    8.0707   15.1679 H   0  0  0  0  0  0  0  0  0  0  0  0
   49.6568    8.0066   15.2640 H   0  0  0  0  0  0  0  0  0  0  0  0
   51.2143   10.2287   16.1456 H   0  0  0  0  0  0  0  0  0  0  0  0
   50.7229   11.9096   16.0386 H   0  0  0  0  0  0  0  0  0  0  0  0
   47.9633   10.4015   14.3743 H   0  0  0  0  0  0  0  0  0  0  0  0
   48.8732    9.3129   13.3121 H   0  0  0  0  0  0  0  0  0  0  0  0
   46.7011    9.8562   18.6186 H   0  0  0  0  0  0  0  0  0  0  0  0
   49.9408    9.0448   22.2906 H   0  0  0  0  0  0  0  0  0  0  0  0
   50.9613   12.3914   13.8287 H   0  0  0  0  0  0  0  0  0  0  0  0
   49.2037   12.4939   13.9906 H   0  0  0  0  0  0  0  0  0  0  0  0
   49.7953   14.3417    9.3595 H   0  0  0  0  0  0  0  0  0  0  0  0
   47.4393    4.8752   17.5192 H   0  0  0  0  0  0  0  0  0  0  0  0
   50.5597    4.9578   21.3635 H   0  0  0  0  0  0  0  0  0  0  0  0
   47.5081   13.9181    9.6930 H   0  0  0  0  0  0  0  0  0  0  0  0
   48.5723   12.5245    9.3308 H   0  0  0  0  0  0  0  0  0  0  0  0
   50.4851   10.6748   11.8895 H   0  0  0  0  0  0  0  0  0  0  0  0
   50.4593   12.3947   11.5930 H   0  0  0  0  0  0  0  0  0  0  0  0
   48.0393   13.3526   12.2485 H   0  0  0  0  0  0  0  0  0  0  0  0
   46.8541   12.3910   11.3472 H   0  0  0  0  0  0  0  0  0  0  0  0
   46.3409   10.8900   20.8476 H   0  0  0  0  0  0  0  0  0  0  0  0
   47.9870   10.5066   22.6706 H   0  0  0  0  0  0  0  0  0  0  0  0
   49.1259    2.9818   20.9835 H   0  0  0  0  0  0  0  0  0  0  0  0
   47.5400    2.9512   19.0769 H   0  0  0  0  0  0  0  0  0  0  0  0
   48.7119    8.3323   15.5276 H   0  0  0  0  0  0  0  0  0  0  0  0
   47.1902    9.2082   15.7363 H   0  0  0  0  0  0  0  0  0  0  0  0
   47.0722   11.0410   17.5546 H   0  0  0  0  0  0  0  0  0  0  0  0
   48.5337   11.3251   18.5204 H   0  0  0  0  0  0  0  0  0  0  0  0
   49.8899   10.3085   14.7722 H   0  0  0  0  0  0  0  0  0  0  0  0
   48.4371   10.0481   13.8091 H   0  0  0  0  0  0  0  0  0  0  0  0
   49.7954   12.0939   16.6031 H   0  0  0  0  0  0  0  0  0  0  0  0
   48.3081   13.0350   16.7726 H   0  0  0  0  0  0  0  0  0  0  0  0
   51.1446    8.5482   17.3617 H   0  0  0  0  0  0  0  0  0  0  0  0
   49.1682    4.0276   17.8658 H   0  0  0  0  0  0  0  0  0  0  0  0
   48.6347   13.7234   14.5201 H   0  0  0  0  0  0  0  0  0  0  0  0
   50.0398   12.6811   14.2463 H   0  0  0  0  0  0  0  0  0  0  0  0
   51.1932   13.3233    9.0685 H   0  0  0  0  0  0  0  0  0  0  0  0
   48.3601    9.6429   21.7192 H   0  0  0  0  0  0  0  0  0  0  0  0
   47.0199    4.8853   21.4032 H   0  0  0  0  0  0  0  0  0  0  0  0
   49.0827   12.5105    8.7508 H   0  0  0  0  0  0  0  0  0  0  0  0
   49.2318   13.6046   10.1505 H   0  0  0  0  0  0  0  0  0  0  0  0
   48.5528   13.5654   12.2435 H   0  0  0  0  0  0  0  0  0  0  0  0
   47.4687   12.2291   12.6543 H   0  0  0  0  0  0  0  0  0  0  0  0
   49.4745   10.5498   10.3457 H   0  0  0  0  0  0  0  0  0  0  0  0
   47.9237   11.3654   10.5762 H   0  0  0  0  0  0  0  0  0  0  0  0
   52.4956    6.5425   16.8424 H   0  0  0  0  0  0  0  0  0  0  0  0
   51.4902    4.2778   17.0633 H   0  0  0  0  0  0  0  0  0  0  0  0
   47.4423    5.8944   23.6104 H   0  0  0  0  0  0  0  0  0  0  0  0
   48.1224    8.2798   23.7760 H   0  0  0  0  0  0  0  0  0  0  0  0
   47.3493    9.3439   15.9727 H   0  0  0  0  0  0  0  0  0  0  0  0
   50.3637    9.6286   16.6505 H   0  0  0  0  0  0  0  0  0  0  0  0
   48.8935    8.6259   19.5768 H   0  0  0  0  0  0  0  0  0  0  0  0
   48.8209   10.3151   13.0368 H   0  0  0  0  0  0  0  0  0  0  0  0
  2  1  2  0
  3  1  1  0
  4  6  1  0
  5  1  1  0
  6  3  2  0
  7  2  1  0
  8  7  2  0
  9 13  1  0
 10  5  1  0
 11  5  1  0
 12 10  1  0
 13 11  1  0
 14  3  1  0
 15  6  1  0
 16  9  1  0
 17 21  1  0
 18  7  1  0
 19  8  1  0
 20 22  1  0
 21 23  1  0
 22 16  1  0
 23 20  1  0
 24 14  2  0
 25 15  2  0
 26 19  2  0
 27 18  2  0
  9 12  1  0
  8  4  1  0
 24 25  1  0
 27 26  1  0
 29 28  2  0
 30 28  1  0
 31 33  1  0
 32 28  1  0
 33 30  2  0
 34 29  1  0
 35 34  2  0
 36 40  1  0
 37 32  1  0
 38 32  1  0
 39 37  1  0
 40 38  1  0
 41 30  1  0
 42 33  1  0
 43 36  1  0
 44 48  1  0
 45 34  1  0
 46 35  1  0
 47 49  1  0
 48 50  1  0
 49 43  1  0
 50 47  1  0
 51 41  2  0
 52 42  2  0
 53 46  2  0
 54 45  2  0
 36 39  1  0
 35 31  1  0
 51 52  1  0
 54 53  1  0
 56 58  1  0
 57 55  1  0
 58 57  2  0
 59 55  2  0
 60 56  2  0
 61 55  1  0
 62 56  1  0
 10 63  1  0
 10 64  1  0
 11 65  1  0
 11 66  1  0
 12 67  1  0
 12 68  1  0
 13 69  1  0
 13 70  1  0
 14 71  1  0
 15 72  1  0
 16 73  1  0
 16 74  1  0
 17 75  1  0
 18 76  1  0
 19 77  1  0
 21 78  1  0
 21 79  1  0
 22 80  1  0
 22 81  1  0
 23 82  1  0
 23 83  1  0
 24 84  1  0
 25 85  1  0
 26 86  1  0
 27 87  1  0
 37 88  1  0
 37 89  1  0
 38 90  1  0
 38 91  1  0
 39 92  1  0
 39 93  1  0
 40 94  1  0
 40 95  1  0
 41 96  1  0
 42 97  1  0
 43 98  1  0
 43 99  1  0
 44100  1  0
 45101  1  0
 46102  1  0
 48103  1  0
 48104  1  0
 49105  1  0
 49106  1  0
 50107  1  0
 50108  1  0
 51109  1  0
 52110  1  0
 53111  1  0
 54112  1  0
 57113  1  0
 58114  1  0
 61115  1  0
 62116  1  0
M  END
> <Uni-Dock RESULT> 
ENERGY=   -5.067  LOWER_BOUND=    4.653  UPPER_BOUND=    8.235
INTER + INTRA:          -5.067
INTER:                  -5.067
INTRA:                   0.000
UNBOUND:                 0.000

$$$$

     RDKit          3D

116121  0  0  0  0  0  0  0  0999 V2000
   49.0549    8.9797   18.1108 C   0  0  0  0  0  0  0  0  0  0  0  0
   49.5663    8.0060   17.4007 N   0  0  0  0  0  0  0  0  0  0  0  0
   48.6321    8.8135   19.5414 C   0  0  0  0  0  0  0  0  0  0  0  0
   51.1627    7.7836   20.1377 S   0  0  0  0  0  0  0  0  0  0  0  0
   48.8640   10.2283   17.5027 N   0  0  0  0  0  0  0  0  0  0  0  0
   49.5192    8.3682   20.5274 C   0  0  0  0  0  0  0  0  0  0  0  0
   49.8455    6.7182   17.9026 C   0  0  0  0  0  0  0  0  0  0  0  0
   50.6292    6.4632   19.0442 C   0  0  0  0  0  0  0  0  0  0  0  0
   49.8867   12.7604   16.2515 N   0  0  0  0  0  0  0  0  0  0  0  0
   48.9336   11.4925   18.2635 C   0  0  0  0  0  0  0  0  0  0  0  0
   49.1593   10.3670   16.0576 C   0  0  0  0  0  0  0  0  0  0  0  0
   50.0095   12.4426   17.6887 C   0  0  0  0  0  0  0  0  0  0  0  0
   48.9792   11.8170   15.5659 C   0  0  0  0  0  0  0  0  0  0  0  0
   47.3182    9.1712   19.8766 C   0  0  0  0  0  0  0  0  0  0  0  0
   49.0843    8.3146   21.8579 C   0  0  0  0  0  0  0  0  0  0  0  0
   49.5316   14.1699   16.0133 C   0  0  0  0  0  0  0  0  0  0  0  0
   48.5286   17.5058   13.7697 O   0  0  0  0  0  0  0  0  0  0  0  0
   49.4107    5.6335   17.1386 C   0  0  0  0  0  0  0  0  0  0  0  0
   50.9643    5.1477   19.3909 C   0  0  0  0  0  0  0  0  0  0  0  0
   48.4137   14.3403   13.8076 O   0  0  0  0  0  0  0  0  0  0  0  0
   47.6982   16.5759   13.0753 C   0  0  0  0  0  0  0  0  0  0  0  0
   49.6200   14.5913   14.5319 C   0  0  0  0  0  0  0  0  0  0  0  0
   47.4133   15.3533   13.9513 C   0  0  0  0  0  0  0  0  0  0  0  0
   46.8890    9.0849   21.1971 C   0  0  0  0  0  0  0  0  0  0  0  0
   47.7728    8.6685   22.1893 C   0  0  0  0  0  0  0  0  0  0  0  0
   50.5161    4.0791   18.6195 C   0  0  0  0  0  0  0  0  0  0  0  0
   49.7333    4.3204   17.4933 C   0  0  0  0  0  0  0  0  0  0  0  0
   48.8164    9.1146   18.5767 C   0  0  0  0  0  0  0  0  0  0  0  0
   48.0405    8.6937   19.5420 N   0  0  0  0  0  0  0  0  0  0  0  0
   49.9407    8.3136   17.9799 C   0  0  0  0  0  0  0  0  0  0  0  0
   48.2196    6.1248   17.6851 S   0  0  0  0  0  0  0  0  0  0  0  0
   48.6345   10.4159   18.0822 N   0  0  0  0  0  0  0  0  0  0  0  0
   49.7579    7.0099   17.4979 C   0  0  0  0  0  0  0  0  0  0  0  0
   48.1385    7.4325   20.1551 C   0  0  0  0  0  0  0  0  0  0  0  0
   48.1554    6.2038   19.4702 C   0  0  0  0  0  0  0  0  0  0  0  0
   47.8698   13.0444   16.9748 N   0  0  0  0  0  0  0  0  0  0  0  0
   48.4709   10.6116   16.6215 C   0  0  0  0  0  0  0  0  0  0  0  0
   47.7682   11.3395   18.8446 C   0  0  0  0  0  0  0  0  0  0  0  0
   48.7160   12.0848   16.2267 C   0  0  0  0  0  0  0  0  0  0  0  0
   48.0475   12.7974   18.4260 C   0  0  0  0  0  0  0  0  0  0  0  0
   51.1948    8.9344   17.8563 C   0  0  0  0  0  0  0  0  0  0  0  0
   50.8324    6.3490   16.8887 C   0  0  0  0  0  0  0  0  0  0  0  0
   48.2165   14.4487   16.6526 C   0  0  0  0  0  0  0  0  0  0  0  0
   50.4161   16.7580   12.8469 O   0  0  0  0  0  0  0  0  0  0  0  0
   48.1321    7.4164   21.5544 C   0  0  0  0  0  0  0  0  0  0  0  0
   48.1736    4.9987   20.1851 C   0  0  0  0  0  0  0  0  0  0  0  0
   49.0495   14.5767   14.3716 O   0  0  0  0  0  0  0  0  0  0  0  0
   49.0396   16.4118   12.7264 C   0  0  0  0  0  0  0  0  0  0  0  0
   47.9197   14.8560   15.2005 C   0  0  0  0  0  0  0  0  0  0  0  0
   48.8382   14.9181   12.9966 C   0  0  0  0  0  0  0  0  0  0  0  0
   52.2606    8.2630   17.2613 C   0  0  0  0  0  0  0  0  0  0  0  0
   52.0764    6.9712   16.7704 C   0  0  0  0  0  0  0  0  0  0  0  0
   48.1769    5.0038   21.5773 C   0  0  0  0  0  0  0  0  0  0  0  0
   48.1539    6.2141   22.2641 C   0  0  0  0  0  0  0  0  0  0  0  0
   48.2438    9.2955   18.3651 C   0  0  0  0  0  0  0  0  0  0  0  0
   49.6408   12.0680   16.1220 C   0  0  0  0  0  0  0  0  0  0  0  0
   48.3937   10.3015   17.3128 C   0  0  0  0  0  0  0  0  0  0  0  0
   49.4795   11.0772   17.1898 C   0  0  0  0  0  0  0  0  0  0  0  0
   47.2937    8.5371   18.4634 O   0  0  0  0  0  0  0  0  0  0  0  0
   50.6266   12.7653   15.9738 O   0  0  0  0  0  0  0  0  0  0  0  0
   49.2585    9.2694   19.2396 O   0  0  0  0  0  0  0  0  0  0  0  0
   48.5890   12.1422   15.2904 O   0  0  0  0  0  0  0  0  0  0  0  0
   47.9508   11.9771   18.2398 H   0  0  0  0  0  0  0  0  0  0  0  0
   49.1800   11.3168   19.3151 H   0  0  0  0  0  0  0  0  0  0  0  0
   48.4821    9.7246   15.4852 H   0  0  0  0  0  0  0  0  0  0  0  0
   50.1868   10.0414   15.8549 H   0  0  0  0  0  0  0  0  0  0  0  0
   50.9890   11.9572   17.8113 H   0  0  0  0  0  0  0  0  0  0  0  0
   50.0439   13.3510   18.3037 H   0  0  0  0  0  0  0  0  0  0  0  0
   47.9331   12.1145   15.7200 H   0  0  0  0  0  0  0  0  0  0  0  0
   49.1767   11.8412   14.4871 H   0  0  0  0  0  0  0  0  0  0  0  0
   46.6358    9.5036   19.0971 H   0  0  0  0  0  0  0  0  0  0  0  0
   49.7535    7.9635   22.6391 H   0  0  0  0  0  0  0  0  0  0  0  0
   50.2622   14.7845   16.5515 H   0  0  0  0  0  0  0  0  0  0  0  0
   48.5426   14.3920   16.4313 H   0  0  0  0  0  0  0  0  0  0  0  0
   48.8480   18.1470   13.1118 H   0  0  0  0  0  0  0  0  0  0  0  0
   48.8318    5.8194   16.2389 H   0  0  0  0  0  0  0  0  0  0  0  0
   51.5694    4.9545   20.2738 H   0  0  0  0  0  0  0  0  0  0  0  0
   46.7625   17.0981   12.8423 H   0  0  0  0  0  0  0  0  0  0  0  0
   48.2003   16.2919   12.1432 H   0  0  0  0  0  0  0  0  0  0  0  0
   50.4108   14.0206   14.0360 H   0  0  0  0  0  0  0  0  0  0  0  0
   49.9109   15.6396   14.4549 H   0  0  0  0  0  0  0  0  0  0  0  0
   47.2842   15.6220   15.0059 H   0  0  0  0  0  0  0  0  0  0  0  0
   46.4783   14.8988   13.6027 H   0  0  0  0  0  0  0  0  0  0  0  0
   45.8660    9.3519   21.4532 H   0  0  0  0  0  0  0  0  0  0  0  0
   47.4443    8.6130   23.2261 H   0  0  0  0  0  0  0  0  0  0  0  0
   50.7859    3.0644   18.8889 H   0  0  0  0  0  0  0  0  0  0  0  0
   49.3886    3.4933   16.8852 H   0  0  0  0  0  0  0  0  0  0  0  0
   49.1745    9.9892   16.0576 H   0  0  0  0  0  0  0  0  0  0  0  0
   47.4563   10.3045   16.3308 H   0  0  0  0  0  0  0  0  0  0  0  0
   46.7133   11.0828   18.6806 H   0  0  0  0  0  0  0  0  0  0  0  0
   47.9736   11.2533   19.9183 H   0  0  0  0  0  0  0  0  0  0  0  0
   49.7792   12.3122   16.3770 H   0  0  0  0  0  0  0  0  0  0  0  0
   48.5202   12.1631   15.1527 H   0  0  0  0  0  0  0  0  0  0  0  0
   49.0713   13.0494   18.7232 H   0  0  0  0  0  0  0  0  0  0  0  0
   47.3697   13.4463   18.9933 H   0  0  0  0  0  0  0  0  0  0  0  0
   51.3329    9.9512   18.2183 H   0  0  0  0  0  0  0  0  0  0  0  0
   50.7078    5.3365   16.5125 H   0  0  0  0  0  0  0  0  0  0  0  0
   47.6156   15.0988   17.3012 H   0  0  0  0  0  0  0  0  0  0  0  0
   49.2737   14.6397   16.8823 H   0  0  0  0  0  0  0  0  0  0  0  0
   50.4933   17.7144   12.6858 H   0  0  0  0  0  0  0  0  0  0  0  0
   48.1036    8.3616   22.0892 H   0  0  0  0  0  0  0  0  0  0  0  0
   48.2024    4.0453   19.6621 H   0  0  0  0  0  0  0  0  0  0  0  0
   48.7261   16.6508   11.7053 H   0  0  0  0  0  0  0  0  0  0  0  0
   48.4742   17.0305   13.4289 H   0  0  0  0  0  0  0  0  0  0  0  0
   47.7146   15.9296   15.1766 H   0  0  0  0  0  0  0  0  0  0  0  0
   47.0366   14.3349   14.8204 H   0  0  0  0  0  0  0  0  0  0  0  0
   49.5696   14.3448   12.4211 H   0  0  0  0  0  0  0  0  0  0  0  0
   47.8396   14.5913   12.6847 H   0  0  0  0  0  0  0  0  0  0  0  0
   53.2294    8.7477   17.1825 H   0  0  0  0  0  0  0  0  0  0  0  0
   52.9035    6.4460   16.2969 H   0  0  0  0  0  0  0  0  0  0  0  0
   48.1894    4.0649   22.1254 H   0  0  0  0  0  0  0  0  0  0  0  0
   48.1472    6.2279   23.3502 H   0  0  0  0  0  0  0  0  0  0  0  0
   47.5559   10.3573   16.6256 H   0  0  0  0  0  0  0  0  0  0  0  0
   50.3180   11.0168   17.8758 H   0  0  0  0  0  0  0  0  0  0  0  0
   49.0293    8.5309   19.8480 H   0  0  0  0  0  0  0  0  0  0  0  0
   48.8556   12.8203   14.6325 H   0  0  0  0  0  0  0  0  0  0  0  0
  2  1  2  0
  3  1  1  0
  4  6  1  0
  5  1  1  0
  6  3  2  0
  7  2  1  0
  8  7  2  0
  9 13  1  0
 10  5  1  0
 11  5  1  0
 12 10  1  0
 13 11  1  0
 14  3  1  0
 15  6  1  0
 16  9  1  0
 17 21  1  0
 18  7  1  0
 19  8  1  0
 20 22  1  0
 21 23  1  0
 22 16  1  0
 23 20  1  0
 24 14  2  0
 25 15  2  0
 26 19  2  0
 27 18  2  0
  9 12  1  0
  8  4  1  0
 24 25  1  0
 27 26  1  0
 29 28  2  0
 30 28  1  0
 31 33  1  0
 32 28  1  0
 33 30  2  0
 34 29  1  0
 35 34  2  0
 36 40  1  0
 37 32  1  0
 38 32  1  0
 39 37  1  0
 40 38  1  0
 41 30  1  0
 42 33  1  0
 43 36  1  0
 44 48  1  0
 45 34  1  0
 46 35  1  0
 47 49  1  0
 48 50  1  0
 49 43  1  0
 50 47  1  0
 51 41  2  0
 52 42  2  0
 53 46  2  0
 54 45  2  0
 36 39  1  0
 35 31  1  0
 51 52  1  0
 54 53  1  0
 56 58  1  0
 57 55  1  0
 58 57  2  0
 59 55  2  0
 60 56  2  0
 61 55  1  0
 62 56  1  0
 10 63  1  0
 10 64  1  0
 11 65  1  0
 11 66  1  0
 12 67  1  0
 12 68  1  0
 13 69  1  0
 13 70  1  0
 14 71  1  0
 15 72  1  0
 16 73  1  0
 16 74  1  0
 17 75  1  0
 18 76  1  0
 19 77  1  0
 21 78  1  0
 21 79  1  0
 22 80  1  0
 22 81  1  0
 23 82  1  0
 23 83  1  0
 24 84  1  0
 25 85  1  0
 26 86  1  0
 27 87  1  0
 37 88  1  0
 37 89  1  0
 38 90  1  0
 38 91  1  0
 39 92  1  0
 39 93  1  0
 40 94  1  0
 40 95  1  0
 41 96  1  0
 42 97  1  0
 43 98  1  0
 43 99  1  0
 44100  1  0
 45101  1  0
 46102  1  0
 48103  1  0
 48104  1  0
 49105  1  0
 49106  1  0
 50107  1  0
 50108  1  0
 51109  1  0
 52110  1  0
 53111  1  0
 54112  1  0
 57113  1  0
 58114  1  0
 61115  1  0
 62116  1  0
M  END
> <Uni-Dock RESULT> 
ENERGY=   -4.850  LOWER_BOUND=    5.416  UPPER_BOUND=    8.808
INTER + INTRA:          -4.850
INTER:                  -4.850
INTRA:                   0.000
UNBOUND:                 0.000

$$$$

     RDKit          3D

116121  0  0  0  0  0  0  0  0999 V2000
   51.1213    8.8799   13.9784 C   0  0  0  0  0  0  0  0  0  0  0  0
   52.1562    8.1232   13.7134 N   0  0  0  0  0  0  0  0  0  0  0  0
   51.2403   10.2340   14.6149 C   0  0  0  0  0  0  0  0  0  0  0  0
   53.0805   10.9665   12.6407 S   0  0  0  0  0  0  0  0  0  0  0  0
   49.8394    8.3950   13.6835 N   0  0  0  0  0  0  0  0  0  0  0  0
   52.0194   11.2500   14.0508 C   0  0  0  0  0  0  0  0  0  0  0  0
   53.4964    8.5076   13.9240 C   0  0  0  0  0  0  0  0  0  0  0  0
   54.0733    9.6878   13.4172 C   0  0  0  0  0  0  0  0  0  0  0  0
   47.6997    7.5360   11.7582 N   0  0  0  0  0  0  0  0  0  0  0  0
   48.7244    9.2919   13.3172 C   0  0  0  0  0  0  0  0  0  0  0  0
   49.7037    7.0107   13.1736 C   0  0  0  0  0  0  0  0  0  0  0  0
   48.1405    8.9351   11.9308 C   0  0  0  0  0  0  0  0  0  0  0  0
   48.2438    6.6640   12.8200 C   0  0  0  0  0  0  0  0  0  0  0  0
   50.4969   10.4723   15.7800 C   0  0  0  0  0  0  0  0  0  0  0  0
   52.0213   12.5163   14.6500 C   0  0  0  0  0  0  0  0  0  0  0  0
   46.2386    7.4180   11.6147 C   0  0  0  0  0  0  0  0  0  0  0  0
   42.6090    5.4609   11.2090 O   0  0  0  0  0  0  0  0  0  0  0  0
   54.3227    7.5904   14.5761 C   0  0  0  0  0  0  0  0  0  0  0  0
   55.4471    9.9213   13.5638 C   0  0  0  0  0  0  0  0  0  0  0  0
   45.5573    5.1426   12.3236 O   0  0  0  0  0  0  0  0  0  0  0  0
   43.1649    4.5895   12.1930 C   0  0  0  0  0  0  0  0  0  0  0  0
   45.7662    6.0076   11.2052 C   0  0  0  0  0  0  0  0  0  0  0  0
   44.2854    5.2943   12.9618 C   0  0  0  0  0  0  0  0  0  0  0  0
   50.5307   11.7256   16.3828 C   0  0  0  0  0  0  0  0  0  0  0  0
   51.2820   12.7505   15.8135 C   0  0  0  0  0  0  0  0  0  0  0  0
   56.2532    8.9971   14.2224 C   0  0  0  0  0  0  0  0  0  0  0  0
   55.6905    7.8308   14.7347 C   0  0  0  0  0  0  0  0  0  0  0  0
   50.9489    9.3313   14.2206 C   0  0  0  0  0  0  0  0  0  0  0  0
   51.1597   10.1621   15.2088 N   0  0  0  0  0  0  0  0  0  0  0  0
   52.0295    8.7671   13.3398 C   0  0  0  0  0  0  0  0  0  0  0  0
   53.5085    8.0643   15.6111 S   0  0  0  0  0  0  0  0  0  0  0  0
   49.6283    8.9655   13.9153 N   0  0  0  0  0  0  0  0  0  0  0  0
   53.1644    8.1303   13.8612 C   0  0  0  0  0  0  0  0  0  0  0  0
   52.4233   10.6412   15.5957 C   0  0  0  0  0  0  0  0  0  0  0  0
   53.5386    9.8318   15.8792 C   0  0  0  0  0  0  0  0  0  0  0  0
   46.8232    8.0792   13.6577 N   0  0  0  0  0  0  0  0  0  0  0  0
   49.2876    7.5258   13.8166 C   0  0  0  0  0  0  0  0  0  0  0  0
   48.5282    9.7327   14.5365 C   0  0  0  0  0  0  0  0  0  0  0  0
   47.9518    7.3201   13.0686 C   0  0  0  0  0  0  0  0  0  0  0  0
   47.2163    9.5054   13.7582 C   0  0  0  0  0  0  0  0  0  0  0  0
   51.8460    8.8387   11.9489 C   0  0  0  0  0  0  0  0  0  0  0  0
   54.0958    7.5641   12.9813 C   0  0  0  0  0  0  0  0  0  0  0  0
   45.5907    7.9481   12.8457 C   0  0  0  0  0  0  0  0  0  0  0  0
   43.8662    4.6570    9.5518 O   0  0  0  0  0  0  0  0  0  0  0  0
   52.5349   12.0226   15.7893 C   0  0  0  0  0  0  0  0  0  0  0  0
   54.7305   10.4097   16.3366 C   0  0  0  0  0  0  0  0  0  0  0  0
   45.5821    5.7901   11.7249 O   0  0  0  0  0  0  0  0  0  0  0  0
   43.7337    4.3616   10.9390 C   0  0  0  0  0  0  0  0  0  0  0  0
   45.0076    6.5266   12.8063 C   0  0  0  0  0  0  0  0  0  0  0  0
   45.0945    4.4461   11.6361 C   0  0  0  0  0  0  0  0  0  0  0  0
   52.7855    8.2845   11.0823 C   0  0  0  0  0  0  0  0  0  0  0  0
   53.9080    7.6400   11.6001 C   0  0  0  0  0  0  0  0  0  0  0  0
   54.8247   11.7874   16.5135 C   0  0  0  0  0  0  0  0  0  0  0  0
   53.7249   12.5959   16.2417 C   0  0  0  0  0  0  0  0  0  0  0  0
   50.5763    9.0841   14.6738 C   0  0  0  0  0  0  0  0  0  0  0  0
   48.2627    7.3079   12.1914 C   0  0  0  0  0  0  0  0  0  0  0  0
   49.6032    8.1679   14.0774 C   0  0  0  0  0  0  0  0  0  0  0  0
   49.2188    8.2399   12.7957 C   0  0  0  0  0  0  0  0  0  0  0  0
   50.9871    9.0032   15.8194 O   0  0  0  0  0  0  0  0  0  0  0  0
   47.9176    7.3363   11.0251 O   0  0  0  0  0  0  0  0  0  0  0  0
   50.9942   10.0482   13.8427 O   0  0  0  0  0  0  0  0  0  0  0  0
   47.7903    6.3877   13.0477 O   0  0  0  0  0  0  0  0  0  0  0  0
   47.9446    9.2223   14.0844 H   0  0  0  0  0  0  0  0  0  0  0  0
   49.0445   10.3377   13.2785 H   0  0  0  0  0  0  0  0  0  0  0  0
   50.0472    6.3067   13.9385 H   0  0  0  0  0  0  0  0  0  0  0  0
   50.3323    6.8783   12.2848 H   0  0  0  0  0  0  0  0  0  0  0  0
   48.9269    9.1021   11.1800 H   0  0  0  0  0  0  0  0  0  0  0  0
   47.3389    9.6456   11.6912 H   0  0  0  0  0  0  0  0  0  0  0  0
   47.6320    6.7435   13.7288 H   0  0  0  0  0  0  0  0  0  0  0  0
   48.2097    5.6196   12.4860 H   0  0  0  0  0  0  0  0  0  0  0  0
   49.9057    9.6688   16.2143 H   0  0  0  0  0  0  0  0  0  0  0  0
   52.6259   13.3180   14.2342 H   0  0  0  0  0  0  0  0  0  0  0  0
   45.9362    8.0906   10.8040 H   0  0  0  0  0  0  0  0  0  0  0  0
   45.7352    7.7559   12.5283 H   0  0  0  0  0  0  0  0  0  0  0  0
   42.0630    4.9122   10.6203 H   0  0  0  0  0  0  0  0  0  0  0  0
   53.8948    6.6625   14.9438 H   0  0  0  0  0  0  0  0  0  0  0  0
   55.8891   10.8343   13.1715 H   0  0  0  0  0  0  0  0  0  0  0  0
   42.3503    4.3217   12.8766 H   0  0  0  0  0  0  0  0  0  0  0  0
   43.5312    3.6874   11.6896 H   0  0  0  0  0  0  0  0  0  0  0  0
   46.5278    5.5347   10.5780 H   0  0  0  0  0  0  0  0  0  0  0  0
   44.8680    6.0748   10.5901 H   0  0  0  0  0  0  0  0  0  0  0  0
   44.0642    6.3534   13.1356 H   0  0  0  0  0  0  0  0  0  0  0  0
   44.3834    4.8059   13.9387 H   0  0  0  0  0  0  0  0  0  0  0  0
   49.9626   11.9049   17.2929 H   0  0  0  0  0  0  0  0  0  0  0  0
   51.2998   13.7367   16.2749 H   0  0  0  0  0  0  0  0  0  0  0  0
   57.3166    9.1803   14.3250 H   0  0  0  0  0  0  0  0  0  0  0  0
   56.3144    7.1047   15.2410 H   0  0  0  0  0  0  0  0  0  0  0  0
   50.0647    6.9712   13.2788 H   0  0  0  0  0  0  0  0  0  0  0  0
   49.2248    7.1028   14.8292 H   0  0  0  0  0  0  0  0  0  0  0  0
   48.4135    9.4364   15.5875 H   0  0  0  0  0  0  0  0  0  0  0  0
   48.7521   10.8059   14.5108 H   0  0  0  0  0  0  0  0  0  0  0  0
   48.0958    7.6005   12.0174 H   0  0  0  0  0  0  0  0  0  0  0  0
   47.7384    6.2469   13.0878 H   0  0  0  0  0  0  0  0  0  0  0  0
   47.3346    9.9297   12.7552 H   0  0  0  0  0  0  0  0  0  0  0  0
   46.4229   10.0688   14.2637 H   0  0  0  0  0  0  0  0  0  0  0  0
   50.9585    9.3211   11.5446 H   0  0  0  0  0  0  0  0  0  0  0  0
   54.9827    7.0694   13.3696 H   0  0  0  0  0  0  0  0  0  0  0  0
   44.8271    8.5998   13.2891 H   0  0  0  0  0  0  0  0  0  0  0  0
   45.7726    8.3025   11.8218 H   0  0  0  0  0  0  0  0  0  0  0  0
   42.9789    4.6095    9.1556 H   0  0  0  0  0  0  0  0  0  0  0  0
   51.6724   12.6514   15.5867 H   0  0  0  0  0  0  0  0  0  0  0  0
   55.6015    9.7917   16.5431 H   0  0  0  0  0  0  0  0  0  0  0  0
   43.3342    3.3463   11.0248 H   0  0  0  0  0  0  0  0  0  0  0  0
   43.0152    5.0667   11.3661 H   0  0  0  0  0  0  0  0  0  0  0  0
   43.9271    6.5990   12.6561 H   0  0  0  0  0  0  0  0  0  0  0  0
   45.1831    6.0050   13.7513 H   0  0  0  0  0  0  0  0  0  0  0  0
   45.8335    3.8883   11.0552 H   0  0  0  0  0  0  0  0  0  0  0  0
   45.0539    4.0016   12.6371 H   0  0  0  0  0  0  0  0  0  0  0  0
   52.6401    8.3568   10.0084 H   0  0  0  0  0  0  0  0  0  0  0  0
   54.6403    7.1978   10.9273 H   0  0  0  0  0  0  0  0  0  0  0  0
   55.7521   12.2285   16.8703 H   0  0  0  0  0  0  0  0  0  0  0  0
   53.7862   13.6708   16.3853 H   0  0  0  0  0  0  0  0  0  0  0  0
   49.2283    7.4101   14.7574 H   0  0  0  0  0  0  0  0  0  0  0  0
   49.5982    8.9962   12.1164 H   0  0  0  0  0  0  0  0  0  0  0  0
   51.6580   10.5465   14.3711 H   0  0  0  0  0  0  0  0  0  0  0  0
   47.1921    5.8376   12.4969 H   0  0  0  0  0  0  0  0  0  0  0  0
  2  1  2  0
  3  1  1  0
  4  6  1  0
  5  1  1  0
  6  3  2  0
  7  2  1  0
  8  7  2  0
  9 13  1  0
 10  5  1  0
 11  5  1  0
 12 10  1  0
 13 11  1  0
 14  3  1  0
 15  6  1  0
 16  9  1  0
 17 21  1  0
 18  7  1  0
 19  8  1  0
 20 22  1  0
 21 23  1  0
 22 16  1  0
 23 20  1  0
 24 14  2  0
 25 15  2  0
 26 19  2  0
 27 18  2  0
  9 12  1  0
  8  4  1  0
 24 25  1  0
 27 26  1  0
 29 28  2  0
 30 28  1  0
 31 33  1  0
 32 28  1  0
 33 30  2  0
 34 29  1  0
 35 34  2  0
 36 40  1  0
 37 32  1  0
 38 32  1  0
 39 37  1  0
 40 38  1  0
 41 30  1  0
 42 33  1  0
 43 36  1  0
 44 48  1  0
 45 34  1  0
 46 35  1  0
 47 49  1  0
 48 50  1  0
 49 43  1  0
 50 47  1  0
 51 41  2  0
 52 42  2  0
 53 46  2  0
 54 45  2  0
 36 39  1  0
 35 31  1  0
 51 52  1  0
 54 53  1  0
 56 58  1  0
 57 55  1  0
 58 57  2  0
 59 55  2  0
 60 56  2  0
 61 55  1  0
 62 56  1  0
 10 63  1  0
 10 64  1  0
 11 65  1  0
 11 66  1  0
 12 67  1  0
 12 68  1  0
 13 69  1  0
 13 70  1  0
 14 71  1  0
 15 72  1  0
 16 73  1  0
 16 74  1  0
 17 75  1  0
 18 76  1  0
 19 77  1  0
 21 78  1  0
 21 79  1  0
 22 80  1  0
 22 81  1  0
 23 82  1  0
 23 83  1  0
 24 84  1  0
 25 85  1  0
 26 86  1  0
 27 87  1  0
 37 88  1  0
 37 89  1  0
 38 90  1  0
 38 91  1  0
 39 92  1  0
 39 93  1  0
 40 94  1  0
 40 95  1  0
 41 96  1  0
 42 97  1  0
 43 98  1  0
 43 99  1  0
 44100  1  0
 45101  1  0
 46102  1  0
 48103  1  0
 48104  1  0
 49105  1  0
 49106  1  0
 50107  1  0
 50108  1  0
 51109  1  0
 52110  1  0
 53111  1  0
 54112  1  0
 57113  1  0
 58114  1  0
 61115  1  0
 62116  1  0
M  END
> <Uni-Dock RESULT> 
ENERGY=   -4.796  LOWER_BOUND=    1.828  UPPER_BOUND=    2.977
INTER + INTRA:          -4.796
INTER:                  -4.796
INTRA:                   0.000
UNBOUND:                 0.000

$$$$

     RDKit          3D

116121  0  0  0  0  0  0  0  0999 V2000
   49.9499    7.1673   17.5816 C   0  0  0  0  0  0  0  0  0  0  0  0
   49.1357    7.2814   18.6005 N   0  0  0  0  0  0  0  0  0  0  0  0
   51.1947    6.3294   17.6198 C   0  0  0  0  0  0  0  0  0  0  0  0
   49.6660    4.1518   18.4809 S   0  0  0  0  0  0  0  0  0  0  0  0
   49.6662    7.8820   16.4095 N   0  0  0  0  0  0  0  0  0  0  0  0
   51.1583    4.9650   17.9271 C   0  0  0  0  0  0  0  0  0  0  0  0
   49.2852    6.5872   19.8188 C   0  0  0  0  0  0  0  0  0  0  0  0
   49.4213    5.1899   19.9254 C   0  0  0  0  0  0  0  0  0  0  0  0
   47.9959    8.4445   13.9771 N   0  0  0  0  0  0  0  0  0  0  0  0
   50.0566    7.3881   15.0733 C   0  0  0  0  0  0  0  0  0  0  0  0
   48.5110    8.8095   16.4054 C   0  0  0  0  0  0  0  0  0  0  0  0
   48.8307    7.2374   14.1432 C   0  0  0  0  0  0  0  0  0  0  0  0
   48.2866    9.4493   15.0209 C   0  0  0  0  0  0  0  0  0  0  0  0
   52.4066    6.9500   17.2837 C   0  0  0  0  0  0  0  0  0  0  0  0
   52.3446    4.2228   17.8639 C   0  0  0  0  0  0  0  0  0  0  0  0
   48.0692    8.9986   12.6144 C   0  0  0  0  0  0  0  0  0  0  0  0
   47.2942   11.6947    9.5651 O   0  0  0  0  0  0  0  0  0  0  0  0
   49.1673    7.3353   20.9917 C   0  0  0  0  0  0  0  0  0  0  0  0
   49.4294    4.5755   21.1846 C   0  0  0  0  0  0  0  0  0  0  0  0
   47.5127   11.4120   12.7127 O   0  0  0  0  0  0  0  0  0  0  0  0
   47.5195   12.6585   10.5932 C   0  0  0  0  0  0  0  0  0  0  0  0
   47.0404   10.1152   12.3412 C   0  0  0  0  0  0  0  0  0  0  0  0
   48.3393   12.0461   11.7317 C   0  0  0  0  0  0  0  0  0  0  0  0
   53.5833    6.2085   17.2537 C   0  0  0  0  0  0  0  0  0  0  0  0
   53.5522    4.8444   17.5318 C   0  0  0  0  0  0  0  0  0  0  0  0
   49.3165    5.3395   22.3427 C   0  0  0  0  0  0  0  0  0  0  0  0
   49.1901    6.7231   22.2481 C   0  0  0  0  0  0  0  0  0  0  0  0
   50.4265    6.9783   17.4103 C   0  0  0  0  0  0  0  0  0  0  0  0
   51.6538    6.6944   17.7628 N   0  0  0  0  0  0  0  0  0  0  0  0
   49.2080    6.6325   18.2211 C   0  0  0  0  0  0  0  0  0  0  0  0
   50.4152    7.7302   20.4965 S   0  0  0  0  0  0  0  0  0  0  0  0
   50.2066    7.6061   16.1739 N   0  0  0  0  0  0  0  0  0  0  0  0
   49.0841    6.9819   19.5731 C   0  0  0  0  0  0  0  0  0  0  0  0
   52.0126    6.0340   18.9508 C   0  0  0  0  0  0  0  0  0  0  0  0
   51.6029    6.4184   20.2406 C   0  0  0  0  0  0  0  0  0  0  0  0
   49.9984    9.2106   13.7036 N   0  0  0  0  0  0  0  0  0  0  0  0
   49.3922    8.8445   16.1333 C   0  0  0  0  0  0  0  0  0  0  0  0
   51.3286    7.6736   15.2141 C   0  0  0  0  0  0  0  0  0  0  0  0
   48.9021    9.1413   14.6987 C   0  0  0  0  0  0  0  0  0  0  0  0
   50.7977    7.9652   13.7957 C   0  0  0  0  0  0  0  0  0  0  0  0
   48.1447    5.9898   17.5656 C   0  0  0  0  0  0  0  0  0  0  0  0
   47.8912    6.6917   20.2480 C   0  0  0  0  0  0  0  0  0  0  0  0
   49.4790    9.3800   12.3261 C   0  0  0  0  0  0  0  0  0  0  0  0
   45.2792   11.1154   10.3249 O   0  0  0  0  0  0  0  0  0  0  0  0
   52.9124    4.9695   18.8260 C   0  0  0  0  0  0  0  0  0  0  0  0
   52.0862    5.7371   21.3657 C   0  0  0  0  0  0  0  0  0  0  0  0
   47.3768   10.6003   12.3951 O   0  0  0  0  0  0  0  0  0  0  0  0
   46.2714   12.0507   10.7371 C   0  0  0  0  0  0  0  0  0  0  0  0
   48.7654   10.7188   12.0796 C   0  0  0  0  0  0  0  0  0  0  0  0
   46.6489   11.8189   12.2028 C   0  0  0  0  0  0  0  0  0  0  0  0
   46.9679    5.6933   18.2498 C   0  0  0  0  0  0  0  0  0  0  0  0
   46.8390    6.0516   19.5909 C   0  0  0  0  0  0  0  0  0  0  0  0
   52.9733    4.6740   21.2201 C   0  0  0  0  0  0  0  0  0  0  0  0
   53.3895    4.2902   19.9487 C   0  0  0  0  0  0  0  0  0  0  0  0
   50.7251    7.5241   17.2751 C   0  0  0  0  0  0  0  0  0  0  0  0
   48.1253    8.6286   14.6885 C   0  0  0  0  0  0  0  0  0  0  0  0
   49.9037    8.3347   16.3750 C   0  0  0  0  0  0  0  0  0  0  0  0
   48.9648    7.8151   15.5723 C   0  0  0  0  0  0  0  0  0  0  0  0
   51.5434    7.9777   18.0575 O   0  0  0  0  0  0  0  0  0  0  0  0
   47.2497    8.1841   13.9703 O   0  0  0  0  0  0  0  0  0  0  0  0
   50.5053    6.2066   17.1716 O   0  0  0  0  0  0  0  0  0  0  0  0
   48.3994    9.9421   14.7412 O   0  0  0  0  0  0  0  0  0  0  0  0
   50.7804    8.0841   14.6339 H   0  0  0  0  0  0  0  0  0  0  0  0
   50.5453    6.4107   15.1319 H   0  0  0  0  0  0  0  0  0  0  0  0
   48.6870    9.6120   17.1291 H   0  0  0  0  0  0  0  0  0  0  0  0
   47.6029    8.2740   16.7078 H   0  0  0  0  0  0  0  0  0  0  0  0
   48.1728    6.4681   14.5736 H   0  0  0  0  0  0  0  0  0  0  0  0
   49.1669    6.8404   13.1767 H   0  0  0  0  0  0  0  0  0  0  0  0
   49.1789   10.0308   14.7520 H   0  0  0  0  0  0  0  0  0  0  0  0
   47.4445   10.1482   15.0976 H   0  0  0  0  0  0  0  0  0  0  0  0
   52.4215    8.0146   17.0595 H   0  0  0  0  0  0  0  0  0  0  0  0
   52.3416    3.1634   18.1070 H   0  0  0  0  0  0  0  0  0  0  0  0
   47.8314    8.1851   11.9195 H   0  0  0  0  0  0  0  0  0  0  0  0
   49.0889    9.3346   12.3916 H   0  0  0  0  0  0  0  0  0  0  0  0
   46.6069   12.0586    8.9811 H   0  0  0  0  0  0  0  0  0  0  0  0
   49.0308    8.4102   20.9210 H   0  0  0  0  0  0  0  0  0  0  0  0
   49.5352    3.4959   21.2630 H   0  0  0  0  0  0  0  0  0  0  0  0
   48.0721   13.4878   10.1355 H   0  0  0  0  0  0  0  0  0  0  0  0
   46.5476   13.0190   10.9492 H   0  0  0  0  0  0  0  0  0  0  0  0
   46.1349    9.9292   12.9265 H   0  0  0  0  0  0  0  0  0  0  0  0
   46.7326   10.0964   11.2951 H   0  0  0  0  0  0  0  0  0  0  0  0
   49.1036   11.3523   11.3636 H   0  0  0  0  0  0  0  0  0  0  0  0
   48.8501   12.8622   12.2566 H   0  0  0  0  0  0  0  0  0  0  0  0
   54.5240    6.6942   17.0040 H   0  0  0  0  0  0  0  0  0  0  0  0
   54.4692    4.2580   17.4958 H   0  0  0  0  0  0  0  0  0  0  0  0
   49.3153    4.8568   23.3133 H   0  0  0  0  0  0  0  0  0  0  0  0
   49.0939    7.3214   23.1456 H   0  0  0  0  0  0  0  0  0  0  0  0
   48.5119    8.7607   16.7803 H   0  0  0  0  0  0  0  0  0  0  0  0
   49.9962    9.6824   16.5090 H   0  0  0  0  0  0  0  0  0  0  0  0
   52.0429    8.4460   15.5285 H   0  0  0  0  0  0  0  0  0  0  0  0
   51.8599    6.7149   15.1831 H   0  0  0  0  0  0  0  0  0  0  0  0
   48.1737    8.3711   14.4144 H   0  0  0  0  0  0  0  0  0  0  0  0
   48.3636   10.0933   14.7370 H   0  0  0  0  0  0  0  0  0  0  0  0
   50.1925    7.1106   13.4737 H   0  0  0  0  0  0  0  0  0  0  0  0
   51.6593    8.0326   13.1209 H   0  0  0  0  0  0  0  0  0  0  0  0
   48.2358    5.7307   16.5128 H   0  0  0  0  0  0  0  0  0  0  0  0
   47.7804    6.9534   21.2974 H   0  0  0  0  0  0  0  0  0  0  0  0
   50.3335    9.3365   11.6388 H   0  0  0  0  0  0  0  0  0  0  0  0
   48.8071    8.5493   12.0702 H   0  0  0  0  0  0  0  0  0  0  0  0
   45.0849   11.2878    9.3873 H   0  0  0  0  0  0  0  0  0  0  0  0
   53.2444    4.6777   17.8336 H   0  0  0  0  0  0  0  0  0  0  0  0
   51.7618    6.0189   22.3650 H   0  0  0  0  0  0  0  0  0  0  0  0
   45.8516   13.0542   10.6152 H   0  0  0  0  0  0  0  0  0  0  0  0
   47.1341   11.9402   10.0741 H   0  0  0  0  0  0  0  0  0  0  0  0
   48.8716   10.9791   11.0231 H   0  0  0  0  0  0  0  0  0  0  0  0
   49.2183   11.5189   12.6718 H   0  0  0  0  0  0  0  0  0  0  0  0
   45.7382   11.7312   12.8011 H   0  0  0  0  0  0  0  0  0  0  0  0
   47.2277   12.6608   12.5996 H   0  0  0  0  0  0  0  0  0  0  0  0
   46.1570    5.1846   17.7367 H   0  0  0  0  0  0  0  0  0  0  0  0
   45.9184    5.8301   20.1273 H   0  0  0  0  0  0  0  0  0  0  0  0
   53.3454    4.1511   22.0977 H   0  0  0  0  0  0  0  0  0  0  0  0
   54.0883    3.4678   19.8258 H   0  0  0  0  0  0  0  0  0  0  0  0
   50.1063    9.3995   16.4228 H   0  0  0  0  0  0  0  0  0  0  0  0
   48.7611    6.7503   15.5291 H   0  0  0  0  0  0  0  0  0  0  0  0
   51.0950    5.8127   17.8537 H   0  0  0  0  0  0  0  0  0  0  0  0
   47.7513   10.3436   14.1226 H   0  0  0  0  0  0  0  0  0  0  0  0
  2  1  2  0
  3  1  1  0
  4  6  1  0
  5  1  1  0
  6  3  2  0
  7  2  1  0
  8  7  2  0
  9 13  1  0
 10  5  1  0
 11  5  1  0
 12 10  1  0
 13 11  1  0
 14  3  1  0
 15  6  1  0
 16  9  1  0
 17 21  1  0
 18  7  1  0
 19  8  1  0
 20 22  1  0
 21 23  1  0
 22 16  1  0
 23 20  1  0
 24 14  2  0
 25 15  2  0
 26 19  2  0
 27 18  2  0
  9 12  1  0
  8  4  1  0
 24 25  1  0
 27 26  1  0
 29 28  2  0
 30 28  1  0
 31 33  1  0
 32 28  1  0
 33 30  2  0
 34 29  1  0
 35 34  2  0
 36 40  1  0
 37 32  1  0
 38 32  1  0
 39 37  1  0
 40 38  1  0
 41 30  1  0
 42 33  1  0
 43 36  1  0
 44 48  1  0
 45 34  1  0
 46 35  1  0
 47 49  1  0
 48 50  1  0
 49 43  1  0
 50 47  1  0
 51 41  2  0
 52 42  2  0
 53 46  2  0
 54 45  2  0
 36 39  1  0
 35 31  1  0
 51 52  1  0
 54 53  1  0
 56 58  1  0
 57 55  1  0
 58 57  2  0
 59 55  2  0
 60 56  2  0
 61 55  1  0
 62 56  1  0
 10 63  1  0
 10 64  1  0
 11 65  1  0
 11 66  1  0
 12 67  1  0
 12 68  1  0
 13 69  1  0
 13 70  1  0
 14 71  1  0
 15 72  1  0
 16 73  1  0
 16 74  1  0
 17 75  1  0
 18 76  1  0
 19 77  1  0
 21 78  1  0
 21 79  1  0
 22 80  1  0
 22 81  1  0
 23 82  1  0
 23 83  1  0
 24 84  1  0
 25 85  1  0
 26 86  1  0
 27 87  1  0
 37 88  1  0
 37 89  1  0
 38 90  1  0
 38 91  1  0
 39 92  1  0
 39 93  1  0
 40 94  1  0
 40 95  1  0
 41 96  1  0
 42 97  1  0
 43 98  1  0
 43 99  1  0
 44100  1  0
 45101  1  0
 46102  1  0
 48103  1  0
 48104  1  0
 49105  1  0
 49106  1  0
 50107  1  0
 50108  1  0
 51109  1  0
 52110  1  0
 53111  1  0
 54112  1  0
 57113  1  0
 58114  1  0
 61115  1  0
 62116  1  0
M  END
> <Uni-Dock RESULT> 
ENERGY=   -4.699  LOWER_BOUND=    4.221  UPPER_BOUND=    7.436
INTER + INTRA:          -4.699
INTER:                  -4.699
INTRA:                   0.000
UNBOUND:                 0.000

$$$$

     RDKit          3D

116121  0  0  0  0  0  0  0  0999 V2000
   48.6687   13.0698   18.5600 C   0  0  0  0  0  0  0  0  0  0  0  0
   47.9359   11.9860   18.6076 N   0  0  0  0  0  0  0  0  0  0  0  0
   49.5514   13.5101   19.6915 C   0  0  0  0  0  0  0  0  0  0  0  0
   50.7399   10.9788   19.7088 S   0  0  0  0  0  0  0  0  0  0  0  0
   48.6067   13.8750   17.4141 N   0  0  0  0  0  0  0  0  0  0  0  0
   50.5526   12.6834   20.2126 C   0  0  0  0  0  0  0  0  0  0  0  0
   47.9370   11.0725   19.6818 C   0  0  0  0  0  0  0  0  0  0  0  0
   49.0932   10.4629   20.2050 C   0  0  0  0  0  0  0  0  0  0  0  0
   49.0974   14.3879   14.4954 N   0  0  0  0  0  0  0  0  0  0  0  0
   49.7579   14.6778   16.9538 C   0  0  0  0  0  0  0  0  0  0  0  0
   47.6442   13.5174   16.3462 C   0  0  0  0  0  0  0  0  0  0  0  0
   50.1678   14.3067   15.5099 C   0  0  0  0  0  0  0  0  0  0  0  0
   47.7615   14.4499   15.1243 C   0  0  0  0  0  0  0  0  0  0  0  0
   49.3760   14.8113   20.1844 C   0  0  0  0  0  0  0  0  0  0  0  0
   51.3960   13.1858   21.2120 C   0  0  0  0  0  0  0  0  0  0  0  0
   49.3219   15.4711   13.5230 C   0  0  0  0  0  0  0  0  0  0  0  0
   48.4427   17.9247   10.3020 O   0  0  0  0  0  0  0  0  0  0  0  0
   46.6928   10.6651   20.1669 C   0  0  0  0  0  0  0  0  0  0  0  0
   48.9843    9.4666   21.1841 C   0  0  0  0  0  0  0  0  0  0  0  0
   47.1341   16.1440   12.5718 O   0  0  0  0  0  0  0  0  0  0  0  0
   47.1398   17.9325   10.8843 C   0  0  0  0  0  0  0  0  0  0  0  0
   48.3529   15.4401   12.3231 C   0  0  0  0  0  0  0  0  0  0  0  0
   47.2130   17.5580   12.3668 C   0  0  0  0  0  0  0  0  0  0  0  0
   50.2007   15.2883   21.1981 C   0  0  0  0  0  0  0  0  0  0  0  0
   51.2171   14.4822   21.7042 C   0  0  0  0  0  0  0  0  0  0  0  0
   47.7349    9.0782   21.6592 C   0  0  0  0  0  0  0  0  0  0  0  0
   46.5857    9.6813   21.1541 C   0  0  0  0  0  0  0  0  0  0  0  0
   48.9880   13.4052   18.8390 C   0  0  0  0  0  0  0  0  0  0  0  0
   49.2385   13.9080   20.0203 N   0  0  0  0  0  0  0  0  0  0  0  0
   48.6899   11.9542   18.5790 C   0  0  0  0  0  0  0  0  0  0  0  0
   46.7949   11.9782   20.6401 S   0  0  0  0  0  0  0  0  0  0  0  0
   49.0419   14.2506   17.7194 N   0  0  0  0  0  0  0  0  0  0  0  0
   47.6941   11.2573   19.2776 C   0  0  0  0  0  0  0  0  0  0  0  0
   49.2578   13.1698   21.2164 C   0  0  0  0  0  0  0  0  0  0  0  0
   48.2201   12.3302   21.6608 C   0  0  0  0  0  0  0  0  0  0  0  0
   48.8866   16.2577   15.5589 N   0  0  0  0  0  0  0  0  0  0  0  0
   47.8848   14.2883   16.7929 C   0  0  0  0  0  0  0  0  0  0  0  0
   49.6371   15.5935   17.8846 C   0  0  0  0  0  0  0  0  0  0  0  0
   48.2791   14.9114   15.4355 C   0  0  0  0  0  0  0  0  0  0  0  0
   50.0214   16.1771   16.5097 C   0  0  0  0  0  0  0  0  0  0  0  0
   49.4050   11.3109   17.5552 C   0  0  0  0  0  0  0  0  0  0  0  0
   47.4209    9.9271   18.9336 C   0  0  0  0  0  0  0  0  0  0  0  0
   49.3560   16.7698   14.2500 C   0  0  0  0  0  0  0  0  0  0  0  0
   48.2481   15.8541    9.4973 O   0  0  0  0  0  0  0  0  0  0  0  0
   50.3630   13.3646   22.0525 C   0  0  0  0  0  0  0  0  0  0  0  0
   48.3077   11.7029   22.9108 C   0  0  0  0  0  0  0  0  0  0  0  0
   47.9640   15.8607   12.4754 O   0  0  0  0  0  0  0  0  0  0  0  0
   47.3954   16.7224   10.2375 C   0  0  0  0  0  0  0  0  0  0  0  0
   48.2323   17.0398   13.2367 C   0  0  0  0  0  0  0  0  0  0  0  0
   46.9131   16.0348   11.5178 C   0  0  0  0  0  0  0  0  0  0  0  0
   49.1350    9.9834   17.2305 C   0  0  0  0  0  0  0  0  0  0  0  0
   48.1363    9.2934   17.9161 C   0  0  0  0  0  0  0  0  0  0  0  0
   49.4202   11.9016   23.7240 C   0  0  0  0  0  0  0  0  0  0  0  0
   50.4491   12.7354   23.2960 C   0  0  0  0  0  0  0  0  0  0  0  0
   48.6368   13.9361   18.8262 C   0  0  0  0  0  0  0  0  0  0  0  0
   48.6026   14.1537   15.0025 C   0  0  0  0  0  0  0  0  0  0  0  0
   48.2748   14.2640   17.4466 C   0  0  0  0  0  0  0  0  0  0  0  0
   48.9780   13.8460   16.3852 C   0  0  0  0  0  0  0  0  0  0  0  0
   47.9815   14.2534   19.8048 O   0  0  0  0  0  0  0  0  0  0  0  0
   49.2092   13.7648   14.0222 O   0  0  0  0  0  0  0  0  0  0  0  0
   49.7767   13.2411   18.9377 O   0  0  0  0  0  0  0  0  0  0  0  0
   47.4999   14.9127   14.8981 O   0  0  0  0  0  0  0  0  0  0  0  0
   49.4963   15.7407   17.0104 H   0  0  0  0  0  0  0  0  0  0  0  0
   50.6344   14.5282   17.5917 H   0  0  0  0  0  0  0  0  0  0  0  0
   46.6240   13.5916   16.7369 H   0  0  0  0  0  0  0  0  0  0  0  0
   47.8101   12.4812   16.0276 H   0  0  0  0  0  0  0  0  0  0  0  0
   50.5063   13.2601   15.5133 H   0  0  0  0  0  0  0  0  0  0  0  0
   51.0425   14.9058   15.2256 H   0  0  0  0  0  0  0  0  0  0  0  0
   47.5372   15.4773   15.4416 H   0  0  0  0  0  0  0  0  0  0  0  0
   47.0005   14.1541   14.3917 H   0  0  0  0  0  0  0  0  0  0  0  0
   48.5849   15.4381   19.7781 H   0  0  0  0  0  0  0  0  0  0  0  0
   52.1749   12.5586   21.6377 H   0  0  0  0  0  0  0  0  0  0  0  0
   50.3275   15.3333   13.1094 H   0  0  0  0  0  0  0  0  0  0  0  0
   49.3026   16.4462   14.0242 H   0  0  0  0  0  0  0  0  0  0  0  0
   48.3223   17.9581    9.3375 H   0  0  0  0  0  0  0  0  0  0  0  0
   45.7928   11.1059   19.7489 H   0  0  0  0  0  0  0  0  0  0  0  0
   49.8798    8.9982   21.5863 H   0  0  0  0  0  0  0  0  0  0  0  0
   46.7479   18.9505   10.7723 H   0  0  0  0  0  0  0  0  0  0  0  0
   46.5066   17.2334   10.3260 H   0  0  0  0  0  0  0  0  0  0  0  0
   48.0797   14.4043   12.1005 H   0  0  0  0  0  0  0  0  0  0  0  0
   48.8480   15.8202   11.4288 H   0  0  0  0  0  0  0  0  0  0  0  0
   48.1045   17.9699   12.8533 H   0  0  0  0  0  0  0  0  0  0  0  0
   46.3321   17.9799   12.8653 H   0  0  0  0  0  0  0  0  0  0  0  0
   50.0555   16.2938   21.5870 H   0  0  0  0  0  0  0  0  0  0  0  0
   51.8733   14.8573   22.4882 H   0  0  0  0  0  0  0  0  0  0  0  0
   47.6575    8.3010   22.4108 H   0  0  0  0  0  0  0  0  0  0  0  0
   45.6107    9.3774   21.5144 H   0  0  0  0  0  0  0  0  0  0  0  0
   47.4973   13.2812   16.6025 H   0  0  0  0  0  0  0  0  0  0  0  0
   47.0744   14.8688   17.2560 H   0  0  0  0  0  0  0  0  0  0  0  0
   48.9301   16.2539   18.4037 H   0  0  0  0  0  0  0  0  0  0  0  0
   50.5492   15.5325   18.4902 H   0  0  0  0  0  0  0  0  0  0  0  0
   48.9669   14.2251   14.9252 H   0  0  0  0  0  0  0  0  0  0  0  0
   47.3679   14.9601   14.8312 H   0  0  0  0  0  0  0  0  0  0  0  0
   50.8187   15.5574   16.0849 H   0  0  0  0  0  0  0  0  0  0  0  0
   50.4340   17.1798   16.6729 H   0  0  0  0  0  0  0  0  0  0  0  0
   50.1686   11.8560   17.0040 H   0  0  0  0  0  0  0  0  0  0  0  0
   46.6537    9.3718   19.4677 H   0  0  0  0  0  0  0  0  0  0  0  0
   49.8682   17.7239   14.4283 H   0  0  0  0  0  0  0  0  0  0  0  0
   50.0898   16.0779   13.8140 H   0  0  0  0  0  0  0  0  0  0  0  0
   48.5432   16.3370    8.7059 H   0  0  0  0  0  0  0  0  0  0  0  0
   51.1606   14.0238   21.7216 H   0  0  0  0  0  0  0  0  0  0  0  0
   47.5163   11.0403   23.2541 H   0  0  0  0  0  0  0  0  0  0  0  0
   46.5390   16.9671    9.6013 H   0  0  0  0  0  0  0  0  0  0  0  0
   47.9536   17.6374   10.4546 H   0  0  0  0  0  0  0  0  0  0  0  0
   48.5581   17.8355   12.5614 H   0  0  0  0  0  0  0  0  0  0  0  0
   47.3225   17.3764   13.7414 H   0  0  0  0  0  0  0  0  0  0  0  0
   46.5488   15.0331   11.2749 H   0  0  0  0  0  0  0  0  0  0  0  0
   46.0850   16.5879   11.9754 H   0  0  0  0  0  0  0  0  0  0  0  0
   49.7028    9.4918   16.4459 H   0  0  0  0  0  0  0  0  0  0  0  0
   47.9156    8.2590   17.6601 H   0  0  0  0  0  0  0  0  0  0  0  0
   49.4805   11.4130   24.6933 H   0  0  0  0  0  0  0  0  0  0  0  0
   51.3168   12.9035   23.9274 H   0  0  0  0  0  0  0  0  0  0  0  0
   47.3752   14.8632   17.3513 H   0  0  0  0  0  0  0  0  0  0  0  0
   49.8751   13.2435   16.4828 H   0  0  0  0  0  0  0  0  0  0  0  0
   49.8584   13.0715   19.9034 H   0  0  0  0  0  0  0  0  0  0  0  0
   47.3708   15.0099   13.9297 H   0  0  0  0  0  0  0  0  0  0  0  0
  2  1  2  0
  3  1  1  0
  4  6  1  0
  5  1  1  0
  6  3  2  0
  7  2  1  0
  8  7  2  0
  9 13  1  0
 10  5  1  0
 11  5  1  0
 12 10  1  0
 13 11  1  0
 14  3  1  0
 15  6  1  0
 16  9  1  0
 17 21  1  0
 18  7  1  0
 19  8  1  0
 20 22  1  0
 21 23  1  0
 22 16  1  0
 23 20  1  0
 24 14  2  0
 25 15  2  0
 26 19  2  0
 27 18  2  0
  9 12  1  0
  8  4  1  0
 24 25  1  0
 27 26  1  0
 29 28  2  0
 30 28  1  0
 31 33  1  0
 32 28  1  0
 33 30  2  0
 34 29  1  0
 35 34  2  0
 36 40  1  0
 37 32  1  0
 38 32  1  0
 39 37  1  0
 40 38  1  0
 41 30  1  0
 42 33  1  0
 43 36  1  0
 44 48  1  0
 45 34  1  0
 46 35  1  0
 47 49  1  0
 48 50  1  0
 49 43  1  0
 50 47  1  0
 51 41  2  0
 52 42  2  0
 53 46  2  0
 54 45  2  0
 36 39  1  0
 35 31  1  0
 51 52  1  0
 54 53  1  0
 56 58  1  0
 57 55  1  0
 58 57  2  0
 59 55  2  0
 60 56  2  0
 61 55  1  0
 62 56  1  0
 10 63  1  0
 10 64  1  0
 11 65  1  0
 11 66  1  0
 12 67  1  0
 12 68  1  0
 13 69  1  0
 13 70  1  0
 14 71  1  0
 15 72  1  0
 16 73  1  0
 16 74  1  0
 17 75  1  0
 18 76  1  0
 19 77  1  0
 21 78  1  0
 21 79  1  0
 22 80  1  0
 22 81  1  0
 23 82  1  0
 23 83  1  0
 24 84  1  0
 25 85  1  0
 26 86  1  0
 27 87  1  0
 37 88  1  0
 37 89  1  0
 38 90  1  0
 38 91  1  0
 39 92  1  0
 39 93  1  0
 40 94  1  0
 40 95  1  0
 41 96  1  0
 42 97  1  0
 43 98  1  0
 43 99  1  0
 44100  1  0
 45101  1  0
 46102  1  0
 48103  1  0
 48104  1  0
 49105  1  0
 49106  1  0
 50107  1  0
 50108  1  0
 51109  1  0
 52110  1  0
 53111  1  0
 54112  1  0
 57113  1  0
 58114  1  0
 61115  1  0
 62116  1  0
M  END
> <Uni-Dock RESULT> 
ENERGY=   -4.699  LOWER_BOUND=    6.451  UPPER_BOUND=    9.705
INTER + INTRA:          -4.699
INTER:                  -4.699
INTRA:                   0.000
UNBOUND:                 0.000

$$$$

     RDKit          3D

116121  0  0  0  0  0  0  0  0999 V2000
   49.9030   11.5879   12.7472 C   0  0  0  0  0  0  0  0  0  0  0  0
   49.3366   12.7639   12.8489 N   0  0  0  0  0  0  0  0  0  0  0  0
   51.3888   11.3872   12.8196 C   0  0  0  0  0  0  0  0  0  0  0  0
   51.4298   12.7911   15.2378 S   0  0  0  0  0  0  0  0  0  0  0  0
   49.0910   10.4658   12.5309 N   0  0  0  0  0  0  0  0  0  0  0  0
   52.1393   11.8126   13.9211 C   0  0  0  0  0  0  0  0  0  0  0  0
   50.0339   13.9622   13.1057 C   0  0  0  0  0  0  0  0  0  0  0  0
   50.9117   14.1539   14.1898 C   0  0  0  0  0  0  0  0  0  0  0  0
   47.0026    8.4884   13.3977 N   0  0  0  0  0  0  0  0  0  0  0  0
   49.4568    9.1232   13.0263 C   0  0  0  0  0  0  0  0  0  0  0  0
   47.6373   10.6690   12.3312 C   0  0  0  0  0  0  0  0  0  0  0  0
   48.3674    8.5460   13.9594 C   0  0  0  0  0  0  0  0  0  0  0  0
   46.8792    9.3339   12.1920 C   0  0  0  0  0  0  0  0  0  0  0  0
   52.0050   10.7056   11.7602 C   0  0  0  0  0  0  0  0  0  0  0  0
   53.5087   11.5204   13.9633 C   0  0  0  0  0  0  0  0  0  0  0  0
   46.5407    7.1074   13.1768 C   0  0  0  0  0  0  0  0  0  0  0  0
   43.9503    4.1238   11.9293 O   0  0  0  0  0  0  0  0  0  0  0  0
   49.7309   15.0569   12.2938 C   0  0  0  0  0  0  0  0  0  0  0  0
   51.4561   15.4201   14.4418 C   0  0  0  0  0  0  0  0  0  0  0  0
   44.8052    7.1291   11.4072 O   0  0  0  0  0  0  0  0  0  0  0  0
   43.7923    4.9740   10.7941 C   0  0  0  0  0  0  0  0  0  0  0  0
   45.0458    7.0030   12.8104 C   0  0  0  0  0  0  0  0  0  0  0  0
   44.9880    5.9208   10.6628 C   0  0  0  0  0  0  0  0  0  0  0  0
   53.3715   10.4477   11.7999 C   0  0  0  0  0  0  0  0  0  0  0  0
   54.1215   10.8436   12.9044 C   0  0  0  0  0  0  0  0  0  0  0  0
   51.1462   16.4978   13.6172 C   0  0  0  0  0  0  0  0  0  0  0  0
   50.2858   16.3166   12.5373 C   0  0  0  0  0  0  0  0  0  0  0  0
   50.3704   11.3202   12.7026 C   0  0  0  0  0  0  0  0  0  0  0  0
   51.5975   11.3783   12.2533 N   0  0  0  0  0  0  0  0  0  0  0  0
   49.6805   12.4370   13.4364 C   0  0  0  0  0  0  0  0  0  0  0  0
   50.4713   14.2327   11.4388 S   0  0  0  0  0  0  0  0  0  0  0  0
   49.6473   10.1278   12.5406 N   0  0  0  0  0  0  0  0  0  0  0  0
   49.6154   13.7409   12.9256 C   0  0  0  0  0  0  0  0  0  0  0  0
   52.4453   12.4921   12.3831 C   0  0  0  0  0  0  0  0  0  0  0  0
   52.1144   13.8044   11.9989 C   0  0  0  0  0  0  0  0  0  0  0  0
   48.2064    7.6567   11.8069 N   0  0  0  0  0  0  0  0  0  0  0  0
   48.3034   10.1833   11.9164 C   0  0  0  0  0  0  0  0  0  0  0  0
   50.3813    8.9158   12.1199 C   0  0  0  0  0  0  0  0  0  0  0  0
   47.5005    8.8964   12.2090 C   0  0  0  0  0  0  0  0  0  0  0  0
   49.5500    7.6552   12.4340 C   0  0  0  0  0  0  0  0  0  0  0  0
   49.0345   12.1273   14.6447 C   0  0  0  0  0  0  0  0  0  0  0  0
   48.8944   14.7154   13.6278 C   0  0  0  0  0  0  0  0  0  0  0  0
   47.4568    6.4435   12.2093 C   0  0  0  0  0  0  0  0  0  0  0  0
   42.7170    5.4112   13.2690 O   0  0  0  0  0  0  0  0  0  0  0  0
   53.7393   12.2404   12.8525 C   0  0  0  0  0  0  0  0  0  0  0  0
   53.0660   14.8284   12.0969 C   0  0  0  0  0  0  0  0  0  0  0  0
   45.0739    6.9282   12.2231 O   0  0  0  0  0  0  0  0  0  0  0  0
   43.1072    5.4782   11.9007 C   0  0  0  0  0  0  0  0  0  0  0  0
   46.1086    6.2664   11.4928 C   0  0  0  0  0  0  0  0  0  0  0  0
   43.7872    6.8176   11.6035 C   0  0  0  0  0  0  0  0  0  0  0  0
   48.3318   13.1073   15.3423 C   0  0  0  0  0  0  0  0  0  0  0  0
   48.2559   14.4012   14.8287 C   0  0  0  0  0  0  0  0  0  0  0  0
   54.3454   14.5597   12.5758 C   0  0  0  0  0  0  0  0  0  0  0  0
   54.6843   13.2634   12.9524 C   0  0  0  0  0  0  0  0  0  0  0  0
   50.3035   11.0671   12.1222 C   0  0  0  0  0  0  0  0  0  0  0  0
   47.1294    9.1258   13.0312 C   0  0  0  0  0  0  0  0  0  0  0  0
   49.0399   10.3333   12.0386 C   0  0  0  0  0  0  0  0  0  0  0  0
   48.4067    9.8397   13.1115 C   0  0  0  0  0  0  0  0  0  0  0  0
   50.8687   11.5772   11.1694 O   0  0  0  0  0  0  0  0  0  0  0  0
   46.5225    8.6913   13.9919 O   0  0  0  0  0  0  0  0  0  0  0  0
   50.8088   11.1382   13.3609 O   0  0  0  0  0  0  0  0  0  0  0  0
   46.6627    8.9926   11.7791 O   0  0  0  0  0  0  0  0  0  0  0  0
   49.6112    8.4573   12.1695 H   0  0  0  0  0  0  0  0  0  0  0  0
   50.3942    9.1435   13.5907 H   0  0  0  0  0  0  0  0  0  0  0  0
   47.4740   11.2523   11.4191 H   0  0  0  0  0  0  0  0  0  0  0  0
   47.2215   11.2347   13.1738 H   0  0  0  0  0  0  0  0  0  0  0  0
   48.3052    9.1932   14.8467 H   0  0  0  0  0  0  0  0  0  0  0  0
   48.6978    7.5650   14.3242 H   0  0  0  0  0  0  0  0  0  0  0  0
   47.2629    8.8004   11.3118 H   0  0  0  0  0  0  0  0  0  0  0  0
   45.8205    9.5569   12.0108 H   0  0  0  0  0  0  0  0  0  0  0  0
   51.4107   10.3921   10.9044 H   0  0  0  0  0  0  0  0  0  0  0  0
   54.1131   11.8487   14.8049 H   0  0  0  0  0  0  0  0  0  0  0  0
   46.6634    6.5684   14.1231 H   0  0  0  0  0  0  0  0  0  0  0  0
   47.1688    6.6081   12.4295 H   0  0  0  0  0  0  0  0  0  0  0  0
   43.0894    3.7005   12.0886 H   0  0  0  0  0  0  0  0  0  0  0  0
   49.0311   14.9284   11.4735 H   0  0  0  0  0  0  0  0  0  0  0  0
   52.1342   15.5642   15.2799 H   0  0  0  0  0  0  0  0  0  0  0  0
   43.7305    4.3217    9.9149 H   0  0  0  0  0  0  0  0  0  0  0  0
   42.8533    5.5286   10.9047 H   0  0  0  0  0  0  0  0  0  0  0  0
   44.4923    7.8101   13.2996 H   0  0  0  0  0  0  0  0  0  0  0  0
   44.6271    6.0729   13.1965 H   0  0  0  0  0  0  0  0  0  0  0  0
   45.9311    5.4357   10.9389 H   0  0  0  0  0  0  0  0  0  0  0  0
   45.0618    6.2274    9.6125 H   0  0  0  0  0  0  0  0  0  0  0  0
   53.8496    9.9290   10.9719 H   0  0  0  0  0  0  0  0  0  0  0  0
   55.1888   10.6311   12.9451 H   0  0  0  0  0  0  0  0  0  0  0  0
   51.5645   17.4765   13.8229 H   0  0  0  0  0  0  0  0  0  0  0  0
   50.0351   17.1534   11.8973 H   0  0  0  0  0  0  0  0  0  0  0  0
   47.7263   11.0346   12.2943 H   0  0  0  0  0  0  0  0  0  0  0  0
   48.4180   10.3209   10.8320 H   0  0  0  0  0  0  0  0  0  0  0  0
   50.6122    8.9725   11.0479 H   0  0  0  0  0  0  0  0  0  0  0  0
   51.3291    8.8374   12.6657 H   0  0  0  0  0  0  0  0  0  0  0  0
   47.2617    8.8721   13.2799 H   0  0  0  0  0  0  0  0  0  0  0  0
   46.5515    8.9843   11.6709 H   0  0  0  0  0  0  0  0  0  0  0  0
   49.4522    7.5712   13.5219 H   0  0  0  0  0  0  0  0  0  0  0  0
   50.1158    6.7832   12.0849 H   0  0  0  0  0  0  0  0  0  0  0  0
   49.0738   11.1121   15.0342 H   0  0  0  0  0  0  0  0  0  0  0  0
   48.8368   15.7320   13.2466 H   0  0  0  0  0  0  0  0  0  0  0  0
   48.0739    5.5709   11.9597 H   0  0  0  0  0  0  0  0  0  0  0  0
   47.3020    6.4377   13.2970 H   0  0  0  0  0  0  0  0  0  0  0  0
   42.3081    4.5405   13.4152 H   0  0  0  0  0  0  0  0  0  0  0  0
   54.0057   11.2262   13.1364 H   0  0  0  0  0  0  0  0  0  0  0  0
   52.8124   15.8483   11.8162 H   0  0  0  0  0  0  0  0  0  0  0  0
   42.2025    5.3774   11.2929 H   0  0  0  0  0  0  0  0  0  0  0  0
   43.7709    4.6331   11.6981 H   0  0  0  0  0  0  0  0  0  0  0  0
   45.8821    5.1982   11.4391 H   0  0  0  0  0  0  0  0  0  0  0  0
   46.1543    6.6538   10.4711 H   0  0  0  0  0  0  0  0  0  0  0  0
   43.1790    7.6299   12.0099 H   0  0  0  0  0  0  0  0  0  0  0  0
   43.8824    6.9815   10.5240 H   0  0  0  0  0  0  0  0  0  0  0  0
   47.8467   12.8600   16.2821 H   0  0  0  0  0  0  0  0  0  0  0  0
   47.7007   15.1680   15.3654 H   0  0  0  0  0  0  0  0  0  0  0  0
   55.0790   15.3589   12.6475 H   0  0  0  0  0  0  0  0  0  0  0  0
   55.6827   13.0426   13.3187 H   0  0  0  0  0  0  0  0  0  0  0  0
   48.6463   10.2351   11.0323 H   0  0  0  0  0  0  0  0  0  0  0  0
   48.8003    9.9426   14.1174 H   0  0  0  0  0  0  0  0  0  0  0  0
   51.6213   11.6831   13.2555 H   0  0  0  0  0  0  0  0  0  0  0  0
   45.8083    8.5229   11.8942 H   0  0  0  0  0  0  0  0  0  0  0  0
  2  1  2  0
  3  1  1  0
  4  6  1  0
  5  1  1  0
  6  3  2  0
  7  2  1  0
  8  7  2  0
  9 13  1  0
 10  5  1  0
 11  5  1  0
 12 10  1  0
 13 11  1  0
 14  3  1  0
 15  6  1  0
 16  9  1  0
 17 21  1  0
 18  7  1  0
 19  8  1  0
 20 22  1  0
 21 23  1  0
 22 16  1  0
 23 20  1  0
 24 14  2  0
 25 15  2  0
 26 19  2  0
 27 18  2  0
  9 12  1  0
  8  4  1  0
 24 25  1  0
 27 26  1  0
 29 28  2  0
 30 28  1  0
 31 33  1  0
 32 28  1  0
 33 30  2  0
 34 29  1  0
 35 34  2  0
 36 40  1  0
 37 32  1  0
 38 32  1  0
 39 37  1  0
 40 38  1  0
 41 30  1  0
 42 33  1  0
 43 36  1  0
 44 48  1  0
 45 34  1  0
 46 35  1  0
 47 49  1  0
 48 50  1  0
 49 43  1  0
 50 47  1  0
 51 41  2  0
 52 42  2  0
 53 46  2  0
 54 45  2  0
 36 39  1  0
 35 31  1  0
 51 52  1  0
 54 53  1  0
 56 58  1  0
 57 55  1  0
 58 57  2  0
 59 55  2  0
 60 56  2  0
 61 55  1  0
 62 56  1  0
 10 63  1  0
 10 64  1  0
 11 65  1  0
 11 66  1  0
 12 67  1  0
 12 68  1  0
 13 69  1  0
 13 70  1  0
 14 71  1  0
 15 72  1  0
 16 73  1  0
 16 74  1  0
 17 75  1  0
 18 76  1  0
 19 77  1  0
 21 78  1  0
 21 79  1  0
 22 80  1  0
 22 81  1  0
 23 82  1  0
 23 83  1  0
 24 84  1  0
 25 85  1  0
 26 86  1  0
 27 87  1  0
 37 88  1  0
 37 89  1  0
 38 90  1  0
 38 91  1  0
 39 92  1  0
 39 93  1  0
 40 94  1  0
 40 95  1  0
 41 96  1  0
 42 97  1  0
 43 98  1  0
 43 99  1  0
 44100  1  0
 45101  1  0
 46102  1  0
 48103  1  0
 48104  1  0
 49105  1  0
 49106  1  0
 50107  1  0
 50108  1  0
 51109  1  0
 52110  1  0
 53111  1  0
 54112  1  0
 57113  1  0
 58114  1  0
 61115  1  0
 62116  1  0
M  END
> <Uni-Dock RESULT> 
ENERGY=   -4.656  LOWER_BOUND=    2.149  UPPER_BOUND=    3.143
INTER + INTRA:          -4.656
INTER:                  -4.656
INTRA:                   0.000
UNBOUND:                 0.000

$$$$

     RDKit          3D

116121  0  0  0  0  0  0  0  0999 V2000
   49.9209   10.0603   14.7872 C   0  0  0  0  0  0  0  0  0  0  0  0
   50.7024    9.4971   15.6738 N   0  0  0  0  0  0  0  0  0  0  0  0
   50.0763   11.4877   14.3498 C   0  0  0  0  0  0  0  0  0  0  0  0
   52.7663   10.9861   13.7731 S   0  0  0  0  0  0  0  0  0  0  0  0
   48.8712    9.3088   14.2408 N   0  0  0  0  0  0  0  0  0  0  0  0
   51.2742   11.9694   13.8108 C   0  0  0  0  0  0  0  0  0  0  0  0
   51.8144   10.1285   16.2680 C   0  0  0  0  0  0  0  0  0  0  0  0
   52.8614   10.7358   15.5486 C   0  0  0  0  0  0  0  0  0  0  0  0
   47.8066    7.0580   12.5605 N   0  0  0  0  0  0  0  0  0  0  0  0
   48.3703    9.5379   12.8702 C   0  0  0  0  0  0  0  0  0  0  0  0
   48.6317    7.9418   14.7590 C   0  0  0  0  0  0  0  0  0  0  0  0
   48.4679    8.2578   12.0087 C   0  0  0  0  0  0  0  0  0  0  0  0
   47.5007    7.2230   13.9969 C   0  0  0  0  0  0  0  0  0  0  0  0
   48.9551   12.3241   14.4500 C   0  0  0  0  0  0  0  0  0  0  0  0
   51.3270   13.2895   13.3453 C   0  0  0  0  0  0  0  0  0  0  0  0
   46.6339    6.6458   11.7704 C   0  0  0  0  0  0  0  0  0  0  0  0
   43.2926    4.3820   10.8324 O   0  0  0  0  0  0  0  0  0  0  0  0
   51.9306   10.0307   17.6559 C   0  0  0  0  0  0  0  0  0  0  0  0
   53.9915   11.2200   16.2205 C   0  0  0  0  0  0  0  0  0  0  0  0
   45.1037    5.3632   13.2392 O   0  0  0  0  0  0  0  0  0  0  0  0
   43.0348    4.4972   12.2313 C   0  0  0  0  0  0  0  0  0  0  0  0
   46.0593    5.2739   12.1802 C   0  0  0  0  0  0  0  0  0  0  0  0
   43.7789    5.7003   12.8164 C   0  0  0  0  0  0  0  0  0  0  0  0
   49.0289   13.6423   14.0118 C   0  0  0  0  0  0  0  0  0  0  0  0
   50.2088   14.1226   13.4494 C   0  0  0  0  0  0  0  0  0  0  0  0
   54.0859   11.1183   17.6056 C   0  0  0  0  0  0  0  0  0  0  0  0
   53.0518   10.5271   18.3270 C   0  0  0  0  0  0  0  0  0  0  0  0
   49.7823   10.5228   14.5443 C   0  0  0  0  0  0  0  0  0  0  0  0
   49.6994   11.8208   14.6834 N   0  0  0  0  0  0  0  0  0  0  0  0
   50.9553    9.6938   14.9900 C   0  0  0  0  0  0  0  0  0  0  0  0
   50.8784   10.9396   17.4964 S   0  0  0  0  0  0  0  0  0  0  0  0
   48.7380    9.8446   13.8960 N   0  0  0  0  0  0  0  0  0  0  0  0
   51.4674    9.7604   16.2933 C   0  0  0  0  0  0  0  0  0  0  0  0
   50.6875   12.6269   15.2750 C   0  0  0  0  0  0  0  0  0  0  0  0
   51.2528   12.4059   16.5442 C   0  0  0  0  0  0  0  0  0  0  0  0
   46.2986    8.5867   12.8063 N   0  0  0  0  0  0  0  0  0  0  0  0
   48.1124    8.6806   14.5686 C   0  0  0  0  0  0  0  0  0  0  0  0
   47.7310   10.6438   13.1665 C   0  0  0  0  0  0  0  0  0  0  0  0
   47.3155    7.8195   13.5638 C   0  0  0  0  0  0  0  0  0  0  0  0
   46.9629    9.7504   12.1713 C   0  0  0  0  0  0  0  0  0  0  0  0
   51.5032    8.7846   14.0700 C   0  0  0  0  0  0  0  0  0  0  0  0
   52.5158    8.9070   16.6607 C   0  0  0  0  0  0  0  0  0  0  0  0
   45.6389    7.7530   11.7740 C   0  0  0  0  0  0  0  0  0  0  0  0
   44.9266    2.8867   11.0913 O   0  0  0  0  0  0  0  0  0  0  0  0
   51.0608   13.7761   14.5692 C   0  0  0  0  0  0  0  0  0  0  0  0
   52.1738   13.3195   17.0741 C   0  0  0  0  0  0  0  0  0  0  0  0
   45.5933    5.4355   12.5090 O   0  0  0  0  0  0  0  0  0  0  0  0
   44.0578    3.5812   11.9811 C   0  0  0  0  0  0  0  0  0  0  0  0
   44.7884    6.6037   12.3380 C   0  0  0  0  0  0  0  0  0  0  0  0
   44.8672    4.3244   13.0476 C   0  0  0  0  0  0  0  0  0  0  0  0
   52.5551    7.9501   14.4415 C   0  0  0  0  0  0  0  0  0  0  0  0
   53.0567    8.0068   15.7410 C   0  0  0  0  0  0  0  0  0  0  0  0
   52.5400   14.4521   16.3520 C   0  0  0  0  0  0  0  0  0  0  0  0
   51.9815   14.6829   15.0982 C   0  0  0  0  0  0  0  0  0  0  0  0
   49.1846   10.5885   14.7534 C   0  0  0  0  0  0  0  0  0  0  0  0
   47.9991    7.2717   13.2490 C   0  0  0  0  0  0  0  0  0  0  0  0
   48.4210    9.3708   14.4775 C   0  0  0  0  0  0  0  0  0  0  0  0
   48.7491    8.5034   13.5102 C   0  0  0  0  0  0  0  0  0  0  0  0
   48.9425   11.3624   15.6645 O   0  0  0  0  0  0  0  0  0  0  0  0
   48.2915    6.4563   12.3948 O   0  0  0  0  0  0  0  0  0  0  0  0
   50.1997   10.7966   13.9043 O   0  0  0  0  0  0  0  0  0  0  0  0
   46.9384    7.1037   14.0552 O   0  0  0  0  0  0  0  0  0  0  0  0
   47.3298    9.8785   12.9236 H   0  0  0  0  0  0  0  0  0  0  0  0
   48.9389   10.3208   12.3591 H   0  0  0  0  0  0  0  0  0  0  0  0
   48.3507    7.9980   15.8158 H   0  0  0  0  0  0  0  0  0  0  0  0
   49.5515    7.3492   14.6844 H   0  0  0  0  0  0  0  0  0  0  0  0
   49.5323    7.9998   11.9064 H   0  0  0  0  0  0  0  0  0  0  0  0
   48.1141    8.4861   10.9950 H   0  0  0  0  0  0  0  0  0  0  0  0
   46.5707    7.7933   14.1252 H   0  0  0  0  0  0  0  0  0  0  0  0
   47.3519    6.2364   14.4528 H   0  0  0  0  0  0  0  0  0  0  0  0
   48.0341   11.9392   14.8831 H   0  0  0  0  0  0  0  0  0  0  0  0
   52.2495   13.6877   12.9308 H   0  0  0  0  0  0  0  0  0  0  0  0
   46.9630    6.5425   10.7301 H   0  0  0  0  0  0  0  0  0  0  0  0
   45.8617    7.4237   11.7961 H   0  0  0  0  0  0  0  0  0  0  0  0
   42.9791    3.5034   10.5577 H   0  0  0  0  0  0  0  0  0  0  0  0
   51.1438    9.5367   18.2182 H   0  0  0  0  0  0  0  0  0  0  0  0
   54.7980   11.6889   15.6615 H   0  0  0  0  0  0  0  0  0  0  0  0
   41.9526    4.6326   12.3447 H   0  0  0  0  0  0  0  0  0  0  0  0
   43.3394    3.5634   12.7177 H   0  0  0  0  0  0  0  0  0  0  0  0
   46.8687    4.6308   12.5384 H   0  0  0  0  0  0  0  0  0  0  0  0
   45.6343    4.7687   11.3121 H   0  0  0  0  0  0  0  0  0  0  0  0
   43.7985    6.5500   12.1246 H   0  0  0  0  0  0  0  0  0  0  0  0
   43.2492    6.0163   13.7231 H   0  0  0  0  0  0  0  0  0  0  0  0
   48.1616   14.2927   14.1012 H   0  0  0  0  0  0  0  0  0  0  0  0
   50.2659   15.1499   13.0926 H   0  0  0  0  0  0  0  0  0  0  0  0
   54.9667   11.4877   18.1182 H   0  0  0  0  0  0  0  0  0  0  0  0
   53.1236   10.4382   19.4039 H   0  0  0  0  0  0  0  0  0  0  0  0
   48.8686    8.0405   15.0367 H   0  0  0  0  0  0  0  0  0  0  0  0
   47.4499    9.0425   15.3675 H   0  0  0  0  0  0  0  0  0  0  0  0
   47.0411   11.1152   13.8788 H   0  0  0  0  0  0  0  0  0  0  0  0
   48.2210   11.4402   12.5936 H   0  0  0  0  0  0  0  0  0  0  0  0
   48.0255    7.3410   12.8771 H   0  0  0  0  0  0  0  0  0  0  0  0
   46.8375    7.0203   14.1387 H   0  0  0  0  0  0  0  0  0  0  0  0
   47.6671    9.4046   11.4067 H   0  0  0  0  0  0  0  0  0  0  0  0
   46.2114   10.3726   11.6709 H   0  0  0  0  0  0  0  0  0  0  0  0
   51.0968    8.7235   13.0625 H   0  0  0  0  0  0  0  0  0  0  0  0
   52.9262    8.9483   17.6666 H   0  0  0  0  0  0  0  0  0  0  0  0
   44.9664    8.4024   11.1991 H   0  0  0  0  0  0  0  0  0  0  0  0
   46.3870    7.3525   11.0762 H   0  0  0  0  0  0  0  0  0  0  0  0
   44.3723    2.4467   10.4237 H   0  0  0  0  0  0  0  0  0  0  0  0
   50.6163   13.9603   13.5952 H   0  0  0  0  0  0  0  0  0  0  0  0
   52.6265   13.1471   18.0481 H   0  0  0  0  0  0  0  0  0  0  0  0
   43.4086    2.8393   12.4567 H   0  0  0  0  0  0  0  0  0  0  0  0
   43.4451    4.2655   11.3876 H   0  0  0  0  0  0  0  0  0  0  0  0
   43.9862    6.3851   11.6281 H   0  0  0  0  0  0  0  0  0  0  0  0
   44.3296    6.8865   13.2895 H   0  0  0  0  0  0  0  0  0  0  0  0
   45.6122    3.6470   13.4732 H   0  0  0  0  0  0  0  0  0  0  0  0
   44.2230    4.6665   13.8655 H   0  0  0  0  0  0  0  0  0  0  0  0
   52.9797    7.2598   13.7184 H   0  0  0  0  0  0  0  0  0  0  0  0
   53.8723    7.3507   16.0386 H   0  0  0  0  0  0  0  0  0  0  0  0
   53.2539   15.1574   16.7702 H   0  0  0  0  0  0  0  0  0  0  0  0
   52.2543   15.5683   14.5313 H   0  0  0  0  0  0  0  0  0  0  0  0
   47.5715    9.2178   15.1349 H   0  0  0  0  0  0  0  0  0  0  0  0
   49.6015    8.6565   12.8565 H   0  0  0  0  0  0  0  0  0  0  0  0
   50.6267   11.6168   14.2404 H   0  0  0  0  0  0  0  0  0  0  0  0
   46.5627    6.2413   13.7745 H   0  0  0  0  0  0  0  0  0  0  0  0
  2  1  2  0
  3  1  1  0
  4  6  1  0
  5  1  1  0
  6  3  2  0
  7  2  1  0
  8  7  2  0
  9 13  1  0
 10  5  1  0
 11  5  1  0
 12 10  1  0
 13 11  1  0
 14  3  1  0
 15  6  1  0
 16  9  1  0
 17 21  1  0
 18  7  1  0
 19  8  1  0
 20 22  1  0
 21 23  1  0
 22 16  1  0
 23 20  1  0
 24 14  2  0
 25 15  2  0
 26 19  2  0
 27 18  2  0
  9 12  1  0
  8  4  1  0
 24 25  1  0
 27 26  1  0
 29 28  2  0
 30 28  1  0
 31 33  1  0
 32 28  1  0
 33 30  2  0
 34 29  1  0
 35 34  2  0
 36 40  1  0
 37 32  1  0
 38 32  1  0
 39 37  1  0
 40 38  1  0
 41 30  1  0
 42 33  1  0
 43 36  1  0
 44 48  1  0
 45 34  1  0
 46 35  1  0
 47 49  1  0
 48 50  1  0
 49 43  1  0
 50 47  1  0
 51 41  2  0
 52 42  2  0
 53 46  2  0
 54 45  2  0
 36 39  1  0
 35 31  1  0
 51 52  1  0
 54 53  1  0
 56 58  1  0
 57 55  1  0
 58 57  2  0
 59 55  2  0
 60 56  2  0
 61 55  1  0
 62 56  1  0
 10 63  1  0
 10 64  1  0
 11 65  1  0
 11 66  1  0
 12 67  1  0
 12 68  1  0
 13 69  1  0
 13 70  1  0
 14 71  1  0
 15 72  1  0
 16 73  1  0
 16 74  1  0
 17 75  1  0
 18 76  1  0
 19 77  1  0
 21 78  1  0
 21 79  1  0
 22 80  1  0
 22 81  1  0
 23 82  1  0
 23 83  1  0
 24 84  1  0
 25 85  1  0
 26 86  1  0
 27 87  1  0
 37 88  1  0
 37 89  1  0
 38 90  1  0
 38 91  1  0
 39 92  1  0
 39 93  1  0
 40 94  1  0
 40 95  1  0
 41 96  1  0
 42 97  1  0
 43 98  1  0
 43 99  1  0
 44100  1  0
 45101  1  0
 46102  1  0
 48103  1  0
 48104  1  0
 49105  1  0
 49106  1  0
 50107  1  0
 50108  1  0
 51109  1  0
 52110  1  0
 53111  1  0
 54112  1  0
 57113  1  0
 58114  1  0
 61115  1  0
 62116  1  0
M  END
> <Uni-Dock RESULT> 
ENERGY=   -4.652  LOWER_BOUND=    2.153  UPPER_BOUND=    4.130
INTER + INTRA:          -4.652
INTER:                  -4.652
INTRA:                   0.000
UNBOUND:                 0.000

$$$$
