
     RDKit          3D

116121  0  0  0  0  0  0  0  0999 V2000
   50.7506    7.4756   15.7151 C   0  0  0  0  0  0  0  0  0  0  0  0
   49.6635    6.7881   15.4864 N   0  0  0  0  0  0  0  0  0  0  0  0
   51.1081    8.7305   14.9742 C   0  0  0  0  0  0  0  0  0  0  0  0
   48.5850    9.7731   15.5970 S   0  0  0  0  0  0  0  0  0  0  0  0
   51.6422    7.0040   16.6840 N   0  0  0  0  0  0  0  0  0  0  0  0
   50.2447    9.8343   14.9312 C   0  0  0  0  0  0  0  0  0  0  0  0
   48.6695    7.1658   14.5655 C   0  0  0  0  0  0  0  0  0  0  0  0
   48.0194    8.4151   14.5673 C   0  0  0  0  0  0  0  0  0  0  0  0
   53.6684    5.8189   18.3645 N   0  0  0  0  0  0  0  0  0  0  0  0
   52.4286    7.8978   17.5390 C   0  0  0  0  0  0  0  0  0  0  0  0
   51.4445    5.6487   17.2430 C   0  0  0  0  0  0  0  0  0  0  0  0
   53.7627    7.2360   17.9651 C   0  0  0  0  0  0  0  0  0  0  0  0
   52.2805    5.3786   18.5202 C   0  0  0  0  0  0  0  0  0  0  0  0
   52.3650    8.7961   14.3597 C   0  0  0  0  0  0  0  0  0  0  0  0
   50.6637   11.0024   14.2834 C   0  0  0  0  0  0  0  0  0  0  0  0
   54.5596    5.4445   19.4625 C   0  0  0  0  0  0  0  0  0  0  0  0
   57.7462    4.8771   22.7399 O   0  0  0  0  0  0  0  0  0  0  0  0
   48.2222    6.1833   13.6762 C   0  0  0  0  0  0  0  0  0  0  0  0
   46.9440    8.6524   13.6970 C   0  0  0  0  0  0  0  0  0  0  0  0
   55.2644    5.7806   21.7991 O   0  0  0  0  0  0  0  0  0  0  0  0
   56.5237    4.3807   23.2822 C   0  0  0  0  0  0  0  0  0  0  0  0
   54.1919    5.9533   20.8672 C   0  0  0  0  0  0  0  0  0  0  0  0
   55.4356    4.4191   22.2149 C   0  0  0  0  0  0  0  0  0  0  0  0
   52.7671    9.9627   13.7142 C   0  0  0  0  0  0  0  0  0  0  0  0
   51.9194   11.0658   13.6780 C   0  0  0  0  0  0  0  0  0  0  0  0
   46.5196    7.6585   12.8162 C   0  0  0  0  0  0  0  0  0  0  0  0
   47.1678    6.4279   12.7938 C   0  0  0  0  0  0  0  0  0  0  0  0
   51.1379    7.9495   15.9724 C   0  0  0  0  0  0  0  0  0  0  0  0
   51.3528    8.0470   14.6885 N   0  0  0  0  0  0  0  0  0  0  0  0
   49.9133    8.4668   16.6723 C   0  0  0  0  0  0  0  0  0  0  0  0
   50.2344   10.9305   15.4088 S   0  0  0  0  0  0  0  0  0  0  0  0
   52.0901    7.2724   16.7409 N   0  0  0  0  0  0  0  0  0  0  0  0
   49.4566    9.7814   16.5209 C   0  0  0  0  0  0  0  0  0  0  0  0
   50.4960    8.6768   13.7758 C   0  0  0  0  0  0  0  0  0  0  0  0
   49.9918    9.9816   13.9167 C   0  0  0  0  0  0  0  0  0  0  0  0
   54.7168    6.5141   18.0061 N   0  0  0  0  0  0  0  0  0  0  0  0
   53.1300    6.4878   16.0480 C   0  0  0  0  0  0  0  0  0  0  0  0
   52.4691    7.7444   18.0866 C   0  0  0  0  0  0  0  0  0  0  0  0
   53.9578    5.6719   17.0547 C   0  0  0  0  0  0  0  0  0  0  0  0
   54.0131    7.7880   18.2689 C   0  0  0  0  0  0  0  0  0  0  0  0
   49.2459    7.5817   17.5337 C   0  0  0  0  0  0  0  0  0  0  0  0
   48.3360   10.2022   17.2545 C   0  0  0  0  0  0  0  0  0  0  0  0
   55.0809    5.8148   19.2484 C   0  0  0  0  0  0  0  0  0  0  0  0
   54.2837    4.2641   22.2436 O   0  0  0  0  0  0  0  0  0  0  0  0
   50.2326    7.9863   12.5855 C   0  0  0  0  0  0  0  0  0  0  0  0
   49.2344   10.5607   12.8875 C   0  0  0  0  0  0  0  0  0  0  0  0
   56.4433    4.0776   20.2780 O   0  0  0  0  0  0  0  0  0  0  0  0
   54.3513    3.1881   21.3083 C   0  0  0  0  0  0  0  0  0  0  0  0
   55.8910    4.5193   19.0355 C   0  0  0  0  0  0  0  0  0  0  0  0
   55.7971    2.9455   20.8657 C   0  0  0  0  0  0  0  0  0  0  0  0
   48.1269    8.0053   18.2497 C   0  0  0  0  0  0  0  0  0  0  0  0
   47.6738    9.3155   18.1096 C   0  0  0  0  0  0  0  0  0  0  0  0
   48.9868    9.8560   11.7108 C   0  0  0  0  0  0  0  0  0  0  0  0
   49.4885    8.5664   11.5574 C   0  0  0  0  0  0  0  0  0  0  0  0
   51.1238    7.4586   15.6724 C   0  0  0  0  0  0  0  0  0  0  0  0
   53.7128    6.3992   18.2364 C   0  0  0  0  0  0  0  0  0  0  0  0
   51.7232    7.0924   16.9543 C   0  0  0  0  0  0  0  0  0  0  0  0
   53.0264    6.7900   17.0039 C   0  0  0  0  0  0  0  0  0  0  0  0
   51.6821    7.5642   14.5988 O   0  0  0  0  0  0  0  0  0  0  0  0
   54.8908    6.1045   18.3095 O   0  0  0  0  0  0  0  0  0  0  0  0
   49.8157    7.7033   15.8269 O   0  0  0  0  0  0  0  0  0  0  0  0
   52.9205    6.3950   19.3172 O   0  0  0  0  0  0  0  0  0  0  0  0
   51.8350    8.1402   18.4266 H   0  0  0  0  0  0  0  0  0  0  0  0
   52.6638    8.8481   17.0567 H   0  0  0  0  0  0  0  0  0  0  0  0
   50.3924    5.4802   17.4919 H   0  0  0  0  0  0  0  0  0  0  0  0
   51.7234    4.9123   16.4780 H   0  0  0  0  0  0  0  0  0  0  0  0
   54.4539    7.2788   17.1143 H   0  0  0  0  0  0  0  0  0  0  0  0
   54.2014    7.8607   18.7558 H   0  0  0  0  0  0  0  0  0  0  0  0
   52.2427    4.3029   18.7321 H   0  0  0  0  0  0  0  0  0  0  0  0
   51.8089    5.8920   19.3679 H   0  0  0  0  0  0  0  0  0  0  0  0
   53.0228    7.9328   14.3895 H   0  0  0  0  0  0  0  0  0  0  0  0
   50.0095   11.8711   14.2380 H   0  0  0  0  0  0  0  0  0  0  0  0
   54.6134    4.3493   19.4912 H   0  0  0  0  0  0  0  0  0  0  0  0
   55.5841    5.7614   19.2235 H   0  0  0  0  0  0  0  0  0  0  0  0
   57.5150    5.7273   22.3188 H   0  0  0  0  0  0  0  0  0  0  0  0
   48.7023    5.2119   13.6871 H   0  0  0  0  0  0  0  0  0  0  0  0
   46.4408    9.6160   13.6927 H   0  0  0  0  0  0  0  0  0  0  0  0
   56.2569    5.0086   24.1359 H   0  0  0  0  0  0  0  0  0  0  0  0
   56.6951    3.3602   23.6370 H   0  0  0  0  0  0  0  0  0  0  0  0
   53.9898    7.0268   20.8467 H   0  0  0  0  0  0  0  0  0  0  0  0
   53.2916    5.4661   21.2502 H   0  0  0  0  0  0  0  0  0  0  0  0
   54.4949    4.0242   22.6149 H   0  0  0  0  0  0  0  0  0  0  0  0
   55.7535    3.8224   21.3535 H   0  0  0  0  0  0  0  0  0  0  0  0
   53.7372   10.0071   13.2345 H   0  0  0  0  0  0  0  0  0  0  0  0
   52.2301   11.9753   13.1667 H   0  0  0  0  0  0  0  0  0  0  0  0
   45.6910    7.8463   12.1391 H   0  0  0  0  0  0  0  0  0  0  0  0
   46.8526    5.6514   12.1032 H   0  0  0  0  0  0  0  0  0  0  0  0
   52.6583    5.7890   15.3474 H   0  0  0  0  0  0  0  0  0  0  0  0
   53.7841    7.1527   15.4743 H   0  0  0  0  0  0  0  0  0  0  0  0
   52.0776    8.7493   18.2718 H   0  0  0  0  0  0  0  0  0  0  0  0
   52.0294    7.0798   18.8323 H   0  0  0  0  0  0  0  0  0  0  0  0
   53.2726    5.0131   17.6032 H   0  0  0  0  0  0  0  0  0  0  0  0
   54.6613    5.0340   16.5083 H   0  0  0  0  0  0  0  0  0  0  0  0
   54.4183    8.5272   17.5640 H   0  0  0  0  0  0  0  0  0  0  0  0
   54.2497    8.1827   19.2642 H   0  0  0  0  0  0  0  0  0  0  0  0
   49.6028    6.5619   17.6489 H   0  0  0  0  0  0  0  0  0  0  0  0
   47.9657   11.2240   17.1511 H   0  0  0  0  0  0  0  0  0  0  0  0
   55.6984    6.4846   19.8627 H   0  0  0  0  0  0  0  0  0  0  0  0
   54.1869    5.6054   19.8498 H   0  0  0  0  0  0  0  0  0  0  0  0
   53.3525    4.3829   22.4983 H   0  0  0  0  0  0  0  0  0  0  0  0
   50.6334    6.9825   12.4571 H   0  0  0  0  0  0  0  0  0  0  0  0
   48.8356   11.5658   12.9994 H   0  0  0  0  0  0  0  0  0  0  0  0
   53.9538    2.2954   21.8013 H   0  0  0  0  0  0  0  0  0  0  0  0
   53.7119    3.4321   20.4597 H   0  0  0  0  0  0  0  0  0  0  0  0
   56.7399    4.7410   18.3752 H   0  0  0  0  0  0  0  0  0  0  0  0
   55.2958    3.7321   18.5563 H   0  0  0  0  0  0  0  0  0  0  0  0
   56.3970    2.6809   21.7467 H   0  0  0  0  0  0  0  0  0  0  0  0
   55.8429    2.1017   20.1712 H   0  0  0  0  0  0  0  0  0  0  0  0
   47.6044    7.3165   18.9092 H   0  0  0  0  0  0  0  0  0  0  0  0
   46.8077    9.6527   18.6756 H   0  0  0  0  0  0  0  0  0  0  0  0
   48.4129   10.3137   10.9093 H   0  0  0  0  0  0  0  0  0  0  0  0
   49.3002    8.0098   10.6410 H   0  0  0  0  0  0  0  0  0  0  0  0
   51.0768    7.0740   17.8194 H   0  0  0  0  0  0  0  0  0  0  0  0
   53.6562    6.8190   16.1230 H   0  0  0  0  0  0  0  0  0  0  0  0
   49.5079    7.9434   14.9282 H   0  0  0  0  0  0  0  0  0  0  0  0
   53.5172    6.1323   20.0505 H   0  0  0  0  0  0  0  0  0  0  0  0
  2  1  2  0
  3  1  1  0
  4  6  1  0
  5  1  1  0
  6  3  2  0
  7  2  1  0
  8  7  2  0
  9 13  1  0
 10  5  1  0
 11  5  1  0
 12 10  1  0
 13 11  1  0
 14  3  1  0
 15  6  1  0
 16  9  1  0
 17 21  1  0
 18  7  1  0
 19  8  1  0
 20 22  1  0
 21 23  1  0
 22 16  1  0
 23 20  1  0
 24 14  2  0
 25 15  2  0
 26 19  2  0
 27 18  2  0
  9 12  1  0
  8  4  1  0
 24 25  1  0
 27 26  1  0
 29 28  2  0
 30 28  1  0
 31 33  1  0
 32 28  1  0
 33 30  2  0
 34 29  1  0
 35 34  2  0
 36 40  1  0
 37 32  1  0
 38 32  1  0
 39 37  1  0
 40 38  1  0
 41 30  1  0
 42 33  1  0
 43 36  1  0
 44 48  1  0
 45 34  1  0
 46 35  1  0
 47 49  1  0
 48 50  1  0
 49 43  1  0
 50 47  1  0
 51 41  2  0
 52 42  2  0
 53 46  2  0
 54 45  2  0
 36 39  1  0
 35 31  1  0
 51 52  1  0
 54 53  1  0
 56 58  1  0
 57 55  1  0
 58 57  2  0
 59 55  2  0
 60 56  2  0
 61 55  1  0
 62 56  1  0
 10 63  1  0
 10 64  1  0
 11 65  1  0
 11 66  1  0
 12 67  1  0
 12 68  1  0
 13 69  1  0
 13 70  1  0
 14 71  1  0
 15 72  1  0
 16 73  1  0
 16 74  1  0
 17 75  1  0
 18 76  1  0
 19 77  1  0
 21 78  1  0
 21 79  1  0
 22 80  1  0
 22 81  1  0
 23 82  1  0
 23 83  1  0
 24 84  1  0
 25 85  1  0
 26 86  1  0
 27 87  1  0
 37 88  1  0
 37 89  1  0
 38 90  1  0
 38 91  1  0
 39 92  1  0
 39 93  1  0
 40 94  1  0
 40 95  1  0
 41 96  1  0
 42 97  1  0
 43 98  1  0
 43 99  1  0
 44100  1  0
 45101  1  0
 46102  1  0
 48103  1  0
 48104  1  0
 49105  1  0
 49106  1  0
 50107  1  0
 50108  1  0
 51109  1  0
 52110  1  0
 53111  1  0
 54112  1  0
 57113  1  0
 58114  1  0
 61115  1  0
 62116  1  0
M  END
> <Uni-Dock RESULT> 
ENERGY=   -4.821  LOWER_BOUND=    0.000  UPPER_BOUND=    0.000
INTER + INTRA:          -4.821
INTER:                  -4.821
INTRA:                   0.000
UNBOUND:                 0.000

$$$$

     RDKit          3D

116121  0  0  0  0  0  0  0  0999 V2000
   49.3315   10.2105   14.4452 C   0  0  0  0  0  0  0  0  0  0  0  0
   48.7562   11.2640   14.9611 N   0  0  0  0  0  0  0  0  0  0  0  0
   50.8192   10.0510   14.3326 C   0  0  0  0  0  0  0  0  0  0  0  0
   51.0508   10.6287   17.0628 S   0  0  0  0  0  0  0  0  0  0  0  0
   48.5181    9.1874   13.9477 N   0  0  0  0  0  0  0  0  0  0  0  0
   51.6586   10.1412   15.4520 C   0  0  0  0  0  0  0  0  0  0  0  0
   49.4534   12.3475   15.5255 C   0  0  0  0  0  0  0  0  0  0  0  0
   50.4145   12.2269   16.5478 C   0  0  0  0  0  0  0  0  0  0  0  0
   46.8586    7.2833   12.5495 N   0  0  0  0  0  0  0  0  0  0  0  0
   48.8892    7.7715   14.0254 C   0  0  0  0  0  0  0  0  0  0  0  0
   47.0645    9.4266   13.8129 C   0  0  0  0  0  0  0  0  0  0  0  0
   48.2647    6.9633   12.8609 C   0  0  0  0  0  0  0  0  0  0  0  0
   46.2446    8.1333   13.5717 C   0  0  0  0  0  0  0  0  0  0  0  0
   51.3555    9.7540   13.0733 C   0  0  0  0  0  0  0  0  0  0  0  0
   53.0309    9.9135   15.2950 C   0  0  0  0  0  0  0  0  0  0  0  0
   46.0559    6.1290   12.1457 C   0  0  0  0  0  0  0  0  0  0  0  0
   44.1790    2.1682   10.7289 O   0  0  0  0  0  0  0  0  0  0  0  0
   49.0670   13.6299   15.1222 C   0  0  0  0  0  0  0  0  0  0  0  0
   50.9580   13.3753   17.1447 C   0  0  0  0  0  0  0  0  0  0  0  0
   45.1490    3.9071   12.7027 O   0  0  0  0  0  0  0  0  0  0  0  0
   43.3279    2.6665   11.7596 C   0  0  0  0  0  0  0  0  0  0  0  0
   45.6725    5.1236   13.2455 C   0  0  0  0  0  0  0  0  0  0  0  0
   43.8115    4.0424   12.2042 C   0  0  0  0  0  0  0  0  0  0  0  0
   52.7233    9.5348   12.9304 C   0  0  0  0  0  0  0  0  0  0  0  0
   53.5602    9.6114   14.0396 C   0  0  0  0  0  0  0  0  0  0  0  0
   50.5601   14.6429   16.7219 C   0  0  0  0  0  0  0  0  0  0  0  0
   49.6256   14.7721   15.6997 C   0  0  0  0  0  0  0  0  0  0  0  0
   49.6313    9.6185   14.4269 C   0  0  0  0  0  0  0  0  0  0  0  0
   50.4350   10.3861   13.7420 N   0  0  0  0  0  0  0  0  0  0  0  0
   49.5370    9.6070   15.9263 C   0  0  0  0  0  0  0  0  0  0  0  0
   52.3093    9.3725   16.0967 S   0  0  0  0  0  0  0  0  0  0  0  0
   48.7630    8.7861   13.7133 N   0  0  0  0  0  0  0  0  0  0  0  0
   50.6584    9.4614   16.7515 C   0  0  0  0  0  0  0  0  0  0  0  0
   51.3535   11.2868   14.2977 C   0  0  0  0  0  0  0  0  0  0  0  0
   52.3023   10.9608   15.2826 C   0  0  0  0  0  0  0  0  0  0  0  0
   47.7546    6.6733   11.8174 N   0  0  0  0  0  0  0  0  0  0  0  0
   48.6095    9.0024   12.2619 C   0  0  0  0  0  0  0  0  0  0  0  0
   48.4691    7.4127   14.1658 C   0  0  0  0  0  0  0  0  0  0  0  0
   47.4819    8.1230   11.6966 C   0  0  0  0  0  0  0  0  0  0  0  0
   48.5880    6.3849   13.0046 C   0  0  0  0  0  0  0  0  0  0  0  0
   48.2548    9.7110   16.4882 C   0  0  0  0  0  0  0  0  0  0  0  0
   50.4779    9.4043   18.1426 C   0  0  0  0  0  0  0  0  0  0  0  0
   46.5413    5.8419   11.7760 C   0  0  0  0  0  0  0  0  0  0  0  0
   43.5314    4.7381   13.0926 O   0  0  0  0  0  0  0  0  0  0  0  0
   51.3950   12.5676   13.7313 C   0  0  0  0  0  0  0  0  0  0  0  0
   53.2537   11.9091   15.6876 C   0  0  0  0  0  0  0  0  0  0  0  0
   44.6982    5.0027   10.4223 O   0  0  0  0  0  0  0  0  0  0  0  0
   43.1529    5.7972   12.2139 C   0  0  0  0  0  0  0  0  0  0  0  0
   45.6753    6.0422   10.5152 C   0  0  0  0  0  0  0  0  0  0  0  0
   43.3618    5.3891   10.7528 C   0  0  0  0  0  0  0  0  0  0  0  0
   48.0863    9.6644   17.8716 C   0  0  0  0  0  0  0  0  0  0  0  0
   49.1983    9.5103   18.6970 C   0  0  0  0  0  0  0  0  0  0  0  0
   53.2778   13.1767   15.1086 C   0  0  0  0  0  0  0  0  0  0  0  0
   52.3481   13.5071   14.1264 C   0  0  0  0  0  0  0  0  0  0  0  0
   49.3845   10.0356   14.1166 C   0  0  0  0  0  0  0  0  0  0  0  0
   47.4158    7.1234   12.6874 C   0  0  0  0  0  0  0  0  0  0  0  0
   48.4543    8.9112   14.0321 C   0  0  0  0  0  0  0  0  0  0  0  0
   48.3294    8.2520   12.8736 C   0  0  0  0  0  0  0  0  0  0  0  0
   50.1212   10.4525   13.2454 O   0  0  0  0  0  0  0  0  0  0  0  0
   47.2697    6.5155   11.6439 O   0  0  0  0  0  0  0  0  0  0  0  0
   49.3500   10.5727   15.3436 O   0  0  0  0  0  0  0  0  0  0  0  0
   46.7320    6.7948   13.7921 O   0  0  0  0  0  0  0  0  0  0  0  0
   48.5389    7.3729   14.9831 H   0  0  0  0  0  0  0  0  0  0  0  0
   49.9690    7.6141   14.0027 H   0  0  0  0  0  0  0  0  0  0  0  0
   46.6654    9.9117   14.7089 H   0  0  0  0  0  0  0  0  0  0  0  0
   46.9007   10.1094   12.9689 H   0  0  0  0  0  0  0  0  0  0  0  0
   48.8438    7.1681   11.9519 H   0  0  0  0  0  0  0  0  0  0  0  0
   48.4062    5.8973   13.0880 H   0  0  0  0  0  0  0  0  0  0  0  0
   45.2308    8.4230   13.2689 H   0  0  0  0  0  0  0  0  0  0  0  0
   46.1555    7.5879   14.5199 H   0  0  0  0  0  0  0  0  0  0  0  0
   50.6990    9.6962   12.2105 H   0  0  0  0  0  0  0  0  0  0  0  0
   53.7007    9.9784   16.1504 H   0  0  0  0  0  0  0  0  0  0  0  0
   45.1361    6.5066   11.6823 H   0  0  0  0  0  0  0  0  0  0  0  0
   46.5696    5.5944   11.3349 H   0  0  0  0  0  0  0  0  0  0  0  0
   45.0874    2.2712   11.0724 H   0  0  0  0  0  0  0  0  0  0  0  0
   48.3101   13.7292   14.3532 H   0  0  0  0  0  0  0  0  0  0  0  0
   51.7021   13.2874   17.9322 H   0  0  0  0  0  0  0  0  0  0  0  0
   43.3548    1.9553   12.5889 H   0  0  0  0  0  0  0  0  0  0  0  0
   42.3069    2.7123   11.3693 H   0  0  0  0  0  0  0  0  0  0  0  0
   46.5523    4.8329   13.8244 H   0  0  0  0  0  0  0  0  0  0  0  0
   44.9535    5.5501   13.9496 H   0  0  0  0  0  0  0  0  0  0  0  0
   43.1552    4.4434   12.9848 H   0  0  0  0  0  0  0  0  0  0  0  0
   43.8207    4.7179   11.3423 H   0  0  0  0  0  0  0  0  0  0  0  0
   53.1350    9.3120   11.9536 H   0  0  0  0  0  0  0  0  0  0  0  0
   54.6306    9.4479   13.9270 H   0  0  0  0  0  0  0  0  0  0  0  0
   50.9865   15.5304   17.1810 H   0  0  0  0  0  0  0  0  0  0  0  0
   49.3181   15.7549   15.3550 H   0  0  0  0  0  0  0  0  0  0  0  0
   48.3536   10.0510   12.0709 H   0  0  0  0  0  0  0  0  0  0  0  0
   49.5509    8.7843   11.7468 H   0  0  0  0  0  0  0  0  0  0  0  0
   49.1578    7.1080   14.9597 H   0  0  0  0  0  0  0  0  0  0  0  0
   47.4598    7.3843   14.5801 H   0  0  0  0  0  0  0  0  0  0  0  0
   46.5556    8.3747   12.2286 H   0  0  0  0  0  0  0  0  0  0  0  0
   47.3312    8.3674   10.6393 H   0  0  0  0  0  0  0  0  0  0  0  0
   49.6331    6.3743   12.6652 H   0  0  0  0  0  0  0  0  0  0  0  0
   48.4034    5.3762   13.3928 H   0  0  0  0  0  0  0  0  0  0  0  0
   47.3864    9.8239   15.8450 H   0  0  0  0  0  0  0  0  0  0  0  0
   51.3399    9.2895   18.8026 H   0  0  0  0  0  0  0  0  0  0  0  0
   46.8372    4.7841   11.8001 H   0  0  0  0  0  0  0  0  0  0  0  0
   45.9354    5.9982   12.6778 H   0  0  0  0  0  0  0  0  0  0  0  0
   43.3823    5.0375   14.0060 H   0  0  0  0  0  0  0  0  0  0  0  0
   50.6774   12.8255   12.9547 H   0  0  0  0  0  0  0  0  0  0  0  0
   53.9815   11.6615   16.4562 H   0  0  0  0  0  0  0  0  0  0  0  0
   42.0962    6.0167   12.3959 H   0  0  0  0  0  0  0  0  0  0  0  0
   43.7414    6.6790   12.4679 H   0  0  0  0  0  0  0  0  0  0  0  0
   46.3182    5.9494    9.6298 H   0  0  0  0  0  0  0  0  0  0  0  0
   45.2112    7.0357   10.4844 H   0  0  0  0  0  0  0  0  0  0  0  0
   42.7339    4.5144   10.5366 H   0  0  0  0  0  0  0  0  0  0  0  0
   43.0430    6.1956   10.0862 H   0  0  0  0  0  0  0  0  0  0  0  0
   47.0940    9.7549   18.3069 H   0  0  0  0  0  0  0  0  0  0  0  0
   49.0692    9.4622   19.7765 H   0  0  0  0  0  0  0  0  0  0  0  0
   54.0261   13.9034   15.4137 H   0  0  0  0  0  0  0  0  0  0  0  0
   52.3610   14.4948   13.6688 H   0  0  0  0  0  0  0  0  0  0  0  0
   47.8930    8.6610   14.9203 H   0  0  0  0  0  0  0  0  0  0  0  0
   48.9060    8.5188   11.9963 H   0  0  0  0  0  0  0  0  0  0  0  0
   50.0016   11.3035   15.3048 H   0  0  0  0  0  0  0  0  0  0  0  0
   46.1856    6.0279   13.5162 H   0  0  0  0  0  0  0  0  0  0  0  0
  2  1  2  0
  3  1  1  0
  4  6  1  0
  5  1  1  0
  6  3  2  0
  7  2  1  0
  8  7  2  0
  9 13  1  0
 10  5  1  0
 11  5  1  0
 12 10  1  0
 13 11  1  0
 14  3  1  0
 15  6  1  0
 16  9  1  0
 17 21  1  0
 18  7  1  0
 19  8  1  0
 20 22  1  0
 21 23  1  0
 22 16  1  0
 23 20  1  0
 24 14  2  0
 25 15  2  0
 26 19  2  0
 27 18  2  0
  9 12  1  0
  8  4  1  0
 24 25  1  0
 27 26  1  0
 29 28  2  0
 30 28  1  0
 31 33  1  0
 32 28  1  0
 33 30  2  0
 34 29  1  0
 35 34  2  0
 36 40  1  0
 37 32  1  0
 38 32  1  0
 39 37  1  0
 40 38  1  0
 41 30  1  0
 42 33  1  0
 43 36  1  0
 44 48  1  0
 45 34  1  0
 46 35  1  0
 47 49  1  0
 48 50  1  0
 49 43  1  0
 50 47  1  0
 51 41  2  0
 52 42  2  0
 53 46  2  0
 54 45  2  0
 36 39  1  0
 35 31  1  0
 51 52  1  0
 54 53  1  0
 56 58  1  0
 57 55  1  0
 58 57  2  0
 59 55  2  0
 60 56  2  0
 61 55  1  0
 62 56  1  0
 10 63  1  0
 10 64  1  0
 11 65  1  0
 11 66  1  0
 12 67  1  0
 12 68  1  0
 13 69  1  0
 13 70  1  0
 14 71  1  0
 15 72  1  0
 16 73  1  0
 16 74  1  0
 17 75  1  0
 18 76  1  0
 19 77  1  0
 21 78  1  0
 21 79  1  0
 22 80  1  0
 22 81  1  0
 23 82  1  0
 23 83  1  0
 24 84  1  0
 25 85  1  0
 26 86  1  0
 27 87  1  0
 37 88  1  0
 37 89  1  0
 38 90  1  0
 38 91  1  0
 39 92  1  0
 39 93  1  0
 40 94  1  0
 40 95  1  0
 41 96  1  0
 42 97  1  0
 43 98  1  0
 43 99  1  0
 44100  1  0
 45101  1  0
 46102  1  0
 48103  1  0
 48104  1  0
 49105  1  0
 49106  1  0
 50107  1  0
 50108  1  0
 51109  1  0
 52110  1  0
 53111  1  0
 54112  1  0
 57113  1  0
 58114  1  0
 61115  1  0
 62116  1  0
M  END
> <Uni-Dock RESULT> 
ENERGY=   -4.600  LOWER_BOUND=    4.805  UPPER_BOUND=    8.115
INTER + INTRA:          -4.600
INTER:                  -4.600
INTRA:                   0.000
UNBOUND:                 0.000

$$$$

     RDKit          3D

116121  0  0  0  0  0  0  0  0999 V2000
   45.4650   13.7883   10.6253 C   0  0  0  0  0  0  0  0  0  0  0  0
   46.0475   13.0285    9.7363 N   0  0  0  0  0  0  0  0  0  0  0  0
   44.0264   14.2066   10.5421 C   0  0  0  0  0  0  0  0  0  0  0  0
   43.3002   11.5187   10.2445 S   0  0  0  0  0  0  0  0  0  0  0  0
   46.2285   14.2586   11.6985 N   0  0  0  0  0  0  0  0  0  0  0  0
   42.9885   13.2685   10.4505 C   0  0  0  0  0  0  0  0  0  0  0  0
   45.3902   12.4625    8.6289 C   0  0  0  0  0  0  0  0  0  0  0  0
   44.2280   11.6717    8.7149 C   0  0  0  0  0  0  0  0  0  0  0  0
   47.8902   15.5642   13.6653 N   0  0  0  0  0  0  0  0  0  0  0  0
   45.6729   14.4535   13.0408 C   0  0  0  0  0  0  0  0  0  0  0  0
   47.6962   14.0758   11.6704 C   0  0  0  0  0  0  0  0  0  0  0  0
   46.4210   15.5776   13.7997 C   0  0  0  0  0  0  0  0  0  0  0  0
   48.3777   14.3338   13.0387 C   0  0  0  0  0  0  0  0  0  0  0  0
   43.7341   15.5747   10.6111 C   0  0  0  0  0  0  0  0  0  0  0  0
   41.6625   13.7174   10.4470 C   0  0  0  0  0  0  0  0  0  0  0  0
   48.6069   15.9640   14.8762 C   0  0  0  0  0  0  0  0  0  0  0  0
   50.2225   17.5347   18.8938 O   0  0  0  0  0  0  0  0  0  0  0  0
   46.0122   12.5996    7.3837 C   0  0  0  0  0  0  0  0  0  0  0  0
   43.7211   11.0354    7.5709 C   0  0  0  0  0  0  0  0  0  0  0  0
   49.0870   15.5605   17.2587 O   0  0  0  0  0  0  0  0  0  0  0  0
   50.8936   16.2999   18.6496 C   0  0  0  0  0  0  0  0  0  0  0  0
   48.6194   14.9633   16.0449 C   0  0  0  0  0  0  0  0  0  0  0  0
   50.5056   15.7680   17.2744 C   0  0  0  0  0  0  0  0  0  0  0  0
   42.4106   16.0077   10.6015 C   0  0  0  0  0  0  0  0  0  0  0  0
   41.3754   15.0809   10.5224 C   0  0  0  0  0  0  0  0  0  0  0  0
   44.3564   11.1913    6.3397 C   0  0  0  0  0  0  0  0  0  0  0  0
   45.4939   11.9859    6.2413 C   0  0  0  0  0  0  0  0  0  0  0  0
   45.1032   13.9471   11.1588 C   0  0  0  0  0  0  0  0  0  0  0  0
   44.5656   14.6591   10.2058 N   0  0  0  0  0  0  0  0  0  0  0  0
   44.8773   12.4744   11.3520 C   0  0  0  0  0  0  0  0  0  0  0  0
   42.1244   12.8758   11.1779 S   0  0  0  0  0  0  0  0  0  0  0  0
   45.9895   14.5897   12.0289 N   0  0  0  0  0  0  0  0  0  0  0  0
   43.5981   11.9094   11.4159 C   0  0  0  0  0  0  0  0  0  0  0  0
   43.6725   14.1699    9.2432 C   0  0  0  0  0  0  0  0  0  0  0  0
   42.5040   13.4419    9.5284 C   0  0  0  0  0  0  0  0  0  0  0  0
   47.0985   16.5335   14.0456 N   0  0  0  0  0  0  0  0  0  0  0  0
   46.4714   15.9394   11.6778 C   0  0  0  0  0  0  0  0  0  0  0  0
   46.0051   14.2866   13.4730 C   0  0  0  0  0  0  0  0  0  0  0  0
   47.5720   16.3947   12.6503 C   0  0  0  0  0  0  0  0  0  0  0  0
   46.0040   15.5816   14.3342 C   0  0  0  0  0  0  0  0  0  0  0  0
   46.0150   11.6670   11.5085 C   0  0  0  0  0  0  0  0  0  0  0  0
   43.4729   10.5316   11.6550 C   0  0  0  0  0  0  0  0  0  0  0  0
   48.1778   16.4568   15.0427 C   0  0  0  0  0  0  0  0  0  0  0  0
   50.6782   14.7534   16.7333 O   0  0  0  0  0  0  0  0  0  0  0  0
   43.9139   14.5480    7.9159 C   0  0  0  0  0  0  0  0  0  0  0  0
   41.6168   13.0987    8.4972 C   0  0  0  0  0  0  0  0  0  0  0  0
   50.1431   17.5344   15.9969 O   0  0  0  0  0  0  0  0  0  0  0  0
   51.3644   15.3852   15.6530 C   0  0  0  0  0  0  0  0  0  0  0  0
   49.3082   17.4863   14.8373 C   0  0  0  0  0  0  0  0  0  0  0  0
   51.4179   16.9017   15.8584 C   0  0  0  0  0  0  0  0  0  0  0  0
   45.8811   10.2976   11.7345 C   0  0  0  0  0  0  0  0  0  0  0  0
   44.6099    9.7318   11.8082 C   0  0  0  0  0  0  0  0  0  0  0  0
   41.8760   13.4875    7.1842 C   0  0  0  0  0  0  0  0  0  0  0  0
   43.0260   14.2159    6.8919 C   0  0  0  0  0  0  0  0  0  0  0  0
   45.4606   14.1423   10.7522 C   0  0  0  0  0  0  0  0  0  0  0  0
   47.3007   15.5601   13.7527 C   0  0  0  0  0  0  0  0  0  0  0  0
   46.2375   14.2031   11.9889 C   0  0  0  0  0  0  0  0  0  0  0  0
   46.5190   15.3968   12.5258 C   0  0  0  0  0  0  0  0  0  0  0  0
   44.9828   15.0717   10.1329 O   0  0  0  0  0  0  0  0  0  0  0  0
   47.5850   16.6308   14.2553 O   0  0  0  0  0  0  0  0  0  0  0  0
   45.3037   12.8686   10.3672 O   0  0  0  0  0  0  0  0  0  0  0  0
   47.6893   14.4018   14.3032 O   0  0  0  0  0  0  0  0  0  0  0  0
   45.7603   13.5119   13.5927 H   0  0  0  0  0  0  0  0  0  0  0  0
   44.6110   14.7057   13.0280 H   0  0  0  0  0  0  0  0  0  0  0  0
   47.9558   13.0607   11.3552 H   0  0  0  0  0  0  0  0  0  0  0  0
   48.1193   14.7680   10.9308 H   0  0  0  0  0  0  0  0  0  0  0  0
   46.0771   16.5432   13.4085 H   0  0  0  0  0  0  0  0  0  0  0  0
   46.1009   15.5341   14.8502 H   0  0  0  0  0  0  0  0  0  0  0  0
   49.4609   14.3920   12.8752 H   0  0  0  0  0  0  0  0  0  0  0  0
   48.1953   13.4724   13.6937 H   0  0  0  0  0  0  0  0  0  0  0  0
   44.5448   16.2943   10.6717 H   0  0  0  0  0  0  0  0  0  0  0  0
   40.8412   13.0065   10.3765 H   0  0  0  0  0  0  0  0  0  0  0  0
   49.6440   16.1837   14.5941 H   0  0  0  0  0  0  0  0  0  0  0  0
   48.2119   16.9254   15.2321 H   0  0  0  0  0  0  0  0  0  0  0  0
   49.2827   17.3617   18.6923 H   0  0  0  0  0  0  0  0  0  0  0  0
   46.9205   13.1866    7.3158 H   0  0  0  0  0  0  0  0  0  0  0  0
   42.8228   10.4263    7.6316 H   0  0  0  0  0  0  0  0  0  0  0  0
   50.6027   15.5996   19.4365 H   0  0  0  0  0  0  0  0  0  0  0  0
   51.9712   16.4758   18.7169 H   0  0  0  0  0  0  0  0  0  0  0  0
   47.6078   14.6113   16.2607 H   0  0  0  0  0  0  0  0  0  0  0  0
   49.2222   14.0811   15.8145 H   0  0  0  0  0  0  0  0  0  0  0  0
   51.0282   14.8271   17.0681 H   0  0  0  0  0  0  0  0  0  0  0  0
   50.7638   16.5118   16.5134 H   0  0  0  0  0  0  0  0  0  0  0  0
   42.1890   17.0669   10.6483 H   0  0  0  0  0  0  0  0  0  0  0  0
   40.3409   15.4194   10.5070 H   0  0  0  0  0  0  0  0  0  0  0  0
   43.9590   10.7029    5.4544 H   0  0  0  0  0  0  0  0  0  0  0  0
   45.9892   12.1233    5.2848 H   0  0  0  0  0  0  0  0  0  0  0  0
   46.8926   15.9283   10.6658 H   0  0  0  0  0  0  0  0  0  0  0  0
   45.6397   16.6516   11.6907 H   0  0  0  0  0  0  0  0  0  0  0  0
   45.1316   13.6911   13.7557 H   0  0  0  0  0  0  0  0  0  0  0  0
   46.8925   13.6939   13.7013 H   0  0  0  0  0  0  0  0  0  0  0  0
   48.3897   15.6642   12.6041 H   0  0  0  0  0  0  0  0  0  0  0  0
   47.9717   17.3582   12.3152 H   0  0  0  0  0  0  0  0  0  0  0  0
   45.0611   16.1140   14.1472 H   0  0  0  0  0  0  0  0  0  0  0  0
   45.9734   15.3108   15.3963 H   0  0  0  0  0  0  0  0  0  0  0  0
   47.0066   12.1086   11.4583 H   0  0  0  0  0  0  0  0  0  0  0  0
   42.4838   10.0728   11.7099 H   0  0  0  0  0  0  0  0  0  0  0  0
   47.7519   16.6390   16.0389 H   0  0  0  0  0  0  0  0  0  0  0  0
   48.5951   15.4423   15.0825 H   0  0  0  0  0  0  0  0  0  0  0  0
   50.6683   13.7956   16.5641 H   0  0  0  0  0  0  0  0  0  0  0  0
   44.8057   15.1278    7.6854 H   0  0  0  0  0  0  0  0  0  0  0  0
   40.7181   12.5272    8.7151 H   0  0  0  0  0  0  0  0  0  0  0  0
   52.3782   14.9740   15.6191 H   0  0  0  0  0  0  0  0  0  0  0  0
   50.8522   15.1279   14.7256 H   0  0  0  0  0  0  0  0  0  0  0  0
   48.8597   18.4831   14.7314 H   0  0  0  0  0  0  0  0  0  0  0  0
   49.8905   17.2873   13.9292 H   0  0  0  0  0  0  0  0  0  0  0  0
   51.9612   17.1135   16.7891 H   0  0  0  0  0  0  0  0  0  0  0  0
   51.9695   17.3743   15.0408 H   0  0  0  0  0  0  0  0  0  0  0  0
   46.7628    9.6710   11.8459 H   0  0  0  0  0  0  0  0  0  0  0  0
   44.5016    8.6654   11.9959 H   0  0  0  0  0  0  0  0  0  0  0  0
   41.1786   13.2333    6.3904 H   0  0  0  0  0  0  0  0  0  0  0  0
   43.2351   14.5241    5.8690 H   0  0  0  0  0  0  0  0  0  0  0  0
   46.5628   13.2676   12.4195 H   0  0  0  0  0  0  0  0  0  0  0  0
   46.1786   16.3223   12.0776 H   0  0  0  0  0  0  0  0  0  0  0  0
   44.7730   12.9291    9.5457 H   0  0  0  0  0  0  0  0  0  0  0  0
   48.1798   14.6721   15.1088 H   0  0  0  0  0  0  0  0  0  0  0  0
  2  1  2  0
  3  1  1  0
  4  6  1  0
  5  1  1  0
  6  3  2  0
  7  2  1  0
  8  7  2  0
  9 13  1  0
 10  5  1  0
 11  5  1  0
 12 10  1  0
 13 11  1  0
 14  3  1  0
 15  6  1  0
 16  9  1  0
 17 21  1  0
 18  7  1  0
 19  8  1  0
 20 22  1  0
 21 23  1  0
 22 16  1  0
 23 20  1  0
 24 14  2  0
 25 15  2  0
 26 19  2  0
 27 18  2  0
  9 12  1  0
  8  4  1  0
 24 25  1  0
 27 26  1  0
 29 28  2  0
 30 28  1  0
 31 33  1  0
 32 28  1  0
 33 30  2  0
 34 29  1  0
 35 34  2  0
 36 40  1  0
 37 32  1  0
 38 32  1  0
 39 37  1  0
 40 38  1  0
 41 30  1  0
 42 33  1  0
 43 36  1  0
 44 48  1  0
 45 34  1  0
 46 35  1  0
 47 49  1  0
 48 50  1  0
 49 43  1  0
 50 47  1  0
 51 41  2  0
 52 42  2  0
 53 46  2  0
 54 45  2  0
 36 39  1  0
 35 31  1  0
 51 52  1  0
 54 53  1  0
 56 58  1  0
 57 55  1  0
 58 57  2  0
 59 55  2  0
 60 56  2  0
 61 55  1  0
 62 56  1  0
 10 63  1  0
 10 64  1  0
 11 65  1  0
 11 66  1  0
 12 67  1  0
 12 68  1  0
 13 69  1  0
 13 70  1  0
 14 71  1  0
 15 72  1  0
 16 73  1  0
 16 74  1  0
 17 75  1  0
 18 76  1  0
 19 77  1  0
 21 78  1  0
 21 79  1  0
 22 80  1  0
 22 81  1  0
 23 82  1  0
 23 83  1  0
 24 84  1  0
 25 85  1  0
 26 86  1  0
 27 87  1  0
 37 88  1  0
 37 89  1  0
 38 90  1  0
 38 91  1  0
 39 92  1  0
 39 93  1  0
 40 94  1  0
 40 95  1  0
 41 96  1  0
 42 97  1  0
 43 98  1  0
 43 99  1  0
 44100  1  0
 45101  1  0
 46102  1  0
 48103  1  0
 48104  1  0
 49105  1  0
 49106  1  0
 50107  1  0
 50108  1  0
 51109  1  0
 52110  1  0
 53111  1  0
 54112  1  0
 57113  1  0
 58114  1  0
 61115  1  0
 62116  1  0
M  END
> <Uni-Dock RESULT> 
ENERGY=   -4.593  LOWER_BOUND=    8.659  UPPER_BOUND=   10.957
INTER + INTRA:          -4.593
INTER:                  -4.593
INTRA:                   0.000
UNBOUND:                 0.000

$$$$

     RDKit          3D

116121  0  0  0  0  0  0  0  0999 V2000
   51.5554    9.8921   12.8560 C   0  0  0  0  0  0  0  0  0  0  0  0
   52.3415    9.8551   11.8131 N   0  0  0  0  0  0  0  0  0  0  0  0
   51.8878   10.6334   14.1176 C   0  0  0  0  0  0  0  0  0  0  0  0
   52.3727   12.9329   12.5951 S   0  0  0  0  0  0  0  0  0  0  0  0
   50.3514    9.1824   12.8048 N   0  0  0  0  0  0  0  0  0  0  0  0
   52.1868   12.0031   14.1126 C   0  0  0  0  0  0  0  0  0  0  0  0
   53.5620   10.5481   11.7193 C   0  0  0  0  0  0  0  0  0  0  0  0
   53.7056   11.9340   11.9246 C   0  0  0  0  0  0  0  0  0  0  0  0
   48.0875    7.3920   12.8616 N   0  0  0  0  0  0  0  0  0  0  0  0
   49.1276    9.6497   13.4623 C   0  0  0  0  0  0  0  0  0  0  0  0
   50.1178    8.2442   11.6852 C   0  0  0  0  0  0  0  0  0  0  0  0
   48.2207    8.4617   13.8689 C   0  0  0  0  0  0  0  0  0  0  0  0
   48.6434    7.7810   11.5639 C   0  0  0  0  0  0  0  0  0  0  0  0
   51.8417    9.9278   15.3267 C   0  0  0  0  0  0  0  0  0  0  0  0
   52.4198   12.6544   15.3297 C   0  0  0  0  0  0  0  0  0  0  0  0
   46.7582    6.7841   12.8043 C   0  0  0  0  0  0  0  0  0  0  0  0
   42.4801    5.1513   13.3045 O   0  0  0  0  0  0  0  0  0  0  0  0
   54.6708    9.8224   11.2717 C   0  0  0  0  0  0  0  0  0  0  0  0
   54.9364   12.5607   11.6745 C   0  0  0  0  0  0  0  0  0  0  0  0
   44.3380    7.0643   12.4390 O   0  0  0  0  0  0  0  0  0  0  0  0
   42.6270    5.4676   11.9213 C   0  0  0  0  0  0  0  0  0  0  0  0
   45.6295    7.6259   12.1840 C   0  0  0  0  0  0  0  0  0  0  0  0
   44.0613    5.9037   11.6439 C   0  0  0  0  0  0  0  0  0  0  0  0
   52.0805   10.5870   16.5299 C   0  0  0  0  0  0  0  0  0  0  0  0
   52.3665   11.9490   16.5326 C   0  0  0  0  0  0  0  0  0  0  0  0
   56.0286   11.8148   11.2334 C   0  0  0  0  0  0  0  0  0  0  0  0
   55.9017   10.4423   11.0461 C   0  0  0  0  0  0  0  0  0  0  0  0
   51.0927   10.1244   13.2715 C   0  0  0  0  0  0  0  0  0  0  0  0
   52.1107    9.8884   14.0538 N   0  0  0  0  0  0  0  0  0  0  0  0
   50.9769   11.3131   12.3600 C   0  0  0  0  0  0  0  0  0  0  0  0
   51.6367   12.9996   14.4791 S   0  0  0  0  0  0  0  0  0  0  0  0
   50.0622    9.1793   13.2432 N   0  0  0  0  0  0  0  0  0  0  0  0
   51.1582   12.6272   12.8074 C   0  0  0  0  0  0  0  0  0  0  0  0
   53.2298   10.7209   14.1897 C   0  0  0  0  0  0  0  0  0  0  0  0
   53.1771   12.0982   14.4665 C   0  0  0  0  0  0  0  0  0  0  0  0
   47.8346    7.3626   14.1446 N   0  0  0  0  0  0  0  0  0  0  0  0
   50.2897    7.8660   13.8762 C   0  0  0  0  0  0  0  0  0  0  0  0
   48.6464    9.5874   13.1631 C   0  0  0  0  0  0  0  0  0  0  0  0
   49.1241    6.9085   13.5777 C   0  0  0  0  0  0  0  0  0  0  0  0
   47.7704    8.8387   14.2076 C   0  0  0  0  0  0  0  0  0  0  0  0
   50.6357   11.0630   11.0215 C   0  0  0  0  0  0  0  0  0  0  0  0
   50.9770   13.6859   11.9032 C   0  0  0  0  0  0  0  0  0  0  0  0
   46.6609    6.7843   13.4716 C   0  0  0  0  0  0  0  0  0  0  0  0
   44.5852    6.3862   10.7249 O   0  0  0  0  0  0  0  0  0  0  0  0
   54.4826   10.0942   14.1654 C   0  0  0  0  0  0  0  0  0  0  0  0
   54.3592   12.8174   14.6984 C   0  0  0  0  0  0  0  0  0  0  0  0
   45.3428    4.7795   13.0501 O   0  0  0  0  0  0  0  0  0  0  0  0
   45.5090    5.3037   10.6157 C   0  0  0  0  0  0  0  0  0  0  0  0
   46.6350    5.2420   13.4506 C   0  0  0  0  0  0  0  0  0  0  0  0
   45.2629    4.2687   11.7170 C   0  0  0  0  0  0  0  0  0  0  0  0
   50.4689   12.1204   10.1279 C   0  0  0  0  0  0  0  0  0  0  0  0
   50.6390   13.4307   10.5704 C   0  0  0  0  0  0  0  0  0  0  0  0
   55.5946   12.1727   14.6717 C   0  0  0  0  0  0  0  0  0  0  0  0
   55.6575   10.8073   14.4068 C   0  0  0  0  0  0  0  0  0  0  0  0
   51.4234    9.6744   13.1327 C   0  0  0  0  0  0  0  0  0  0  0  0
   48.1082    7.8326   13.2623 C   0  0  0  0  0  0  0  0  0  0  0  0
   50.0655    9.2565   12.7887 C   0  0  0  0  0  0  0  0  0  0  0  0
   49.4596    8.3248   13.5351 C   0  0  0  0  0  0  0  0  0  0  0  0
   52.0975    9.2976   14.0703 O   0  0  0  0  0  0  0  0  0  0  0  0
   47.5383    6.9771   13.9128 O   0  0  0  0  0  0  0  0  0  0  0  0
   51.8593   10.5929   12.2601 O   0  0  0  0  0  0  0  0  0  0  0  0
   47.5230    8.4185   12.2087 O   0  0  0  0  0  0  0  0  0  0  0  0
   48.5905   10.3062   12.7699 H   0  0  0  0  0  0  0  0  0  0  0  0
   49.3265   10.2424   14.3570 H   0  0  0  0  0  0  0  0  0  0  0  0
   50.4039    8.6978   10.7314 H   0  0  0  0  0  0  0  0  0  0  0  0
   50.7529    7.3609   11.8327 H   0  0  0  0  0  0  0  0  0  0  0  0
   48.6455    7.9978   14.7677 H   0  0  0  0  0  0  0  0  0  0  0  0
   47.2466    8.8775   14.1625 H   0  0  0  0  0  0  0  0  0  0  0  0
   48.6070    6.9367   10.8645 H   0  0  0  0  0  0  0  0  0  0  0  0
   48.0519    8.5929   11.1220 H   0  0  0  0  0  0  0  0  0  0  0  0
   51.6192    8.8652   15.3198 H   0  0  0  0  0  0  0  0  0  0  0  0
   52.6537   13.7172   15.3490 H   0  0  0  0  0  0  0  0  0  0  0  0
   46.8431    5.8461   12.2420 H   0  0  0  0  0  0  0  0  0  0  0  0
   46.4579    6.4704   13.8135 H   0  0  0  0  0  0  0  0  0  0  0  0
   42.8521    5.9160   13.7848 H   0  0  0  0  0  0  0  0  0  0  0  0
   54.5600    8.7602   11.0885 H   0  0  0  0  0  0  0  0  0  0  0  0
   55.0530   13.6296   11.8341 H   0  0  0  0  0  0  0  0  0  0  0  0
   41.9217    6.2681   11.6844 H   0  0  0  0  0  0  0  0  0  0  0  0
   42.3619    4.5818   11.3367 H   0  0  0  0  0  0  0  0  0  0  0  0
   45.6083    8.6253   12.6249 H   0  0  0  0  0  0  0  0  0  0  0  0
   45.7671    7.7548   11.1073 H   0  0  0  0  0  0  0  0  0  0  0  0
   44.1911    6.1337   10.5803 H   0  0  0  0  0  0  0  0  0  0  0  0
   44.7460    5.1011   11.9375 H   0  0  0  0  0  0  0  0  0  0  0  0
   52.0505   10.0365   17.4621 H   0  0  0  0  0  0  0  0  0  0  0  0
   52.5610   12.4631   17.4723 H   0  0  0  0  0  0  0  0  0  0  0  0
   56.9821   12.3008   11.0463 H   0  0  0  0  0  0  0  0  0  0  0  0
   56.7496    9.8505   10.7143 H   0  0  0  0  0  0  0  0  0  0  0  0
   51.2088    7.4200   13.4788 H   0  0  0  0  0  0  0  0  0  0  0  0
   50.4112    7.9850   14.9579 H   0  0  0  0  0  0  0  0  0  0  0  0
   48.5399   10.6621   13.3396 H   0  0  0  0  0  0  0  0  0  0  0  0
   48.2750    9.3829   12.1575 H   0  0  0  0  0  0  0  0  0  0  0  0
   49.0383    6.8070   12.4883 H   0  0  0  0  0  0  0  0  0  0  0  0
   49.3595    5.9183   13.9832 H   0  0  0  0  0  0  0  0  0  0  0  0
   48.1127    9.1301   15.2103 H   0  0  0  0  0  0  0  0  0  0  0  0
   46.7377    9.2016   14.1415 H   0  0  0  0  0  0  0  0  0  0  0  0
   50.4958   10.0420   10.6774 H   0  0  0  0  0  0  0  0  0  0  0  0
   51.1124   14.7176   12.2335 H   0  0  0  0  0  0  0  0  0  0  0  0
   45.7542    7.1155   13.9963 H   0  0  0  0  0  0  0  0  0  0  0  0
   46.5693    7.1765   12.4505 H   0  0  0  0  0  0  0  0  0  0  0  0
   44.7751    7.0169   10.0091 H   0  0  0  0  0  0  0  0  0  0  0  0
   54.5348    9.0246   13.9706 H   0  0  0  0  0  0  0  0  0  0  0  0
   54.3204   13.8844   14.9027 H   0  0  0  0  0  0  0  0  0  0  0  0
   45.3684    4.8465    9.6312 H   0  0  0  0  0  0  0  0  0  0  0  0
   46.5193    5.7097   10.6709 H   0  0  0  0  0  0  0  0  0  0  0  0
   46.7976    4.8745   14.4725 H   0  0  0  0  0  0  0  0  0  0  0  0
   47.4272    4.8225   12.8181 H   0  0  0  0  0  0  0  0  0  0  0  0
   44.2448    3.8715   11.6079 H   0  0  0  0  0  0  0  0  0  0  0  0
   45.9564    3.4298   11.6087 H   0  0  0  0  0  0  0  0  0  0  0  0
   50.2142   11.9258    9.0889 H   0  0  0  0  0  0  0  0  0  0  0  0
   50.4983   14.2587    9.8784 H   0  0  0  0  0  0  0  0  0  0  0  0
   56.5070   12.7299   14.8672 H   0  0  0  0  0  0  0  0  0  0  0  0
   56.6185   10.2963   14.3850 H   0  0  0  0  0  0  0  0  0  0  0  0
   49.6046    9.7194   11.9287 H   0  0  0  0  0  0  0  0  0  0  0  0
   49.9408    7.8769   14.3962 H   0  0  0  0  0  0  0  0  0  0  0  0
   52.7616   10.8128   12.5727 H   0  0  0  0  0  0  0  0  0  0  0  0
   46.6360    8.0013   12.1648 H   0  0  0  0  0  0  0  0  0  0  0  0
  2  1  2  0
  3  1  1  0
  4  6  1  0
  5  1  1  0
  6  3  2  0
  7  2  1  0
  8  7  2  0
  9 13  1  0
 10  5  1  0
 11  5  1  0
 12 10  1  0
 13 11  1  0
 14  3  1  0
 15  6  1  0
 16  9  1  0
 17 21  1  0
 18  7  1  0
 19  8  1  0
 20 22  1  0
 21 23  1  0
 22 16  1  0
 23 20  1  0
 24 14  2  0
 25 15  2  0
 26 19  2  0
 27 18  2  0
  9 12  1  0
  8  4  1  0
 24 25  1  0
 27 26  1  0
 29 28  2  0
 30 28  1  0
 31 33  1  0
 32 28  1  0
 33 30  2  0
 34 29  1  0
 35 34  2  0
 36 40  1  0
 37 32  1  0
 38 32  1  0
 39 37  1  0
 40 38  1  0
 41 30  1  0
 42 33  1  0
 43 36  1  0
 44 48  1  0
 45 34  1  0
 46 35  1  0
 47 49  1  0
 48 50  1  0
 49 43  1  0
 50 47  1  0
 51 41  2  0
 52 42  2  0
 53 46  2  0
 54 45  2  0
 36 39  1  0
 35 31  1  0
 51 52  1  0
 54 53  1  0
 56 58  1  0
 57 55  1  0
 58 57  2  0
 59 55  2  0
 60 56  2  0
 61 55  1  0
 62 56  1  0
 10 63  1  0
 10 64  1  0
 11 65  1  0
 11 66  1  0
 12 67  1  0
 12 68  1  0
 13 69  1  0
 13 70  1  0
 14 71  1  0
 15 72  1  0
 16 73  1  0
 16 74  1  0
 17 75  1  0
 18 76  1  0
 19 77  1  0
 21 78  1  0
 21 79  1  0
 22 80  1  0
 22 81  1  0
 23 82  1  0
 23 83  1  0
 24 84  1  0
 25 85  1  0
 26 86  1  0
 27 87  1  0
 37 88  1  0
 37 89  1  0
 38 90  1  0
 38 91  1  0
 39 92  1  0
 39 93  1  0
 40 94  1  0
 40 95  1  0
 41 96  1  0
 42 97  1  0
 43 98  1  0
 43 99  1  0
 44100  1  0
 45101  1  0
 46102  1  0
 48103  1  0
 48104  1  0
 49105  1  0
 49106  1  0
 50107  1  0
 50108  1  0
 51109  1  0
 52110  1  0
 53111  1  0
 54112  1  0
 57113  1  0
 58114  1  0
 61115  1  0
 62116  1  0
M  END
> <Uni-Dock RESULT> 
ENERGY=   -4.580  LOWER_BOUND=    4.836  UPPER_BOUND=    8.331
INTER + INTRA:          -4.580
INTER:                  -4.580
INTRA:                   0.000
UNBOUND:                 0.000

$$$$

     RDKit          3D

116121  0  0  0  0  0  0  0  0999 V2000
   49.6678    8.3244   17.5379 C   0  0  0  0  0  0  0  0  0  0  0  0
   50.4853    8.8859   18.3884 N   0  0  0  0  0  0  0  0  0  0  0  0
   48.9579    7.0293   17.8030 C   0  0  0  0  0  0  0  0  0  0  0  0
   48.0218    8.0805   20.2237 S   0  0  0  0  0  0  0  0  0  0  0  0
   49.4623    8.9496   16.3038 N   0  0  0  0  0  0  0  0  0  0  0  0
   48.1409    6.8518   18.9285 C   0  0  0  0  0  0  0  0  0  0  0  0
   50.7560    8.3822   19.6736 C   0  0  0  0  0  0  0  0  0  0  0  0
   49.7696    8.0897   20.6354 C   0  0  0  0  0  0  0  0  0  0  0  0
   49.3644   10.0039   13.6181 N   0  0  0  0  0  0  0  0  0  0  0  0
   48.1745    8.9184   15.6046 C   0  0  0  0  0  0  0  0  0  0  0  0
   50.3352   10.0795   15.9169 C   0  0  0  0  0  0  0  0  0  0  0  0
   48.3667    9.0158   14.0707 C   0  0  0  0  0  0  0  0  0  0  0  0
   49.8038   10.8839   14.7029 C   0  0  0  0  0  0  0  0  0  0  0  0
   49.0897    6.0020   16.8602 C   0  0  0  0  0  0  0  0  0  0  0  0
   47.4489    5.6450   19.0847 C   0  0  0  0  0  0  0  0  0  0  0  0
   49.0091   10.6891   12.3755 C   0  0  0  0  0  0  0  0  0  0  0  0
   47.4273   12.2775    8.3514 O   0  0  0  0  0  0  0  0  0  0  0  0
   52.1003    8.2888   20.0483 C   0  0  0  0  0  0  0  0  0  0  0  0
   50.1411    7.7217   21.9380 C   0  0  0  0  0  0  0  0  0  0  0  0
   47.4243   12.1236   11.1509 O   0  0  0  0  0  0  0  0  0  0  0  0
   47.6936   13.4249    9.1561 C   0  0  0  0  0  0  0  0  0  0  0  0
   47.8822   11.7341   12.4497 C   0  0  0  0  0  0  0  0  0  0  0  0
   48.3378   12.9930   10.4687 C   0  0  0  0  0  0  0  0  0  0  0  0
   48.3995    4.8045   17.0306 C   0  0  0  0  0  0  0  0  0  0  0  0
   47.5778    4.6263   18.1396 C   0  0  0  0  0  0  0  0  0  0  0  0
   51.4881    7.6310   22.2860 C   0  0  0  0  0  0  0  0  0  0  0  0
   52.4697    7.8994   21.3376 C   0  0  0  0  0  0  0  0  0  0  0  0
   49.0910    8.1631   17.2516 C   0  0  0  0  0  0  0  0  0  0  0  0
   49.6588    7.0064   17.4611 N   0  0  0  0  0  0  0  0  0  0  0  0
   48.4186    8.9862   18.3134 C   0  0  0  0  0  0  0  0  0  0  0  0
   46.9656    6.7498   19.1241 S   0  0  0  0  0  0  0  0  0  0  0  0
   49.1577    8.6950   15.9599 N   0  0  0  0  0  0  0  0  0  0  0  0
   47.4366    8.4642   19.1637 C   0  0  0  0  0  0  0  0  0  0  0  0
   49.6975    6.3418   18.6942 C   0  0  0  0  0  0  0  0  0  0  0  0
   48.5756    6.0770   19.4991 C   0  0  0  0  0  0  0  0  0  0  0  0
   48.8524    8.9851   12.9770 N   0  0  0  0  0  0  0  0  0  0  0  0
   50.0720    8.0709   14.9844 C   0  0  0  0  0  0  0  0  0  0  0  0
   48.0125    9.4081   15.3619 C   0  0  0  0  0  0  0  0  0  0  0  0
   50.1442    8.9052   13.6948 C   0  0  0  0  0  0  0  0  0  0  0  0
   47.7142    8.9120   13.9184 C   0  0  0  0  0  0  0  0  0  0  0  0
   48.7863   10.3380   18.4046 C   0  0  0  0  0  0  0  0  0  0  0  0
   46.8170    9.3152   20.0925 C   0  0  0  0  0  0  0  0  0  0  0  0
   48.7526   10.1429   12.0744 C   0  0  0  0  0  0  0  0  0  0  0  0
   48.5775   13.5495   11.4611 O   0  0  0  0  0  0  0  0  0  0  0  0
   50.9332    5.8035   19.0766 C   0  0  0  0  0  0  0  0  0  0  0  0
   48.7076    5.3016   20.6609 C   0  0  0  0  0  0  0  0  0  0  0  0
   49.5337   11.1901   10.0184 O   0  0  0  0  0  0  0  0  0  0  0  0
   49.9696   13.2532   11.3535 C   0  0  0  0  0  0  0  0  0  0  0  0
   49.8715   10.2227   11.0154 C   0  0  0  0  0  0  0  0  0  0  0  0
   50.2512   12.4245   10.0971 C   0  0  0  0  0  0  0  0  0  0  0  0
   48.1733   11.1731   19.3379 C   0  0  0  0  0  0  0  0  0  0  0  0
   47.1887   10.6606   20.1802 C   0  0  0  0  0  0  0  0  0  0  0  0
   49.9464    4.7742   21.0208 C   0  0  0  0  0  0  0  0  0  0  0  0
   51.0623    5.0233   20.2263 C   0  0  0  0  0  0  0  0  0  0  0  0
   49.6645    8.1473   17.2062 C   0  0  0  0  0  0  0  0  0  0  0  0
   48.9367    9.6252   13.7878 C   0  0  0  0  0  0  0  0  0  0  0  0
   49.2371    9.0937   16.1774 C   0  0  0  0  0  0  0  0  0  0  0  0
   49.3266    8.7425   14.8886 C   0  0  0  0  0  0  0  0  0  0  0  0
   50.0782    7.0168   17.0445 O   0  0  0  0  0  0  0  0  0  0  0  0
   49.0207    9.3399   12.6083 O   0  0  0  0  0  0  0  0  0  0  0  0
   49.5173    8.6894   18.4226 O   0  0  0  0  0  0  0  0  0  0  0  0
   48.4586   10.8107   14.1902 O   0  0  0  0  0  0  0  0  0  0  0  0
   47.5681    9.7595   15.9564 H   0  0  0  0  0  0  0  0  0  0  0  0
   47.5994    8.0149   15.8146 H   0  0  0  0  0  0  0  0  0  0  0  0
   50.4601   10.7777   16.7501 H   0  0  0  0  0  0  0  0  0  0  0  0
   51.3284    9.6831   15.6684 H   0  0  0  0  0  0  0  0  0  0  0  0
   48.7024    8.0377   13.7043 H   0  0  0  0  0  0  0  0  0  0  0  0
   47.3772    9.1930   13.6263 H   0  0  0  0  0  0  0  0  0  0  0  0
   50.6053   11.5473   14.3554 H   0  0  0  0  0  0  0  0  0  0  0  0
   48.9763   11.5233   15.0360 H   0  0  0  0  0  0  0  0  0  0  0  0
   49.7325    6.1449   15.9970 H   0  0  0  0  0  0  0  0  0  0  0  0
   46.8092    5.4857   19.9508 H   0  0  0  0  0  0  0  0  0  0  0  0
   49.9134   11.1779   11.9925 H   0  0  0  0  0  0  0  0  0  0  0  0
   48.7567    9.9439   11.6086 H   0  0  0  0  0  0  0  0  0  0  0  0
   46.9548   11.6555    8.9376 H   0  0  0  0  0  0  0  0  0  0  0  0
   52.8635    8.5362   19.3200 H   0  0  0  0  0  0  0  0  0  0  0  0
   49.3835    7.4923   22.6831 H   0  0  0  0  0  0  0  0  0  0  0  0
   46.7443   13.9356    9.3353 H   0  0  0  0  0  0  0  0  0  0  0  0
   48.3512   14.0937    8.5930 H   0  0  0  0  0  0  0  0  0  0  0  0
   47.0079   11.3214   12.9586 H   0  0  0  0  0  0  0  0  0  0  0  0
   48.1897   12.6201   13.0110 H   0  0  0  0  0  0  0  0  0  0  0  0
   48.5627   13.8680   11.0891 H   0  0  0  0  0  0  0  0  0  0  0  0
   49.2594   12.4417   10.2546 H   0  0  0  0  0  0  0  0  0  0  0  0
   48.5093    4.0100   16.3026 H   0  0  0  0  0  0  0  0  0  0  0  0
   47.0443    3.6875   18.2773 H   0  0  0  0  0  0  0  0  0  0  0  0
   51.7736    7.3400   23.2931 H   0  0  0  0  0  0  0  0  0  0  0  0
   53.5215    7.8199   21.5953 H   0  0  0  0  0  0  0  0  0  0  0  0
   51.0803    8.0119   15.4104 H   0  0  0  0  0  0  0  0  0  0  0  0
   49.7408    7.0525   14.7556 H   0  0  0  0  0  0  0  0  0  0  0  0
   47.1086    9.2668   15.9622 H   0  0  0  0  0  0  0  0  0  0  0  0
   48.2302   10.4775   15.3456 H   0  0  0  0  0  0  0  0  0  0  0  0
   50.4868    9.9133   13.9610 H   0  0  0  0  0  0  0  0  0  0  0  0
   50.8940    8.4686   13.0258 H   0  0  0  0  0  0  0  0  0  0  0  0
   47.4159    7.8560   13.9763 H   0  0  0  0  0  0  0  0  0  0  0  0
   46.8335    9.4368   13.5293 H   0  0  0  0  0  0  0  0  0  0  0  0
   49.5489   10.7401   17.7433 H   0  0  0  0  0  0  0  0  0  0  0  0
   46.0479    8.9271   20.7630 H   0  0  0  0  0  0  0  0  0  0  0  0
   47.7983   10.0870   11.5327 H   0  0  0  0  0  0  0  0  0  0  0  0
   48.7101   11.0774   12.6487 H   0  0  0  0  0  0  0  0  0  0  0  0
   48.4436   14.0757   12.2682 H   0  0  0  0  0  0  0  0  0  0  0  0
   51.8053    5.9861   18.4516 H   0  0  0  0  0  0  0  0  0  0  0  0
   47.8427    5.1046   21.2894 H   0  0  0  0  0  0  0  0  0  0  0  0
   50.5078   14.2050   11.3050 H   0  0  0  0  0  0  0  0  0  0  0  0
   50.2771   12.7239   12.2555 H   0  0  0  0  0  0  0  0  0  0  0  0
   49.9392    9.2538   10.5031 H   0  0  0  0  0  0  0  0  0  0  0  0
   50.8516   10.4298   11.4625 H   0  0  0  0  0  0  0  0  0  0  0  0
   49.9482   13.0048    9.2153 H   0  0  0  0  0  0  0  0  0  0  0  0
   51.3231   12.2262   10.0078 H   0  0  0  0  0  0  0  0  0  0  0  0
   48.4653   12.2177   19.4149 H   0  0  0  0  0  0  0  0  0  0  0  0
   46.7002   11.3123   20.9019 H   0  0  0  0  0  0  0  0  0  0  0  0
   50.0418    4.1611   21.9131 H   0  0  0  0  0  0  0  0  0  0  0  0
   52.0332    4.6142   20.5002 H   0  0  0  0  0  0  0  0  0  0  0  0
   48.8685   10.0542   16.5061 H   0  0  0  0  0  0  0  0  0  0  0  0
   49.6963    7.7713   14.5827 H   0  0  0  0  0  0  0  0  0  0  0  0
   49.8189    7.9880   19.0368 H   0  0  0  0  0  0  0  0  0  0  0  0
   48.2318   11.2734   13.3552 H   0  0  0  0  0  0  0  0  0  0  0  0
  2  1  2  0
  3  1  1  0
  4  6  1  0
  5  1  1  0
  6  3  2  0
  7  2  1  0
  8  7  2  0
  9 13  1  0
 10  5  1  0
 11  5  1  0
 12 10  1  0
 13 11  1  0
 14  3  1  0
 15  6  1  0
 16  9  1  0
 17 21  1  0
 18  7  1  0
 19  8  1  0
 20 22  1  0
 21 23  1  0
 22 16  1  0
 23 20  1  0
 24 14  2  0
 25 15  2  0
 26 19  2  0
 27 18  2  0
  9 12  1  0
  8  4  1  0
 24 25  1  0
 27 26  1  0
 29 28  2  0
 30 28  1  0
 31 33  1  0
 32 28  1  0
 33 30  2  0
 34 29  1  0
 35 34  2  0
 36 40  1  0
 37 32  1  0
 38 32  1  0
 39 37  1  0
 40 38  1  0
 41 30  1  0
 42 33  1  0
 43 36  1  0
 44 48  1  0
 45 34  1  0
 46 35  1  0
 47 49  1  0
 48 50  1  0
 49 43  1  0
 50 47  1  0
 51 41  2  0
 52 42  2  0
 53 46  2  0
 54 45  2  0
 36 39  1  0
 35 31  1  0
 51 52  1  0
 54 53  1  0
 56 58  1  0
 57 55  1  0
 58 57  2  0
 59 55  2  0
 60 56  2  0
 61 55  1  0
 62 56  1  0
 10 63  1  0
 10 64  1  0
 11 65  1  0
 11 66  1  0
 12 67  1  0
 12 68  1  0
 13 69  1  0
 13 70  1  0
 14 71  1  0
 15 72  1  0
 16 73  1  0
 16 74  1  0
 17 75  1  0
 18 76  1  0
 19 77  1  0
 21 78  1  0
 21 79  1  0
 22 80  1  0
 22 81  1  0
 23 82  1  0
 23 83  1  0
 24 84  1  0
 25 85  1  0
 26 86  1  0
 27 87  1  0
 37 88  1  0
 37 89  1  0
 38 90  1  0
 38 91  1  0
 39 92  1  0
 39 93  1  0
 40 94  1  0
 40 95  1  0
 41 96  1  0
 42 97  1  0
 43 98  1  0
 43 99  1  0
 44100  1  0
 45101  1  0
 46102  1  0
 48103  1  0
 48104  1  0
 49105  1  0
 49106  1  0
 50107  1  0
 50108  1  0
 51109  1  0
 52110  1  0
 53111  1  0
 54112  1  0
 57113  1  0
 58114  1  0
 61115  1  0
 62116  1  0
M  END
> <Uni-Dock RESULT> 
ENERGY=   -4.555  LOWER_BOUND=    3.447  UPPER_BOUND=    8.563
INTER + INTRA:          -4.555
INTER:                  -4.555
INTRA:                   0.000
UNBOUND:                 0.000

$$$$

     RDKit          3D

116121  0  0  0  0  0  0  0  0999 V2000
   49.7176    7.4459   18.0267 C   0  0  0  0  0  0  0  0  0  0  0  0
   48.6024    7.2710   18.6845 N   0  0  0  0  0  0  0  0  0  0  0  0
   51.0416    6.9074   18.4834 C   0  0  0  0  0  0  0  0  0  0  0  0
   49.8871    4.3668   18.7145 S   0  0  0  0  0  0  0  0  0  0  0  0
   49.6813    8.1966   16.8472 N   0  0  0  0  0  0  0  0  0  0  0  0
   51.2358    5.5424   18.7380 C   0  0  0  0  0  0  0  0  0  0  0  0
   48.4919    6.5120   19.8636 C   0  0  0  0  0  0  0  0  0  0  0  0
   48.9122    5.1736   19.9883 C   0  0  0  0  0  0  0  0  0  0  0  0
   49.6857   10.0824   14.6615 N   0  0  0  0  0  0  0  0  0  0  0  0
   50.5411    7.9058   15.6963 C   0  0  0  0  0  0  0  0  0  0  0  0
   48.4519    8.9475   16.5113 C   0  0  0  0  0  0  0  0  0  0  0  0
   50.8387    9.1884   14.8804 C   0  0  0  0  0  0  0  0  0  0  0  0
   48.4191    9.4573   15.0477 C   0  0  0  0  0  0  0  0  0  0  0  0
   52.1108    7.8043   18.6023 C   0  0  0  0  0  0  0  0  0  0  0  0
   52.5121    5.0903   19.0935 C   0  0  0  0  0  0  0  0  0  0  0  0
   49.6748   10.7381   13.3538 C   0  0  0  0  0  0  0  0  0  0  0  0
   50.3650   12.6424    9.2168 O   0  0  0  0  0  0  0  0  0  0  0  0
   47.8067    7.0975   20.9332 C   0  0  0  0  0  0  0  0  0  0  0  0
   48.6363    4.4535   21.1612 C   0  0  0  0  0  0  0  0  0  0  0  0
   49.6349   10.5224   10.9000 O   0  0  0  0  0  0  0  0  0  0  0  0
   49.0479   12.0951    9.1891 C   0  0  0  0  0  0  0  0  0  0  0  0
   49.3363    9.8627   12.1346 C   0  0  0  0  0  0  0  0  0  0  0  0
   48.6902   11.5482   10.5666 C   0  0  0  0  0  0  0  0  0  0  0  0
   53.3741    7.3417   18.9618 C   0  0  0  0  0  0  0  0  0  0  0  0
   53.5761    5.9863   19.2046 C   0  0  0  0  0  0  0  0  0  0  0  0
   47.9558    5.0609   22.2157 C   0  0  0  0  0  0  0  0  0  0  0  0
   47.5536    6.3883   22.1092 C   0  0  0  0  0  0  0  0  0  0  0  0
   50.2155    7.3087   17.6095 C   0  0  0  0  0  0  0  0  0  0  0  0
   50.8278    7.6195   18.7198 N   0  0  0  0  0  0  0  0  0  0  0  0
   49.5378    5.9931   17.3506 C   0  0  0  0  0  0  0  0  0  0  0  0
   51.8253    4.6489   18.2050 S   0  0  0  0  0  0  0  0  0  0  0  0
   50.1424    8.2864   16.6122 N   0  0  0  0  0  0  0  0  0  0  0  0
   50.1786    4.7635   17.5435 C   0  0  0  0  0  0  0  0  0  0  0  0
   50.9772    6.7662   19.8212 C   0  0  0  0  0  0  0  0  0  0  0  0
   51.4879    5.4578   19.7598 C   0  0  0  0  0  0  0  0  0  0  0  0
   50.9652   10.3359   14.5634 N   0  0  0  0  0  0  0  0  0  0  0  0
   50.5138    9.6732   16.9529 C   0  0  0  0  0  0  0  0  0  0  0  0
   50.2912    7.9418   15.1852 C   0  0  0  0  0  0  0  0  0  0  0  0
   50.1890   10.6252   15.7898 C   0  0  0  0  0  0  0  0  0  0  0  0
   51.2846    8.8954   14.4621 C   0  0  0  0  0  0  0  0  0  0  0  0
   48.2227    6.0355   16.8610 C   0  0  0  0  0  0  0  0  0  0  0  0
   49.4933    3.5805   17.2244 C   0  0  0  0  0  0  0  0  0  0  0  0
   50.3391   10.8529   13.3363 C   0  0  0  0  0  0  0  0  0  0  0  0
   47.8138   10.8951   10.9630 O   0  0  0  0  0  0  0  0  0  0  0  0
   50.7072    7.3170   21.0808 C   0  0  0  0  0  0  0  0  0  0  0  0
   51.7052    4.7288   20.9387 C   0  0  0  0  0  0  0  0  0  0  0  0
   49.7332   12.8238   12.0392 O   0  0  0  0  0  0  0  0  0  0  0  0
   47.4200   11.8972   11.8999 C   0  0  0  0  0  0  0  0  0  0  0  0
   50.0595   12.3699   13.3551 C   0  0  0  0  0  0  0  0  0  0  0  0
   48.3501   13.1109   11.8175 C   0  0  0  0  0  0  0  0  0  0  0  0
   47.5460    4.8548   16.5574 C   0  0  0  0  0  0  0  0  0  0  0  0
   48.1826    3.6287   16.7388 C   0  0  0  0  0  0  0  0  0  0  0  0
   51.4316    5.2978   22.1812 C   0  0  0  0  0  0  0  0  0  0  0  0
   50.9334    6.5958   22.2538 C   0  0  0  0  0  0  0  0  0  0  0  0
   49.9663    7.7126   17.9350 C   0  0  0  0  0  0  0  0  0  0  0  0
   50.1505    9.7136   14.7161 C   0  0  0  0  0  0  0  0  0  0  0  0
   49.7101    8.1352   16.5594 C   0  0  0  0  0  0  0  0  0  0  0  0
   50.3504    9.2064   16.0747 C   0  0  0  0  0  0  0  0  0  0  0  0
   50.7451    8.2049   18.7266 O   0  0  0  0  0  0  0  0  0  0  0  0
   50.7059   10.6920   14.2535 O   0  0  0  0  0  0  0  0  0  0  0  0
   49.2192    6.6420   18.2364 O   0  0  0  0  0  0  0  0  0  0  0  0
   49.2838    8.9917   13.9926 O   0  0  0  0  0  0  0  0  0  0  0  0
   50.0345    7.1717   15.0612 H   0  0  0  0  0  0  0  0  0  0  0  0
   51.4955    7.4599   15.9816 H   0  0  0  0  0  0  0  0  0  0  0  0
   47.5630    8.3290   16.6685 H   0  0  0  0  0  0  0  0  0  0  0  0
   48.3755    9.8103   17.1860 H   0  0  0  0  0  0  0  0  0  0  0  0
   51.5926    9.7726   15.4226 H   0  0  0  0  0  0  0  0  0  0  0  0
   51.3056    8.8759   13.9358 H   0  0  0  0  0  0  0  0  0  0  0  0
   47.5949   10.1753   14.9544 H   0  0  0  0  0  0  0  0  0  0  0  0
   48.1902    8.6141   14.3836 H   0  0  0  0  0  0  0  0  0  0  0  0
   51.9485    8.8610   18.4130 H   0  0  0  0  0  0  0  0  0  0  0  0
   52.6853    4.0349   19.2957 H   0  0  0  0  0  0  0  0  0  0  0  0
   48.9555   11.5650   13.4001 H   0  0  0  0  0  0  0  0  0  0  0  0
   50.6433   11.2286   13.1848 H   0  0  0  0  0  0  0  0  0  0  0  0
   50.9235   11.9499    9.6196 H   0  0  0  0  0  0  0  0  0  0  0  0
   47.4593    8.1191   20.8338 H   0  0  0  0  0  0  0  0  0  0  0  0
   48.9610    3.4212   21.2634 H   0  0  0  0  0  0  0  0  0  0  0  0
   49.0305   11.3027    8.4367 H   0  0  0  0  0  0  0  0  0  0  0  0
   48.3547   12.8844    8.8837 H   0  0  0  0  0  0  0  0  0  0  0  0
   49.9402    8.9522   12.1353 H   0  0  0  0  0  0  0  0  0  0  0  0
   48.2887    9.5512   12.1397 H   0  0  0  0  0  0  0  0  0  0  0  0
   47.6734   11.1396   10.5624 H   0  0  0  0  0  0  0  0  0  0  0  0
   48.7650   12.3531   11.3053 H   0  0  0  0  0  0  0  0  0  0  0  0
   54.1968    8.0395   19.0592 H   0  0  0  0  0  0  0  0  0  0  0  0
   54.5617    5.6253   19.4933 H   0  0  0  0  0  0  0  0  0  0  0  0
   47.7487    4.5038   23.1250 H   0  0  0  0  0  0  0  0  0  0  0  0
   47.0336    6.8741   22.9295 H   0  0  0  0  0  0  0  0  0  0  0  0
   49.9463   10.0010   17.8316 H   0  0  0  0  0  0  0  0  0  0  0  0
   51.5796    9.7285   17.1980 H   0  0  0  0  0  0  0  0  0  0  0  0
   50.6584    6.9177   15.0676 H   0  0  0  0  0  0  0  0  0  0  0  0
   49.3133    7.9957   14.7036 H   0  0  0  0  0  0  0  0  0  0  0  0
   49.1147   10.5496   15.5788 H   0  0  0  0  0  0  0  0  0  0  0  0
   50.3917   11.6557   16.1016 H   0  0  0  0  0  0  0  0  0  0  0  0
   52.2777    8.7569   14.9117 H   0  0  0  0  0  0  0  0  0  0  0  0
   51.3969    8.5786   13.4184 H   0  0  0  0  0  0  0  0  0  0  0  0
   47.7281    6.9914   16.7124 H   0  0  0  0  0  0  0  0  0  0  0  0
   49.9767    2.6120   17.3665 H   0  0  0  0  0  0  0  0  0  0  0  0
   51.0103   10.6585   12.4885 H   0  0  0  0  0  0  0  0  0  0  0  0
   49.4161   10.3026   13.1125 H   0  0  0  0  0  0  0  0  0  0  0  0
   47.1988   10.1462   11.0475 H   0  0  0  0  0  0  0  0  0  0  0  0
   50.3290    8.3358   21.1421 H   0  0  0  0  0  0  0  0  0  0  0  0
   52.0906    3.7134   20.8919 H   0  0  0  0  0  0  0  0  0  0  0  0
   46.3942   12.1921   11.6577 H   0  0  0  0  0  0  0  0  0  0  0  0
   47.4302   11.4561   12.8968 H   0  0  0  0  0  0  0  0  0  0  0  0
   50.9796   12.8925   13.6486 H   0  0  0  0  0  0  0  0  0  0  0  0
   49.2807   12.6391   14.0792 H   0  0  0  0  0  0  0  0  0  0  0  0
   48.2895   13.5349   10.8062 H   0  0  0  0  0  0  0  0  0  0  0  0
   48.0243   13.8847   12.5185 H   0  0  0  0  0  0  0  0  0  0  0  0
   46.5240    4.8876   16.1875 H   0  0  0  0  0  0  0  0  0  0  0  0
   47.6614    2.7058   16.4921 H   0  0  0  0  0  0  0  0  0  0  0  0
   51.6158    4.7357   23.0929 H   0  0  0  0  0  0  0  0  0  0  0  0
   50.7181    7.0476   23.2206 H   0  0  0  0  0  0  0  0  0  0  0  0
   48.9980    7.5602   15.9859 H   0  0  0  0  0  0  0  0  0  0  0  0
   51.0637    9.7657   16.6678 H   0  0  0  0  0  0  0  0  0  0  0  0
   49.4618    6.4321   19.1622 H   0  0  0  0  0  0  0  0  0  0  0  0
   49.2689    9.4397   13.1198 H   0  0  0  0  0  0  0  0  0  0  0  0
  2  1  2  0
  3  1  1  0
  4  6  1  0
  5  1  1  0
  6  3  2  0
  7  2  1  0
  8  7  2  0
  9 13  1  0
 10  5  1  0
 11  5  1  0
 12 10  1  0
 13 11  1  0
 14  3  1  0
 15  6  1  0
 16  9  1  0
 17 21  1  0
 18  7  1  0
 19  8  1  0
 20 22  1  0
 21 23  1  0
 22 16  1  0
 23 20  1  0
 24 14  2  0
 25 15  2  0
 26 19  2  0
 27 18  2  0
  9 12  1  0
  8  4  1  0
 24 25  1  0
 27 26  1  0
 29 28  2  0
 30 28  1  0
 31 33  1  0
 32 28  1  0
 33 30  2  0
 34 29  1  0
 35 34  2  0
 36 40  1  0
 37 32  1  0
 38 32  1  0
 39 37  1  0
 40 38  1  0
 41 30  1  0
 42 33  1  0
 43 36  1  0
 44 48  1  0
 45 34  1  0
 46 35  1  0
 47 49  1  0
 48 50  1  0
 49 43  1  0
 50 47  1  0
 51 41  2  0
 52 42  2  0
 53 46  2  0
 54 45  2  0
 36 39  1  0
 35 31  1  0
 51 52  1  0
 54 53  1  0
 56 58  1  0
 57 55  1  0
 58 57  2  0
 59 55  2  0
 60 56  2  0
 61 55  1  0
 62 56  1  0
 10 63  1  0
 10 64  1  0
 11 65  1  0
 11 66  1  0
 12 67  1  0
 12 68  1  0
 13 69  1  0
 13 70  1  0
 14 71  1  0
 15 72  1  0
 16 73  1  0
 16 74  1  0
 17 75  1  0
 18 76  1  0
 19 77  1  0
 21 78  1  0
 21 79  1  0
 22 80  1  0
 22 81  1  0
 23 82  1  0
 23 83  1  0
 24 84  1  0
 25 85  1  0
 26 86  1  0
 27 87  1  0
 37 88  1  0
 37 89  1  0
 38 90  1  0
 38 91  1  0
 39 92  1  0
 39 93  1  0
 40 94  1  0
 40 95  1  0
 41 96  1  0
 42 97  1  0
 43 98  1  0
 43 99  1  0
 44100  1  0
 45101  1  0
 46102  1  0
 48103  1  0
 48104  1  0
 49105  1  0
 49106  1  0
 50107  1  0
 50108  1  0
 51109  1  0
 52110  1  0
 53111  1  0
 54112  1  0
 57113  1  0
 58114  1  0
 61115  1  0
 62116  1  0
M  END
> <Uni-Dock RESULT> 
ENERGY=   -4.518  LOWER_BOUND=    3.041  UPPER_BOUND=    8.193
INTER + INTRA:          -4.518
INTER:                  -4.518
INTRA:                   0.000
UNBOUND:                 0.000

$$$$

     RDKit          3D

116121  0  0  0  0  0  0  0  0999 V2000
   49.1461   14.8533   16.4459 C   0  0  0  0  0  0  0  0  0  0  0  0
   49.7270   15.9068   16.9554 N   0  0  0  0  0  0  0  0  0  0  0  0
   48.6611   14.7795   15.0279 C   0  0  0  0  0  0  0  0  0  0  0  0
   51.1959   15.5908   14.1575 S   0  0  0  0  0  0  0  0  0  0  0  0
   48.9416   13.7437   17.2724 N   0  0  0  0  0  0  0  0  0  0  0  0
   49.5161   15.0132   13.9417 C   0  0  0  0  0  0  0  0  0  0  0  0
   50.0223   17.0745   16.2288 C   0  0  0  0  0  0  0  0  0  0  0  0
   50.7653   17.0984   15.0326 C   0  0  0  0  0  0  0  0  0  0  0  0
   48.1440   11.6313   19.0712 N   0  0  0  0  0  0  0  0  0  0  0  0
   49.0083   12.3652   16.7789 C   0  0  0  0  0  0  0  0  0  0  0  0
   49.1744   13.8790   18.7270 C   0  0  0  0  0  0  0  0  0  0  0  0
   48.0987   11.4271   17.6108 C   0  0  0  0  0  0  0  0  0  0  0  0
   49.2356   12.5211   19.4724 C   0  0  0  0  0  0  0  0  0  0  0  0
   47.3267   14.4155   14.8072 C   0  0  0  0  0  0  0  0  0  0  0  0
   49.0225   14.8606   12.6406 C   0  0  0  0  0  0  0  0  0  0  0  0
   48.0352   10.3996   19.8528 C   0  0  0  0  0  0  0  0  0  0  0  0
   47.4043    6.2260   21.6971 O   0  0  0  0  0  0  0  0  0  0  0  0
   49.6541   18.2928   16.8089 C   0  0  0  0  0  0  0  0  0  0  0  0
   51.1278   18.3235   14.4512 C   0  0  0  0  0  0  0  0  0  0  0  0
   48.9460    8.1775   20.4027 O   0  0  0  0  0  0  0  0  0  0  0  0
   48.5874    6.7518   22.2958 C   0  0  0  0  0  0  0  0  0  0  0  0
   49.2573    9.4647   19.8599 C   0  0  0  0  0  0  0  0  0  0  0  0
   48.8046    8.1871   21.8295 C   0  0  0  0  0  0  0  0  0  0  0  0
   46.8473   14.2722   13.5076 C   0  0  0  0  0  0  0  0  0  0  0  0
   47.6941   14.4915   12.4251 C   0  0  0  0  0  0  0  0  0  0  0  0
   50.7448   19.5249   15.0461 C   0  0  0  0  0  0  0  0  0  0  0  0
   49.9944   19.5112   16.2173 C   0  0  0  0  0  0  0  0  0  0  0  0
   49.0874   14.2818   16.1132 C   0  0  0  0  0  0  0  0  0  0  0  0
   48.1709   15.0404   15.5759 N   0  0  0  0  0  0  0  0  0  0  0  0
   50.5575   14.3864   15.8215 C   0  0  0  0  0  0  0  0  0  0  0  0
   50.0162   14.3421   13.0875 S   0  0  0  0  0  0  0  0  0  0  0  0
   48.6772   13.3410   17.0631 N   0  0  0  0  0  0  0  0  0  0  0  0
   51.0705   14.3796   14.5191 C   0  0  0  0  0  0  0  0  0  0  0  0
   48.4116   16.0396   14.6233 C   0  0  0  0  0  0  0  0  0  0  0  0
   49.1346   15.8554   13.4316 C   0  0  0  0  0  0  0  0  0  0  0  0
   47.2437   11.0216   18.3440 N   0  0  0  0  0  0  0  0  0  0  0  0
   47.3048   13.4284   17.5981 C   0  0  0  0  0  0  0  0  0  0  0  0
   49.2751   11.9932   17.1186 C   0  0  0  0  0  0  0  0  0  0  0  0
   47.1078   12.4365   18.7564 C   0  0  0  0  0  0  0  0  0  0  0  0
   48.1892   10.8839   17.2152 C   0  0  0  0  0  0  0  0  0  0  0  0
   51.4256   14.4545   16.9227 C   0  0  0  0  0  0  0  0  0  0  0  0
   52.4615   14.4245   14.3344 C   0  0  0  0  0  0  0  0  0  0  0  0
   47.5708   10.1146   19.4555 C   0  0  0  0  0  0  0  0  0  0  0  0
   49.6902    8.9336   21.9304 O   0  0  0  0  0  0  0  0  0  0  0  0
   47.7753   17.2701   14.8324 C   0  0  0  0  0  0  0  0  0  0  0  0
   49.2186   16.8917   12.4896 C   0  0  0  0  0  0  0  0  0  0  0  0
   46.7973    9.0533   21.5072 O   0  0  0  0  0  0  0  0  0  0  0  0
   48.8757    9.8917   22.6055 C   0  0  0  0  0  0  0  0  0  0  0  0
   46.5682   10.1566   20.6272 C   0  0  0  0  0  0  0  0  0  0  0  0
   47.4388    9.3802   22.7426 C   0  0  0  0  0  0  0  0  0  0  0  0
   52.8054   14.5102   16.7292 C   0  0  0  0  0  0  0  0  0  0  0  0
   53.3216   14.4942   15.4350 C   0  0  0  0  0  0  0  0  0  0  0  0
   48.5755   18.1069   12.7176 C   0  0  0  0  0  0  0  0  0  0  0  0
   47.8499   18.2970   13.8905 C   0  0  0  0  0  0  0  0  0  0  0  0
   48.8265   14.6559   16.4641 C   0  0  0  0  0  0  0  0  0  0  0  0
   48.1421   11.5186   18.4860 C   0  0  0  0  0  0  0  0  0  0  0  0
   49.0567   13.4719   17.2897 C   0  0  0  0  0  0  0  0  0  0  0  0
   48.0138   12.7141   17.6509 C   0  0  0  0  0  0  0  0  0  0  0  0
   47.7696   15.0463   16.0101 O   0  0  0  0  0  0  0  0  0  0  0  0
   47.2123   10.8198   18.8424 O   0  0  0  0  0  0  0  0  0  0  0  0
   49.9844   15.2878   16.2292 O   0  0  0  0  0  0  0  0  0  0  0  0
   49.4047   11.2384   18.8370 O   0  0  0  0  0  0  0  0  0  0  0  0
   50.0471   12.0244   16.8402 H   0  0  0  0  0  0  0  0  0  0  0  0
   48.7157   12.2749   15.7313 H   0  0  0  0  0  0  0  0  0  0  0  0
   50.1113   14.4091   18.9234 H   0  0  0  0  0  0  0  0  0  0  0  0
   48.3611   14.4791   19.1556 H   0  0  0  0  0  0  0  0  0  0  0  0
   47.0596   11.5935   17.3008 H   0  0  0  0  0  0  0  0  0  0  0  0
   48.3472   10.3941   17.3292 H   0  0  0  0  0  0  0  0  0  0  0  0
   49.1890   12.7206   20.5501 H   0  0  0  0  0  0  0  0  0  0  0  0
   50.2064   12.0501   19.2723 H   0  0  0  0  0  0  0  0  0  0  0  0
   46.6693   14.2463   15.6546 H   0  0  0  0  0  0  0  0  0  0  0  0
   49.6688   15.0371   11.7828 H   0  0  0  0  0  0  0  0  0  0  0  0
   47.8041   10.6794   20.8880 H   0  0  0  0  0  0  0  0  0  0  0  0
   47.1537    9.8344   19.5202 H   0  0  0  0  0  0  0  0  0  0  0  0
   47.4928    6.4138   20.7428 H   0  0  0  0  0  0  0  0  0  0  0  0
   49.1035   18.2813   17.7421 H   0  0  0  0  0  0  0  0  0  0  0  0
   51.6989   18.3472   13.5266 H   0  0  0  0  0  0  0  0  0  0  0  0
   49.4240    6.1135   22.0006 H   0  0  0  0  0  0  0  0  0  0  0  0
   48.4737    6.7011   23.3827 H   0  0  0  0  0  0  0  0  0  0  0  0
   49.6048    9.2783   18.8410 H   0  0  0  0  0  0  0  0  0  0  0  0
   50.0960    9.9009   20.4086 H   0  0  0  0  0  0  0  0  0  0  0  0
   49.7023    8.6079   22.2962 H   0  0  0  0  0  0  0  0  0  0  0  0
   47.9296    8.7894   22.0953 H   0  0  0  0  0  0  0  0  0  0  0  0
   45.8130   13.9971   13.3411 H   0  0  0  0  0  0  0  0  0  0  0  0
   47.3178   14.3873   11.4090 H   0  0  0  0  0  0  0  0  0  0  0  0
   51.0211   20.4720   14.5912 H   0  0  0  0  0  0  0  0  0  0  0  0
   49.6809   20.4413   16.6819 H   0  0  0  0  0  0  0  0  0  0  0  0
   47.1219   14.4398   17.9792 H   0  0  0  0  0  0  0  0  0  0  0  0
   46.5775   13.2290   16.8041 H   0  0  0  0  0  0  0  0  0  0  0  0
   49.8803   11.7982   16.2280 H   0  0  0  0  0  0  0  0  0  0  0  0
   49.9383   11.9348   17.9835 H   0  0  0  0  0  0  0  0  0  0  0  0
   47.8454   12.6716   19.5342 H   0  0  0  0  0  0  0  0  0  0  0  0
   46.1128   12.5841   19.1907 H   0  0  0  0  0  0  0  0  0  0  0  0
   47.5914   10.9117   16.2936 H   0  0  0  0  0  0  0  0  0  0  0  0
   48.6741    9.9005   17.2116 H   0  0  0  0  0  0  0  0  0  0  0  0
   51.0243   14.4597   17.9324 H   0  0  0  0  0  0  0  0  0  0  0  0
   52.8808   14.4184   13.3264 H   0  0  0  0  0  0  0  0  0  0  0  0
   47.5830    9.0830   19.0776 H   0  0  0  0  0  0  0  0  0  0  0  0
   48.5875   10.3051   19.8228 H   0  0  0  0  0  0  0  0  0  0  0  0
   50.5905    9.2963   21.8662 H   0  0  0  0  0  0  0  0  0  0  0  0
   47.1971   17.4181   15.7426 H   0  0  0  0  0  0  0  0  0  0  0  0
   49.7857   16.7538   11.5724 H   0  0  0  0  0  0  0  0  0  0  0  0
   49.3119   10.0581   23.5955 H   0  0  0  0  0  0  0  0  0  0  0  0
   48.9127   10.8266   22.0461 H   0  0  0  0  0  0  0  0  0  0  0  0
   45.5538   10.0328   20.2254 H   0  0  0  0  0  0  0  0  0  0  0  0
   46.5972   11.1130   21.1638 H   0  0  0  0  0  0  0  0  0  0  0  0
   47.4481    8.4529   23.3309 H   0  0  0  0  0  0  0  0  0  0  0  0
   46.8290   10.1080   23.2855 H   0  0  0  0  0  0  0  0  0  0  0  0
   53.4770   14.5728   17.5821 H   0  0  0  0  0  0  0  0  0  0  0  0
   54.3983   14.5260   15.2808 H   0  0  0  0  0  0  0  0  0  0  0  0
   48.6299   18.9019   11.9785 H   0  0  0  0  0  0  0  0  0  0  0  0
   47.3440   19.2430   14.0755 H   0  0  0  0  0  0  0  0  0  0  0  0
   50.0740   13.2598   17.5841 H   0  0  0  0  0  0  0  0  0  0  0  0
   47.0020   12.9446   17.3403 H   0  0  0  0  0  0  0  0  0  0  0  0
   49.7322   16.0527   15.6711 H   0  0  0  0  0  0  0  0  0  0  0  0
   49.3286   10.4187   19.3708 H   0  0  0  0  0  0  0  0  0  0  0  0
  2  1  2  0
  3  1  1  0
  4  6  1  0
  5  1  1  0
  6  3  2  0
  7  2  1  0
  8  7  2  0
  9 13  1  0
 10  5  1  0
 11  5  1  0
 12 10  1  0
 13 11  1  0
 14  3  1  0
 15  6  1  0
 16  9  1  0
 17 21  1  0
 18  7  1  0
 19  8  1  0
 20 22  1  0
 21 23  1  0
 22 16  1  0
 23 20  1  0
 24 14  2  0
 25 15  2  0
 26 19  2  0
 27 18  2  0
  9 12  1  0
  8  4  1  0
 24 25  1  0
 27 26  1  0
 29 28  2  0
 30 28  1  0
 31 33  1  0
 32 28  1  0
 33 30  2  0
 34 29  1  0
 35 34  2  0
 36 40  1  0
 37 32  1  0
 38 32  1  0
 39 37  1  0
 40 38  1  0
 41 30  1  0
 42 33  1  0
 43 36  1  0
 44 48  1  0
 45 34  1  0
 46 35  1  0
 47 49  1  0
 48 50  1  0
 49 43  1  0
 50 47  1  0
 51 41  2  0
 52 42  2  0
 53 46  2  0
 54 45  2  0
 36 39  1  0
 35 31  1  0
 51 52  1  0
 54 53  1  0
 56 58  1  0
 57 55  1  0
 58 57  2  0
 59 55  2  0
 60 56  2  0
 61 55  1  0
 62 56  1  0
 10 63  1  0
 10 64  1  0
 11 65  1  0
 11 66  1  0
 12 67  1  0
 12 68  1  0
 13 69  1  0
 13 70  1  0
 14 71  1  0
 15 72  1  0
 16 73  1  0
 16 74  1  0
 17 75  1  0
 18 76  1  0
 19 77  1  0
 21 78  1  0
 21 79  1  0
 22 80  1  0
 22 81  1  0
 23 82  1  0
 23 83  1  0
 24 84  1  0
 25 85  1  0
 26 86  1  0
 27 87  1  0
 37 88  1  0
 37 89  1  0
 38 90  1  0
 38 91  1  0
 39 92  1  0
 39 93  1  0
 40 94  1  0
 40 95  1  0
 41 96  1  0
 42 97  1  0
 43 98  1  0
 43 99  1  0
 44100  1  0
 45101  1  0
 46102  1  0
 48103  1  0
 48104  1  0
 49105  1  0
 49106  1  0
 50107  1  0
 50108  1  0
 51109  1  0
 52110  1  0
 53111  1  0
 54112  1  0
 57113  1  0
 58114  1  0
 61115  1  0
 62116  1  0
M  END
> <Uni-Dock RESULT> 
ENERGY=   -4.420  LOWER_BOUND=    5.589  UPPER_BOUND=    8.205
INTER + INTRA:          -4.420
INTER:                  -4.420
INTRA:                   0.000
UNBOUND:                 0.000

$$$$

     RDKit          3D

116121  0  0  0  0  0  0  0  0999 V2000
   50.3251    7.9877   19.9329 C   0  0  0  0  0  0  0  0  0  0  0  0
   50.2899    8.2519   21.2118 N   0  0  0  0  0  0  0  0  0  0  0  0
   49.5806    8.7842   18.9019 C   0  0  0  0  0  0  0  0  0  0  0  0
   50.7381   11.1201   19.9240 S   0  0  0  0  0  0  0  0  0  0  0  0
   51.0756    6.8887   19.5030 N   0  0  0  0  0  0  0  0  0  0  0  0
   49.7571   10.1687   18.7690 C   0  0  0  0  0  0  0  0  0  0  0  0
   49.6029    9.3431   21.7741 C   0  0  0  0  0  0  0  0  0  0  0  0
   49.7867   10.6835   21.3829 C   0  0  0  0  0  0  0  0  0  0  0  0
   52.2662    4.3958   18.6649 N   0  0  0  0  0  0  0  0  0  0  0  0
   51.7926    6.8701   18.2247 C   0  0  0  0  0  0  0  0  0  0  0  0
   51.6059    5.9431   20.5095 C   0  0  0  0  0  0  0  0  0  0  0  0
   51.9154    5.4286   17.6714 C   0  0  0  0  0  0  0  0  0  0  0  0
   52.6778    4.9759   19.9449 C   0  0  0  0  0  0  0  0  0  0  0  0
   48.7305    8.0962   18.0269 C   0  0  0  0  0  0  0  0  0  0  0  0
   49.0879   10.8456   17.7426 C   0  0  0  0  0  0  0  0  0  0  0  0
   53.1472    3.3461   18.1534 C   0  0  0  0  0  0  0  0  0  0  0  0
   55.6948    0.2607   15.8711 O   0  0  0  0  0  0  0  0  0  0  0  0
   48.7808    9.0768   22.8739 C   0  0  0  0  0  0  0  0  0  0  0  0
   49.1596   11.7186   22.0940 C   0  0  0  0  0  0  0  0  0  0  0  0
   55.3076    2.7293   17.1426 O   0  0  0  0  0  0  0  0  0  0  0  0
   56.4494    0.6251   17.0256 C   0  0  0  0  0  0  0  0  0  0  0  0
   54.6171    3.7259   17.9032 C   0  0  0  0  0  0  0  0  0  0  0  0
   55.6237    1.5572   17.9054 C   0  0  0  0  0  0  0  0  0  0  0  0
   48.0668    8.7829   17.0134 C   0  0  0  0  0  0  0  0  0  0  0  0
   48.2468   10.1553   16.8688 C   0  0  0  0  0  0  0  0  0  0  0  0
   48.3409   11.4273   23.1842 C   0  0  0  0  0  0  0  0  0  0  0  0
   48.1380   10.1052   23.5663 C   0  0  0  0  0  0  0  0  0  0  0  0
   50.5192    8.0305   19.2995 C   0  0  0  0  0  0  0  0  0  0  0  0
   49.2235    8.1725   19.2290 N   0  0  0  0  0  0  0  0  0  0  0  0
   51.4708    9.1059   19.7411 C   0  0  0  0  0  0  0  0  0  0  0  0
   50.2723   10.8917   17.9679 S   0  0  0  0  0  0  0  0  0  0  0  0
   51.0529    6.7753   18.9906 N   0  0  0  0  0  0  0  0  0  0  0  0
   51.4687   10.3903   19.1843 C   0  0  0  0  0  0  0  0  0  0  0  0
   48.5276    9.3538   19.5187 C   0  0  0  0  0  0  0  0  0  0  0  0
   48.8207   10.6139   18.9685 C   0  0  0  0  0  0  0  0  0  0  0  0
   51.7346    4.2612   17.4774 N   0  0  0  0  0  0  0  0  0  0  0  0
   50.1340    5.6278   18.8641 C   0  0  0  0  0  0  0  0  0  0  0  0
   52.3142    6.6402   18.2366 C   0  0  0  0  0  0  0  0  0  0  0  0
   50.9200    4.3150   18.7118 C   0  0  0  0  0  0  0  0  0  0  0  0
   52.1858    5.6116   17.0772 C   0  0  0  0  0  0  0  0  0  0  0  0
   52.4105    8.7645   20.7265 C   0  0  0  0  0  0  0  0  0  0  0  0
   52.4284   11.3207   19.6137 C   0  0  0  0  0  0  0  0  0  0  0  0
   52.8488    3.3029   17.5502 C   0  0  0  0  0  0  0  0  0  0  0  0
   55.8757    2.2082   18.8352 O   0  0  0  0  0  0  0  0  0  0  0  0
   47.3863    9.2271   20.3214 C   0  0  0  0  0  0  0  0  0  0  0  0
   47.9887   11.7116   19.2353 C   0  0  0  0  0  0  0  0  0  0  0  0
   53.5119    0.9608   17.6440 O   0  0  0  0  0  0  0  0  0  0  0  0
   54.9017    1.5381   19.6350 C   0  0  0  0  0  0  0  0  0  0  0  0
   52.4245    1.8576   17.8831 C   0  0  0  0  0  0  0  0  0  0  0  0
   54.1693    0.4717   18.8159 C   0  0  0  0  0  0  0  0  0  0  0  0
   53.3528    9.6988   21.1549 C   0  0  0  0  0  0  0  0  0  0  0  0
   53.3610   10.9757   20.5971 C   0  0  0  0  0  0  0  0  0  0  0  0
   46.8570   11.5618   20.0349 C   0  0  0  0  0  0  0  0  0  0  0  0
   46.5528   10.3165   20.5780 C   0  0  0  0  0  0  0  0  0  0  0  0
   50.2079    7.7336   19.6817 C   0  0  0  0  0  0  0  0  0  0  0  0
   52.1561    4.8089   18.2498 C   0  0  0  0  0  0  0  0  0  0  0  0
   51.3277    6.8537   19.3524 C   0  0  0  0  0  0  0  0  0  0  0  0
   51.1030    5.7565   18.6189 C   0  0  0  0  0  0  0  0  0  0  0  0
   49.0497    7.6173   19.3345 O   0  0  0  0  0  0  0  0  0  0  0  0
   51.9798    3.7970   17.5981 O   0  0  0  0  0  0  0  0  0  0  0  0
   50.6309    8.7580   20.4345 O   0  0  0  0  0  0  0  0  0  0  0  0
   53.3723    5.1537   18.6944 O   0  0  0  0  0  0  0  0  0  0  0  0
   52.7903    7.2938   18.3802 H   0  0  0  0  0  0  0  0  0  0  0  0
   51.3130    7.4839   17.4602 H   0  0  0  0  0  0  0  0  0  0  0  0
   52.0529    6.4809   21.3510 H   0  0  0  0  0  0  0  0  0  0  0  0
   50.7706    5.3503   20.9046 H   0  0  0  0  0  0  0  0  0  0  0  0
   50.9461    5.1408   17.2459 H   0  0  0  0  0  0  0  0  0  0  0  0
   52.6278    5.4574   16.8349 H   0  0  0  0  0  0  0  0  0  0  0  0
   52.8480    4.1847   20.6855 H   0  0  0  0  0  0  0  0  0  0  0  0
   53.6232    5.5215   19.8315 H   0  0  0  0  0  0  0  0  0  0  0  0
   48.5922    7.0257   18.1439 H   0  0  0  0  0  0  0  0  0  0  0  0
   49.2104   11.9203   17.6212 H   0  0  0  0  0  0  0  0  0  0  0  0
   53.1190    2.5101   18.8632 H   0  0  0  0  0  0  0  0  0  0  0  0
   52.7217    2.9326   17.2287 H   0  0  0  0  0  0  0  0  0  0  0  0
   55.3642    1.1027   15.5029 H   0  0  0  0  0  0  0  0  0  0  0  0
   48.6550    8.0494   23.1948 H   0  0  0  0  0  0  0  0  0  0  0  0
   49.2962   12.7546   21.7943 H   0  0  0  0  0  0  0  0  0  0  0  0
   57.3646    1.1163   16.6859 H   0  0  0  0  0  0  0  0  0  0  0  0
   56.7199   -0.2894   17.5614 H   0  0  0  0  0  0  0  0  0  0  0  0
   54.6821    4.6436   17.3138 H   0  0  0  0  0  0  0  0  0  0  0  0
   55.1517    3.9087   18.8388 H   0  0  0  0  0  0  0  0  0  0  0  0
   56.1870    1.8311   18.8046 H   0  0  0  0  0  0  0  0  0  0  0  0
   54.6920    1.0559   18.1880 H   0  0  0  0  0  0  0  0  0  0  0  0
   47.4050    8.2482   16.3429 H   0  0  0  0  0  0  0  0  0  0  0  0
   47.7220   10.6938   16.0816 H   0  0  0  0  0  0  0  0  0  0  0  0
   47.8515   12.2295   23.7295 H   0  0  0  0  0  0  0  0  0  0  0  0
   47.4926    9.8671   24.4065 H   0  0  0  0  0  0  0  0  0  0  0  0
   49.5134    5.5522   19.7645 H   0  0  0  0  0  0  0  0  0  0  0  0
   49.4693    5.7702   18.0056 H   0  0  0  0  0  0  0  0  0  0  0  0
   52.6156    7.6000   17.8061 H   0  0  0  0  0  0  0  0  0  0  0  0
   53.1044    6.3263   18.9208 H   0  0  0  0  0  0  0  0  0  0  0  0
   51.5664    4.2020   19.5914 H   0  0  0  0  0  0  0  0  0  0  0  0
   50.2178    3.4740   18.7089 H   0  0  0  0  0  0  0  0  0  0  0  0
   51.4455    5.9958   16.3618 H   0  0  0  0  0  0  0  0  0  0  0  0
   53.1292    5.5739   16.5196 H   0  0  0  0  0  0  0  0  0  0  0  0
   52.4096    7.7667   21.1568 H   0  0  0  0  0  0  0  0  0  0  0  0
   52.4438   12.3268   19.1902 H   0  0  0  0  0  0  0  0  0  0  0  0
   53.3546    3.2747   16.5752 H   0  0  0  0  0  0  0  0  0  0  0  0
   53.6076    3.6467   18.2650 H   0  0  0  0  0  0  0  0  0  0  0  0
   56.3162    2.8731   19.3921 H   0  0  0  0  0  0  0  0  0  0  0  0
   47.1386    8.2525   20.7379 H   0  0  0  0  0  0  0  0  0  0  0  0
   48.2199   12.6887   18.8186 H   0  0  0  0  0  0  0  0  0  0  0  0
   55.4267    1.0728   20.4751 H   0  0  0  0  0  0  0  0  0  0  0  0
   54.2091    2.2837   20.0260 H   0  0  0  0  0  0  0  0  0  0  0  0
   51.6176    1.5627   17.1991 H   0  0  0  0  0  0  0  0  0  0  0  0
   52.0416    1.7632   18.9067 H   0  0  0  0  0  0  0  0  0  0  0  0
   54.9008   -0.2679   18.4635 H   0  0  0  0  0  0  0  0  0  0  0  0
   53.4452   -0.0554   19.4436 H   0  0  0  0  0  0  0  0  0  0  0  0
   54.0743    9.4370   21.9252 H   0  0  0  0  0  0  0  0  0  0  0  0
   54.1022   11.7036   20.9209 H   0  0  0  0  0  0  0  0  0  0  0  0
   46.2062   12.4108   20.2267 H   0  0  0  0  0  0  0  0  0  0  0  0
   45.6702   10.1911   21.2028 H   0  0  0  0  0  0  0  0  0  0  0  0
   52.3031    7.1268   19.7274 H   0  0  0  0  0  0  0  0  0  0  0  0
   50.1160    5.5047   18.2503 H   0  0  0  0  0  0  0  0  0  0  0  0
   49.8227    9.2878   20.5960 H   0  0  0  0  0  0  0  0  0  0  0  0
   53.9599    4.4424   18.3604 H   0  0  0  0  0  0  0  0  0  0  0  0
  2  1  2  0
  3  1  1  0
  4  6  1  0
  5  1  1  0
  6  3  2  0
  7  2  1  0
  8  7  2  0
  9 13  1  0
 10  5  1  0
 11  5  1  0
 12 10  1  0
 13 11  1  0
 14  3  1  0
 15  6  1  0
 16  9  1  0
 17 21  1  0
 18  7  1  0
 19  8  1  0
 20 22  1  0
 21 23  1  0
 22 16  1  0
 23 20  1  0
 24 14  2  0
 25 15  2  0
 26 19  2  0
 27 18  2  0
  9 12  1  0
  8  4  1  0
 24 25  1  0
 27 26  1  0
 29 28  2  0
 30 28  1  0
 31 33  1  0
 32 28  1  0
 33 30  2  0
 34 29  1  0
 35 34  2  0
 36 40  1  0
 37 32  1  0
 38 32  1  0
 39 37  1  0
 40 38  1  0
 41 30  1  0
 42 33  1  0
 43 36  1  0
 44 48  1  0
 45 34  1  0
 46 35  1  0
 47 49  1  0
 48 50  1  0
 49 43  1  0
 50 47  1  0
 51 41  2  0
 52 42  2  0
 53 46  2  0
 54 45  2  0
 36 39  1  0
 35 31  1  0
 51 52  1  0
 54 53  1  0
 56 58  1  0
 57 55  1  0
 58 57  2  0
 59 55  2  0
 60 56  2  0
 61 55  1  0
 62 56  1  0
 10 63  1  0
 10 64  1  0
 11 65  1  0
 11 66  1  0
 12 67  1  0
 12 68  1  0
 13 69  1  0
 13 70  1  0
 14 71  1  0
 15 72  1  0
 16 73  1  0
 16 74  1  0
 17 75  1  0
 18 76  1  0
 19 77  1  0
 21 78  1  0
 21 79  1  0
 22 80  1  0
 22 81  1  0
 23 82  1  0
 23 83  1  0
 24 84  1  0
 25 85  1  0
 26 86  1  0
 27 87  1  0
 37 88  1  0
 37 89  1  0
 38 90  1  0
 38 91  1  0
 39 92  1  0
 39 93  1  0
 40 94  1  0
 40 95  1  0
 41 96  1  0
 42 97  1  0
 43 98  1  0
 43 99  1  0
 44100  1  0
 45101  1  0
 46102  1  0
 48103  1  0
 48104  1  0
 49105  1  0
 49106  1  0
 50107  1  0
 50108  1  0
 51109  1  0
 52110  1  0
 53111  1  0
 54112  1  0
 57113  1  0
 58114  1  0
 61115  1  0
 62116  1  0
M  END
> <Uni-Dock RESULT> 
ENERGY=   -4.350  LOWER_BOUND=    3.168  UPPER_BOUND=    5.390
INTER + INTRA:          -4.350
INTER:                  -4.350
INTRA:                   0.000
UNBOUND:                 0.000

$$$$

     RDKit          3D

116121  0  0  0  0  0  0  0  0999 V2000
   42.3398   13.6858   11.7069 C   0  0  0  0  0  0  0  0  0  0  0  0
   42.1619   14.6765   12.5397 N   0  0  0  0  0  0  0  0  0  0  0  0
   41.2944   12.6489   11.4179 C   0  0  0  0  0  0  0  0  0  0  0  0
   39.4711   14.6976   10.8530 S   0  0  0  0  0  0  0  0  0  0  0  0
   43.5792   13.5696   11.0694 N   0  0  0  0  0  0  0  0  0  0  0  0
   40.0162   12.9966   10.9588 C   0  0  0  0  0  0  0  0  0  0  0  0
   40.9573   14.9288   13.2209 C   0  0  0  0  0  0  0  0  0  0  0  0
   39.7062   15.0788   12.5918 C   0  0  0  0  0  0  0  0  0  0  0  0
   46.2500   13.0875   10.0853 N   0  0  0  0  0  0  0  0  0  0  0  0
   43.7219   13.0653    9.7005 C   0  0  0  0  0  0  0  0  0  0  0  0
   44.7027   14.4182   11.5231 C   0  0  0  0  0  0  0  0  0  0  0  0
   45.0967   12.3819    9.4950 C   0  0  0  0  0  0  0  0  0  0  0  0
   45.9012   14.4350   10.5401 C   0  0  0  0  0  0  0  0  0  0  0  0
   41.6449   11.3014   11.5697 C   0  0  0  0  0  0  0  0  0  0  0  0
   39.1071   11.9811   10.6394 C   0  0  0  0  0  0  0  0  0  0  0  0
   47.4751   13.0042    9.2903 C   0  0  0  0  0  0  0  0  0  0  0  0
   51.0121   12.1558    6.4640 O   0  0  0  0  0  0  0  0  0  0  0  0
   41.0440   15.1658   14.5966 C   0  0  0  0  0  0  0  0  0  0  0  0
   38.5824   15.4653   13.3389 C   0  0  0  0  0  0  0  0  0  0  0  0
   48.6276   13.4558    7.1602 O   0  0  0  0  0  0  0  0  0  0  0  0
   50.9610   13.5723    6.6246 C   0  0  0  0  0  0  0  0  0  0  0  0
   47.5253   13.8299    7.9929 C   0  0  0  0  0  0  0  0  0  0  0  0
   49.8887   13.9347    7.6460 C   0  0  0  0  0  0  0  0  0  0  0  0
   40.7290   10.3012   11.2532 C   0  0  0  0  0  0  0  0  0  0  0  0
   39.4626   10.6396   10.7859 C   0  0  0  0  0  0  0  0  0  0  0  0
   38.6933   15.6913   14.7102 C   0  0  0  0  0  0  0  0  0  0  0  0
   39.9208   15.5270   15.3437 C   0  0  0  0  0  0  0  0  0  0  0  0
   42.3139   13.3478   11.1361 C   0  0  0  0  0  0  0  0  0  0  0  0
   41.7954   12.5198   12.0019 N   0  0  0  0  0  0  0  0  0  0  0  0
   41.5947   14.5313   10.5537 C   0  0  0  0  0  0  0  0  0  0  0  0
   39.4238   12.9001    9.9245 S   0  0  0  0  0  0  0  0  0  0  0  0
   43.6470   13.1478   10.7637 N   0  0  0  0  0  0  0  0  0  0  0  0
   40.3318   14.4287    9.9585 C   0  0  0  0  0  0  0  0  0  0  0  0
   40.4842   12.5862   12.4919 C   0  0  0  0  0  0  0  0  0  0  0  0
   39.3311   12.6671   11.6916 C   0  0  0  0  0  0  0  0  0  0  0  0
   46.1449   11.8416    9.7009 N   0  0  0  0  0  0  0  0  0  0  0  0
   44.4652   12.2010   11.5454 C   0  0  0  0  0  0  0  0  0  0  0  0
   44.0943   13.3444    9.3713 C   0  0  0  0  0  0  0  0  0  0  0  0
   45.9372   12.2609   11.1050 C   0  0  0  0  0  0  0  0  0  0  0  0
   44.9617   12.1546    8.8707 C   0  0  0  0  0  0  0  0  0  0  0  0
   42.2600   15.7670   10.5912 C   0  0  0  0  0  0  0  0  0  0  0  0
   39.7527   15.5730    9.3874 C   0  0  0  0  0  0  0  0  0  0  0  0
   47.3894   12.3598    9.1112 C   0  0  0  0  0  0  0  0  0  0  0  0
   49.4025   14.9399    7.9702 O   0  0  0  0  0  0  0  0  0  0  0  0
   40.3248   12.4371   13.8758 C   0  0  0  0  0  0  0  0  0  0  0  0
   38.0585   12.6112   12.2794 C   0  0  0  0  0  0  0  0  0  0  0  0
   49.8239   12.2756    9.1044 O   0  0  0  0  0  0  0  0  0  0  0  0
   49.8102   14.7615    9.3263 C   0  0  0  0  0  0  0  0  0  0  0  0
   48.6665   11.9906    9.8938 C   0  0  0  0  0  0  0  0  0  0  0  0
   50.5599   13.4372    9.4966 C   0  0  0  0  0  0  0  0  0  0  0  0
   41.6719   16.9006   10.0314 C   0  0  0  0  0  0  0  0  0  0  0  0
   40.4191   16.8018    9.4294 C   0  0  0  0  0  0  0  0  0  0  0  0
   37.9238   12.4602   13.6584 C   0  0  0  0  0  0  0  0  0  0  0  0
   39.0590   12.3706   14.4593 C   0  0  0  0  0  0  0  0  0  0  0  0
   42.5315   13.3645   11.6685 C   0  0  0  0  0  0  0  0  0  0  0  0
   45.7963   12.8110    9.8155 C   0  0  0  0  0  0  0  0  0  0  0  0
   43.6763   13.6070   10.7925 C   0  0  0  0  0  0  0  0  0  0  0  0
   44.6091   12.6562   10.6579 C   0  0  0  0  0  0  0  0  0  0  0  0
   42.2813   12.3546   12.2954 O   0  0  0  0  0  0  0  0  0  0  0  0
   46.6673   11.9718    9.6855 O   0  0  0  0  0  0  0  0  0  0  0  0
   41.7273   14.4360   11.6853 O   0  0  0  0  0  0  0  0  0  0  0  0
   45.8519   13.9849    9.1716 O   0  0  0  0  0  0  0  0  0  0  0  0
   43.6192   13.9072    9.0080 H   0  0  0  0  0  0  0  0  0  0  0  0
   42.9458   12.3473    9.4298 H   0  0  0  0  0  0  0  0  0  0  0  0
   44.3756   15.4524   11.6671 H   0  0  0  0  0  0  0  0  0  0  0  0
   45.0505   14.0450   12.4953 H   0  0  0  0  0  0  0  0  0  0  0  0
   45.0601   11.3903    9.9629 H   0  0  0  0  0  0  0  0  0  0  0  0
   45.2219   12.2139    8.4161 H   0  0  0  0  0  0  0  0  0  0  0  0
   46.7547   14.8987   11.0500 H   0  0  0  0  0  0  0  0  0  0  0  0
   45.6492   15.0745    9.6846 H   0  0  0  0  0  0  0  0  0  0  0  0
   42.6337   11.0419   11.9355 H   0  0  0  0  0  0  0  0  0  0  0  0
   38.1094   12.2285   10.2813 H   0  0  0  0  0  0  0  0  0  0  0  0
   48.3113   13.3102    9.9310 H   0  0  0  0  0  0  0  0  0  0  0  0
   47.6843   11.9519    9.0535 H   0  0  0  0  0  0  0  0  0  0  0  0
   50.0880   11.8802    6.3099 H   0  0  0  0  0  0  0  0  0  0  0  0
   42.0086   15.0759   15.0819 H   0  0  0  0  0  0  0  0  0  0  0  0
   37.6140   15.5798   12.8584 H   0  0  0  0  0  0  0  0  0  0  0  0
   50.7372   14.0118    5.6494 H   0  0  0  0  0  0  0  0  0  0  0  0
   51.9480   13.9169    6.9468 H   0  0  0  0  0  0  0  0  0  0  0  0
   46.6299   13.6561    7.3916 H   0  0  0  0  0  0  0  0  0  0  0  0
   47.5688   14.9025    8.1985 H   0  0  0  0  0  0  0  0  0  0  0  0
   49.8512   15.0204    7.7906 H   0  0  0  0  0  0  0  0  0  0  0  0
   50.1137   13.4401    8.5968 H   0  0  0  0  0  0  0  0  0  0  0  0
   41.0016    9.2605   11.3783 H   0  0  0  0  0  0  0  0  0  0  0  0
   38.7435    9.8583   10.5458 H   0  0  0  0  0  0  0  0  0  0  0  0
   37.8210   15.9844   15.2876 H   0  0  0  0  0  0  0  0  0  0  0  0
   40.0150   15.6889   16.4133 H   0  0  0  0  0  0  0  0  0  0  0  0
   44.4156   12.4623   12.6089 H   0  0  0  0  0  0  0  0  0  0  0  0
   44.0786   11.1831   11.4285 H   0  0  0  0  0  0  0  0  0  0  0  0
   43.2381   13.4465    8.6975 H   0  0  0  0  0  0  0  0  0  0  0  0
   44.6697   14.2699    9.3112 H   0  0  0  0  0  0  0  0  0  0  0  0
   46.2918   13.2901   11.2441 H   0  0  0  0  0  0  0  0  0  0  0  0
   46.5345   11.6156   11.7587 H   0  0  0  0  0  0  0  0  0  0  0  0
   44.3318   11.2543    8.8615 H   0  0  0  0  0  0  0  0  0  0  0  0
   45.2363   12.3218    7.8223 H   0  0  0  0  0  0  0  0  0  0  0  0
   43.2401   15.8434   11.0540 H   0  0  0  0  0  0  0  0  0  0  0  0
   38.7692   15.5127    8.9172 H   0  0  0  0  0  0  0  0  0  0  0  0
   47.4996   11.9461    8.0993 H   0  0  0  0  0  0  0  0  0  0  0  0
   47.3300   13.4479    8.9789 H   0  0  0  0  0  0  0  0  0  0  0  0
   48.9335   15.7897    7.9065 H   0  0  0  0  0  0  0  0  0  0  0  0
   41.2100   12.3547   14.5038 H   0  0  0  0  0  0  0  0  0  0  0  0
   37.1662   12.6837   11.6626 H   0  0  0  0  0  0  0  0  0  0  0  0
   50.4630   15.5999    9.5887 H   0  0  0  0  0  0  0  0  0  0  0  0
   48.9225   14.7993    9.9579 H   0  0  0  0  0  0  0  0  0  0  0  0
   48.6672   10.9072   10.0729 H   0  0  0  0  0  0  0  0  0  0  0  0
   48.7124   12.4875   10.8707 H   0  0  0  0  0  0  0  0  0  0  0  0
   51.4558   13.4538    8.8616 H   0  0  0  0  0  0  0  0  0  0  0  0
   50.8928   13.3221   10.5320 H   0  0  0  0  0  0  0  0  0  0  0  0
   42.1832   17.8595   10.0693 H   0  0  0  0  0  0  0  0  0  0  0  0
   39.9624   17.6821    8.9814 H   0  0  0  0  0  0  0  0  0  0  0  0
   36.9363   12.4016   14.1086 H   0  0  0  0  0  0  0  0  0  0  0  0
   38.9622   12.2517   15.5371 H   0  0  0  0  0  0  0  0  0  0  0  0
   43.7252   14.5613   10.2891 H   0  0  0  0  0  0  0  0  0  0  0  0
   44.5369   11.7046   11.1703 H   0  0  0  0  0  0  0  0  0  0  0  0
   40.9964   14.1790   12.2852 H   0  0  0  0  0  0  0  0  0  0  0  0
   46.6800   13.9320    8.6481 H   0  0  0  0  0  0  0  0  0  0  0  0
  2  1  2  0
  3  1  1  0
  4  6  1  0
  5  1  1  0
  6  3  2  0
  7  2  1  0
  8  7  2  0
  9 13  1  0
 10  5  1  0
 11  5  1  0
 12 10  1  0
 13 11  1  0
 14  3  1  0
 15  6  1  0
 16  9  1  0
 17 21  1  0
 18  7  1  0
 19  8  1  0
 20 22  1  0
 21 23  1  0
 22 16  1  0
 23 20  1  0
 24 14  2  0
 25 15  2  0
 26 19  2  0
 27 18  2  0
  9 12  1  0
  8  4  1  0
 24 25  1  0
 27 26  1  0
 29 28  2  0
 30 28  1  0
 31 33  1  0
 32 28  1  0
 33 30  2  0
 34 29  1  0
 35 34  2  0
 36 40  1  0
 37 32  1  0
 38 32  1  0
 39 37  1  0
 40 38  1  0
 41 30  1  0
 42 33  1  0
 43 36  1  0
 44 48  1  0
 45 34  1  0
 46 35  1  0
 47 49  1  0
 48 50  1  0
 49 43  1  0
 50 47  1  0
 51 41  2  0
 52 42  2  0
 53 46  2  0
 54 45  2  0
 36 39  1  0
 35 31  1  0
 51 52  1  0
 54 53  1  0
 56 58  1  0
 57 55  1  0
 58 57  2  0
 59 55  2  0
 60 56  2  0
 61 55  1  0
 62 56  1  0
 10 63  1  0
 10 64  1  0
 11 65  1  0
 11 66  1  0
 12 67  1  0
 12 68  1  0
 13 69  1  0
 13 70  1  0
 14 71  1  0
 15 72  1  0
 16 73  1  0
 16 74  1  0
 17 75  1  0
 18 76  1  0
 19 77  1  0
 21 78  1  0
 21 79  1  0
 22 80  1  0
 22 81  1  0
 23 82  1  0
 23 83  1  0
 24 84  1  0
 25 85  1  0
 26 86  1  0
 27 87  1  0
 37 88  1  0
 37 89  1  0
 38 90  1  0
 38 91  1  0
 39 92  1  0
 39 93  1  0
 40 94  1  0
 40 95  1  0
 41 96  1  0
 42 97  1  0
 43 98  1  0
 43 99  1  0
 44100  1  0
 45101  1  0
 46102  1  0
 48103  1  0
 48104  1  0
 49105  1  0
 49106  1  0
 50107  1  0
 50108  1  0
 51109  1  0
 52110  1  0
 53111  1  0
 54112  1  0
 57113  1  0
 58114  1  0
 61115  1  0
 62116  1  0
M  END
> <Uni-Dock RESULT> 
ENERGY=   -4.215  LOWER_BOUND=   10.161  UPPER_BOUND=   13.157
INTER + INTRA:          -4.215
INTER:                  -4.215
INTRA:                   0.000
UNBOUND:                 0.000

$$$$
