
     RDKit          3D

116121  0  0  0  0  0  0  0  0999 V2000
   51.6258    9.2070   13.4777 C   0  0  0  0  0  0  0  0  0  0  0  0
   51.6738   10.3019   12.7672 N   0  0  0  0  0  0  0  0  0  0  0  0
   52.5924    8.8760   14.5798 C   0  0  0  0  0  0  0  0  0  0  0  0
   52.1575   11.3971   15.7088 S   0  0  0  0  0  0  0  0  0  0  0  0
   50.6326    8.2543   13.2004 N   0  0  0  0  0  0  0  0  0  0  0  0
   52.8421    9.7508   15.6443 C   0  0  0  0  0  0  0  0  0  0  0  0
   52.6072   11.3380   12.9462 C   0  0  0  0  0  0  0  0  0  0  0  0
   52.8665   11.9795   14.1720 C   0  0  0  0  0  0  0  0  0  0  0  0
   47.7000    7.5521   12.9348 N   0  0  0  0  0  0  0  0  0  0  0  0
   49.8149    7.7593   14.3343 C   0  0  0  0  0  0  0  0  0  0  0  0
   49.8958    8.3232   11.9185 C   0  0  0  0  0  0  0  0  0  0  0  0
   48.6452    6.8754   13.8562 C   0  0  0  0  0  0  0  0  0  0  0  0
   48.3985    8.5998   12.1487 C   0  0  0  0  0  0  0  0  0  0  0  0
   53.2029    7.6124   14.5487 C   0  0  0  0  0  0  0  0  0  0  0  0
   53.6921    9.3397   16.6802 C   0  0  0  0  0  0  0  0  0  0  0  0
   47.0306    6.5822   12.0498 C   0  0  0  0  0  0  0  0  0  0  0  0
   43.6364    3.4201   10.2608 O   0  0  0  0  0  0  0  0  0  0  0  0
   53.2392   11.8218   11.7911 C   0  0  0  0  0  0  0  0  0  0  0  0
   53.7430   13.0732   14.2209 C   0  0  0  0  0  0  0  0  0  0  0  0
   45.5446    4.6896   11.8486 O   0  0  0  0  0  0  0  0  0  0  0  0
   44.1400    2.7955   11.4376 C   0  0  0  0  0  0  0  0  0  0  0  0
   46.0666    5.6385   12.7847 C   0  0  0  0  0  0  0  0  0  0  0  0
   44.5426    3.8589   12.4532 C   0  0  0  0  0  0  0  0  0  0  0  0
   54.0532    7.2168   15.5799 C   0  0  0  0  0  0  0  0  0  0  0  0
   54.2923    8.0778   16.6483 C   0  0  0  0  0  0  0  0  0  0  0  0
   54.3650   13.5360   13.0624 C   0  0  0  0  0  0  0  0  0  0  0  0
   54.1178   12.9048   11.8473 C   0  0  0  0  0  0  0  0  0  0  0  0
   51.7533    9.0031   13.6495 C   0  0  0  0  0  0  0  0  0  0  0  0
   52.4804    8.6731   14.6830 N   0  0  0  0  0  0  0  0  0  0  0  0
   52.1259   10.0842   12.6777 C   0  0  0  0  0  0  0  0  0  0  0  0
   54.6581    8.9271   12.3896 S   0  0  0  0  0  0  0  0  0  0  0  0
   50.5315    8.3414   13.4429 N   0  0  0  0  0  0  0  0  0  0  0  0
   53.3594   10.0936   12.0142 C   0  0  0  0  0  0  0  0  0  0  0  0
   53.7191    9.2524   15.0051 C   0  0  0  0  0  0  0  0  0  0  0  0
   54.8123    9.3491   14.1228 C   0  0  0  0  0  0  0  0  0  0  0  0
   48.2363    6.5454   12.9728 N   0  0  0  0  0  0  0  0  0  0  0  0
   50.2310    7.8086   12.0966 C   0  0  0  0  0  0  0  0  0  0  0  0
   50.0537    7.4179   14.4945 C   0  0  0  0  0  0  0  0  0  0  0  0
   48.7288    7.4977   11.9519 C   0  0  0  0  0  0  0  0  0  0  0  0
   48.5571    7.0840   14.3132 C   0  0  0  0  0  0  0  0  0  0  0  0
   51.1611   11.0624   12.3907 C   0  0  0  0  0  0  0  0  0  0  0  0
   53.6041   11.0737   11.0429 C   0  0  0  0  0  0  0  0  0  0  0  0
   46.7917    6.3225   12.7935 C   0  0  0  0  0  0  0  0  0  0  0  0
   42.7453    5.1074   11.4781 O   0  0  0  0  0  0  0  0  0  0  0  0
   53.8971    9.6551   16.3343 C   0  0  0  0  0  0  0  0  0  0  0  0
   56.0444    9.8455   14.5778 C   0  0  0  0  0  0  0  0  0  0  0  0
   44.8314    4.9714   13.3590 O   0  0  0  0  0  0  0  0  0  0  0  0
   43.2072    3.8593   11.9944 C   0  0  0  0  0  0  0  0  0  0  0  0
   46.2026    5.2181   13.6900 C   0  0  0  0  0  0  0  0  0  0  0  0
   44.6874    3.9702   12.3428 C   0  0  0  0  0  0  0  0  0  0  0  0
   51.4215   12.0390   11.4302 C   0  0  0  0  0  0  0  0  0  0  0  0
   52.6382   12.0396   10.7517 C   0  0  0  0  0  0  0  0  0  0  0  0
   56.1971   10.2528   15.9026 C   0  0  0  0  0  0  0  0  0  0  0  0
   55.1203   10.1633   16.7813 C   0  0  0  0  0  0  0  0  0  0  0  0
   51.5004    9.0122   13.8457 C   0  0  0  0  0  0  0  0  0  0  0  0
   48.3175    7.1408   12.8296 C   0  0  0  0  0  0  0  0  0  0  0  0
   50.2553    8.2414   13.8862 C   0  0  0  0  0  0  0  0  0  0  0  0
   49.5621    7.9133   12.7885 C   0  0  0  0  0  0  0  0  0  0  0  0
   52.1359    9.3413   14.8297 O   0  0  0  0  0  0  0  0  0  0  0  0
   47.6634    6.8439   11.8472 O   0  0  0  0  0  0  0  0  0  0  0  0
   51.9035    9.3328   12.6082 O   0  0  0  0  0  0  0  0  0  0  0  0
   47.9442    6.7730   14.0629 O   0  0  0  0  0  0  0  0  0  0  0  0
   49.4198    8.6112   14.9030 H   0  0  0  0  0  0  0  0  0  0  0  0
   50.4358    7.1642   15.0130 H   0  0  0  0  0  0  0  0  0  0  0  0
   50.3059    9.0795   11.2418 H   0  0  0  0  0  0  0  0  0  0  0  0
   50.0286    7.3640   11.4042 H   0  0  0  0  0  0  0  0  0  0  0  0
   49.0801    5.9884   13.3718 H   0  0  0  0  0  0  0  0  0  0  0  0
   48.0871    6.5247   14.7333 H   0  0  0  0  0  0  0  0  0  0  0  0
   48.2957    9.5401   12.7060 H   0  0  0  0  0  0  0  0  0  0  0  0
   47.9014    8.7712   11.1870 H   0  0  0  0  0  0  0  0  0  0  0  0
   53.0115    6.9393   13.7161 H   0  0  0  0  0  0  0  0  0  0  0  0
   53.9024   10.0045   17.5151 H   0  0  0  0  0  0  0  0  0  0  0  0
   47.7631    5.9977   11.4747 H   0  0  0  0  0  0  0  0  0  0  0  0
   46.4301    7.1137   11.2990 H   0  0  0  0  0  0  0  0  0  0  0  0
   44.2749    4.1290   10.0557 H   0  0  0  0  0  0  0  0  0  0  0  0
   53.0247   11.3489   10.8357 H   0  0  0  0  0  0  0  0  0  0  0  0
   53.9434   13.5687   15.1667 H   0  0  0  0  0  0  0  0  0  0  0  0
   43.3653    2.1373   11.8419 H   0  0  0  0  0  0  0  0  0  0  0  0
   45.0037    2.1914   11.1447 H   0  0  0  0  0  0  0  0  0  0  0  0
   46.5854    5.0912   13.5794 H   0  0  0  0  0  0  0  0  0  0  0  0
   45.2463    6.2184   13.2259 H   0  0  0  0  0  0  0  0  0  0  0  0
   43.6799    4.4829   12.6990 H   0  0  0  0  0  0  0  0  0  0  0  0
   44.9390    3.3881   13.3570 H   0  0  0  0  0  0  0  0  0  0  0  0
   54.5269    6.2401   15.5466 H   0  0  0  0  0  0  0  0  0  0  0  0
   54.9511    7.7683   17.4582 H   0  0  0  0  0  0  0  0  0  0  0  0
   55.0428   14.3835   13.1063 H   0  0  0  0  0  0  0  0  0  0  0  0
   54.5918   13.2626   10.9381 H   0  0  0  0  0  0  0  0  0  0  0  0
   50.8181    6.8979   11.9269 H   0  0  0  0  0  0  0  0  0  0  0  0
   50.5036    8.5211   11.3122 H   0  0  0  0  0  0  0  0  0  0  0  0
   50.6499    6.4986   14.4681 H   0  0  0  0  0  0  0  0  0  0  0  0
   50.1724    7.8706   15.4864 H   0  0  0  0  0  0  0  0  0  0  0  0
   48.5654    7.0798   10.9504 H   0  0  0  0  0  0  0  0  0  0  0  0
   48.1583    8.4346   12.0091 H   0  0  0  0  0  0  0  0  0  0  0  0
   48.2895    6.3508   15.0807 H   0  0  0  0  0  0  0  0  0  0  0  0
   47.9728    7.9917   14.5071 H   0  0  0  0  0  0  0  0  0  0  0  0
   50.2040   11.0576   12.9067 H   0  0  0  0  0  0  0  0  0  0  0  0
   54.5549   11.1000   10.5152 H   0  0  0  0  0  0  0  0  0  0  0  0
   46.6045    6.0410   11.7499 H   0  0  0  0  0  0  0  0  0  0  0  0
   46.2283    7.2517   12.9588 H   0  0  0  0  0  0  0  0  0  0  0  0
   43.0164    5.7717   12.1400 H   0  0  0  0  0  0  0  0  0  0  0  0
   53.0690    9.5607   17.0321 H   0  0  0  0  0  0  0  0  0  0  0  0
   56.8895    9.9261   13.8988 H   0  0  0  0  0  0  0  0  0  0  0  0
   42.6073    3.6248   12.8793 H   0  0  0  0  0  0  0  0  0  0  0  0
   43.0396    3.0900   11.2369 H   0  0  0  0  0  0  0  0  0  0  0  0
   46.7888    4.2939   13.6239 H   0  0  0  0  0  0  0  0  0  0  0  0
   46.2148    5.5436   14.7355 H   0  0  0  0  0  0  0  0  0  0  0  0
   45.0617    3.0112   12.7156 H   0  0  0  0  0  0  0  0  0  0  0  0
   45.2532    4.2675   11.4556 H   0  0  0  0  0  0  0  0  0  0  0  0
   50.6746   12.7956   11.2069 H   0  0  0  0  0  0  0  0  0  0  0  0
   52.8468   12.8004   10.0004 H   0  0  0  0  0  0  0  0  0  0  0  0
   57.1537   10.6380   16.2463 H   0  0  0  0  0  0  0  0  0  0  0  0
   55.2308   10.4739   17.8176 H   0  0  0  0  0  0  0  0  0  0  0  0
   49.9349    7.9596   14.8818 H   0  0  0  0  0  0  0  0  0  0  0  0
   49.8843    8.1973   11.7933 H   0  0  0  0  0  0  0  0  0  0  0  0
   52.7294    9.8419   12.7539 H   0  0  0  0  0  0  0  0  0  0  0  0
   47.1155    6.2687   13.9182 H   0  0  0  0  0  0  0  0  0  0  0  0
  2  1  2  0
  3  1  1  0
  4  6  1  0
  5  1  1  0
  6  3  2  0
  7  2  1  0
  8  7  2  0
  9 13  1  0
 10  5  1  0
 11  5  1  0
 12 10  1  0
 13 11  1  0
 14  3  1  0
 15  6  1  0
 16  9  1  0
 17 21  1  0
 18  7  1  0
 19  8  1  0
 20 22  1  0
 21 23  1  0
 22 16  1  0
 23 20  1  0
 24 14  2  0
 25 15  2  0
 26 19  2  0
 27 18  2  0
  9 12  1  0
  8  4  1  0
 24 25  1  0
 27 26  1  0
 29 28  2  0
 30 28  1  0
 31 33  1  0
 32 28  1  0
 33 30  2  0
 34 29  1  0
 35 34  2  0
 36 40  1  0
 37 32  1  0
 38 32  1  0
 39 37  1  0
 40 38  1  0
 41 30  1  0
 42 33  1  0
 43 36  1  0
 44 48  1  0
 45 34  1  0
 46 35  1  0
 47 49  1  0
 48 50  1  0
 49 43  1  0
 50 47  1  0
 51 41  2  0
 52 42  2  0
 53 46  2  0
 54 45  2  0
 36 39  1  0
 35 31  1  0
 51 52  1  0
 54 53  1  0
 56 58  1  0
 57 55  1  0
 58 57  2  0
 59 55  2  0
 60 56  2  0
 61 55  1  0
 62 56  1  0
 10 63  1  0
 10 64  1  0
 11 65  1  0
 11 66  1  0
 12 67  1  0
 12 68  1  0
 13 69  1  0
 13 70  1  0
 14 71  1  0
 15 72  1  0
 16 73  1  0
 16 74  1  0
 17 75  1  0
 18 76  1  0
 19 77  1  0
 21 78  1  0
 21 79  1  0
 22 80  1  0
 22 81  1  0
 23 82  1  0
 23 83  1  0
 24 84  1  0
 25 85  1  0
 26 86  1  0
 27 87  1  0
 37 88  1  0
 37 89  1  0
 38 90  1  0
 38 91  1  0
 39 92  1  0
 39 93  1  0
 40 94  1  0
 40 95  1  0
 41 96  1  0
 42 97  1  0
 43 98  1  0
 43 99  1  0
 44100  1  0
 45101  1  0
 46102  1  0
 48103  1  0
 48104  1  0
 49105  1  0
 49106  1  0
 50107  1  0
 50108  1  0
 51109  1  0
 52110  1  0
 53111  1  0
 54112  1  0
 57113  1  0
 58114  1  0
 61115  1  0
 62116  1  0
M  END
> <Uni-Dock RESULT> 
ENERGY=   -6.288  LOWER_BOUND=    0.000  UPPER_BOUND=    0.000
INTER + INTRA:          -6.288
INTER:                  -6.288
INTRA:                   0.000
UNBOUND:                 0.000

$$$$

     RDKit          3D

116121  0  0  0  0  0  0  0  0999 V2000
   48.8060   11.6573   13.5577 C   0  0  0  0  0  0  0  0  0  0  0  0
   48.1620   12.7384   13.2080 N   0  0  0  0  0  0  0  0  0  0  0  0
   50.0717   11.6569   14.3681 C   0  0  0  0  0  0  0  0  0  0  0  0
   48.8601   13.3353   16.2482 S   0  0  0  0  0  0  0  0  0  0  0  0
   48.3186   10.4069   13.1456 N   0  0  0  0  0  0  0  0  0  0  0  0
   50.1711   12.3126   15.6014 C   0  0  0  0  0  0  0  0  0  0  0  0
   48.5346   14.0476   13.5603 C   0  0  0  0  0  0  0  0  0  0  0  0
   48.7907   14.4810   14.8748 C   0  0  0  0  0  0  0  0  0  0  0  0
   46.0706    8.3806   13.0832 N   0  0  0  0  0  0  0  0  0  0  0  0
   48.1487    9.3572   14.1795 C   0  0  0  0  0  0  0  0  0  0  0  0
   47.3194   10.3385   12.0558 C   0  0  0  0  0  0  0  0  0  0  0  0
   47.4265    8.1138   13.6223 C   0  0  0  0  0  0  0  0  0  0  0  0
   45.9813    9.7667   12.5594 C   0  0  0  0  0  0  0  0  0  0  0  0
   51.1552   10.9115   13.8776 C   0  0  0  0  0  0  0  0  0  0  0  0
   51.3562   12.1985   16.3411 C   0  0  0  0  0  0  0  0  0  0  0  0
   45.7048    7.3974   12.0480 C   0  0  0  0  0  0  0  0  0  0  0  0
   43.7729    3.3653    9.8731 O   0  0  0  0  0  0  0  0  0  0  0  0
   48.5459   14.9976   12.5284 C   0  0  0  0  0  0  0  0  0  0  0  0
   49.0542   15.8348   15.1293 C   0  0  0  0  0  0  0  0  0  0  0  0
   45.2440    5.0929   11.4934 O   0  0  0  0  0  0  0  0  0  0  0  0
   44.7974    2.8690   10.7291 C   0  0  0  0  0  0  0  0  0  0  0  0
   45.5074    5.9738   12.5905 C   0  0  0  0  0  0  0  0  0  0  0  0
   44.9285    3.7701   11.9518 C   0  0  0  0  0  0  0  0  0  0  0  0
   52.3323   10.8115   14.6175 C   0  0  0  0  0  0  0  0  0  0  0  0
   52.4299   11.4495   15.8517 C   0  0  0  0  0  0  0  0  0  0  0  0
   49.0658   16.7628   14.0892 C   0  0  0  0  0  0  0  0  0  0  0  0
   48.8181   16.3420   12.7862 C   0  0  0  0  0  0  0  0  0  0  0  0
   49.0526   11.5176   13.6416 C   0  0  0  0  0  0  0  0  0  0  0  0
   50.0957   11.4097   14.4201 N   0  0  0  0  0  0  0  0  0  0  0  0
   48.6215   12.8023   12.9968 C   0  0  0  0  0  0  0  0  0  0  0  0
   51.2237   13.1710   12.0343 S   0  0  0  0  0  0  0  0  0  0  0  0
   48.2577   10.3819   13.4145 N   0  0  0  0  0  0  0  0  0  0  0  0
   49.4904   13.5642   12.2053 C   0  0  0  0  0  0  0  0  0  0  0  0
   50.9731   12.4624   14.7294 C   0  0  0  0  0  0  0  0  0  0  0  0
   51.6248   13.2688   13.7765 C   0  0  0  0  0  0  0  0  0  0  0  0
   46.9930    7.7999   12.7447 N   0  0  0  0  0  0  0  0  0  0  0  0
   47.8851   10.0421   12.0244 C   0  0  0  0  0  0  0  0  0  0  0  0
   48.5491    9.1608   14.1961 C   0  0  0  0  0  0  0  0  0  0  0  0
   46.7092    9.0467   11.9988 C   0  0  0  0  0  0  0  0  0  0  0  0
   47.3787    8.1560   14.1283 C   0  0  0  0  0  0  0  0  0  0  0  0
   47.2812   13.1897   13.1497 C   0  0  0  0  0  0  0  0  0  0  0  0
   48.9963   14.6991   11.5483 C   0  0  0  0  0  0  0  0  0  0  0  0
   45.8170    6.9144   12.7051 C   0  0  0  0  0  0  0  0  0  0  0  0
   42.5742    4.0950   11.6489 O   0  0  0  0  0  0  0  0  0  0  0  0
   51.2957   12.6342   16.0810 C   0  0  0  0  0  0  0  0  0  0  0  0
   52.5694   14.2229   14.1873 C   0  0  0  0  0  0  0  0  0  0  0  0
   44.9113    4.6759   13.1011 O   0  0  0  0  0  0  0  0  0  0  0  0
   43.6699    3.1814   11.7001 C   0  0  0  0  0  0  0  0  0  0  0  0
   46.0544    5.5148   13.3012 C   0  0  0  0  0  0  0  0  0  0  0  0
   44.9718    3.9584   11.8612 C   0  0  0  0  0  0  0  0  0  0  0  0
   46.8048   14.3275   12.4995 C   0  0  0  0  0  0  0  0  0  0  0  0
   47.6595   15.0764   11.6936 C   0  0  0  0  0  0  0  0  0  0  0  0
   52.8673   14.3865   15.5397 C   0  0  0  0  0  0  0  0  0  0  0  0
   52.2253   13.5953   16.4891 C   0  0  0  0  0  0  0  0  0  0  0  0
   48.8855   11.3590   13.8640 C   0  0  0  0  0  0  0  0  0  0  0  0
   46.7543    8.3687   12.7767 C   0  0  0  0  0  0  0  0  0  0  0  0
   48.1859   10.0721   13.8407 C   0  0  0  0  0  0  0  0  0  0  0  0
   47.4526    9.6569   12.8001 C   0  0  0  0  0  0  0  0  0  0  0  0
   49.5390   11.7678   14.8054 O   0  0  0  0  0  0  0  0  0  0  0  0
   46.0709    7.9773   11.8490 O   0  0  0  0  0  0  0  0  0  0  0  0
   48.7541   12.0718   12.7365 O   0  0  0  0  0  0  0  0  0  0  0  0
   46.9314    7.6323   13.8822 O   0  0  0  0  0  0  0  0  0  0  0  0
   47.5778    9.7624   15.0252 H   0  0  0  0  0  0  0  0  0  0  0  0
   49.1271    9.0414   14.5579 H   0  0  0  0  0  0  0  0  0  0  0  0
   47.1459   11.3125   11.5873 H   0  0  0  0  0  0  0  0  0  0  0  0
   47.7301    9.6998   11.2649 H   0  0  0  0  0  0  0  0  0  0  0  0
   48.0694    7.6832   12.8402 H   0  0  0  0  0  0  0  0  0  0  0  0
   47.3437    7.3667   14.4216 H   0  0  0  0  0  0  0  0  0  0  0  0
   45.6162   10.3965   13.3812 H   0  0  0  0  0  0  0  0  0  0  0  0
   45.2249    9.8442   11.7700 H   0  0  0  0  0  0  0  0  0  0  0  0
   51.0757   10.4099   12.9158 H   0  0  0  0  0  0  0  0  0  0  0  0
   51.4561   12.7022   17.3001 H   0  0  0  0  0  0  0  0  0  0  0  0
   46.4399    7.3893   11.2303 H   0  0  0  0  0  0  0  0  0  0  0  0
   44.7534    7.6841   11.5795 H   0  0  0  0  0  0  0  0  0  0  0  0
   43.9406    4.3243    9.8049 H   0  0  0  0  0  0  0  0  0  0  0  0
   48.3235   14.6762   11.5136 H   0  0  0  0  0  0  0  0  0  0  0  0
   49.2520   16.1699   16.1436 H   0  0  0  0  0  0  0  0  0  0  0  0
   44.5438    1.8450   11.0192 H   0  0  0  0  0  0  0  0  0  0  0  0
   45.7279    2.8564   10.1543 H   0  0  0  0  0  0  0  0  0  0  0  0
   46.4081    5.6239   13.1067 H   0  0  0  0  0  0  0  0  0  0  0  0
   44.6641    5.9593   13.2923 H   0  0  0  0  0  0  0  0  0  0  0  0
   43.9770    3.8089   12.4880 H   0  0  0  0  0  0  0  0  0  0  0  0
   45.7194    3.4013   12.6106 H   0  0  0  0  0  0  0  0  0  0  0  0
   53.1688   10.2380   14.2292 H   0  0  0  0  0  0  0  0  0  0  0  0
   53.3462   11.3674   16.4344 H   0  0  0  0  0  0  0  0  0  0  0  0
   49.2704   17.8100   14.2922 H   0  0  0  0  0  0  0  0  0  0  0  0
   48.8175   17.0587   11.9703 H   0  0  0  0  0  0  0  0  0  0  0  0
   48.7520    9.6079   11.5117 H   0  0  0  0  0  0  0  0  0  0  0  0
   47.5858   10.9303   11.4598 H   0  0  0  0  0  0  0  0  0  0  0  0
   49.4658    8.6963   13.8149 H   0  0  0  0  0  0  0  0  0  0  0  0
   48.7089    9.4095   15.2523 H   0  0  0  0  0  0  0  0  0  0  0  0
   46.4930    8.8063   10.9500 H   0  0  0  0  0  0  0  0  0  0  0  0
   45.8147    9.5330   12.4108 H   0  0  0  0  0  0  0  0  0  0  0  0
   47.6872    7.2563   14.6701 H   0  0  0  0  0  0  0  0  0  0  0  0
   46.5218    8.5844   14.6625 H   0  0  0  0  0  0  0  0  0  0  0  0
   46.6062   12.6003   13.7656 H   0  0  0  0  0  0  0  0  0  0  0  0
   49.6531   15.3055   10.9285 H   0  0  0  0  0  0  0  0  0  0  0  0
   45.5075    6.7846   11.6606 H   0  0  0  0  0  0  0  0  0  0  0  0
   44.9607    7.3770   13.2158 H   0  0  0  0  0  0  0  0  0  0  0  0
   42.6801    4.6625   12.4360 H   0  0  0  0  0  0  0  0  0  0  0  0
   50.8194   12.0000   16.8243 H   0  0  0  0  0  0  0  0  0  0  0  0
   53.0715   14.8505   13.4554 H   0  0  0  0  0  0  0  0  0  0  0  0
   43.5010    2.5092   12.5472 H   0  0  0  0  0  0  0  0  0  0  0  0
   43.6742    2.5968   10.7772 H   0  0  0  0  0  0  0  0  0  0  0  0
   46.9542    5.0489   12.8824 H   0  0  0  0  0  0  0  0  0  0  0  0
   46.1955    5.5924   14.3843 H   0  0  0  0  0  0  0  0  0  0  0  0
   45.8239    3.2709   11.8753 H   0  0  0  0  0  0  0  0  0  0  0  0
   45.0827    4.6664   11.0354 H   0  0  0  0  0  0  0  0  0  0  0  0
   45.7672   14.6271   12.6167 H   0  0  0  0  0  0  0  0  0  0  0  0
   47.2925   15.9662   11.1835 H   0  0  0  0  0  0  0  0  0  0  0  0
   53.5983   15.1290   15.8496 H   0  0  0  0  0  0  0  0  0  0  0  0
   52.4543   13.7120   17.5457 H   0  0  0  0  0  0  0  0  0  0  0  0
   48.3057    9.4806   14.7401 H   0  0  0  0  0  0  0  0  0  0  0  0
   47.3334   10.2512   11.9014 H   0  0  0  0  0  0  0  0  0  0  0  0
   49.2651   12.8903   12.9143 H   0  0  0  0  0  0  0  0  0  0  0  0
   46.4161    6.8162   13.7071 H   0  0  0  0  0  0  0  0  0  0  0  0
  2  1  2  0
  3  1  1  0
  4  6  1  0
  5  1  1  0
  6  3  2  0
  7  2  1  0
  8  7  2  0
  9 13  1  0
 10  5  1  0
 11  5  1  0
 12 10  1  0
 13 11  1  0
 14  3  1  0
 15  6  1  0
 16  9  1  0
 17 21  1  0
 18  7  1  0
 19  8  1  0
 20 22  1  0
 21 23  1  0
 22 16  1  0
 23 20  1  0
 24 14  2  0
 25 15  2  0
 26 19  2  0
 27 18  2  0
  9 12  1  0
  8  4  1  0
 24 25  1  0
 27 26  1  0
 29 28  2  0
 30 28  1  0
 31 33  1  0
 32 28  1  0
 33 30  2  0
 34 29  1  0
 35 34  2  0
 36 40  1  0
 37 32  1  0
 38 32  1  0
 39 37  1  0
 40 38  1  0
 41 30  1  0
 42 33  1  0
 43 36  1  0
 44 48  1  0
 45 34  1  0
 46 35  1  0
 47 49  1  0
 48 50  1  0
 49 43  1  0
 50 47  1  0
 51 41  2  0
 52 42  2  0
 53 46  2  0
 54 45  2  0
 36 39  1  0
 35 31  1  0
 51 52  1  0
 54 53  1  0
 56 58  1  0
 57 55  1  0
 58 57  2  0
 59 55  2  0
 60 56  2  0
 61 55  1  0
 62 56  1  0
 10 63  1  0
 10 64  1  0
 11 65  1  0
 11 66  1  0
 12 67  1  0
 12 68  1  0
 13 69  1  0
 13 70  1  0
 14 71  1  0
 15 72  1  0
 16 73  1  0
 16 74  1  0
 17 75  1  0
 18 76  1  0
 19 77  1  0
 21 78  1  0
 21 79  1  0
 22 80  1  0
 22 81  1  0
 23 82  1  0
 23 83  1  0
 24 84  1  0
 25 85  1  0
 26 86  1  0
 27 87  1  0
 37 88  1  0
 37 89  1  0
 38 90  1  0
 38 91  1  0
 39 92  1  0
 39 93  1  0
 40 94  1  0
 40 95  1  0
 41 96  1  0
 42 97  1  0
 43 98  1  0
 43 99  1  0
 44100  1  0
 45101  1  0
 46102  1  0
 48103  1  0
 48104  1  0
 49105  1  0
 49106  1  0
 50107  1  0
 50108  1  0
 51109  1  0
 52110  1  0
 53111  1  0
 54112  1  0
 57113  1  0
 58114  1  0
 61115  1  0
 62116  1  0
M  END
> <Uni-Dock RESULT> 
ENERGY=   -5.620  LOWER_BOUND=    2.822  UPPER_BOUND=    3.683
INTER + INTRA:          -5.620
INTER:                  -5.620
INTRA:                   0.000
UNBOUND:                 0.000

$$$$

     RDKit          3D

116121  0  0  0  0  0  0  0  0999 V2000
   48.0088   11.5787   12.1822 C   0  0  0  0  0  0  0  0  0  0  0  0
   49.1348   12.2343   12.2730 N   0  0  0  0  0  0  0  0  0  0  0  0
   46.8683   11.9843   11.2915 C   0  0  0  0  0  0  0  0  0  0  0  0
   48.6373   12.1994    9.1365 S   0  0  0  0  0  0  0  0  0  0  0  0
   47.8185   10.4331   12.9711 N   0  0  0  0  0  0  0  0  0  0  0  0
   47.0346   12.2142    9.9203 C   0  0  0  0  0  0  0  0  0  0  0  0
   49.4575   13.3869   11.5354 C   0  0  0  0  0  0  0  0  0  0  0  0
   49.3709   13.4916   10.1344 C   0  0  0  0  0  0  0  0  0  0  0  0
   48.7216    7.6667   13.8050 N   0  0  0  0  0  0  0  0  0  0  0  0
   47.3618    9.1957   12.2927 C   0  0  0  0  0  0  0  0  0  0  0  0
   48.7138   10.1861   14.1236 C   0  0  0  0  0  0  0  0  0  0  0  0
   47.3862    7.9790   13.2398 C   0  0  0  0  0  0  0  0  0  0  0  0
   49.5381    8.9005   13.9256 C   0  0  0  0  0  0  0  0  0  0  0  0
   45.5917   12.0652   11.8693 C   0  0  0  0  0  0  0  0  0  0  0  0
   45.9103   12.5070    9.1363 C   0  0  0  0  0  0  0  0  0  0  0  0
   48.6042    6.9790   15.1032 C   0  0  0  0  0  0  0  0  0  0  0  0
   48.3559    3.3459   18.4884 O   0  0  0  0  0  0  0  0  0  0  0  0
   49.9996   14.4625   12.2544 C   0  0  0  0  0  0  0  0  0  0  0  0
   49.8164   14.6536    9.4878 C   0  0  0  0  0  0  0  0  0  0  0  0
   47.8643    5.0295   16.3209 O   0  0  0  0  0  0  0  0  0  0  0  0
   47.1672    3.2130   17.7152 C   0  0  0  0  0  0  0  0  0  0  0  0
   48.0134    5.5645   15.0016 C   0  0  0  0  0  0  0  0  0  0  0  0
   47.4318    3.6617   16.2823 C   0  0  0  0  0  0  0  0  0  0  0  0
   44.4813   12.3653   11.0820 C   0  0  0  0  0  0  0  0  0  0  0  0
   44.6401   12.5796    9.7149 C   0  0  0  0  0  0  0  0  0  0  0  0
   50.3476   15.7137   10.2208 C   0  0  0  0  0  0  0  0  0  0  0  0
   50.4328   15.6203   11.6064 C   0  0  0  0  0  0  0  0  0  0  0  0
   47.7205   11.5653   12.1186 C   0  0  0  0  0  0  0  0  0  0  0  0
   46.7186   11.7803   11.3089 N   0  0  0  0  0  0  0  0  0  0  0  0
   48.7869   12.5788   12.4146 C   0  0  0  0  0  0  0  0  0  0  0  0
   46.8047   14.4687   12.9917 S   0  0  0  0  0  0  0  0  0  0  0  0
   47.8402   10.3047   12.7268 N   0  0  0  0  0  0  0  0  0  0  0  0
   48.4812   13.8649   12.8776 C   0  0  0  0  0  0  0  0  0  0  0  0
   46.4804   12.9914   10.6378 C   0  0  0  0  0  0  0  0  0  0  0  0
   46.3944   14.2504   11.2625 C   0  0  0  0  0  0  0  0  0  0  0  0
   47.6569    7.7566   14.2062 N   0  0  0  0  0  0  0  0  0  0  0  0
   48.0795   10.2392   14.1845 C   0  0  0  0  0  0  0  0  0  0  0  0
   46.9170    9.2332   12.2950 C   0  0  0  0  0  0  0  0  0  0  0  0
   48.5843    8.8428   14.5959 C   0  0  0  0  0  0  0  0  0  0  0  0
   47.4151    7.8439   12.7488 C   0  0  0  0  0  0  0  0  0  0  0  0
   50.1243   12.1738   12.2833 C   0  0  0  0  0  0  0  0  0  0  0  0
   49.5262   14.7282   13.2331 C   0  0  0  0  0  0  0  0  0  0  0  0
   48.2186    6.4536   14.6002 C   0  0  0  0  0  0  0  0  0  0  0  0
   49.6380    2.8250   16.6974 O   0  0  0  0  0  0  0  0  0  0  0  0
   46.2010   12.9058    9.2684 C   0  0  0  0  0  0  0  0  0  0  0  0
   46.0416   15.3859   10.5159 C   0  0  0  0  0  0  0  0  0  0  0  0
   47.8310    4.0604   14.9320 O   0  0  0  0  0  0  0  0  0  0  0  0
   48.2295    2.6195   16.8035 C   0  0  0  0  0  0  0  0  0  0  0  0
   47.2632    5.2628   14.4007 C   0  0  0  0  0  0  0  0  0  0  0  0
   47.4964    3.8628   16.3122 C   0  0  0  0  0  0  0  0  0  0  0  0
   51.1552   13.0465   12.6298 C   0  0  0  0  0  0  0  0  0  0  0  0
   50.8560   14.3190   13.1116 C   0  0  0  0  0  0  0  0  0  0  0  0
   45.7793   15.2810    9.1504 C   0  0  0  0  0  0  0  0  0  0  0  0
   45.8649   14.0402    8.5238 C   0  0  0  0  0  0  0  0  0  0  0  0
   47.7686   11.2879   11.9658 C   0  0  0  0  0  0  0  0  0  0  0  0
   48.1490    8.0902   14.0383 C   0  0  0  0  0  0  0  0  0  0  0  0
   47.7160    9.8939   12.4128 C   0  0  0  0  0  0  0  0  0  0  0  0
   48.2033    9.4846   13.5910 C   0  0  0  0  0  0  0  0  0  0  0  0
   47.3530   11.6801   10.8916 O   0  0  0  0  0  0  0  0  0  0  0  0
   48.5981    7.6930   15.0973 O   0  0  0  0  0  0  0  0  0  0  0  0
   48.3188   12.1258   12.8557 O   0  0  0  0  0  0  0  0  0  0  0  0
   47.5490    7.2624   13.1719 O   0  0  0  0  0  0  0  0  0  0  0  0
   48.0017    8.9946   11.4236 H   0  0  0  0  0  0  0  0  0  0  0  0
   46.3361    9.3238   11.9295 H   0  0  0  0  0  0  0  0  0  0  0  0
   49.3894   11.0260   14.3144 H   0  0  0  0  0  0  0  0  0  0  0  0
   48.0889   10.1005   15.0204 H   0  0  0  0  0  0  0  0  0  0  0  0
   46.6672    8.1775   14.0486 H   0  0  0  0  0  0  0  0  0  0  0  0
   47.0241    7.0994   12.6929 H   0  0  0  0  0  0  0  0  0  0  0  0
   50.1173    8.9931   12.9975 H   0  0  0  0  0  0  0  0  0  0  0  0
   50.2792    8.8086   14.7278 H   0  0  0  0  0  0  0  0  0  0  0  0
   45.4686   11.8930   12.9362 H   0  0  0  0  0  0  0  0  0  0  0  0
   46.0170   12.6920    8.0697 H   0  0  0  0  0  0  0  0  0  0  0  0
   48.0234    7.5782   15.8192 H   0  0  0  0  0  0  0  0  0  0  0  0
   49.5978    6.8667   15.5581 H   0  0  0  0  0  0  0  0  0  0  0  0
   48.7043    4.2308   18.2696 H   0  0  0  0  0  0  0  0  0  0  0  0
   50.0944   14.3800   13.3345 H   0  0  0  0  0  0  0  0  0  0  0  0
   49.7497   14.7349    8.4066 H   0  0  0  0  0  0  0  0  0  0  0  0
   46.8447    2.1681   17.7480 H   0  0  0  0  0  0  0  0  0  0  0  0
   46.4002    3.8375   18.1823 H   0  0  0  0  0  0  0  0  0  0  0  0
   47.0280    5.5860   14.5235 H   0  0  0  0  0  0  0  0  0  0  0  0
   48.6834    4.9256   14.4127 H   0  0  0  0  0  0  0  0  0  0  0  0
   48.2327    3.0591   15.8466 H   0  0  0  0  0  0  0  0  0  0  0  0
   46.5215    3.5713   15.6833 H   0  0  0  0  0  0  0  0  0  0  0  0
   43.4973   12.4321   11.5366 H   0  0  0  0  0  0  0  0  0  0  0  0
   43.7731   12.8078    9.0968 H   0  0  0  0  0  0  0  0  0  0  0  0
   50.6912   16.6112    9.7147 H   0  0  0  0  0  0  0  0  0  0  0  0
   50.8520   16.4378   12.1855 H   0  0  0  0  0  0  0  0  0  0  0  0
   47.1486   10.4705   14.7163 H   0  0  0  0  0  0  0  0  0  0  0  0
   48.8258   10.9734   14.5029 H   0  0  0  0  0  0  0  0  0  0  0  0
   45.9192    9.4271   12.7050 H   0  0  0  0  0  0  0  0  0  0  0  0
   46.8362    9.2130   11.2014 H   0  0  0  0  0  0  0  0  0  0  0  0
   48.7172    8.8391   15.6853 H   0  0  0  0  0  0  0  0  0  0  0  0
   49.5722    8.6689   14.1484 H   0  0  0  0  0  0  0  0  0  0  0  0
   46.6566    7.1115   12.4548 H   0  0  0  0  0  0  0  0  0  0  0  0
   48.3330    7.6068   12.1973 H   0  0  0  0  0  0  0  0  0  0  0  0
   50.3630   11.1765   11.9219 H   0  0  0  0  0  0  0  0  0  0  0  0
   49.3121   15.7314   13.5951 H   0  0  0  0  0  0  0  0  0  0  0  0
   48.4875    6.4917   15.6631 H   0  0  0  0  0  0  0  0  0  0  0  0
   49.1550    6.2514   14.0614 H   0  0  0  0  0  0  0  0  0  0  0  0
   49.7836    3.1144   15.7766 H   0  0  0  0  0  0  0  0  0  0  0  0
   46.2379   11.9357    8.7796 H   0  0  0  0  0  0  0  0  0  0  0  0
   45.9786   16.3605   10.9934 H   0  0  0  0  0  0  0  0  0  0  0  0
   47.9762    1.7437   16.1979 H   0  0  0  0  0  0  0  0  0  0  0  0
   47.9897    2.4107   17.8487 H   0  0  0  0  0  0  0  0  0  0  0  0
   46.2817    5.4579   14.8486 H   0  0  0  0  0  0  0  0  0  0  0  0
   47.1097    5.0862   13.3310 H   0  0  0  0  0  0  0  0  0  0  0  0
   46.4143    3.7291   16.4128 H   0  0  0  0  0  0  0  0  0  0  0  0
   47.8162    4.7324   16.8928 H   0  0  0  0  0  0  0  0  0  0  0  0
   52.1905   12.7331   12.5294 H   0  0  0  0  0  0  0  0  0  0  0  0
   51.6575   15.0047   13.3836 H   0  0  0  0  0  0  0  0  0  0  0  0
   45.5090   16.1654    8.5791 H   0  0  0  0  0  0  0  0  0  0  0  0
   45.6575   13.9474    7.4604 H   0  0  0  0  0  0  0  0  0  0  0  0
   47.2525    9.2144   11.7080 H   0  0  0  0  0  0  0  0  0  0  0  0
   48.6676   10.1664   14.2943 H   0  0  0  0  0  0  0  0  0  0  0  0
   48.2847   12.9989   12.4096 H   0  0  0  0  0  0  0  0  0  0  0  0
   47.5878    6.3883   13.6151 H   0  0  0  0  0  0  0  0  0  0  0  0
  2  1  2  0
  3  1  1  0
  4  6  1  0
  5  1  1  0
  6  3  2  0
  7  2  1  0
  8  7  2  0
  9 13  1  0
 10  5  1  0
 11  5  1  0
 12 10  1  0
 13 11  1  0
 14  3  1  0
 15  6  1  0
 16  9  1  0
 17 21  1  0
 18  7  1  0
 19  8  1  0
 20 22  1  0
 21 23  1  0
 22 16  1  0
 23 20  1  0
 24 14  2  0
 25 15  2  0
 26 19  2  0
 27 18  2  0
  9 12  1  0
  8  4  1  0
 24 25  1  0
 27 26  1  0
 29 28  2  0
 30 28  1  0
 31 33  1  0
 32 28  1  0
 33 30  2  0
 34 29  1  0
 35 34  2  0
 36 40  1  0
 37 32  1  0
 38 32  1  0
 39 37  1  0
 40 38  1  0
 41 30  1  0
 42 33  1  0
 43 36  1  0
 44 48  1  0
 45 34  1  0
 46 35  1  0
 47 49  1  0
 48 50  1  0
 49 43  1  0
 50 47  1  0
 51 41  2  0
 52 42  2  0
 53 46  2  0
 54 45  2  0
 36 39  1  0
 35 31  1  0
 51 52  1  0
 54 53  1  0
 56 58  1  0
 57 55  1  0
 58 57  2  0
 59 55  2  0
 60 56  2  0
 61 55  1  0
 62 56  1  0
 10 63  1  0
 10 64  1  0
 11 65  1  0
 11 66  1  0
 12 67  1  0
 12 68  1  0
 13 69  1  0
 13 70  1  0
 14 71  1  0
 15 72  1  0
 16 73  1  0
 16 74  1  0
 17 75  1  0
 18 76  1  0
 19 77  1  0
 21 78  1  0
 21 79  1  0
 22 80  1  0
 22 81  1  0
 23 82  1  0
 23 83  1  0
 24 84  1  0
 25 85  1  0
 26 86  1  0
 27 87  1  0
 37 88  1  0
 37 89  1  0
 38 90  1  0
 38 91  1  0
 39 92  1  0
 39 93  1  0
 40 94  1  0
 40 95  1  0
 41 96  1  0
 42 97  1  0
 43 98  1  0
 43 99  1  0
 44100  1  0
 45101  1  0
 46102  1  0
 48103  1  0
 48104  1  0
 49105  1  0
 49106  1  0
 50107  1  0
 50108  1  0
 51109  1  0
 52110  1  0
 53111  1  0
 54112  1  0
 57113  1  0
 58114  1  0
 61115  1  0
 62116  1  0
M  END
> <Uni-Dock RESULT> 
ENERGY=   -5.556  LOWER_BOUND=    3.778  UPPER_BOUND=    6.439
INTER + INTRA:          -5.556
INTER:                  -5.556
INTRA:                   0.000
UNBOUND:                 0.000

$$$$

     RDKit          3D

116121  0  0  0  0  0  0  0  0999 V2000
   46.3409   13.0158   11.6724 C   0  0  0  0  0  0  0  0  0  0  0  0
   45.2917   13.7806   11.8143 N   0  0  0  0  0  0  0  0  0  0  0  0
   47.7535   13.5263   11.6200 C   0  0  0  0  0  0  0  0  0  0  0  0
   47.2986   15.0028   13.9509 S   0  0  0  0  0  0  0  0  0  0  0  0
   46.1640   11.6297   11.5364 N   0  0  0  0  0  0  0  0  0  0  0  0
   48.2877   14.3537   12.6154 C   0  0  0  0  0  0  0  0  0  0  0  0
   45.3282   15.1775   11.9698 C   0  0  0  0  0  0  0  0  0  0  0  0
   46.1018   15.8565   12.9298 C   0  0  0  0  0  0  0  0  0  0  0  0
   45.0986    9.0203   12.6405 N   0  0  0  0  0  0  0  0  0  0  0  0
   46.9587   10.7423   12.4200 C   0  0  0  0  0  0  0  0  0  0  0  0
   44.8240   11.0962   11.2040 C   0  0  0  0  0  0  0  0  0  0  0  0
   46.5203    9.2688   12.2985 C   0  0  0  0  0  0  0  0  0  0  0  0
   44.2737   10.2180   12.3429 C   0  0  0  0  0  0  0  0  0  0  0  0
   48.5614   13.0901   10.5584 C   0  0  0  0  0  0  0  0  0  0  0  0
   49.6382   14.7221   12.5441 C   0  0  0  0  0  0  0  0  0  0  0  0
   44.5808    7.8317   11.9396 C   0  0  0  0  0  0  0  0  0  0  0  0
   43.2693    3.1267   11.0106 O   0  0  0  0  0  0  0  0  0  0  0  0
   44.4472   15.9224   11.1719 C   0  0  0  0  0  0  0  0  0  0  0  0
   45.9861   17.2472   13.0694 C   0  0  0  0  0  0  0  0  0  0  0  0
   44.7016    5.4428   11.6092 O   0  0  0  0  0  0  0  0  0  0  0  0
   44.6904    3.1033   11.1032 C   0  0  0  0  0  0  0  0  0  0  0  0
   45.2099    6.5126   12.4130 C   0  0  0  0  0  0  0  0  0  0  0  0
   45.1602    4.1695   12.0865 C   0  0  0  0  0  0  0  0  0  0  0  0
   49.9011   13.4692   10.4925 C   0  0  0  0  0  0  0  0  0  0  0  0
   50.4406   14.2796   11.4887 C   0  0  0  0  0  0  0  0  0  0  0  0
   45.1082   17.9702   12.2634 C   0  0  0  0  0  0  0  0  0  0  0  0
   44.3431   17.3075   11.3088 C   0  0  0  0  0  0  0  0  0  0  0  0
   46.6224   12.9732   11.5931 C   0  0  0  0  0  0  0  0  0  0  0  0
   47.8839   13.3092   11.6345 N   0  0  0  0  0  0  0  0  0  0  0  0
   45.5043   13.9520   11.3840 C   0  0  0  0  0  0  0  0  0  0  0  0
   46.8348   14.9640    9.1390 S   0  0  0  0  0  0  0  0  0  0  0  0
   46.2742   11.6267   11.7903 N   0  0  0  0  0  0  0  0  0  0  0  0
   45.4738   14.8212   10.2860 C   0  0  0  0  0  0  0  0  0  0  0  0
   48.3683   14.6153   11.4531 C   0  0  0  0  0  0  0  0  0  0  0  0
   48.0681   15.4353   10.3483 C   0  0  0  0  0  0  0  0  0  0  0  0
   45.8118    8.7110   11.8050 N   0  0  0  0  0  0  0  0  0  0  0  0
   45.3384   10.9884   10.8398 C   0  0  0  0  0  0  0  0  0  0  0  0
   47.3398   10.6843   12.1949 C   0  0  0  0  0  0  0  0  0  0  0  0
   44.7631    9.6852   11.4269 C   0  0  0  0  0  0  0  0  0  0  0  0
   46.7486    9.3678   12.7437 C   0  0  0  0  0  0  0  0  0  0  0  0
   44.4352   13.9230   12.2928 C   0  0  0  0  0  0  0  0  0  0  0  0
   44.3514   15.6380   10.0937 C   0  0  0  0  0  0  0  0  0  0  0  0
   45.1917    7.5089   12.3872 C   0  0  0  0  0  0  0  0  0  0  0  0
   43.0873    3.7007   13.1924 O   0  0  0  0  0  0  0  0  0  0  0  0
   49.3016   15.0745   12.3905 C   0  0  0  0  0  0  0  0  0  0  0  0
   48.6931   16.6845   10.2064 C   0  0  0  0  0  0  0  0  0  0  0  0
   45.4747    5.1834   13.0938 O   0  0  0  0  0  0  0  0  0  0  0  0
   44.2599    3.1895   12.5589 C   0  0  0  0  0  0  0  0  0  0  0  0
   46.1740    6.3550   12.6594 C   0  0  0  0  0  0  0  0  0  0  0  0
   45.0798    4.3465   11.9986 C   0  0  0  0  0  0  0  0  0  0  0  0
   43.3292   14.7490   12.0962 C   0  0  0  0  0  0  0  0  0  0  0  0
   43.2841   15.5994   10.9937 C   0  0  0  0  0  0  0  0  0  0  0  0
   49.6107   17.1285   11.1579 C   0  0  0  0  0  0  0  0  0  0  0  0
   49.9113   16.3252   12.2552 C   0  0  0  0  0  0  0  0  0  0  0  0
   46.6710   12.8050   11.8612 C   0  0  0  0  0  0  0  0  0  0  0  0
   45.4553    9.1762   12.0003 C   0  0  0  0  0  0  0  0  0  0  0  0
   46.5590   11.3758   12.1629 C   0  0  0  0  0  0  0  0  0  0  0  0
   45.5660   10.6062   11.6995 C   0  0  0  0  0  0  0  0  0  0  0  0
   47.5506   13.5294   12.2880 O   0  0  0  0  0  0  0  0  0  0  0  0
   44.5547    8.4608   11.6027 O   0  0  0  0  0  0  0  0  0  0  0  0
   45.7087   13.2688   11.0517 O   0  0  0  0  0  0  0  0  0  0  0  0
   46.4484    8.7010   12.7643 O   0  0  0  0  0  0  0  0  0  0  0  0
   46.8526   11.0698   13.4625 H   0  0  0  0  0  0  0  0  0  0  0  0
   48.0205   10.8043   12.1571 H   0  0  0  0  0  0  0  0  0  0  0  0
   44.1045   11.8888   10.9752 H   0  0  0  0  0  0  0  0  0  0  0  0
   44.9171   10.5076   10.2836 H   0  0  0  0  0  0  0  0  0  0  0  0
   46.7252    8.9490   11.2659 H   0  0  0  0  0  0  0  0  0  0  0  0
   47.1500    8.6583   12.9577 H   0  0  0  0  0  0  0  0  0  0  0  0
   44.2355   10.8169   13.2623 H   0  0  0  0  0  0  0  0  0  0  0  0
   43.2353    9.9408   12.1282 H   0  0  0  0  0  0  0  0  0  0  0  0
   48.1400   12.4534    9.7838 H   0  0  0  0  0  0  0  0  0  0  0  0
   50.0730   15.3666   13.3048 H   0  0  0  0  0  0  0  0  0  0  0  0
   44.6937    7.9322   10.8504 H   0  0  0  0  0  0  0  0  0  0  0  0
   43.4999    7.7375   12.1114 H   0  0  0  0  0  0  0  0  0  0  0  0
   43.0359    4.0695   10.9162 H   0  0  0  0  0  0  0  0  0  0  0  0
   43.8267   15.4029   10.4455 H   0  0  0  0  0  0  0  0  0  0  0  0
   46.5829   17.7718   13.8102 H   0  0  0  0  0  0  0  0  0  0  0  0
   45.0026    2.1053   11.4248 H   0  0  0  0  0  0  0  0  0  0  0  0
   45.0878    3.2958   10.1025 H   0  0  0  0  0  0  0  0  0  0  0  0
   46.2998    6.5387   12.3054 H   0  0  0  0  0  0  0  0  0  0  0  0
   44.9582    6.3404   13.4670 H   0  0  0  0  0  0  0  0  0  0  0  0
   44.7167    3.9896   13.0690 H   0  0  0  0  0  0  0  0  0  0  0  0
   46.2514    4.1646   12.1572 H   0  0  0  0  0  0  0  0  0  0  0  0
   50.5191   13.1329    9.6652 H   0  0  0  0  0  0  0  0  0  0  0  0
   51.4886   14.5717   11.4427 H   0  0  0  0  0  0  0  0  0  0  0  0
   45.0227   19.0471   12.3761 H   0  0  0  0  0  0  0  0  0  0  0  0
   43.6509   17.8610   10.6812 H   0  0  0  0  0  0  0  0  0  0  0  0
   45.8638   10.7742    9.9012 H   0  0  0  0  0  0  0  0  0  0  0  0
   44.4989   11.6474   10.5983 H   0  0  0  0  0  0  0  0  0  0  0  0
   47.9858   10.4763   11.3343 H   0  0  0  0  0  0  0  0  0  0  0  0
   47.9598   11.1222   12.9865 H   0  0  0  0  0  0  0  0  0  0  0  0
   44.1013    9.2388   10.6739 H   0  0  0  0  0  0  0  0  0  0  0  0
   44.1435    9.9251   12.3016 H   0  0  0  0  0  0  0  0  0  0  0  0
   47.5863    8.6974   12.9605 H   0  0  0  0  0  0  0  0  0  0  0  0
   46.2446    9.5828   13.6939 H   0  0  0  0  0  0  0  0  0  0  0  0
   44.4587   13.2503   13.1468 H   0  0  0  0  0  0  0  0  0  0  0  0
   44.3062   16.3205    9.2478 H   0  0  0  0  0  0  0  0  0  0  0  0
   44.4237    7.1381   11.6971 H   0  0  0  0  0  0  0  0  0  0  0  0
   44.6637    7.7529   13.3198 H   0  0  0  0  0  0  0  0  0  0  0  0
   43.4103    4.3819   13.8125 H   0  0  0  0  0  0  0  0  0  0  0  0
   49.5620   14.4400   13.2337 H   0  0  0  0  0  0  0  0  0  0  0  0
   48.4608   17.3225    9.3575 H   0  0  0  0  0  0  0  0  0  0  0  0
   44.8249    2.6297   13.3107 H   0  0  0  0  0  0  0  0  0  0  0  0
   43.9519    2.5065   11.7638 H   0  0  0  0  0  0  0  0  0  0  0  0
   46.7870    6.1349   11.7774 H   0  0  0  0  0  0  0  0  0  0  0  0
   46.8525    6.6302   13.4736 H   0  0  0  0  0  0  0  0  0  0  0  0
   45.9698    3.9668   11.4862 H   0  0  0  0  0  0  0  0  0  0  0  0
   44.4701    4.9251   11.2993 H   0  0  0  0  0  0  0  0  0  0  0  0
   42.5009   14.7260   12.7988 H   0  0  0  0  0  0  0  0  0  0  0  0
   42.4225   16.2469   10.8355 H   0  0  0  0  0  0  0  0  0  0  0  0
   50.0885   18.0979   11.0417 H   0  0  0  0  0  0  0  0  0  0  0  0
   50.6291   16.6606   13.0001 H   0  0  0  0  0  0  0  0  0  0  0  0
   47.3459   10.9890   12.7987 H   0  0  0  0  0  0  0  0  0  0  0  0
   44.7791   10.9959   11.0640 H   0  0  0  0  0  0  0  0  0  0  0  0
   45.9202   14.2221   10.9563 H   0  0  0  0  0  0  0  0  0  0  0  0
   46.2343    7.7491   12.8646 H   0  0  0  0  0  0  0  0  0  0  0  0
  2  1  2  0
  3  1  1  0
  4  6  1  0
  5  1  1  0
  6  3  2  0
  7  2  1  0
  8  7  2  0
  9 13  1  0
 10  5  1  0
 11  5  1  0
 12 10  1  0
 13 11  1  0
 14  3  1  0
 15  6  1  0
 16  9  1  0
 17 21  1  0
 18  7  1  0
 19  8  1  0
 20 22  1  0
 21 23  1  0
 22 16  1  0
 23 20  1  0
 24 14  2  0
 25 15  2  0
 26 19  2  0
 27 18  2  0
  9 12  1  0
  8  4  1  0
 24 25  1  0
 27 26  1  0
 29 28  2  0
 30 28  1  0
 31 33  1  0
 32 28  1  0
 33 30  2  0
 34 29  1  0
 35 34  2  0
 36 40  1  0
 37 32  1  0
 38 32  1  0
 39 37  1  0
 40 38  1  0
 41 30  1  0
 42 33  1  0
 43 36  1  0
 44 48  1  0
 45 34  1  0
 46 35  1  0
 47 49  1  0
 48 50  1  0
 49 43  1  0
 50 47  1  0
 51 41  2  0
 52 42  2  0
 53 46  2  0
 54 45  2  0
 36 39  1  0
 35 31  1  0
 51 52  1  0
 54 53  1  0
 56 58  1  0
 57 55  1  0
 58 57  2  0
 59 55  2  0
 60 56  2  0
 61 55  1  0
 62 56  1  0
 10 63  1  0
 10 64  1  0
 11 65  1  0
 11 66  1  0
 12 67  1  0
 12 68  1  0
 13 69  1  0
 13 70  1  0
 14 71  1  0
 15 72  1  0
 16 73  1  0
 16 74  1  0
 17 75  1  0
 18 76  1  0
 19 77  1  0
 21 78  1  0
 21 79  1  0
 22 80  1  0
 22 81  1  0
 23 82  1  0
 23 83  1  0
 24 84  1  0
 25 85  1  0
 26 86  1  0
 27 87  1  0
 37 88  1  0
 37 89  1  0
 38 90  1  0
 38 91  1  0
 39 92  1  0
 39 93  1  0
 40 94  1  0
 40 95  1  0
 41 96  1  0
 42 97  1  0
 43 98  1  0
 43 99  1  0
 44100  1  0
 45101  1  0
 46102  1  0
 48103  1  0
 48104  1  0
 49105  1  0
 49106  1  0
 50107  1  0
 50108  1  0
 51109  1  0
 52110  1  0
 53111  1  0
 54112  1  0
 57113  1  0
 58114  1  0
 61115  1  0
 62116  1  0
M  END
> <Uni-Dock RESULT> 
ENERGY=   -5.543  LOWER_BOUND=    4.862  UPPER_BOUND=    6.744
INTER + INTRA:          -5.543
INTER:                  -5.543
INTRA:                   0.000
UNBOUND:                 0.000

$$$$

     RDKit          3D

116121  0  0  0  0  0  0  0  0999 V2000
   46.3409   13.0158   11.6723 C   0  0  0  0  0  0  0  0  0  0  0  0
   45.2917   13.7806   11.8143 N   0  0  0  0  0  0  0  0  0  0  0  0
   47.7535   13.5263   11.6200 C   0  0  0  0  0  0  0  0  0  0  0  0
   47.2986   15.0028   13.9508 S   0  0  0  0  0  0  0  0  0  0  0  0
   46.1640   11.6297   11.5364 N   0  0  0  0  0  0  0  0  0  0  0  0
   48.2877   14.3537   12.6154 C   0  0  0  0  0  0  0  0  0  0  0  0
   45.3282   15.1775   11.9698 C   0  0  0  0  0  0  0  0  0  0  0  0
   46.1018   15.8565   12.9298 C   0  0  0  0  0  0  0  0  0  0  0  0
   45.0986    9.0203   12.6405 N   0  0  0  0  0  0  0  0  0  0  0  0
   46.9587   10.7423   12.4200 C   0  0  0  0  0  0  0  0  0  0  0  0
   44.8240   11.0962   11.2039 C   0  0  0  0  0  0  0  0  0  0  0  0
   46.5203    9.2688   12.2985 C   0  0  0  0  0  0  0  0  0  0  0  0
   44.2737   10.2180   12.3429 C   0  0  0  0  0  0  0  0  0  0  0  0
   48.5614   13.0901   10.5584 C   0  0  0  0  0  0  0  0  0  0  0  0
   49.6381   14.7221   12.5440 C   0  0  0  0  0  0  0  0  0  0  0  0
   44.5808    7.8317   11.9396 C   0  0  0  0  0  0  0  0  0  0  0  0
   43.2693    3.1267   11.0106 O   0  0  0  0  0  0  0  0  0  0  0  0
   44.4472   15.9224   11.1718 C   0  0  0  0  0  0  0  0  0  0  0  0
   45.9861   17.2472   13.0694 C   0  0  0  0  0  0  0  0  0  0  0  0
   44.7016    5.4428   11.6092 O   0  0  0  0  0  0  0  0  0  0  0  0
   44.6904    3.1033   11.1032 C   0  0  0  0  0  0  0  0  0  0  0  0
   45.2099    6.5126   12.4130 C   0  0  0  0  0  0  0  0  0  0  0  0
   45.1602    4.1695   12.0865 C   0  0  0  0  0  0  0  0  0  0  0  0
   49.9011   13.4692   10.4925 C   0  0  0  0  0  0  0  0  0  0  0  0
   50.4405   14.2796   11.4886 C   0  0  0  0  0  0  0  0  0  0  0  0
   45.1082   17.9703   12.2634 C   0  0  0  0  0  0  0  0  0  0  0  0
   44.3431   17.3075   11.3088 C   0  0  0  0  0  0  0  0  0  0  0  0
   46.6224   12.9733   11.5931 C   0  0  0  0  0  0  0  0  0  0  0  0
   47.8838   13.3092   11.6345 N   0  0  0  0  0  0  0  0  0  0  0  0
   45.5043   13.9521   11.3840 C   0  0  0  0  0  0  0  0  0  0  0  0
   46.8347   14.9640    9.1389 S   0  0  0  0  0  0  0  0  0  0  0  0
   46.2742   11.6267   11.7903 N   0  0  0  0  0  0  0  0  0  0  0  0
   45.4737   14.8212   10.2860 C   0  0  0  0  0  0  0  0  0  0  0  0
   48.3683   14.6153   11.4530 C   0  0  0  0  0  0  0  0  0  0  0  0
   48.0681   15.4353   10.3483 C   0  0  0  0  0  0  0  0  0  0  0  0
   45.8118    8.7111   11.8050 N   0  0  0  0  0  0  0  0  0  0  0  0
   45.3384   10.9885   10.8397 C   0  0  0  0  0  0  0  0  0  0  0  0
   47.3397   10.6844   12.1948 C   0  0  0  0  0  0  0  0  0  0  0  0
   44.7631    9.6852   11.4269 C   0  0  0  0  0  0  0  0  0  0  0  0
   46.7486    9.3678   12.7437 C   0  0  0  0  0  0  0  0  0  0  0  0
   44.4352   13.9230   12.2928 C   0  0  0  0  0  0  0  0  0  0  0  0
   44.3514   15.6380   10.0936 C   0  0  0  0  0  0  0  0  0  0  0  0
   45.1917    7.5089   12.3871 C   0  0  0  0  0  0  0  0  0  0  0  0
   43.0873    3.7007   13.1924 O   0  0  0  0  0  0  0  0  0  0  0  0
   49.3016   15.0746   12.3904 C   0  0  0  0  0  0  0  0  0  0  0  0
   48.6931   16.6845   10.2063 C   0  0  0  0  0  0  0  0  0  0  0  0
   45.4747    5.1834   13.0938 O   0  0  0  0  0  0  0  0  0  0  0  0
   44.2599    3.1896   12.5589 C   0  0  0  0  0  0  0  0  0  0  0  0
   46.1740    6.3550   12.6594 C   0  0  0  0  0  0  0  0  0  0  0  0
   45.0798    4.3465   11.9986 C   0  0  0  0  0  0  0  0  0  0  0  0
   43.3292   14.7490   12.0962 C   0  0  0  0  0  0  0  0  0  0  0  0
   43.2841   15.5994   10.9936 C   0  0  0  0  0  0  0  0  0  0  0  0
   49.6107   17.1285   11.1578 C   0  0  0  0  0  0  0  0  0  0  0  0
   49.9113   16.3253   12.2551 C   0  0  0  0  0  0  0  0  0  0  0  0
   46.6710   12.8050   11.8612 C   0  0  0  0  0  0  0  0  0  0  0  0
   45.4553    9.1762   12.0002 C   0  0  0  0  0  0  0  0  0  0  0  0
   46.5590   11.3759   12.1628 C   0  0  0  0  0  0  0  0  0  0  0  0
   45.5660   10.6062   11.6995 C   0  0  0  0  0  0  0  0  0  0  0  0
   47.5506   13.5294   12.2880 O   0  0  0  0  0  0  0  0  0  0  0  0
   44.5546    8.4609   11.6027 O   0  0  0  0  0  0  0  0  0  0  0  0
   45.7087   13.2688   11.0517 O   0  0  0  0  0  0  0  0  0  0  0  0
   46.4484    8.7011   12.7643 O   0  0  0  0  0  0  0  0  0  0  0  0
   46.8526   11.0698   13.4624 H   0  0  0  0  0  0  0  0  0  0  0  0
   48.0204   10.8043   12.1571 H   0  0  0  0  0  0  0  0  0  0  0  0
   44.1045   11.8888   10.9752 H   0  0  0  0  0  0  0  0  0  0  0  0
   44.9171   10.5077   10.2835 H   0  0  0  0  0  0  0  0  0  0  0  0
   46.7251    8.9490   11.2658 H   0  0  0  0  0  0  0  0  0  0  0  0
   47.1500    8.6584   12.9577 H   0  0  0  0  0  0  0  0  0  0  0  0
   44.2355   10.8169   13.2623 H   0  0  0  0  0  0  0  0  0  0  0  0
   43.2353    9.9408   12.1282 H   0  0  0  0  0  0  0  0  0  0  0  0
   48.1400   12.4534    9.7837 H   0  0  0  0  0  0  0  0  0  0  0  0
   50.0730   15.3667   13.3048 H   0  0  0  0  0  0  0  0  0  0  0  0
   44.6937    7.9322   10.8504 H   0  0  0  0  0  0  0  0  0  0  0  0
   43.4999    7.7376   12.1114 H   0  0  0  0  0  0  0  0  0  0  0  0
   43.0359    4.0695   10.9162 H   0  0  0  0  0  0  0  0  0  0  0  0
   43.8267   15.4029   10.4455 H   0  0  0  0  0  0  0  0  0  0  0  0
   46.5829   17.7718   13.8102 H   0  0  0  0  0  0  0  0  0  0  0  0
   45.0026    2.1053   11.4249 H   0  0  0  0  0  0  0  0  0  0  0  0
   45.0878    3.2958   10.1025 H   0  0  0  0  0  0  0  0  0  0  0  0
   46.2998    6.5387   12.3054 H   0  0  0  0  0  0  0  0  0  0  0  0
   44.9582    6.3404   13.4670 H   0  0  0  0  0  0  0  0  0  0  0  0
   44.7167    3.9896   13.0690 H   0  0  0  0  0  0  0  0  0  0  0  0
   46.2514    4.1646   12.1572 H   0  0  0  0  0  0  0  0  0  0  0  0
   50.5190   13.1330    9.6651 H   0  0  0  0  0  0  0  0  0  0  0  0
   51.4886   14.5718   11.4426 H   0  0  0  0  0  0  0  0  0  0  0  0
   45.0227   19.0472   12.3760 H   0  0  0  0  0  0  0  0  0  0  0  0
   43.6509   17.8610   10.6812 H   0  0  0  0  0  0  0  0  0  0  0  0
   45.8638   10.7742    9.9011 H   0  0  0  0  0  0  0  0  0  0  0  0
   44.4989   11.6474   10.5983 H   0  0  0  0  0  0  0  0  0  0  0  0
   47.9858   10.4763   11.3343 H   0  0  0  0  0  0  0  0  0  0  0  0
   47.9598   11.1222   12.9864 H   0  0  0  0  0  0  0  0  0  0  0  0
   44.1013    9.2388   10.6739 H   0  0  0  0  0  0  0  0  0  0  0  0
   44.1435    9.9251   12.3015 H   0  0  0  0  0  0  0  0  0  0  0  0
   47.5863    8.6975   12.9605 H   0  0  0  0  0  0  0  0  0  0  0  0
   46.2446    9.5829   13.6939 H   0  0  0  0  0  0  0  0  0  0  0  0
   44.4586   13.2503   13.1468 H   0  0  0  0  0  0  0  0  0  0  0  0
   44.3061   16.3205    9.2478 H   0  0  0  0  0  0  0  0  0  0  0  0
   44.4237    7.1382   11.6971 H   0  0  0  0  0  0  0  0  0  0  0  0
   44.6637    7.7529   13.3198 H   0  0  0  0  0  0  0  0  0  0  0  0
   43.4103    4.3819   13.8125 H   0  0  0  0  0  0  0  0  0  0  0  0
   49.5620   14.4400   13.2336 H   0  0  0  0  0  0  0  0  0  0  0  0
   48.4608   17.3225    9.3574 H   0  0  0  0  0  0  0  0  0  0  0  0
   44.8249    2.6298   13.3107 H   0  0  0  0  0  0  0  0  0  0  0  0
   43.9519    2.5065   11.7638 H   0  0  0  0  0  0  0  0  0  0  0  0
   46.7870    6.1349   11.7774 H   0  0  0  0  0  0  0  0  0  0  0  0
   46.8525    6.6303   13.4736 H   0  0  0  0  0  0  0  0  0  0  0  0
   45.9698    3.9668   11.4862 H   0  0  0  0  0  0  0  0  0  0  0  0
   44.4701    4.9252   11.2993 H   0  0  0  0  0  0  0  0  0  0  0  0
   42.5009   14.7260   12.7988 H   0  0  0  0  0  0  0  0  0  0  0  0
   42.4225   16.2469   10.8354 H   0  0  0  0  0  0  0  0  0  0  0  0
   50.0885   18.0979   11.0416 H   0  0  0  0  0  0  0  0  0  0  0  0
   50.6291   16.6606   13.0000 H   0  0  0  0  0  0  0  0  0  0  0  0
   47.3459   10.9890   12.7987 H   0  0  0  0  0  0  0  0  0  0  0  0
   44.7790   10.9959   11.0640 H   0  0  0  0  0  0  0  0  0  0  0  0
   45.9202   14.2221   10.9563 H   0  0  0  0  0  0  0  0  0  0  0  0
   46.2343    7.7492   12.8645 H   0  0  0  0  0  0  0  0  0  0  0  0
  2  1  2  0
  3  1  1  0
  4  6  1  0
  5  1  1  0
  6  3  2  0
  7  2  1  0
  8  7  2  0
  9 13  1  0
 10  5  1  0
 11  5  1  0
 12 10  1  0
 13 11  1  0
 14  3  1  0
 15  6  1  0
 16  9  1  0
 17 21  1  0
 18  7  1  0
 19  8  1  0
 20 22  1  0
 21 23  1  0
 22 16  1  0
 23 20  1  0
 24 14  2  0
 25 15  2  0
 26 19  2  0
 27 18  2  0
  9 12  1  0
  8  4  1  0
 24 25  1  0
 27 26  1  0
 29 28  2  0
 30 28  1  0
 31 33  1  0
 32 28  1  0
 33 30  2  0
 34 29  1  0
 35 34  2  0
 36 40  1  0
 37 32  1  0
 38 32  1  0
 39 37  1  0
 40 38  1  0
 41 30  1  0
 42 33  1  0
 43 36  1  0
 44 48  1  0
 45 34  1  0
 46 35  1  0
 47 49  1  0
 48 50  1  0
 49 43  1  0
 50 47  1  0
 51 41  2  0
 52 42  2  0
 53 46  2  0
 54 45  2  0
 36 39  1  0
 35 31  1  0
 51 52  1  0
 54 53  1  0
 56 58  1  0
 57 55  1  0
 58 57  2  0
 59 55  2  0
 60 56  2  0
 61 55  1  0
 62 56  1  0
 10 63  1  0
 10 64  1  0
 11 65  1  0
 11 66  1  0
 12 67  1  0
 12 68  1  0
 13 69  1  0
 13 70  1  0
 14 71  1  0
 15 72  1  0
 16 73  1  0
 16 74  1  0
 17 75  1  0
 18 76  1  0
 19 77  1  0
 21 78  1  0
 21 79  1  0
 22 80  1  0
 22 81  1  0
 23 82  1  0
 23 83  1  0
 24 84  1  0
 25 85  1  0
 26 86  1  0
 27 87  1  0
 37 88  1  0
 37 89  1  0
 38 90  1  0
 38 91  1  0
 39 92  1  0
 39 93  1  0
 40 94  1  0
 40 95  1  0
 41 96  1  0
 42 97  1  0
 43 98  1  0
 43 99  1  0
 44100  1  0
 45101  1  0
 46102  1  0
 48103  1  0
 48104  1  0
 49105  1  0
 49106  1  0
 50107  1  0
 50108  1  0
 51109  1  0
 52110  1  0
 53111  1  0
 54112  1  0
 57113  1  0
 58114  1  0
 61115  1  0
 62116  1  0
M  END
> <Uni-Dock RESULT> 
ENERGY=   -5.543  LOWER_BOUND=    4.862  UPPER_BOUND=    6.744
INTER + INTRA:          -5.543
INTER:                  -5.543
INTRA:                   0.000
UNBOUND:                 0.000

$$$$

     RDKit          3D

116121  0  0  0  0  0  0  0  0999 V2000
   50.9967    9.2293   15.8746 C   0  0  0  0  0  0  0  0  0  0  0  0
   52.1362    8.6578   15.5907 N   0  0  0  0  0  0  0  0  0  0  0  0
   50.8656   10.4888   16.6841 C   0  0  0  0  0  0  0  0  0  0  0  0
   52.7799   11.7224   15.0613 S   0  0  0  0  0  0  0  0  0  0  0  0
   49.8045    8.6389   15.4263 N   0  0  0  0  0  0  0  0  0  0  0  0
   51.5607   11.6610   16.3624 C   0  0  0  0  0  0  0  0  0  0  0  0
   53.3990    9.1472   15.9683 C   0  0  0  0  0  0  0  0  0  0  0  0
   53.8571   10.4553   15.7232 C   0  0  0  0  0  0  0  0  0  0  0  0
   48.0972    7.6335   13.1376 N   0  0  0  0  0  0  0  0  0  0  0  0
   48.8381    9.4991   14.7011 C   0  0  0  0  0  0  0  0  0  0  0  0
   49.8182    7.2336   14.9615 C   0  0  0  0  0  0  0  0  0  0  0  0
   47.6773    8.6799   14.1014 C   0  0  0  0  0  0  0  0  0  0  0  0
   49.4558    7.1352   13.4681 C   0  0  0  0  0  0  0  0  0  0  0  0
   49.9589   10.4793   17.7555 C   0  0  0  0  0  0  0  0  0  0  0  0
   51.3246   12.8216   17.1119 C   0  0  0  0  0  0  0  0  0  0  0  0
   47.1232    6.5284   13.0916 C   0  0  0  0  0  0  0  0  0  0  0  0
   43.2864    3.7053   11.6671 O   0  0  0  0  0  0  0  0  0  0  0  0
   54.2882    8.2222   16.5355 C   0  0  0  0  0  0  0  0  0  0  0  0
   55.1740   10.8111   16.0489 C   0  0  0  0  0  0  0  0  0  0  0  0
   44.8772    5.8070   12.5758 O   0  0  0  0  0  0  0  0  0  0  0  0
   42.6990    4.9014   12.1700 C   0  0  0  0  0  0  0  0  0  0  0  0
   45.7667    6.9253   12.4897 C   0  0  0  0  0  0  0  0  0  0  0  0
   43.6323    6.0799   11.9161 C   0  0  0  0  0  0  0  0  0  0  0  0
   49.7378   11.6369   18.4998 C   0  0  0  0  0  0  0  0  0  0  0  0
   50.4157   12.8091   18.1736 C   0  0  0  0  0  0  0  0  0  0  0  0
   56.0408    9.8786   16.6164 C   0  0  0  0  0  0  0  0  0  0  0  0
   55.5948    8.5846   16.8662 C   0  0  0  0  0  0  0  0  0  0  0  0
   50.8294    9.4056   16.0428 C   0  0  0  0  0  0  0  0  0  0  0  0
   50.6203   10.5432   16.6493 N   0  0  0  0  0  0  0  0  0  0  0  0
   52.1276    8.6552   16.1003 C   0  0  0  0  0  0  0  0  0  0  0  0
   52.0973    8.8535   18.8920 S   0  0  0  0  0  0  0  0  0  0  0  0
   49.8008    8.8585   15.2578 N   0  0  0  0  0  0  0  0  0  0  0  0
   52.7272    8.3003   17.3154 C   0  0  0  0  0  0  0  0  0  0  0  0
   51.5595   11.1982   17.4632 C   0  0  0  0  0  0  0  0  0  0  0  0
   52.2244   10.6074   18.5549 C   0  0  0  0  0  0  0  0  0  0  0  0
   47.3824    7.6982   14.0250 N   0  0  0  0  0  0  0  0  0  0  0  0
   49.4474    7.4345   15.4422 C   0  0  0  0  0  0  0  0  0  0  0  0
   48.5908    9.6769   15.0275 C   0  0  0  0  0  0  0  0  0  0  0  0
   48.6187    6.9158   14.2513 C   0  0  0  0  0  0  0  0  0  0  0  0
   47.7499    9.1218   13.8574 C   0  0  0  0  0  0  0  0  0  0  0  0
   52.6981    8.2473   14.8845 C   0  0  0  0  0  0  0  0  0  0  0  0
   53.8851    7.5111   17.2999 C   0  0  0  0  0  0  0  0  0  0  0  0
   46.6617    7.1678   12.8554 C   0  0  0  0  0  0  0  0  0  0  0  0
   44.2549    4.8384    9.9639 O   0  0  0  0  0  0  0  0  0  0  0  0
   51.7514   12.5647   17.2257 C   0  0  0  0  0  0  0  0  0  0  0  0
   53.0619   11.3814   19.3739 C   0  0  0  0  0  0  0  0  0  0  0  0
   44.5866    7.1304   11.5592 O   0  0  0  0  0  0  0  0  0  0  0  0
   43.2063    5.3257   10.8009 C   0  0  0  0  0  0  0  0  0  0  0  0
   45.2733    7.7928   12.6269 C   0  0  0  0  0  0  0  0  0  0  0  0
   43.8085    6.0173   12.0189 C   0  0  0  0  0  0  0  0  0  0  0  0
   53.8569    7.4716   14.8826 C   0  0  0  0  0  0  0  0  0  0  0  0
   54.4447    7.0975   16.0890 C   0  0  0  0  0  0  0  0  0  0  0  0
   53.2490   12.7383   19.1126 C   0  0  0  0  0  0  0  0  0  0  0  0
   52.5977   13.3301   18.0332 C   0  0  0  0  0  0  0  0  0  0  0  0
   50.7055    9.5377   15.7786 C   0  0  0  0  0  0  0  0  0  0  0  0
   47.9790    7.6356   13.8776 C   0  0  0  0  0  0  0  0  0  0  0  0
   49.5244    9.2139   14.9748 C   0  0  0  0  0  0  0  0  0  0  0  0
   49.1616    7.9589   14.6804 C   0  0  0  0  0  0  0  0  0  0  0  0
   51.0678   10.6693   16.0407 O   0  0  0  0  0  0  0  0  0  0  0  0
   47.6385    6.5043   13.5854 O   0  0  0  0  0  0  0  0  0  0  0  0
   51.3743    8.4643   16.2226 O   0  0  0  0  0  0  0  0  0  0  0  0
   47.2796    8.7074   13.4805 O   0  0  0  0  0  0  0  0  0  0  0  0
   49.3564   10.0394   13.8982 H   0  0  0  0  0  0  0  0  0  0  0  0
   48.4126   10.2431   15.3835 H   0  0  0  0  0  0  0  0  0  0  0  0
   50.7830    6.7464   15.1350 H   0  0  0  0  0  0  0  0  0  0  0  0
   49.0928    6.6747   15.5645 H   0  0  0  0  0  0  0  0  0  0  0  0
   47.1272    8.2269   14.9397 H   0  0  0  0  0  0  0  0  0  0  0  0
   46.9874    9.3656   13.5939 H   0  0  0  0  0  0  0  0  0  0  0  0
   50.1679    7.7410   12.8924 H   0  0  0  0  0  0  0  0  0  0  0  0
   49.5959    6.1054   13.1201 H   0  0  0  0  0  0  0  0  0  0  0  0
   49.4267    9.5644   18.0060 H   0  0  0  0  0  0  0  0  0  0  0  0
   51.8559   13.7424   16.8813 H   0  0  0  0  0  0  0  0  0  0  0  0
   46.9772    6.0857   14.0875 H   0  0  0  0  0  0  0  0  0  0  0  0
   47.5119    5.7131   12.4663 H   0  0  0  0  0  0  0  0  0  0  0  0
   44.2098    3.7230   11.9823 H   0  0  0  0  0  0  0  0  0  0  0  0
   53.9509    7.2023   16.7044 H   0  0  0  0  0  0  0  0  0  0  0  0
   55.5280   11.8207   15.8599 H   0  0  0  0  0  0  0  0  0  0  0  0
   41.7335    5.0497   11.6773 H   0  0  0  0  0  0  0  0  0  0  0  0
   42.5342    4.7605   13.2421 H   0  0  0  0  0  0  0  0  0  0  0  0
   45.3245    7.7625   13.0408 H   0  0  0  0  0  0  0  0  0  0  0  0
   45.8992    7.2175   11.4404 H   0  0  0  0  0  0  0  0  0  0  0  0
   43.8241    6.1773   10.8446 H   0  0  0  0  0  0  0  0  0  0  0  0
   43.1930    7.0016   12.3072 H   0  0  0  0  0  0  0  0  0  0  0  0
   49.0393   11.6210   19.3312 H   0  0  0  0  0  0  0  0  0  0  0  0
   50.2397   13.7164   18.7496 H   0  0  0  0  0  0  0  0  0  0  0  0
   57.0597   10.1598   16.8665 H   0  0  0  0  0  0  0  0  0  0  0  0
   56.2649    7.8489   17.3012 H   0  0  0  0  0  0  0  0  0  0  0  0
   48.8768    7.3192   16.3717 H   0  0  0  0  0  0  0  0  0  0  0  0
   50.3395    6.8069   15.5294 H   0  0  0  0  0  0  0  0  0  0  0  0
   47.9898    9.7015   15.9437 H   0  0  0  0  0  0  0  0  0  0  0  0
   48.8665   10.7079   14.7749 H   0  0  0  0  0  0  0  0  0  0  0  0
   48.3591    5.8683   14.4512 H   0  0  0  0  0  0  0  0  0  0  0  0
   49.2398    6.9285   13.3455 H   0  0  0  0  0  0  0  0  0  0  0  0
   46.8441    9.7322   13.7862 H   0  0  0  0  0  0  0  0  0  0  0  0
   48.3146    9.2608   12.9274 H   0  0  0  0  0  0  0  0  0  0  0  0
   52.2350    8.5239   13.9405 H   0  0  0  0  0  0  0  0  0  0  0  0
   54.3674    7.2236   18.2316 H   0  0  0  0  0  0  0  0  0  0  0  0
   46.5244    6.0872   12.9852 H   0  0  0  0  0  0  0  0  0  0  0  0
   47.2590    7.2861   11.9403 H   0  0  0  0  0  0  0  0  0  0  0  0
   44.8404    5.6057    9.8180 H   0  0  0  0  0  0  0  0  0  0  0  0
   51.2233   13.0387   16.4023 H   0  0  0  0  0  0  0  0  0  0  0  0
   53.5805   10.9282   20.2149 H   0  0  0  0  0  0  0  0  0  0  0  0
   42.6043    6.0204   10.2068 H   0  0  0  0  0  0  0  0  0  0  0  0
   42.5825    4.4798   11.0992 H   0  0  0  0  0  0  0  0  0  0  0  0
   44.6713    7.7763   13.5431 H   0  0  0  0  0  0  0  0  0  0  0  0
   45.3834    8.8388   12.3222 H   0  0  0  0  0  0  0  0  0  0  0  0
   43.0144    6.3731   12.6837 H   0  0  0  0  0  0  0  0  0  0  0  0
   44.4547    5.3185   12.5572 H   0  0  0  0  0  0  0  0  0  0  0  0
   54.2981    7.1547   13.9419 H   0  0  0  0  0  0  0  0  0  0  0  0
   55.3501    6.4918   16.0932 H   0  0  0  0  0  0  0  0  0  0  0  0
   53.9009   13.3300   19.7502 H   0  0  0  0  0  0  0  0  0  0  0  0
   52.7334   14.3886   17.8241 H   0  0  0  0  0  0  0  0  0  0  0  0
   48.9662   10.0760   14.6309 H   0  0  0  0  0  0  0  0  0  0  0  0
   49.7225    7.0977   15.0249 H   0  0  0  0  0  0  0  0  0  0  0  0
   52.1245    8.8459   16.7267 H   0  0  0  0  0  0  0  0  0  0  0  0
   46.5325    8.3265   12.9718 H   0  0  0  0  0  0  0  0  0  0  0  0
  2  1  2  0
  3  1  1  0
  4  6  1  0
  5  1  1  0
  6  3  2  0
  7  2  1  0
  8  7  2  0
  9 13  1  0
 10  5  1  0
 11  5  1  0
 12 10  1  0
 13 11  1  0
 14  3  1  0
 15  6  1  0
 16  9  1  0
 17 21  1  0
 18  7  1  0
 19  8  1  0
 20 22  1  0
 21 23  1  0
 22 16  1  0
 23 20  1  0
 24 14  2  0
 25 15  2  0
 26 19  2  0
 27 18  2  0
  9 12  1  0
  8  4  1  0
 24 25  1  0
 27 26  1  0
 29 28  2  0
 30 28  1  0
 31 33  1  0
 32 28  1  0
 33 30  2  0
 34 29  1  0
 35 34  2  0
 36 40  1  0
 37 32  1  0
 38 32  1  0
 39 37  1  0
 40 38  1  0
 41 30  1  0
 42 33  1  0
 43 36  1  0
 44 48  1  0
 45 34  1  0
 46 35  1  0
 47 49  1  0
 48 50  1  0
 49 43  1  0
 50 47  1  0
 51 41  2  0
 52 42  2  0
 53 46  2  0
 54 45  2  0
 36 39  1  0
 35 31  1  0
 51 52  1  0
 54 53  1  0
 56 58  1  0
 57 55  1  0
 58 57  2  0
 59 55  2  0
 60 56  2  0
 61 55  1  0
 62 56  1  0
 10 63  1  0
 10 64  1  0
 11 65  1  0
 11 66  1  0
 12 67  1  0
 12 68  1  0
 13 69  1  0
 13 70  1  0
 14 71  1  0
 15 72  1  0
 16 73  1  0
 16 74  1  0
 17 75  1  0
 18 76  1  0
 19 77  1  0
 21 78  1  0
 21 79  1  0
 22 80  1  0
 22 81  1  0
 23 82  1  0
 23 83  1  0
 24 84  1  0
 25 85  1  0
 26 86  1  0
 27 87  1  0
 37 88  1  0
 37 89  1  0
 38 90  1  0
 38 91  1  0
 39 92  1  0
 39 93  1  0
 40 94  1  0
 40 95  1  0
 41 96  1  0
 42 97  1  0
 43 98  1  0
 43 99  1  0
 44100  1  0
 45101  1  0
 46102  1  0
 48103  1  0
 48104  1  0
 49105  1  0
 49106  1  0
 50107  1  0
 50108  1  0
 51109  1  0
 52110  1  0
 53111  1  0
 54112  1  0
 57113  1  0
 58114  1  0
 61115  1  0
 62116  1  0
M  END
> <Uni-Dock RESULT> 
ENERGY=   -5.263  LOWER_BOUND=    2.299  UPPER_BOUND=    3.757
INTER + INTRA:          -5.263
INTER:                  -5.263
INTRA:                   0.000
UNBOUND:                 0.000

$$$$

     RDKit          3D

116121  0  0  0  0  0  0  0  0999 V2000
   49.0957    9.2943   19.1063 C   0  0  0  0  0  0  0  0  0  0  0  0
   48.2802    9.1374   20.1144 N   0  0  0  0  0  0  0  0  0  0  0  0
   50.0256    8.2266   18.6021 C   0  0  0  0  0  0  0  0  0  0  0  0
   47.8932    6.4195   18.5178 S   0  0  0  0  0  0  0  0  0  0  0  0
   49.1415   10.5343   18.4497 N   0  0  0  0  0  0  0  0  0  0  0  0
   49.5766    6.9474   18.2517 C   0  0  0  0  0  0  0  0  0  0  0  0
   48.1287    7.9492   20.8506 C   0  0  0  0  0  0  0  0  0  0  0  0
   47.8669    6.6861   20.2875 C   0  0  0  0  0  0  0  0  0  0  0  0
   47.7171   12.7262   16.9231 N   0  0  0  0  0  0  0  0  0  0  0  0
   49.0149   10.5381   16.9719 C   0  0  0  0  0  0  0  0  0  0  0  0
   48.5531   11.7255   19.1021 C   0  0  0  0  0  0  0  0  0  0  0  0
   48.8846   11.9684   16.4103 C   0  0  0  0  0  0  0  0  0  0  0  0
   47.3643   12.2761   18.2929 C   0  0  0  0  0  0  0  0  0  0  0  0
   51.3745    8.5723   18.4258 C   0  0  0  0  0  0  0  0  0  0  0  0
   50.4866    6.0299   17.7091 C   0  0  0  0  0  0  0  0  0  0  0  0
   47.9665   14.1783   16.8892 C   0  0  0  0  0  0  0  0  0  0  0  0
   48.0204   18.8998   15.3320 O   0  0  0  0  0  0  0  0  0  0  0  0
   48.1400    8.0694   22.2482 C   0  0  0  0  0  0  0  0  0  0  0  0
   47.6296    5.5818   21.1189 C   0  0  0  0  0  0  0  0  0  0  0  0
   48.3931   16.1457   15.5558 O   0  0  0  0  0  0  0  0  0  0  0  0
   48.8665   18.2011   14.4241 C   0  0  0  0  0  0  0  0  0  0  0  0
   48.0638   14.7553   15.4688 C   0  0  0  0  0  0  0  0  0  0  0  0
   48.3756   16.7668   14.2622 C   0  0  0  0  0  0  0  0  0  0  0  0
   52.2730    7.6493   17.8931 C   0  0  0  0  0  0  0  0  0  0  0  0
   51.8274    6.3809   17.5289 C   0  0  0  0  0  0  0  0  0  0  0  0
   47.6500    5.7209   22.5057 C   0  0  0  0  0  0  0  0  0  0  0  0
   47.9124    6.9651   23.0707 C   0  0  0  0  0  0  0  0  0  0  0  0
   49.3394    9.2217   18.9557 C   0  0  0  0  0  0  0  0  0  0  0  0
   50.1073    8.3318   18.3863 N   0  0  0  0  0  0  0  0  0  0  0  0
   48.7389    9.0551   20.3208 C   0  0  0  0  0  0  0  0  0  0  0  0
   51.2696    8.4251   21.3370 S   0  0  0  0  0  0  0  0  0  0  0  0
   49.0188   10.3913   18.2469 N   0  0  0  0  0  0  0  0  0  0  0  0
   49.5224    8.7762   21.4479 C   0  0  0  0  0  0  0  0  0  0  0  0
   50.5054    7.1231   18.9814 C   0  0  0  0  0  0  0  0  0  0  0  0
   51.1223    7.0156   20.2427 C   0  0  0  0  0  0  0  0  0  0  0  0
   48.8272   12.9337   16.7588 N   0  0  0  0  0  0  0  0  0  0  0  0
   49.1671   11.6965   18.9259 C   0  0  0  0  0  0  0  0  0  0  0  0
   49.4347   10.4830   16.8307 C   0  0  0  0  0  0  0  0  0  0  0  0
   48.4006   12.7989   18.1700 C   0  0  0  0  0  0  0  0  0  0  0  0
   48.6877   11.6176   16.0967 C   0  0  0  0  0  0  0  0  0  0  0  0
   47.3571    9.2618   20.4538 C   0  0  0  0  0  0  0  0  0  0  0  0
   48.9129    8.7348   22.7091 C   0  0  0  0  0  0  0  0  0  0  0  0
   48.0315   13.9789   16.0932 C   0  0  0  0  0  0  0  0  0  0  0  0
   46.2141   17.7354   14.6218 O   0  0  0  0  0  0  0  0  0  0  0  0
   50.3727    5.9666   18.2032 C   0  0  0  0  0  0  0  0  0  0  0  0
   51.5831    5.7703   20.6990 C   0  0  0  0  0  0  0  0  0  0  0  0
   47.7683   15.4402   14.1482 O   0  0  0  0  0  0  0  0  0  0  0  0
   47.4741   17.8095   13.9553 C   0  0  0  0  0  0  0  0  0  0  0  0
   48.5034   14.3276   14.6697 C   0  0  0  0  0  0  0  0  0  0  0  0
   48.3837   16.6963   14.4634 C   0  0  0  0  0  0  0  0  0  0  0  0
   46.7609    9.2067   21.7131 C   0  0  0  0  0  0  0  0  0  0  0  0
   47.5394    8.9514   22.8399 C   0  0  0  0  0  0  0  0  0  0  0  0
   51.4301    4.6285   19.9134 C   0  0  0  0  0  0  0  0  0  0  0  0
   50.8185    4.7251   18.6659 C   0  0  0  0  0  0  0  0  0  0  0  0
   49.1728    9.2348   18.6825 C   0  0  0  0  0  0  0  0  0  0  0  0
   48.4296   12.6632   17.1465 C   0  0  0  0  0  0  0  0  0  0  0  0
   48.9280   10.3188   17.7280 C   0  0  0  0  0  0  0  0  0  0  0  0
   48.6728   11.5790   18.1019 C   0  0  0  0  0  0  0  0  0  0  0  0
   49.3847    8.0786   18.3682 O   0  0  0  0  0  0  0  0  0  0  0  0
   48.1814   13.8117   17.4632 O   0  0  0  0  0  0  0  0  0  0  0  0
   49.1519    9.6226   19.9654 O   0  0  0  0  0  0  0  0  0  0  0  0
   48.5055   12.2863   15.8628 O   0  0  0  0  0  0  0  0  0  0  0  0
   48.1373    9.9485   16.6760 H   0  0  0  0  0  0  0  0  0  0  0  0
   49.8974   10.0736   16.5186 H   0  0  0  0  0  0  0  0  0  0  0  0
   48.2320   11.5228   20.1288 H   0  0  0  0  0  0  0  0  0  0  0  0
   49.3396   12.4852   19.1836 H   0  0  0  0  0  0  0  0  0  0  0  0
   49.8179   12.5008   16.6470 H   0  0  0  0  0  0  0  0  0  0  0  0
   48.8118   11.9124   15.3170 H   0  0  0  0  0  0  0  0  0  0  0  0
   46.6135   11.4822   18.1857 H   0  0  0  0  0  0  0  0  0  0  0  0
   46.8701   13.0749   18.8577 H   0  0  0  0  0  0  0  0  0  0  0  0
   51.7200    9.5647   18.7063 H   0  0  0  0  0  0  0  0  0  0  0  0
   50.1600    5.0297   17.4328 H   0  0  0  0  0  0  0  0  0  0  0  0
   48.8668   14.4403   17.4636 H   0  0  0  0  0  0  0  0  0  0  0  0
   47.1424   14.7109   17.3831 H   0  0  0  0  0  0  0  0  0  0  0  0
   47.9039   18.2945   16.0887 H   0  0  0  0  0  0  0  0  0  0  0  0
   48.3156    9.0466   22.6917 H   0  0  0  0  0  0  0  0  0  0  0  0
   47.4275    4.6067   20.6848 H   0  0  0  0  0  0  0  0  0  0  0  0
   48.8625   18.7297   13.4663 H   0  0  0  0  0  0  0  0  0  0  0  0
   49.8790   18.2206   14.8377 H   0  0  0  0  0  0  0  0  0  0  0  0
   48.8474   14.2494   14.8943 H   0  0  0  0  0  0  0  0  0  0  0  0
   47.1038   14.6301   14.9525 H   0  0  0  0  0  0  0  0  0  0  0  0
   47.3469   16.7660   13.8933 H   0  0  0  0  0  0  0  0  0  0  0  0
   49.0251   16.2200   13.5731 H   0  0  0  0  0  0  0  0  0  0  0  0
   53.3165    7.9214   17.7649 H   0  0  0  0  0  0  0  0  0  0  0  0
   52.5262    5.6604   17.1066 H   0  0  0  0  0  0  0  0  0  0  0  0
   47.4654    4.8622   23.1447 H   0  0  0  0  0  0  0  0  0  0  0  0
   47.9231    7.0850   24.1500 H   0  0  0  0  0  0  0  0  0  0  0  0
   50.2310   11.9563   18.9854 H   0  0  0  0  0  0  0  0  0  0  0  0
   48.7838   11.6628   19.9502 H   0  0  0  0  0  0  0  0  0  0  0  0
   50.5166   10.6513   16.7807 H   0  0  0  0  0  0  0  0  0  0  0  0
   49.2123    9.5473   16.3035 H   0  0  0  0  0  0  0  0  0  0  0  0
   48.5669   13.7475   18.6963 H   0  0  0  0  0  0  0  0  0  0  0  0
   47.3238   12.5873   18.2160 H   0  0  0  0  0  0  0  0  0  0  0  0
   49.0893   11.6703   15.0798 H   0  0  0  0  0  0  0  0  0  0  0  0
   47.6288   11.3427   16.0188 H   0  0  0  0  0  0  0  0  0  0  0  0
   46.7473    9.4762   19.5794 H   0  0  0  0  0  0  0  0  0  0  0  0
   49.5020    8.5201   23.5980 H   0  0  0  0  0  0  0  0  0  0  0  0
   48.0784   14.8953   16.6945 H   0  0  0  0  0  0  0  0  0  0  0  0
   46.9693   13.6989   16.0562 H   0  0  0  0  0  0  0  0  0  0  0  0
   45.9213   16.8111   14.5091 H   0  0  0  0  0  0  0  0  0  0  0  0
   49.9224    6.0405   17.2166 H   0  0  0  0  0  0  0  0  0  0  0  0
   52.0557    5.6823   21.6739 H   0  0  0  0  0  0  0  0  0  0  0  0
   47.2869   17.7105   12.8815 H   0  0  0  0  0  0  0  0  0  0  0  0
   47.9102   18.7919   14.1513 H   0  0  0  0  0  0  0  0  0  0  0  0
   49.5808   14.5292   14.6434 H   0  0  0  0  0  0  0  0  0  0  0  0
   48.3080   13.4852   13.9978 H   0  0  0  0  0  0  0  0  0  0  0  0
   49.3639   16.7574   13.9793 H   0  0  0  0  0  0  0  0  0  0  0  0
   48.5013   16.7827   15.5471 H   0  0  0  0  0  0  0  0  0  0  0  0
   45.6916    9.3678   21.8166 H   0  0  0  0  0  0  0  0  0  0  0  0
   47.0787    8.9071   23.8261 H   0  0  0  0  0  0  0  0  0  0  0  0
   51.7876    3.6677   20.2750 H   0  0  0  0  0  0  0  0  0  0  0  0
   50.6989    3.8412   18.0439 H   0  0  0  0  0  0  0  0  0  0  0  0
   48.9653   10.0173   16.6883 H   0  0  0  0  0  0  0  0  0  0  0  0
   48.6350   11.8781   19.1431 H   0  0  0  0  0  0  0  0  0  0  0  0
   49.3225    8.7953   20.4644 H   0  0  0  0  0  0  0  0  0  0  0  0
   48.3294   13.1119   15.3635 H   0  0  0  0  0  0  0  0  0  0  0  0
  2  1  2  0
  3  1  1  0
  4  6  1  0
  5  1  1  0
  6  3  2  0
  7  2  1  0
  8  7  2  0
  9 13  1  0
 10  5  1  0
 11  5  1  0
 12 10  1  0
 13 11  1  0
 14  3  1  0
 15  6  1  0
 16  9  1  0
 17 21  1  0
 18  7  1  0
 19  8  1  0
 20 22  1  0
 21 23  1  0
 22 16  1  0
 23 20  1  0
 24 14  2  0
 25 15  2  0
 26 19  2  0
 27 18  2  0
  9 12  1  0
  8  4  1  0
 24 25  1  0
 27 26  1  0
 29 28  2  0
 30 28  1  0
 31 33  1  0
 32 28  1  0
 33 30  2  0
 34 29  1  0
 35 34  2  0
 36 40  1  0
 37 32  1  0
 38 32  1  0
 39 37  1  0
 40 38  1  0
 41 30  1  0
 42 33  1  0
 43 36  1  0
 44 48  1  0
 45 34  1  0
 46 35  1  0
 47 49  1  0
 48 50  1  0
 49 43  1  0
 50 47  1  0
 51 41  2  0
 52 42  2  0
 53 46  2  0
 54 45  2  0
 36 39  1  0
 35 31  1  0
 51 52  1  0
 54 53  1  0
 56 58  1  0
 57 55  1  0
 58 57  2  0
 59 55  2  0
 60 56  2  0
 61 55  1  0
 62 56  1  0
 10 63  1  0
 10 64  1  0
 11 65  1  0
 11 66  1  0
 12 67  1  0
 12 68  1  0
 13 69  1  0
 13 70  1  0
 14 71  1  0
 15 72  1  0
 16 73  1  0
 16 74  1  0
 17 75  1  0
 18 76  1  0
 19 77  1  0
 21 78  1  0
 21 79  1  0
 22 80  1  0
 22 81  1  0
 23 82  1  0
 23 83  1  0
 24 84  1  0
 25 85  1  0
 26 86  1  0
 27 87  1  0
 37 88  1  0
 37 89  1  0
 38 90  1  0
 38 91  1  0
 39 92  1  0
 39 93  1  0
 40 94  1  0
 40 95  1  0
 41 96  1  0
 42 97  1  0
 43 98  1  0
 43 99  1  0
 44100  1  0
 45101  1  0
 46102  1  0
 48103  1  0
 48104  1  0
 49105  1  0
 49106  1  0
 50107  1  0
 50108  1  0
 51109  1  0
 52110  1  0
 53111  1  0
 54112  1  0
 57113  1  0
 58114  1  0
 61115  1  0
 62116  1  0
M  END
> <Uni-Dock RESULT> 
ENERGY=   -5.183  LOWER_BOUND=    6.058  UPPER_BOUND=    9.063
INTER + INTRA:          -5.183
INTER:                  -5.183
INTRA:                   0.000
UNBOUND:                 0.000

$$$$

     RDKit          3D

116121  0  0  0  0  0  0  0  0999 V2000
   51.4939    9.9263   13.3950 C   0  0  0  0  0  0  0  0  0  0  0  0
   52.4905    9.5120   12.6594 N   0  0  0  0  0  0  0  0  0  0  0  0
   51.5425   11.1505   14.2655 C   0  0  0  0  0  0  0  0  0  0  0  0
   52.5111   12.6392   12.1055 S   0  0  0  0  0  0  0  0  0  0  0  0
   50.2997    9.1884   13.4078 N   0  0  0  0  0  0  0  0  0  0  0  0
   51.9137   12.4067   13.7705 C   0  0  0  0  0  0  0  0  0  0  0  0
   53.7334   10.1597   12.5482 C   0  0  0  0  0  0  0  0  0  0  0  0
   53.9021   11.5188   12.2233 C   0  0  0  0  0  0  0  0  0  0  0  0
   47.9648    7.9876   11.9011 N   0  0  0  0  0  0  0  0  0  0  0  0
   49.0330    9.9205   13.1648 C   0  0  0  0  0  0  0  0  0  0  0  0
   50.2958    7.8013   12.8913 C   0  0  0  0  0  0  0  0  0  0  0  0
   47.8352    8.9613   13.0126 C   0  0  0  0  0  0  0  0  0  0  0  0
   49.3929    7.6693   11.6508 C   0  0  0  0  0  0  0  0  0  0  0  0
   51.1346   11.0125   15.6014 C   0  0  0  0  0  0  0  0  0  0  0  0
   51.8546   13.5195   14.6206 C   0  0  0  0  0  0  0  0  0  0  0  0
   47.1875    6.7646   12.1694 C   0  0  0  0  0  0  0  0  0  0  0  0
   43.4598    3.4745   12.1727 O   0  0  0  0  0  0  0  0  0  0  0  0
   54.8755    9.3547   12.6718 C   0  0  0  0  0  0  0  0  0  0  0  0
   55.1898   12.0417   12.0355 C   0  0  0  0  0  0  0  0  0  0  0  0
   45.0202    5.7590   12.5195 O   0  0  0  0  0  0  0  0  0  0  0  0
   42.9795    4.5786   12.9336 C   0  0  0  0  0  0  0  0  0  0  0  0
   45.6672    6.9851   12.1630 C   0  0  0  0  0  0  0  0  0  0  0  0
   43.5939    5.8717   12.4094 C   0  0  0  0  0  0  0  0  0  0  0  0
   51.0875   12.1244   16.4407 C   0  0  0  0  0  0  0  0  0  0  0  0
   51.4411   13.3783   15.9482 C   0  0  0  0  0  0  0  0  0  0  0  0
   56.3126   11.2262   12.1676 C   0  0  0  0  0  0  0  0  0  0  0  0
   56.1551    9.8826   12.4930 C   0  0  0  0  0  0  0  0  0  0  0  0
   51.3862   10.0776   13.6249 C   0  0  0  0  0  0  0  0  0  0  0  0
   51.2986   11.1725   14.3315 N   0  0  0  0  0  0  0  0  0  0  0  0
   52.6821    9.5038   13.1317 C   0  0  0  0  0  0  0  0  0  0  0  0
   53.7221    9.6717   15.7248 S   0  0  0  0  0  0  0  0  0  0  0  0
   50.2047    9.4071   13.2672 N   0  0  0  0  0  0  0  0  0  0  0  0
   53.7460    9.2201   13.9974 C   0  0  0  0  0  0  0  0  0  0  0  0
   52.3972   11.9380   14.7567 C   0  0  0  0  0  0  0  0  0  0  0  0
   53.5002   11.4300   15.4696 C   0  0  0  0  0  0  0  0  0  0  0  0
   47.6514    7.9500   12.9979 N   0  0  0  0  0  0  0  0  0  0  0  0
   50.1215    7.9474   13.4889 C   0  0  0  0  0  0  0  0  0  0  0  0
   48.9138   10.0614   13.5713 C   0  0  0  0  0  0  0  0  0  0  0  0
   48.9605    7.3348   12.6821 C   0  0  0  0  0  0  0  0  0  0  0  0
   47.7541    9.4110   12.7862 C   0  0  0  0  0  0  0  0  0  0  0  0
   52.7758    9.1851   11.7680 C   0  0  0  0  0  0  0  0  0  0  0  0
   54.8898    8.5900   13.4889 C   0  0  0  0  0  0  0  0  0  0  0  0
   46.5987    7.3399   12.1682 C   0  0  0  0  0  0  0  0  0  0  0  0
   43.5452    4.7401   10.2982 O   0  0  0  0  0  0  0  0  0  0  0  0
   52.3189   13.3199   14.5451 C   0  0  0  0  0  0  0  0  0  0  0  0
   54.4939   12.3001   15.9459 C   0  0  0  0  0  0  0  0  0  0  0  0
   44.2021    7.0416   11.7746 O   0  0  0  0  0  0  0  0  0  0  0  0
   42.8577    5.0779   11.5027 C   0  0  0  0  0  0  0  0  0  0  0  0
   45.1684    7.7791   12.5314 C   0  0  0  0  0  0  0  0  0  0  0  0
   43.8022    5.8319   12.4323 C   0  0  0  0  0  0  0  0  0  0  0  0
   53.9240    8.5685   11.2725 C   0  0  0  0  0  0  0  0  0  0  0  0
   54.9761    8.2642   12.1335 C   0  0  0  0  0  0  0  0  0  0  0  0
   54.4031   13.6721   15.7136 C   0  0  0  0  0  0  0  0  0  0  0  0
   53.3172   14.1827   15.0069 C   0  0  0  0  0  0  0  0  0  0  0  0
   51.1543   10.1946   13.4374 C   0  0  0  0  0  0  0  0  0  0  0  0
   48.1459    7.9676   12.6280 C   0  0  0  0  0  0  0  0  0  0  0  0
   49.8000    9.7255   13.1346 C   0  0  0  0  0  0  0  0  0  0  0  0
   49.5012    8.4365   12.9293 C   0  0  0  0  0  0  0  0  0  0  0  0
   51.4546   11.3616   13.6059 O   0  0  0  0  0  0  0  0  0  0  0  0
   47.8538    6.8041   12.4234 O   0  0  0  0  0  0  0  0  0  0  0  0
   52.0646    9.2145   13.5239 O   0  0  0  0  0  0  0  0  0  0  0  0
   47.2262    8.9417   12.5964 O   0  0  0  0  0  0  0  0  0  0  0  0
   49.1289   10.5313   12.2577 H   0  0  0  0  0  0  0  0  0  0  0  0
   48.8237   10.5961   14.0015 H   0  0  0  0  0  0  0  0  0  0  0  0
   51.3016    7.4435   12.6492 H   0  0  0  0  0  0  0  0  0  0  0  0
   49.9348    7.1465   13.6933 H   0  0  0  0  0  0  0  0  0  0  0  0
   47.7138    8.4325   13.9698 H   0  0  0  0  0  0  0  0  0  0  0  0
   46.9264    9.5549   12.8527 H   0  0  0  0  0  0  0  0  0  0  0  0
   49.7468    8.3684   10.8818 H   0  0  0  0  0  0  0  0  0  0  0  0
   49.5059    6.6699   11.2152 H   0  0  0  0  0  0  0  0  0  0  0  0
   50.8542   10.0334   15.9833 H   0  0  0  0  0  0  0  0  0  0  0  0
   52.1414   14.5041   14.2578 H   0  0  0  0  0  0  0  0  0  0  0  0
   47.4954    6.2978   13.1162 H   0  0  0  0  0  0  0  0  0  0  0  0
   47.3938    6.0130   11.3952 H   0  0  0  0  0  0  0  0  0  0  0  0
   44.4239    3.6107   12.1072 H   0  0  0  0  0  0  0  0  0  0  0  0
   54.7535    8.2978   12.8970 H   0  0  0  0  0  0  0  0  0  0  0  0
   55.3205   13.0906   11.7847 H   0  0  0  0  0  0  0  0  0  0  0  0
   41.8881    4.6031   12.8620 H   0  0  0  0  0  0  0  0  0  0  0  0
   43.2645    4.4078   13.9758 H   0  0  0  0  0  0  0  0  0  0  0  0
   45.3805    7.7520   12.8909 H   0  0  0  0  0  0  0  0  0  0  0  0
   45.3438    7.3014   11.1633 H   0  0  0  0  0  0  0  0  0  0  0  0
   43.3388    6.0029   11.3549 H   0  0  0  0  0  0  0  0  0  0  0  0
   43.2372    6.7242   12.9939 H   0  0  0  0  0  0  0  0  0  0  0  0
   50.7766   12.0095   17.4749 H   0  0  0  0  0  0  0  0  0  0  0  0
   51.3989   14.2494   16.6003 H   0  0  0  0  0  0  0  0  0  0  0  0
   57.3074   11.6366   12.0209 H   0  0  0  0  0  0  0  0  0  0  0  0
   57.0232    9.2376   12.5908 H   0  0  0  0  0  0  0  0  0  0  0  0
   49.9773    7.7499   14.5581 H   0  0  0  0  0  0  0  0  0  0  0  0
   51.0438    7.4417   13.1872 H   0  0  0  0  0  0  0  0  0  0  0  0
   48.7203    9.9988   14.6483 H   0  0  0  0  0  0  0  0  0  0  0  0
   48.9456   11.1219   13.2935 H   0  0  0  0  0  0  0  0  0  0  0  0
   48.9247    6.2607   12.9041 H   0  0  0  0  0  0  0  0  0  0  0  0
   49.1720    7.4371   11.6092 H   0  0  0  0  0  0  0  0  0  0  0  0
   46.8276    9.8977   13.1069 H   0  0  0  0  0  0  0  0  0  0  0  0
   47.8899    9.6312   11.7203 H   0  0  0  0  0  0  0  0  0  0  0  0
   51.9515    9.4069   11.0944 H   0  0  0  0  0  0  0  0  0  0  0  0
   55.7280    8.3601   14.1430 H   0  0  0  0  0  0  0  0  0  0  0  0
   46.6511    6.2495   12.2766 H   0  0  0  0  0  0  0  0  0  0  0  0
   46.7725    7.5437   11.1023 H   0  0  0  0  0  0  0  0  0  0  0  0
   43.9326    5.5790    9.9833 H   0  0  0  0  0  0  0  0  0  0  0  0
   51.4593   13.7277   14.0194 H   0  0  0  0  0  0  0  0  0  0  0  0
   55.3493   11.9116   16.4927 H   0  0  0  0  0  0  0  0  0  0  0  0
   41.9944    5.6928   11.2297 H   0  0  0  0  0  0  0  0  0  0  0  0
   42.5042    4.1548   11.9680 H   0  0  0  0  0  0  0  0  0  0  0  0
   44.9789    7.6755   13.6064 H   0  0  0  0  0  0  0  0  0  0  0  0
   45.0270    8.8331   12.2705 H   0  0  0  0  0  0  0  0  0  0  0  0
   43.2952    6.0744   13.3720 H   0  0  0  0  0  0  0  0  0  0  0  0
   44.6846    5.2193   12.6365 H   0  0  0  0  0  0  0  0  0  0  0  0
   53.9966    8.3206   10.2173 H   0  0  0  0  0  0  0  0  0  0  0  0
   55.8755    7.7827   11.7516 H   0  0  0  0  0  0  0  0  0  0  0  0
   55.1779   14.3387   16.0838 H   0  0  0  0  0  0  0  0  0  0  0  0
   53.2350   15.2517   14.8249 H   0  0  0  0  0  0  0  0  0  0  0  0
   49.0547   10.5099   13.0850 H   0  0  0  0  0  0  0  0  0  0  0  0
   50.2491    7.6534   12.9785 H   0  0  0  0  0  0  0  0  0  0  0  0
   52.9016    9.6870   13.7207 H   0  0  0  0  0  0  0  0  0  0  0  0
   46.3901    8.4705   12.3941 H   0  0  0  0  0  0  0  0  0  0  0  0
  2  1  2  0
  3  1  1  0
  4  6  1  0
  5  1  1  0
  6  3  2  0
  7  2  1  0
  8  7  2  0
  9 13  1  0
 10  5  1  0
 11  5  1  0
 12 10  1  0
 13 11  1  0
 14  3  1  0
 15  6  1  0
 16  9  1  0
 17 21  1  0
 18  7  1  0
 19  8  1  0
 20 22  1  0
 21 23  1  0
 22 16  1  0
 23 20  1  0
 24 14  2  0
 25 15  2  0
 26 19  2  0
 27 18  2  0
  9 12  1  0
  8  4  1  0
 24 25  1  0
 27 26  1  0
 29 28  2  0
 30 28  1  0
 31 33  1  0
 32 28  1  0
 33 30  2  0
 34 29  1  0
 35 34  2  0
 36 40  1  0
 37 32  1  0
 38 32  1  0
 39 37  1  0
 40 38  1  0
 41 30  1  0
 42 33  1  0
 43 36  1  0
 44 48  1  0
 45 34  1  0
 46 35  1  0
 47 49  1  0
 48 50  1  0
 49 43  1  0
 50 47  1  0
 51 41  2  0
 52 42  2  0
 53 46  2  0
 54 45  2  0
 36 39  1  0
 35 31  1  0
 51 52  1  0
 54 53  1  0
 56 58  1  0
 57 55  1  0
 58 57  2  0
 59 55  2  0
 60 56  2  0
 61 55  1  0
 62 56  1  0
 10 63  1  0
 10 64  1  0
 11 65  1  0
 11 66  1  0
 12 67  1  0
 12 68  1  0
 13 69  1  0
 13 70  1  0
 14 71  1  0
 15 72  1  0
 16 73  1  0
 16 74  1  0
 17 75  1  0
 18 76  1  0
 19 77  1  0
 21 78  1  0
 21 79  1  0
 22 80  1  0
 22 81  1  0
 23 82  1  0
 23 83  1  0
 24 84  1  0
 25 85  1  0
 26 86  1  0
 27 87  1  0
 37 88  1  0
 37 89  1  0
 38 90  1  0
 38 91  1  0
 39 92  1  0
 39 93  1  0
 40 94  1  0
 40 95  1  0
 41 96  1  0
 42 97  1  0
 43 98  1  0
 43 99  1  0
 44100  1  0
 45101  1  0
 46102  1  0
 48103  1  0
 48104  1  0
 49105  1  0
 49106  1  0
 50107  1  0
 50108  1  0
 51109  1  0
 52110  1  0
 53111  1  0
 54112  1  0
 57113  1  0
 58114  1  0
 61115  1  0
 62116  1  0
M  END
> <Uni-Dock RESULT> 
ENERGY=   -5.130  LOWER_BOUND=    1.618  UPPER_BOUND=    2.768
INTER + INTRA:          -5.130
INTER:                  -5.130
INTRA:                   0.000
UNBOUND:                 0.000

$$$$

     RDKit          3D

116121  0  0  0  0  0  0  0  0999 V2000
   48.9793   12.2913   14.9923 C   0  0  0  0  0  0  0  0  0  0  0  0
   48.8494   11.7081   13.8310 N   0  0  0  0  0  0  0  0  0  0  0  0
   49.1035   13.7774   15.1785 C   0  0  0  0  0  0  0  0  0  0  0  0
   46.8478   14.1600   13.5707 S   0  0  0  0  0  0  0  0  0  0  0  0
   49.0307   11.5022   16.1524 N   0  0  0  0  0  0  0  0  0  0  0  0
   48.1735   14.6788   14.6461 C   0  0  0  0  0  0  0  0  0  0  0  0
   48.7749   12.3780   12.5970 C   0  0  0  0  0  0  0  0  0  0  0  0
   47.8790   13.4239   12.3064 C   0  0  0  0  0  0  0  0  0  0  0  0
   47.7480    9.4356   17.9545 N   0  0  0  0  0  0  0  0  0  0  0  0
   48.1226   11.8574   17.2699 C   0  0  0  0  0  0  0  0  0  0  0  0
   49.2914   10.0500   16.0338 C   0  0  0  0  0  0  0  0  0  0  0  0
   48.1466   10.7967   18.3890 C   0  0  0  0  0  0  0  0  0  0  0  0
   48.0882    9.2242   16.5251 C   0  0  0  0  0  0  0  0  0  0  0  0
   50.1626   14.2450   15.9721 C   0  0  0  0  0  0  0  0  0  0  0  0
   48.3067   16.0445   14.9315 C   0  0  0  0  0  0  0  0  0  0  0  0
   48.3641    8.4019   18.8053 C   0  0  0  0  0  0  0  0  0  0  0  0
   48.9835    5.0649   22.4386 O   0  0  0  0  0  0  0  0  0  0  0  0
   49.5869   11.8861   11.5643 C   0  0  0  0  0  0  0  0  0  0  0  0
   47.8154   13.9545   11.0097 C   0  0  0  0  0  0  0  0  0  0  0  0
   48.5615    7.4162   21.0008 O   0  0  0  0  0  0  0  0  0  0  0  0
   48.9328    6.3259   23.0990 C   0  0  0  0  0  0  0  0  0  0  0  0
   47.8356    8.3935   20.2477 C   0  0  0  0  0  0  0  0  0  0  0  0
   48.0265    7.2767   22.3251 C   0  0  0  0  0  0  0  0  0  0  0  0
   50.2906   15.6063   16.2429 C   0  0  0  0  0  0  0  0  0  0  0  0
   49.3590   16.5047   15.7280 C   0  0  0  0  0  0  0  0  0  0  0  0
   48.6342   13.4551    9.9982 C   0  0  0  0  0  0  0  0  0  0  0  0
   49.5259   12.4243   10.2780 C   0  0  0  0  0  0  0  0  0  0  0  0
   49.0646   12.5188   15.1606 C   0  0  0  0  0  0  0  0  0  0  0  0
   49.0806   13.7966   15.4304 N   0  0  0  0  0  0  0  0  0  0  0  0
   49.2951   11.9521   13.7903 C   0  0  0  0  0  0  0  0  0  0  0  0
   51.6334   13.4751   13.5739 S   0  0  0  0  0  0  0  0  0  0  0  0
   48.7805   11.6124   16.1955 N   0  0  0  0  0  0  0  0  0  0  0  0
   50.4393   12.2583   13.0428 C   0  0  0  0  0  0  0  0  0  0  0  0
   49.3508   14.8071   14.4926 C   0  0  0  0  0  0  0  0  0  0  0  0
   50.4908   14.8505   13.6671 C   0  0  0  0  0  0  0  0  0  0  0  0
   48.5858    9.8880   18.5837 N   0  0  0  0  0  0  0  0  0  0  0  0
   49.6644   10.4408   16.3761 C   0  0  0  0  0  0  0  0  0  0  0  0
   48.3555   12.1591   17.5023 C   0  0  0  0  0  0  0  0  0  0  0  0
   48.9867    9.3721   17.2553 C   0  0  0  0  0  0  0  0  0  0  0  0
   47.7149   11.0682   18.3876 C   0  0  0  0  0  0  0  0  0  0  0  0
   48.3540   11.0341   13.2988 C   0  0  0  0  0  0  0  0  0  0  0  0
   50.6437   11.6157   11.8143 C   0  0  0  0  0  0  0  0  0  0  0  0
   47.9176    8.8246   19.3527 C   0  0  0  0  0  0  0  0  0  0  0  0
   46.8334    5.2764   21.7639 O   0  0  0  0  0  0  0  0  0  0  0  0
   48.4698   15.8952   14.4709 C   0  0  0  0  0  0  0  0  0  0  0  0
   50.7226   15.9626   12.8420 C   0  0  0  0  0  0  0  0  0  0  0  0
   47.0886    8.0668   21.5266 O   0  0  0  0  0  0  0  0  0  0  0  0
   47.4720    6.0579   22.7734 C   0  0  0  0  0  0  0  0  0  0  0  0
   47.6101    9.1948   20.8152 C   0  0  0  0  0  0  0  0  0  0  0  0
   48.1219    7.2801   22.1342 C   0  0  0  0  0  0  0  0  0  0  0  0
   48.5637   10.4099   12.0697 C   0  0  0  0  0  0  0  0  0  0  0  0
   49.7110   10.6946   11.3325 C   0  0  0  0  0  0  0  0  0  0  0  0
   49.8261   17.0306   12.8263 C   0  0  0  0  0  0  0  0  0  0  0  0
   48.6946   16.9947   13.6373 C   0  0  0  0  0  0  0  0  0  0  0  0
   48.7889   12.5005   15.3225 C   0  0  0  0  0  0  0  0  0  0  0  0
   48.4066    9.7900   18.0007 C   0  0  0  0  0  0  0  0  0  0  0  0
   48.4031   11.7730   16.5341 C   0  0  0  0  0  0  0  0  0  0  0  0
   48.7916   10.5169   16.7878 C   0  0  0  0  0  0  0  0  0  0  0  0
   48.4309   13.6333   15.0592 O   0  0  0  0  0  0  0  0  0  0  0  0
   48.7353    8.6441   18.2453 O   0  0  0  0  0  0  0  0  0  0  0  0
   49.5939   11.8090   14.5039 O   0  0  0  0  0  0  0  0  0  0  0  0
   47.6473   10.5015   18.8450 O   0  0  0  0  0  0  0  0  0  0  0  0
   47.0977   11.9654   16.8914 H   0  0  0  0  0  0  0  0  0  0  0  0
   48.4206   12.8178   17.7048 H   0  0  0  0  0  0  0  0  0  0  0  0
   49.5430    9.7536   15.0106 H   0  0  0  0  0  0  0  0  0  0  0  0
   50.1793    9.8193   16.6345 H   0  0  0  0  0  0  0  0  0  0  0  0
   49.1651   10.7807   18.8049 H   0  0  0  0  0  0  0  0  0  0  0  0
   47.4731   11.1178   19.1934 H   0  0  0  0  0  0  0  0  0  0  0  0
   47.2037    9.5084   15.9401 H   0  0  0  0  0  0  0  0  0  0  0  0
   48.2552    8.1625   16.3103 H   0  0  0  0  0  0  0  0  0  0  0  0
   50.8866   13.5418   16.3775 H   0  0  0  0  0  0  0  0  0  0  0  0
   47.5974   16.7625   14.5257 H   0  0  0  0  0  0  0  0  0  0  0  0
   49.4601    8.4903   18.8072 H   0  0  0  0  0  0  0  0  0  0  0  0
   48.1544    7.4052   18.3938 H   0  0  0  0  0  0  0  0  0  0  0  0
   49.1243    5.2765   21.4964 H   0  0  0  0  0  0  0  0  0  0  0  0
   50.2633   11.0607   11.7733 H   0  0  0  0  0  0  0  0  0  0  0  0
   47.1241   14.7618   10.7849 H   0  0  0  0  0  0  0  0  0  0  0  0
   48.5645    6.1716   24.1176 H   0  0  0  0  0  0  0  0  0  0  0  0
   49.9545    6.7139   23.1444 H   0  0  0  0  0  0  0  0  0  0  0  0
   47.9776    9.3710   20.7216 H   0  0  0  0  0  0  0  0  0  0  0  0
   46.7664    8.1472   20.2482 H   0  0  0  0  0  0  0  0  0  0  0  0
   47.0224    6.8523   22.2483 H   0  0  0  0  0  0  0  0  0  0  0  0
   47.9888    8.2507   22.8205 H   0  0  0  0  0  0  0  0  0  0  0  0
   51.1158   15.9619   16.8528 H   0  0  0  0  0  0  0  0  0  0  0  0
   49.4533   17.5679   15.9435 H   0  0  0  0  0  0  0  0  0  0  0  0
   48.5806   13.8699    8.9958 H   0  0  0  0  0  0  0  0  0  0  0  0
   50.1627   12.0236    9.4949 H   0  0  0  0  0  0  0  0  0  0  0  0
   50.6048   10.7630   16.8395 H   0  0  0  0  0  0  0  0  0  0  0  0
   49.9174    9.9765   15.4181 H   0  0  0  0  0  0  0  0  0  0  0  0
   49.2220   12.5958   18.0119 H   0  0  0  0  0  0  0  0  0  0  0  0
   47.6093   12.9507   17.3634 H   0  0  0  0  0  0  0  0  0  0  0  0
   49.6927    8.5414   17.3815 H   0  0  0  0  0  0  0  0  0  0  0  0
   48.1088    8.9741   16.7287 H   0  0  0  0  0  0  0  0  0  0  0  0
   47.4858   11.5245   19.3558 H   0  0  0  0  0  0  0  0  0  0  0  0
   46.7636   10.7661   17.9326 H   0  0  0  0  0  0  0  0  0  0  0  0
   47.4642   10.7971   13.8771 H   0  0  0  0  0  0  0  0  0  0  0  0
   51.5253   11.8381   11.2171 H   0  0  0  0  0  0  0  0  0  0  0  0
   48.5619    7.9367   19.3612 H   0  0  0  0  0  0  0  0  0  0  0  0
   46.9848    8.5131   18.8618 H   0  0  0  0  0  0  0  0  0  0  0  0
   46.2632    5.9038   21.2801 H   0  0  0  0  0  0  0  0  0  0  0  0
   47.6001   15.8860   15.1228 H   0  0  0  0  0  0  0  0  0  0  0  0
   51.5990   15.9981   12.1999 H   0  0  0  0  0  0  0  0  0  0  0  0
   46.7070    6.3490   23.5000 H   0  0  0  0  0  0  0  0  0  0  0  0
   48.2172    5.4337   23.2721 H   0  0  0  0  0  0  0  0  0  0  0  0
   48.4963    9.5954   21.3213 H   0  0  0  0  0  0  0  0  0  0  0  0
   46.8338    9.9665   20.8467 H   0  0  0  0  0  0  0  0  0  0  0  0
   48.6386    7.8753   22.8942 H   0  0  0  0  0  0  0  0  0  0  0  0
   48.8342    6.9604   21.3687 H   0  0  0  0  0  0  0  0  0  0  0  0
   47.8361    9.6984   11.6894 H   0  0  0  0  0  0  0  0  0  0  0  0
   49.8796   10.2099   10.3716 H   0  0  0  0  0  0  0  0  0  0  0  0
   50.0118   17.8869   12.1830 H   0  0  0  0  0  0  0  0  0  0  0  0
   47.9921   17.8248   13.6356 H   0  0  0  0  0  0  0  0  0  0  0  0
   47.7704   12.3336   17.2112 H   0  0  0  0  0  0  0  0  0  0  0  0
   49.4240    9.9574   16.1080 H   0  0  0  0  0  0  0  0  0  0  0  0
   49.7498   12.4217   13.7537 H   0  0  0  0  0  0  0  0  0  0  0  0
   47.4865    9.8873   19.5926 H   0  0  0  0  0  0  0  0  0  0  0  0
  2  1  2  0
  3  1  1  0
  4  6  1  0
  5  1  1  0
  6  3  2  0
  7  2  1  0
  8  7  2  0
  9 13  1  0
 10  5  1  0
 11  5  1  0
 12 10  1  0
 13 11  1  0
 14  3  1  0
 15  6  1  0
 16  9  1  0
 17 21  1  0
 18  7  1  0
 19  8  1  0
 20 22  1  0
 21 23  1  0
 22 16  1  0
 23 20  1  0
 24 14  2  0
 25 15  2  0
 26 19  2  0
 27 18  2  0
  9 12  1  0
  8  4  1  0
 24 25  1  0
 27 26  1  0
 29 28  2  0
 30 28  1  0
 31 33  1  0
 32 28  1  0
 33 30  2  0
 34 29  1  0
 35 34  2  0
 36 40  1  0
 37 32  1  0
 38 32  1  0
 39 37  1  0
 40 38  1  0
 41 30  1  0
 42 33  1  0
 43 36  1  0
 44 48  1  0
 45 34  1  0
 46 35  1  0
 47 49  1  0
 48 50  1  0
 49 43  1  0
 50 47  1  0
 51 41  2  0
 52 42  2  0
 53 46  2  0
 54 45  2  0
 36 39  1  0
 35 31  1  0
 51 52  1  0
 54 53  1  0
 56 58  1  0
 57 55  1  0
 58 57  2  0
 59 55  2  0
 60 56  2  0
 61 55  1  0
 62 56  1  0
 10 63  1  0
 10 64  1  0
 11 65  1  0
 11 66  1  0
 12 67  1  0
 12 68  1  0
 13 69  1  0
 13 70  1  0
 14 71  1  0
 15 72  1  0
 16 73  1  0
 16 74  1  0
 17 75  1  0
 18 76  1  0
 19 77  1  0
 21 78  1  0
 21 79  1  0
 22 80  1  0
 22 81  1  0
 23 82  1  0
 23 83  1  0
 24 84  1  0
 25 85  1  0
 26 86  1  0
 27 87  1  0
 37 88  1  0
 37 89  1  0
 38 90  1  0
 38 91  1  0
 39 92  1  0
 39 93  1  0
 40 94  1  0
 40 95  1  0
 41 96  1  0
 42 97  1  0
 43 98  1  0
 43 99  1  0
 44100  1  0
 45101  1  0
 46102  1  0
 48103  1  0
 48104  1  0
 49105  1  0
 49106  1  0
 50107  1  0
 50108  1  0
 51109  1  0
 52110  1  0
 53111  1  0
 54112  1  0
 57113  1  0
 58114  1  0
 61115  1  0
 62116  1  0
M  END
> <Uni-Dock RESULT> 
ENERGY=   -5.105  LOWER_BOUND=    5.069  UPPER_BOUND=    7.046
INTER + INTRA:          -5.105
INTER:                  -5.105
INTRA:                   0.000
UNBOUND:                 0.000

$$$$
