
     RDKit          3D

116121  0  0  0  0  0  0  0  0999 V2000
   52.4510    4.9640   19.9992 C   0  0  0  0  0  0  0  0  0  0  0  0
   52.1883    4.4136   18.8447 N   0  0  0  0  0  0  0  0  0  0  0  0
   53.2097    4.3279   21.1243 C   0  0  0  0  0  0  0  0  0  0  0  0
   55.1936    3.4934   19.3188 S   0  0  0  0  0  0  0  0  0  0  0  0
   51.9927    6.2644   20.2293 N   0  0  0  0  0  0  0  0  0  0  0  0
   54.4494    3.6971   20.9320 C   0  0  0  0  0  0  0  0  0  0  0  0
   52.5463    3.1011   18.4935 C   0  0  0  0  0  0  0  0  0  0  0  0
   53.8511    2.5773   18.5729 C   0  0  0  0  0  0  0  0  0  0  0  0
   50.5107    8.5749   18.9508 N   0  0  0  0  0  0  0  0  0  0  0  0
   50.5180    6.4297   20.2554 C   0  0  0  0  0  0  0  0  0  0  0  0
   52.6765    7.3248   19.4412 C   0  0  0  0  0  0  0  0  0  0  0  0
   50.1260    7.9177   20.2151 C   0  0  0  0  0  0  0  0  0  0  0  0
   51.7469    7.9761   18.3939 C   0  0  0  0  0  0  0  0  0  0  0  0
   52.6730    4.4264   22.4183 C   0  0  0  0  0  0  0  0  0  0  0  0
   55.1330    3.1753   22.0418 C   0  0  0  0  0  0  0  0  0  0  0  0
   50.5951   10.0429   19.0579 C   0  0  0  0  0  0  0  0  0  0  0  0
   45.3743   12.3142   20.2586 O   0  0  0  0  0  0  0  0  0  0  0  0
   51.5375    2.3032   17.9349 C   0  0  0  0  0  0  0  0  0  0  0  0
   54.1188    1.2816   18.1071 C   0  0  0  0  0  0  0  0  0  0  0  0
   48.2049   10.4655   18.7863 O   0  0  0  0  0  0  0  0  0  0  0  0
   46.6026   12.1601   19.5583 C   0  0  0  0  0  0  0  0  0  0  0  0
   49.3348   10.7366   19.6157 C   0  0  0  0  0  0  0  0  0  0  0  0
   46.9561   10.6819   19.4392 C   0  0  0  0  0  0  0  0  0  0  0  0
   53.3556    3.8940   23.5138 C   0  0  0  0  0  0  0  0  0  0  0  0
   54.5853    3.2631   23.3233 C   0  0  0  0  0  0  0  0  0  0  0  0
   53.0984    0.5009   17.5663 C   0  0  0  0  0  0  0  0  0  0  0  0
   51.8062    1.0110   17.4800 C   0  0  0  0  0  0  0  0  0  0  0  0
   49.6512    7.6409   19.5434 C   0  0  0  0  0  0  0  0  0  0  0  0
   49.8115    8.4474   18.5308 N   0  0  0  0  0  0  0  0  0  0  0  0
   48.9930    8.0369   20.8310 C   0  0  0  0  0  0  0  0  0  0  0  0
   50.6686   10.2708   20.9863 S   0  0  0  0  0  0  0  0  0  0  0  0
   50.0918    6.3114   19.4288 N   0  0  0  0  0  0  0  0  0  0  0  0
   49.4076    9.1514   21.5710 C   0  0  0  0  0  0  0  0  0  0  0  0
   49.4406    9.8021   18.5118 C   0  0  0  0  0  0  0  0  0  0  0  0
   49.8337   10.7492   19.4740 C   0  0  0  0  0  0  0  0  0  0  0  0
   52.9567    5.6261   18.9483 N   0  0  0  0  0  0  0  0  0  0  0  0
   50.5458    5.8319   18.1034 C   0  0  0  0  0  0  0  0  0  0  0  0
   50.9304    5.7431   20.5103 C   0  0  0  0  0  0  0  0  0  0  0  0
   52.0466    6.1462   17.8878 C   0  0  0  0  0  0  0  0  0  0  0  0
   52.4267    6.0626   20.2645 C   0  0  0  0  0  0  0  0  0  0  0  0
   47.9693    7.2114   21.3175 C   0  0  0  0  0  0  0  0  0  0  0  0
   48.8003    9.4159   22.8072 C   0  0  0  0  0  0  0  0  0  0  0  0
   53.1146    4.1652   18.8404 C   0  0  0  0  0  0  0  0  0  0  0  0
   56.5997   -0.4807   20.5830 O   0  0  0  0  0  0  0  0  0  0  0  0
   48.7441   10.2493   17.3820 C   0  0  0  0  0  0  0  0  0  0  0  0
   49.5313   12.1090   19.2928 C   0  0  0  0  0  0  0  0  0  0  0  0
   54.3615    2.1955   19.4579 O   0  0  0  0  0  0  0  0  0  0  0  0
   55.4984    0.1222   19.9165 C   0  0  0  0  0  0  0  0  0  0  0  0
   54.2862    3.6128   19.6668 C   0  0  0  0  0  0  0  0  0  0  0  0
   55.4883    1.6320   20.1278 C   0  0  0  0  0  0  0  0  0  0  0  0
   47.3596    7.4910   22.5420 C   0  0  0  0  0  0  0  0  0  0  0  0
   47.7802    8.5912   23.2881 C   0  0  0  0  0  0  0  0  0  0  0  0
   48.8362   12.5323   18.1598 C   0  0  0  0  0  0  0  0  0  0  0  0
   48.4375   11.6019   17.2068 C   0  0  0  0  0  0  0  0  0  0  0  0
   52.4155    5.0411   19.7288 C   0  0  0  0  0  0  0  0  0  0  0  0
   49.8785    7.8424   19.3658 C   0  0  0  0  0  0  0  0  0  0  0  0
   51.7346    6.3215   19.9370 C   0  0  0  0  0  0  0  0  0  0  0  0
   50.6291    6.5912   19.2293 C   0  0  0  0  0  0  0  0  0  0  0  0
   52.0948    4.1504   18.9666 O   0  0  0  0  0  0  0  0  0  0  0  0
   48.8721    8.1165   18.7383 O   0  0  0  0  0  0  0  0  0  0  0  0
   53.4940    4.9591   20.5217 O   0  0  0  0  0  0  0  0  0  0  0  0
   50.3956    8.6905   20.2669 O   0  0  0  0  0  0  0  0  0  0  0  0
   50.1301    5.9820   21.1783 H   0  0  0  0  0  0  0  0  0  0  0  0
   50.0478    5.9018   19.4143 H   0  0  0  0  0  0  0  0  0  0  0  0
   53.5663    6.9265   18.9378 H   0  0  0  0  0  0  0  0  0  0  0  0
   53.0326    8.0847   20.1451 H   0  0  0  0  0  0  0  0  0  0  0  0
   49.0419    7.9991   20.3468 H   0  0  0  0  0  0  0  0  0  0  0  0
   50.6016    8.4218   21.0667 H   0  0  0  0  0  0  0  0  0  0  0  0
   52.3142    8.7079   17.8051 H   0  0  0  0  0  0  0  0  0  0  0  0
   51.4390    7.2047   17.6763 H   0  0  0  0  0  0  0  0  0  0  0  0
   51.7162    4.9174   22.5812 H   0  0  0  0  0  0  0  0  0  0  0  0
   56.0931    2.6752   21.9122 H   0  0  0  0  0  0  0  0  0  0  0  0
   50.7688   10.4404   18.0484 H   0  0  0  0  0  0  0  0  0  0  0  0
   51.4562   10.3250   19.6765 H   0  0  0  0  0  0  0  0  0  0  0  0
   45.2011   13.2676   20.3225 H   0  0  0  0  0  0  0  0  0  0  0  0
   50.5343    2.7093   17.8457 H   0  0  0  0  0  0  0  0  0  0  0  0
   55.1222    0.8697   18.1740 H   0  0  0  0  0  0  0  0  0  0  0  0
   47.3812   12.7100   20.0971 H   0  0  0  0  0  0  0  0  0  0  0  0
   46.5068   12.6054   18.5619 H   0  0  0  0  0  0  0  0  0  0  0  0
   49.5097   11.8174   19.6259 H   0  0  0  0  0  0  0  0  0  0  0  0
   49.1525   10.4202   20.6489 H   0  0  0  0  0  0  0  0  0  0  0  0
   46.1858   10.1801   18.8428 H   0  0  0  0  0  0  0  0  0  0  0  0
   46.9401   10.1873   20.4194 H   0  0  0  0  0  0  0  0  0  0  0  0
   52.9222    3.9598   24.5083 H   0  0  0  0  0  0  0  0  0  0  0  0
   55.1179    2.8379   24.1705 H   0  0  0  0  0  0  0  0  0  0  0  0
   53.3063   -0.5013   17.2067 H   0  0  0  0  0  0  0  0  0  0  0  0
   51.0048    0.4169   17.0462 H   0  0  0  0  0  0  0  0  0  0  0  0
   50.3813    4.7492   18.0446 H   0  0  0  0  0  0  0  0  0  0  0  0
   49.9453    6.2682   17.2978 H   0  0  0  0  0  0  0  0  0  0  0  0
   50.6439    6.1231   21.4966 H   0  0  0  0  0  0  0  0  0  0  0  0
   50.7748    4.6587   20.5488 H   0  0  0  0  0  0  0  0  0  0  0  0
   52.3643    5.7721   16.9069 H   0  0  0  0  0  0  0  0  0  0  0  0
   52.1863    7.2342   17.8428 H   0  0  0  0  0  0  0  0  0  0  0  0
   53.0279    5.6519   21.0830 H   0  0  0  0  0  0  0  0  0  0  0  0
   52.5638    7.1495   20.3287 H   0  0  0  0  0  0  0  0  0  0  0  0
   47.6447    6.3517   20.7371 H   0  0  0  0  0  0  0  0  0  0  0  0
   49.1097   10.2755   23.3981 H   0  0  0  0  0  0  0  0  0  0  0  0
   53.3216    3.9007   17.7947 H   0  0  0  0  0  0  0  0  0  0  0  0
   52.1958    3.6217   19.0921 H   0  0  0  0  0  0  0  0  0  0  0  0
   56.4876   -0.3252   21.5363 H   0  0  0  0  0  0  0  0  0  0  0  0
   48.4502    9.5310   16.6217 H   0  0  0  0  0  0  0  0  0  0  0  0
   49.8379   12.8424   20.0355 H   0  0  0  0  0  0  0  0  0  0  0  0
   55.5714   -0.1122   18.8501 H   0  0  0  0  0  0  0  0  0  0  0  0
   54.5687   -0.3291   20.2781 H   0  0  0  0  0  0  0  0  0  0  0  0
   54.1362    3.7964   20.7360 H   0  0  0  0  0  0  0  0  0  0  0  0
   55.2225    4.0842   19.3479 H   0  0  0  0  0  0  0  0  0  0  0  0
   56.4171    2.0689   19.7369 H   0  0  0  0  0  0  0  0  0  0  0  0
   55.4415    1.8533   21.2032 H   0  0  0  0  0  0  0  0  0  0  0  0
   46.5571    6.8535   22.9072 H   0  0  0  0  0  0  0  0  0  0  0  0
   47.3064    8.8153   24.2417 H   0  0  0  0  0  0  0  0  0  0  0  0
   48.6115   13.5885   18.0245 H   0  0  0  0  0  0  0  0  0  0  0  0
   47.9004   11.9241   16.3166 H   0  0  0  0  0  0  0  0  0  0  0  0
   52.1546    7.0061   20.6654 H   0  0  0  0  0  0  0  0  0  0  0  0
   50.2190    5.8934   18.5054 H   0  0  0  0  0  0  0  0  0  0  0  0
   53.8766    4.0819   20.3122 H   0  0  0  0  0  0  0  0  0  0  0  0
   49.7932    9.4641   20.2342 H   0  0  0  0  0  0  0  0  0  0  0  0
  2  1  2  0
  3  1  1  0
  4  6  1  0
  5  1  1  0
  6  3  2  0
  7  2  1  0
  8  7  2  0
  9 13  1  0
 10  5  1  0
 11  5  1  0
 12 10  1  0
 13 11  1  0
 14  3  1  0
 15  6  1  0
 16  9  1  0
 17 21  1  0
 18  7  1  0
 19  8  1  0
 20 22  1  0
 21 23  1  0
 22 16  1  0
 23 20  1  0
 24 14  2  0
 25 15  2  0
 26 19  2  0
 27 18  2  0
  9 12  1  0
  8  4  1  0
 24 25  1  0
 27 26  1  0
 29 28  2  0
 30 28  1  0
 31 33  1  0
 32 28  1  0
 33 30  2  0
 34 29  1  0
 35 34  2  0
 36 40  1  0
 37 32  1  0
 38 32  1  0
 39 37  1  0
 40 38  1  0
 41 30  1  0
 42 33  1  0
 43 36  1  0
 44 48  1  0
 45 34  1  0
 46 35  1  0
 47 49  1  0
 48 50  1  0
 49 43  1  0
 50 47  1  0
 51 41  2  0
 52 42  2  0
 53 46  2  0
 54 45  2  0
 36 39  1  0
 35 31  1  0
 51 52  1  0
 54 53  1  0
 56 58  1  0
 57 55  1  0
 58 57  2  0
 59 55  2  0
 60 56  2  0
 61 55  1  0
 62 56  1  0
 10 63  1  0
 10 64  1  0
 11 65  1  0
 11 66  1  0
 12 67  1  0
 12 68  1  0
 13 69  1  0
 13 70  1  0
 14 71  1  0
 15 72  1  0
 16 73  1  0
 16 74  1  0
 17 75  1  0
 18 76  1  0
 19 77  1  0
 21 78  1  0
 21 79  1  0
 22 80  1  0
 22 81  1  0
 23 82  1  0
 23 83  1  0
 24 84  1  0
 25 85  1  0
 26 86  1  0
 27 87  1  0
 37 88  1  0
 37 89  1  0
 38 90  1  0
 38 91  1  0
 39 92  1  0
 39 93  1  0
 40 94  1  0
 40 95  1  0
 41 96  1  0
 42 97  1  0
 43 98  1  0
 43 99  1  0
 44100  1  0
 45101  1  0
 46102  1  0
 48103  1  0
 48104  1  0
 49105  1  0
 49106  1  0
 50107  1  0
 50108  1  0
 51109  1  0
 52110  1  0
 53111  1  0
 54112  1  0
 57113  1  0
 58114  1  0
 61115  1  0
 62116  1  0
M  END
> <Uni-Dock RESULT> 
ENERGY=   -5.233  LOWER_BOUND=    0.000  UPPER_BOUND=    0.000
INTER + INTRA:          -5.233
INTER:                  -5.233
INTRA:                   0.000
UNBOUND:                 0.000

$$$$

     RDKit          3D

116121  0  0  0  0  0  0  0  0999 V2000
   48.7408    9.3241   15.7713 C   0  0  0  0  0  0  0  0  0  0  0  0
   48.2857    9.6839   14.6015 N   0  0  0  0  0  0  0  0  0  0  0  0
   48.5081    8.0016   16.4367 C   0  0  0  0  0  0  0  0  0  0  0  0
   49.1638    6.6800   14.0461 S   0  0  0  0  0  0  0  0  0  0  0  0
   49.5182   10.2398   16.4864 N   0  0  0  0  0  0  0  0  0  0  0  0
   48.7128    6.7809   15.7735 C   0  0  0  0  0  0  0  0  0  0  0  0
   47.4569    8.8859   13.7949 C   0  0  0  0  0  0  0  0  0  0  0  0
   47.7522    7.5670   13.3994 C   0  0  0  0  0  0  0  0  0  0  0  0
   50.7326   13.0107   16.3584 N   0  0  0  0  0  0  0  0  0  0  0  0
   48.8212   11.4793   16.9111 C   0  0  0  0  0  0  0  0  0  0  0  0
   50.8671   10.5044   15.9176 C   0  0  0  0  0  0  0  0  0  0  0  0
   49.8228   12.5328   17.4177 C   0  0  0  0  0  0  0  0  0  0  0  0
   51.0066   11.9414   15.3693 C   0  0  0  0  0  0  0  0  0  0  0  0
   48.1271    8.0031   17.7883 C   0  0  0  0  0  0  0  0  0  0  0  0
   48.5333    5.5794   16.4773 C   0  0  0  0  0  0  0  0  0  0  0  0
   51.9673   13.6232   16.8818 C   0  0  0  0  0  0  0  0  0  0  0  0
   50.7417   18.4328   19.9188 O   0  0  0  0  0  0  0  0  0  0  0  0
   46.3063    9.4983   13.2775 C   0  0  0  0  0  0  0  0  0  0  0  0
   46.9006    6.8907   12.5135 C   0  0  0  0  0  0  0  0  0  0  0  0
   51.0029   15.8225   17.3273 O   0  0  0  0  0  0  0  0  0  0  0  0
   51.3927   17.6397   18.9338 C   0  0  0  0  0  0  0  0  0  0  0  0
   51.7573   14.7578   17.9063 C   0  0  0  0  0  0  0  0  0  0  0  0
   50.3973   16.6797   18.2923 C   0  0  0  0  0  0  0  0  0  0  0  0
   47.9400    6.8024   18.4759 C   0  0  0  0  0  0  0  0  0  0  0  0
   48.1389    5.5890   17.8167 C   0  0  0  0  0  0  0  0  0  0  0  0
   45.7554    7.5141   12.0205 C   0  0  0  0  0  0  0  0  0  0  0  0
   45.4568    8.8188   12.4025 C   0  0  0  0  0  0  0  0  0  0  0  0
   49.4124   13.0184   16.8268 C   0  0  0  0  0  0  0  0  0  0  0  0
   50.2872   13.6553   16.0984 N   0  0  0  0  0  0  0  0  0  0  0  0
   49.2073   13.2641   18.2916 C   0  0  0  0  0  0  0  0  0  0  0  0
   51.9567   12.9735   18.7131 S   0  0  0  0  0  0  0  0  0  0  0  0
   48.5870   12.0605   16.2137 N   0  0  0  0  0  0  0  0  0  0  0  0
   50.2603   13.2113   19.2135 C   0  0  0  0  0  0  0  0  0  0  0  0
   51.1889   14.6191   16.5793 C   0  0  0  0  0  0  0  0  0  0  0  0
   52.0655   14.4204   17.6607 C   0  0  0  0  0  0  0  0  0  0  0  0
   49.6963    9.6308   14.8817 N   0  0  0  0  0  0  0  0  0  0  0  0
   48.6139   11.9494   14.7374 C   0  0  0  0  0  0  0  0  0  0  0  0
   48.4601   10.7237   16.8404 C   0  0  0  0  0  0  0  0  0  0  0  0
   49.7411   10.9930   14.2768 C   0  0  0  0  0  0  0  0  0  0  0  0
   49.5927    9.7843   16.3547 C   0  0  0  0  0  0  0  0  0  0  0  0
   47.8966   13.4937   18.7339 C   0  0  0  0  0  0  0  0  0  0  0  0
   49.9825   13.3710   20.5789 C   0  0  0  0  0  0  0  0  0  0  0  0
   48.6037    8.8301   14.3022 C   0  0  0  0  0  0  0  0  0  0  0  0
   46.5481    3.1602   13.6751 O   0  0  0  0  0  0  0  0  0  0  0  0
   51.3027   15.8016   15.8376 C   0  0  0  0  0  0  0  0  0  0  0  0
   53.0300   15.3915   17.9771 C   0  0  0  0  0  0  0  0  0  0  0  0
   47.6175    6.6531   13.9792 O   0  0  0  0  0  0  0  0  0  0  0  0
   46.5044    4.5706   13.5043 C   0  0  0  0  0  0  0  0  0  0  0  0
   48.7084    7.3303   14.6191 C   0  0  0  0  0  0  0  0  0  0  0  0
   47.7073    5.2405   14.1590 C   0  0  0  0  0  0  0  0  0  0  0  0
   47.6313   13.6670   20.0938 C   0  0  0  0  0  0  0  0  0  0  0  0
   48.6753   13.6003   21.0155 C   0  0  0  0  0  0  0  0  0  0  0  0
   53.1254   16.5624   17.2248 C   0  0  0  0  0  0  0  0  0  0  0  0
   52.2581   16.7704   16.1584 C   0  0  0  0  0  0  0  0  0  0  0  0
   48.8173    9.4886   15.5535 C   0  0  0  0  0  0  0  0  0  0  0  0
   49.7269   13.0017   16.6699 C   0  0  0  0  0  0  0  0  0  0  0  0
   49.4559   10.5787   16.2953 C   0  0  0  0  0  0  0  0  0  0  0  0
   49.1425   11.8445   15.9866 C   0  0  0  0  0  0  0  0  0  0  0  0
   48.0028    9.5847   14.6566 O   0  0  0  0  0  0  0  0  0  0  0  0
   49.4629   14.1619   16.4130 O   0  0  0  0  0  0  0  0  0  0  0  0
   49.2585    8.3050   16.0041 O   0  0  0  0  0  0  0  0  0  0  0  0
   50.5998   12.6785   17.6355 O   0  0  0  0  0  0  0  0  0  0  0  0
   48.1230   11.2310   17.7196 H   0  0  0  0  0  0  0  0  0  0  0  0
   48.2291   11.9002   16.0868 H   0  0  0  0  0  0  0  0  0  0  0  0
   51.1037    9.7881   15.1209 H   0  0  0  0  0  0  0  0  0  0  0  0
   51.6018   10.3376   16.7127 H   0  0  0  0  0  0  0  0  0  0  0  0
   49.2636   13.3834   17.8217 H   0  0  0  0  0  0  0  0  0  0  0  0
   50.3971   12.0923   18.2433 H   0  0  0  0  0  0  0  0  0  0  0  0
   51.9967   12.0649   14.9126 H   0  0  0  0  0  0  0  0  0  0  0  0
   50.2913   12.0695   14.5466 H   0  0  0  0  0  0  0  0  0  0  0  0
   47.9707    8.9420   18.3149 H   0  0  0  0  0  0  0  0  0  0  0  0
   48.6800    4.6213   15.9780 H   0  0  0  0  0  0  0  0  0  0  0  0
   52.5147   14.0483   16.0292 H   0  0  0  0  0  0  0  0  0  0  0  0
   52.6056   12.8537   17.3334 H   0  0  0  0  0  0  0  0  0  0  0  0
   51.4161   19.0133   20.3077 H   0  0  0  0  0  0  0  0  0  0  0  0
   46.0856   10.5243   13.5567 H   0  0  0  0  0  0  0  0  0  0  0  0
   47.1196    5.8699   12.2119 H   0  0  0  0  0  0  0  0  0  0  0  0
   52.2135   17.0956   19.4126 H   0  0  0  0  0  0  0  0  0  0  0  0
   51.8261   18.2968   18.1718 H   0  0  0  0  0  0  0  0  0  0  0  0
   52.7382   15.1445   18.2013 H   0  0  0  0  0  0  0  0  0  0  0  0
   51.2684   14.3706   18.8073 H   0  0  0  0  0  0  0  0  0  0  0  0
   49.6276   17.2617   17.7730 H   0  0  0  0  0  0  0  0  0  0  0  0
   49.8627   16.0928   19.0509 H   0  0  0  0  0  0  0  0  0  0  0  0
   47.6274    6.8153   19.5168 H   0  0  0  0  0  0  0  0  0  0  0  0
   47.9859    4.6500   18.3433 H   0  0  0  0  0  0  0  0  0  0  0  0
   45.0971    6.9901   11.3357 H   0  0  0  0  0  0  0  0  0  0  0  0
   44.5742    9.3211   12.0127 H   0  0  0  0  0  0  0  0  0  0  0  0
   47.6432   11.5713   14.3944 H   0  0  0  0  0  0  0  0  0  0  0  0
   48.7326   12.9324   14.2688 H   0  0  0  0  0  0  0  0  0  0  0  0
   48.4879   10.7769   17.9339 H   0  0  0  0  0  0  0  0  0  0  0  0
   47.4810   10.3022   16.5845 H   0  0  0  0  0  0  0  0  0  0  0  0
   49.7349   10.9158   13.1827 H   0  0  0  0  0  0  0  0  0  0  0  0
   50.7149   11.4312   14.5316 H   0  0  0  0  0  0  0  0  0  0  0  0
   49.4937    8.8086   16.8427 H   0  0  0  0  0  0  0  0  0  0  0  0
   50.5508   10.1843   16.7104 H   0  0  0  0  0  0  0  0  0  0  0  0
   47.0828   13.5417   18.0151 H   0  0  0  0  0  0  0  0  0  0  0  0
   50.7864   13.3313   21.3110 H   0  0  0  0  0  0  0  0  0  0  0  0
   48.6330    8.9180   13.2078 H   0  0  0  0  0  0  0  0  0  0  0  0
   47.6117    9.2002   14.5883 H   0  0  0  0  0  0  0  0  0  0  0  0
   46.4945    2.9775   14.6287 H   0  0  0  0  0  0  0  0  0  0  0  0
   50.6440   15.9601   14.9882 H   0  0  0  0  0  0  0  0  0  0  0  0
   53.7103   15.2368   18.8118 H   0  0  0  0  0  0  0  0  0  0  0  0
   46.4855    4.7869   12.4318 H   0  0  0  0  0  0  0  0  0  0  0  0
   45.5681    4.9544   13.9224 H   0  0  0  0  0  0  0  0  0  0  0  0
   48.6422    7.1491   15.6971 H   0  0  0  0  0  0  0  0  0  0  0  0
   49.6597    6.9356   14.2450 H   0  0  0  0  0  0  0  0  0  0  0  0
   48.6350    4.8611   13.7097 H   0  0  0  0  0  0  0  0  0  0  0  0
   47.7292    4.9938   15.2296 H   0  0  0  0  0  0  0  0  0  0  0  0
   46.6137   13.8575   20.4285 H   0  0  0  0  0  0  0  0  0  0  0  0
   48.4744   13.7375   22.0761 H   0  0  0  0  0  0  0  0  0  0  0  0
   53.8795   17.3067   17.4732 H   0  0  0  0  0  0  0  0  0  0  0  0
   52.3296   17.6781   15.5620 H   0  0  0  0  0  0  0  0  0  0  0  0
   50.1619   10.3155   17.0750 H   0  0  0  0  0  0  0  0  0  0  0  0
   48.4308   12.0918   15.2047 H   0  0  0  0  0  0  0  0  0  0  0  0
   48.7821    7.6490   15.4542 H   0  0  0  0  0  0  0  0  0  0  0  0
   50.8979   13.5463   17.9828 H   0  0  0  0  0  0  0  0  0  0  0  0
  2  1  2  0
  3  1  1  0
  4  6  1  0
  5  1  1  0
  6  3  2  0
  7  2  1  0
  8  7  2  0
  9 13  1  0
 10  5  1  0
 11  5  1  0
 12 10  1  0
 13 11  1  0
 14  3  1  0
 15  6  1  0
 16  9  1  0
 17 21  1  0
 18  7  1  0
 19  8  1  0
 20 22  1  0
 21 23  1  0
 22 16  1  0
 23 20  1  0
 24 14  2  0
 25 15  2  0
 26 19  2  0
 27 18  2  0
  9 12  1  0
  8  4  1  0
 24 25  1  0
 27 26  1  0
 29 28  2  0
 30 28  1  0
 31 33  1  0
 32 28  1  0
 33 30  2  0
 34 29  1  0
 35 34  2  0
 36 40  1  0
 37 32  1  0
 38 32  1  0
 39 37  1  0
 40 38  1  0
 41 30  1  0
 42 33  1  0
 43 36  1  0
 44 48  1  0
 45 34  1  0
 46 35  1  0
 47 49  1  0
 48 50  1  0
 49 43  1  0
 50 47  1  0
 51 41  2  0
 52 42  2  0
 53 46  2  0
 54 45  2  0
 36 39  1  0
 35 31  1  0
 51 52  1  0
 54 53  1  0
 56 58  1  0
 57 55  1  0
 58 57  2  0
 59 55  2  0
 60 56  2  0
 61 55  1  0
 62 56  1  0
 10 63  1  0
 10 64  1  0
 11 65  1  0
 11 66  1  0
 12 67  1  0
 12 68  1  0
 13 69  1  0
 13 70  1  0
 14 71  1  0
 15 72  1  0
 16 73  1  0
 16 74  1  0
 17 75  1  0
 18 76  1  0
 19 77  1  0
 21 78  1  0
 21 79  1  0
 22 80  1  0
 22 81  1  0
 23 82  1  0
 23 83  1  0
 24 84  1  0
 25 85  1  0
 26 86  1  0
 27 87  1  0
 37 88  1  0
 37 89  1  0
 38 90  1  0
 38 91  1  0
 39 92  1  0
 39 93  1  0
 40 94  1  0
 40 95  1  0
 41 96  1  0
 42 97  1  0
 43 98  1  0
 43 99  1  0
 44100  1  0
 45101  1  0
 46102  1  0
 48103  1  0
 48104  1  0
 49105  1  0
 49106  1  0
 50107  1  0
 50108  1  0
 51109  1  0
 52110  1  0
 53111  1  0
 54112  1  0
 57113  1  0
 58114  1  0
 61115  1  0
 62116  1  0
M  END
> <Uni-Dock RESULT> 
ENERGY=   -4.683  LOWER_BOUND=    5.353  UPPER_BOUND=    7.399
INTER + INTRA:          -4.683
INTER:                  -4.683
INTRA:                   0.000
UNBOUND:                 0.000

$$$$

     RDKit          3D

116121  0  0  0  0  0  0  0  0999 V2000
   48.7409    9.3242   15.7713 C   0  0  0  0  0  0  0  0  0  0  0  0
   48.2857    9.6839   14.6015 N   0  0  0  0  0  0  0  0  0  0  0  0
   48.5081    8.0017   16.4366 C   0  0  0  0  0  0  0  0  0  0  0  0
   49.1639    6.6800   14.0460 S   0  0  0  0  0  0  0  0  0  0  0  0
   49.5182   10.2399   16.4863 N   0  0  0  0  0  0  0  0  0  0  0  0
   48.7129    6.7810   15.7734 C   0  0  0  0  0  0  0  0  0  0  0  0
   47.4569    8.8860   13.7948 C   0  0  0  0  0  0  0  0  0  0  0  0
   47.7522    7.5671   13.3993 C   0  0  0  0  0  0  0  0  0  0  0  0
   50.7326   13.0107   16.3584 N   0  0  0  0  0  0  0  0  0  0  0  0
   48.8213   11.4794   16.9110 C   0  0  0  0  0  0  0  0  0  0  0  0
   50.8671   10.5045   15.9175 C   0  0  0  0  0  0  0  0  0  0  0  0
   49.8228   12.5329   17.4177 C   0  0  0  0  0  0  0  0  0  0  0  0
   51.0066   11.9415   15.3692 C   0  0  0  0  0  0  0  0  0  0  0  0
   48.1272    8.0032   17.7883 C   0  0  0  0  0  0  0  0  0  0  0  0
   48.5334    5.5795   16.4772 C   0  0  0  0  0  0  0  0  0  0  0  0
   51.9674   13.6233   16.8817 C   0  0  0  0  0  0  0  0  0  0  0  0
   50.7417   18.4329   19.9187 O   0  0  0  0  0  0  0  0  0  0  0  0
   46.3064    9.4983   13.2775 C   0  0  0  0  0  0  0  0  0  0  0  0
   46.9007    6.8908   12.5134 C   0  0  0  0  0  0  0  0  0  0  0  0
   51.0030   15.8226   17.3272 O   0  0  0  0  0  0  0  0  0  0  0  0
   51.3927   17.6397   18.9338 C   0  0  0  0  0  0  0  0  0  0  0  0
   51.7573   14.7578   17.9062 C   0  0  0  0  0  0  0  0  0  0  0  0
   50.3973   16.6798   18.2922 C   0  0  0  0  0  0  0  0  0  0  0  0
   47.9402    6.8025   18.4759 C   0  0  0  0  0  0  0  0  0  0  0  0
   48.1390    5.5890   17.8167 C   0  0  0  0  0  0  0  0  0  0  0  0
   45.7555    7.5142   12.0205 C   0  0  0  0  0  0  0  0  0  0  0  0
   45.4569    8.8189   12.4025 C   0  0  0  0  0  0  0  0  0  0  0  0
   49.4125   13.0185   16.8268 C   0  0  0  0  0  0  0  0  0  0  0  0
   50.2872   13.6554   16.0983 N   0  0  0  0  0  0  0  0  0  0  0  0
   49.2073   13.2642   18.2915 C   0  0  0  0  0  0  0  0  0  0  0  0
   51.9568   12.9735   18.7130 S   0  0  0  0  0  0  0  0  0  0  0  0
   48.5871   12.0605   16.2137 N   0  0  0  0  0  0  0  0  0  0  0  0
   50.2604   13.2114   19.2134 C   0  0  0  0  0  0  0  0  0  0  0  0
   51.1890   14.6191   16.5792 C   0  0  0  0  0  0  0  0  0  0  0  0
   52.0656   14.4205   17.6606 C   0  0  0  0  0  0  0  0  0  0  0  0
   49.6964    9.6308   14.8816 N   0  0  0  0  0  0  0  0  0  0  0  0
   48.6139   11.9495   14.7373 C   0  0  0  0  0  0  0  0  0  0  0  0
   48.4601   10.7238   16.8403 C   0  0  0  0  0  0  0  0  0  0  0  0
   49.7411   10.9930   14.2767 C   0  0  0  0  0  0  0  0  0  0  0  0
   49.5928    9.7844   16.3546 C   0  0  0  0  0  0  0  0  0  0  0  0
   47.8966   13.4937   18.7339 C   0  0  0  0  0  0  0  0  0  0  0  0
   49.9826   13.3711   20.5788 C   0  0  0  0  0  0  0  0  0  0  0  0
   48.6038    8.8302   14.3021 C   0  0  0  0  0  0  0  0  0  0  0  0
   46.5482    3.1602   13.6750 O   0  0  0  0  0  0  0  0  0  0  0  0
   51.3027   15.8017   15.8375 C   0  0  0  0  0  0  0  0  0  0  0  0
   53.0300   15.3916   17.9770 C   0  0  0  0  0  0  0  0  0  0  0  0
   47.6176    6.6532   13.9791 O   0  0  0  0  0  0  0  0  0  0  0  0
   46.5045    4.5707   13.5043 C   0  0  0  0  0  0  0  0  0  0  0  0
   48.7085    7.3303   14.6190 C   0  0  0  0  0  0  0  0  0  0  0  0
   47.7074    5.2406   14.1589 C   0  0  0  0  0  0  0  0  0  0  0  0
   47.6313   13.6670   20.0937 C   0  0  0  0  0  0  0  0  0  0  0  0
   48.6753   13.6003   21.0154 C   0  0  0  0  0  0  0  0  0  0  0  0
   53.1254   16.5625   17.2247 C   0  0  0  0  0  0  0  0  0  0  0  0
   52.2581   16.7705   16.1583 C   0  0  0  0  0  0  0  0  0  0  0  0
   48.8173    9.4887   15.5535 C   0  0  0  0  0  0  0  0  0  0  0  0
   49.7269   13.0018   16.6698 C   0  0  0  0  0  0  0  0  0  0  0  0
   49.4560   10.5788   16.2952 C   0  0  0  0  0  0  0  0  0  0  0  0
   49.1425   11.8446   15.9866 C   0  0  0  0  0  0  0  0  0  0  0  0
   48.0028    9.5848   14.6566 O   0  0  0  0  0  0  0  0  0  0  0  0
   49.4629   14.1620   16.4130 O   0  0  0  0  0  0  0  0  0  0  0  0
   49.2586    8.3051   16.0041 O   0  0  0  0  0  0  0  0  0  0  0  0
   50.5999   12.6786   17.6354 O   0  0  0  0  0  0  0  0  0  0  0  0
   48.1231   11.2310   17.7195 H   0  0  0  0  0  0  0  0  0  0  0  0
   48.2291   11.9002   16.0867 H   0  0  0  0  0  0  0  0  0  0  0  0
   51.1038    9.7882   15.1208 H   0  0  0  0  0  0  0  0  0  0  0  0
   51.6018   10.3377   16.7126 H   0  0  0  0  0  0  0  0  0  0  0  0
   49.2637   13.3835   17.8216 H   0  0  0  0  0  0  0  0  0  0  0  0
   50.3972   12.0923   18.2432 H   0  0  0  0  0  0  0  0  0  0  0  0
   51.9967   12.0650   14.9125 H   0  0  0  0  0  0  0  0  0  0  0  0
   50.2913   12.0696   14.5465 H   0  0  0  0  0  0  0  0  0  0  0  0
   47.9708    8.9420   18.3148 H   0  0  0  0  0  0  0  0  0  0  0  0
   48.6800    4.6214   15.9779 H   0  0  0  0  0  0  0  0  0  0  0  0
   52.5147   14.0484   16.0291 H   0  0  0  0  0  0  0  0  0  0  0  0
   52.6057   12.8538   17.3333 H   0  0  0  0  0  0  0  0  0  0  0  0
   51.4162   19.0133   20.3076 H   0  0  0  0  0  0  0  0  0  0  0  0
   46.0856   10.5243   13.5566 H   0  0  0  0  0  0  0  0  0  0  0  0
   47.1196    5.8699   12.2118 H   0  0  0  0  0  0  0  0  0  0  0  0
   52.2135   17.0957   19.4125 H   0  0  0  0  0  0  0  0  0  0  0  0
   51.8261   18.2969   18.1718 H   0  0  0  0  0  0  0  0  0  0  0  0
   52.7383   15.1446   18.2013 H   0  0  0  0  0  0  0  0  0  0  0  0
   51.2685   14.3707   18.8073 H   0  0  0  0  0  0  0  0  0  0  0  0
   49.6276   17.2618   17.7729 H   0  0  0  0  0  0  0  0  0  0  0  0
   49.8627   16.0929   19.0509 H   0  0  0  0  0  0  0  0  0  0  0  0
   47.6275    6.8153   19.5167 H   0  0  0  0  0  0  0  0  0  0  0  0
   47.9860    4.6501   18.3432 H   0  0  0  0  0  0  0  0  0  0  0  0
   45.0972    6.9901   11.3357 H   0  0  0  0  0  0  0  0  0  0  0  0
   44.5742    9.3212   12.0127 H   0  0  0  0  0  0  0  0  0  0  0  0
   47.6433   11.5713   14.3943 H   0  0  0  0  0  0  0  0  0  0  0  0
   48.7326   12.9325   14.2687 H   0  0  0  0  0  0  0  0  0  0  0  0
   48.4880   10.7770   17.9338 H   0  0  0  0  0  0  0  0  0  0  0  0
   47.4811   10.3022   16.5845 H   0  0  0  0  0  0  0  0  0  0  0  0
   49.7349   10.9159   13.1826 H   0  0  0  0  0  0  0  0  0  0  0  0
   50.7150   11.4313   14.5315 H   0  0  0  0  0  0  0  0  0  0  0  0
   49.4938    8.8087   16.8427 H   0  0  0  0  0  0  0  0  0  0  0  0
   50.5508   10.1843   16.7103 H   0  0  0  0  0  0  0  0  0  0  0  0
   47.0828   13.5417   18.0151 H   0  0  0  0  0  0  0  0  0  0  0  0
   50.7865   13.3314   21.3109 H   0  0  0  0  0  0  0  0  0  0  0  0
   48.6330    8.9181   13.2077 H   0  0  0  0  0  0  0  0  0  0  0  0
   47.6117    9.2003   14.5883 H   0  0  0  0  0  0  0  0  0  0  0  0
   46.4946    2.9775   14.6286 H   0  0  0  0  0  0  0  0  0  0  0  0
   50.6440   15.9602   14.9882 H   0  0  0  0  0  0  0  0  0  0  0  0
   53.7103   15.2369   18.8117 H   0  0  0  0  0  0  0  0  0  0  0  0
   46.4856    4.7870   12.4318 H   0  0  0  0  0  0  0  0  0  0  0  0
   45.5681    4.9545   13.9223 H   0  0  0  0  0  0  0  0  0  0  0  0
   48.6423    7.1492   15.6970 H   0  0  0  0  0  0  0  0  0  0  0  0
   49.6597    6.9357   14.2449 H   0  0  0  0  0  0  0  0  0  0  0  0
   48.6350    4.8612   13.7096 H   0  0  0  0  0  0  0  0  0  0  0  0
   47.7292    4.9939   15.2296 H   0  0  0  0  0  0  0  0  0  0  0  0
   46.6138   13.8576   20.4285 H   0  0  0  0  0  0  0  0  0  0  0  0
   48.4745   13.7376   22.0760 H   0  0  0  0  0  0  0  0  0  0  0  0
   53.8795   17.3067   17.4731 H   0  0  0  0  0  0  0  0  0  0  0  0
   52.3296   17.6782   15.5620 H   0  0  0  0  0  0  0  0  0  0  0  0
   50.1620   10.3156   17.0750 H   0  0  0  0  0  0  0  0  0  0  0  0
   48.4308   12.0919   15.2047 H   0  0  0  0  0  0  0  0  0  0  0  0
   48.7822    7.6491   15.4541 H   0  0  0  0  0  0  0  0  0  0  0  0
   50.8979   13.5464   17.9827 H   0  0  0  0  0  0  0  0  0  0  0  0
  2  1  2  0
  3  1  1  0
  4  6  1  0
  5  1  1  0
  6  3  2  0
  7  2  1  0
  8  7  2  0
  9 13  1  0
 10  5  1  0
 11  5  1  0
 12 10  1  0
 13 11  1  0
 14  3  1  0
 15  6  1  0
 16  9  1  0
 17 21  1  0
 18  7  1  0
 19  8  1  0
 20 22  1  0
 21 23  1  0
 22 16  1  0
 23 20  1  0
 24 14  2  0
 25 15  2  0
 26 19  2  0
 27 18  2  0
  9 12  1  0
  8  4  1  0
 24 25  1  0
 27 26  1  0
 29 28  2  0
 30 28  1  0
 31 33  1  0
 32 28  1  0
 33 30  2  0
 34 29  1  0
 35 34  2  0
 36 40  1  0
 37 32  1  0
 38 32  1  0
 39 37  1  0
 40 38  1  0
 41 30  1  0
 42 33  1  0
 43 36  1  0
 44 48  1  0
 45 34  1  0
 46 35  1  0
 47 49  1  0
 48 50  1  0
 49 43  1  0
 50 47  1  0
 51 41  2  0
 52 42  2  0
 53 46  2  0
 54 45  2  0
 36 39  1  0
 35 31  1  0
 51 52  1  0
 54 53  1  0
 56 58  1  0
 57 55  1  0
 58 57  2  0
 59 55  2  0
 60 56  2  0
 61 55  1  0
 62 56  1  0
 10 63  1  0
 10 64  1  0
 11 65  1  0
 11 66  1  0
 12 67  1  0
 12 68  1  0
 13 69  1  0
 13 70  1  0
 14 71  1  0
 15 72  1  0
 16 73  1  0
 16 74  1  0
 17 75  1  0
 18 76  1  0
 19 77  1  0
 21 78  1  0
 21 79  1  0
 22 80  1  0
 22 81  1  0
 23 82  1  0
 23 83  1  0
 24 84  1  0
 25 85  1  0
 26 86  1  0
 27 87  1  0
 37 88  1  0
 37 89  1  0
 38 90  1  0
 38 91  1  0
 39 92  1  0
 39 93  1  0
 40 94  1  0
 40 95  1  0
 41 96  1  0
 42 97  1  0
 43 98  1  0
 43 99  1  0
 44100  1  0
 45101  1  0
 46102  1  0
 48103  1  0
 48104  1  0
 49105  1  0
 49106  1  0
 50107  1  0
 50108  1  0
 51109  1  0
 52110  1  0
 53111  1  0
 54112  1  0
 57113  1  0
 58114  1  0
 61115  1  0
 62116  1  0
M  END
> <Uni-Dock RESULT> 
ENERGY=   -4.683  LOWER_BOUND=    5.353  UPPER_BOUND=    7.399
INTER + INTRA:          -4.683
INTER:                  -4.683
INTRA:                   0.000
UNBOUND:                 0.000

$$$$

     RDKit          3D

116121  0  0  0  0  0  0  0  0999 V2000
   49.8241   11.1093   20.2830 C   0  0  0  0  0  0  0  0  0  0  0  0
   49.9289   11.7286   19.1382 N   0  0  0  0  0  0  0  0  0  0  0  0
   50.0640   11.7120   21.6340 C   0  0  0  0  0  0  0  0  0  0  0  0
   48.4965   13.9329   20.9250 S   0  0  0  0  0  0  0  0  0  0  0  0
   49.4559    9.7609   20.2719 N   0  0  0  0  0  0  0  0  0  0  0  0
   49.4848   12.9295   22.0268 C   0  0  0  0  0  0  0  0  0  0  0  0
   50.3329   13.0668   18.9961 C   0  0  0  0  0  0  0  0  0  0  0  0
   49.7402   14.1582   19.6599 C   0  0  0  0  0  0  0  0  0  0  0  0
   48.6765    7.4750   18.4453 N   0  0  0  0  0  0  0  0  0  0  0  0
   50.4228    8.8371   19.6281 C   0  0  0  0  0  0  0  0  0  0  0  0
   48.0490    9.4926   19.8699 C   0  0  0  0  0  0  0  0  0  0  0  0
   49.7980    7.4482   19.4044 C   0  0  0  0  0  0  0  0  0  0  0  0
   47.9502    8.7654   18.5110 C   0  0  0  0  0  0  0  0  0  0  0  0
   50.8524   10.9911   22.5454 C   0  0  0  0  0  0  0  0  0  0  0  0
   49.7046   13.4048   23.3295 C   0  0  0  0  0  0  0  0  0  0  0  0
   47.7751    6.3148   18.5684 C   0  0  0  0  0  0  0  0  0  0  0  0
   50.5849    1.3888   17.2657 O   0  0  0  0  0  0  0  0  0  0  0  0
   51.3337   13.3232   18.0479 C   0  0  0  0  0  0  0  0  0  0  0  0
   50.1577   15.4665   19.3745 C   0  0  0  0  0  0  0  0  0  0  0  0
   49.1373    4.7802   17.2437 O   0  0  0  0  0  0  0  0  0  0  0  0
   49.5466    2.3584   17.1966 C   0  0  0  0  0  0  0  0  0  0  0  0
   48.4622    4.9353   18.4919 C   0  0  0  0  0  0  0  0  0  0  0  0
   50.1360    3.7628   17.2607 C   0  0  0  0  0  0  0  0  0  0  0  0
   51.0742   11.4785   23.8349 C   0  0  0  0  0  0  0  0  0  0  0  0
   50.5028   12.6901   24.2248 C   0  0  0  0  0  0  0  0  0  0  0  0
   51.1629   15.6981   18.4370 C   0  0  0  0  0  0  0  0  0  0  0  0
   51.7524   14.6263   17.7728 C   0  0  0  0  0  0  0  0  0  0  0  0
   50.0637    7.6025   18.5926 C   0  0  0  0  0  0  0  0  0  0  0  0
   49.1036    7.3210   17.7558 N   0  0  0  0  0  0  0  0  0  0  0  0
   50.7587    6.5805   19.4414 C   0  0  0  0  0  0  0  0  0  0  0  0
   48.2759    5.6398   20.3204 S   0  0  0  0  0  0  0  0  0  0  0  0
   50.5033    8.9330   18.6990 N   0  0  0  0  0  0  0  0  0  0  0  0
   50.0589    5.7045   20.2808 C   0  0  0  0  0  0  0  0  0  0  0  0
   48.5511    6.0442   17.5616 C   0  0  0  0  0  0  0  0  0  0  0  0
   48.0465    5.2296   18.5907 C   0  0  0  0  0  0  0  0  0  0  0  0
   48.6892   11.1377   19.5689 N   0  0  0  0  0  0  0  0  0  0  0  0
   49.9910    9.9237   17.7249 C   0  0  0  0  0  0  0  0  0  0  0  0
   50.6297    9.5360   20.0467 C   0  0  0  0  0  0  0  0  0  0  0  0
   48.6504   10.5296   18.2080 C   0  0  0  0  0  0  0  0  0  0  0  0
   49.2785   10.1436   20.5008 C   0  0  0  0  0  0  0  0  0  0  0  0
   52.1607    6.5630   19.4191 C   0  0  0  0  0  0  0  0  0  0  0  0
   50.7779    4.8290   21.1076 C   0  0  0  0  0  0  0  0  0  0  0  0
   49.4125   12.4212   19.5545 C   0  0  0  0  0  0  0  0  0  0  0  0
   50.3215   17.5146   22.7166 O   0  0  0  0  0  0  0  0  0  0  0  0
   48.3781    5.6271   16.2358 C   0  0  0  0  0  0  0  0  0  0  0  0
   47.3839    4.0299   18.2827 C   0  0  0  0  0  0  0  0  0  0  0  0
   49.9197   14.4915   20.6828 O   0  0  0  0  0  0  0  0  0  0  0  0
   50.5110   16.6299   21.6203 C   0  0  0  0  0  0  0  0  0  0  0  0
   49.1996   13.2589   20.8249 C   0  0  0  0  0  0  0  0  0  0  0  0
   49.6896   15.3572   21.7934 C   0  0  0  0  0  0  0  0  0  0  0  0
   52.8681    5.6774   20.2344 C   0  0  0  0  0  0  0  0  0  0  0  0
   52.1747    4.8144   21.0819 C   0  0  0  0  0  0  0  0  0  0  0  0
   47.2230    3.6336   16.9548 C   0  0  0  0  0  0  0  0  0  0  0  0
   47.7250    4.4292   15.9312 C   0  0  0  0  0  0  0  0  0  0  0  0
   49.7066   11.1032   20.0251 C   0  0  0  0  0  0  0  0  0  0  0  0
   49.7167    7.6110   18.5354 C   0  0  0  0  0  0  0  0  0  0  0  0
   49.5021    9.6585   19.8942 C   0  0  0  0  0  0  0  0  0  0  0  0
   49.8794    9.0497   18.7616 C   0  0  0  0  0  0  0  0  0  0  0  0
   50.1972   11.8560   19.2067 O   0  0  0  0  0  0  0  0  0  0  0  0
   50.0490    7.0292   17.5191 O   0  0  0  0  0  0  0  0  0  0  0  0
   49.2667   11.5239   21.2202 O   0  0  0  0  0  0  0  0  0  0  0  0
   49.1606    6.9585   19.5668 O   0  0  0  0  0  0  0  0  0  0  0  0
   51.2990    8.7349   20.2796 H   0  0  0  0  0  0  0  0  0  0  0  0
   50.7750    9.2416   18.6691 H   0  0  0  0  0  0  0  0  0  0  0  0
   47.4699   10.4235   19.8254 H   0  0  0  0  0  0  0  0  0  0  0  0
   47.5905    8.8794   20.6532 H   0  0  0  0  0  0  0  0  0  0  0  0
   50.5731    6.7702   19.0317 H   0  0  0  0  0  0  0  0  0  0  0  0
   49.4600    7.0627   20.3753 H   0  0  0  0  0  0  0  0  0  0  0  0
   46.8948    8.6433   18.2365 H   0  0  0  0  0  0  0  0  0  0  0  0
   48.3761    9.4171   17.7372 H   0  0  0  0  0  0  0  0  0  0  0  0
   51.3021   10.0442   22.2552 H   0  0  0  0  0  0  0  0  0  0  0  0
   49.2699   14.3516   23.6510 H   0  0  0  0  0  0  0  0  0  0  0  0
   47.0515    6.3671   17.7432 H   0  0  0  0  0  0  0  0  0  0  0  0
   47.2105    6.3762   19.5070 H   0  0  0  0  0  0  0  0  0  0  0  0
   50.1608    0.5156   17.2376 H   0  0  0  0  0  0  0  0  0  0  0  0
   51.7773   12.4891   17.5124 H   0  0  0  0  0  0  0  0  0  0  0  0
   49.7094   16.3115   19.8903 H   0  0  0  0  0  0  0  0  0  0  0  0
   48.8522    2.1835   18.0250 H   0  0  0  0  0  0  0  0  0  0  0  0
   48.9920    2.2255   16.2612 H   0  0  0  0  0  0  0  0  0  0  0  0
   47.6932    4.1600   18.5721 H   0  0  0  0  0  0  0  0  0  0  0  0
   49.1519    4.8070   19.3337 H   0  0  0  0  0  0  0  0  0  0  0  0
   50.7751    3.9195   16.3844 H   0  0  0  0  0  0  0  0  0  0  0  0
   50.7944    3.8803   18.1316 H   0  0  0  0  0  0  0  0  0  0  0  0
   51.7010   10.9212   24.5261 H   0  0  0  0  0  0  0  0  0  0  0  0
   50.6790   13.0803   25.2243 H   0  0  0  0  0  0  0  0  0  0  0  0
   51.4855   16.7103   18.2172 H   0  0  0  0  0  0  0  0  0  0  0  0
   52.5271   14.7954   17.0281 H   0  0  0  0  0  0  0  0  0  0  0  0
   50.7363   10.7194   17.6060 H   0  0  0  0  0  0  0  0  0  0  0  0
   49.8718    9.4770   16.7319 H   0  0  0  0  0  0  0  0  0  0  0  0
   50.9603    8.8075   20.7946 H   0  0  0  0  0  0  0  0  0  0  0  0
   51.4044   10.3110   20.0186 H   0  0  0  0  0  0  0  0  0  0  0  0
   48.2960   11.2685   17.4790 H   0  0  0  0  0  0  0  0  0  0  0  0
   47.8826    9.7450   18.2231 H   0  0  0  0  0  0  0  0  0  0  0  0
   49.3865   10.5665   21.5055 H   0  0  0  0  0  0  0  0  0  0  0  0
   48.5522    9.3284   20.6121 H   0  0  0  0  0  0  0  0  0  0  0  0
   52.7005    7.2388   18.7610 H   0  0  0  0  0  0  0  0  0  0  0  0
   50.2528    4.1423   21.7682 H   0  0  0  0  0  0  0  0  0  0  0  0
   49.0485   13.0313   18.7169 H   0  0  0  0  0  0  0  0  0  0  0  0
   50.4864   12.2985   19.3681 H   0  0  0  0  0  0  0  0  0  0  0  0
   50.6497   17.0677   23.5154 H   0  0  0  0  0  0  0  0  0  0  0  0
   48.7469    6.2556   15.4299 H   0  0  0  0  0  0  0  0  0  0  0  0
   46.9907    3.4009   19.0783 H   0  0  0  0  0  0  0  0  0  0  0  0
   50.2176   17.1503   20.7035 H   0  0  0  0  0  0  0  0  0  0  0  0
   51.5768   16.3972   21.5263 H   0  0  0  0  0  0  0  0  0  0  0  0
   49.5796   12.7374   21.7098 H   0  0  0  0  0  0  0  0  0  0  0  0
   48.1323   13.4671   20.9598 H   0  0  0  0  0  0  0  0  0  0  0  0
   48.6227   15.6090   21.8608 H   0  0  0  0  0  0  0  0  0  0  0  0
   49.9753   14.8587   22.7301 H   0  0  0  0  0  0  0  0  0  0  0  0
   53.9555    5.6605   20.2024 H   0  0  0  0  0  0  0  0  0  0  0  0
   52.7211    4.1201   21.7172 H   0  0  0  0  0  0  0  0  0  0  0  0
   46.7030    2.7056   16.7250 H   0  0  0  0  0  0  0  0  0  0  0  0
   47.5984    4.1310   14.8921 H   0  0  0  0  0  0  0  0  0  0  0  0
   49.0517    9.1328   20.7287 H   0  0  0  0  0  0  0  0  0  0  0  0
   50.3321    9.5899   17.9356 H   0  0  0  0  0  0  0  0  0  0  0  0
   49.4430   12.4875   21.2124 H   0  0  0  0  0  0  0  0  0  0  0  0
   49.1172    6.0276   19.2599 H   0  0  0  0  0  0  0  0  0  0  0  0
  2  1  2  0
  3  1  1  0
  4  6  1  0
  5  1  1  0
  6  3  2  0
  7  2  1  0
  8  7  2  0
  9 13  1  0
 10  5  1  0
 11  5  1  0
 12 10  1  0
 13 11  1  0
 14  3  1  0
 15  6  1  0
 16  9  1  0
 17 21  1  0
 18  7  1  0
 19  8  1  0
 20 22  1  0
 21 23  1  0
 22 16  1  0
 23 20  1  0
 24 14  2  0
 25 15  2  0
 26 19  2  0
 27 18  2  0
  9 12  1  0
  8  4  1  0
 24 25  1  0
 27 26  1  0
 29 28  2  0
 30 28  1  0
 31 33  1  0
 32 28  1  0
 33 30  2  0
 34 29  1  0
 35 34  2  0
 36 40  1  0
 37 32  1  0
 38 32  1  0
 39 37  1  0
 40 38  1  0
 41 30  1  0
 42 33  1  0
 43 36  1  0
 44 48  1  0
 45 34  1  0
 46 35  1  0
 47 49  1  0
 48 50  1  0
 49 43  1  0
 50 47  1  0
 51 41  2  0
 52 42  2  0
 53 46  2  0
 54 45  2  0
 36 39  1  0
 35 31  1  0
 51 52  1  0
 54 53  1  0
 56 58  1  0
 57 55  1  0
 58 57  2  0
 59 55  2  0
 60 56  2  0
 61 55  1  0
 62 56  1  0
 10 63  1  0
 10 64  1  0
 11 65  1  0
 11 66  1  0
 12 67  1  0
 12 68  1  0
 13 69  1  0
 13 70  1  0
 14 71  1  0
 15 72  1  0
 16 73  1  0
 16 74  1  0
 17 75  1  0
 18 76  1  0
 19 77  1  0
 21 78  1  0
 21 79  1  0
 22 80  1  0
 22 81  1  0
 23 82  1  0
 23 83  1  0
 24 84  1  0
 25 85  1  0
 26 86  1  0
 27 87  1  0
 37 88  1  0
 37 89  1  0
 38 90  1  0
 38 91  1  0
 39 92  1  0
 39 93  1  0
 40 94  1  0
 40 95  1  0
 41 96  1  0
 42 97  1  0
 43 98  1  0
 43 99  1  0
 44100  1  0
 45101  1  0
 46102  1  0
 48103  1  0
 48104  1  0
 49105  1  0
 49106  1  0
 50107  1  0
 50108  1  0
 51109  1  0
 52110  1  0
 53111  1  0
 54112  1  0
 57113  1  0
 58114  1  0
 61115  1  0
 62116  1  0
M  END
> <Uni-Dock RESULT> 
ENERGY=   -4.574  LOWER_BOUND=    2.893  UPPER_BOUND=    8.399
INTER + INTRA:          -4.574
INTER:                  -4.574
INTRA:                   0.000
UNBOUND:                 0.000

$$$$

     RDKit          3D

116121  0  0  0  0  0  0  0  0999 V2000
   49.0036    7.3934   15.3764 C   0  0  0  0  0  0  0  0  0  0  0  0
   48.6154    8.1358   14.3749 N   0  0  0  0  0  0  0  0  0  0  0  0
   48.2855    6.1910   15.9099 C   0  0  0  0  0  0  0  0  0  0  0  0
   47.9642    5.2185   13.2940 S   0  0  0  0  0  0  0  0  0  0  0  0
   50.1945    7.7320   16.0255 N   0  0  0  0  0  0  0  0  0  0  0  0
   47.8310    5.1565   15.0762 C   0  0  0  0  0  0  0  0  0  0  0  0
   47.4207    7.9411   13.6615 C   0  0  0  0  0  0  0  0  0  0  0  0
   47.0358    6.7285   13.0578 C   0  0  0  0  0  0  0  0  0  0  0  0
   52.5017    9.6927   15.9918 N   0  0  0  0  0  0  0  0  0  0  0  0
   50.1925    9.0388   16.7290 C   0  0  0  0  0  0  0  0  0  0  0  0
   51.4330    7.5075   15.2326 C   0  0  0  0  0  0  0  0  0  0  0  0
   51.6171    9.4457   17.1470 C   0  0  0  0  0  0  0  0  0  0  0  0
   52.1353    8.8274   14.8456 C   0  0  0  0  0  0  0  0  0  0  0  0
   48.1215    6.0859   17.3006 C   0  0  0  0  0  0  0  0  0  0  0  0
   47.2194    4.0310   15.6508 C   0  0  0  0  0  0  0  0  0  0  0  0
   53.9353    9.6078   16.3255 C   0  0  0  0  0  0  0  0  0  0  0  0
   55.4102   13.7769   20.1071 O   0  0  0  0  0  0  0  0  0  0  0  0
   46.6153    9.0720   13.4650 C   0  0  0  0  0  0  0  0  0  0  0  0
   45.8658    6.6667   12.2866 C   0  0  0  0  0  0  0  0  0  0  0  0
   54.1332   11.8721   17.2195 O   0  0  0  0  0  0  0  0  0  0  0  0
   55.5019   12.9952   18.9224 C   0  0  0  0  0  0  0  0  0  0  0  0
   54.3922   10.4967   17.5010 C   0  0  0  0  0  0  0  0  0  0  0  0
   54.1078   12.6951   18.3834 C   0  0  0  0  0  0  0  0  0  0  0  0
   47.5016    4.9674   17.8612 C   0  0  0  0  0  0  0  0  0  0  0  0
   47.0456    3.9411   17.0334 C   0  0  0  0  0  0  0  0  0  0  0  0
   45.0732    7.8003   12.1141 C   0  0  0  0  0  0  0  0  0  0  0  0
   45.4470    9.0044   12.7037 C   0  0  0  0  0  0  0  0  0  0  0  0
   51.3988   10.1657   16.7143 C   0  0  0  0  0  0  0  0  0  0  0  0
   52.3664   10.5027   15.9070 N   0  0  0  0  0  0  0  0  0  0  0  0
   51.5147   10.1796   18.2091 C   0  0  0  0  0  0  0  0  0  0  0  0
   53.8653    8.6751   18.0288 S   0  0  0  0  0  0  0  0  0  0  0  0
   50.1594    9.7898   16.1689 N   0  0  0  0  0  0  0  0  0  0  0  0
   52.5381    9.5045   18.8862 C   0  0  0  0  0  0  0  0  0  0  0  0
   53.6590   10.8776   16.3092 C   0  0  0  0  0  0  0  0  0  0  0  0
   54.4809   10.1166   17.1593 C   0  0  0  0  0  0  0  0  0  0  0  0
   49.8729    7.4361   14.3561 N   0  0  0  0  0  0  0  0  0  0  0  0
   49.9454    9.9727   14.7151 C   0  0  0  0  0  0  0  0  0  0  0  0
   49.5234    8.5377   16.6417 C   0  0  0  0  0  0  0  0  0  0  0  0
   50.4506    8.7412   13.9242 C   0  0  0  0  0  0  0  0  0  0  0  0
   50.0379    7.3239   15.8272 C   0  0  0  0  0  0  0  0  0  0  0  0
   50.5170   10.8499   18.9313 C   0  0  0  0  0  0  0  0  0  0  0  0
   52.5383    9.4929   20.2887 C   0  0  0  0  0  0  0  0  0  0  0  0
   48.4728    7.3057   13.9164 C   0  0  0  0  0  0  0  0  0  0  0  0
   44.0178    3.2879   13.0348 O   0  0  0  0  0  0  0  0  0  0  0  0
   54.1991   12.0218   15.7086 C   0  0  0  0  0  0  0  0  0  0  0  0
   55.8113   10.5040   17.3899 C   0  0  0  0  0  0  0  0  0  0  0  0
   46.5779    5.8627   13.5377 O   0  0  0  0  0  0  0  0  0  0  0  0
   44.5943    4.5871   13.0485 C   0  0  0  0  0  0  0  0  0  0  0  0
   47.9284    5.8727   14.0216 C   0  0  0  0  0  0  0  0  0  0  0  0
   46.0423    4.5403   13.5233 C   0  0  0  0  0  0  0  0  0  0  0  0
   50.5337   10.8461   20.3274 C   0  0  0  0  0  0  0  0  0  0  0  0
   51.5427   10.1625   21.0045 C   0  0  0  0  0  0  0  0  0  0  0  0
   56.3287   11.6478   16.7813 C   0  0  0  0  0  0  0  0  0  0  0  0
   55.5211   12.4101   15.9449 C   0  0  0  0  0  0  0  0  0  0  0  0
   49.1178    7.5496   15.1693 C   0  0  0  0  0  0  0  0  0  0  0  0
   51.6491   10.0489   16.4963 C   0  0  0  0  0  0  0  0  0  0  0  0
   50.2682    8.0959   15.8934 C   0  0  0  0  0  0  0  0  0  0  0  0
   50.5236    9.4087   15.8100 C   0  0  0  0  0  0  0  0  0  0  0  0
   48.3278    8.1570   14.4735 O   0  0  0  0  0  0  0  0  0  0  0  0
   51.9071   11.2372   16.4404 O   0  0  0  0  0  0  0  0  0  0  0  0
   49.0303    6.2271   15.3748 O   0  0  0  0  0  0  0  0  0  0  0  0
   52.3968    9.2023   17.2195 O   0  0  0  0  0  0  0  0  0  0  0  0
   49.5665    8.9547   17.6256 H   0  0  0  0  0  0  0  0  0  0  0  0
   49.7548    9.8248   16.0983 H   0  0  0  0  0  0  0  0  0  0  0  0
   51.2174    6.9319   14.3237 H   0  0  0  0  0  0  0  0  0  0  0  0
   52.1076    6.8915   15.8369 H   0  0  0  0  0  0  0  0  0  0  0  0
   51.5586   10.3544   17.7554 H   0  0  0  0  0  0  0  0  0  0  0  0
   52.0303    8.6495   17.7801 H   0  0  0  0  0  0  0  0  0  0  0  0
   53.0075    8.6078   14.2169 H   0  0  0  0  0  0  0  0  0  0  0  0
   51.4568    9.4064   14.2058 H   0  0  0  0  0  0  0  0  0  0  0  0
   48.4742    6.8778   17.9576 H   0  0  0  0  0  0  0  0  0  0  0  0
   46.8529    3.2208   15.0199 H   0  0  0  0  0  0  0  0  0  0  0  0
   54.5023    9.9207   15.4379 H   0  0  0  0  0  0  0  0  0  0  0  0
   54.2090    8.5678   16.5424 H   0  0  0  0  0  0  0  0  0  0  0  0
   56.3174   13.9274   20.4193 H   0  0  0  0  0  0  0  0  0  0  0  0
   46.9190   10.0172   13.9051 H   0  0  0  0  0  0  0  0  0  0  0  0
   45.5599    5.7312   11.8257 H   0  0  0  0  0  0  0  0  0  0  0  0
   56.0420   12.0719   19.1562 H   0  0  0  0  0  0  0  0  0  0  0  0
   56.0845   13.5436   18.1739 H   0  0  0  0  0  0  0  0  0  0  0  0
   55.4707   10.3648   17.6367 H   0  0  0  0  0  0  0  0  0  0  0  0
   53.9002   10.1830   18.4285 H   0  0  0  0  0  0  0  0  0  0  0  0
   53.6248   13.6384   18.1045 H   0  0  0  0  0  0  0  0  0  0  0  0
   53.4671   12.2524   19.1575 H   0  0  0  0  0  0  0  0  0  0  0  0
   47.3635    4.9050   18.9374 H   0  0  0  0  0  0  0  0  0  0  0  0
   46.5535    3.0716   17.4622 H   0  0  0  0  0  0  0  0  0  0  0  0
   44.1681    7.7514   11.5178 H   0  0  0  0  0  0  0  0  0  0  0  0
   44.8447    9.8994   12.5637 H   0  0  0  0  0  0  0  0  0  0  0  0
   48.8738   10.1174   14.5318 H   0  0  0  0  0  0  0  0  0  0  0  0
   50.4345   10.8843   14.3548 H   0  0  0  0  0  0  0  0  0  0  0  0
   49.7110    8.3564   17.7053 H   0  0  0  0  0  0  0  0  0  0  0  0
   48.4359    8.6303   16.5395 H   0  0  0  0  0  0  0  0  0  0  0  0
   50.2713    8.8923   12.8527 H   0  0  0  0  0  0  0  0  0  0  0  0
   51.5409    8.6658   14.0284 H   0  0  0  0  0  0  0  0  0  0  0  0
   49.5720    6.4067   16.2034 H   0  0  0  0  0  0  0  0  0  0  0  0
   51.1098    7.2014   16.0282 H   0  0  0  0  0  0  0  0  0  0  0  0
   49.7285   11.3793   18.4027 H   0  0  0  0  0  0  0  0  0  0  0  0
   53.3234    8.9724   20.8332 H   0  0  0  0  0  0  0  0  0  0  0  0
   48.3993    7.5878   12.8575 H   0  0  0  0  0  0  0  0  0  0  0  0
   47.8001    7.9962   14.4395 H   0  0  0  0  0  0  0  0  0  0  0  0
   44.0091    2.9602   13.9503 H   0  0  0  0  0  0  0  0  0  0  0  0
   53.5810   12.6090   15.0352 H   0  0  0  0  0  0  0  0  0  0  0  0
   56.4484    9.9139   18.0450 H   0  0  0  0  0  0  0  0  0  0  0  0
   44.5389    4.9988   12.0362 H   0  0  0  0  0  0  0  0  0  0  0  0
   43.9937    5.2400   13.6903 H   0  0  0  0  0  0  0  0  0  0  0  0
   47.9251    5.5270   15.0607 H   0  0  0  0  0  0  0  0  0  0  0  0
   48.5428    5.1951   13.4182 H   0  0  0  0  0  0  0  0  0  0  0  0
   46.6332    3.9012   12.8535 H   0  0  0  0  0  0  0  0  0  0  0  0
   46.0863    4.1009   14.5295 H   0  0  0  0  0  0  0  0  0  0  0  0
   49.7636   11.3791   20.8811 H   0  0  0  0  0  0  0  0  0  0  0  0
   51.5621   10.1588   22.0925 H   0  0  0  0  0  0  0  0  0  0  0  0
   57.3623   11.9372   16.9607 H   0  0  0  0  0  0  0  0  0  0  0  0
   55.9183   13.3004   15.4609 H   0  0  0  0  0  0  0  0  0  0  0  0
   50.8720    7.4098   16.4769 H   0  0  0  0  0  0  0  0  0  0  0  0
   49.9074   10.0836   15.2236 H   0  0  0  0  0  0  0  0  0  0  0  0
   48.2435    5.9579   14.8570 H   0  0  0  0  0  0  0  0  0  0  0  0
   53.0960    9.7745   17.6020 H   0  0  0  0  0  0  0  0  0  0  0  0
  2  1  2  0
  3  1  1  0
  4  6  1  0
  5  1  1  0
  6  3  2  0
  7  2  1  0
  8  7  2  0
  9 13  1  0
 10  5  1  0
 11  5  1  0
 12 10  1  0
 13 11  1  0
 14  3  1  0
 15  6  1  0
 16  9  1  0
 17 21  1  0
 18  7  1  0
 19  8  1  0
 20 22  1  0
 21 23  1  0
 22 16  1  0
 23 20  1  0
 24 14  2  0
 25 15  2  0
 26 19  2  0
 27 18  2  0
  9 12  1  0
  8  4  1  0
 24 25  1  0
 27 26  1  0
 29 28  2  0
 30 28  1  0
 31 33  1  0
 32 28  1  0
 33 30  2  0
 34 29  1  0
 35 34  2  0
 36 40  1  0
 37 32  1  0
 38 32  1  0
 39 37  1  0
 40 38  1  0
 41 30  1  0
 42 33  1  0
 43 36  1  0
 44 48  1  0
 45 34  1  0
 46 35  1  0
 47 49  1  0
 48 50  1  0
 49 43  1  0
 50 47  1  0
 51 41  2  0
 52 42  2  0
 53 46  2  0
 54 45  2  0
 36 39  1  0
 35 31  1  0
 51 52  1  0
 54 53  1  0
 56 58  1  0
 57 55  1  0
 58 57  2  0
 59 55  2  0
 60 56  2  0
 61 55  1  0
 62 56  1  0
 10 63  1  0
 10 64  1  0
 11 65  1  0
 11 66  1  0
 12 67  1  0
 12 68  1  0
 13 69  1  0
 13 70  1  0
 14 71  1  0
 15 72  1  0
 16 73  1  0
 16 74  1  0
 17 75  1  0
 18 76  1  0
 19 77  1  0
 21 78  1  0
 21 79  1  0
 22 80  1  0
 22 81  1  0
 23 82  1  0
 23 83  1  0
 24 84  1  0
 25 85  1  0
 26 86  1  0
 27 87  1  0
 37 88  1  0
 37 89  1  0
 38 90  1  0
 38 91  1  0
 39 92  1  0
 39 93  1  0
 40 94  1  0
 40 95  1  0
 41 96  1  0
 42 97  1  0
 43 98  1  0
 43 99  1  0
 44100  1  0
 45101  1  0
 46102  1  0
 48103  1  0
 48104  1  0
 49105  1  0
 49106  1  0
 50107  1  0
 50108  1  0
 51109  1  0
 52110  1  0
 53111  1  0
 54112  1  0
 57113  1  0
 58114  1  0
 61115  1  0
 62116  1  0
M  END
> <Uni-Dock RESULT> 
ENERGY=   -4.484  LOWER_BOUND=    4.903  UPPER_BOUND=    7.347
INTER + INTRA:          -4.484
INTER:                  -4.484
INTRA:                   0.000
UNBOUND:                 0.000

$$$$

     RDKit          3D

116121  0  0  0  0  0  0  0  0999 V2000
   49.1215    8.3512   16.5776 C   0  0  0  0  0  0  0  0  0  0  0  0
   49.1946    7.1244   16.1364 N   0  0  0  0  0  0  0  0  0  0  0  0
   48.5466    8.7795   17.8937 C   0  0  0  0  0  0  0  0  0  0  0  0
   49.9946    6.7510   19.1899 S   0  0  0  0  0  0  0  0  0  0  0  0
   49.6182    9.3747   15.7653 N   0  0  0  0  0  0  0  0  0  0  0  0
   48.9056    8.1668   19.1051 C   0  0  0  0  0  0  0  0  0  0  0  0
   48.6959    6.0049   16.8235 C   0  0  0  0  0  0  0  0  0  0  0  0
   49.0244    5.6665   18.1504 C   0  0  0  0  0  0  0  0  0  0  0  0
   50.9867    9.9235   13.1206 N   0  0  0  0  0  0  0  0  0  0  0  0
   48.9045    9.5773   14.4800 C   0  0  0  0  0  0  0  0  0  0  0  0
   51.0977    9.3987   15.6117 C   0  0  0  0  0  0  0  0  0  0  0  0
   49.6991   10.5068   13.5450 C   0  0  0  0  0  0  0  0  0  0  0  0
   51.5494    9.0491   14.1768 C   0  0  0  0  0  0  0  0  0  0  0  0
   47.6631    9.8710   17.9017 C   0  0  0  0  0  0  0  0  0  0  0  0
   48.3733    8.6596   20.3071 C   0  0  0  0  0  0  0  0  0  0  0  0
   51.9554   10.9291   12.6471 C   0  0  0  0  0  0  0  0  0  0  0  0
   49.9898   13.5685    7.8484 O   0  0  0  0  0  0  0  0  0  0  0  0
   47.8931    5.1223   16.0867 C   0  0  0  0  0  0  0  0  0  0  0  0
   48.5453    4.4736   18.7116 C   0  0  0  0  0  0  0  0  0  0  0  0
   51.0602   11.1124   10.3820 O   0  0  0  0  0  0  0  0  0  0  0  0
   50.9164   12.8645    8.6662 C   0  0  0  0  0  0  0  0  0  0  0  0
   51.4422   11.8653   11.5332 C   0  0  0  0  0  0  0  0  0  0  0  0
   50.1877   11.8202    9.5042 C   0  0  0  0  0  0  0  0  0  0  0  0
   47.1303   10.3460   19.1017 C   0  0  0  0  0  0  0  0  0  0  0  0
   47.4829    9.7352   20.3055 C   0  0  0  0  0  0  0  0  0  0  0  0
   47.7386    3.6163   17.9652 C   0  0  0  0  0  0  0  0  0  0  0  0
   47.4112    3.9400   16.6516 C   0  0  0  0  0  0  0  0  0  0  0  0
   49.5936    9.8375   13.0025 C   0  0  0  0  0  0  0  0  0  0  0  0
   50.7300    9.5551   12.4278 N   0  0  0  0  0  0  0  0  0  0  0  0
   48.8444   11.1184   12.7883 C   0  0  0  0  0  0  0  0  0  0  0  0
   51.1725   12.5607   13.3548 S   0  0  0  0  0  0  0  0  0  0  0  0
   49.0093    8.8858   13.8557 N   0  0  0  0  0  0  0  0  0  0  0  0
   49.4394   12.3727   12.9729 C   0  0  0  0  0  0  0  0  0  0  0  0
   51.4368   10.4157   11.5716 C   0  0  0  0  0  0  0  0  0  0  0  0
   51.7964   11.7373   11.8899 C   0  0  0  0  0  0  0  0  0  0  0  0
   50.3710    7.9297   16.3337 N   0  0  0  0  0  0  0  0  0  0  0  0
   49.6100    7.5337   13.9186 C   0  0  0  0  0  0  0  0  0  0  0  0
   48.5456    9.3190   15.1948 C   0  0  0  0  0  0  0  0  0  0  0  0
   50.7528    7.4860   14.9622 C   0  0  0  0  0  0  0  0  0  0  0  0
   49.7047    9.2515   16.2211 C   0  0  0  0  0  0  0  0  0  0  0  0
   47.4867   11.0274   12.4496 C   0  0  0  0  0  0  0  0  0  0  0  0
   48.6566   13.5281   12.8339 C   0  0  0  0  0  0  0  0  0  0  0  0
   49.5407    6.9152   17.0060 C   0  0  0  0  0  0  0  0  0  0  0  0
   47.4851    5.1444   22.4287 O   0  0  0  0  0  0  0  0  0  0  0  0
   51.9225    9.8610   10.3808 C   0  0  0  0  0  0  0  0  0  0  0  0
   52.6262   12.4720   11.0269 C   0  0  0  0  0  0  0  0  0  0  0  0
   48.6037    6.0828   19.0664 O   0  0  0  0  0  0  0  0  0  0  0  0
   47.6177    5.0679   21.0155 C   0  0  0  0  0  0  0  0  0  0  0  0
   49.3994    7.1435   18.5189 C   0  0  0  0  0  0  0  0  0  0  0  0
   48.5095    6.1855   20.4865 C   0  0  0  0  0  0  0  0  0  0  0  0
   46.7186   12.1835   12.2981 C   0  0  0  0  0  0  0  0  0  0  0  0
   47.3044   13.4332   12.4957 C   0  0  0  0  0  0  0  0  0  0  0  0
   53.0985   11.8997    9.8455 C   0  0  0  0  0  0  0  0  0  0  0  0
   52.7422   10.5960    9.5193 C   0  0  0  0  0  0  0  0  0  0  0  0
   49.2899    8.1926   16.4138 C   0  0  0  0  0  0  0  0  0  0  0  0
   49.9423    9.8153   13.0439 C   0  0  0  0  0  0  0  0  0  0  0  0
   49.6621    9.1984   15.4157 C   0  0  0  0  0  0  0  0  0  0  0  0
   49.5916    8.8798   14.1159 C   0  0  0  0  0  0  0  0  0  0  0  0
   48.9065    7.0575   16.2099 O   0  0  0  0  0  0  0  0  0  0  0  0
   49.8887    9.5563   11.8557 O   0  0  0  0  0  0  0  0  0  0  0  0
   49.4273    8.6971   17.6489 O   0  0  0  0  0  0  0  0  0  0  0  0
   50.3351   11.0206   13.4817 O   0  0  0  0  0  0  0  0  0  0  0  0
   47.9269   10.0290   14.6878 H   0  0  0  0  0  0  0  0  0  0  0  0
   48.7200    8.6182   13.9766 H   0  0  0  0  0  0  0  0  0  0  0  0
   51.5763    8.7107   16.3199 H   0  0  0  0  0  0  0  0  0  0  0  0
   51.4431   10.4043   15.8750 H   0  0  0  0  0  0  0  0  0  0  0  0
   49.0908   10.7174   12.6590 H   0  0  0  0  0  0  0  0  0  0  0  0
   49.8653   11.4586   14.0663 H   0  0  0  0  0  0  0  0  0  0  0  0
   52.6456    9.0259   14.1332 H   0  0  0  0  0  0  0  0  0  0  0  0
   51.2298    8.0231   13.9530 H   0  0  0  0  0  0  0  0  0  0  0  0
   47.3814   10.3578   16.9706 H   0  0  0  0  0  0  0  0  0  0  0  0
   48.6338    8.1926   21.2573 H   0  0  0  0  0  0  0  0  0  0  0  0
   52.8255   10.3901   12.2475 H   0  0  0  0  0  0  0  0  0  0  0  0
   52.3036   11.5401   13.4890 H   0  0  0  0  0  0  0  0  0  0  0  0
   50.4964   14.2293    7.3487 H   0  0  0  0  0  0  0  0  0  0  0  0
   47.6569    5.3628   15.0544 H   0  0  0  0  0  0  0  0  0  0  0  0
   48.7890    4.2121   19.7379 H   0  0  0  0  0  0  0  0  0  0  0  0
   51.4377   13.5875    9.3023 H   0  0  0  0  0  0  0  0  0  0  0  0
   51.6636   12.3801    8.0280 H   0  0  0  0  0  0  0  0  0  0  0  0
   52.2521   12.5466   11.2523 H   0  0  0  0  0  0  0  0  0  0  0  0
   50.6093   12.4743   11.9022 H   0  0  0  0  0  0  0  0  0  0  0  0
   49.7320   11.0826    8.8339 H   0  0  0  0  0  0  0  0  0  0  0  0
   49.3544   12.2668   10.0627 H   0  0  0  0  0  0  0  0  0  0  0  0
   46.4331   11.1798   19.0944 H   0  0  0  0  0  0  0  0  0  0  0  0
   47.0645   10.0937   21.2428 H   0  0  0  0  0  0  0  0  0  0  0  0
   47.3680    2.6941   18.4002 H   0  0  0  0  0  0  0  0  0  0  0  0
   46.7950    3.2717   16.0542 H   0  0  0  0  0  0  0  0  0  0  0  0
   48.8291    6.8132   14.1902 H   0  0  0  0  0  0  0  0  0  0  0  0
   49.9773    7.2180   12.9360 H   0  0  0  0  0  0  0  0  0  0  0  0
   48.1423   10.3371   15.1817 H   0  0  0  0  0  0  0  0  0  0  0  0
   47.7193    8.6721   15.5118 H   0  0  0  0  0  0  0  0  0  0  0  0
   51.1744    6.4742   15.0011 H   0  0  0  0  0  0  0  0  0  0  0  0
   51.5760    8.1311   14.6280 H   0  0  0  0  0  0  0  0  0  0  0  0
   49.3482    9.5934   17.1989 H   0  0  0  0  0  0  0  0  0  0  0  0
   50.4705    9.9804   15.9270 H   0  0  0  0  0  0  0  0  0  0  0  0
   47.0298   10.0527   12.2996 H   0  0  0  0  0  0  0  0  0  0  0  0
   49.0998   14.5117   12.9752 H   0  0  0  0  0  0  0  0  0  0  0  0
   50.0071    5.9284   16.8841 H   0  0  0  0  0  0  0  0  0  0  0  0
   48.5469    6.8152   16.5527 H   0  0  0  0  0  0  0  0  0  0  0  0
   47.0450    5.9860   22.6377 H   0  0  0  0  0  0  0  0  0  0  0  0
   51.6676    8.8349   10.1313 H   0  0  0  0  0  0  0  0  0  0  0  0
   52.9071   13.4934   11.2742 H   0  0  0  0  0  0  0  0  0  0  0  0
   48.0409    4.0912   20.7620 H   0  0  0  0  0  0  0  0  0  0  0  0
   46.6238    5.1118   20.5584 H   0  0  0  0  0  0  0  0  0  0  0  0
   48.8986    8.0944   18.7294 H   0  0  0  0  0  0  0  0  0  0  0  0
   50.3887    7.1451   18.9897 H   0  0  0  0  0  0  0  0  0  0  0  0
   49.5082    6.1099   20.9373 H   0  0  0  0  0  0  0  0  0  0  0  0
   48.0874    7.1596   20.7704 H   0  0  0  0  0  0  0  0  0  0  0  0
   45.6689   12.1058   12.0226 H   0  0  0  0  0  0  0  0  0  0  0  0
   46.7110   14.3374   12.3760 H   0  0  0  0  0  0  0  0  0  0  0  0
   53.7459   12.4740    9.1857 H   0  0  0  0  0  0  0  0  0  0  0  0
   53.1113   10.1394    8.6029 H   0  0  0  0  0  0  0  0  0  0  0  0
   49.9801   10.1720   15.7716 H   0  0  0  0  0  0  0  0  0  0  0  0
   49.2681    7.9009   13.7753 H   0  0  0  0  0  0  0  0  0  0  0  0
   49.1600    7.9608   18.2372 H   0  0  0  0  0  0  0  0  0  0  0  0
   50.5350   11.5158   12.6587 H   0  0  0  0  0  0  0  0  0  0  0  0
  2  1  2  0
  3  1  1  0
  4  6  1  0
  5  1  1  0
  6  3  2  0
  7  2  1  0
  8  7  2  0
  9 13  1  0
 10  5  1  0
 11  5  1  0
 12 10  1  0
 13 11  1  0
 14  3  1  0
 15  6  1  0
 16  9  1  0
 17 21  1  0
 18  7  1  0
 19  8  1  0
 20 22  1  0
 21 23  1  0
 22 16  1  0
 23 20  1  0
 24 14  2  0
 25 15  2  0
 26 19  2  0
 27 18  2  0
  9 12  1  0
  8  4  1  0
 24 25  1  0
 27 26  1  0
 29 28  2  0
 30 28  1  0
 31 33  1  0
 32 28  1  0
 33 30  2  0
 34 29  1  0
 35 34  2  0
 36 40  1  0
 37 32  1  0
 38 32  1  0
 39 37  1  0
 40 38  1  0
 41 30  1  0
 42 33  1  0
 43 36  1  0
 44 48  1  0
 45 34  1  0
 46 35  1  0
 47 49  1  0
 48 50  1  0
 49 43  1  0
 50 47  1  0
 51 41  2  0
 52 42  2  0
 53 46  2  0
 54 45  2  0
 36 39  1  0
 35 31  1  0
 51 52  1  0
 54 53  1  0
 56 58  1  0
 57 55  1  0
 58 57  2  0
 59 55  2  0
 60 56  2  0
 61 55  1  0
 62 56  1  0
 10 63  1  0
 10 64  1  0
 11 65  1  0
 11 66  1  0
 12 67  1  0
 12 68  1  0
 13 69  1  0
 13 70  1  0
 14 71  1  0
 15 72  1  0
 16 73  1  0
 16 74  1  0
 17 75  1  0
 18 76  1  0
 19 77  1  0
 21 78  1  0
 21 79  1  0
 22 80  1  0
 22 81  1  0
 23 82  1  0
 23 83  1  0
 24 84  1  0
 25 85  1  0
 26 86  1  0
 27 87  1  0
 37 88  1  0
 37 89  1  0
 38 90  1  0
 38 91  1  0
 39 92  1  0
 39 93  1  0
 40 94  1  0
 40 95  1  0
 41 96  1  0
 42 97  1  0
 43 98  1  0
 43 99  1  0
 44100  1  0
 45101  1  0
 46102  1  0
 48103  1  0
 48104  1  0
 49105  1  0
 49106  1  0
 50107  1  0
 50108  1  0
 51109  1  0
 52110  1  0
 53111  1  0
 54112  1  0
 57113  1  0
 58114  1  0
 61115  1  0
 62116  1  0
M  END
> <Uni-Dock RESULT> 
ENERGY=   -4.448  LOWER_BOUND=    4.877  UPPER_BOUND=    7.669
INTER + INTRA:          -4.448
INTER:                  -4.448
INTRA:                   0.000
UNBOUND:                 0.000

$$$$

     RDKit          3D

116121  0  0  0  0  0  0  0  0999 V2000
   48.7240   13.1222   17.4543 C   0  0  0  0  0  0  0  0  0  0  0  0
   49.5998   14.0360   17.7749 N   0  0  0  0  0  0  0  0  0  0  0  0
   48.2227   12.0313   18.3515 C   0  0  0  0  0  0  0  0  0  0  0  0
   47.8271   13.9018   20.4098 S   0  0  0  0  0  0  0  0  0  0  0  0
   48.1919   13.1435   16.1619 N   0  0  0  0  0  0  0  0  0  0  0  0
   47.7619   12.2825   19.6539 C   0  0  0  0  0  0  0  0  0  0  0  0
   50.2490   14.1086   19.0190 C   0  0  0  0  0  0  0  0  0  0  0  0
   49.5935   14.1397   20.2649 C   0  0  0  0  0  0  0  0  0  0  0  0
   48.2400   14.6653   13.5445 N   0  0  0  0  0  0  0  0  0  0  0  0
   49.1598   12.8920   15.0653 C   0  0  0  0  0  0  0  0  0  0  0  0
   47.2781   14.2812   15.8728 C   0  0  0  0  0  0  0  0  0  0  0  0
   48.5451   13.2292   13.6949 C   0  0  0  0  0  0  0  0  0  0  0  0
   47.8715   15.2708   14.8462 C   0  0  0  0  0  0  0  0  0  0  0  0
   48.1663   10.7273   17.8334 C   0  0  0  0  0  0  0  0  0  0  0  0
   47.2499   11.2210   20.4170 C   0  0  0  0  0  0  0  0  0  0  0  0
   47.2455   14.9439   12.4924 C   0  0  0  0  0  0  0  0  0  0  0  0
   49.3054   13.4184    7.2687 O   0  0  0  0  0  0  0  0  0  0  0  0
   51.6430   14.2584   18.9920 C   0  0  0  0  0  0  0  0  0  0  0  0
   50.3327   14.3093   21.4448 C   0  0  0  0  0  0  0  0  0  0  0  0
   48.8135   14.8734   10.6211 O   0  0  0  0  0  0  0  0  0  0  0  0
   48.7127   14.2694    8.2421 C   0  0  0  0  0  0  0  0  0  0  0  0
   47.5732   14.3569   11.1036 C   0  0  0  0  0  0  0  0  0  0  0  0
   49.3972   14.0792    9.5909 C   0  0  0  0  0  0  0  0  0  0  0  0
   47.6659    9.6766   18.6048 C   0  0  0  0  0  0  0  0  0  0  0  0
   47.2118    9.9243   19.9006 C   0  0  0  0  0  0  0  0  0  0  0  0
   51.7192   14.4443   21.3962 C   0  0  0  0  0  0  0  0  0  0  0  0
   52.3760   14.4185   20.1693 C   0  0  0  0  0  0  0  0  0  0  0  0
   49.2633   13.7132   13.6369 C   0  0  0  0  0  0  0  0  0  0  0  0
   48.9550   14.9062   13.2092 N   0  0  0  0  0  0  0  0  0  0  0  0
   49.1149   12.4671   12.8164 C   0  0  0  0  0  0  0  0  0  0  0  0
   46.4737   13.1793   12.2345 S   0  0  0  0  0  0  0  0  0  0  0  0
   49.7916   13.5715   14.9314 N   0  0  0  0  0  0  0  0  0  0  0  0
   47.9063   12.1156   12.2021 C   0  0  0  0  0  0  0  0  0  0  0  0
   48.4003   15.1939   11.9511 C   0  0  0  0  0  0  0  0  0  0  0  0
   47.2435   14.5855   11.4325 C   0  0  0  0  0  0  0  0  0  0  0  0
   48.2635   14.3785   17.3649 N   0  0  0  0  0  0  0  0  0  0  0  0
   50.1516   14.7957   15.6828 C   0  0  0  0  0  0  0  0  0  0  0  0
   49.2034   12.5536   15.8334 C   0  0  0  0  0  0  0  0  0  0  0  0
   48.9272   15.3516   16.4505 C   0  0  0  0  0  0  0  0  0  0  0  0
   47.9881   13.1386   16.5964 C   0  0  0  0  0  0  0  0  0  0  0  0
   50.2234   11.6130   12.7269 C   0  0  0  0  0  0  0  0  0  0  0  0
   47.8169   10.8949   11.5173 C   0  0  0  0  0  0  0  0  0  0  0  0
   49.0769   14.1465   18.5712 C   0  0  0  0  0  0  0  0  0  0  0  0
   48.8594   11.9660   24.2250 O   0  0  0  0  0  0  0  0  0  0  0  0
   48.9735   16.2535   11.2368 C   0  0  0  0  0  0  0  0  0  0  0  0
   46.6843   15.0411   10.2272 C   0  0  0  0  0  0  0  0  0  0  0  0
   49.1895   13.2955   20.8250 O   0  0  0  0  0  0  0  0  0  0  0  0
   49.4938   12.5500   23.0949 C   0  0  0  0  0  0  0  0  0  0  0  0
   48.3123   13.4356   19.6985 C   0  0  0  0  0  0  0  0  0  0  0  0
   48.5113   12.7226   21.9420 C   0  0  0  0  0  0  0  0  0  0  0  0
   50.1300   10.4068   12.0299 C   0  0  0  0  0  0  0  0  0  0  0  0
   48.9240   10.0471   11.4299 C   0  0  0  0  0  0  0  0  0  0  0  0
   47.2721   16.0982    9.5319 C   0  0  0  0  0  0  0  0  0  0  0  0
   48.4201   16.7010   10.0336 C   0  0  0  0  0  0  0  0  0  0  0  0
   48.7837   13.3922   17.3921 C   0  0  0  0  0  0  0  0  0  0  0  0
   49.0269   13.9735   13.6481 C   0  0  0  0  0  0  0  0  0  0  0  0
   48.4330   13.3889   15.9697 C   0  0  0  0  0  0  0  0  0  0  0  0
   49.2873   13.9285   15.0895 C   0  0  0  0  0  0  0  0  0  0  0  0
   49.7931   13.8375   17.9020 O   0  0  0  0  0  0  0  0  0  0  0  0
   49.7820   14.4559   12.8241 O   0  0  0  0  0  0  0  0  0  0  0  0
   47.8085   12.8133   18.1080 O   0  0  0  0  0  0  0  0  0  0  0  0
   47.8585   13.4211   13.2897 O   0  0  0  0  0  0  0  0  0  0  0  0
   49.4411   11.8320   15.0806 H   0  0  0  0  0  0  0  0  0  0  0  0
   50.0795   13.4754   15.2104 H   0  0  0  0  0  0  0  0  0  0  0  0
   47.0234   14.8227   16.7924 H   0  0  0  0  0  0  0  0  0  0  0  0
   46.3405   13.8652   15.4883 H   0  0  0  0  0  0  0  0  0  0  0  0
   49.2477   12.9272   12.9109 H   0  0  0  0  0  0  0  0  0  0  0  0
   47.6331   12.6308   13.5704 H   0  0  0  0  0  0  0  0  0  0  0  0
   47.1846   16.1160   14.7126 H   0  0  0  0  0  0  0  0  0  0  0  0
   48.7849   15.7057   15.2720 H   0  0  0  0  0  0  0  0  0  0  0  0
   48.5151   10.5206   16.8241 H   0  0  0  0  0  0  0  0  0  0  0  0
   46.8944   11.3943   21.4330 H   0  0  0  0  0  0  0  0  0  0  0  0
   47.1775   16.0348   12.3797 H   0  0  0  0  0  0  0  0  0  0  0  0
   46.2579   14.5820   12.8044 H   0  0  0  0  0  0  0  0  0  0  0  0
   48.8277   13.5632    6.4357 H   0  0  0  0  0  0  0  0  0  0  0  0
   52.1534   14.2621   18.0334 H   0  0  0  0  0  0  0  0  0  0  0  0
   49.8324   14.3254   22.4095 H   0  0  0  0  0  0  0  0  0  0  0  0
   47.6450   14.0349    8.3047 H   0  0  0  0  0  0  0  0  0  0  0  0
   48.8082   15.3107    7.9153 H   0  0  0  0  0  0  0  0  0  0  0  0
   46.7792   14.6479   10.4080 H   0  0  0  0  0  0  0  0  0  0  0  0
   47.5907   13.2621   11.1481 H   0  0  0  0  0  0  0  0  0  0  0  0
   50.4466   14.3819    9.5018 H   0  0  0  0  0  0  0  0  0  0  0  0
   49.4185   13.0207    9.8822 H   0  0  0  0  0  0  0  0  0  0  0  0
   47.6438    8.6680   18.2004 H   0  0  0  0  0  0  0  0  0  0  0  0
   46.8297    9.1092   20.5104 H   0  0  0  0  0  0  0  0  0  0  0  0
   52.2902   14.5749   22.3093 H   0  0  0  0  0  0  0  0  0  0  0  0
   53.4560   14.5380   20.1173 H   0  0  0  0  0  0  0  0  0  0  0  0
   50.9537   14.5524   16.3900 H   0  0  0  0  0  0  0  0  0  0  0  0
   50.5641   15.5615   15.0170 H   0  0  0  0  0  0  0  0  0  0  0  0
   48.8838   11.6576   15.2908 H   0  0  0  0  0  0  0  0  0  0  0  0
   49.9709   12.2189   16.5410 H   0  0  0  0  0  0  0  0  0  0  0  0
   49.2188   16.2494   17.0089 H   0  0  0  0  0  0  0  0  0  0  0  0
   48.1710   15.6903   15.7302 H   0  0  0  0  0  0  0  0  0  0  0  0
   47.5555   12.3669   17.2425 H   0  0  0  0  0  0  0  0  0  0  0  0
   47.2018   13.3728   15.8676 H   0  0  0  0  0  0  0  0  0  0  0  0
   51.1621   11.8924   13.1982 H   0  0  0  0  0  0  0  0  0  0  0  0
   46.8864   10.6028   11.0352 H   0  0  0  0  0  0  0  0  0  0  0  0
   49.4016   15.1132   18.9792 H   0  0  0  0  0  0  0  0  0  0  0  0
   50.0061   13.6050   18.3559 H   0  0  0  0  0  0  0  0  0  0  0  0
   48.5600   11.0773   23.9677 H   0  0  0  0  0  0  0  0  0  0  0  0
   49.8569   16.7448   11.6350 H   0  0  0  0  0  0  0  0  0  0  0  0
   45.7877   14.5727    9.8272 H   0  0  0  0  0  0  0  0  0  0  0  0
   49.9041   13.5195   23.3936 H   0  0  0  0  0  0  0  0  0  0  0  0
   50.3414   11.9249   22.7957 H   0  0  0  0  0  0  0  0  0  0  0  0
   47.9885   12.4369   19.3871 H   0  0  0  0  0  0  0  0  0  0  0  0
   47.4347   14.0263   19.9840 H   0  0  0  0  0  0  0  0  0  0  0  0
   47.6821   13.3719   22.2535 H   0  0  0  0  0  0  0  0  0  0  0  0
   48.0873   11.7461   21.6697 H   0  0  0  0  0  0  0  0  0  0  0  0
   50.9979    9.7550   11.9537 H   0  0  0  0  0  0  0  0  0  0  0  0
   48.8466    9.1095   10.8830 H   0  0  0  0  0  0  0  0  0  0  0  0
   46.8287   16.4488    8.6020 H   0  0  0  0  0  0  0  0  0  0  0  0
   48.8816   17.5305    9.5011 H   0  0  0  0  0  0  0  0  0  0  0  0
   47.4877   12.9425   15.6819 H   0  0  0  0  0  0  0  0  0  0  0  0
   50.2320   14.3692   15.3933 H   0  0  0  0  0  0  0  0  0  0  0  0
   48.1301   12.8639   19.0319 H   0  0  0  0  0  0  0  0  0  0  0  0
   47.8337   13.5352   12.3156 H   0  0  0  0  0  0  0  0  0  0  0  0
  2  1  2  0
  3  1  1  0
  4  6  1  0
  5  1  1  0
  6  3  2  0
  7  2  1  0
  8  7  2  0
  9 13  1  0
 10  5  1  0
 11  5  1  0
 12 10  1  0
 13 11  1  0
 14  3  1  0
 15  6  1  0
 16  9  1  0
 17 21  1  0
 18  7  1  0
 19  8  1  0
 20 22  1  0
 21 23  1  0
 22 16  1  0
 23 20  1  0
 24 14  2  0
 25 15  2  0
 26 19  2  0
 27 18  2  0
  9 12  1  0
  8  4  1  0
 24 25  1  0
 27 26  1  0
 29 28  2  0
 30 28  1  0
 31 33  1  0
 32 28  1  0
 33 30  2  0
 34 29  1  0
 35 34  2  0
 36 40  1  0
 37 32  1  0
 38 32  1  0
 39 37  1  0
 40 38  1  0
 41 30  1  0
 42 33  1  0
 43 36  1  0
 44 48  1  0
 45 34  1  0
 46 35  1  0
 47 49  1  0
 48 50  1  0
 49 43  1  0
 50 47  1  0
 51 41  2  0
 52 42  2  0
 53 46  2  0
 54 45  2  0
 36 39  1  0
 35 31  1  0
 51 52  1  0
 54 53  1  0
 56 58  1  0
 57 55  1  0
 58 57  2  0
 59 55  2  0
 60 56  2  0
 61 55  1  0
 62 56  1  0
 10 63  1  0
 10 64  1  0
 11 65  1  0
 11 66  1  0
 12 67  1  0
 12 68  1  0
 13 69  1  0
 13 70  1  0
 14 71  1  0
 15 72  1  0
 16 73  1  0
 16 74  1  0
 17 75  1  0
 18 76  1  0
 19 77  1  0
 21 78  1  0
 21 79  1  0
 22 80  1  0
 22 81  1  0
 23 82  1  0
 23 83  1  0
 24 84  1  0
 25 85  1  0
 26 86  1  0
 27 87  1  0
 37 88  1  0
 37 89  1  0
 38 90  1  0
 38 91  1  0
 39 92  1  0
 39 93  1  0
 40 94  1  0
 40 95  1  0
 41 96  1  0
 42 97  1  0
 43 98  1  0
 43 99  1  0
 44100  1  0
 45101  1  0
 46102  1  0
 48103  1  0
 48104  1  0
 49105  1  0
 49106  1  0
 50107  1  0
 50108  1  0
 51109  1  0
 52110  1  0
 53111  1  0
 54112  1  0
 57113  1  0
 58114  1  0
 61115  1  0
 62116  1  0
M  END
> <Uni-Dock RESULT> 
ENERGY=   -4.406  LOWER_BOUND=    7.113  UPPER_BOUND=   10.436
INTER + INTRA:          -4.406
INTER:                  -4.406
INTRA:                   0.000
UNBOUND:                 0.000

$$$$

     RDKit          3D

116121  0  0  0  0  0  0  0  0999 V2000
   48.8562    8.7097   14.7559 C   0  0  0  0  0  0  0  0  0  0  0  0
   48.6343    7.6650   14.0045 N   0  0  0  0  0  0  0  0  0  0  0  0
   48.6750    8.7784   16.2420 C   0  0  0  0  0  0  0  0  0  0  0  0
   50.0514    6.3459   16.5255 S   0  0  0  0  0  0  0  0  0  0  0  0
   49.3039    9.8818   14.1398 N   0  0  0  0  0  0  0  0  0  0  0  0
   49.2052    7.8093   17.1088 C   0  0  0  0  0  0  0  0  0  0  0  0
   48.1409    6.4383   14.4799 C   0  0  0  0  0  0  0  0  0  0  0  0
   48.7111    5.6990   15.5341 C   0  0  0  0  0  0  0  0  0  0  0  0
   50.0913   11.0683   11.4675 N   0  0  0  0  0  0  0  0  0  0  0  0
   48.3524   10.5116   13.1908 C   0  0  0  0  0  0  0  0  0  0  0  0
   50.6931    9.8273   13.6103 C   0  0  0  0  0  0  0  0  0  0  0  0
   49.0432   11.6056   12.3568 C   0  0  0  0  0  0  0  0  0  0  0  0
   50.7407    9.8787   12.0675 C   0  0  0  0  0  0  0  0  0  0  0  0
   47.9974    9.8886   16.7714 C   0  0  0  0  0  0  0  0  0  0  0  0
   49.0484    7.9693   18.4948 C   0  0  0  0  0  0  0  0  0  0  0  0
   51.0679   12.0848   11.0353 C   0  0  0  0  0  0  0  0  0  0  0  0
   48.4785   16.1710    7.8019 O   0  0  0  0  0  0  0  0  0  0  0  0
   47.0626    5.8808   13.7778 C   0  0  0  0  0  0  0  0  0  0  0  0
   48.1959    4.4379   15.8682 C   0  0  0  0  0  0  0  0  0  0  0  0
   49.7124   12.9990    9.2209 O   0  0  0  0  0  0  0  0  0  0  0  0
   49.4487   15.1836    8.1288 C   0  0  0  0  0  0  0  0  0  0  0  0
   50.4623   13.3462   10.3850 C   0  0  0  0  0  0  0  0  0  0  0  0
   48.7809   14.0032    8.8250 C   0  0  0  0  0  0  0  0  0  0  0  0
   47.8370   10.0324   18.1509 C   0  0  0  0  0  0  0  0  0  0  0  0
   48.3595    9.0678   19.0129 C   0  0  0  0  0  0  0  0  0  0  0  0
   47.1156    3.9075   15.1649 C   0  0  0  0  0  0  0  0  0  0  0  0
   46.5474    4.6289   14.1189 C   0  0  0  0  0  0  0  0  0  0  0  0
   48.7126   11.1364   11.7058 C   0  0  0  0  0  0  0  0  0  0  0  0
   49.6274   10.9423   10.7964 N   0  0  0  0  0  0  0  0  0  0  0  0
   48.1420   12.4811   12.0433 C   0  0  0  0  0  0  0  0  0  0  0  0
   50.7326   13.4954   12.3290 S   0  0  0  0  0  0  0  0  0  0  0  0
   48.2015   10.0278   12.4020 N   0  0  0  0  0  0  0  0  0  0  0  0
   48.9505   13.5721   12.3862 C   0  0  0  0  0  0  0  0  0  0  0  0
   50.2414   11.9548   10.0408 C   0  0  0  0  0  0  0  0  0  0  0  0
   50.8652   13.0900   10.5880 C   0  0  0  0  0  0  0  0  0  0  0  0
   49.9346    8.2765   14.0866 N   0  0  0  0  0  0  0  0  0  0  0  0
   48.5835    8.6721   11.9449 C   0  0  0  0  0  0  0  0  0  0  0  0
   48.1331   10.0853   13.8811 C   0  0  0  0  0  0  0  0  0  0  0  0
   49.9153    8.2254   12.5964 C   0  0  0  0  0  0  0  0  0  0  0  0
   49.4734    9.6235   14.5071 C   0  0  0  0  0  0  0  0  0  0  0  0
   46.7455   12.6065   12.0662 C   0  0  0  0  0  0  0  0  0  0  0  0
   48.3455   14.7780   12.7693 C   0  0  0  0  0  0  0  0  0  0  0  0
   49.1355    7.1817   14.6640 C   0  0  0  0  0  0  0  0  0  0  0  0
   48.1417    4.0722   19.7738 O   0  0  0  0  0  0  0  0  0  0  0  0
   50.3465   11.7364    8.6614 C   0  0  0  0  0  0  0  0  0  0  0  0
   51.5763   13.9746    9.7602 C   0  0  0  0  0  0  0  0  0  0  0  0
   48.5835    5.8611   16.6050 O   0  0  0  0  0  0  0  0  0  0  0  0
   47.9303    4.4036   18.4078 C   0  0  0  0  0  0  0  0  0  0  0  0
   49.3853    6.9662   16.1647 C   0  0  0  0  0  0  0  0  0  0  0  0
   48.8375    5.5495   17.9741 C   0  0  0  0  0  0  0  0  0  0  0  0
   46.1518   13.8155   12.4340 C   0  0  0  0  0  0  0  0  0  0  0  0
   46.9538   14.8989   12.7902 C   0  0  0  0  0  0  0  0  0  0  0  0
   51.6679   13.7376    8.3885 C   0  0  0  0  0  0  0  0  0  0  0  0
   51.0483   12.6215    7.8378 C   0  0  0  0  0  0  0  0  0  0  0  0
   48.9556    8.5928   14.5175 C   0  0  0  0  0  0  0  0  0  0  0  0
   49.0537   11.0742   11.6456 C   0  0  0  0  0  0  0  0  0  0  0  0
   49.2378    9.8130   13.7575 C   0  0  0  0  0  0  0  0  0  0  0  0
   48.8200    9.8974   12.4870 C   0  0  0  0  0  0  0  0  0  0  0  0
   48.3643    7.6035   14.1317 O   0  0  0  0  0  0  0  0  0  0  0  0
   48.6872   11.1812   10.4897 O   0  0  0  0  0  0  0  0  0  0  0  0
   49.4515    8.6989   15.7591 O   0  0  0  0  0  0  0  0  0  0  0  0
   49.7190   12.0608   12.2643 O   0  0  0  0  0  0  0  0  0  0  0  0
   47.5316   10.9616   13.7622 H   0  0  0  0  0  0  0  0  0  0  0  0
   47.9102    9.7614   12.5207 H   0  0  0  0  0  0  0  0  0  0  0  0
   51.2100    8.9244   13.9588 H   0  0  0  0  0  0  0  0  0  0  0  0
   51.2415   10.6789   14.0271 H   0  0  0  0  0  0  0  0  0  0  0  0
   48.2866   12.1169   11.7523 H   0  0  0  0  0  0  0  0  0  0  0  0
   49.4710   12.3451   13.0465 H   0  0  0  0  0  0  0  0  0  0  0  0
   51.7799    9.7786   11.7294 H   0  0  0  0  0  0  0  0  0  0  0  0
   50.2231    8.9939   11.6750 H   0  0  0  0  0  0  0  0  0  0  0  0
   47.5868   10.6491   16.1109 H   0  0  0  0  0  0  0  0  0  0  0  0
   49.4462    7.2239   19.1839 H   0  0  0  0  0  0  0  0  0  0  0  0
   51.7277   11.6169   10.2916 H   0  0  0  0  0  0  0  0  0  0  0  0
   51.6919   12.3904   11.8843 H   0  0  0  0  0  0  0  0  0  0  0  0
   48.9519   16.9051    7.3776 H   0  0  0  0  0  0  0  0  0  0  0  0
   46.6342    6.4328   12.9465 H   0  0  0  0  0  0  0  0  0  0  0  0
   48.6270    3.8671   16.6864 H   0  0  0  0  0  0  0  0  0  0  0  0
   50.2085   15.6420    8.7702 H   0  0  0  0  0  0  0  0  0  0  0  0
   49.9436   14.8480    7.2108 H   0  0  0  0  0  0  0  0  0  0  0  0
   51.2807   14.0103   10.0884 H   0  0  0  0  0  0  0  0  0  0  0  0
   49.8421   13.8866   11.1089 H   0  0  0  0  0  0  0  0  0  0  0  0
   48.0739   13.5356    8.1305 H   0  0  0  0  0  0  0  0  0  0  0  0
   48.1790   14.3334    9.6820 H   0  0  0  0  0  0  0  0  0  0  0  0
   47.2949   10.8863   18.5489 H   0  0  0  0  0  0  0  0  0  0  0  0
   48.2301    9.1685   20.0878 H   0  0  0  0  0  0  0  0  0  0  0  0
   46.7175    2.9323   15.4243 H   0  0  0  0  0  0  0  0  0  0  0  0
   45.7137    4.2191   13.5528 H   0  0  0  0  0  0  0  0  0  0  0  0
   47.7848    7.9708   12.2150 H   0  0  0  0  0  0  0  0  0  0  0  0
   48.6600    8.6297   10.8530 H   0  0  0  0  0  0  0  0  0  0  0  0
   47.9004   11.0920   14.2440 H   0  0  0  0  0  0  0  0  0  0  0  0
   47.3127    9.4445   14.2247 H   0  0  0  0  0  0  0  0  0  0  0  0
   50.1724    7.2156   12.2543 H   0  0  0  0  0  0  0  0  0  0  0  0
   50.7285    8.8697   12.2373 H   0  0  0  0  0  0  0  0  0  0  0  0
   49.4102    9.6912   15.5986 H   0  0  0  0  0  0  0  0  0  0  0  0
   50.2538   10.3406   14.2224 H   0  0  0  0  0  0  0  0  0  0  0  0
   46.1210   11.7602   11.7921 H   0  0  0  0  0  0  0  0  0  0  0  0
   48.9562   15.6364   13.0413 H   0  0  0  0  0  0  0  0  0  0  0  0
   49.4025    6.2391   14.1674 H   0  0  0  0  0  0  0  0  0  0  0  0
   48.0607    7.3019   14.4815 H   0  0  0  0  0  0  0  0  0  0  0  0
   47.8978    4.8485   20.3061 H   0  0  0  0  0  0  0  0  0  0  0  0
   49.8849   10.8536    8.2278 H   0  0  0  0  0  0  0  0  0  0  0  0
   52.0616   14.8513   10.1836 H   0  0  0  0  0  0  0  0  0  0  0  0
   48.1268    3.5129   17.8033 H   0  0  0  0  0  0  0  0  0  0  0  0
   46.8766    4.6620   18.2597 H   0  0  0  0  0  0  0  0  0  0  0  0
   49.1004    7.8513   16.7433 H   0  0  0  0  0  0  0  0  0  0  0  0
   50.4447    6.7474   16.3388 H   0  0  0  0  0  0  0  0  0  0  0  0
   49.8893    5.2623   18.1068 H   0  0  0  0  0  0  0  0  0  0  0  0
   48.6487    6.4285   18.6058 H   0  0  0  0  0  0  0  0  0  0  0  0
   45.0678   13.9093   12.4371 H   0  0  0  0  0  0  0  0  0  0  0  0
   46.4962   15.8443   13.0748 H   0  0  0  0  0  0  0  0  0  0  0  0
   52.2260   14.4248    7.7555 H   0  0  0  0  0  0  0  0  0  0  0  0
   51.1199   12.4254    6.7696 H   0  0  0  0  0  0  0  0  0  0  0  0
   49.7764   10.6093   14.2591 H   0  0  0  0  0  0  0  0  0  0  0  0
   48.2788    9.0921   11.9995 H   0  0  0  0  0  0  0  0  0  0  0  0
   49.2168    7.8470   16.1821 H   0  0  0  0  0  0  0  0  0  0  0  0
   49.7973   12.7577   11.5781 H   0  0  0  0  0  0  0  0  0  0  0  0
  2  1  2  0
  3  1  1  0
  4  6  1  0
  5  1  1  0
  6  3  2  0
  7  2  1  0
  8  7  2  0
  9 13  1  0
 10  5  1  0
 11  5  1  0
 12 10  1  0
 13 11  1  0
 14  3  1  0
 15  6  1  0
 16  9  1  0
 17 21  1  0
 18  7  1  0
 19  8  1  0
 20 22  1  0
 21 23  1  0
 22 16  1  0
 23 20  1  0
 24 14  2  0
 25 15  2  0
 26 19  2  0
 27 18  2  0
  9 12  1  0
  8  4  1  0
 24 25  1  0
 27 26  1  0
 29 28  2  0
 30 28  1  0
 31 33  1  0
 32 28  1  0
 33 30  2  0
 34 29  1  0
 35 34  2  0
 36 40  1  0
 37 32  1  0
 38 32  1  0
 39 37  1  0
 40 38  1  0
 41 30  1  0
 42 33  1  0
 43 36  1  0
 44 48  1  0
 45 34  1  0
 46 35  1  0
 47 49  1  0
 48 50  1  0
 49 43  1  0
 50 47  1  0
 51 41  2  0
 52 42  2  0
 53 46  2  0
 54 45  2  0
 36 39  1  0
 35 31  1  0
 51 52  1  0
 54 53  1  0
 56 58  1  0
 57 55  1  0
 58 57  2  0
 59 55  2  0
 60 56  2  0
 61 55  1  0
 62 56  1  0
 10 63  1  0
 10 64  1  0
 11 65  1  0
 11 66  1  0
 12 67  1  0
 12 68  1  0
 13 69  1  0
 13 70  1  0
 14 71  1  0
 15 72  1  0
 16 73  1  0
 16 74  1  0
 17 75  1  0
 18 76  1  0
 19 77  1  0
 21 78  1  0
 21 79  1  0
 22 80  1  0
 22 81  1  0
 23 82  1  0
 23 83  1  0
 24 84  1  0
 25 85  1  0
 26 86  1  0
 27 87  1  0
 37 88  1  0
 37 89  1  0
 38 90  1  0
 38 91  1  0
 39 92  1  0
 39 93  1  0
 40 94  1  0
 40 95  1  0
 41 96  1  0
 42 97  1  0
 43 98  1  0
 43 99  1  0
 44100  1  0
 45101  1  0
 46102  1  0
 48103  1  0
 48104  1  0
 49105  1  0
 49106  1  0
 50107  1  0
 50108  1  0
 51109  1  0
 52110  1  0
 53111  1  0
 54112  1  0
 57113  1  0
 58114  1  0
 61115  1  0
 62116  1  0
M  END
> <Uni-Dock RESULT> 
ENERGY=   -4.321  LOWER_BOUND=    5.883  UPPER_BOUND=    8.692
INTER + INTRA:          -4.321
INTER:                  -4.321
INTRA:                   0.000
UNBOUND:                 0.000

$$$$

     RDKit          3D

116121  0  0  0  0  0  0  0  0999 V2000
   50.5653    7.9180   15.7388 C   0  0  0  0  0  0  0  0  0  0  0  0
   49.5367    8.6316   16.1099 N   0  0  0  0  0  0  0  0  0  0  0  0
   51.1644    6.7757   16.5019 C   0  0  0  0  0  0  0  0  0  0  0  0
   48.6012    5.7018   16.9126 S   0  0  0  0  0  0  0  0  0  0  0  0
   51.1799    8.2300   14.5227 N   0  0  0  0  0  0  0  0  0  0  0  0
   50.3862    5.7269   17.0177 C   0  0  0  0  0  0  0  0  0  0  0  0
   48.8512    8.4606   17.3245 C   0  0  0  0  0  0  0  0  0  0  0  0
   48.3098    7.2411   17.7749 C   0  0  0  0  0  0  0  0  0  0  0  0
   51.0209   10.0776   12.1290 N   0  0  0  0  0  0  0  0  0  0  0  0
   51.8225    9.5660   14.4526 C   0  0  0  0  0  0  0  0  0  0  0  0
   50.3795    7.9124   13.3097 C   0  0  0  0  0  0  0  0  0  0  0  0
   52.1996    9.9246   13.0039 C   0  0  0  0  0  0  0  0  0  0  0  0
   49.9214    9.1793   12.5545 C   0  0  0  0  0  0  0  0  0  0  0  0
   52.5608    6.7415   16.6465 C   0  0  0  0  0  0  0  0  0  0  0  0
   51.0213    4.6582   17.6702 C   0  0  0  0  0  0  0  0  0  0  0  0
   51.3364    9.9413   10.6953 C   0  0  0  0  0  0  0  0  0  0  0  0
   54.8991   14.2042    8.9658 O   0  0  0  0  0  0  0  0  0  0  0  0
   48.6151    9.6177   18.0806 C   0  0  0  0  0  0  0  0  0  0  0  0
   47.5602    7.1989   18.9597 C   0  0  0  0  0  0  0  0  0  0  0  0
   52.1220   12.2321   10.3785 O   0  0  0  0  0  0  0  0  0  0  0  0
   53.7504   13.3663    8.9305 C   0  0  0  0  0  0  0  0  0  0  0  0
   52.4626   10.8603   10.1779 C   0  0  0  0  0  0  0  0  0  0  0  0
   53.2471   13.1073   10.3460 C   0  0  0  0  0  0  0  0  0  0  0  0
   53.1816    5.6797   17.3072 C   0  0  0  0  0  0  0  0  0  0  0  0
   52.4090    4.6392   17.8239 C   0  0  0  0  0  0  0  0  0  0  0  0
   47.3477    8.3592   19.7024 C   0  0  0  0  0  0  0  0  0  0  0  0
   47.8755    9.5701   19.2637 C   0  0  0  0  0  0  0  0  0  0  0  0
   51.7376   10.6337   13.1964 C   0  0  0  0  0  0  0  0  0  0  0  0
   50.9010   10.8883   12.2286 N   0  0  0  0  0  0  0  0  0  0  0  0
   53.2282   10.7099   13.0542 C   0  0  0  0  0  0  0  0  0  0  0  0
   53.0817    9.0910   10.7784 S   0  0  0  0  0  0  0  0  0  0  0  0
   51.2290   10.2916   14.4610 N   0  0  0  0  0  0  0  0  0  0  0  0
   53.9201   10.0192   12.0513 C   0  0  0  0  0  0  0  0  0  0  0  0
   51.2658   11.2205   10.9134 C   0  0  0  0  0  0  0  0  0  0  0  0
   52.1374   10.4614   10.1126 C   0  0  0  0  0  0  0  0  0  0  0  0
   49.5310    7.8740   14.8863 N   0  0  0  0  0  0  0  0  0  0  0  0
   49.7717   10.4182   14.6916 C   0  0  0  0  0  0  0  0  0  0  0  0
   51.7684    9.0931   15.1454 C   0  0  0  0  0  0  0  0  0  0  0  0
   49.0307    9.1299   14.2570 C   0  0  0  0  0  0  0  0  0  0  0  0
   51.0030    7.8210   14.7012 C   0  0  0  0  0  0  0  0  0  0  0  0
   53.9338   11.4579   14.0075 C   0  0  0  0  0  0  0  0  0  0  0  0
   55.3214   10.0711   12.0273 C   0  0  0  0  0  0  0  0  0  0  0  0
   49.1190    7.7891   16.2983 C   0  0  0  0  0  0  0  0  0  0  0  0
   48.4912    3.9472   20.9472 O   0  0  0  0  0  0  0  0  0  0  0  0
   50.6050   12.3100   10.3319 C   0  0  0  0  0  0  0  0  0  0  0  0
   52.3297   10.7965    8.7620 C   0  0  0  0  0  0  0  0  0  0  0  0
   48.8360    6.4202   18.2635 O   0  0  0  0  0  0  0  0  0  0  0  0
   48.4363    5.2175   20.3116 C   0  0  0  0  0  0  0  0  0  0  0  0
   49.2984    6.3892   16.9058 C   0  0  0  0  0  0  0  0  0  0  0  0
   48.8906    5.1248   18.8593 C   0  0  0  0  0  0  0  0  0  0  0  0
   55.3282   11.5166   13.9669 C   0  0  0  0  0  0  0  0  0  0  0  0
   56.0207   10.8181   12.9786 C   0  0  0  0  0  0  0  0  0  0  0  0
   51.6613   11.8863    8.2035 C   0  0  0  0  0  0  0  0  0  0  0  0
   50.8031   12.6467    8.9897 C   0  0  0  0  0  0  0  0  0  0  0  0
   50.3494    8.0592   15.6213 C   0  0  0  0  0  0  0  0  0  0  0  0
   51.5214   10.4956   12.9556 C   0  0  0  0  0  0  0  0  0  0  0  0
   51.0301    8.5836   14.4347 C   0  0  0  0  0  0  0  0  0  0  0  0
   50.8824    9.8781   14.1209 C   0  0  0  0  0  0  0  0  0  0  0  0
   49.6385    8.6706   16.3945 O   0  0  0  0  0  0  0  0  0  0  0  0
   51.4070   11.6669   12.6445 O   0  0  0  0  0  0  0  0  0  0  0  0
   50.6169    6.7530   15.7656 O   0  0  0  0  0  0  0  0  0  0  0  0
   52.2713    9.6488   12.2350 O   0  0  0  0  0  0  0  0  0  0  0  0
   52.7314    9.5518   15.0662 H   0  0  0  0  0  0  0  0  0  0  0  0
   51.1630   10.3421   14.8648 H   0  0  0  0  0  0  0  0  0  0  0  0
   49.5014    7.3069   13.5671 H   0  0  0  0  0  0  0  0  0  0  0  0
   51.0012    7.2936   12.6536 H   0  0  0  0  0  0  0  0  0  0  0  0
   52.7664   10.8617   13.0102 H   0  0  0  0  0  0  0  0  0  0  0  0
   52.8623    9.1396   12.6167 H   0  0  0  0  0  0  0  0  0  0  0  0
   49.2904    8.8911   11.7043 H   0  0  0  0  0  0  0  0  0  0  0  0
   49.2661    9.7597   13.2167 H   0  0  0  0  0  0  0  0  0  0  0  0
   53.1752    7.5451   16.2466 H   0  0  0  0  0  0  0  0  0  0  0  0
   50.4339    3.8383   18.0842 H   0  0  0  0  0  0  0  0  0  0  0  0
   50.4268   10.1869   10.1300 H   0  0  0  0  0  0  0  0  0  0  0  0
   51.5967    8.9006   10.4657 H   0  0  0  0  0  0  0  0  0  0  0  0
   55.1903   14.3264    8.0475 H   0  0  0  0  0  0  0  0  0  0  0  0
   49.0065   10.5667   17.7263 H   0  0  0  0  0  0  0  0  0  0  0  0
   47.1475    6.2588   19.3160 H   0  0  0  0  0  0  0  0  0  0  0  0
   54.0182   12.4304    8.4293 H   0  0  0  0  0  0  0  0  0  0  0  0
   52.9688   13.8525    8.3364 H   0  0  0  0  0  0  0  0  0  0  0  0
   52.5879   10.6847    9.1044 H   0  0  0  0  0  0  0  0  0  0  0  0
   53.4109   10.6121   10.6676 H   0  0  0  0  0  0  0  0  0  0  0  0
   52.9324   14.0584   10.7900 H   0  0  0  0  0  0  0  0  0  0  0  0
   54.0504   12.7304   10.9928 H   0  0  0  0  0  0  0  0  0  0  0  0
   54.2616    5.6725   17.4293 H   0  0  0  0  0  0  0  0  0  0  0  0
   52.8848    3.8138   18.3479 H   0  0  0  0  0  0  0  0  0  0  0  0
   46.7682    8.3255   20.6189 H   0  0  0  0  0  0  0  0  0  0  0  0
   47.7037   10.4849   19.8267 H   0  0  0  0  0  0  0  0  0  0  0  0
   49.5982   10.6041   15.7584 H   0  0  0  0  0  0  0  0  0  0  0  0
   49.3624   11.2887   14.1675 H   0  0  0  0  0  0  0  0  0  0  0  0
   52.8363    8.9516   14.9480 H   0  0  0  0  0  0  0  0  0  0  0  0
   51.6786    9.2314   16.2291 H   0  0  0  0  0  0  0  0  0  0  0  0
   47.9563    9.2405   14.4478 H   0  0  0  0  0  0  0  0  0  0  0  0
   49.1217    9.0087   13.1697 H   0  0  0  0  0  0  0  0  0  0  0  0
   51.4281    6.9444   15.2020 H   0  0  0  0  0  0  0  0  0  0  0  0
   51.1931    7.6580   13.6327 H   0  0  0  0  0  0  0  0  0  0  0  0
   53.3934   11.9989   14.7799 H   0  0  0  0  0  0  0  0  0  0  0  0
   55.8773    9.5399   11.2576 H   0  0  0  0  0  0  0  0  0  0  0  0
   48.0495    8.0261   16.3772 H   0  0  0  0  0  0  0  0  0  0  0  0
   49.6199    8.5332   16.9295 H   0  0  0  0  0  0  0  0  0  0  0  0
   49.4208    3.6621   20.9550 H   0  0  0  0  0  0  0  0  0  0  0  0
   49.9148   12.8942   10.9341 H   0  0  0  0  0  0  0  0  0  0  0  0
   53.0016   10.2077    8.1414 H   0  0  0  0  0  0  0  0  0  0  0  0
   47.4070    5.5850   20.3656 H   0  0  0  0  0  0  0  0  0  0  0  0
   49.0563    5.9260   20.8705 H   0  0  0  0  0  0  0  0  0  0  0  0
   50.3523    6.0915   16.9070 H   0  0  0  0  0  0  0  0  0  0  0  0
   48.7176    5.6572   16.3336 H   0  0  0  0  0  0  0  0  0  0  0  0
   48.2421    4.4292   18.3100 H   0  0  0  0  0  0  0  0  0  0  0  0
   49.9153    4.7299   18.8181 H   0  0  0  0  0  0  0  0  0  0  0  0
   55.8685   12.1093   14.7021 H   0  0  0  0  0  0  0  0  0  0  0  0
   57.1073   10.8628   12.9406 H   0  0  0  0  0  0  0  0  0  0  0  0
   51.8115   12.1351    7.1547 H   0  0  0  0  0  0  0  0  0  0  0  0
   50.2727   13.4947    8.5605 H   0  0  0  0  0  0  0  0  0  0  0  0
   51.6353    7.8974   13.8529 H   0  0  0  0  0  0  0  0  0  0  0  0
   50.2750   10.5536   14.7156 H   0  0  0  0  0  0  0  0  0  0  0  0
   50.1241    6.4974   16.5727 H   0  0  0  0  0  0  0  0  0  0  0  0
   52.6165   10.2045   11.5039 H   0  0  0  0  0  0  0  0  0  0  0  0
  2  1  2  0
  3  1  1  0
  4  6  1  0
  5  1  1  0
  6  3  2  0
  7  2  1  0
  8  7  2  0
  9 13  1  0
 10  5  1  0
 11  5  1  0
 12 10  1  0
 13 11  1  0
 14  3  1  0
 15  6  1  0
 16  9  1  0
 17 21  1  0
 18  7  1  0
 19  8  1  0
 20 22  1  0
 21 23  1  0
 22 16  1  0
 23 20  1  0
 24 14  2  0
 25 15  2  0
 26 19  2  0
 27 18  2  0
  9 12  1  0
  8  4  1  0
 24 25  1  0
 27 26  1  0
 29 28  2  0
 30 28  1  0
 31 33  1  0
 32 28  1  0
 33 30  2  0
 34 29  1  0
 35 34  2  0
 36 40  1  0
 37 32  1  0
 38 32  1  0
 39 37  1  0
 40 38  1  0
 41 30  1  0
 42 33  1  0
 43 36  1  0
 44 48  1  0
 45 34  1  0
 46 35  1  0
 47 49  1  0
 48 50  1  0
 49 43  1  0
 50 47  1  0
 51 41  2  0
 52 42  2  0
 53 46  2  0
 54 45  2  0
 36 39  1  0
 35 31  1  0
 51 52  1  0
 54 53  1  0
 56 58  1  0
 57 55  1  0
 58 57  2  0
 59 55  2  0
 60 56  2  0
 61 55  1  0
 62 56  1  0
 10 63  1  0
 10 64  1  0
 11 65  1  0
 11 66  1  0
 12 67  1  0
 12 68  1  0
 13 69  1  0
 13 70  1  0
 14 71  1  0
 15 72  1  0
 16 73  1  0
 16 74  1  0
 17 75  1  0
 18 76  1  0
 19 77  1  0
 21 78  1  0
 21 79  1  0
 22 80  1  0
 22 81  1  0
 23 82  1  0
 23 83  1  0
 24 84  1  0
 25 85  1  0
 26 86  1  0
 27 87  1  0
 37 88  1  0
 37 89  1  0
 38 90  1  0
 38 91  1  0
 39 92  1  0
 39 93  1  0
 40 94  1  0
 40 95  1  0
 41 96  1  0
 42 97  1  0
 43 98  1  0
 43 99  1  0
 44100  1  0
 45101  1  0
 46102  1  0
 48103  1  0
 48104  1  0
 49105  1  0
 49106  1  0
 50107  1  0
 50108  1  0
 51109  1  0
 52110  1  0
 53111  1  0
 54112  1  0
 57113  1  0
 58114  1  0
 61115  1  0
 62116  1  0
M  END
> <Uni-Dock RESULT> 
ENERGY=   -4.305  LOWER_BOUND=    5.655  UPPER_BOUND=    8.276
INTER + INTRA:          -4.305
INTER:                  -4.305
INTRA:                   0.000
UNBOUND:                 0.000

$$$$
