
     RDKit          3D

116121  0  0  0  0  0  0  0  0999 V2000
   49.3779    6.7475   17.0309 C   0  0  0  0  0  0  0  0  0  0  0  0
   50.2214    7.4083   17.7840 N   0  0  0  0  0  0  0  0  0  0  0  0
   49.0240    5.3032   17.2434 C   0  0  0  0  0  0  0  0  0  0  0  0
   51.7486    4.6670   17.3093 S   0  0  0  0  0  0  0  0  0  0  0  0
   48.7595    7.4424   15.9814 N   0  0  0  0  0  0  0  0  0  0  0  0
   50.0016    4.3009   17.3047 C   0  0  0  0  0  0  0  0  0  0  0  0
   50.9378    6.8593   18.8591 C   0  0  0  0  0  0  0  0  0  0  0  0
   51.7380    5.7036   18.7727 C   0  0  0  0  0  0  0  0  0  0  0  0
   48.5943    8.9368   13.3609 N   0  0  0  0  0  0  0  0  0  0  0  0
   48.9524    8.9090   15.8865 C   0  0  0  0  0  0  0  0  0  0  0  0
   48.3676    6.7895   14.7157 C   0  0  0  0  0  0  0  0  0  0  0  0
   48.2095    9.5086   14.6742 C   0  0  0  0  0  0  0  0  0  0  0  0
   49.0049    7.5174   13.5106 C   0  0  0  0  0  0  0  0  0  0  0  0
   47.6638    4.9666   17.3108 C   0  0  0  0  0  0  0  0  0  0  0  0
   49.6008    2.9635   17.4120 C   0  0  0  0  0  0  0  0  0  0  0  0
   49.6768    9.6920   12.6878 C   0  0  0  0  0  0  0  0  0  0  0  0
   45.6640   10.6393   11.8984 O   0  0  0  0  0  0  0  0  0  0  0  0
   50.9460    7.5926   20.0518 C   0  0  0  0  0  0  0  0  0  0  0  0
   52.5181    5.3052   19.8680 C   0  0  0  0  0  0  0  0  0  0  0  0
   48.2790   10.7785   11.0452 O   0  0  0  0  0  0  0  0  0  0  0  0
   46.2700   11.9258   11.7987 C   0  0  0  0  0  0  0  0  0  0  0  0
   49.2191   11.0322   12.0937 C   0  0  0  0  0  0  0  0  0  0  0  0
   47.4072   11.8838   10.7785 C   0  0  0  0  0  0  0  0  0  0  0  0
   47.2764    3.6346   17.4314 C   0  0  0  0  0  0  0  0  0  0  0  0
   48.2462    2.6341   17.4766 C   0  0  0  0  0  0  0  0  0  0  0  0
   52.5065    6.0481   21.0505 C   0  0  0  0  0  0  0  0  0  0  0  0
   51.7138    7.1873   21.1462 C   0  0  0  0  0  0  0  0  0  0  0  0
   50.1958    6.8018   17.0716 C   0  0  0  0  0  0  0  0  0  0  0  0
   51.3344    6.2423   16.7528 N   0  0  0  0  0  0  0  0  0  0  0  0
   49.3446    6.4286   18.2450 C   0  0  0  0  0  0  0  0  0  0  0  0
   49.5224    3.7362   17.4958 S   0  0  0  0  0  0  0  0  0  0  0  0
   49.7076    7.8405   16.2739 N   0  0  0  0  0  0  0  0  0  0  0  0
   48.9575    5.1056   18.4938 C   0  0  0  0  0  0  0  0  0  0  0  0
   51.9222    5.1763   17.4572 C   0  0  0  0  0  0  0  0  0  0  0  0
   51.2742    3.9710   17.7810 C   0  0  0  0  0  0  0  0  0  0  0  0
   49.2333    9.6479   13.9886 N   0  0  0  0  0  0  0  0  0  0  0  0
   50.6880    8.8819   15.8901 C   0  0  0  0  0  0  0  0  0  0  0  0
   48.9627    7.3835   15.0787 C   0  0  0  0  0  0  0  0  0  0  0  0
   49.9723   10.0610   15.2066 C   0  0  0  0  0  0  0  0  0  0  0  0
   48.2952    8.5599   14.3405 C   0  0  0  0  0  0  0  0  0  0  0  0
   48.8942    7.4670   19.0776 C   0  0  0  0  0  0  0  0  0  0  0  0
   48.1128    4.8380   19.5813 C   0  0  0  0  0  0  0  0  0  0  0  0
   48.5336   10.7986   13.3931 C   0  0  0  0  0  0  0  0  0  0  0  0
   43.8700   11.4694   10.7074 O   0  0  0  0  0  0  0  0  0  0  0  0
   53.2884    5.2911   17.7506 C   0  0  0  0  0  0  0  0  0  0  0  0
   51.9866    2.9265   18.3900 C   0  0  0  0  0  0  0  0  0  0  0  0
   47.4784   11.7392   11.3985 O   0  0  0  0  0  0  0  0  0  0  0  0
   45.2524   11.1550   10.5805 C   0  0  0  0  0  0  0  0  0  0  0  0
   48.0276   10.5431   11.9611 C   0  0  0  0  0  0  0  0  0  0  0  0
   46.0765   11.8932   11.6327 C   0  0  0  0  0  0  0  0  0  0  0  0
   48.0722    7.1835   20.1700 C   0  0  0  0  0  0  0  0  0  0  0  0
   47.6817    5.8700   20.4206 C   0  0  0  0  0  0  0  0  0  0  0  0
   53.3389    3.0698   18.6828 C   0  0  0  0  0  0  0  0  0  0  0  0
   53.9917    4.2525   18.3650 C   0  0  0  0  0  0  0  0  0  0  0  0
   50.0530    7.4102   17.4781 C   0  0  0  0  0  0  0  0  0  0  0  0
   48.0863    8.6492   14.4745 C   0  0  0  0  0  0  0  0  0  0  0  0
   49.0063    7.9251   16.5936 C   0  0  0  0  0  0  0  0  0  0  0  0
   49.1895    8.1240   15.2797 C   0  0  0  0  0  0  0  0  0  0  0  0
   49.8916    7.1403   18.6535 O   0  0  0  0  0  0  0  0  0  0  0  0
   46.9830    8.9814   14.8687 O   0  0  0  0  0  0  0  0  0  0  0  0
   51.2413    7.2480   16.8740 O   0  0  0  0  0  0  0  0  0  0  0  0
   48.4654    8.7845   13.1968 O   0  0  0  0  0  0  0  0  0  0  0  0
   48.5621    9.3803   16.7978 H   0  0  0  0  0  0  0  0  0  0  0  0
   50.0201    9.1431   15.8122 H   0  0  0  0  0  0  0  0  0  0  0  0
   48.7071    5.7505   14.6856 H   0  0  0  0  0  0  0  0  0  0  0  0
   47.2725    6.7887   14.6236 H   0  0  0  0  0  0  0  0  0  0  0  0
   48.3157   10.6005   14.6900 H   0  0  0  0  0  0  0  0  0  0  0  0
   47.1293    9.3247   14.8024 H   0  0  0  0  0  0  0  0  0  0  0  0
   48.7330    6.9916   12.5903 H   0  0  0  0  0  0  0  0  0  0  0  0
   50.0940    7.4448   13.6196 H   0  0  0  0  0  0  0  0  0  0  0  0
   46.9082    5.7479   17.2676 H   0  0  0  0  0  0  0  0  0  0  0  0
   50.3414    2.1736   17.4701 H   0  0  0  0  0  0  0  0  0  0  0  0
   50.0455    9.0869   11.8489 H   0  0  0  0  0  0  0  0  0  0  0  0
   50.5173    9.8619   13.3741 H   0  0  0  0  0  0  0  0  0  0  0  0
   46.4027    9.9938   11.8526 H   0  0  0  0  0  0  0  0  0  0  0  0
   50.3574    8.4993   20.1126 H   0  0  0  0  0  0  0  0  0  0  0  0
   53.1391    4.4133   19.8029 H   0  0  0  0  0  0  0  0  0  0  0  0
   46.6323   12.1938   12.7949 H   0  0  0  0  0  0  0  0  0  0  0  0
   45.5051   12.6488   11.4986 H   0  0  0  0  0  0  0  0  0  0  0  0
   48.8024   11.6903   12.8627 H   0  0  0  0  0  0  0  0  0  0  0  0
   50.0765   11.5465   11.6471 H   0  0  0  0  0  0  0  0  0  0  0  0
   47.9675   12.8243   10.7475 H   0  0  0  0  0  0  0  0  0  0  0  0
   46.9873   11.7052    9.7836 H   0  0  0  0  0  0  0  0  0  0  0  0
   46.2179    3.3764   17.4849 H   0  0  0  0  0  0  0  0  0  0  0  0
   47.9449    1.5973   17.5625 H   0  0  0  0  0  0  0  0  0  0  0  0
   53.1192    5.7365   21.8952 H   0  0  0  0  0  0  0  0  0  0  0  0
   51.7058    7.7726   22.0589 H   0  0  0  0  0  0  0  0  0  0  0  0
   51.1998    9.2457   16.7850 H   0  0  0  0  0  0  0  0  0  0  0  0
   51.4489    8.4678   15.2164 H   0  0  0  0  0  0  0  0  0  0  0  0
   49.6408    6.8476   14.3994 H   0  0  0  0  0  0  0  0  0  0  0  0
   48.1859    6.6705   15.3775 H   0  0  0  0  0  0  0  0  0  0  0  0
   50.7323   10.8058   14.9362 H   0  0  0  0  0  0  0  0  0  0  0  0
   49.2900   10.5399   15.9266 H   0  0  0  0  0  0  0  0  0  0  0  0
   47.4793    8.9455   14.9644 H   0  0  0  0  0  0  0  0  0  0  0  0
   47.8507    8.1541   13.4268 H   0  0  0  0  0  0  0  0  0  0  0  0
   49.1859    8.4909   18.8754 H   0  0  0  0  0  0  0  0  0  0  0  0
   47.8025    3.8193   19.7953 H   0  0  0  0  0  0  0  0  0  0  0  0
   49.2146   11.6628   13.3402 H   0  0  0  0  0  0  0  0  0  0  0  0
   47.7012   11.1258   14.0271 H   0  0  0  0  0  0  0  0  0  0  0  0
   43.7471   12.3623   10.3310 H   0  0  0  0  0  0  0  0  0  0  0  0
   53.8133    6.2067   17.4776 H   0  0  0  0  0  0  0  0  0  0  0  0
   51.4802    1.9972   18.6384 H   0  0  0  0  0  0  0  0  0  0  0  0
   45.5905   11.4027    9.5630 H   0  0  0  0  0  0  0  0  0  0  0  0
   45.3629   10.0748   10.7014 H   0  0  0  0  0  0  0  0  0  0  0  0
   48.8681   10.2562   11.3229 H   0  0  0  0  0  0  0  0  0  0  0  0
   47.3021    9.7262   11.9207 H   0  0  0  0  0  0  0  0  0  0  0  0
   45.8095   11.5835   12.6471 H   0  0  0  0  0  0  0  0  0  0  0  0
   45.8614   12.9675   11.5814 H   0  0  0  0  0  0  0  0  0  0  0  0
   47.7371    7.9857   20.8202 H   0  0  0  0  0  0  0  0  0  0  0  0
   47.0476    5.6446   21.2763 H   0  0  0  0  0  0  0  0  0  0  0  0
   53.8830    2.2590   19.1587 H   0  0  0  0  0  0  0  0  0  0  0  0
   55.0527    4.3693   18.5831 H   0  0  0  0  0  0  0  0  0  0  0  0
   48.0579    8.1286   17.0786 H   0  0  0  0  0  0  0  0  0  0  0  0
   50.1201    7.9088   14.7701 H   0  0  0  0  0  0  0  0  0  0  0  0
   51.8207    6.8850   17.5797 H   0  0  0  0  0  0  0  0  0  0  0  0
   47.6724    9.1476   12.7492 H   0  0  0  0  0  0  0  0  0  0  0  0
  2  1  2  0
  3  1  1  0
  4  6  1  0
  5  1  1  0
  6  3  2  0
  7  2  1  0
  8  7  2  0
  9 13  1  0
 10  5  1  0
 11  5  1  0
 12 10  1  0
 13 11  1  0
 14  3  1  0
 15  6  1  0
 16  9  1  0
 17 21  1  0
 18  7  1  0
 19  8  1  0
 20 22  1  0
 21 23  1  0
 22 16  1  0
 23 20  1  0
 24 14  2  0
 25 15  2  0
 26 19  2  0
 27 18  2  0
  9 12  1  0
  8  4  1  0
 24 25  1  0
 27 26  1  0
 29 28  2  0
 30 28  1  0
 31 33  1  0
 32 28  1  0
 33 30  2  0
 34 29  1  0
 35 34  2  0
 36 40  1  0
 37 32  1  0
 38 32  1  0
 39 37  1  0
 40 38  1  0
 41 30  1  0
 42 33  1  0
 43 36  1  0
 44 48  1  0
 45 34  1  0
 46 35  1  0
 47 49  1  0
 48 50  1  0
 49 43  1  0
 50 47  1  0
 51 41  2  0
 52 42  2  0
 53 46  2  0
 54 45  2  0
 36 39  1  0
 35 31  1  0
 51 52  1  0
 54 53  1  0
 56 58  1  0
 57 55  1  0
 58 57  2  0
 59 55  2  0
 60 56  2  0
 61 55  1  0
 62 56  1  0
 10 63  1  0
 10 64  1  0
 11 65  1  0
 11 66  1  0
 12 67  1  0
 12 68  1  0
 13 69  1  0
 13 70  1  0
 14 71  1  0
 15 72  1  0
 16 73  1  0
 16 74  1  0
 17 75  1  0
 18 76  1  0
 19 77  1  0
 21 78  1  0
 21 79  1  0
 22 80  1  0
 22 81  1  0
 23 82  1  0
 23 83  1  0
 24 84  1  0
 25 85  1  0
 26 86  1  0
 27 87  1  0
 37 88  1  0
 37 89  1  0
 38 90  1  0
 38 91  1  0
 39 92  1  0
 39 93  1  0
 40 94  1  0
 40 95  1  0
 41 96  1  0
 42 97  1  0
 43 98  1  0
 43 99  1  0
 44100  1  0
 45101  1  0
 46102  1  0
 48103  1  0
 48104  1  0
 49105  1  0
 49106  1  0
 50107  1  0
 50108  1  0
 51109  1  0
 52110  1  0
 53111  1  0
 54112  1  0
 57113  1  0
 58114  1  0
 61115  1  0
 62116  1  0
M  END
> <Uni-Dock RESULT> 
ENERGY=   -6.152  LOWER_BOUND=    0.000  UPPER_BOUND=    0.000
INTER + INTRA:          -6.152
INTER:                  -6.152
INTRA:                   0.000
UNBOUND:                 0.000

$$$$

     RDKit          3D

116121  0  0  0  0  0  0  0  0999 V2000
   51.8750    8.6353   13.7900 C   0  0  0  0  0  0  0  0  0  0  0  0
   51.8013    9.0575   15.0275 N   0  0  0  0  0  0  0  0  0  0  0  0
   53.1292    8.6848   12.9647 C   0  0  0  0  0  0  0  0  0  0  0  0
   53.4263   11.3902   13.6167 S   0  0  0  0  0  0  0  0  0  0  0  0
   50.7170    8.0884   13.2185 N   0  0  0  0  0  0  0  0  0  0  0  0
   53.8425    9.8753   12.7694 C   0  0  0  0  0  0  0  0  0  0  0  0
   52.8583    9.6468   15.7388 C   0  0  0  0  0  0  0  0  0  0  0  0
   53.6049   10.7504   15.2824 C   0  0  0  0  0  0  0  0  0  0  0  0
   47.8929    8.0755   12.1452 N   0  0  0  0  0  0  0  0  0  0  0  0
   49.5363    7.8565   14.0841 C   0  0  0  0  0  0  0  0  0  0  0  0
   50.4123    8.1972   11.7773 C   0  0  0  0  0  0  0  0  0  0  0  0
   48.3537    7.2581   13.2939 C   0  0  0  0  0  0  0  0  0  0  0  0
   49.0242    8.8423   11.5641 C   0  0  0  0  0  0  0  0  0  0  0  0
   53.5384    7.5048   12.3259 C   0  0  0  0  0  0  0  0  0  0  0  0
   54.9512    9.8731   11.9142 C   0  0  0  0  0  0  0  0  0  0  0  0
   46.7956    9.0083   12.4930 C   0  0  0  0  0  0  0  0  0  0  0  0
   45.8974    5.1743   11.0382 O   0  0  0  0  0  0  0  0  0  0  0  0
   53.0864    9.1739   17.0367 C   0  0  0  0  0  0  0  0  0  0  0  0
   54.5567   11.3499   16.1201 C   0  0  0  0  0  0  0  0  0  0  0  0
   45.0194    7.7532   11.4433 O   0  0  0  0  0  0  0  0  0  0  0  0
   44.8150    5.3806   11.9426 C   0  0  0  0  0  0  0  0  0  0  0  0
   45.4370    8.3197   12.6891 C   0  0  0  0  0  0  0  0  0  0  0  0
   44.0857    6.6763   11.5889 C   0  0  0  0  0  0  0  0  0  0  0  0
   54.6507    7.5105   11.4884 C   0  0  0  0  0  0  0  0  0  0  0  0
   55.3527    8.6967   11.2797 C   0  0  0  0  0  0  0  0  0  0  0  0
   54.7725   10.8581   17.4091 C   0  0  0  0  0  0  0  0  0  0  0  0
   54.0438    9.7643   17.8652 C   0  0  0  0  0  0  0  0  0  0  0  0
   51.7935    9.3704   14.1454 C   0  0  0  0  0  0  0  0  0  0  0  0
   51.9119   10.6643   13.9943 N   0  0  0  0  0  0  0  0  0  0  0  0
   52.9117    8.4290   14.4679 C   0  0  0  0  0  0  0  0  0  0  0  0
   54.4315    9.5539   12.4023 S   0  0  0  0  0  0  0  0  0  0  0  0
   50.5309    8.7874   14.0056 N   0  0  0  0  0  0  0  0  0  0  0  0
   54.1012    8.4039   13.7285 C   0  0  0  0  0  0  0  0  0  0  0  0
   53.1258   11.3687   14.0864 C   0  0  0  0  0  0  0  0  0  0  0  0
   54.2972   11.0498   13.3768 C   0  0  0  0  0  0  0  0  0  0  0  0
   47.7162    8.3206   13.2483 N   0  0  0  0  0  0  0  0  0  0  0  0
   49.4161    9.4770   14.6946 C   0  0  0  0  0  0  0  0  0  0  0  0
   50.1541    8.4947   12.6039 C   0  0  0  0  0  0  0  0  0  0  0  0
   48.1414    8.6158   14.6384 C   0  0  0  0  0  0  0  0  0  0  0  0
   48.8417    7.6913   12.5239 C   0  0  0  0  0  0  0  0  0  0  0  0
   52.7126    7.5198   15.5206 C   0  0  0  0  0  0  0  0  0  0  0  0
   55.0833    7.4565   14.0535 C   0  0  0  0  0  0  0  0  0  0  0  0
   46.5190    7.4633   13.2447 C   0  0  0  0  0  0  0  0  0  0  0  0
   44.6420    3.5263   10.0214 O   0  0  0  0  0  0  0  0  0  0  0  0
   53.1189   12.5397   14.8574 C   0  0  0  0  0  0  0  0  0  0  0  0
   55.4222   11.8847   13.4573 C   0  0  0  0  0  0  0  0  0  0  0  0
   44.5941    6.6475   11.9775 O   0  0  0  0  0  0  0  0  0  0  0  0
   44.6815    4.9320   10.2412 C   0  0  0  0  0  0  0  0  0  0  0  0
   45.8161    7.3858   11.8765 C   0  0  0  0  0  0  0  0  0  0  0  0
   44.7469    5.2472   11.7338 C   0  0  0  0  0  0  0  0  0  0  0  0
   53.7080    6.5970   15.8478 C   0  0  0  0  0  0  0  0  0  0  0  0
   54.8918    6.5656   15.1141 C   0  0  0  0  0  0  0  0  0  0  0  0
   55.3947   13.0345   14.2398 C   0  0  0  0  0  0  0  0  0  0  0  0
   54.2437   13.3632   14.9421 C   0  0  0  0  0  0  0  0  0  0  0  0
   51.6136    8.9683   14.7469 C   0  0  0  0  0  0  0  0  0  0  0  0
   48.8793    7.4411   12.5983 C   0  0  0  0  0  0  0  0  0  0  0  0
   50.7342    8.0398   14.0346 C   0  0  0  0  0  0  0  0  0  0  0  0
   49.7101    8.4428   13.2676 C   0  0  0  0  0  0  0  0  0  0  0  0
   52.5987    8.6371   15.3797 O   0  0  0  0  0  0  0  0  0  0  0  0
   48.9783    6.2302   12.6827 O   0  0  0  0  0  0  0  0  0  0  0  0
   51.2426   10.2546   14.6415 O   0  0  0  0  0  0  0  0  0  0  0  0
   47.9107    8.0370   11.8904 O   0  0  0  0  0  0  0  0  0  0  0  0
   49.8101    7.1528   14.8807 H   0  0  0  0  0  0  0  0  0  0  0  0
   49.2237    8.7964   14.5522 H   0  0  0  0  0  0  0  0  0  0  0  0
   51.1459    8.8256   11.2648 H   0  0  0  0  0  0  0  0  0  0  0  0
   50.4429    7.1999   11.3164 H   0  0  0  0  0  0  0  0  0  0  0  0
   47.5342    7.0316   13.9874 H   0  0  0  0  0  0  0  0  0  0  0  0
   48.6647    6.2799   12.8898 H   0  0  0  0  0  0  0  0  0  0  0  0
   48.8401    8.9486   10.4907 H   0  0  0  0  0  0  0  0  0  0  0  0
   49.0605    9.8518   11.9916 H   0  0  0  0  0  0  0  0  0  0  0  0
   52.9849    6.5817   12.4838 H   0  0  0  0  0  0  0  0  0  0  0  0
   55.5222   10.7814   11.7566 H   0  0  0  0  0  0  0  0  0  0  0  0
   46.6716    9.7154   11.6620 H   0  0  0  0  0  0  0  0  0  0  0  0
   47.0476    9.5874   13.3916 H   0  0  0  0  0  0  0  0  0  0  0  0
   46.2921    6.0614   10.8899 H   0  0  0  0  0  0  0  0  0  0  0  0
   52.4929    8.3460   17.4038 H   0  0  0  0  0  0  0  0  0  0  0  0
   55.1335   12.2045   15.7703 H   0  0  0  0  0  0  0  0  0  0  0  0
   45.2352    5.4175   12.9513 H   0  0  0  0  0  0  0  0  0  0  0  0
   44.1381    4.5231   11.8770 H   0  0  0  0  0  0  0  0  0  0  0  0
   45.4794    7.5680   13.4836 H   0  0  0  0  0  0  0  0  0  0  0  0
   44.6876    9.0641   12.9777 H   0  0  0  0  0  0  0  0  0  0  0  0
   43.3120    6.9268   12.3225 H   0  0  0  0  0  0  0  0  0  0  0  0
   43.6038    6.5592   10.6131 H   0  0  0  0  0  0  0  0  0  0  0  0
   54.9671    6.5908   10.9943 H   0  0  0  0  0  0  0  0  0  0  0  0
   56.2133    8.7031   10.6221 H   0  0  0  0  0  0  0  0  0  0  0  0
   55.5088   11.3321   18.0566 H   0  0  0  0  0  0  0  0  0  0  0  0
   54.2013    9.3820   18.8675 H   0  0  0  0  0  0  0  0  0  0  0  0
   49.6857    9.6470   15.7404 H   0  0  0  0  0  0  0  0  0  0  0  0
   49.2241   10.4556   14.2367 H   0  0  0  0  0  0  0  0  0  0  0  0
   50.0569    9.4336   12.0404 H   0  0  0  0  0  0  0  0  0  0  0  0
   50.9496    7.9166   12.1203 H   0  0  0  0  0  0  0  0  0  0  0  0
   47.3419    9.1627   15.1553 H   0  0  0  0  0  0  0  0  0  0  0  0
   48.3084    7.6808   15.1962 H   0  0  0  0  0  0  0  0  0  0  0  0
   49.0270    6.6810   12.9092 H   0  0  0  0  0  0  0  0  0  0  0  0
   48.5858    7.6004   11.4640 H   0  0  0  0  0  0  0  0  0  0  0  0
   51.7864    7.5340   16.0830 H   0  0  0  0  0  0  0  0  0  0  0  0
   56.0147    7.4208   13.4960 H   0  0  0  0  0  0  0  0  0  0  0  0
   45.7785    7.8533   13.9609 H   0  0  0  0  0  0  0  0  0  0  0  0
   46.7563    6.4526   13.5968 H   0  0  0  0  0  0  0  0  0  0  0  0
   43.7346    3.2324   10.2316 H   0  0  0  0  0  0  0  0  0  0  0  0
   52.2085   12.8183   15.3886 H   0  0  0  0  0  0  0  0  0  0  0  0
   56.3253   11.6328   12.9069 H   0  0  0  0  0  0  0  0  0  0  0  0
   43.8019    5.3990    9.7731 H   0  0  0  0  0  0  0  0  0  0  0  0
   45.5638    5.3263    9.7314 H   0  0  0  0  0  0  0  0  0  0  0  0
   45.5452    8.3931   11.5479 H   0  0  0  0  0  0  0  0  0  0  0  0
   46.4637    6.9611   11.1048 H   0  0  0  0  0  0  0  0  0  0  0  0
   45.6653    4.8654   12.1887 H   0  0  0  0  0  0  0  0  0  0  0  0
   43.9233    4.7420   12.2528 H   0  0  0  0  0  0  0  0  0  0  0  0
   53.5577    5.9050   16.6706 H   0  0  0  0  0  0  0  0  0  0  0  0
   55.6732    5.8528   15.3720 H   0  0  0  0  0  0  0  0  0  0  0  0
   56.2708   13.6737   14.3014 H   0  0  0  0  0  0  0  0  0  0  0  0
   54.2112   14.2667   15.5501 H   0  0  0  0  0  0  0  0  0  0  0  0
   50.9765    6.9907   14.1644 H   0  0  0  0  0  0  0  0  0  0  0  0
   49.4619    9.4842   13.1066 H   0  0  0  0  0  0  0  0  0  0  0  0
   51.9294   10.7436   15.1461 H   0  0  0  0  0  0  0  0  0  0  0  0
   47.4102    7.2921   11.4958 H   0  0  0  0  0  0  0  0  0  0  0  0
  2  1  2  0
  3  1  1  0
  4  6  1  0
  5  1  1  0
  6  3  2  0
  7  2  1  0
  8  7  2  0
  9 13  1  0
 10  5  1  0
 11  5  1  0
 12 10  1  0
 13 11  1  0
 14  3  1  0
 15  6  1  0
 16  9  1  0
 17 21  1  0
 18  7  1  0
 19  8  1  0
 20 22  1  0
 21 23  1  0
 22 16  1  0
 23 20  1  0
 24 14  2  0
 25 15  2  0
 26 19  2  0
 27 18  2  0
  9 12  1  0
  8  4  1  0
 24 25  1  0
 27 26  1  0
 29 28  2  0
 30 28  1  0
 31 33  1  0
 32 28  1  0
 33 30  2  0
 34 29  1  0
 35 34  2  0
 36 40  1  0
 37 32  1  0
 38 32  1  0
 39 37  1  0
 40 38  1  0
 41 30  1  0
 42 33  1  0
 43 36  1  0
 44 48  1  0
 45 34  1  0
 46 35  1  0
 47 49  1  0
 48 50  1  0
 49 43  1  0
 50 47  1  0
 51 41  2  0
 52 42  2  0
 53 46  2  0
 54 45  2  0
 36 39  1  0
 35 31  1  0
 51 52  1  0
 54 53  1  0
 56 58  1  0
 57 55  1  0
 58 57  2  0
 59 55  2  0
 60 56  2  0
 61 55  1  0
 62 56  1  0
 10 63  1  0
 10 64  1  0
 11 65  1  0
 11 66  1  0
 12 67  1  0
 12 68  1  0
 13 69  1  0
 13 70  1  0
 14 71  1  0
 15 72  1  0
 16 73  1  0
 16 74  1  0
 17 75  1  0
 18 76  1  0
 19 77  1  0
 21 78  1  0
 21 79  1  0
 22 80  1  0
 22 81  1  0
 23 82  1  0
 23 83  1  0
 24 84  1  0
 25 85  1  0
 26 86  1  0
 27 87  1  0
 37 88  1  0
 37 89  1  0
 38 90  1  0
 38 91  1  0
 39 92  1  0
 39 93  1  0
 40 94  1  0
 40 95  1  0
 41 96  1  0
 42 97  1  0
 43 98  1  0
 43 99  1  0
 44100  1  0
 45101  1  0
 46102  1  0
 48103  1  0
 48104  1  0
 49105  1  0
 49106  1  0
 50107  1  0
 50108  1  0
 51109  1  0
 52110  1  0
 53111  1  0
 54112  1  0
 57113  1  0
 58114  1  0
 61115  1  0
 62116  1  0
M  END
> <Uni-Dock RESULT> 
ENERGY=   -5.038  LOWER_BOUND=    3.831  UPPER_BOUND=    6.147
INTER + INTRA:          -5.038
INTER:                  -5.038
INTRA:                   0.000
UNBOUND:                 0.000

$$$$

     RDKit          3D

116121  0  0  0  0  0  0  0  0999 V2000
   48.9710    8.6693   14.3116 C   0  0  0  0  0  0  0  0  0  0  0  0
   49.5024    8.0520   15.3372 N   0  0  0  0  0  0  0  0  0  0  0  0
   49.1759   10.1283   14.0181 C   0  0  0  0  0  0  0  0  0  0  0  0
   48.4382   10.7394   16.6477 S   0  0  0  0  0  0  0  0  0  0  0  0
   48.1843    7.9120   13.4318 N   0  0  0  0  0  0  0  0  0  0  0  0
   48.8952   11.1223   14.9652 C   0  0  0  0  0  0  0  0  0  0  0  0
   50.2963    8.6645   16.3196 C   0  0  0  0  0  0  0  0  0  0  0  0
   49.9131    9.8036   17.0539 C   0  0  0  0  0  0  0  0  0  0  0  0
   45.8199    6.2469   12.5571 N   0  0  0  0  0  0  0  0  0  0  0  0
   48.1384    6.4404   13.6036 C   0  0  0  0  0  0  0  0  0  0  0  0
   47.0366    8.4825   12.6974 C   0  0  0  0  0  0  0  0  0  0  0  0
   47.2238    5.7685   12.5581 C   0  0  0  0  0  0  0  0  0  0  0  0
   45.7536    7.6688   12.9806 C   0  0  0  0  0  0  0  0  0  0  0  0
   49.5962   10.4825   12.7274 C   0  0  0  0  0  0  0  0  0  0  0  0
   49.0195   12.4679   14.5982 C   0  0  0  0  0  0  0  0  0  0  0  0
   44.9247    5.4371   13.4162 C   0  0  0  0  0  0  0  0  0  0  0  0
   45.3485    4.4802    9.3508 O   0  0  0  0  0  0  0  0  0  0  0  0
   51.4861    8.0128   16.6658 C   0  0  0  0  0  0  0  0  0  0  0  0
   50.7187   10.2665   18.1043 C   0  0  0  0  0  0  0  0  0  0  0  0
   43.8128    4.2573   11.6262 O   0  0  0  0  0  0  0  0  0  0  0  0
   45.1709    3.1838    9.9165 C   0  0  0  0  0  0  0  0  0  0  0  0
   44.5730    4.0649   12.8231 C   0  0  0  0  0  0  0  0  0  0  0  0
   43.8742    3.1456   10.7245 C   0  0  0  0  0  0  0  0  0  0  0  0
   49.7300   11.8234   12.3771 C   0  0  0  0  0  0  0  0  0  0  0  0
   49.4361   12.8148   13.3122 C   0  0  0  0  0  0  0  0  0  0  0  0
   51.9049    9.6048   18.4289 C   0  0  0  0  0  0  0  0  0  0  0  0
   52.2938    8.4828   17.7042 C   0  0  0  0  0  0  0  0  0  0  0  0
   48.7861    8.6096   15.1089 C   0  0  0  0  0  0  0  0  0  0  0  0
   48.1262    9.1347   16.1089 N   0  0  0  0  0  0  0  0  0  0  0  0
   50.1221    9.0694   14.6146 C   0  0  0  0  0  0  0  0  0  0  0  0
   49.1737   11.7034   14.5531 S   0  0  0  0  0  0  0  0  0  0  0  0
   48.2276    7.5247   14.4273 N   0  0  0  0  0  0  0  0  0  0  0  0
   50.3792   10.4100   14.3003 C   0  0  0  0  0  0  0  0  0  0  0  0
   48.5659   10.2395   16.8600 C   0  0  0  0  0  0  0  0  0  0  0  0
   48.9753   11.4704   16.3171 C   0  0  0  0  0  0  0  0  0  0  0  0
   46.2915    5.5730   13.3518 N   0  0  0  0  0  0  0  0  0  0  0  0
   47.6571    6.4500   15.2714 C   0  0  0  0  0  0  0  0  0  0  0  0
   47.2588    7.9081   13.3752 C   0  0  0  0  0  0  0  0  0  0  0  0
   47.2807    5.2351   14.4042 C   0  0  0  0  0  0  0  0  0  0  0  0
   46.8164    6.6917   12.5391 C   0  0  0  0  0  0  0  0  0  0  0  0
   51.1151    8.0938   14.4230 C   0  0  0  0  0  0  0  0  0  0  0  0
   51.6382   10.7586   13.7893 C   0  0  0  0  0  0  0  0  0  0  0  0
   45.9930    4.3921   12.5243 C   0  0  0  0  0  0  0  0  0  0  0  0
   44.7623    3.5904    7.3036 O   0  0  0  0  0  0  0  0  0  0  0  0
   48.4747   10.1306   18.2549 C   0  0  0  0  0  0  0  0  0  0  0  0
   49.2903   12.5460   17.1615 C   0  0  0  0  0  0  0  0  0  0  0  0
   44.4387    3.3307   10.9641 O   0  0  0  0  0  0  0  0  0  0  0  0
   44.2350    3.8814    8.5933 C   0  0  0  0  0  0  0  0  0  0  0  0
   44.7445    4.5561   11.6376 C   0  0  0  0  0  0  0  0  0  0  0  0
   45.0635    3.2071    9.6842 C   0  0  0  0  0  0  0  0  0  0  0  0
   52.3714    8.4584   13.9349 C   0  0  0  0  0  0  0  0  0  0  0  0
   52.6318    9.7897   13.6180 C   0  0  0  0  0  0  0  0  0  0  0  0
   49.2043   12.4089   18.5431 C   0  0  0  0  0  0  0  0  0  0  0  0
   48.7978   11.2009   19.0921 C   0  0  0  0  0  0  0  0  0  0  0  0
   49.2562    8.0313   15.0903 C   0  0  0  0  0  0  0  0  0  0  0  0
   47.0089    6.6137   12.3765 C   0  0  0  0  0  0  0  0  0  0  0  0
   48.7347    7.4690   13.8435 C   0  0  0  0  0  0  0  0  0  0  0  0
   47.4382    7.1805   13.6556 C   0  0  0  0  0  0  0  0  0  0  0  0
   50.4093    8.3811   15.2600 O   0  0  0  0  0  0  0  0  0  0  0  0
   47.7160    6.3200   11.4295 O   0  0  0  0  0  0  0  0  0  0  0  0
   48.3359    8.1404   16.0621 O   0  0  0  0  0  0  0  0  0  0  0  0
   45.6883    6.3892   12.3863 O   0  0  0  0  0  0  0  0  0  0  0  0
   49.1518    6.0354   13.4865 H   0  0  0  0  0  0  0  0  0  0  0  0
   47.7858    6.1909   14.6105 H   0  0  0  0  0  0  0  0  0  0  0  0
   46.8434    9.5135   13.0059 H   0  0  0  0  0  0  0  0  0  0  0  0
   47.2530    8.4883   11.6199 H   0  0  0  0  0  0  0  0  0  0  0  0
   47.2829    4.6791   12.6742 H   0  0  0  0  0  0  0  0  0  0  0  0
   47.6348    5.9716   11.5546 H   0  0  0  0  0  0  0  0  0  0  0  0
   44.9121    8.1345   12.4587 H   0  0  0  0  0  0  0  0  0  0  0  0
   45.5502    7.7375   14.0563 H   0  0  0  0  0  0  0  0  0  0  0  0
   49.8177    9.7078   11.9965 H   0  0  0  0  0  0  0  0  0  0  0  0
   48.8160   13.2523   15.3187 H   0  0  0  0  0  0  0  0  0  0  0  0
   43.9776    5.9808   13.5315 H   0  0  0  0  0  0  0  0  0  0  0  0
   45.3598    5.3052   14.4159 H   0  0  0  0  0  0  0  0  0  0  0  0
   45.0556    5.1136   10.0419 H   0  0  0  0  0  0  0  0  0  0  0  0
   51.7692    7.1183   16.1254 H   0  0  0  0  0  0  0  0  0  0  0  0
   50.4235   11.1456   18.6748 H   0  0  0  0  0  0  0  0  0  0  0  0
   46.0426    2.9795   10.5441 H   0  0  0  0  0  0  0  0  0  0  0  0
   45.1449    2.4501    9.1048 H   0  0  0  0  0  0  0  0  0  0  0  0
   45.4699    3.4642   12.6428 H   0  0  0  0  0  0  0  0  0  0  0  0
   43.9411    3.5130   13.5270 H   0  0  0  0  0  0  0  0  0  0  0  0
   43.7519    2.1994   11.2623 H   0  0  0  0  0  0  0  0  0  0  0  0
   43.0257    3.2613   10.0428 H   0  0  0  0  0  0  0  0  0  0  0  0
   50.0584   12.0955   11.3730 H   0  0  0  0  0  0  0  0  0  0  0  0
   49.5325   13.8580   13.0376 H   0  0  0  0  0  0  0  0  0  0  0  0
   52.5229    9.9661   19.2496 H   0  0  0  0  0  0  0  0  0  0  0  0
   53.2099    7.9601   17.9557 H   0  0  0  0  0  0  0  0  0  0  0  0
   48.3966    6.1417   16.0152 H   0  0  0  0  0  0  0  0  0  0  0  0
   46.7720    6.8101   15.8110 H   0  0  0  0  0  0  0  0  0  0  0  0
   46.3832    8.3903   13.8327 H   0  0  0  0  0  0  0  0  0  0  0  0
   47.7133    8.6474   12.7059 H   0  0  0  0  0  0  0  0  0  0  0  0
   46.8603    4.4660   15.0655 H   0  0  0  0  0  0  0  0  0  0  0  0
   48.1926    4.8125   13.9535 H   0  0  0  0  0  0  0  0  0  0  0  0
   47.6672    6.3572   11.9325 H   0  0  0  0  0  0  0  0  0  0  0  0
   46.0373    7.0398   11.8544 H   0  0  0  0  0  0  0  0  0  0  0  0
   50.9091    7.0557   14.6559 H   0  0  0  0  0  0  0  0  0  0  0  0
   51.8610   11.7924   13.5418 H   0  0  0  0  0  0  0  0  0  0  0  0
   45.8110    3.5194   13.1713 H   0  0  0  0  0  0  0  0  0  0  0  0
   46.8540    4.1168   11.9041 H   0  0  0  0  0  0  0  0  0  0  0  0
   44.4959    2.6757    7.0888 H   0  0  0  0  0  0  0  0  0  0  0  0
   48.1286    9.1934   18.6912 H   0  0  0  0  0  0  0  0  0  0  0  0
   49.6067   13.4951   16.7360 H   0  0  0  0  0  0  0  0  0  0  0  0
   43.1826    3.5626    8.6372 H   0  0  0  0  0  0  0  0  0  0  0  0
   44.2474    4.9662    8.7236 H   0  0  0  0  0  0  0  0  0  0  0  0
   43.8798    4.7909   12.2647 H   0  0  0  0  0  0  0  0  0  0  0  0
   44.8527    5.3759   10.9223 H   0  0  0  0  0  0  0  0  0  0  0  0
   46.0889    3.5870    9.7073 H   0  0  0  0  0  0  0  0  0  0  0  0
   45.1465    2.1341    9.4728 H   0  0  0  0  0  0  0  0  0  0  0  0
   53.1416    7.7051   13.8011 H   0  0  0  0  0  0  0  0  0  0  0  0
   53.6129   10.0785   13.2450 H   0  0  0  0  0  0  0  0  0  0  0  0
   49.4543   13.2442   19.1910 H   0  0  0  0  0  0  0  0  0  0  0  0
   48.7194   11.0882   20.1729 H   0  0  0  0  0  0  0  0  0  0  0  0
   49.4769    7.3082   13.0693 H   0  0  0  0  0  0  0  0  0  0  0  0
   46.6765    7.3514   14.4056 H   0  0  0  0  0  0  0  0  0  0  0  0
   48.8264    8.5440   16.8117 H   0  0  0  0  0  0  0  0  0  0  0  0
   45.5045    6.0050   11.5033 H   0  0  0  0  0  0  0  0  0  0  0  0
  2  1  2  0
  3  1  1  0
  4  6  1  0
  5  1  1  0
  6  3  2  0
  7  2  1  0
  8  7  2  0
  9 13  1  0
 10  5  1  0
 11  5  1  0
 12 10  1  0
 13 11  1  0
 14  3  1  0
 15  6  1  0
 16  9  1  0
 17 21  1  0
 18  7  1  0
 19  8  1  0
 20 22  1  0
 21 23  1  0
 22 16  1  0
 23 20  1  0
 24 14  2  0
 25 15  2  0
 26 19  2  0
 27 18  2  0
  9 12  1  0
  8  4  1  0
 24 25  1  0
 27 26  1  0
 29 28  2  0
 30 28  1  0
 31 33  1  0
 32 28  1  0
 33 30  2  0
 34 29  1  0
 35 34  2  0
 36 40  1  0
 37 32  1  0
 38 32  1  0
 39 37  1  0
 40 38  1  0
 41 30  1  0
 42 33  1  0
 43 36  1  0
 44 48  1  0
 45 34  1  0
 46 35  1  0
 47 49  1  0
 48 50  1  0
 49 43  1  0
 50 47  1  0
 51 41  2  0
 52 42  2  0
 53 46  2  0
 54 45  2  0
 36 39  1  0
 35 31  1  0
 51 52  1  0
 54 53  1  0
 56 58  1  0
 57 55  1  0
 58 57  2  0
 59 55  2  0
 60 56  2  0
 61 55  1  0
 62 56  1  0
 10 63  1  0
 10 64  1  0
 11 65  1  0
 11 66  1  0
 12 67  1  0
 12 68  1  0
 13 69  1  0
 13 70  1  0
 14 71  1  0
 15 72  1  0
 16 73  1  0
 16 74  1  0
 17 75  1  0
 18 76  1  0
 19 77  1  0
 21 78  1  0
 21 79  1  0
 22 80  1  0
 22 81  1  0
 23 82  1  0
 23 83  1  0
 24 84  1  0
 25 85  1  0
 26 86  1  0
 27 87  1  0
 37 88  1  0
 37 89  1  0
 38 90  1  0
 38 91  1  0
 39 92  1  0
 39 93  1  0
 40 94  1  0
 40 95  1  0
 41 96  1  0
 42 97  1  0
 43 98  1  0
 43 99  1  0
 44100  1  0
 45101  1  0
 46102  1  0
 48103  1  0
 48104  1  0
 49105  1  0
 49106  1  0
 50107  1  0
 50108  1  0
 51109  1  0
 52110  1  0
 53111  1  0
 54112  1  0
 57113  1  0
 58114  1  0
 61115  1  0
 62116  1  0
M  END
> <Uni-Dock RESULT> 
ENERGY=   -4.778  LOWER_BOUND=    3.696  UPPER_BOUND=    6.376
INTER + INTRA:          -4.778
INTER:                  -4.778
INTRA:                   0.000
UNBOUND:                 0.000

$$$$

     RDKit          3D

116121  0  0  0  0  0  0  0  0999 V2000
   49.3590    7.9733   19.1072 C   0  0  0  0  0  0  0  0  0  0  0  0
   48.5708    7.9592   20.1530 N   0  0  0  0  0  0  0  0  0  0  0  0
   50.3578    6.8940   18.8005 C   0  0  0  0  0  0  0  0  0  0  0  0
   51.3624    7.1133   21.4035 S   0  0  0  0  0  0  0  0  0  0  0  0
   49.2417    9.0513   18.2179 N   0  0  0  0  0  0  0  0  0  0  0  0
   51.3311    6.4984   19.7280 C   0  0  0  0  0  0  0  0  0  0  0  0
   48.5734    6.9678   21.1468 C   0  0  0  0  0  0  0  0  0  0  0  0
   49.7186    6.5585   21.8573 C   0  0  0  0  0  0  0  0  0  0  0  0
   49.4090   11.9269   17.3065 N   0  0  0  0  0  0  0  0  0  0  0  0
   48.1301   10.0134   18.4069 C   0  0  0  0  0  0  0  0  0  0  0  0
   50.3877    9.5774   17.4486 C   0  0  0  0  0  0  0  0  0  0  0  0
   48.1554   11.1353   17.3477 C   0  0  0  0  0  0  0  0  0  0  0  0
   50.5674   11.0899   17.7104 C   0  0  0  0  0  0  0  0  0  0  0  0
   50.3372    6.3300   17.5162 C   0  0  0  0  0  0  0  0  0  0  0  0
   52.2907    5.5523   19.3475 C   0  0  0  0  0  0  0  0  0  0  0  0
   49.3628   13.1417   18.1534 C   0  0  0  0  0  0  0  0  0  0  0  0
   48.2503   13.3677   14.1119 O   0  0  0  0  0  0  0  0  0  0  0  0
   47.3281    6.4555   21.5302 C   0  0  0  0  0  0  0  0  0  0  0  0
   49.5991    5.6527   22.9212 C   0  0  0  0  0  0  0  0  0  0  0  0
   49.0982   14.7278   16.3517 O   0  0  0  0  0  0  0  0  0  0  0  0
   47.3675   14.3266   14.6892 C   0  0  0  0  0  0  0  0  0  0  0  0
   48.5012   14.2707   17.5691 C   0  0  0  0  0  0  0  0  0  0  0  0
   48.1722   15.3684   15.4657 C   0  0  0  0  0  0  0  0  0  0  0  0
   51.2875    5.3796   17.1526 C   0  0  0  0  0  0  0  0  0  0  0  0
   52.2667    4.9959   18.0678 C   0  0  0  0  0  0  0  0  0  0  0  0
   48.3478    5.1492   23.2829 C   0  0  0  0  0  0  0  0  0  0  0  0
   47.2126    5.5435   22.5820 C   0  0  0  0  0  0  0  0  0  0  0  0
   49.4485    8.1636   19.9004 C   0  0  0  0  0  0  0  0  0  0  0  0
   50.2965    8.3582   20.8773 N   0  0  0  0  0  0  0  0  0  0  0  0
   48.9550    6.8298   19.4332 C   0  0  0  0  0  0  0  0  0  0  0  0
   51.5980    5.9121   19.3157 S   0  0  0  0  0  0  0  0  0  0  0  0
   48.9382    9.2720   19.2189 N   0  0  0  0  0  0  0  0  0  0  0  0
   49.8285    5.7841   19.1086 C   0  0  0  0  0  0  0  0  0  0  0  0
   50.8986    7.3305   21.6251 C   0  0  0  0  0  0  0  0  0  0  0  0
   51.5855    6.2326   21.0770 C   0  0  0  0  0  0  0  0  0  0  0  0
   48.6086   11.9923   18.1208 N   0  0  0  0  0  0  0  0  0  0  0  0
   48.4815   10.4005   20.0621 C   0  0  0  0  0  0  0  0  0  0  0  0
   49.8183    9.7730   18.1387 C   0  0  0  0  0  0  0  0  0  0  0  0
   47.7510   11.4468   19.2013 C   0  0  0  0  0  0  0  0  0  0  0  0
   49.1289   10.8720   17.3073 C   0  0  0  0  0  0  0  0  0  0  0  0
   47.5678    6.6681   19.2781 C   0  0  0  0  0  0  0  0  0  0  0  0
   49.2964    4.5799   18.6242 C   0  0  0  0  0  0  0  0  0  0  0  0
   47.8567   12.9572   17.3010 C   0  0  0  0  0  0  0  0  0  0  0  0
   47.8749   14.3598   12.0623 O   0  0  0  0  0  0  0  0  0  0  0  0
   50.9062    7.4855   23.0186 C   0  0  0  0  0  0  0  0  0  0  0  0
   52.2456    5.3212   21.9154 C   0  0  0  0  0  0  0  0  0  0  0  0
   47.9678   14.8156   15.7166 O   0  0  0  0  0  0  0  0  0  0  0  0
   48.4647   14.6016   13.3349 C   0  0  0  0  0  0  0  0  0  0  0  0
   48.7460   13.8154   16.3821 C   0  0  0  0  0  0  0  0  0  0  0  0
   47.4473   14.3929   14.4540 C   0  0  0  0  0  0  0  0  0  0  0  0
   47.0504    5.4564   18.8164 C   0  0  0  0  0  0  0  0  0  0  0  0
   47.9146    4.4138   18.4893 C   0  0  0  0  0  0  0  0  0  0  0  0
   52.2275    5.4897   23.2961 C   0  0  0  0  0  0  0  0  0  0  0  0
   51.5569    6.5711   23.8500 C   0  0  0  0  0  0  0  0  0  0  0  0
   48.7030    8.1610   19.9005 C   0  0  0  0  0  0  0  0  0  0  0  0
   48.9433   10.7695   17.1504 C   0  0  0  0  0  0  0  0  0  0  0  0
   48.5618    8.9060   18.6484 C   0  0  0  0  0  0  0  0  0  0  0  0
   49.1467   10.0937   18.4325 C   0  0  0  0  0  0  0  0  0  0  0  0
   48.2555    7.0461   20.0939 O   0  0  0  0  0  0  0  0  0  0  0  0
   48.2472   10.3933   16.2247 O   0  0  0  0  0  0  0  0  0  0  0  0
   49.3901    8.8192   20.8481 O   0  0  0  0  0  0  0  0  0  0  0  0
   49.5980   11.9379   17.1308 O   0  0  0  0  0  0  0  0  0  0  0  0
   47.1758    9.4782   18.3196 H   0  0  0  0  0  0  0  0  0  0  0  0
   48.1826   10.4557   19.4079 H   0  0  0  0  0  0  0  0  0  0  0  0
   51.3188    9.0834   17.7394 H   0  0  0  0  0  0  0  0  0  0  0  0
   50.2293    9.3934   16.3767 H   0  0  0  0  0  0  0  0  0  0  0  0
   47.2738   11.7751   17.4788 H   0  0  0  0  0  0  0  0  0  0  0  0
   48.0303   10.6767   16.3522 H   0  0  0  0  0  0  0  0  0  0  0  0
   51.4449   11.4461   17.1624 H   0  0  0  0  0  0  0  0  0  0  0  0
   50.7755   11.2170   18.7799 H   0  0  0  0  0  0  0  0  0  0  0  0
   49.5771    6.6363   16.8007 H   0  0  0  0  0  0  0  0  0  0  0  0
   53.0467    5.2259   20.0529 H   0  0  0  0  0  0  0  0  0  0  0  0
   50.3832   13.5381   18.2388 H   0  0  0  0  0  0  0  0  0  0  0  0
   49.0119   12.8972   19.1651 H   0  0  0  0  0  0  0  0  0  0  0  0
   48.9443   13.2053   14.7876 H   0  0  0  0  0  0  0  0  0  0  0  0
   46.4410    6.7912   21.0081 H   0  0  0  0  0  0  0  0  0  0  0  0
   50.4827    5.3364   23.4733 H   0  0  0  0  0  0  0  0  0  0  0  0
   46.6770   13.7838   15.3404 H   0  0  0  0  0  0  0  0  0  0  0  0
   46.7928   14.7987   13.8863 H   0  0  0  0  0  0  0  0  0  0  0  0
   47.4662   13.9483   17.4183 H   0  0  0  0  0  0  0  0  0  0  0  0
   48.4863   15.1168   18.2641 H   0  0  0  0  0  0  0  0  0  0  0  0
   47.5265   16.0640   16.0121 H   0  0  0  0  0  0  0  0  0  0  0  0
   48.7779   15.9481   14.7620 H   0  0  0  0  0  0  0  0  0  0  0  0
   51.2678    4.9420   16.1535 H   0  0  0  0  0  0  0  0  0  0  0  0
   53.0108    4.2624   17.7826 H   0  0  0  0  0  0  0  0  0  0  0  0
   48.2614    4.4508   24.1140 H   0  0  0  0  0  0  0  0  0  0  0  0
   46.2371    5.1620   22.8624 H   0  0  0  0  0  0  0  0  0  0  0  0
   47.7961   10.0271   20.8276 H   0  0  0  0  0  0  0  0  0  0  0  0
   49.3309   10.8688   20.5754 H   0  0  0  0  0  0  0  0  0  0  0  0
   50.7547   10.1564   18.5686 H   0  0  0  0  0  0  0  0  0  0  0  0
   50.0914    8.9475   17.4716 H   0  0  0  0  0  0  0  0  0  0  0  0
   47.4334   12.2644   19.8616 H   0  0  0  0  0  0  0  0  0  0  0  0
   46.8385   10.9979   18.7782 H   0  0  0  0  0  0  0  0  0  0  0  0
   48.3193   10.4135   16.7259 H   0  0  0  0  0  0  0  0  0  0  0  0
   49.8718   11.2517   16.5994 H   0  0  0  0  0  0  0  0  0  0  0  0
   46.8955    7.4832   19.5188 H   0  0  0  0  0  0  0  0  0  0  0  0
   49.9546    3.7544   18.3693 H   0  0  0  0  0  0  0  0  0  0  0  0
   47.3083   13.6542   17.9542 H   0  0  0  0  0  0  0  0  0  0  0  0
   47.0864   12.4533   16.7056 H   0  0  0  0  0  0  0  0  0  0  0  0
   47.3252   15.1393   11.8524 H   0  0  0  0  0  0  0  0  0  0  0  0
   50.4054    8.3484   23.4579 H   0  0  0  0  0  0  0  0  0  0  0  0
   52.7746    4.4741   21.4860 H   0  0  0  0  0  0  0  0  0  0  0  0
   48.8785   15.6210   13.3570 H   0  0  0  0  0  0  0  0  0  0  0  0
   49.3040   13.9119   13.4519 H   0  0  0  0  0  0  0  0  0  0  0  0
   49.4872   14.3475   16.9849 H   0  0  0  0  0  0  0  0  0  0  0  0
   49.2978   13.2082   15.6595 H   0  0  0  0  0  0  0  0  0  0  0  0
   47.0995   13.3568   14.4975 H   0  0  0  0  0  0  0  0  0  0  0  0
   46.5551   15.0001   14.2582 H   0  0  0  0  0  0  0  0  0  0  0  0
   45.9775    5.3289   18.7108 H   0  0  0  0  0  0  0  0  0  0  0  0
   47.5139    3.4649   18.1369 H   0  0  0  0  0  0  0  0  0  0  0  0
   52.7366    4.7777   23.9394 H   0  0  0  0  0  0  0  0  0  0  0  0
   51.5455    6.7150   24.9299 H   0  0  0  0  0  0  0  0  0  0  0  0
   47.9513    8.4210   17.8947 H   0  0  0  0  0  0  0  0  0  0  0  0
   49.7768   10.5873   19.1615 H   0  0  0  0  0  0  0  0  0  0  0  0
   49.4149    8.1924   21.6043 H   0  0  0  0  0  0  0  0  0  0  0  0
   49.3925   12.3124   16.2484 H   0  0  0  0  0  0  0  0  0  0  0  0
  2  1  2  0
  3  1  1  0
  4  6  1  0
  5  1  1  0
  6  3  2  0
  7  2  1  0
  8  7  2  0
  9 13  1  0
 10  5  1  0
 11  5  1  0
 12 10  1  0
 13 11  1  0
 14  3  1  0
 15  6  1  0
 16  9  1  0
 17 21  1  0
 18  7  1  0
 19  8  1  0
 20 22  1  0
 21 23  1  0
 22 16  1  0
 23 20  1  0
 24 14  2  0
 25 15  2  0
 26 19  2  0
 27 18  2  0
  9 12  1  0
  8  4  1  0
 24 25  1  0
 27 26  1  0
 29 28  2  0
 30 28  1  0
 31 33  1  0
 32 28  1  0
 33 30  2  0
 34 29  1  0
 35 34  2  0
 36 40  1  0
 37 32  1  0
 38 32  1  0
 39 37  1  0
 40 38  1  0
 41 30  1  0
 42 33  1  0
 43 36  1  0
 44 48  1  0
 45 34  1  0
 46 35  1  0
 47 49  1  0
 48 50  1  0
 49 43  1  0
 50 47  1  0
 51 41  2  0
 52 42  2  0
 53 46  2  0
 54 45  2  0
 36 39  1  0
 35 31  1  0
 51 52  1  0
 54 53  1  0
 56 58  1  0
 57 55  1  0
 58 57  2  0
 59 55  2  0
 60 56  2  0
 61 55  1  0
 62 56  1  0
 10 63  1  0
 10 64  1  0
 11 65  1  0
 11 66  1  0
 12 67  1  0
 12 68  1  0
 13 69  1  0
 13 70  1  0
 14 71  1  0
 15 72  1  0
 16 73  1  0
 16 74  1  0
 17 75  1  0
 18 76  1  0
 19 77  1  0
 21 78  1  0
 21 79  1  0
 22 80  1  0
 22 81  1  0
 23 82  1  0
 23 83  1  0
 24 84  1  0
 25 85  1  0
 26 86  1  0
 27 87  1  0
 37 88  1  0
 37 89  1  0
 38 90  1  0
 38 91  1  0
 39 92  1  0
 39 93  1  0
 40 94  1  0
 40 95  1  0
 41 96  1  0
 42 97  1  0
 43 98  1  0
 43 99  1  0
 44100  1  0
 45101  1  0
 46102  1  0
 48103  1  0
 48104  1  0
 49105  1  0
 49106  1  0
 50107  1  0
 50108  1  0
 51109  1  0
 52110  1  0
 53111  1  0
 54112  1  0
 57113  1  0
 58114  1  0
 61115  1  0
 62116  1  0
M  END
> <Uni-Dock RESULT> 
ENERGY=   -4.733  LOWER_BOUND=    2.872  UPPER_BOUND=    4.260
INTER + INTRA:          -4.733
INTER:                  -4.733
INTRA:                   0.000
UNBOUND:                 0.000

$$$$

     RDKit          3D

116121  0  0  0  0  0  0  0  0999 V2000
   49.8432   11.0149   12.4325 C   0  0  0  0  0  0  0  0  0  0  0  0
   50.9738   10.5910   11.9253 N   0  0  0  0  0  0  0  0  0  0  0  0
   49.6143   12.4244   12.8990 C   0  0  0  0  0  0  0  0  0  0  0  0
   51.9506   12.2739   14.4326 S   0  0  0  0  0  0  0  0  0  0  0  0
   48.7854   10.0985   12.5219 N   0  0  0  0  0  0  0  0  0  0  0  0
   50.4514   13.0399   13.8395 C   0  0  0  0  0  0  0  0  0  0  0  0
   52.1324   11.3709   11.7836 C   0  0  0  0  0  0  0  0  0  0  0  0
   52.7369   12.0928   12.8310 C   0  0  0  0  0  0  0  0  0  0  0  0
   47.3113    7.6499   13.5012 N   0  0  0  0  0  0  0  0  0  0  0  0
   48.9396    8.7681   11.8868 C   0  0  0  0  0  0  0  0  0  0  0  0
   47.7706   10.1556   13.5937 C   0  0  0  0  0  0  0  0  0  0  0  0
   47.6879    7.8880   12.0866 C   0  0  0  0  0  0  0  0  0  0  0  0
   47.7008    8.8075   14.3461 C   0  0  0  0  0  0  0  0  0  0  0  0
   48.4829   13.0975   12.4146 C   0  0  0  0  0  0  0  0  0  0  0  0
   50.1302   14.3220   14.3018 C   0  0  0  0  0  0  0  0  0  0  0  0
   47.9002    6.4121   14.0637 C   0  0  0  0  0  0  0  0  0  0  0  0
   44.0967    6.2991   12.2906 O   0  0  0  0  0  0  0  0  0  0  0  0
   52.7846   11.3127   10.5461 C   0  0  0  0  0  0  0  0  0  0  0  0
   53.9642   12.7385   12.6228 C   0  0  0  0  0  0  0  0  0  0  0  0
   45.8787    5.0919   14.0090 O   0  0  0  0  0  0  0  0  0  0  0  0
   44.5950    5.0093   11.9437 C   0  0  0  0  0  0  0  0  0  0  0  0
   47.2354    5.1244   13.5553 C   0  0  0  0  0  0  0  0  0  0  0  0
   45.0269    4.2651   13.2068 C   0  0  0  0  0  0  0  0  0  0  0  0
   48.1803   14.3779   12.8706 C   0  0  0  0  0  0  0  0  0  0  0  0
   49.0023   14.9864   13.8180 C   0  0  0  0  0  0  0  0  0  0  0  0
   54.5945   12.6727   11.3783 C   0  0  0  0  0  0  0  0  0  0  0  0
   54.0009   11.9672   10.3367 C   0  0  0  0  0  0  0  0  0  0  0  0
   50.5620   10.7731   12.7459 C   0  0  0  0  0  0  0  0  0  0  0  0
   51.3488   10.7944   13.7907 N   0  0  0  0  0  0  0  0  0  0  0  0
   50.4427   11.8639   11.7277 C   0  0  0  0  0  0  0  0  0  0  0  0
   50.1284   13.7315   13.7904 S   0  0  0  0  0  0  0  0  0  0  0  0
   49.7565    9.6514   12.5305 N   0  0  0  0  0  0  0  0  0  0  0  0
   50.2079   13.1969   12.0879 C   0  0  0  0  0  0  0  0  0  0  0  0
   52.1896   11.8690   14.1321 C   0  0  0  0  0  0  0  0  0  0  0  0
   51.7752   13.2069   14.2574 C   0  0  0  0  0  0  0  0  0  0  0  0
   48.2035    7.1784   12.9630 N   0  0  0  0  0  0  0  0  0  0  0  0
   50.4179    8.3357   12.6873 C   0  0  0  0  0  0  0  0  0  0  0  0
   48.4834    9.6696   13.2864 C   0  0  0  0  0  0  0  0  0  0  0  0
   49.4824    7.2095   12.2120 C   0  0  0  0  0  0  0  0  0  0  0  0
   47.5601    8.5072   12.8733 C   0  0  0  0  0  0  0  0  0  0  0  0
   50.5242   11.5000   10.3729 C   0  0  0  0  0  0  0  0  0  0  0  0
   50.0519   14.1566   11.0768 C   0  0  0  0  0  0  0  0  0  0  0  0
   47.3270    6.1132   12.4478 C   0  0  0  0  0  0  0  0  0  0  0  0
   41.9678    5.5116   11.8737 O   0  0  0  0  0  0  0  0  0  0  0  0
   53.5093   11.5508   14.4827 C   0  0  0  0  0  0  0  0  0  0  0  0
   52.6726   14.1856   14.7115 C   0  0  0  0  0  0  0  0  0  0  0  0
   45.4086    4.6600   12.8771 O   0  0  0  0  0  0  0  0  0  0  0  0
   43.0693    5.3527   12.7610 C   0  0  0  0  0  0  0  0  0  0  0  0
   46.1386    5.7874   13.3717 C   0  0  0  0  0  0  0  0  0  0  0  0
   44.3424    5.0096   11.9911 C   0  0  0  0  0  0  0  0  0  0  0  0
   50.3896   12.4693    9.3771 C   0  0  0  0  0  0  0  0  0  0  0  0
   50.1531   13.7962    9.7295 C   0  0  0  0  0  0  0  0  0  0  0  0
   53.9809   13.8469   15.0408 C   0  0  0  0  0  0  0  0  0  0  0  0
   54.4019   12.5295   14.9257 C   0  0  0  0  0  0  0  0  0  0  0  0
   50.6702   10.4897   12.0649 C   0  0  0  0  0  0  0  0  0  0  0  0
   47.4550    8.5500   12.6352 C   0  0  0  0  0  0  0  0  0  0  0  0
   49.3296    9.9153   11.9396 C   0  0  0  0  0  0  0  0  0  0  0  0
   48.8020    9.0810   12.8479 C   0  0  0  0  0  0  0  0  0  0  0  0
   51.1418   11.3129   11.3029 O   0  0  0  0  0  0  0  0  0  0  0  0
   46.7317    8.7463   11.6753 O   0  0  0  0  0  0  0  0  0  0  0  0
   51.3604   10.0291   13.1207 O   0  0  0  0  0  0  0  0  0  0  0  0
   47.1115    7.7348   13.6411 O   0  0  0  0  0  0  0  0  0  0  0  0
   49.0979    8.9030   10.8090 H   0  0  0  0  0  0  0  0  0  0  0  0
   49.8157    8.2549   12.2984 H   0  0  0  0  0  0  0  0  0  0  0  0
   48.0157   10.9269   14.3289 H   0  0  0  0  0  0  0  0  0  0  0  0
   46.7902   10.4011   13.1620 H   0  0  0  0  0  0  0  0  0  0  0  0
   47.8162    6.9480   11.5354 H   0  0  0  0  0  0  0  0  0  0  0  0
   46.8308    8.3875   11.6040 H   0  0  0  0  0  0  0  0  0  0  0  0
   46.9727    8.8886   15.1589 H   0  0  0  0  0  0  0  0  0  0  0  0
   48.6829    8.6333   14.8026 H   0  0  0  0  0  0  0  0  0  0  0  0
   47.8382   12.6182   11.6811 H   0  0  0  0  0  0  0  0  0  0  0  0
   50.7696   14.8196   15.0225 H   0  0  0  0  0  0  0  0  0  0  0  0
   47.7578    6.4297   15.1524 H   0  0  0  0  0  0  0  0  0  0  0  0
   48.9799    6.3710   13.8670 H   0  0  0  0  0  0  0  0  0  0  0  0
   44.6839    6.6267   13.0065 H   0  0  0  0  0  0  0  0  0  0  0  0
   52.3401   10.7328    9.7471 H   0  0  0  0  0  0  0  0  0  0  0  0
   54.4345   13.2954   13.4316 H   0  0  0  0  0  0  0  0  0  0  0  0
   45.4330    5.1573   11.2571 H   0  0  0  0  0  0  0  0  0  0  0  0
   43.8063    4.4605   11.4196 H   0  0  0  0  0  0  0  0  0  0  0  0
   47.3018    5.0419   12.4660 H   0  0  0  0  0  0  0  0  0  0  0  0
   47.7450    4.2554   13.9847 H   0  0  0  0  0  0  0  0  0  0  0  0
   45.5129    3.3110   12.9767 H   0  0  0  0  0  0  0  0  0  0  0  0
   44.1430    4.0576   13.8182 H   0  0  0  0  0  0  0  0  0  0  0  0
   47.3005   14.8992   12.4908 H   0  0  0  0  0  0  0  0  0  0  0  0
   48.7628   15.9792   14.1787 H   0  0  0  0  0  0  0  0  0  0  0  0
   55.5504   13.1715   11.2251 H   0  0  0  0  0  0  0  0  0  0  0  0
   54.4885   11.9060    9.3701 H   0  0  0  0  0  0  0  0  0  0  0  0
   51.3326    8.3159   12.0888 H   0  0  0  0  0  0  0  0  0  0  0  0
   50.7010    8.1670   13.7340 H   0  0  0  0  0  0  0  0  0  0  0  0
   48.6899    9.6226   14.3652 H   0  0  0  0  0  0  0  0  0  0  0  0
   47.9597   10.6151   13.1056 H   0  0  0  0  0  0  0  0  0  0  0  0
   50.0075    6.2550   12.3478 H   0  0  0  0  0  0  0  0  0  0  0  0
   49.2921    7.3247   11.1332 H   0  0  0  0  0  0  0  0  0  0  0  0
   47.2034    8.6910   11.8522 H   0  0  0  0  0  0  0  0  0  0  0  0
   46.6919    8.5358   13.5383 H   0  0  0  0  0  0  0  0  0  0  0  0
   50.6941   10.4658   10.0974 H   0  0  0  0  0  0  0  0  0  0  0  0
   49.8725   15.1968   11.3328 H   0  0  0  0  0  0  0  0  0  0  0  0
   47.9023    5.1814   12.3291 H   0  0  0  0  0  0  0  0  0  0  0  0
   46.9598    6.3554   11.4436 H   0  0  0  0  0  0  0  0  0  0  0  0
   41.6900    4.6149   11.6039 H   0  0  0  0  0  0  0  0  0  0  0  0
   53.8377   10.5131   14.4217 H   0  0  0  0  0  0  0  0  0  0  0  0
   52.3466   15.2185   14.8058 H   0  0  0  0  0  0  0  0  0  0  0  0
   42.8304    4.5761   13.5031 H   0  0  0  0  0  0  0  0  0  0  0  0
   43.1976    6.2902   13.3073 H   0  0  0  0  0  0  0  0  0  0  0  0
   46.5116    5.5073   14.3609 H   0  0  0  0  0  0  0  0  0  0  0  0
   45.4778    6.6473   13.5108 H   0  0  0  0  0  0  0  0  0  0  0  0
   44.6387    5.8182   11.3169 H   0  0  0  0  0  0  0  0  0  0  0  0
   44.1615    4.1374   11.3511 H   0  0  0  0  0  0  0  0  0  0  0  0
   50.4670   12.1882    8.3315 H   0  0  0  0  0  0  0  0  0  0  0  0
   50.0559   14.5558    8.9557 H   0  0  0  0  0  0  0  0  0  0  0  0
   54.6716   14.6104   15.3871 H   0  0  0  0  0  0  0  0  0  0  0  0
   55.4224   12.2546   15.1901 H   0  0  0  0  0  0  0  0  0  0  0  0
   48.7822   10.2219   11.0550 H   0  0  0  0  0  0  0  0  0  0  0  0
   49.3209    8.7773   13.7482 H   0  0  0  0  0  0  0  0  0  0  0  0
   52.2137   10.5145   13.0787 H   0  0  0  0  0  0  0  0  0  0  0  0
   46.2117    7.4271   13.4029 H   0  0  0  0  0  0  0  0  0  0  0  0
  2  1  2  0
  3  1  1  0
  4  6  1  0
  5  1  1  0
  6  3  2  0
  7  2  1  0
  8  7  2  0
  9 13  1  0
 10  5  1  0
 11  5  1  0
 12 10  1  0
 13 11  1  0
 14  3  1  0
 15  6  1  0
 16  9  1  0
 17 21  1  0
 18  7  1  0
 19  8  1  0
 20 22  1  0
 21 23  1  0
 22 16  1  0
 23 20  1  0
 24 14  2  0
 25 15  2  0
 26 19  2  0
 27 18  2  0
  9 12  1  0
  8  4  1  0
 24 25  1  0
 27 26  1  0
 29 28  2  0
 30 28  1  0
 31 33  1  0
 32 28  1  0
 33 30  2  0
 34 29  1  0
 35 34  2  0
 36 40  1  0
 37 32  1  0
 38 32  1  0
 39 37  1  0
 40 38  1  0
 41 30  1  0
 42 33  1  0
 43 36  1  0
 44 48  1  0
 45 34  1  0
 46 35  1  0
 47 49  1  0
 48 50  1  0
 49 43  1  0
 50 47  1  0
 51 41  2  0
 52 42  2  0
 53 46  2  0
 54 45  2  0
 36 39  1  0
 35 31  1  0
 51 52  1  0
 54 53  1  0
 56 58  1  0
 57 55  1  0
 58 57  2  0
 59 55  2  0
 60 56  2  0
 61 55  1  0
 62 56  1  0
 10 63  1  0
 10 64  1  0
 11 65  1  0
 11 66  1  0
 12 67  1  0
 12 68  1  0
 13 69  1  0
 13 70  1  0
 14 71  1  0
 15 72  1  0
 16 73  1  0
 16 74  1  0
 17 75  1  0
 18 76  1  0
 19 77  1  0
 21 78  1  0
 21 79  1  0
 22 80  1  0
 22 81  1  0
 23 82  1  0
 23 83  1  0
 24 84  1  0
 25 85  1  0
 26 86  1  0
 27 87  1  0
 37 88  1  0
 37 89  1  0
 38 90  1  0
 38 91  1  0
 39 92  1  0
 39 93  1  0
 40 94  1  0
 40 95  1  0
 41 96  1  0
 42 97  1  0
 43 98  1  0
 43 99  1  0
 44100  1  0
 45101  1  0
 46102  1  0
 48103  1  0
 48104  1  0
 49105  1  0
 49106  1  0
 50107  1  0
 50108  1  0
 51109  1  0
 52110  1  0
 53111  1  0
 54112  1  0
 57113  1  0
 58114  1  0
 61115  1  0
 62116  1  0
M  END
> <Uni-Dock RESULT> 
ENERGY=   -4.631  LOWER_BOUND=    4.615  UPPER_BOUND=    7.832
INTER + INTRA:          -4.631
INTER:                  -4.631
INTRA:                   0.000
UNBOUND:                 0.000

$$$$

     RDKit          3D

116121  0  0  0  0  0  0  0  0999 V2000
   49.0444   10.1140   14.2268 C   0  0  0  0  0  0  0  0  0  0  0  0
   49.8754   10.9104   13.6018 N   0  0  0  0  0  0  0  0  0  0  0  0
   47.9264    9.3754   13.5477 C   0  0  0  0  0  0  0  0  0  0  0  0
   47.0735   11.7754   12.3878 S   0  0  0  0  0  0  0  0  0  0  0  0
   49.2300    9.9309   15.6047 N   0  0  0  0  0  0  0  0  0  0  0  0
   46.9623   10.0363   12.7746 C   0  0  0  0  0  0  0  0  0  0  0  0
   49.8175   11.2166   12.2331 C   0  0  0  0  0  0  0  0  0  0  0  0
   48.6710   11.7042   11.5761 C   0  0  0  0  0  0  0  0  0  0  0  0
   49.3169   10.7156   18.5209 N   0  0  0  0  0  0  0  0  0  0  0  0
   50.4424   10.4974   16.2420 C   0  0  0  0  0  0  0  0  0  0  0  0
   48.1094    9.6743   16.5321 C   0  0  0  0  0  0  0  0  0  0  0  0
   50.4829   10.2086   17.7573 C   0  0  0  0  0  0  0  0  0  0  0  0
   48.0988   10.7186   17.6713 C   0  0  0  0  0  0  0  0  0  0  0  0
   47.8284    7.9933   13.7667 C   0  0  0  0  0  0  0  0  0  0  0  0
   45.8936    9.3029   12.2448 C   0  0  0  0  0  0  0  0  0  0  0  0
   49.5279   12.0712   19.0804 C   0  0  0  0  0  0  0  0  0  0  0  0
   50.4661    8.6898   21.3844 O   0  0  0  0  0  0  0  0  0  0  0  0
   51.0201   11.1469   11.5196 C   0  0  0  0  0  0  0  0  0  0  0  0
   48.7465   12.1035   10.2339 C   0  0  0  0  0  0  0  0  0  0  0  0
   49.8692   11.3785   21.3686 O   0  0  0  0  0  0  0  0  0  0  0  0
   51.4691    9.6027   21.8234 C   0  0  0  0  0  0  0  0  0  0  0  0
   50.4726   12.1008   20.2908 C   0  0  0  0  0  0  0  0  0  0  0  0
   50.8134   10.8877   22.3279 C   0  0  0  0  0  0  0  0  0  0  0  0
   46.7691    7.2709   13.2236 C   0  0  0  0  0  0  0  0  0  0  0  0
   45.7999    7.9283   12.4673 C   0  0  0  0  0  0  0  0  0  0  0  0
   49.9550   12.0197    9.5391 C   0  0  0  0  0  0  0  0  0  0  0  0
   51.0905   11.5331   10.1789 C   0  0  0  0  0  0  0  0  0  0  0  0
   49.0124   10.8907   13.9637 C   0  0  0  0  0  0  0  0  0  0  0  0
   48.2360   11.8961   13.6515 N   0  0  0  0  0  0  0  0  0  0  0  0
   49.3434    9.7393   13.0661 C   0  0  0  0  0  0  0  0  0  0  0  0
   46.6173    9.4023   12.5215 S   0  0  0  0  0  0  0  0  0  0  0  0
   49.6014   10.8610   15.2308 N   0  0  0  0  0  0  0  0  0  0  0  0
   48.3525    8.9916   12.4172 C   0  0  0  0  0  0  0  0  0  0  0  0
   47.5671   12.0334   12.4220 C   0  0  0  0  0  0  0  0  0  0  0  0
   46.7458   11.0523   11.8385 C   0  0  0  0  0  0  0  0  0  0  0  0
   50.1573   11.3586   18.0869 N   0  0  0  0  0  0  0  0  0  0  0  0
   50.2111   12.1284   15.6946 C   0  0  0  0  0  0  0  0  0  0  0  0
   48.7277   10.3044   16.2887 C   0  0  0  0  0  0  0  0  0  0  0  0
   51.0041   11.8939   16.9930 C   0  0  0  0  0  0  0  0  0  0  0  0
   49.4867   10.1266   17.6179 C   0  0  0  0  0  0  0  0  0  0  0  0
   50.6977    9.3907   12.9290 C   0  0  0  0  0  0  0  0  0  0  0  0
   48.7344    7.8913   11.6354 C   0  0  0  0  0  0  0  0  0  0  0  0
   50.9651   11.1132   19.2934 C   0  0  0  0  0  0  0  0  0  0  0  0
   50.8446    7.4612   23.3010 O   0  0  0  0  0  0  0  0  0  0  0  0
   47.6412   13.2878   11.8000 C   0  0  0  0  0  0  0  0  0  0  0  0
   46.0355   11.3332   10.6613 C   0  0  0  0  0  0  0  0  0  0  0  0
   50.9714   10.7841   21.7158 O   0  0  0  0  0  0  0  0  0  0  0  0
   50.3435    8.7158   22.8529 C   0  0  0  0  0  0  0  0  0  0  0  0
   50.1266   10.8836   20.5647 C   0  0  0  0  0  0  0  0  0  0  0  0
   51.3856    9.4480   22.0109 C   0  0  0  0  0  0  0  0  0  0  0  0
   51.0653    8.3068   12.1294 C   0  0  0  0  0  0  0  0  0  0  0  0
   50.0839    7.5578   11.4840 C   0  0  0  0  0  0  0  0  0  0  0  0
   46.1359   12.5816   10.0560 C   0  0  0  0  0  0  0  0  0  0  0  0
   46.9397   13.5604   10.6234 C   0  0  0  0  0  0  0  0  0  0  0  0
   49.7528   10.8185   13.9156 C   0  0  0  0  0  0  0  0  0  0  0  0
   49.6531    9.9225   17.6051 C   0  0  0  0  0  0  0  0  0  0  0  0
   49.9109   10.1505   15.2085 C   0  0  0  0  0  0  0  0  0  0  0  0
   49.4418   10.6585   16.3580 C   0  0  0  0  0  0  0  0  0  0  0  0
   50.0918   10.3434   12.8479 O   0  0  0  0  0  0  0  0  0  0  0  0
   50.2625    8.8776   17.7465 O   0  0  0  0  0  0  0  0  0  0  0  0
   49.1826   12.0314   13.9986 O   0  0  0  0  0  0  0  0  0  0  0  0
   49.1220   10.5918   18.6367 O   0  0  0  0  0  0  0  0  0  0  0  0
   51.3314   10.0477   15.7813 H   0  0  0  0  0  0  0  0  0  0  0  0
   50.4830   11.5796   16.0759 H   0  0  0  0  0  0  0  0  0  0  0  0
   47.1471    9.7436   16.0176 H   0  0  0  0  0  0  0  0  0  0  0  0
   48.1972    8.6603   16.9468 H   0  0  0  0  0  0  0  0  0  0  0  0
   51.4309   10.5763   18.1694 H   0  0  0  0  0  0  0  0  0  0  0  0
   50.5131    9.1153   17.9023 H   0  0  0  0  0  0  0  0  0  0  0  0
   47.2378   10.5316   18.3202 H   0  0  0  0  0  0  0  0  0  0  0  0
   47.9555   11.7049   17.2133 H   0  0  0  0  0  0  0  0  0  0  0  0
   48.5813    7.4831   14.3635 H   0  0  0  0  0  0  0  0  0  0  0  0
   45.1420    9.7935   11.6362 H   0  0  0  0  0  0  0  0  0  0  0  0
   48.5588   12.4516   19.4297 H   0  0  0  0  0  0  0  0  0  0  0  0
   49.8989   12.7575   18.3074 H   0  0  0  0  0  0  0  0  0  0  0  0
   49.7917    9.2370   20.9258 H   0  0  0  0  0  0  0  0  0  0  0  0
   51.9115   10.8029   12.0289 H   0  0  0  0  0  0  0  0  0  0  0  0
   47.8621   12.4827    9.7245 H   0  0  0  0  0  0  0  0  0  0  0  0
   52.1300    9.7945   20.9737 H   0  0  0  0  0  0  0  0  0  0  0  0
   52.0510    9.1253   22.6180 H   0  0  0  0  0  0  0  0  0  0  0  0
   51.4607   11.7035   20.0381 H   0  0  0  0  0  0  0  0  0  0  0  0
   50.6073   13.1349   20.6248 H   0  0  0  0  0  0  0  0  0  0  0  0
   51.5524   11.6567   22.5771 H   0  0  0  0  0  0  0  0  0  0  0  0
   50.2382   10.6634   23.2317 H   0  0  0  0  0  0  0  0  0  0  0  0
   46.6966    6.1959   13.3946 H   0  0  0  0  0  0  0  0  0  0  0  0
   44.9716    7.3681   12.0513 H   0  0  0  0  0  0  0  0  0  0  0  0
   50.0081   12.3370    8.4987 H   0  0  0  0  0  0  0  0  0  0  0  0
   52.0336   11.4723    9.6474 H   0  0  0  0  0  0  0  0  0  0  0  0
   50.8898   12.5071   14.9257 H   0  0  0  0  0  0  0  0  0  0  0  0
   49.4396   12.8904   15.8626 H   0  0  0  0  0  0  0  0  0  0  0  0
   47.8571   10.9594   16.4357 H   0  0  0  0  0  0  0  0  0  0  0  0
   48.3400    9.3293   15.9728 H   0  0  0  0  0  0  0  0  0  0  0  0
   51.4350   12.8549   17.3032 H   0  0  0  0  0  0  0  0  0  0  0  0
   51.8446   11.2120   16.7885 H   0  0  0  0  0  0  0  0  0  0  0  0
   50.2165    9.3164   17.4973 H   0  0  0  0  0  0  0  0  0  0  0  0
   48.7543    9.8052   18.3644 H   0  0  0  0  0  0  0  0  0  0  0  0
   51.4610    9.9640   13.4419 H   0  0  0  0  0  0  0  0  0  0  0  0
   47.9835    7.2992   11.1205 H   0  0  0  0  0  0  0  0  0  0  0  0
   51.6125   11.9819   19.4921 H   0  0  0  0  0  0  0  0  0  0  0  0
   51.6505   10.2706   19.1447 H   0  0  0  0  0  0  0  0  0  0  0  0
   51.4612    7.6485   24.0350 H   0  0  0  0  0  0  0  0  0  0  0  0
   48.2483   14.0698   12.2563 H   0  0  0  0  0  0  0  0  0  0  0  0
   45.4025   10.5706   10.2146 H   0  0  0  0  0  0  0  0  0  0  0  0
   50.0384    9.3178   23.7221 H   0  0  0  0  0  0  0  0  0  0  0  0
   49.4441    8.5259   22.2624 H   0  0  0  0  0  0  0  0  0  0  0  0
   49.4733   11.7446   20.7313 H   0  0  0  0  0  0  0  0  0  0  0  0
   49.4818   10.0048   20.4791 H   0  0  0  0  0  0  0  0  0  0  0  0
   51.6265    8.8985   21.0964 H   0  0  0  0  0  0  0  0  0  0  0  0
   52.3253    9.5226   22.5716 H   0  0  0  0  0  0  0  0  0  0  0  0
   52.1132    8.0480   12.0136 H   0  0  0  0  0  0  0  0  0  0  0  0
   50.3677    6.7171   10.8532 H   0  0  0  0  0  0  0  0  0  0  0  0
   45.5871   12.7907    9.1422 H   0  0  0  0  0  0  0  0  0  0  0  0
   47.0167   14.5435   10.1603 H   0  0  0  0  0  0  0  0  0  0  0  0
   50.4320    9.2001   15.1709 H   0  0  0  0  0  0  0  0  0  0  0  0
   48.9010   11.5945   16.4173 H   0  0  0  0  0  0  0  0  0  0  0  0
   49.1290   12.3348   13.0656 H   0  0  0  0  0  0  0  0  0  0  0  0
   49.3232   10.0306   19.4149 H   0  0  0  0  0  0  0  0  0  0  0  0
  2  1  2  0
  3  1  1  0
  4  6  1  0
  5  1  1  0
  6  3  2  0
  7  2  1  0
  8  7  2  0
  9 13  1  0
 10  5  1  0
 11  5  1  0
 12 10  1  0
 13 11  1  0
 14  3  1  0
 15  6  1  0
 16  9  1  0
 17 21  1  0
 18  7  1  0
 19  8  1  0
 20 22  1  0
 21 23  1  0
 22 16  1  0
 23 20  1  0
 24 14  2  0
 25 15  2  0
 26 19  2  0
 27 18  2  0
  9 12  1  0
  8  4  1  0
 24 25  1  0
 27 26  1  0
 29 28  2  0
 30 28  1  0
 31 33  1  0
 32 28  1  0
 33 30  2  0
 34 29  1  0
 35 34  2  0
 36 40  1  0
 37 32  1  0
 38 32  1  0
 39 37  1  0
 40 38  1  0
 41 30  1  0
 42 33  1  0
 43 36  1  0
 44 48  1  0
 45 34  1  0
 46 35  1  0
 47 49  1  0
 48 50  1  0
 49 43  1  0
 50 47  1  0
 51 41  2  0
 52 42  2  0
 53 46  2  0
 54 45  2  0
 36 39  1  0
 35 31  1  0
 51 52  1  0
 54 53  1  0
 56 58  1  0
 57 55  1  0
 58 57  2  0
 59 55  2  0
 60 56  2  0
 61 55  1  0
 62 56  1  0
 10 63  1  0
 10 64  1  0
 11 65  1  0
 11 66  1  0
 12 67  1  0
 12 68  1  0
 13 69  1  0
 13 70  1  0
 14 71  1  0
 15 72  1  0
 16 73  1  0
 16 74  1  0
 17 75  1  0
 18 76  1  0
 19 77  1  0
 21 78  1  0
 21 79  1  0
 22 80  1  0
 22 81  1  0
 23 82  1  0
 23 83  1  0
 24 84  1  0
 25 85  1  0
 26 86  1  0
 27 87  1  0
 37 88  1  0
 37 89  1  0
 38 90  1  0
 38 91  1  0
 39 92  1  0
 39 93  1  0
 40 94  1  0
 40 95  1  0
 41 96  1  0
 42 97  1  0
 43 98  1  0
 43 99  1  0
 44100  1  0
 45101  1  0
 46102  1  0
 48103  1  0
 48104  1  0
 49105  1  0
 49106  1  0
 50107  1  0
 50108  1  0
 51109  1  0
 52110  1  0
 53111  1  0
 54112  1  0
 57113  1  0
 58114  1  0
 61115  1  0
 62116  1  0
M  END
> <Uni-Dock RESULT> 
ENERGY=   -4.408  LOWER_BOUND=    3.997  UPPER_BOUND=    8.361
INTER + INTRA:          -4.408
INTER:                  -4.408
INTRA:                   0.000
UNBOUND:                 0.000

$$$$

     RDKit          3D

116121  0  0  0  0  0  0  0  0999 V2000
   53.3726    8.8163   11.2369 C   0  0  0  0  0  0  0  0  0  0  0  0
   52.6600    8.7097   10.1432 N   0  0  0  0  0  0  0  0  0  0  0  0
   54.8672    8.6712   11.2765 C   0  0  0  0  0  0  0  0  0  0  0  0
   54.6475    6.2480    9.8936 S   0  0  0  0  0  0  0  0  0  0  0  0
   52.6944    9.1030   12.4305 N   0  0  0  0  0  0  0  0  0  0  0  0
   55.5160    7.5351   10.7740 C   0  0  0  0  0  0  0  0  0  0  0  0
   53.1782    8.4082    8.8738 C   0  0  0  0  0  0  0  0  0  0  0  0
   53.9925    7.2941    8.5926 C   0  0  0  0  0  0  0  0  0  0  0  0
   50.8074    8.6070   14.7371 N   0  0  0  0  0  0  0  0  0  0  0  0
   51.2524    9.4404   12.3675 C   0  0  0  0  0  0  0  0  0  0  0  0
   53.1558    8.6142   13.7457 C   0  0  0  0  0  0  0  0  0  0  0  0
   50.6666    9.7203   13.7673 C   0  0  0  0  0  0  0  0  0  0  0  0
   52.0342    7.8199   14.4525 C   0  0  0  0  0  0  0  0  0  0  0  0
   55.6061    9.6863   11.9021 C   0  0  0  0  0  0  0  0  0  0  0  0
   56.9034    7.4200   10.9247 C   0  0  0  0  0  0  0  0  0  0  0  0
   49.6367    7.6992   14.7607 C   0  0  0  0  0  0  0  0  0  0  0  0
   49.8060   10.9607   17.3983 O   0  0  0  0  0  0  0  0  0  0  0  0
   52.7430    9.2063    7.8089 C   0  0  0  0  0  0  0  0  0  0  0  0
   54.3556    7.0050    7.2692 C   0  0  0  0  0  0  0  0  0  0  0  0
   48.7065    8.4976   16.8414 O   0  0  0  0  0  0  0  0  0  0  0  0
   48.4054   10.8933   17.1413 C   0  0  0  0  0  0  0  0  0  0  0  0
   48.4050    8.2960   15.4572 C   0  0  0  0  0  0  0  0  0  0  0  0
   47.8870    9.4928   17.4664 C   0  0  0  0  0  0  0  0  0  0  0  0
   56.9872    9.5683   12.0344 C   0  0  0  0  0  0  0  0  0  0  0  0
   57.6333    8.4320   11.5497 C   0  0  0  0  0  0  0  0  0  0  0  0
   53.9154    7.8180    6.2226 C   0  0  0  0  0  0  0  0  0  0  0  0
   53.1161    8.9242    6.4926 C   0  0  0  0  0  0  0  0  0  0  0  0
   53.0830    8.1882   10.7953 C   0  0  0  0  0  0  0  0  0  0  0  0
   53.1919    6.9123   10.5281 N   0  0  0  0  0  0  0  0  0  0  0  0
   53.9329    9.2725   10.2098 C   0  0  0  0  0  0  0  0  0  0  0  0
   56.2261    7.8046   10.8643 S   0  0  0  0  0  0  0  0  0  0  0  0
   52.0983    8.6079   11.6940 N   0  0  0  0  0  0  0  0  0  0  0  0
   55.3323    9.2151   10.2302 C   0  0  0  0  0  0  0  0  0  0  0  0
   54.1523    6.3596    9.6620 C   0  0  0  0  0  0  0  0  0  0  0  0
   55.5369    6.5915    9.7423 C   0  0  0  0  0  0  0  0  0  0  0  0
   50.0838    8.6291   13.8517 N   0  0  0  0  0  0  0  0  0  0  0  0
   50.7529    8.0180   11.5070 C   0  0  0  0  0  0  0  0  0  0  0  0
   52.4991    8.5101   13.1160 C   0  0  0  0  0  0  0  0  0  0  0  0
   49.7304    8.7258   12.4143 C   0  0  0  0  0  0  0  0  0  0  0  0
   51.4531    9.1530   14.0471 C   0  0  0  0  0  0  0  0  0  0  0  0
   53.2776   10.3940    9.6739 C   0  0  0  0  0  0  0  0  0  0  0  0
   56.0641   10.2941    9.7125 C   0  0  0  0  0  0  0  0  0  0  0  0
   49.1012    9.3529   14.6757 C   0  0  0  0  0  0  0  0  0  0  0  0
   49.3285   12.1910   19.2916 O   0  0  0  0  0  0  0  0  0  0  0  0
   53.6931    5.4204    8.7277 C   0  0  0  0  0  0  0  0  0  0  0  0
   56.4196    5.9023    8.8968 C   0  0  0  0  0  0  0  0  0  0  0  0
   48.1295    9.6606   16.8977 O   0  0  0  0  0  0  0  0  0  0  0  0
   49.1758   10.8925   18.7289 C   0  0  0  0  0  0  0  0  0  0  0  0
   49.1928    9.0279   16.1783 C   0  0  0  0  0  0  0  0  0  0  0  0
   48.4596   10.9644   17.3823 C   0  0  0  0  0  0  0  0  0  0  0  0
   54.0183   11.4509    9.1414 C   0  0  0  0  0  0  0  0  0  0  0  0
   55.4104   11.4005    9.1616 C   0  0  0  0  0  0  0  0  0  0  0  0
   55.9381    4.9847    7.9688 C   0  0  0  0  0  0  0  0  0  0  0  0
   54.5743    4.7432    7.8817 C   0  0  0  0  0  0  0  0  0  0  0  0
   52.6453    8.7101   10.4921 C   0  0  0  0  0  0  0  0  0  0  0  0
   51.4612    9.4162   14.0310 C   0  0  0  0  0  0  0  0  0  0  0  0
   52.2987    9.3539   11.7602 C   0  0  0  0  0  0  0  0  0  0  0  0
   51.7838    8.6869   12.8040 C   0  0  0  0  0  0  0  0  0  0  0  0
   53.1908    9.2711    9.5602 O   0  0  0  0  0  0  0  0  0  0  0  0
   51.5688   10.6140   14.2228 O   0  0  0  0  0  0  0  0  0  0  0  0
   52.3102    7.4110   10.4346 O   0  0  0  0  0  0  0  0  0  0  0  0
   50.9537    8.5825   14.9486 O   0  0  0  0  0  0  0  0  0  0  0  0
   51.1228   10.3406   11.7530 H   0  0  0  0  0  0  0  0  0  0  0  0
   50.6959    8.6228   11.8960 H   0  0  0  0  0  0  0  0  0  0  0  0
   54.0128    7.9435   13.6394 H   0  0  0  0  0  0  0  0  0  0  0  0
   53.4689    9.4647   14.3674 H   0  0  0  0  0  0  0  0  0  0  0  0
   49.6224   10.0408   13.6638 H   0  0  0  0  0  0  0  0  0  0  0  0
   51.1914   10.5906   14.1964 H   0  0  0  0  0  0  0  0  0  0  0  0
   52.4132    7.4351   15.4041 H   0  0  0  0  0  0  0  0  0  0  0  0
   51.7947    6.9550   13.8217 H   0  0  0  0  0  0  0  0  0  0  0  0
   55.0994   10.5688   12.2867 H   0  0  0  0  0  0  0  0  0  0  0  0
   57.4257    6.5534   10.5349 H   0  0  0  0  0  0  0  0  0  0  0  0
   49.9125    6.8001   15.3275 H   0  0  0  0  0  0  0  0  0  0  0  0
   49.3677    7.3851   13.7432 H   0  0  0  0  0  0  0  0  0  0  0  0
   50.1730   10.1017   17.0948 H   0  0  0  0  0  0  0  0  0  0  0  0
   52.0909   10.0453    8.0163 H   0  0  0  0  0  0  0  0  0  0  0  0
   54.9833    6.1430    7.0490 H   0  0  0  0  0  0  0  0  0  0  0  0
   48.2546   11.1441   16.0878 H   0  0  0  0  0  0  0  0  0  0  0  0
   47.9020   11.6465   17.7555 H   0  0  0  0  0  0  0  0  0  0  0  0
   48.0798    9.2221   14.9730 H   0  0  0  0  0  0  0  0  0  0  0  0
   47.5738    7.5850   15.4036 H   0  0  0  0  0  0  0  0  0  0  0  0
   46.8363    9.3669   17.1843 H   0  0  0  0  0  0  0  0  0  0  0  0
   47.9724    9.3223   18.5442 H   0  0  0  0  0  0  0  0  0  0  0  0
   57.5590   10.3602   12.5201 H   0  0  0  0  0  0  0  0  0  0  0  0
   58.7066    8.3363   11.6594 H   0  0  0  0  0  0  0  0  0  0  0  0
   54.1960    7.5845    5.1966 H   0  0  0  0  0  0  0  0  0  0  0  0
   52.7649    9.5553    5.6839 H   0  0  0  0  0  0  0  0  0  0  0  0
   50.4465    8.1365   10.4643 H   0  0  0  0  0  0  0  0  0  0  0  0
   50.7668    6.9436   11.7300 H   0  0  0  0  0  0  0  0  0  0  0  0
   52.6502    7.4560   13.3889 H   0  0  0  0  0  0  0  0  0  0  0  0
   53.4597    9.0161   13.2649 H   0  0  0  0  0  0  0  0  0  0  0  0
   48.7512    8.2579   12.2480 H   0  0  0  0  0  0  0  0  0  0  0  0
   49.6421    9.7807   12.1101 H   0  0  0  0  0  0  0  0  0  0  0  0
   51.4719   10.2394   13.8955 H   0  0  0  0  0  0  0  0  0  0  0  0
   51.7741    8.9558   15.0742 H   0  0  0  0  0  0  0  0  0  0  0  0
   52.1949   10.4405    9.6704 H   0  0  0  0  0  0  0  0  0  0  0  0
   57.1500   10.2699    9.7149 H   0  0  0  0  0  0  0  0  0  0  0  0
   48.0804    9.0909   14.3554 H   0  0  0  0  0  0  0  0  0  0  0  0
   49.1815   10.4359   14.5255 H   0  0  0  0  0  0  0  0  0  0  0  0
   48.4569   12.4490   19.6488 H   0  0  0  0  0  0  0  0  0  0  0  0
   52.6257    5.2054    8.6740 H   0  0  0  0  0  0  0  0  0  0  0  0
   57.4891    6.0861    8.9631 H   0  0  0  0  0  0  0  0  0  0  0  0
   48.6305   10.2504   19.4369 H   0  0  0  0  0  0  0  0  0  0  0  0
   50.1720   10.4611   18.6060 H   0  0  0  0  0  0  0  0  0  0  0  0
   49.0718    7.9512   16.3267 H   0  0  0  0  0  0  0  0  0  0  0  0
   50.1637    9.3016   16.6000 H   0  0  0  0  0  0  0  0  0  0  0  0
   49.0404   11.5245   16.6439 H   0  0  0  0  0  0  0  0  0  0  0  0
   47.5151   11.5101   17.4966 H   0  0  0  0  0  0  0  0  0  0  0  0
   53.5098   12.3100    8.7150 H   0  0  0  0  0  0  0  0  0  0  0  0
   55.9908   12.2193    8.7397 H   0  0  0  0  0  0  0  0  0  0  0  0
   56.6267    4.4583    7.3141 H   0  0  0  0  0  0  0  0  0  0  0  0
   54.1900    4.0195    7.1637 H   0  0  0  0  0  0  0  0  0  0  0  0
   52.4980   10.4191   11.8011 H   0  0  0  0  0  0  0  0  0  0  0  0
   51.5957    7.6208   12.7938 H   0  0  0  0  0  0  0  0  0  0  0  0
   52.6197    7.1232    9.5476 H   0  0  0  0  0  0  0  0  0  0  0  0
   50.7627    9.1604   15.7171 H   0  0  0  0  0  0  0  0  0  0  0  0
  2  1  2  0
  3  1  1  0
  4  6  1  0
  5  1  1  0
  6  3  2  0
  7  2  1  0
  8  7  2  0
  9 13  1  0
 10  5  1  0
 11  5  1  0
 12 10  1  0
 13 11  1  0
 14  3  1  0
 15  6  1  0
 16  9  1  0
 17 21  1  0
 18  7  1  0
 19  8  1  0
 20 22  1  0
 21 23  1  0
 22 16  1  0
 23 20  1  0
 24 14  2  0
 25 15  2  0
 26 19  2  0
 27 18  2  0
  9 12  1  0
  8  4  1  0
 24 25  1  0
 27 26  1  0
 29 28  2  0
 30 28  1  0
 31 33  1  0
 32 28  1  0
 33 30  2  0
 34 29  1  0
 35 34  2  0
 36 40  1  0
 37 32  1  0
 38 32  1  0
 39 37  1  0
 40 38  1  0
 41 30  1  0
 42 33  1  0
 43 36  1  0
 44 48  1  0
 45 34  1  0
 46 35  1  0
 47 49  1  0
 48 50  1  0
 49 43  1  0
 50 47  1  0
 51 41  2  0
 52 42  2  0
 53 46  2  0
 54 45  2  0
 36 39  1  0
 35 31  1  0
 51 52  1  0
 54 53  1  0
 56 58  1  0
 57 55  1  0
 58 57  2  0
 59 55  2  0
 60 56  2  0
 61 55  1  0
 62 56  1  0
 10 63  1  0
 10 64  1  0
 11 65  1  0
 11 66  1  0
 12 67  1  0
 12 68  1  0
 13 69  1  0
 13 70  1  0
 14 71  1  0
 15 72  1  0
 16 73  1  0
 16 74  1  0
 17 75  1  0
 18 76  1  0
 19 77  1  0
 21 78  1  0
 21 79  1  0
 22 80  1  0
 22 81  1  0
 23 82  1  0
 23 83  1  0
 24 84  1  0
 25 85  1  0
 26 86  1  0
 27 87  1  0
 37 88  1  0
 37 89  1  0
 38 90  1  0
 38 91  1  0
 39 92  1  0
 39 93  1  0
 40 94  1  0
 40 95  1  0
 41 96  1  0
 42 97  1  0
 43 98  1  0
 43 99  1  0
 44100  1  0
 45101  1  0
 46102  1  0
 48103  1  0
 48104  1  0
 49105  1  0
 49106  1  0
 50107  1  0
 50108  1  0
 51109  1  0
 52110  1  0
 53111  1  0
 54112  1  0
 57113  1  0
 58114  1  0
 61115  1  0
 62116  1  0
M  END
> <Uni-Dock RESULT> 
ENERGY=   -4.306  LOWER_BOUND=    5.153  UPPER_BOUND=    8.569
INTER + INTRA:          -4.306
INTER:                  -4.306
INTRA:                   0.000
UNBOUND:                 0.000

$$$$

     RDKit          3D

116121  0  0  0  0  0  0  0  0999 V2000
   49.9057    8.3058   19.7334 C   0  0  0  0  0  0  0  0  0  0  0  0
   50.4362    7.1497   20.0452 N   0  0  0  0  0  0  0  0  0  0  0  0
   49.3410    9.2643   20.7428 C   0  0  0  0  0  0  0  0  0  0  0  0
   47.8106    7.1874   21.8277 S   0  0  0  0  0  0  0  0  0  0  0  0
   49.8870    8.6695   18.3791 N   0  0  0  0  0  0  0  0  0  0  0  0
   48.3550    8.8792   21.6612 C   0  0  0  0  0  0  0  0  0  0  0  0
   50.5163    6.6281   21.3461 C   0  0  0  0  0  0  0  0  0  0  0  0
   49.4171    6.4914   22.2159 C   0  0  0  0  0  0  0  0  0  0  0  0
   49.0920    8.4932   15.4697 N   0  0  0  0  0  0  0  0  0  0  0  0
   50.6146    7.8231   17.4038 C   0  0  0  0  0  0  0  0  0  0  0  0
   48.8190    9.5049   17.7934 C   0  0  0  0  0  0  0  0  0  0  0  0
   50.4842    8.3640   15.9645 C   0  0  0  0  0  0  0  0  0  0  0  0
   48.1648    8.7849   16.5926 C   0  0  0  0  0  0  0  0  0  0  0  0
   49.7817   10.5953   20.6980 C   0  0  0  0  0  0  0  0  0  0  0  0
   47.8040    9.8435   22.5140 C   0  0  0  0  0  0  0  0  0  0  0  0
   48.6163    7.2950   14.7396 C   0  0  0  0  0  0  0  0  0  0  0  0
   50.4116   10.4508   12.6323 O   0  0  0  0  0  0  0  0  0  0  0  0
   51.7516    6.0988   21.7386 C   0  0  0  0  0  0  0  0  0  0  0  0
   49.5727    5.8404   23.4483 C   0  0  0  0  0  0  0  0  0  0  0  0
   48.7749    8.2384   12.5222 O   0  0  0  0  0  0  0  0  0  0  0  0
   50.8472    9.3312   11.8650 C   0  0  0  0  0  0  0  0  0  0  0  0
   49.2184    7.1472   13.3346 C   0  0  0  0  0  0  0  0  0  0  0  0
   49.6382    8.5131   11.4122 C   0  0  0  0  0  0  0  0  0  0  0  0
   49.2372   11.5434   21.5602 C   0  0  0  0  0  0  0  0  0  0  0  0
   48.2447   11.1667   22.4639 C   0  0  0  0  0  0  0  0  0  0  0  0
   50.8156    5.3252   23.8227 C   0  0  0  0  0  0  0  0  0  0  0  0
   51.9078    5.4618   22.9721 C   0  0  0  0  0  0  0  0  0  0  0  0
   49.6068    7.5634   19.9152 C   0  0  0  0  0  0  0  0  0  0  0  0
   48.5592    6.8853   20.3075 N   0  0  0  0  0  0  0  0  0  0  0  0
   50.5452    8.3065   20.8141 C   0  0  0  0  0  0  0  0  0  0  0  0
   48.3562    9.5342   22.0561 S   0  0  0  0  0  0  0  0  0  0  0  0
   49.9055    7.6145   18.5508 N   0  0  0  0  0  0  0  0  0  0  0  0
   50.0920    9.2312   21.7636 C   0  0  0  0  0  0  0  0  0  0  0  0
   48.1379    6.7743   21.6447 C   0  0  0  0  0  0  0  0  0  0  0  0
   47.9197    7.8590   22.5126 C   0  0  0  0  0  0  0  0  0  0  0  0
   49.6581    7.5096   15.6111 N   0  0  0  0  0  0  0  0  0  0  0  0
   49.8397    6.3271   17.8219 C   0  0  0  0  0  0  0  0  0  0  0  0
   49.1565    8.6538   17.8083 C   0  0  0  0  0  0  0  0  0  0  0  0
   50.3987    6.4928   16.3972 C   0  0  0  0  0  0  0  0  0  0  0  0
   49.6560    8.7869   16.3567 C   0  0  0  0  0  0  0  0  0  0  0  0
   51.9221    8.0846   20.6423 C   0  0  0  0  0  0  0  0  0  0  0  0
   51.0329    9.9315   22.5330 C   0  0  0  0  0  0  0  0  0  0  0  0
   50.2522    7.6617   14.2723 C   0  0  0  0  0  0  0  0  0  0  0  0
   50.8942   11.7931   10.8181 O   0  0  0  0  0  0  0  0  0  0  0  0
   47.8045    5.4896   22.0966 C   0  0  0  0  0  0  0  0  0  0  0  0
   47.3925    7.6436   23.7952 C   0  0  0  0  0  0  0  0  0  0  0  0
   49.9370    8.4283   11.9724 O   0  0  0  0  0  0  0  0  0  0  0  0
   50.0150   10.7591   11.2467 C   0  0  0  0  0  0  0  0  0  0  0  0
   49.3597    8.4331   13.2821 C   0  0  0  0  0  0  0  0  0  0  0  0
   50.8011    9.5392   11.7212 C   0  0  0  0  0  0  0  0  0  0  0  0
   52.8469    8.7720   21.4307 C   0  0  0  0  0  0  0  0  0  0  0  0
   52.4020    9.6948   22.3747 C   0  0  0  0  0  0  0  0  0  0  0  0
   47.0818    6.3577   24.2250 C   0  0  0  0  0  0  0  0  0  0  0  0
   47.2884    5.2786   23.3772 C   0  0  0  0  0  0  0  0  0  0  0  0
   50.3057    7.3402   19.7833 C   0  0  0  0  0  0  0  0  0  0  0  0
   49.8909    8.9065   16.3482 C   0  0  0  0  0  0  0  0  0  0  0  0
   50.4782    8.1368   18.5674 C   0  0  0  0  0  0  0  0  0  0  0  0
   49.6343    8.0772   17.5264 C   0  0  0  0  0  0  0  0  0  0  0  0
   51.0047    7.4348   20.7747 O   0  0  0  0  0  0  0  0  0  0  0  0
   50.8380    9.6502   16.1662 O   0  0  0  0  0  0  0  0  0  0  0  0
   49.2821    6.4732   19.7222 O   0  0  0  0  0  0  0  0  0  0  0  0
   48.9474    8.7014   15.4198 O   0  0  0  0  0  0  0  0  0  0  0  0
   51.6792    7.8053   17.6705 H   0  0  0  0  0  0  0  0  0  0  0  0
   50.2363    6.7956   17.4428 H   0  0  0  0  0  0  0  0  0  0  0  0
   48.0294    9.7052   18.5229 H   0  0  0  0  0  0  0  0  0  0  0  0
   49.2368   10.4706   17.4760 H   0  0  0  0  0  0  0  0  0  0  0  0
   51.1004    7.7535   15.2925 H   0  0  0  0  0  0  0  0  0  0  0  0
   50.9342    9.3707   15.9291 H   0  0  0  0  0  0  0  0  0  0  0  0
   47.3520    9.4051   16.2029 H   0  0  0  0  0  0  0  0  0  0  0  0
   47.7171    7.8568   16.9685 H   0  0  0  0  0  0  0  0  0  0  0  0
   50.5507   10.8893   19.9869 H   0  0  0  0  0  0  0  0  0  0  0  0
   47.0465    9.5645   23.2381 H   0  0  0  0  0  0  0  0  0  0  0  0
   47.5299    7.3840   14.6073 H   0  0  0  0  0  0  0  0  0  0  0  0
   48.8101    6.3833   15.3205 H   0  0  0  0  0  0  0  0  0  0  0  0
   49.6714   10.1206   13.1869 H   0  0  0  0  0  0  0  0  0  0  0  0
   52.5920    6.1730   21.0601 H   0  0  0  0  0  0  0  0  0  0  0  0
   48.7240    5.7316   24.1216 H   0  0  0  0  0  0  0  0  0  0  0  0
   51.5174    8.7430   12.4977 H   0  0  0  0  0  0  0  0  0  0  0  0
   51.4129    9.6985   11.0031 H   0  0  0  0  0  0  0  0  0  0  0  0
   50.3106    7.0850   13.3708 H   0  0  0  0  0  0  0  0  0  0  0  0
   48.8496    6.2249   12.8735 H   0  0  0  0  0  0  0  0  0  0  0  0
   49.9334    7.5865   10.9084 H   0  0  0  0  0  0  0  0  0  0  0  0
   49.0475    9.1090   10.7093 H   0  0  0  0  0  0  0  0  0  0  0  0
   49.5831   12.5774   21.5238 H   0  0  0  0  0  0  0  0  0  0  0  0
   47.8154   11.9056   23.1293 H   0  0  0  0  0  0  0  0  0  0  0  0
   50.9281    4.8156   24.7785 H   0  0  0  0  0  0  0  0  0  0  0  0
   52.8738    5.0578   23.2535 H   0  0  0  0  0  0  0  0  0  0  0  0
   50.4336    5.5786   18.3531 H   0  0  0  0  0  0  0  0  0  0  0  0
   48.8063    5.9608   17.7755 H   0  0  0  0  0  0  0  0  0  0  0  0
   48.0829    8.4178   17.8180 H   0  0  0  0  0  0  0  0  0  0  0  0
   49.2720    9.6216   18.3094 H   0  0  0  0  0  0  0  0  0  0  0  0
   50.3286    5.5204   15.8923 H   0  0  0  0  0  0  0  0  0  0  0  0
   51.4674    6.7534   16.4531 H   0  0  0  0  0  0  0  0  0  0  0  0
   50.6631    9.2217   16.3728 H   0  0  0  0  0  0  0  0  0  0  0  0
   48.9949    9.4994   15.8545 H   0  0  0  0  0  0  0  0  0  0  0  0
   52.2698    7.3773   19.8986 H   0  0  0  0  0  0  0  0  0  0  0  0
   50.7044   10.6508   23.2776 H   0  0  0  0  0  0  0  0  0  0  0  0
   50.4341    6.6695   13.8299 H   0  0  0  0  0  0  0  0  0  0  0  0
   51.2383    8.1371   14.3298 H   0  0  0  0  0  0  0  0  0  0  0  0
   51.2285   11.5336    9.9379 H   0  0  0  0  0  0  0  0  0  0  0  0
   47.9377    4.6411   21.4251 H   0  0  0  0  0  0  0  0  0  0  0  0
   47.2265    8.4861   24.4619 H   0  0  0  0  0  0  0  0  0  0  0  0
   49.3313   10.4981   10.4249 H   0  0  0  0  0  0  0  0  0  0  0  0
   49.4026   11.1555   12.0601 H   0  0  0  0  0  0  0  0  0  0  0  0
   48.3912    7.9323   13.1974 H   0  0  0  0  0  0  0  0  0  0  0  0
   49.1629    9.4554   13.6160 H   0  0  0  0  0  0  0  0  0  0  0  0
   51.4145    9.7680   12.5974 H   0  0  0  0  0  0  0  0  0  0  0  0
   51.5025    9.2262   10.9383 H   0  0  0  0  0  0  0  0  0  0  0  0
   53.9095    8.5884   21.3061 H   0  0  0  0  0  0  0  0  0  0  0  0
   53.1201   10.2263   22.9967 H   0  0  0  0  0  0  0  0  0  0  0  0
   46.6785    6.1978   25.2208 H   0  0  0  0  0  0  0  0  0  0  0  0
   47.0393    4.2692   23.7031 H   0  0  0  0  0  0  0  0  0  0  0  0
   51.3414    8.7934   18.5701 H   0  0  0  0  0  0  0  0  0  0  0  0
   48.7554    7.4453   17.5091 H   0  0  0  0  0  0  0  0  0  0  0  0
   49.2851    6.0373   20.6028 H   0  0  0  0  0  0  0  0  0  0  0  0
   49.2114    9.2849   14.6776 H   0  0  0  0  0  0  0  0  0  0  0  0
  2  1  2  0
  3  1  1  0
  4  6  1  0
  5  1  1  0
  6  3  2  0
  7  2  1  0
  8  7  2  0
  9 13  1  0
 10  5  1  0
 11  5  1  0
 12 10  1  0
 13 11  1  0
 14  3  1  0
 15  6  1  0
 16  9  1  0
 17 21  1  0
 18  7  1  0
 19  8  1  0
 20 22  1  0
 21 23  1  0
 22 16  1  0
 23 20  1  0
 24 14  2  0
 25 15  2  0
 26 19  2  0
 27 18  2  0
  9 12  1  0
  8  4  1  0
 24 25  1  0
 27 26  1  0
 29 28  2  0
 30 28  1  0
 31 33  1  0
 32 28  1  0
 33 30  2  0
 34 29  1  0
 35 34  2  0
 36 40  1  0
 37 32  1  0
 38 32  1  0
 39 37  1  0
 40 38  1  0
 41 30  1  0
 42 33  1  0
 43 36  1  0
 44 48  1  0
 45 34  1  0
 46 35  1  0
 47 49  1  0
 48 50  1  0
 49 43  1  0
 50 47  1  0
 51 41  2  0
 52 42  2  0
 53 46  2  0
 54 45  2  0
 36 39  1  0
 35 31  1  0
 51 52  1  0
 54 53  1  0
 56 58  1  0
 57 55  1  0
 58 57  2  0
 59 55  2  0
 60 56  2  0
 61 55  1  0
 62 56  1  0
 10 63  1  0
 10 64  1  0
 11 65  1  0
 11 66  1  0
 12 67  1  0
 12 68  1  0
 13 69  1  0
 13 70  1  0
 14 71  1  0
 15 72  1  0
 16 73  1  0
 16 74  1  0
 17 75  1  0
 18 76  1  0
 19 77  1  0
 21 78  1  0
 21 79  1  0
 22 80  1  0
 22 81  1  0
 23 82  1  0
 23 83  1  0
 24 84  1  0
 25 85  1  0
 26 86  1  0
 27 87  1  0
 37 88  1  0
 37 89  1  0
 38 90  1  0
 38 91  1  0
 39 92  1  0
 39 93  1  0
 40 94  1  0
 40 95  1  0
 41 96  1  0
 42 97  1  0
 43 98  1  0
 43 99  1  0
 44100  1  0
 45101  1  0
 46102  1  0
 48103  1  0
 48104  1  0
 49105  1  0
 49106  1  0
 50107  1  0
 50108  1  0
 51109  1  0
 52110  1  0
 53111  1  0
 54112  1  0
 57113  1  0
 58114  1  0
 61115  1  0
 62116  1  0
M  END
> <Uni-Dock RESULT> 
ENERGY=   -4.279  LOWER_BOUND=    2.667  UPPER_BOUND=    4.961
INTER + INTRA:          -4.279
INTER:                  -4.279
INTRA:                   0.000
UNBOUND:                 0.000

$$$$

     RDKit          3D

116121  0  0  0  0  0  0  0  0999 V2000
   49.9754    8.2624   20.2580 C   0  0  0  0  0  0  0  0  0  0  0  0
   50.7722    7.9226   19.2757 N   0  0  0  0  0  0  0  0  0  0  0  0
   49.0925    7.2922   20.9899 C   0  0  0  0  0  0  0  0  0  0  0  0
   48.0992    6.3789   18.5379 S   0  0  0  0  0  0  0  0  0  0  0  0
   49.9687    9.6073   20.6555 N   0  0  0  0  0  0  0  0  0  0  0  0
   48.1766    6.4706   20.3189 C   0  0  0  0  0  0  0  0  0  0  0  0
   50.8850    6.6280   18.7448 C   0  0  0  0  0  0  0  0  0  0  0  0
   49.7972    5.8609   18.2844 C   0  0  0  0  0  0  0  0  0  0  0  0
   49.4893   12.5779   20.3849 N   0  0  0  0  0  0  0  0  0  0  0  0
   50.9747   10.5273   20.0739 C   0  0  0  0  0  0  0  0  0  0  0  0
   48.7652   10.2721   21.1954 C   0  0  0  0  0  0  0  0  0  0  0  0
   50.8197   11.9640   20.6152 C   0  0  0  0  0  0  0  0  0  0  0  0
   48.4301   11.5370   20.3732 C   0  0  0  0  0  0  0  0  0  0  0  0
   49.1583    7.2773   22.3911 C   0  0  0  0  0  0  0  0  0  0  0  0
   47.3179    5.6551   21.0660 C   0  0  0  0  0  0  0  0  0  0  0  0
   49.4168   13.3655   19.1321 C   0  0  0  0  0  0  0  0  0  0  0  0
   50.4546   15.2570   22.7332 O   0  0  0  0  0  0  0  0  0  0  0  0
   52.1815    6.1360   18.5519 C   0  0  0  0  0  0  0  0  0  0  0  0
   50.0231    4.6297   17.6519 C   0  0  0  0  0  0  0  0  0  0  0  0
   49.4929   15.5455   20.1685 O   0  0  0  0  0  0  0  0  0  0  0  0
   51.2377   16.0000   21.8022 C   0  0  0  0  0  0  0  0  0  0  0  0
   50.1481   14.7139   19.2059 C   0  0  0  0  0  0  0  0  0  0  0  0
   50.3364   16.5705   20.7077 C   0  0  0  0  0  0  0  0  0  0  0  0
   48.3093    6.4522   23.1240 C   0  0  0  0  0  0  0  0  0  0  0  0
   47.3862    5.6457   22.4599 C   0  0  0  0  0  0  0  0  0  0  0  0
   51.3245    4.1549   17.4753 C   0  0  0  0  0  0  0  0  0  0  0  0
   52.4040    4.9035   17.9330 C   0  0  0  0  0  0  0  0  0  0  0  0
   49.8751    8.1191   19.4562 C   0  0  0  0  0  0  0  0  0  0  0  0
   49.0222    7.8314   18.5070 N   0  0  0  0  0  0  0  0  0  0  0  0
   50.5012    7.1295   20.3886 C   0  0  0  0  0  0  0  0  0  0  0  0
   47.9684    6.0671   20.9344 S   0  0  0  0  0  0  0  0  0  0  0  0
   50.2582    9.4508   19.6384 N   0  0  0  0  0  0  0  0  0  0  0  0
   49.7391    6.2097   21.1202 C   0  0  0  0  0  0  0  0  0  0  0  0
   48.5399    6.5386   18.2352 C   0  0  0  0  0  0  0  0  0  0  0  0
   47.9665    5.6768   19.1871 C   0  0  0  0  0  0  0  0  0  0  0  0
   50.2873   12.4022   19.5847 N   0  0  0  0  0  0  0  0  0  0  0  0
   50.6028   10.2024   18.4098 C   0  0  0  0  0  0  0  0  0  0  0  0
   49.3184   10.2405   20.4663 C   0  0  0  0  0  0  0  0  0  0  0  0
   51.2095   11.5694   18.7745 C   0  0  0  0  0  0  0  0  0  0  0  0
   49.8790   11.6400   20.7847 C   0  0  0  0  0  0  0  0  0  0  0  0
   51.8959    7.1823   20.5514 C   0  0  0  0  0  0  0  0  0  0  0  0
   50.3897    5.3493   22.0171 C   0  0  0  0  0  0  0  0  0  0  0  0
   50.9243   13.6807   19.9424 C   0  0  0  0  0  0  0  0  0  0  0  0
   50.7007   17.0007   24.2250 O   0  0  0  0  0  0  0  0  0  0  0  0
   48.5315    6.1377   16.8917 C   0  0  0  0  0  0  0  0  0  0  0  0
   47.4153    4.4493   18.7886 C   0  0  0  0  0  0  0  0  0  0  0  0
   50.6006   15.9874   20.6846 O   0  0  0  0  0  0  0  0  0  0  0  0
   50.1028   16.6674   22.9770 C   0  0  0  0  0  0  0  0  0  0  0  0
   49.9395   14.7339   20.4835 C   0  0  0  0  0  0  0  0  0  0  0  0
   51.1488   16.1441   21.9956 C   0  0  0  0  0  0  0  0  0  0  0  0
   52.5329    6.3047   21.4308 C   0  0  0  0  0  0  0  0  0  0  0  0
   51.7798    5.3897   22.1631 C   0  0  0  0  0  0  0  0  0  0  0  0
   47.4308    4.0685   17.4508 C   0  0  0  0  0  0  0  0  0  0  0  0
   47.9899    4.9112   16.5005 C   0  0  0  0  0  0  0  0  0  0  0  0
   50.6167    8.1922   19.4341 C   0  0  0  0  0  0  0  0  0  0  0  0
   50.0726   11.6259   20.9632 C   0  0  0  0  0  0  0  0  0  0  0  0
   50.6648    9.3757   20.2942 C   0  0  0  0  0  0  0  0  0  0  0  0
   49.9557   10.4880   20.0505 C   0  0  0  0  0  0  0  0  0  0  0  0
   51.1813    7.1414   19.6745 O   0  0  0  0  0  0  0  0  0  0  0  0
   50.7943   11.7120   21.9404 O   0  0  0  0  0  0  0  0  0  0  0  0
   49.8746    8.3568   18.3271 O   0  0  0  0  0  0  0  0  0  0  0  0
   49.2983   12.6372   20.5483 O   0  0  0  0  0  0  0  0  0  0  0  0
   51.9791   10.1679   20.3324 H   0  0  0  0  0  0  0  0  0  0  0  0
   50.8870   10.5377   18.9818 H   0  0  0  0  0  0  0  0  0  0  0  0
   47.8946    9.6123   21.1479 H   0  0  0  0  0  0  0  0  0  0  0  0
   48.9302   10.5365   22.2494 H   0  0  0  0  0  0  0  0  0  0  0  0
   51.6305   12.5882   20.2191 H   0  0  0  0  0  0  0  0  0  0  0  0
   50.9815   11.9440   21.7063 H   0  0  0  0  0  0  0  0  0  0  0  0
   47.5139   11.9875   20.7669 H   0  0  0  0  0  0  0  0  0  0  0  0
   48.2216   11.2164   19.3451 H   0  0  0  0  0  0  0  0  0  0  0  0
   49.8738    7.9131   22.9080 H   0  0  0  0  0  0  0  0  0  0  0  0
   46.6082    5.0052   20.5661 H   0  0  0  0  0  0  0  0  0  0  0  0
   48.3612   13.5920   18.9312 H   0  0  0  0  0  0  0  0  0  0  0  0
   49.8025   12.7838   18.2841 H   0  0  0  0  0  0  0  0  0  0  0  0
   49.7890   14.7752   22.1951 H   0  0  0  0  0  0  0  0  0  0  0  0
   53.0225    6.7363   18.8753 H   0  0  0  0  0  0  0  0  0  0  0  0
   49.1840    4.0359   17.2932 H   0  0  0  0  0  0  0  0  0  0  0  0
   51.9887   15.3197   21.3916 H   0  0  0  0  0  0  0  0  0  0  0  0
   51.7507   16.8028   22.3410 H   0  0  0  0  0  0  0  0  0  0  0  0
   51.2096   14.5823   19.4379 H   0  0  0  0  0  0  0  0  0  0  0  0
   50.0815   15.2199   18.2370 H   0  0  0  0  0  0  0  0  0  0  0  0
   50.9112   17.0603   19.9146 H   0  0  0  0  0  0  0  0  0  0  0  0
   49.6653   17.3136   21.1498 H   0  0  0  0  0  0  0  0  0  0  0  0
   48.3640    6.4420   24.2135 H   0  0  0  0  0  0  0  0  0  0  0  0
   46.7204    5.0096   23.0301 H   0  0  0  0  0  0  0  0  0  0  0  0
   51.4932    3.2008   16.9780 H   0  0  0  0  0  0  0  0  0  0  0  0
   53.4173    4.5440   17.7927 H   0  0  0  0  0  0  0  0  0  0  0  0
   51.3322    9.6323   17.8283 H   0  0  0  0  0  0  0  0  0  0  0  0
   49.7146   10.3456   17.7815 H   0  0  0  0  0  0  0  0  0  0  0  0
   48.3517   10.3294   19.9504 H   0  0  0  0  0  0  0  0  0  0  0  0
   49.1265    9.7164   21.4094 H   0  0  0  0  0  0  0  0  0  0  0  0
   51.4466   12.0934   17.8393 H   0  0  0  0  0  0  0  0  0  0  0  0
   52.1595   11.4153   19.3101 H   0  0  0  0  0  0  0  0  0  0  0  0
   50.7259   11.5283   21.4730 H   0  0  0  0  0  0  0  0  0  0  0  0
   49.0925   12.1878   21.3124 H   0  0  0  0  0  0  0  0  0  0  0  0
   52.4812    7.9031   19.9928 H   0  0  0  0  0  0  0  0  0  0  0  0
   49.8194    4.6258   22.5923 H   0  0  0  0  0  0  0  0  0  0  0  0
   51.4035   14.1205   19.0534 H   0  0  0  0  0  0  0  0  0  0  0  0
   51.7369   13.5289   20.6626 H   0  0  0  0  0  0  0  0  0  0  0  0
   51.1629   17.8518   24.0990 H   0  0  0  0  0  0  0  0  0  0  0  0
   48.9434    6.8077   16.1369 H   0  0  0  0  0  0  0  0  0  0  0  0
   46.9739    3.7870   19.5291 H   0  0  0  0  0  0  0  0  0  0  0  0
   49.5842   17.5503   22.5740 H   0  0  0  0  0  0  0  0  0  0  0  0
   49.3421   15.9053   23.1626 H   0  0  0  0  0  0  0  0  0  0  0  0
   49.1531   14.9116   19.7447 H   0  0  0  0  0  0  0  0  0  0  0  0
   49.4468   14.4030   21.4017 H   0  0  0  0  0  0  0  0  0  0  0  0
   51.6042   15.2137   22.3467 H   0  0  0  0  0  0  0  0  0  0  0  0
   51.9698   16.8667   21.9130 H   0  0  0  0  0  0  0  0  0  0  0  0
   53.6120    6.3377   21.5443 H   0  0  0  0  0  0  0  0  0  0  0  0
   52.2743    4.6985   22.8434 H   0  0  0  0  0  0  0  0  0  0  0  0
   47.0067    3.1147   17.1501 H   0  0  0  0  0  0  0  0  0  0  0  0
   47.9980    4.6241   15.4495 H   0  0  0  0  0  0  0  0  0  0  0  0
   51.3146    9.2865   21.1579 H   0  0  0  0  0  0  0  0  0  0  0  0
   49.2852   10.5926   19.2070 H   0  0  0  0  0  0  0  0  0  0  0  0
   49.9243    7.4862   17.8743 H   0  0  0  0  0  0  0  0  0  0  0  0
   49.4535   13.3441   21.2096 H   0  0  0  0  0  0  0  0  0  0  0  0
  2  1  2  0
  3  1  1  0
  4  6  1  0
  5  1  1  0
  6  3  2  0
  7  2  1  0
  8  7  2  0
  9 13  1  0
 10  5  1  0
 11  5  1  0
 12 10  1  0
 13 11  1  0
 14  3  1  0
 15  6  1  0
 16  9  1  0
 17 21  1  0
 18  7  1  0
 19  8  1  0
 20 22  1  0
 21 23  1  0
 22 16  1  0
 23 20  1  0
 24 14  2  0
 25 15  2  0
 26 19  2  0
 27 18  2  0
  9 12  1  0
  8  4  1  0
 24 25  1  0
 27 26  1  0
 29 28  2  0
 30 28  1  0
 31 33  1  0
 32 28  1  0
 33 30  2  0
 34 29  1  0
 35 34  2  0
 36 40  1  0
 37 32  1  0
 38 32  1  0
 39 37  1  0
 40 38  1  0
 41 30  1  0
 42 33  1  0
 43 36  1  0
 44 48  1  0
 45 34  1  0
 46 35  1  0
 47 49  1  0
 48 50  1  0
 49 43  1  0
 50 47  1  0
 51 41  2  0
 52 42  2  0
 53 46  2  0
 54 45  2  0
 36 39  1  0
 35 31  1  0
 51 52  1  0
 54 53  1  0
 56 58  1  0
 57 55  1  0
 58 57  2  0
 59 55  2  0
 60 56  2  0
 61 55  1  0
 62 56  1  0
 10 63  1  0
 10 64  1  0
 11 65  1  0
 11 66  1  0
 12 67  1  0
 12 68  1  0
 13 69  1  0
 13 70  1  0
 14 71  1  0
 15 72  1  0
 16 73  1  0
 16 74  1  0
 17 75  1  0
 18 76  1  0
 19 77  1  0
 21 78  1  0
 21 79  1  0
 22 80  1  0
 22 81  1  0
 23 82  1  0
 23 83  1  0
 24 84  1  0
 25 85  1  0
 26 86  1  0
 27 87  1  0
 37 88  1  0
 37 89  1  0
 38 90  1  0
 38 91  1  0
 39 92  1  0
 39 93  1  0
 40 94  1  0
 40 95  1  0
 41 96  1  0
 42 97  1  0
 43 98  1  0
 43 99  1  0
 44100  1  0
 45101  1  0
 46102  1  0
 48103  1  0
 48104  1  0
 49105  1  0
 49106  1  0
 50107  1  0
 50108  1  0
 51109  1  0
 52110  1  0
 53111  1  0
 54112  1  0
 57113  1  0
 58114  1  0
 61115  1  0
 62116  1  0
M  END
> <Uni-Dock RESULT> 
ENERGY=   -4.269  LOWER_BOUND=    4.413  UPPER_BOUND=    6.700
INTER + INTRA:          -4.269
INTER:                  -4.269
INTRA:                   0.000
UNBOUND:                 0.000

$$$$
