
     RDKit          3D

116121  0  0  0  0  0  0  0  0999 V2000
   49.1803   11.3120   20.2212 C   0  0  0  0  0  0  0  0  0  0  0  0
   49.9178   11.6300   21.2540 N   0  0  0  0  0  0  0  0  0  0  0  0
   48.9170   12.2391   19.0711 C   0  0  0  0  0  0  0  0  0  0  0  0
   51.6655   12.6954   18.8231 S   0  0  0  0  0  0  0  0  0  0  0  0
   48.5733   10.0500   20.2032 N   0  0  0  0  0  0  0  0  0  0  0  0
   49.9540   12.8367   18.3411 C   0  0  0  0  0  0  0  0  0  0  0  0
   50.5949   12.8526   21.4062 C   0  0  0  0  0  0  0  0  0  0  0  0
   51.4738   13.4053   20.4560 C   0  0  0  0  0  0  0  0  0  0  0  0
   47.7809    7.1500   20.1396 N   0  0  0  0  0  0  0  0  0  0  0  0
   48.6630    9.1928   21.4011 C   0  0  0  0  0  0  0  0  0  0  0  0
   48.2481    9.3367   18.9533 C   0  0  0  0  0  0  0  0  0  0  0  0
   47.6600    8.0252   21.3283 C   0  0  0  0  0  0  0  0  0  0  0  0
   48.5410    7.8243   19.0624 C   0  0  0  0  0  0  0  0  0  0  0  0
   47.5815   12.4580   18.7054 C   0  0  0  0  0  0  0  0  0  0  0  0
   49.6375   13.6227   17.2253 C   0  0  0  0  0  0  0  0  0  0  0  0
   48.3701    5.8413   20.4885 C   0  0  0  0  0  0  0  0  0  0  0  0
   50.8932    2.5145   17.7496 O   0  0  0  0  0  0  0  0  0  0  0  0
   50.4639   13.4946   22.6439 C   0  0  0  0  0  0  0  0  0  0  0  0
   52.1880   14.5774   20.7523 C   0  0  0  0  0  0  0  0  0  0  0  0
   49.4801    5.0422   18.4676 O   0  0  0  0  0  0  0  0  0  0  0  0
   49.5638    2.8267   17.3511 C   0  0  0  0  0  0  0  0  0  0  0  0
   48.3645    4.8217   19.3320 C   0  0  0  0  0  0  0  0  0  0  0  0
   49.3849    4.3424   17.2236 C   0  0  0  0  0  0  0  0  0  0  0  0
   47.2776   13.2508   17.5990 C   0  0  0  0  0  0  0  0  0  0  0  0
   48.3070   13.8271   16.8556 C   0  0  0  0  0  0  0  0  0  0  0  0
   52.0265   15.2122   21.9845 C   0  0  0  0  0  0  0  0  0  0  0  0
   51.1618   14.6706   22.9307 C   0  0  0  0  0  0  0  0  0  0  0  0
   48.9062    7.6457   18.8865 C   0  0  0  0  0  0  0  0  0  0  0  0
   47.8986    6.8117   18.8738 N   0  0  0  0  0  0  0  0  0  0  0  0
   50.3107    7.2760   18.5056 C   0  0  0  0  0  0  0  0  0  0  0  0
   50.1863    5.0855   20.2355 S   0  0  0  0  0  0  0  0  0  0  0  0
   48.6727    8.9871   19.2325 N   0  0  0  0  0  0  0  0  0  0  0  0
   50.9835    6.1959   19.0884 C   0  0  0  0  0  0  0  0  0  0  0  0
   47.9954    5.4522   18.5330 C   0  0  0  0  0  0  0  0  0  0  0  0
   48.8965    4.5439   19.1199 C   0  0  0  0  0  0  0  0  0  0  0  0
   47.9795   11.6078   20.4060 N   0  0  0  0  0  0  0  0  0  0  0  0
   47.2661    9.4320   19.3438 C   0  0  0  0  0  0  0  0  0  0  0  0
   49.5101    9.6003   20.2881 C   0  0  0  0  0  0  0  0  0  0  0  0
   47.1782   10.9719   19.3346 C   0  0  0  0  0  0  0  0  0  0  0  0
   49.3788   11.1409   20.2909 C   0  0  0  0  0  0  0  0  0  0  0  0
   50.9648    8.0876   17.5654 C   0  0  0  0  0  0  0  0  0  0  0  0
   52.3143    5.9422   18.7270 C   0  0  0  0  0  0  0  0  0  0  0  0
   47.8751   13.0801   20.3181 C   0  0  0  0  0  0  0  0  0  0  0  0
   50.9199   16.1715   22.8324 O   0  0  0  0  0  0  0  0  0  0  0  0
   47.0627    4.9632   17.6116 C   0  0  0  0  0  0  0  0  0  0  0  0
   48.8502    3.1838   18.7780 C   0  0  0  0  0  0  0  0  0  0  0  0
   49.8272   13.8966   21.6386 O   0  0  0  0  0  0  0  0  0  0  0  0
   50.3638   16.2637   21.5209 C   0  0  0  0  0  0  0  0  0  0  0  0
   48.4014   13.8301   21.5609 C   0  0  0  0  0  0  0  0  0  0  0  0
   50.4333   14.9043   20.8257 C   0  0  0  0  0  0  0  0  0  0  0  0
   52.2857    7.8222   17.2072 C   0  0  0  0  0  0  0  0  0  0  0  0
   52.9632    6.7534   17.7934 C   0  0  0  0  0  0  0  0  0  0  0  0
   47.9206    2.7187   17.8514 C   0  0  0  0  0  0  0  0  0  0  0  0
   47.0242    3.6097   17.2680 C   0  0  0  0  0  0  0  0  0  0  0  0
   49.7584   11.2246   20.1697 C   0  0  0  0  0  0  0  0  0  0  0  0
   48.7756    7.6293   19.2921 C   0  0  0  0  0  0  0  0  0  0  0  0
   49.7721    9.7676   20.0115 C   0  0  0  0  0  0  0  0  0  0  0  0
   48.7610    9.0847   19.4580 C   0  0  0  0  0  0  0  0  0  0  0  0
   50.6639   11.8710   20.6636 O   0  0  0  0  0  0  0  0  0  0  0  0
   47.8724    6.9871   18.7891 O   0  0  0  0  0  0  0  0  0  0  0  0
   48.6399   11.8126   19.7199 O   0  0  0  0  0  0  0  0  0  0  0  0
   49.8891    7.0394   19.7499 O   0  0  0  0  0  0  0  0  0  0  0  0
   48.4300    9.7796   22.2984 H   0  0  0  0  0  0  0  0  0  0  0  0
   49.6837    8.8045   21.5109 H   0  0  0  0  0  0  0  0  0  0  0  0
   48.8305    9.7299   18.1114 H   0  0  0  0  0  0  0  0  0  0  0  0
   47.1867    9.4860   18.7247 H   0  0  0  0  0  0  0  0  0  0  0  0
   47.7100    7.4490   22.2593 H   0  0  0  0  0  0  0  0  0  0  0  0
   46.6501    8.4551   21.3022 H   0  0  0  0  0  0  0  0  0  0  0  0
   48.2888    7.3572   18.1054 H   0  0  0  0  0  0  0  0  0  0  0  0
   49.6200    7.7010   19.2183 H   0  0  0  0  0  0  0  0  0  0  0  0
   46.7793   12.0121   19.2857 H   0  0  0  0  0  0  0  0  0  0  0  0
   50.4287   14.0943   16.6446 H   0  0  0  0  0  0  0  0  0  0  0  0
   47.7599    5.4026   21.2882 H   0  0  0  0  0  0  0  0  0  0  0  0
   49.3893    5.9688   20.8725 H   0  0  0  0  0  0  0  0  0  0  0  0
   50.9303    1.5582   17.9219 H   0  0  0  0  0  0  0  0  0  0  0  0
   49.8179   13.0572   23.3996 H   0  0  0  0  0  0  0  0  0  0  0  0
   52.8696   15.0060   20.0211 H   0  0  0  0  0  0  0  0  0  0  0  0
   48.8758    2.3995   18.0816 H   0  0  0  0  0  0  0  0  0  0  0  0
   49.3809    2.3496   16.3829 H   0  0  0  0  0  0  0  0  0  0  0  0
   48.4504    3.8175   19.7599 H   0  0  0  0  0  0  0  0  0  0  0  0
   47.4211    4.8828   18.7756 H   0  0  0  0  0  0  0  0  0  0  0  0
   48.4287    4.5785   16.7438 H   0  0  0  0  0  0  0  0  0  0  0  0
   50.1812    4.7431   16.5883 H   0  0  0  0  0  0  0  0  0  0  0  0
   46.2407   13.4212   17.3178 H   0  0  0  0  0  0  0  0  0  0  0  0
   48.0764   14.4463   15.9921 H   0  0  0  0  0  0  0  0  0  0  0  0
   52.5768   16.1248   22.2042 H   0  0  0  0  0  0  0  0  0  0  0  0
   51.0388   15.1501   23.9001 H   0  0  0  0  0  0  0  0  0  0  0  0
   46.8198    9.0379   20.2674 H   0  0  0  0  0  0  0  0  0  0  0  0
   46.6847    9.0562   18.4914 H   0  0  0  0  0  0  0  0  0  0  0  0
   50.5654    9.3513   20.1506 H   0  0  0  0  0  0  0  0  0  0  0  0
   49.2081    9.2043   21.2649 H   0  0  0  0  0  0  0  0  0  0  0  0
   46.1244   11.2467   19.4589 H   0  0  0  0  0  0  0  0  0  0  0  0
   47.4999   11.3425   18.3532 H   0  0  0  0  0  0  0  0  0  0  0  0
   49.9722   11.5098   21.1330 H   0  0  0  0  0  0  0  0  0  0  0  0
   49.8325   11.5306   19.3697 H   0  0  0  0  0  0  0  0  0  0  0  0
   50.4400    8.9244   17.1119 H   0  0  0  0  0  0  0  0  0  0  0  0
   52.8523    5.1046   19.1670 H   0  0  0  0  0  0  0  0  0  0  0  0
   46.8108   13.3372   20.2400 H   0  0  0  0  0  0  0  0  0  0  0  0
   48.3643   13.4422   19.4068 H   0  0  0  0  0  0  0  0  0  0  0  0
   50.6577   15.2940   23.1705 H   0  0  0  0  0  0  0  0  0  0  0  0
   46.3499    5.6532   17.1628 H   0  0  0  0  0  0  0  0  0  0  0  0
   49.5553    2.4864   19.2214 H   0  0  0  0  0  0  0  0  0  0  0  0
   49.3314   16.6120   21.6225 H   0  0  0  0  0  0  0  0  0  0  0  0
   50.9277   17.0141   20.9551 H   0  0  0  0  0  0  0  0  0  0  0  0
   48.0472   13.3245   22.4670 H   0  0  0  0  0  0  0  0  0  0  0  0
   47.9769   14.8396   21.5913 H   0  0  0  0  0  0  0  0  0  0  0  0
   49.9984   14.9351   19.8239 H   0  0  0  0  0  0  0  0  0  0  0  0
   51.4835   14.6152   20.7275 H   0  0  0  0  0  0  0  0  0  0  0  0
   52.7885    8.4459   16.4724 H   0  0  0  0  0  0  0  0  0  0  0  0
   53.9931    6.5425   17.5160 H   0  0  0  0  0  0  0  0  0  0  0  0
   47.8952    1.6644   17.5839 H   0  0  0  0  0  0  0  0  0  0  0  0
   46.2905    3.2553   16.5481 H   0  0  0  0  0  0  0  0  0  0  0  0
   50.6704    9.2824   20.3766 H   0  0  0  0  0  0  0  0  0  0  0  0
   47.8625    9.5717   19.0929 H   0  0  0  0  0  0  0  0  0  0  0  0
   48.7884   12.7661   19.8932 H   0  0  0  0  0  0  0  0  0  0  0  0
   49.7503    6.0868   19.5639 H   0  0  0  0  0  0  0  0  0  0  0  0
  2  1  2  0
  3  1  1  0
  4  6  1  0
  5  1  1  0
  6  3  2  0
  7  2  1  0
  8  7  2  0
  9 13  1  0
 10  5  1  0
 11  5  1  0
 12 10  1  0
 13 11  1  0
 14  3  1  0
 15  6  1  0
 16  9  1  0
 17 21  1  0
 18  7  1  0
 19  8  1  0
 20 22  1  0
 21 23  1  0
 22 16  1  0
 23 20  1  0
 24 14  2  0
 25 15  2  0
 26 19  2  0
 27 18  2  0
  9 12  1  0
  8  4  1  0
 24 25  1  0
 27 26  1  0
 29 28  2  0
 30 28  1  0
 31 33  1  0
 32 28  1  0
 33 30  2  0
 34 29  1  0
 35 34  2  0
 36 40  1  0
 37 32  1  0
 38 32  1  0
 39 37  1  0
 40 38  1  0
 41 30  1  0
 42 33  1  0
 43 36  1  0
 44 48  1  0
 45 34  1  0
 46 35  1  0
 47 49  1  0
 48 50  1  0
 49 43  1  0
 50 47  1  0
 51 41  2  0
 52 42  2  0
 53 46  2  0
 54 45  2  0
 36 39  1  0
 35 31  1  0
 51 52  1  0
 54 53  1  0
 56 58  1  0
 57 55  1  0
 58 57  2  0
 59 55  2  0
 60 56  2  0
 61 55  1  0
 62 56  1  0
 10 63  1  0
 10 64  1  0
 11 65  1  0
 11 66  1  0
 12 67  1  0
 12 68  1  0
 13 69  1  0
 13 70  1  0
 14 71  1  0
 15 72  1  0
 16 73  1  0
 16 74  1  0
 17 75  1  0
 18 76  1  0
 19 77  1  0
 21 78  1  0
 21 79  1  0
 22 80  1  0
 22 81  1  0
 23 82  1  0
 23 83  1  0
 24 84  1  0
 25 85  1  0
 26 86  1  0
 27 87  1  0
 37 88  1  0
 37 89  1  0
 38 90  1  0
 38 91  1  0
 39 92  1  0
 39 93  1  0
 40 94  1  0
 40 95  1  0
 41 96  1  0
 42 97  1  0
 43 98  1  0
 43 99  1  0
 44100  1  0
 45101  1  0
 46102  1  0
 48103  1  0
 48104  1  0
 49105  1  0
 49106  1  0
 50107  1  0
 50108  1  0
 51109  1  0
 52110  1  0
 53111  1  0
 54112  1  0
 57113  1  0
 58114  1  0
 61115  1  0
 62116  1  0
M  END
> <Uni-Dock RESULT> 
ENERGY=   -4.885  LOWER_BOUND=    0.000  UPPER_BOUND=    0.000
INTER + INTRA:          -4.885
INTER:                  -4.885
INTRA:                   0.000
UNBOUND:                 0.000

$$$$

     RDKit          3D

116121  0  0  0  0  0  0  0  0999 V2000
   47.4376   11.6117   11.5836 C   0  0  0  0  0  0  0  0  0  0  0  0
   46.1459   11.4217   11.4989 N   0  0  0  0  0  0  0  0  0  0  0  0
   48.1053   12.9236   11.2926 C   0  0  0  0  0  0  0  0  0  0  0  0
   46.3201   14.2046   13.0234 S   0  0  0  0  0  0  0  0  0  0  0  0
   48.2469   10.5225   11.9303 N   0  0  0  0  0  0  0  0  0  0  0  0
   47.7329   14.1107   11.9386 C   0  0  0  0  0  0  0  0  0  0  0  0
   45.2113   12.4196   11.1720 C   0  0  0  0  0  0  0  0  0  0  0  0
   45.1075   13.6638   11.8217 C   0  0  0  0  0  0  0  0  0  0  0  0
   49.7246    8.2073   13.1541 N   0  0  0  0  0  0  0  0  0  0  0  0
   47.6389    9.1824   12.0399 C   0  0  0  0  0  0  0  0  0  0  0  0
   49.5395   10.6757   12.6249 C   0  0  0  0  0  0  0  0  0  0  0  0
   48.7169    8.0817   12.0761 C   0  0  0  0  0  0  0  0  0  0  0  0
   49.7476    9.5845   13.6978 C   0  0  0  0  0  0  0  0  0  0  0  0
   49.1665   12.9236   10.3764 C   0  0  0  0  0  0  0  0  0  0  0  0
   48.4566   15.2826   11.6822 C   0  0  0  0  0  0  0  0  0  0  0  0
   49.5096    7.2033   14.2159 C   0  0  0  0  0  0  0  0  0  0  0  0
   50.7646    7.1805   19.0491 O   0  0  0  0  0  0  0  0  0  0  0  0
   44.2500   12.0900   10.2084 C   0  0  0  0  0  0  0  0  0  0  0  0
   44.0658   14.5466   11.4946 C   0  0  0  0  0  0  0  0  0  0  0  0
   50.4101    8.1828   16.2615 O   0  0  0  0  0  0  0  0  0  0  0  0
   51.8147    7.2708   18.0938 C   0  0  0  0  0  0  0  0  0  0  0  0
   50.6241    7.1667   15.2807 C   0  0  0  0  0  0  0  0  0  0  0  0
   51.5430    8.4086   17.1053 C   0  0  0  0  0  0  0  0  0  0  0  0
   49.8733   14.0984   10.1211 C   0  0  0  0  0  0  0  0  0  0  0  0
   49.5217   15.2759   10.7799 C   0  0  0  0  0  0  0  0  0  0  0  0
   43.1307   14.2063   10.5162 C   0  0  0  0  0  0  0  0  0  0  0  0
   43.2243   12.9768    9.8713 C   0  0  0  0  0  0  0  0  0  0  0  0
   49.6833    9.6673   14.1282 C   0  0  0  0  0  0  0  0  0  0  0  0
   50.6182    8.7729   13.9364 N   0  0  0  0  0  0  0  0  0  0  0  0
   49.1343   10.0366   15.4760 C   0  0  0  0  0  0  0  0  0  0  0  0
   48.7232    7.3297   16.0325 S   0  0  0  0  0  0  0  0  0  0  0  0
   49.1789   10.3701   13.0211 N   0  0  0  0  0  0  0  0  0  0  0  0
   48.6325    9.0802   16.3662 C   0  0  0  0  0  0  0  0  0  0  0  0
   51.2149    8.0144   14.9573 C   0  0  0  0  0  0  0  0  0  0  0  0
   50.5058    7.2473   15.9009 C   0  0  0  0  0  0  0  0  0  0  0  0
   48.0096   11.3680   10.4987 N   0  0  0  0  0  0  0  0  0  0  0  0
   49.8899   10.2214   11.7323 C   0  0  0  0  0  0  0  0  0  0  0  0
   47.7130   10.4111   12.8189 C   0  0  0  0  0  0  0  0  0  0  0  0
   49.4697   11.3303   10.7459 C   0  0  0  0  0  0  0  0  0  0  0  0
   47.3130   11.5008   11.7973 C   0  0  0  0  0  0  0  0  0  0  0  0
   49.0905   11.3995   15.8095 C   0  0  0  0  0  0  0  0  0  0  0  0
   48.0822    9.5012   17.5853 C   0  0  0  0  0  0  0  0  0  0  0  0
   47.6754   12.4710    9.5726 C   0  0  0  0  0  0  0  0  0  0  0  0
   42.9788   14.0677    8.8365 O   0  0  0  0  0  0  0  0  0  0  0  0
   52.6129    7.9540   14.9659 C   0  0  0  0  0  0  0  0  0  0  0  0
   51.1977    6.4476   16.8232 C   0  0  0  0  0  0  0  0  0  0  0  0
   45.2300   12.8200    9.9179 O   0  0  0  0  0  0  0  0  0  0  0  0
   44.2124   14.7824    8.9090 C   0  0  0  0  0  0  0  0  0  0  0  0
   46.2436   12.4073    8.9984 C   0  0  0  0  0  0  0  0  0  0  0  0
   45.0691   14.2343   10.0499 C   0  0  0  0  0  0  0  0  0  0  0  0
   48.5482   11.8070   17.0274 C   0  0  0  0  0  0  0  0  0  0  0  0
   48.0373   10.8582   17.9127 C   0  0  0  0  0  0  0  0  0  0  0  0
   52.5896    6.4090   16.8216 C   0  0  0  0  0  0  0  0  0  0  0  0
   53.2987    7.1624   15.8903 C   0  0  0  0  0  0  0  0  0  0  0  0
   47.1194   11.7464   12.0580 C   0  0  0  0  0  0  0  0  0  0  0  0
   49.4974    9.3678   13.8883 C   0  0  0  0  0  0  0  0  0  0  0  0
   47.6766   10.7798   13.0084 C   0  0  0  0  0  0  0  0  0  0  0  0
   48.9359   10.3282   12.9352 C   0  0  0  0  0  0  0  0  0  0  0  0
   45.9819   12.1774   12.1033 O   0  0  0  0  0  0  0  0  0  0  0  0
   50.6383    8.9461   13.8456 O   0  0  0  0  0  0  0  0  0  0  0  0
   47.9789   12.1313   11.1029 O   0  0  0  0  0  0  0  0  0  0  0  0
   48.6363    8.9750   14.8379 O   0  0  0  0  0  0  0  0  0  0  0  0
   46.9948    8.9925   11.1722 H   0  0  0  0  0  0  0  0  0  0  0  0
   47.0133    9.1248   12.9399 H   0  0  0  0  0  0  0  0  0  0  0  0
   49.6073   11.6506   13.1224 H   0  0  0  0  0  0  0  0  0  0  0  0
   50.3482   10.6193   11.8873 H   0  0  0  0  0  0  0  0  0  0  0  0
   48.2289    7.1004   12.0933 H   0  0  0  0  0  0  0  0  0  0  0  0
   49.2649    8.1212   11.1257 H   0  0  0  0  0  0  0  0  0  0  0  0
   50.7146    9.7587   14.1798 H   0  0  0  0  0  0  0  0  0  0  0  0
   48.9688    9.7097   14.4604 H   0  0  0  0  0  0  0  0  0  0  0  0
   49.4388   12.0077    9.8606 H   0  0  0  0  0  0  0  0  0  0  0  0
   48.1836   16.2145   12.1750 H   0  0  0  0  0  0  0  0  0  0  0  0
   49.5032    6.2130   13.7431 H   0  0  0  0  0  0  0  0  0  0  0  0
   48.5354    7.3546   14.6964 H   0  0  0  0  0  0  0  0  0  0  0  0
   50.9231    6.3841   19.5842 H   0  0  0  0  0  0  0  0  0  0  0  0
   44.2969   11.1173    9.7272 H   0  0  0  0  0  0  0  0  0  0  0  0
   43.9814   15.5080   11.9962 H   0  0  0  0  0  0  0  0  0  0  0  0
   51.9033    6.3091   17.5872 H   0  0  0  0  0  0  0  0  0  0  0  0
   52.7468    7.4646   18.6343 H   0  0  0  0  0  0  0  0  0  0  0  0
   50.5909    6.1919   15.7782 H   0  0  0  0  0  0  0  0  0  0  0  0
   51.6067    7.2817   14.8068 H   0  0  0  0  0  0  0  0  0  0  0  0
   52.4266    8.6011   16.4870 H   0  0  0  0  0  0  0  0  0  0  0  0
   51.3263    9.3236   17.6657 H   0  0  0  0  0  0  0  0  0  0  0  0
   50.6952   14.0971    9.4084 H   0  0  0  0  0  0  0  0  0  0  0  0
   50.0689   16.1951   10.5849 H   0  0  0  0  0  0  0  0  0  0  0  0
   42.3308   14.8989   10.2618 H   0  0  0  0  0  0  0  0  0  0  0  0
   42.4922   12.6957    9.1164 H   0  0  0  0  0  0  0  0  0  0  0  0
   49.6768    9.2348   11.2978 H   0  0  0  0  0  0  0  0  0  0  0  0
   50.9735   10.3030   11.8895 H   0  0  0  0  0  0  0  0  0  0  0  0
   47.1897   10.6181   13.7559 H   0  0  0  0  0  0  0  0  0  0  0  0
   47.3691    9.4320   12.4650 H   0  0  0  0  0  0  0  0  0  0  0  0
   49.9928   11.1509    9.7996 H   0  0  0  0  0  0  0  0  0  0  0  0
   49.8117   12.2993   11.1308 H   0  0  0  0  0  0  0  0  0  0  0  0
   46.2306   11.4238   11.6567 H   0  0  0  0  0  0  0  0  0  0  0  0
   47.5210   12.4848   12.2387 H   0  0  0  0  0  0  0  0  0  0  0  0
   49.4829   12.1406   15.1181 H   0  0  0  0  0  0  0  0  0  0  0  0
   47.6905    8.7716   18.2915 H   0  0  0  0  0  0  0  0  0  0  0  0
   48.3493   12.4002    8.7090 H   0  0  0  0  0  0  0  0  0  0  0  0
   47.8618   13.4391   10.0513 H   0  0  0  0  0  0  0  0  0  0  0  0
   43.1965   13.1405    9.0511 H   0  0  0  0  0  0  0  0  0  0  0  0
   53.1722    8.5304   14.2306 H   0  0  0  0  0  0  0  0  0  0  0  0
   50.6494    5.8670   17.5596 H   0  0  0  0  0  0  0  0  0  0  0  0
   44.7137   14.6769    7.9421 H   0  0  0  0  0  0  0  0  0  0  0  0
   43.9914   15.8438    9.0699 H   0  0  0  0  0  0  0  0  0  0  0  0
   46.0169   11.3763    8.7020 H   0  0  0  0  0  0  0  0  0  0  0  0
   46.1851   13.0059    8.0827 H   0  0  0  0  0  0  0  0  0  0  0  0
   46.0305   14.7483   10.1221 H   0  0  0  0  0  0  0  0  0  0  0  0
   44.5350   14.3861   10.9922 H   0  0  0  0  0  0  0  0  0  0  0  0
   48.5228   12.8619   17.2886 H   0  0  0  0  0  0  0  0  0  0  0  0
   47.6145   11.1719   18.8641 H   0  0  0  0  0  0  0  0  0  0  0  0
   53.1208    5.7937   17.5448 H   0  0  0  0  0  0  0  0  0  0  0  0
   54.3855    7.1343   15.8768 H   0  0  0  0  0  0  0  0  0  0  0  0
   46.9878   10.4587   13.7818 H   0  0  0  0  0  0  0  0  0  0  0  0
   49.6243   10.6505   12.1606 H   0  0  0  0  0  0  0  0  0  0  0  0
   47.4627   12.7664   10.5630 H   0  0  0  0  0  0  0  0  0  0  0  0
   49.1545    8.3513   15.3891 H   0  0  0  0  0  0  0  0  0  0  0  0
  2  1  2  0
  3  1  1  0
  4  6  1  0
  5  1  1  0
  6  3  2  0
  7  2  1  0
  8  7  2  0
  9 13  1  0
 10  5  1  0
 11  5  1  0
 12 10  1  0
 13 11  1  0
 14  3  1  0
 15  6  1  0
 16  9  1  0
 17 21  1  0
 18  7  1  0
 19  8  1  0
 20 22  1  0
 21 23  1  0
 22 16  1  0
 23 20  1  0
 24 14  2  0
 25 15  2  0
 26 19  2  0
 27 18  2  0
  9 12  1  0
  8  4  1  0
 24 25  1  0
 27 26  1  0
 29 28  2  0
 30 28  1  0
 31 33  1  0
 32 28  1  0
 33 30  2  0
 34 29  1  0
 35 34  2  0
 36 40  1  0
 37 32  1  0
 38 32  1  0
 39 37  1  0
 40 38  1  0
 41 30  1  0
 42 33  1  0
 43 36  1  0
 44 48  1  0
 45 34  1  0
 46 35  1  0
 47 49  1  0
 48 50  1  0
 49 43  1  0
 50 47  1  0
 51 41  2  0
 52 42  2  0
 53 46  2  0
 54 45  2  0
 36 39  1  0
 35 31  1  0
 51 52  1  0
 54 53  1  0
 56 58  1  0
 57 55  1  0
 58 57  2  0
 59 55  2  0
 60 56  2  0
 61 55  1  0
 62 56  1  0
 10 63  1  0
 10 64  1  0
 11 65  1  0
 11 66  1  0
 12 67  1  0
 12 68  1  0
 13 69  1  0
 13 70  1  0
 14 71  1  0
 15 72  1  0
 16 73  1  0
 16 74  1  0
 17 75  1  0
 18 76  1  0
 19 77  1  0
 21 78  1  0
 21 79  1  0
 22 80  1  0
 22 81  1  0
 23 82  1  0
 23 83  1  0
 24 84  1  0
 25 85  1  0
 26 86  1  0
 27 87  1  0
 37 88  1  0
 37 89  1  0
 38 90  1  0
 38 91  1  0
 39 92  1  0
 39 93  1  0
 40 94  1  0
 40 95  1  0
 41 96  1  0
 42 97  1  0
 43 98  1  0
 43 99  1  0
 44100  1  0
 45101  1  0
 46102  1  0
 48103  1  0
 48104  1  0
 49105  1  0
 49106  1  0
 50107  1  0
 50108  1  0
 51109  1  0
 52110  1  0
 53111  1  0
 54112  1  0
 57113  1  0
 58114  1  0
 61115  1  0
 62116  1  0
M  END
> <Uni-Dock RESULT> 
ENERGY=   -4.633  LOWER_BOUND=    5.950  UPPER_BOUND=    8.527
INTER + INTRA:          -4.633
INTER:                  -4.633
INTRA:                   0.000
UNBOUND:                 0.000

$$$$

     RDKit          3D

116121  0  0  0  0  0  0  0  0999 V2000
   50.9044    6.8589   17.8823 C   0  0  0  0  0  0  0  0  0  0  0  0
   50.2155    7.5986   18.7131 N   0  0  0  0  0  0  0  0  0  0  0  0
   50.8040    5.3630   17.8224 C   0  0  0  0  0  0  0  0  0  0  0  0
   48.0205    5.5673   17.6387 S   0  0  0  0  0  0  0  0  0  0  0  0
   51.8122    7.4938   17.0254 N   0  0  0  0  0  0  0  0  0  0  0  0
   49.5810    4.7034   17.6373 C   0  0  0  0  0  0  0  0  0  0  0  0
   49.2639    7.1045   19.6222 C   0  0  0  0  0  0  0  0  0  0  0  0
   48.1825    6.2725   19.2768 C   0  0  0  0  0  0  0  0  0  0  0  0
   53.3171    9.0842   14.9644 N   0  0  0  0  0  0  0  0  0  0  0  0
   52.0659    8.9381   17.1905 C   0  0  0  0  0  0  0  0  0  0  0  0
   52.1855    6.9454   15.7075 C   0  0  0  0  0  0  0  0  0  0  0  0
   53.3245    9.3758   16.4164 C   0  0  0  0  0  0  0  0  0  0  0  0
   52.3059    8.0529   14.6379 C   0  0  0  0  0  0  0  0  0  0  0  0
   51.9947    4.6278   17.9077 C   0  0  0  0  0  0  0  0  0  0  0  0
   49.5716    3.3087   17.5041 C   0  0  0  0  0  0  0  0  0  0  0  0
   53.1237   10.3121   14.1666 C   0  0  0  0  0  0  0  0  0  0  0  0
   51.2885   11.0191    9.5766 O   0  0  0  0  0  0  0  0  0  0  0  0
   49.3461    7.5770   20.9379 C   0  0  0  0  0  0  0  0  0  0  0  0
   47.2225    5.9254   20.2409 C   0  0  0  0  0  0  0  0  0  0  0  0
   52.0639    9.6035   12.0859 O   0  0  0  0  0  0  0  0  0  0  0  0
   52.4459   10.2024    9.7073 C   0  0  0  0  0  0  0  0  0  0  0  0
   53.2783   10.1044   12.6467 C   0  0  0  0  0  0  0  0  0  0  0  0
   52.2134    9.1074   10.7525 C   0  0  0  0  0  0  0  0  0  0  0  0
   51.9723    3.2389   17.7841 C   0  0  0  0  0  0  0  0  0  0  0  0
   50.7607    2.5810   17.5755 C   0  0  0  0  0  0  0  0  0  0  0  0
   47.3353    6.3908   21.5516 C   0  0  0  0  0  0  0  0  0  0  0  0
   48.3997    7.2164   21.9006 C   0  0  0  0  0  0  0  0  0  0  0  0
   51.9837    8.1261   14.3428 C   0  0  0  0  0  0  0  0  0  0  0  0
   53.1663    8.3961   13.8534 N   0  0  0  0  0  0  0  0  0  0  0  0
   50.6920    8.4244   13.6379 C   0  0  0  0  0  0  0  0  0  0  0  0
   51.5488   11.0495   13.2127 S   0  0  0  0  0  0  0  0  0  0  0  0
   51.8955    7.4758   15.5851 N   0  0  0  0  0  0  0  0  0  0  0  0
   50.3823    9.7004   13.1533 C   0  0  0  0  0  0  0  0  0  0  0  0
   53.3911    9.0279   12.6189 C   0  0  0  0  0  0  0  0  0  0  0  0
   52.8180   10.2545   12.2335 C   0  0  0  0  0  0  0  0  0  0  0  0
   52.0000    6.5131   18.3757 N   0  0  0  0  0  0  0  0  0  0  0  0
   53.1431    6.9312   16.1643 C   0  0  0  0  0  0  0  0  0  0  0  0
   51.0366    8.0703   16.6340 C   0  0  0  0  0  0  0  0  0  0  0  0
   52.8286    5.9302   17.2949 C   0  0  0  0  0  0  0  0  0  0  0  0
   50.7647    7.0670   17.7786 C   0  0  0  0  0  0  0  0  0  0  0  0
   49.7607    7.3809   13.5171 C   0  0  0  0  0  0  0  0  0  0  0  0
   49.1333    9.9217   12.5557 C   0  0  0  0  0  0  0  0  0  0  0  0
   51.7111    5.4929   19.4062 C   0  0  0  0  0  0  0  0  0  0  0  0
   48.2345    6.1366   22.9625 O   0  0  0  0  0  0  0  0  0  0  0  0
   54.3227    8.4303   11.7628 C   0  0  0  0  0  0  0  0  0  0  0  0
   53.1804   10.8509   11.0161 C   0  0  0  0  0  0  0  0  0  0  0  0
   49.7546    6.4274   20.6391 O   0  0  0  0  0  0  0  0  0  0  0  0
   48.6154    4.9775   22.2216 C   0  0  0  0  0  0  0  0  0  0  0  0
   51.1342    6.0622   20.7203 C   0  0  0  0  0  0  0  0  0  0  0  0
   48.8314    5.3420   20.7531 C   0  0  0  0  0  0  0  0  0  0  0  0
   48.5247    7.6096   12.9144 C   0  0  0  0  0  0  0  0  0  0  0  0
   48.2078    8.8821   12.4398 C   0  0  0  0  0  0  0  0  0  0  0  0
   54.1023   10.2350   10.1736 C   0  0  0  0  0  0  0  0  0  0  0  0
   54.6757    9.0231   10.5482 C   0  0  0  0  0  0  0  0  0  0  0  0
   50.3664    7.0182   17.7100 C   0  0  0  0  0  0  0  0  0  0  0  0
   52.1535    8.4026   14.6195 C   0  0  0  0  0  0  0  0  0  0  0  0
   50.7142    7.8256   16.5374 C   0  0  0  0  0  0  0  0  0  0  0  0
   51.8077    7.6016   15.7963 C   0  0  0  0  0  0  0  0  0  0  0  0
   49.3780    7.1955   18.3981 O   0  0  0  0  0  0  0  0  0  0  0  0
   53.1378    8.2165   13.9281 O   0  0  0  0  0  0  0  0  0  0  0  0
   51.2447    6.0414   17.9811 O   0  0  0  0  0  0  0  0  0  0  0  0
   51.2813    9.3853   14.3531 O   0  0  0  0  0  0  0  0  0  0  0  0
   52.2268    9.1700   18.2508 H   0  0  0  0  0  0  0  0  0  0  0  0
   51.1963    9.5148   16.8501 H   0  0  0  0  0  0  0  0  0  0  0  0
   51.4410    6.2210   15.3561 H   0  0  0  0  0  0  0  0  0  0  0  0
   53.1443    6.4223   15.7989 H   0  0  0  0  0  0  0  0  0  0  0  0
   53.5173   10.4366   16.6132 H   0  0  0  0  0  0  0  0  0  0  0  0
   54.1812    8.8371   16.8421 H   0  0  0  0  0  0  0  0  0  0  0  0
   52.5744    7.5823   13.6871 H   0  0  0  0  0  0  0  0  0  0  0  0
   51.3162    8.5104   14.5146 H   0  0  0  0  0  0  0  0  0  0  0  0
   52.9381    5.1392   18.0733 H   0  0  0  0  0  0  0  0  0  0  0  0
   48.6319    2.7781   17.3584 H   0  0  0  0  0  0  0  0  0  0  0  0
   53.9025   11.0274   14.4600 H   0  0  0  0  0  0  0  0  0  0  0  0
   52.1492   10.7642   14.3871 H   0  0  0  0  0  0  0  0  0  0  0  0
   51.5171   11.7590    8.9885 H   0  0  0  0  0  0  0  0  0  0  0  0
   50.1546    8.2503   21.2074 H   0  0  0  0  0  0  0  0  0  0  0  0
   46.3844    5.2844   19.9769 H   0  0  0  0  0  0  0  0  0  0  0  0
   53.2897   10.8405    9.9727 H   0  0  0  0  0  0  0  0  0  0  0  0
   52.6494    9.7470    8.7329 H   0  0  0  0  0  0  0  0  0  0  0  0
   53.4977   11.0744   12.1887 H   0  0  0  0  0  0  0  0  0  0  0  0
   54.1141    9.4250   12.4388 H   0  0  0  0  0  0  0  0  0  0  0  0
   53.0237    8.3706   10.7254 H   0  0  0  0  0  0  0  0  0  0  0  0
   51.2818    8.5826   10.5178 H   0  0  0  0  0  0  0  0  0  0  0  0
   52.8969    2.6698   17.8525 H   0  0  0  0  0  0  0  0  0  0  0  0
   50.7369    1.4982   17.4785 H   0  0  0  0  0  0  0  0  0  0  0  0
   46.5922    6.1111   22.2957 H   0  0  0  0  0  0  0  0  0  0  0  0
   48.4898    7.5961   22.9168 H   0  0  0  0  0  0  0  0  0  0  0  0
   53.7651    7.7496   16.5526 H   0  0  0  0  0  0  0  0  0  0  0  0
   53.7147    6.3991   15.3925 H   0  0  0  0  0  0  0  0  0  0  0  0
   50.0732    8.3857   16.2251 H   0  0  0  0  0  0  0  0  0  0  0  0
   51.5257    8.9646   17.0380 H   0  0  0  0  0  0  0  0  0  0  0  0
   53.7824    5.5892   17.7136 H   0  0  0  0  0  0  0  0  0  0  0  0
   52.3266    5.0534   16.8667 H   0  0  0  0  0  0  0  0  0  0  0  0
   50.1823    7.5989   18.5370 H   0  0  0  0  0  0  0  0  0  0  0  0
   50.1370    6.2549   17.3878 H   0  0  0  0  0  0  0  0  0  0  0  0
   50.0038    6.3900   13.8917 H   0  0  0  0  0  0  0  0  0  0  0  0
   48.8764   10.9064   12.1699 H   0  0  0  0  0  0  0  0  0  0  0  0
   52.6596    5.0117   19.6776 H   0  0  0  0  0  0  0  0  0  0  0  0
   51.0573    4.7141   18.9974 H   0  0  0  0  0  0  0  0  0  0  0  0
   48.7466    6.8752   22.5814 H   0  0  0  0  0  0  0  0  0  0  0  0
   54.7849    7.4894   12.0573 H   0  0  0  0  0  0  0  0  0  0  0  0
   52.7269   11.7906   10.7138 H   0  0  0  0  0  0  0  0  0  0  0  0
   49.5275    4.5787   22.6761 H   0  0  0  0  0  0  0  0  0  0  0  0
   47.8236    4.2259   22.3187 H   0  0  0  0  0  0  0  0  0  0  0  0
   51.6949    6.9609   21.0036 H   0  0  0  0  0  0  0  0  0  0  0  0
   51.2842    5.3426   21.5327 H   0  0  0  0  0  0  0  0  0  0  0  0
   49.1423    4.4791   20.1595 H   0  0  0  0  0  0  0  0  0  0  0  0
   47.8872    5.7104   20.3419 H   0  0  0  0  0  0  0  0  0  0  0  0
   47.8076    6.7988   12.8134 H   0  0  0  0  0  0  0  0  0  0  0  0
   47.2453    9.0643   11.9681 H   0  0  0  0  0  0  0  0  0  0  0  0
   54.3728   10.6980    9.2270 H   0  0  0  0  0  0  0  0  0  0  0  0
   55.4011    8.5374    9.9002 H   0  0  0  0  0  0  0  0  0  0  0  0
   50.0125    8.6211   16.3129 H   0  0  0  0  0  0  0  0  0  0  0  0
   52.5091    6.8050   16.0221 H   0  0  0  0  0  0  0  0  0  0  0  0
   50.8726    5.6030   18.7751 H   0  0  0  0  0  0  0  0  0  0  0  0
   51.6425    9.8161   13.5498 H   0  0  0  0  0  0  0  0  0  0  0  0
  2  1  2  0
  3  1  1  0
  4  6  1  0
  5  1  1  0
  6  3  2  0
  7  2  1  0
  8  7  2  0
  9 13  1  0
 10  5  1  0
 11  5  1  0
 12 10  1  0
 13 11  1  0
 14  3  1  0
 15  6  1  0
 16  9  1  0
 17 21  1  0
 18  7  1  0
 19  8  1  0
 20 22  1  0
 21 23  1  0
 22 16  1  0
 23 20  1  0
 24 14  2  0
 25 15  2  0
 26 19  2  0
 27 18  2  0
  9 12  1  0
  8  4  1  0
 24 25  1  0
 27 26  1  0
 29 28  2  0
 30 28  1  0
 31 33  1  0
 32 28  1  0
 33 30  2  0
 34 29  1  0
 35 34  2  0
 36 40  1  0
 37 32  1  0
 38 32  1  0
 39 37  1  0
 40 38  1  0
 41 30  1  0
 42 33  1  0
 43 36  1  0
 44 48  1  0
 45 34  1  0
 46 35  1  0
 47 49  1  0
 48 50  1  0
 49 43  1  0
 50 47  1  0
 51 41  2  0
 52 42  2  0
 53 46  2  0
 54 45  2  0
 36 39  1  0
 35 31  1  0
 51 52  1  0
 54 53  1  0
 56 58  1  0
 57 55  1  0
 58 57  2  0
 59 55  2  0
 60 56  2  0
 61 55  1  0
 62 56  1  0
 10 63  1  0
 10 64  1  0
 11 65  1  0
 11 66  1  0
 12 67  1  0
 12 68  1  0
 13 69  1  0
 13 70  1  0
 14 71  1  0
 15 72  1  0
 16 73  1  0
 16 74  1  0
 17 75  1  0
 18 76  1  0
 19 77  1  0
 21 78  1  0
 21 79  1  0
 22 80  1  0
 22 81  1  0
 23 82  1  0
 23 83  1  0
 24 84  1  0
 25 85  1  0
 26 86  1  0
 27 87  1  0
 37 88  1  0
 37 89  1  0
 38 90  1  0
 38 91  1  0
 39 92  1  0
 39 93  1  0
 40 94  1  0
 40 95  1  0
 41 96  1  0
 42 97  1  0
 43 98  1  0
 43 99  1  0
 44100  1  0
 45101  1  0
 46102  1  0
 48103  1  0
 48104  1  0
 49105  1  0
 49106  1  0
 50107  1  0
 50108  1  0
 51109  1  0
 52110  1  0
 53111  1  0
 54112  1  0
 57113  1  0
 58114  1  0
 61115  1  0
 62116  1  0
M  END
> <Uni-Dock RESULT> 
ENERGY=   -4.586  LOWER_BOUND=    4.260  UPPER_BOUND=    8.069
INTER + INTRA:          -4.586
INTER:                  -4.586
INTRA:                   0.000
UNBOUND:                 0.000

$$$$

     RDKit          3D

116121  0  0  0  0  0  0  0  0999 V2000
   50.3457    8.4855   17.2274 C   0  0  0  0  0  0  0  0  0  0  0  0
   50.5858    9.5268   17.9824 N   0  0  0  0  0  0  0  0  0  0  0  0
   49.8379    8.5800   15.8186 C   0  0  0  0  0  0  0  0  0  0  0  0
   51.8849   10.3874   15.2128 S   0  0  0  0  0  0  0  0  0  0  0  0
   50.5390    7.2109   17.7747 N   0  0  0  0  0  0  0  0  0  0  0  0
   50.4961    9.3332   14.8365 C   0  0  0  0  0  0  0  0  0  0  0  0
   50.4466   10.8630   17.5683 C   0  0  0  0  0  0  0  0  0  0  0  0
   51.0405   11.4105   16.4158 C   0  0  0  0  0  0  0  0  0  0  0  0
   51.4802    4.6173   18.9700 N   0  0  0  0  0  0  0  0  0  0  0  0
   50.8579    7.0865   19.2101 C   0  0  0  0  0  0  0  0  0  0  0  0
   50.8915    6.0345   16.9570 C   0  0  0  0  0  0  0  0  0  0  0  0
   50.6858    5.6344   19.6964 C   0  0  0  0  0  0  0  0  0  0  0  0
   51.9341    5.1381   17.6602 C   0  0  0  0  0  0  0  0  0  0  0  0
   48.6932    7.8406   15.4895 C   0  0  0  0  0  0  0  0  0  0  0  0
   50.0152    9.3071   13.5208 C   0  0  0  0  0  0  0  0  0  0  0  0
   52.6102    4.1287   19.7860 C   0  0  0  0  0  0  0  0  0  0  0  0
   56.9908    2.1081   18.4964 O   0  0  0  0  0  0  0  0  0  0  0  0
   49.7618   11.7226   18.4363 C   0  0  0  0  0  0  0  0  0  0  0  0
   50.9326   12.7853   16.1508 C   0  0  0  0  0  0  0  0  0  0  0  0
   54.3264    3.4182   18.2034 O   0  0  0  0  0  0  0  0  0  0  0  0
   55.8063    1.4280   18.0986 C   0  0  0  0  0  0  0  0  0  0  0  0
   53.3738    2.9460   19.1574 C   0  0  0  0  0  0  0  0  0  0  0  0
   54.8587    2.3850   17.3694 C   0  0  0  0  0  0  0  0  0  0  0  0
   48.2172    7.8302   14.1787 C   0  0  0  0  0  0  0  0  0  0  0  0
   48.8832    8.5586   13.1937 C   0  0  0  0  0  0  0  0  0  0  0  0
   50.2277   13.6201   17.0189 C   0  0  0  0  0  0  0  0  0  0  0  0
   49.6402   13.0873   18.1622 C   0  0  0  0  0  0  0  0  0  0  0  0
   52.3627    5.1498   17.5488 C   0  0  0  0  0  0  0  0  0  0  0  0
   51.9941    3.9613   17.9521 N   0  0  0  0  0  0  0  0  0  0  0  0
   53.7836    5.5375   17.2573 C   0  0  0  0  0  0  0  0  0  0  0  0
   54.5547    4.5174   19.7415 S   0  0  0  0  0  0  0  0  0  0  0  0
   51.3778    6.1264   17.3253 N   0  0  0  0  0  0  0  0  0  0  0  0
   54.8145    5.3515   18.1855 C   0  0  0  0  0  0  0  0  0  0  0  0
   52.8760    2.8955   18.1972 C   0  0  0  0  0  0  0  0  0  0  0  0
   53.9995    2.9667   19.0423 C   0  0  0  0  0  0  0  0  0  0  0  0
   49.1679    8.0863   17.3571 N   0  0  0  0  0  0  0  0  0  0  0  0
   49.9639    5.6909   17.3409 C   0  0  0  0  0  0  0  0  0  0  0  0
   51.5348    7.4487   17.9720 C   0  0  0  0  0  0  0  0  0  0  0  0
   49.0557    6.7619   16.7028 C   0  0  0  0  0  0  0  0  0  0  0  0
   50.5885    8.5000   17.3475 C   0  0  0  0  0  0  0  0  0  0  0  0
   54.0508    6.1497   16.0226 C   0  0  0  0  0  0  0  0  0  0  0  0
   56.1085    5.7894   17.8691 C   0  0  0  0  0  0  0  0  0  0  0  0
   48.2975    9.0689   16.6765 C   0  0  0  0  0  0  0  0  0  0  0  0
   48.6435   14.0085   17.4700 O   0  0  0  0  0  0  0  0  0  0  0  0
   52.5487    1.6599   17.6278 C   0  0  0  0  0  0  0  0  0  0  0  0
   54.7648    1.8184   19.2968 C   0  0  0  0  0  0  0  0  0  0  0  0
   49.2073   11.2750   17.4019 O   0  0  0  0  0  0  0  0  0  0  0  0
   48.3802   13.2655   16.2800 C   0  0  0  0  0  0  0  0  0  0  0  0
   48.0910   10.3841   17.4585 C   0  0  0  0  0  0  0  0  0  0  0  0
   49.3050   12.0509   16.2052 C   0  0  0  0  0  0  0  0  0  0  0  0
   55.3423    6.5745   15.7147 C   0  0  0  0  0  0  0  0  0  0  0  0
   56.3703    6.4008   16.6410 C   0  0  0  0  0  0  0  0  0  0  0  0
   54.4280    0.6002   18.7124 C   0  0  0  0  0  0  0  0  0  0  0  0
   53.3170    0.5203   17.8774 C   0  0  0  0  0  0  0  0  0  0  0  0
   50.8759    8.7320   17.1763 C   0  0  0  0  0  0  0  0  0  0  0  0
   52.1898    5.2159   17.9329 C   0  0  0  0  0  0  0  0  0  0  0  0
   51.7092    7.6163   17.6334 C   0  0  0  0  0  0  0  0  0  0  0  0
   51.3553    6.3328   17.4835 C   0  0  0  0  0  0  0  0  0  0  0  0
   51.1742    9.9062   17.2946 O   0  0  0  0  0  0  0  0  0  0  0  0
   51.8929    4.0426   17.8045 O   0  0  0  0  0  0  0  0  0  0  0  0
   49.7235    8.3544   16.6033 O   0  0  0  0  0  0  0  0  0  0  0  0
   53.3378    5.5922   18.5144 O   0  0  0  0  0  0  0  0  0  0  0  0
   50.1823    7.7196   19.7989 H   0  0  0  0  0  0  0  0  0  0  0  0
   51.8843    7.4264   19.3989 H   0  0  0  0  0  0  0  0  0  0  0  0
   51.3095    6.3372   15.9894 H   0  0  0  0  0  0  0  0  0  0  0  0
   49.9837    5.4522   16.7620 H   0  0  0  0  0  0  0  0  0  0  0  0
   50.8685    5.5923   20.7763 H   0  0  0  0  0  0  0  0  0  0  0  0
   49.6301    5.3626   19.5658 H   0  0  0  0  0  0  0  0  0  0  0  0
   52.1584    4.2932   17.0018 H   0  0  0  0  0  0  0  0  0  0  0  0
   52.8556    5.7220   17.7772 H   0  0  0  0  0  0  0  0  0  0  0  0
   48.1722    7.2757   16.2567 H   0  0  0  0  0  0  0  0  0  0  0  0
   50.5132    9.8845   12.7434 H   0  0  0  0  0  0  0  0  0  0  0  0
   52.2020    3.7611   20.7360 H   0  0  0  0  0  0  0  0  0  0  0  0
   53.3042    4.9475   20.0108 H   0  0  0  0  0  0  0  0  0  0  0  0
   57.5098    1.4956   19.0453 H   0  0  0  0  0  0  0  0  0  0  0  0
   49.3317   11.3189   19.3483 H   0  0  0  0  0  0  0  0  0  0  0  0
   51.3921   13.2120   15.2622 H   0  0  0  0  0  0  0  0  0  0  0  0
   55.3410    0.9984   18.9865 H   0  0  0  0  0  0  0  0  0  0  0  0
   56.0948    0.6112   17.4293 H   0  0  0  0  0  0  0  0  0  0  0  0
   53.9116    2.4225   19.9546 H   0  0  0  0  0  0  0  0  0  0  0  0
   52.6711    2.2433   18.6929 H   0  0  0  0  0  0  0  0  0  0  0  0
   54.0361    1.8317   16.9031 H   0  0  0  0  0  0  0  0  0  0  0  0
   55.4095    2.8929   16.5714 H   0  0  0  0  0  0  0  0  0  0  0  0
   47.3276    7.2576   13.9255 H   0  0  0  0  0  0  0  0  0  0  0  0
   48.5168    8.5546   12.1699 H   0  0  0  0  0  0  0  0  0  0  0  0
   50.1410   14.6831   16.8030 H   0  0  0  0  0  0  0  0  0  0  0  0
   49.0997   13.7319   18.8531 H   0  0  0  0  0  0  0  0  0  0  0  0
   49.6427    5.4959   18.3735 H   0  0  0  0  0  0  0  0  0  0  0  0
   49.8498    4.7644   16.7628 H   0  0  0  0  0  0  0  0  0  0  0  0
   52.5594    7.8171   17.8762 H   0  0  0  0  0  0  0  0  0  0  0  0
   51.3230    7.3546   19.0436 H   0  0  0  0  0  0  0  0  0  0  0  0
   48.0208    6.4084   16.7758 H   0  0  0  0  0  0  0  0  0  0  0  0
   49.2984    6.8470   15.6361 H   0  0  0  0  0  0  0  0  0  0  0  0
   50.7181    9.4245   17.9183 H   0  0  0  0  0  0  0  0  0  0  0  0
   50.9177    8.6969   16.3183 H   0  0  0  0  0  0  0  0  0  0  0  0
   53.2495    6.2910   15.3019 H   0  0  0  0  0  0  0  0  0  0  0  0
   56.9233    5.6500   18.5769 H   0  0  0  0  0  0  0  0  0  0  0  0
   47.3009    8.6202   16.5739 H   0  0  0  0  0  0  0  0  0  0  0  0
   48.6689    9.2696   15.6652 H   0  0  0  0  0  0  0  0  0  0  0  0
   48.8441   13.3453   18.1578 H   0  0  0  0  0  0  0  0  0  0  0  0
   51.6726    1.5886   16.9851 H   0  0  0  0  0  0  0  0  0  0  0  0
   55.6395    1.8780   19.9381 H   0  0  0  0  0  0  0  0  0  0  0  0
   47.3269   12.9692   16.3006 H   0  0  0  0  0  0  0  0  0  0  0  0
   48.5377   13.9223   15.4168 H   0  0  0  0  0  0  0  0  0  0  0  0
   47.9090   10.1536   18.5149 H   0  0  0  0  0  0  0  0  0  0  0  0
   47.1885   10.8906   17.0989 H   0  0  0  0  0  0  0  0  0  0  0  0
   49.1170   11.4487   15.3132 H   0  0  0  0  0  0  0  0  0  0  0  0
   50.3400   12.4018   16.1620 H   0  0  0  0  0  0  0  0  0  0  0  0
   55.5500    7.0404   14.7547 H   0  0  0  0  0  0  0  0  0  0  0  0
   57.3792    6.7298   16.4041 H   0  0  0  0  0  0  0  0  0  0  0  0
   55.0302   -0.2849   18.9067 H   0  0  0  0  0  0  0  0  0  0  0  0
   53.0422   -0.4276   17.4213 H   0  0  0  0  0  0  0  0  0  0  0  0
   52.6411    7.9116   18.1025 H   0  0  0  0  0  0  0  0  0  0  0  0
   50.4223    6.0387   17.0137 H   0  0  0  0  0  0  0  0  0  0  0  0
   49.2943    9.2006   16.3564 H   0  0  0  0  0  0  0  0  0  0  0  0
   53.7769    4.7474   18.7486 H   0  0  0  0  0  0  0  0  0  0  0  0
  2  1  2  0
  3  1  1  0
  4  6  1  0
  5  1  1  0
  6  3  2  0
  7  2  1  0
  8  7  2  0
  9 13  1  0
 10  5  1  0
 11  5  1  0
 12 10  1  0
 13 11  1  0
 14  3  1  0
 15  6  1  0
 16  9  1  0
 17 21  1  0
 18  7  1  0
 19  8  1  0
 20 22  1  0
 21 23  1  0
 22 16  1  0
 23 20  1  0
 24 14  2  0
 25 15  2  0
 26 19  2  0
 27 18  2  0
  9 12  1  0
  8  4  1  0
 24 25  1  0
 27 26  1  0
 29 28  2  0
 30 28  1  0
 31 33  1  0
 32 28  1  0
 33 30  2  0
 34 29  1  0
 35 34  2  0
 36 40  1  0
 37 32  1  0
 38 32  1  0
 39 37  1  0
 40 38  1  0
 41 30  1  0
 42 33  1  0
 43 36  1  0
 44 48  1  0
 45 34  1  0
 46 35  1  0
 47 49  1  0
 48 50  1  0
 49 43  1  0
 50 47  1  0
 51 41  2  0
 52 42  2  0
 53 46  2  0
 54 45  2  0
 36 39  1  0
 35 31  1  0
 51 52  1  0
 54 53  1  0
 56 58  1  0
 57 55  1  0
 58 57  2  0
 59 55  2  0
 60 56  2  0
 61 55  1  0
 62 56  1  0
 10 63  1  0
 10 64  1  0
 11 65  1  0
 11 66  1  0
 12 67  1  0
 12 68  1  0
 13 69  1  0
 13 70  1  0
 14 71  1  0
 15 72  1  0
 16 73  1  0
 16 74  1  0
 17 75  1  0
 18 76  1  0
 19 77  1  0
 21 78  1  0
 21 79  1  0
 22 80  1  0
 22 81  1  0
 23 82  1  0
 23 83  1  0
 24 84  1  0
 25 85  1  0
 26 86  1  0
 27 87  1  0
 37 88  1  0
 37 89  1  0
 38 90  1  0
 38 91  1  0
 39 92  1  0
 39 93  1  0
 40 94  1  0
 40 95  1  0
 41 96  1  0
 42 97  1  0
 43 98  1  0
 43 99  1  0
 44100  1  0
 45101  1  0
 46102  1  0
 48103  1  0
 48104  1  0
 49105  1  0
 49106  1  0
 50107  1  0
 50108  1  0
 51109  1  0
 52110  1  0
 53111  1  0
 54112  1  0
 57113  1  0
 58114  1  0
 61115  1  0
 62116  1  0
M  END
> <Uni-Dock RESULT> 
ENERGY=   -4.582  LOWER_BOUND=    3.072  UPPER_BOUND=    5.009
INTER + INTRA:          -4.582
INTER:                  -4.582
INTRA:                   0.000
UNBOUND:                 0.000

$$$$

     RDKit          3D

116121  0  0  0  0  0  0  0  0999 V2000
   45.9610   12.8199    9.3741 C   0  0  0  0  0  0  0  0  0  0  0  0
   46.3294   12.4733    8.1675 N   0  0  0  0  0  0  0  0  0  0  0  0
   44.5572   13.2079    9.7350 C   0  0  0  0  0  0  0  0  0  0  0  0
   43.6115   10.8671    8.5307 S   0  0  0  0  0  0  0  0  0  0  0  0
   46.9367   12.8662   10.3777 N   0  0  0  0  0  0  0  0  0  0  0  0
   43.4612   12.3738    9.4735 C   0  0  0  0  0  0  0  0  0  0  0  0
   45.4627   12.3734    7.0652 C   0  0  0  0  0  0  0  0  0  0  0  0
   44.2721   11.6229    7.0477 C   0  0  0  0  0  0  0  0  0  0  0  0
   49.0641   12.4261   12.4568 N   0  0  0  0  0  0  0  0  0  0  0  0
   48.3529   12.6709   10.0121 C   0  0  0  0  0  0  0  0  0  0  0  0
   46.6284   12.6456   11.8036 C   0  0  0  0  0  0  0  0  0  0  0  0
   49.2896   13.1007   11.1578 C   0  0  0  0  0  0  0  0  0  0  0  0
   47.7198   11.8069   12.5039 C   0  0  0  0  0  0  0  0  0  0  0  0
   44.3706   14.4283   10.3992 C   0  0  0  0  0  0  0  0  0  0  0  0
   42.1891   12.7605    9.9154 C   0  0  0  0  0  0  0  0  0  0  0  0
   50.1289   11.4455   12.7498 C   0  0  0  0  0  0  0  0  0  0  0  0
   50.1612    7.3548   15.6135 O   0  0  0  0  0  0  0  0  0  0  0  0
   45.8879   12.9743    5.8739 C   0  0  0  0  0  0  0  0  0  0  0  0
   43.5344   11.4965    5.8597 C   0  0  0  0  0  0  0  0  0  0  0  0
   49.1117    9.7555   14.1865 O   0  0  0  0  0  0  0  0  0  0  0  0
   49.8853    8.6003   16.2429 C   0  0  0  0  0  0  0  0  0  0  0  0
   50.0481   10.8339   14.1628 C   0  0  0  0  0  0  0  0  0  0  0  0
   48.7601    9.3343   15.5075 C   0  0  0  0  0  0  0  0  0  0  0  0
   43.0981   14.8080   10.8254 C   0  0  0  0  0  0  0  0  0  0  0  0
   42.0091   13.9699   10.5889 C   0  0  0  0  0  0  0  0  0  0  0  0
   43.9659   12.1211    4.6888 C   0  0  0  0  0  0  0  0  0  0  0  0
   45.1435   12.8623    4.6967 C   0  0  0  0  0  0  0  0  0  0  0  0
   47.6638   11.3750   12.5853 C   0  0  0  0  0  0  0  0  0  0  0  0
   48.4079   11.9514   13.4935 N   0  0  0  0  0  0  0  0  0  0  0  0
   47.4291    9.8942   12.5039 C   0  0  0  0  0  0  0  0  0  0  0  0
   50.1866    9.4658   12.6416 S   0  0  0  0  0  0  0  0  0  0  0  0
   46.9974   12.1777   11.6443 N   0  0  0  0  0  0  0  0  0  0  0  0
   48.4810    8.9718   12.4647 C   0  0  0  0  0  0  0  0  0  0  0  0
   49.1131   11.2657   14.4966 C   0  0  0  0  0  0  0  0  0  0  0  0
   50.0093   10.2062   14.2609 C   0  0  0  0  0  0  0  0  0  0  0  0
   46.0785   14.0517    9.5540 N   0  0  0  0  0  0  0  0  0  0  0  0
   46.9931   13.6398   11.8703 C   0  0  0  0  0  0  0  0  0  0  0  0
   47.1574   11.8616   10.2069 C   0  0  0  0  0  0  0  0  0  0  0  0
   45.9177   14.3234   11.0013 C   0  0  0  0  0  0  0  0  0  0  0  0
   46.0968   12.5868    9.3466 C   0  0  0  0  0  0  0  0  0  0  0  0
   46.1003    9.4499   12.4170 C   0  0  0  0  0  0  0  0  0  0  0  0
   48.1904    7.6067   12.3308 C   0  0  0  0  0  0  0  0  0  0  0  0
   44.9990   14.7089    8.7866 C   0  0  0  0  0  0  0  0  0  0  0  0
   44.0592   13.6527    3.9752 O   0  0  0  0  0  0  0  0  0  0  0  0
   48.9742   11.7414   15.8052 C   0  0  0  0  0  0  0  0  0  0  0  0
   50.7378    9.6488   15.3228 C   0  0  0  0  0  0  0  0  0  0  0  0
   45.0152   13.5188    6.5947 O   0  0  0  0  0  0  0  0  0  0  0  0
   43.1797   13.9455    5.0606 C   0  0  0  0  0  0  0  0  0  0  0  0
   45.2433   14.7616    7.2630 C   0  0  0  0  0  0  0  0  0  0  0  0
   43.6443   13.2186    6.3222 C   0  0  0  0  0  0  0  0  0  0  0  0
   45.8218    8.0897   12.2917 C   0  0  0  0  0  0  0  0  0  0  0  0
   46.8673    7.1681   12.2414 C   0  0  0  0  0  0  0  0  0  0  0  0
   50.5779   10.1301   16.6196 C   0  0  0  0  0  0  0  0  0  0  0  0
   49.6955   11.1793   16.8613 C   0  0  0  0  0  0  0  0  0  0  0  0
   45.8916   12.2555    9.2288 C   0  0  0  0  0  0  0  0  0  0  0  0
   47.9771   11.5616   12.3643 C   0  0  0  0  0  0  0  0  0  0  0  0
   46.8053   11.6401   10.1955 C   0  0  0  0  0  0  0  0  0  0  0  0
   47.0700   12.1786   11.3935 C   0  0  0  0  0  0  0  0  0  0  0  0
   45.6288   11.7867    8.1366 O   0  0  0  0  0  0  0  0  0  0  0  0
   48.2302   12.0283   13.4595 O   0  0  0  0  0  0  0  0  0  0  0  0
   45.3514   13.4102    9.6459 O   0  0  0  0  0  0  0  0  0  0  0  0
   48.5251   10.4122   11.9448 O   0  0  0  0  0  0  0  0  0  0  0  0
   48.5986   13.2787    9.1322 H   0  0  0  0  0  0  0  0  0  0  0  0
   48.5339   11.6196    9.7536 H   0  0  0  0  0  0  0  0  0  0  0  0
   45.6739   12.1194   11.9243 H   0  0  0  0  0  0  0  0  0  0  0  0
   46.5404   13.6173   12.3028 H   0  0  0  0  0  0  0  0  0  0  0  0
   50.3303   13.0021   10.8281 H   0  0  0  0  0  0  0  0  0  0  0  0
   49.1356   14.1742   11.3286 H   0  0  0  0  0  0  0  0  0  0  0  0
   47.4287   11.6719   13.5502 H   0  0  0  0  0  0  0  0  0  0  0  0
   47.7364   10.8159   12.0331 H   0  0  0  0  0  0  0  0  0  0  0  0
   45.2176   15.0829   10.5809 H   0  0  0  0  0  0  0  0  0  0  0  0
   41.3255   12.1258    9.7231 H   0  0  0  0  0  0  0  0  0  0  0  0
   51.0909   11.9709   12.6967 H   0  0  0  0  0  0  0  0  0  0  0  0
   50.1366   10.6495   11.9954 H   0  0  0  0  0  0  0  0  0  0  0  0
   50.9471    6.9770   16.0438 H   0  0  0  0  0  0  0  0  0  0  0  0
   46.8245   13.5243    5.8652 H   0  0  0  0  0  0  0  0  0  0  0  0
   42.6151   10.9156    5.8422 H   0  0  0  0  0  0  0  0  0  0  0  0
   50.8042    9.1875   16.2627 H   0  0  0  0  0  0  0  0  0  0  0  0
   49.5820    8.3970   17.2750 H   0  0  0  0  0  0  0  0  0  0  0  0
   51.0363   10.4409   14.4233 H   0  0  0  0  0  0  0  0  0  0  0  0
   49.7761   11.6037   14.8954 H   0  0  0  0  0  0  0  0  0  0  0  0
   48.4199   10.1987   16.0883 H   0  0  0  0  0  0  0  0  0  0  0  0
   47.9077    8.6570   15.3933 H   0  0  0  0  0  0  0  0  0  0  0  0
   42.9548   15.7562   11.3389 H   0  0  0  0  0  0  0  0  0  0  0  0
   41.0146   14.2605   10.9186 H   0  0  0  0  0  0  0  0  0  0  0  0
   43.3848   12.0258    3.7737 H   0  0  0  0  0  0  0  0  0  0  0  0
   45.4963   13.3423    3.7857 H   0  0  0  0  0  0  0  0  0  0  0  0
   47.9823   14.0583   11.6382 H   0  0  0  0  0  0  0  0  0  0  0  0
   46.7643   13.8566   12.9221 H   0  0  0  0  0  0  0  0  0  0  0  0
   47.0636   10.7880   10.0249 H   0  0  0  0  0  0  0  0  0  0  0  0
   48.1609   12.1593    9.8807 H   0  0  0  0  0  0  0  0  0  0  0  0
   45.9839   15.4033   11.1767 H   0  0  0  0  0  0  0  0  0  0  0  0
   44.9256   13.9970   11.3379 H   0  0  0  0  0  0  0  0  0  0  0  0
   46.3214   12.3545    8.3012 H   0  0  0  0  0  0  0  0  0  0  0  0
   45.1112   12.1603    9.5767 H   0  0  0  0  0  0  0  0  0  0  0  0
   45.2845   10.1674   12.4501 H   0  0  0  0  0  0  0  0  0  0  0  0
   48.9952    6.8745   12.3021 H   0  0  0  0  0  0  0  0  0  0  0  0
   44.9396   15.7537    9.1180 H   0  0  0  0  0  0  0  0  0  0  0  0
   44.0336   14.2415    9.0117 H   0  0  0  0  0  0  0  0  0  0  0  0
   44.9536   13.6062    4.3637 H   0  0  0  0  0  0  0  0  0  0  0  0
   48.2960   12.5712   15.9977 H   0  0  0  0  0  0  0  0  0  0  0  0
   51.4187    8.8221   15.1414 H   0  0  0  0  0  0  0  0  0  0  0  0
   43.1750   15.0310    5.1997 H   0  0  0  0  0  0  0  0  0  0  0  0
   42.1676   13.6280    4.7847 H   0  0  0  0  0  0  0  0  0  0  0  0
   46.2838   15.0501    7.0719 H   0  0  0  0  0  0  0  0  0  0  0  0
   44.6239   15.5468    6.8158 H   0  0  0  0  0  0  0  0  0  0  0  0
   43.0020   13.4358    7.1789 H   0  0  0  0  0  0  0  0  0  0  0  0
   43.6068   12.1410    6.1385 H   0  0  0  0  0  0  0  0  0  0  0  0
   44.7922    7.7459   12.2334 H   0  0  0  0  0  0  0  0  0  0  0  0
   46.6542    6.1063   12.1449 H   0  0  0  0  0  0  0  0  0  0  0  0
   51.1391    9.6882   17.4403 H   0  0  0  0  0  0  0  0  0  0  0  0
   49.5683   11.5664   17.8693 H   0  0  0  0  0  0  0  0  0  0  0  0
   47.2509   10.7084    9.8655 H   0  0  0  0  0  0  0  0  0  0  0  0
   46.6231   13.1111   11.7225 H   0  0  0  0  0  0  0  0  0  0  0  0
   44.7757   13.6840    8.9011 H   0  0  0  0  0  0  0  0  0  0  0  0
   49.0897   10.1275   12.6941 H   0  0  0  0  0  0  0  0  0  0  0  0
  2  1  2  0
  3  1  1  0
  4  6  1  0
  5  1  1  0
  6  3  2  0
  7  2  1  0
  8  7  2  0
  9 13  1  0
 10  5  1  0
 11  5  1  0
 12 10  1  0
 13 11  1  0
 14  3  1  0
 15  6  1  0
 16  9  1  0
 17 21  1  0
 18  7  1  0
 19  8  1  0
 20 22  1  0
 21 23  1  0
 22 16  1  0
 23 20  1  0
 24 14  2  0
 25 15  2  0
 26 19  2  0
 27 18  2  0
  9 12  1  0
  8  4  1  0
 24 25  1  0
 27 26  1  0
 29 28  2  0
 30 28  1  0
 31 33  1  0
 32 28  1  0
 33 30  2  0
 34 29  1  0
 35 34  2  0
 36 40  1  0
 37 32  1  0
 38 32  1  0
 39 37  1  0
 40 38  1  0
 41 30  1  0
 42 33  1  0
 43 36  1  0
 44 48  1  0
 45 34  1  0
 46 35  1  0
 47 49  1  0
 48 50  1  0
 49 43  1  0
 50 47  1  0
 51 41  2  0
 52 42  2  0
 53 46  2  0
 54 45  2  0
 36 39  1  0
 35 31  1  0
 51 52  1  0
 54 53  1  0
 56 58  1  0
 57 55  1  0
 58 57  2  0
 59 55  2  0
 60 56  2  0
 61 55  1  0
 62 56  1  0
 10 63  1  0
 10 64  1  0
 11 65  1  0
 11 66  1  0
 12 67  1  0
 12 68  1  0
 13 69  1  0
 13 70  1  0
 14 71  1  0
 15 72  1  0
 16 73  1  0
 16 74  1  0
 17 75  1  0
 18 76  1  0
 19 77  1  0
 21 78  1  0
 21 79  1  0
 22 80  1  0
 22 81  1  0
 23 82  1  0
 23 83  1  0
 24 84  1  0
 25 85  1  0
 26 86  1  0
 27 87  1  0
 37 88  1  0
 37 89  1  0
 38 90  1  0
 38 91  1  0
 39 92  1  0
 39 93  1  0
 40 94  1  0
 40 95  1  0
 41 96  1  0
 42 97  1  0
 43 98  1  0
 43 99  1  0
 44100  1  0
 45101  1  0
 46102  1  0
 48103  1  0
 48104  1  0
 49105  1  0
 49106  1  0
 50107  1  0
 50108  1  0
 51109  1  0
 52110  1  0
 53111  1  0
 54112  1  0
 57113  1  0
 58114  1  0
 61115  1  0
 62116  1  0
M  END
> <Uni-Dock RESULT> 
ENERGY=   -4.571  LOWER_BOUND=    8.290  UPPER_BOUND=   11.120
INTER + INTRA:          -4.571
INTER:                  -4.571
INTRA:                   0.000
UNBOUND:                 0.000

$$$$

     RDKit          3D

116121  0  0  0  0  0  0  0  0999 V2000
   47.3050   12.9649    9.5390 C   0  0  0  0  0  0  0  0  0  0  0  0
   47.7205   12.5282    8.3777 N   0  0  0  0  0  0  0  0  0  0  0  0
   46.0355   13.7419    9.7287 C   0  0  0  0  0  0  0  0  0  0  0  0
   44.6335   11.7763    8.3164 S   0  0  0  0  0  0  0  0  0  0  0  0
   48.1060   12.7257   10.6627 N   0  0  0  0  0  0  0  0  0  0  0  0
   44.7932   13.2608    9.2922 C   0  0  0  0  0  0  0  0  0  0  0  0
   47.0210   12.6847    7.1684 C   0  0  0  0  0  0  0  0  0  0  0  0
   45.6796   12.3107    6.9647 C   0  0  0  0  0  0  0  0  0  0  0  0
   49.7124   11.6863   12.9823 N   0  0  0  0  0  0  0  0  0  0  0  0
   49.4432   12.1295   10.4777 C   0  0  0  0  0  0  0  0  0  0  0  0
   47.5550   12.6018   12.0257 C   0  0  0  0  0  0  0  0  0  0  0  0
   50.2975   12.2685   11.7527 C   0  0  0  0  0  0  0  0  0  0  0  0
   48.2539   11.4823   12.8279 C   0  0  0  0  0  0  0  0  0  0  0  0
   46.1170   14.9632   10.4121 C   0  0  0  0  0  0  0  0  0  0  0  0
   43.6371   13.9984    9.5794 C   0  0  0  0  0  0  0  0  0  0  0  0
   50.4012   10.4392   13.3718 C   0  0  0  0  0  0  0  0  0  0  0  0
   48.8679    6.5103   16.0454 O   0  0  0  0  0  0  0  0  0  0  0  0
   47.7596   13.1385    6.0685 C   0  0  0  0  0  0  0  0  0  0  0  0
   45.1066   12.4047    5.6862 C   0  0  0  0  0  0  0  0  0  0  0  0
   48.7557    9.1138   14.5927 O   0  0  0  0  0  0  0  0  0  0  0  0
   48.8767    7.7815   16.6837 C   0  0  0  0  0  0  0  0  0  0  0  0
   49.9558    9.8752   14.7359 C   0  0  0  0  0  0  0  0  0  0  0  0
   48.1207    8.8106   15.8381 C   0  0  0  0  0  0  0  0  0  0  0  0
   44.9607   15.6942   10.6834 C   0  0  0  0  0  0  0  0  0  0  0  0
   43.7204   15.2073   10.2724 C   0  0  0  0  0  0  0  0  0  0  0  0
   45.8551   12.8793    4.6083 C   0  0  0  0  0  0  0  0  0  0  0  0
   47.1830   13.2482    4.8005 C   0  0  0  0  0  0  0  0  0  0  0  0
   48.0659   11.0850   12.8835 C   0  0  0  0  0  0  0  0  0  0  0  0
   48.8122   11.4203   13.9040 N   0  0  0  0  0  0  0  0  0  0  0  0
   47.4305    9.7355   12.7117 C   0  0  0  0  0  0  0  0  0  0  0  0
   49.9038    8.5276   13.1911 S   0  0  0  0  0  0  0  0  0  0  0  0
   47.7928   12.0474   11.8970 N   0  0  0  0  0  0  0  0  0  0  0  0
   48.1692    8.5483   12.7726 C   0  0  0  0  0  0  0  0  0  0  0  0
   49.1470   10.5587   14.9619 C   0  0  0  0  0  0  0  0  0  0  0  0
   49.7258    9.2854   14.8023 C   0  0  0  0  0  0  0  0  0  0  0  0
   47.7446   14.1098    9.7829 N   0  0  0  0  0  0  0  0  0  0  0  0
   48.1765   13.4479   12.1802 C   0  0  0  0  0  0  0  0  0  0  0  0
   48.0510   11.7004   10.4812 C   0  0  0  0  0  0  0  0  0  0  0  0
   47.4715   14.4145   11.2066 C   0  0  0  0  0  0  0  0  0  0  0  0
   47.3708   12.7025    9.5200 C   0  0  0  0  0  0  0  0  0  0  0  0
   46.0551    9.6947   12.4335 C   0  0  0  0  0  0  0  0  0  0  0  0
   47.5210    7.3258   12.5462 C   0  0  0  0  0  0  0  0  0  0  0  0
   47.0142   15.0522    8.9084 C   0  0  0  0  0  0  0  0  0  0  0  0
   46.4800   14.3194    3.9763 O   0  0  0  0  0  0  0  0  0  0  0  0
   48.9722   11.0524   16.2595 C   0  0  0  0  0  0  0  0  0  0  0  0
   50.1114    8.5398   15.9267 C   0  0  0  0  0  0  0  0  0  0  0  0
   46.9891   13.9112    6.6907 O   0  0  0  0  0  0  0  0  0  0  0  0
   45.5810   14.8527    4.9484 C   0  0  0  0  0  0  0  0  0  0  0  0
   47.4698   15.0340    7.4333 C   0  0  0  0  0  0  0  0  0  0  0  0
   45.6406   14.0207    6.2291 C   0  0  0  0  0  0  0  0  0  0  0  0
   45.4187    8.4734   12.2174 C   0  0  0  0  0  0  0  0  0  0  0  0
   46.1531    7.2888   12.2667 C   0  0  0  0  0  0  0  0  0  0  0  0
   49.9200    9.0451   17.2100 C   0  0  0  0  0  0  0  0  0  0  0  0
   49.3506   10.3043   17.3769 C   0  0  0  0  0  0  0  0  0  0  0  0
   47.0975   12.4449    9.3629 C   0  0  0  0  0  0  0  0  0  0  0  0
   48.4468   11.1733   12.7132 C   0  0  0  0  0  0  0  0  0  0  0  0
   47.6552   11.5903   10.4148 C   0  0  0  0  0  0  0  0  0  0  0  0
   47.8963   12.0276   11.6581 C   0  0  0  0  0  0  0  0  0  0  0  0
   46.8638   12.0736    8.2274 O   0  0  0  0  0  0  0  0  0  0  0  0
   48.6704   11.5454   13.8503 O   0  0  0  0  0  0  0  0  0  0  0  0
   46.8587   13.7060    9.7526 O   0  0  0  0  0  0  0  0  0  0  0  0
   48.6947    9.9150   12.3223 O   0  0  0  0  0  0  0  0  0  0  0  0
   49.9707   12.6414    9.6631 H   0  0  0  0  0  0  0  0  0  0  0  0
   49.3491   11.0712   10.2024 H   0  0  0  0  0  0  0  0  0  0  0  0
   46.4827   12.3741   11.9989 H   0  0  0  0  0  0  0  0  0  0  0  0
   47.6814   13.5568   12.5484 H   0  0  0  0  0  0  0  0  0  0  0  0
   51.3012   11.8735   11.5582 H   0  0  0  0  0  0  0  0  0  0  0  0
   50.4354   13.3404   11.9457 H   0  0  0  0  0  0  0  0  0  0  0  0
   47.7958   11.4359   13.8207 H   0  0  0  0  0  0  0  0  0  0  0  0
   48.0504   10.5295   12.3232 H   0  0  0  0  0  0  0  0  0  0  0  0
   47.0828   15.3446   10.7297 H   0  0  0  0  0  0  0  0  0  0  0  0
   42.6627   13.6409    9.2500 H   0  0  0  0  0  0  0  0  0  0  0  0
   51.4712   10.6639   13.4665 H   0  0  0  0  0  0  0  0  0  0  0  0
   50.2839    9.6760   12.5930 H   0  0  0  0  0  0  0  0  0  0  0  0
   49.4461    5.9207   16.5590 H   0  0  0  0  0  0  0  0  0  0  0  0
   48.8064   13.3941    6.2049 H   0  0  0  0  0  0  0  0  0  0  0  0
   44.0708   12.1145    5.5248 H   0  0  0  0  0  0  0  0  0  0  0  0
   49.9135    8.0777   16.8475 H   0  0  0  0  0  0  0  0  0  0  0  0
   48.3895    7.6733   17.6581 H   0  0  0  0  0  0  0  0  0  0  0  0
   50.7446    9.2128   15.1071 H   0  0  0  0  0  0  0  0  0  0  0  0
   49.8179   10.6898   15.4575 H   0  0  0  0  0  0  0  0  0  0  0  0
   47.9661    9.7357   16.4043 H   0  0  0  0  0  0  0  0  0  0  0  0
   47.1341    8.4089   15.5858 H   0  0  0  0  0  0  0  0  0  0  0  0
   45.0259   16.6427   11.2121 H   0  0  0  0  0  0  0  0  0  0  0  0
   42.8154   15.7728   10.4809 H   0  0  0  0  0  0  0  0  0  0  0  0
   45.4021   12.9574    3.6220 H   0  0  0  0  0  0  0  0  0  0  0  0
   47.7798   13.6067    3.9638 H   0  0  0  0  0  0  0  0  0  0  0  0
   49.2661   13.5627   12.0967 H   0  0  0  0  0  0  0  0  0  0  0  0
   47.8775   13.7202   13.2010 H   0  0  0  0  0  0  0  0  0  0  0  0
   47.6795   10.7001   10.2447 H   0  0  0  0  0  0  0  0  0  0  0  0
   49.1326   11.6956   10.3015 H   0  0  0  0  0  0  0  0  0  0  0  0
   47.8195   15.4289   11.4331 H   0  0  0  0  0  0  0  0  0  0  0  0
   46.3911   14.3886   11.3969 H   0  0  0  0  0  0  0  0  0  0  0  0
   47.6606   12.4165    8.5043 H   0  0  0  0  0  0  0  0  0  0  0  0
   46.2825   12.5791    9.6015 H   0  0  0  0  0  0  0  0  0  0  0  0
   45.4824   10.6174   12.3890 H   0  0  0  0  0  0  0  0  0  0  0  0
   48.0785    6.3922   12.5931 H   0  0  0  0  0  0  0  0  0  0  0  0
   47.2117   16.0691    9.2717 H   0  0  0  0  0  0  0  0  0  0  0  0
   45.9341   14.8838    8.9860 H   0  0  0  0  0  0  0  0  0  0  0  0
   47.2615   14.0156    4.4762 H   0  0  0  0  0  0  0  0  0  0  0  0
   48.5403   12.0427   16.3953 H   0  0  0  0  0  0  0  0  0  0  0  0
   50.5453    7.5517   15.8022 H   0  0  0  0  0  0  0  0  0  0  0  0
   45.8684   15.8929    5.1300 H   0  0  0  0  0  0  0  0  0  0  0  0
   44.5682   14.8419    4.5297 H   0  0  0  0  0  0  0  0  0  0  0  0
   48.5652   15.0094    7.3919 H   0  0  0  0  0  0  0  0  0  0  0  0
   47.1686   15.9654    6.9414 H   0  0  0  0  0  0  0  0  0  0  0  0
   44.9763   14.4133    7.0026 H   0  0  0  0  0  0  0  0  0  0  0  0
   45.3216   13.0003    5.9982 H   0  0  0  0  0  0  0  0  0  0  0  0
   44.3518    8.4421   12.0109 H   0  0  0  0  0  0  0  0  0  0  0  0
   45.6602    6.3342   12.0998 H   0  0  0  0  0  0  0  0  0  0  0  0
   50.2131    8.4586   18.0783 H   0  0  0  0  0  0  0  0  0  0  0  0
   49.2026   10.7103   18.3746 H   0  0  0  0  0  0  0  0  0  0  0  0
   47.8563   10.5699   10.1081 H   0  0  0  0  0  0  0  0  0  0  0  0
   47.6945   13.0491   11.9637 H   0  0  0  0  0  0  0  0  0  0  0  0
   46.4933   14.1356    8.9507 H   0  0  0  0  0  0  0  0  0  0  0  0
   49.0459    9.4782   13.1267 H   0  0  0  0  0  0  0  0  0  0  0  0
  2  1  2  0
  3  1  1  0
  4  6  1  0
  5  1  1  0
  6  3  2  0
  7  2  1  0
  8  7  2  0
  9 13  1  0
 10  5  1  0
 11  5  1  0
 12 10  1  0
 13 11  1  0
 14  3  1  0
 15  6  1  0
 16  9  1  0
 17 21  1  0
 18  7  1  0
 19  8  1  0
 20 22  1  0
 21 23  1  0
 22 16  1  0
 23 20  1  0
 24 14  2  0
 25 15  2  0
 26 19  2  0
 27 18  2  0
  9 12  1  0
  8  4  1  0
 24 25  1  0
 27 26  1  0
 29 28  2  0
 30 28  1  0
 31 33  1  0
 32 28  1  0
 33 30  2  0
 34 29  1  0
 35 34  2  0
 36 40  1  0
 37 32  1  0
 38 32  1  0
 39 37  1  0
 40 38  1  0
 41 30  1  0
 42 33  1  0
 43 36  1  0
 44 48  1  0
 45 34  1  0
 46 35  1  0
 47 49  1  0
 48 50  1  0
 49 43  1  0
 50 47  1  0
 51 41  2  0
 52 42  2  0
 53 46  2  0
 54 45  2  0
 36 39  1  0
 35 31  1  0
 51 52  1  0
 54 53  1  0
 56 58  1  0
 57 55  1  0
 58 57  2  0
 59 55  2  0
 60 56  2  0
 61 55  1  0
 62 56  1  0
 10 63  1  0
 10 64  1  0
 11 65  1  0
 11 66  1  0
 12 67  1  0
 12 68  1  0
 13 69  1  0
 13 70  1  0
 14 71  1  0
 15 72  1  0
 16 73  1  0
 16 74  1  0
 17 75  1  0
 18 76  1  0
 19 77  1  0
 21 78  1  0
 21 79  1  0
 22 80  1  0
 22 81  1  0
 23 82  1  0
 23 83  1  0
 24 84  1  0
 25 85  1  0
 26 86  1  0
 27 87  1  0
 37 88  1  0
 37 89  1  0
 38 90  1  0
 38 91  1  0
 39 92  1  0
 39 93  1  0
 40 94  1  0
 40 95  1  0
 41 96  1  0
 42 97  1  0
 43 98  1  0
 43 99  1  0
 44100  1  0
 45101  1  0
 46102  1  0
 48103  1  0
 48104  1  0
 49105  1  0
 49106  1  0
 50107  1  0
 50108  1  0
 51109  1  0
 52110  1  0
 53111  1  0
 54112  1  0
 57113  1  0
 58114  1  0
 61115  1  0
 62116  1  0
M  END
> <Uni-Dock RESULT> 
ENERGY=   -4.424  LOWER_BOUND=    7.907  UPPER_BOUND=   10.596
INTER + INTRA:          -4.424
INTER:                  -4.424
INTRA:                   0.000
UNBOUND:                 0.000

$$$$

     RDKit          3D

116121  0  0  0  0  0  0  0  0999 V2000
   50.3082    7.0394   16.5084 C   0  0  0  0  0  0  0  0  0  0  0  0
   51.6106    6.9381   16.5813 N   0  0  0  0  0  0  0  0  0  0  0  0
   49.3868    6.7513   17.6571 C   0  0  0  0  0  0  0  0  0  0  0  0
   50.8991    8.4519   19.2833 S   0  0  0  0  0  0  0  0  0  0  0  0
   49.7389    7.4020   15.2813 N   0  0  0  0  0  0  0  0  0  0  0  0
   49.5208    7.3867   18.8995 C   0  0  0  0  0  0  0  0  0  0  0  0
   52.3213    6.5939   17.7443 C   0  0  0  0  0  0  0  0  0  0  0  0
   52.1808    7.2364   18.9886 C   0  0  0  0  0  0  0  0  0  0  0  0
   48.7722    8.6565   12.7252 N   0  0  0  0  0  0  0  0  0  0  0  0
   50.6052    7.5096   14.0915 C   0  0  0  0  0  0  0  0  0  0  0  0
   48.4505    8.1134   15.1765 C   0  0  0  0  0  0  0  0  0  0  0  0
   49.7712    7.5656   12.7969 C   0  0  0  0  0  0  0  0  0  0  0  0
   48.4794    9.1941   14.0736 C   0  0  0  0  0  0  0  0  0  0  0  0
   48.3361    5.8496   17.4371 C   0  0  0  0  0  0  0  0  0  0  0  0
   48.5731    7.1348   19.9001 C   0  0  0  0  0  0  0  0  0  0  0  0
   49.1978    9.7200   11.7927 C   0  0  0  0  0  0  0  0  0  0  0  0
   48.0328   14.5698   11.5532 O   0  0  0  0  0  0  0  0  0  0  0  0
   53.3173    5.6189   17.6077 C   0  0  0  0  0  0  0  0  0  0  0  0
   53.0196    6.8910   20.0605 C   0  0  0  0  0  0  0  0  0  0  0  0
   48.1439   11.7730   12.5860 O   0  0  0  0  0  0  0  0  0  0  0  0
   46.9742   13.6284   11.4236 C   0  0  0  0  0  0  0  0  0  0  0  0
   48.1267   10.7999   11.5405 C   0  0  0  0  0  0  0  0  0  0  0  0
   46.9993   12.6310   12.5856 C   0  0  0  0  0  0  0  0  0  0  0  0
   47.4043    5.5985   18.4439 C   0  0  0  0  0  0  0  0  0  0  0  0
   47.5201    6.2470   19.6729 C   0  0  0  0  0  0  0  0  0  0  0  0
   53.9919    5.9017   19.9080 C   0  0  0  0  0  0  0  0  0  0  0  0
   54.1395    5.2639   18.6801 C   0  0  0  0  0  0  0  0  0  0  0  0
   48.5310    9.6231   14.1708 C   0  0  0  0  0  0  0  0  0  0  0  0
   47.7927    9.4482   13.1053 N   0  0  0  0  0  0  0  0  0  0  0  0
   49.0111   10.9617   14.6527 C   0  0  0  0  0  0  0  0  0  0  0  0
   49.9650   11.5251   12.0877 S   0  0  0  0  0  0  0  0  0  0  0  0
   48.8701    8.5061   14.9525 N   0  0  0  0  0  0  0  0  0  0  0  0
   49.7060   11.8495   13.8232 C   0  0  0  0  0  0  0  0  0  0  0  0
   47.3734   10.4806   12.2497 C   0  0  0  0  0  0  0  0  0  0  0  0
   48.2339   11.4180   11.6478 C   0  0  0  0  0  0  0  0  0  0  0  0
   49.7836    5.9635   16.1467 N   0  0  0  0  0  0  0  0  0  0  0  0
   48.1877    7.2277   14.6545 C   0  0  0  0  0  0  0  0  0  0  0  0
   50.2952    8.2838   15.2859 C   0  0  0  0  0  0  0  0  0  0  0  0
   48.3640    6.2306   15.8181 C   0  0  0  0  0  0  0  0  0  0  0  0
   50.4552    7.2519   16.4263 C   0  0  0  0  0  0  0  0  0  0  0  0
   48.7841   11.2882   15.9989 C   0  0  0  0  0  0  0  0  0  0  0  0
   50.1754   13.0590   14.3551 C   0  0  0  0  0  0  0  0  0  0  0  0
   49.8776    5.0278   17.2877 C   0  0  0  0  0  0  0  0  0  0  0  0
   54.1477    4.2207   19.7905 O   0  0  0  0  0  0  0  0  0  0  0  0
   46.0164   10.5084   11.9097 C   0  0  0  0  0  0  0  0  0  0  0  0
   47.7284   12.3534   10.7320 C   0  0  0  0  0  0  0  0  0  0  0  0
   52.2070    5.3384   18.1236 O   0  0  0  0  0  0  0  0  0  0  0  0
   52.7967    4.3067   20.2432 C   0  0  0  0  0  0  0  0  0  0  0  0
   51.2858    4.4346   17.5090 C   0  0  0  0  0  0  0  0  0  0  0  0
   52.0818    5.4615   19.5423 C   0  0  0  0  0  0  0  0  0  0  0  0
   49.2483   12.4967   16.5160 C   0  0  0  0  0  0  0  0  0  0  0  0
   49.9504   13.3795   15.6957 C   0  0  0  0  0  0  0  0  0  0  0  0
   46.3728   12.3708   10.4144 C   0  0  0  0  0  0  0  0  0  0  0  0
   45.5152   11.4457   11.0031 C   0  0  0  0  0  0  0  0  0  0  0  0
   50.5987    7.5088   16.7077 C   0  0  0  0  0  0  0  0  0  0  0  0
   48.7704    9.3821   13.9130 C   0  0  0  0  0  0  0  0  0  0  0  0
   50.2590    8.4712   15.6558 C   0  0  0  0  0  0  0  0  0  0  0  0
   49.1154    8.4171   14.9597 C   0  0  0  0  0  0  0  0  0  0  0  0
   51.6267    7.5366   17.3589 O   0  0  0  0  0  0  0  0  0  0  0  0
   47.7372    9.3569   13.2703 O   0  0  0  0  0  0  0  0  0  0  0  0
   49.6676    6.5636   16.9051 O   0  0  0  0  0  0  0  0  0  0  0  0
   49.7045   10.3218   13.7083 O   0  0  0  0  0  0  0  0  0  0  0  0
   51.2636    6.6341   14.0287 H   0  0  0  0  0  0  0  0  0  0  0  0
   51.2407    8.4013   14.1675 H   0  0  0  0  0  0  0  0  0  0  0  0
   48.1942    8.6072   16.1215 H   0  0  0  0  0  0  0  0  0  0  0  0
   47.6606    7.3871   14.9534 H   0  0  0  0  0  0  0  0  0  0  0  0
   50.4467    7.5806   11.9339 H   0  0  0  0  0  0  0  0  0  0  0  0
   49.2147    6.6224   12.7185 H   0  0  0  0  0  0  0  0  0  0  0  0
   47.5032    9.6883   14.0533 H   0  0  0  0  0  0  0  0  0  0  0  0
   49.2264    9.9455   14.3583 H   0  0  0  0  0  0  0  0  0  0  0  0
   48.2471    5.3418   16.4814 H   0  0  0  0  0  0  0  0  0  0  0  0
   48.6592    7.6195   20.8714 H   0  0  0  0  0  0  0  0  0  0  0  0
   49.3973    9.2517   10.8205 H   0  0  0  0  0  0  0  0  0  0  0  0
   50.1275   10.1864   12.1402 H   0  0  0  0  0  0  0  0  0  0  0  0
   48.0443   15.1106   10.7451 H   0  0  0  0  0  0  0  0  0  0  0  0
   53.4610    5.1429   16.6420 H   0  0  0  0  0  0  0  0  0  0  0  0
   52.9150    7.3870   21.0228 H   0  0  0  0  0  0  0  0  0  0  0  0
   47.0746   13.1275   10.4600 H   0  0  0  0  0  0  0  0  0  0  0  0
   46.0290   14.1805   11.4300 H   0  0  0  0  0  0  0  0  0  0  0  0
   48.3613   11.3015   10.5959 H   0  0  0  0  0  0  0  0  0  0  0  0
   47.1352   10.3388   11.4522 H   0  0  0  0  0  0  0  0  0  0  0  0
   46.0875   12.0238   12.5920 H   0  0  0  0  0  0  0  0  0  0  0  0
   47.0345   13.1842   13.5295 H   0  0  0  0  0  0  0  0  0  0  0  0
   46.5908    4.8970   18.2722 H   0  0  0  0  0  0  0  0  0  0  0  0
   46.7968    6.0552   20.4618 H   0  0  0  0  0  0  0  0  0  0  0  0
   54.6329    5.6332   20.7454 H   0  0  0  0  0  0  0  0  0  0  0  0
   54.9038    4.5004   18.5465 H   0  0  0  0  0  0  0  0  0  0  0  0
   48.5894    6.7950   13.7278 H   0  0  0  0  0  0  0  0  0  0  0  0
   47.1118    7.3992   14.5178 H   0  0  0  0  0  0  0  0  0  0  0  0
   50.7776    9.2127   15.6007 H   0  0  0  0  0  0  0  0  0  0  0  0
   50.8245    7.9299   14.3934 H   0  0  0  0  0  0  0  0  0  0  0  0
   47.8761    5.2923   15.5303 H   0  0  0  0  0  0  0  0  0  0  0  0
   47.8389    6.6156   16.7014 H   0  0  0  0  0  0  0  0  0  0  0  0
   51.5292    7.0970   16.5675 H   0  0  0  0  0  0  0  0  0  0  0  0
   50.0591    7.6915   17.3516 H   0  0  0  0  0  0  0  0  0  0  0  0
   48.2421   10.5988   16.6410 H   0  0  0  0  0  0  0  0  0  0  0  0
   50.7145   13.7632   13.7243 H   0  0  0  0  0  0  0  0  0  0  0  0
   49.2212    4.1737   17.0766 H   0  0  0  0  0  0  0  0  0  0  0  0
   49.5063    5.5045   18.2020 H   0  0  0  0  0  0  0  0  0  0  0  0
   54.1236    4.4426   18.8401 H   0  0  0  0  0  0  0  0  0  0  0  0
   45.3436    9.7781   12.3565 H   0  0  0  0  0  0  0  0  0  0  0  0
   48.3913   13.0850   10.2788 H   0  0  0  0  0  0  0  0  0  0  0  0
   52.3149    3.3471   20.0321 H   0  0  0  0  0  0  0  0  0  0  0  0
   52.8017    4.4596   21.3285 H   0  0  0  0  0  0  0  0  0  0  0  0
   51.7116    4.1399   16.5424 H   0  0  0  0  0  0  0  0  0  0  0  0
   51.2114    3.5154   18.1004 H   0  0  0  0  0  0  0  0  0  0  0  0
   51.0377    5.5444   19.8531 H   0  0  0  0  0  0  0  0  0  0  0  0
   52.5860    6.3958   19.8053 H   0  0  0  0  0  0  0  0  0  0  0  0
   49.0643   12.7527   17.5564 H   0  0  0  0  0  0  0  0  0  0  0  0
   50.3132   14.3235   16.0950 H   0  0  0  0  0  0  0  0  0  0  0  0
   45.9852   13.1039    9.7101 H   0  0  0  0  0  0  0  0  0  0  0  0
   44.4562   11.4471   10.7570 H   0  0  0  0  0  0  0  0  0  0  0  0
   51.0078    9.2366   15.4854 H   0  0  0  0  0  0  0  0  0  0  0  0
   48.3668    7.6504   15.1314 H   0  0  0  0  0  0  0  0  0  0  0  0
   50.0388    6.0139   17.6270 H   0  0  0  0  0  0  0  0  0  0  0  0
   49.3292   10.8829   12.9971 H   0  0  0  0  0  0  0  0  0  0  0  0
  2  1  2  0
  3  1  1  0
  4  6  1  0
  5  1  1  0
  6  3  2  0
  7  2  1  0
  8  7  2  0
  9 13  1  0
 10  5  1  0
 11  5  1  0
 12 10  1  0
 13 11  1  0
 14  3  1  0
 15  6  1  0
 16  9  1  0
 17 21  1  0
 18  7  1  0
 19  8  1  0
 20 22  1  0
 21 23  1  0
 22 16  1  0
 23 20  1  0
 24 14  2  0
 25 15  2  0
 26 19  2  0
 27 18  2  0
  9 12  1  0
  8  4  1  0
 24 25  1  0
 27 26  1  0
 29 28  2  0
 30 28  1  0
 31 33  1  0
 32 28  1  0
 33 30  2  0
 34 29  1  0
 35 34  2  0
 36 40  1  0
 37 32  1  0
 38 32  1  0
 39 37  1  0
 40 38  1  0
 41 30  1  0
 42 33  1  0
 43 36  1  0
 44 48  1  0
 45 34  1  0
 46 35  1  0
 47 49  1  0
 48 50  1  0
 49 43  1  0
 50 47  1  0
 51 41  2  0
 52 42  2  0
 53 46  2  0
 54 45  2  0
 36 39  1  0
 35 31  1  0
 51 52  1  0
 54 53  1  0
 56 58  1  0
 57 55  1  0
 58 57  2  0
 59 55  2  0
 60 56  2  0
 61 55  1  0
 62 56  1  0
 10 63  1  0
 10 64  1  0
 11 65  1  0
 11 66  1  0
 12 67  1  0
 12 68  1  0
 13 69  1  0
 13 70  1  0
 14 71  1  0
 15 72  1  0
 16 73  1  0
 16 74  1  0
 17 75  1  0
 18 76  1  0
 19 77  1  0
 21 78  1  0
 21 79  1  0
 22 80  1  0
 22 81  1  0
 23 82  1  0
 23 83  1  0
 24 84  1  0
 25 85  1  0
 26 86  1  0
 27 87  1  0
 37 88  1  0
 37 89  1  0
 38 90  1  0
 38 91  1  0
 39 92  1  0
 39 93  1  0
 40 94  1  0
 40 95  1  0
 41 96  1  0
 42 97  1  0
 43 98  1  0
 43 99  1  0
 44100  1  0
 45101  1  0
 46102  1  0
 48103  1  0
 48104  1  0
 49105  1  0
 49106  1  0
 50107  1  0
 50108  1  0
 51109  1  0
 52110  1  0
 53111  1  0
 54112  1  0
 57113  1  0
 58114  1  0
 61115  1  0
 62116  1  0
M  END
> <Uni-Dock RESULT> 
ENERGY=   -4.407  LOWER_BOUND=    4.130  UPPER_BOUND=    8.082
INTER + INTRA:          -4.407
INTER:                  -4.407
INTRA:                   0.000
UNBOUND:                 0.000

$$$$

     RDKit          3D

116121  0  0  0  0  0  0  0  0999 V2000
   51.9687    9.5171   12.9336 C   0  0  0  0  0  0  0  0  0  0  0  0
   52.3828   10.7286   13.2034 N   0  0  0  0  0  0  0  0  0  0  0  0
   52.5976    8.6363   11.8944 C   0  0  0  0  0  0  0  0  0  0  0  0
   55.1098    9.1060   13.0310 S   0  0  0  0  0  0  0  0  0  0  0  0
   50.8550    9.0272   13.6271 N   0  0  0  0  0  0  0  0  0  0  0  0
   53.9662    8.3326   11.9016 C   0  0  0  0  0  0  0  0  0  0  0  0
   53.4892   11.3484   12.5968 C   0  0  0  0  0  0  0  0  0  0  0  0
   54.7803   10.7926   12.5273 C   0  0  0  0  0  0  0  0  0  0  0  0
   48.7857    8.0070   15.5556 N   0  0  0  0  0  0  0  0  0  0  0  0
   50.1066    9.9356   14.5172 C   0  0  0  0  0  0  0  0  0  0  0  0
   50.6438    7.5904   13.8878 C   0  0  0  0  0  0  0  0  0  0  0  0
   48.7407    9.3368   14.9052 C   0  0  0  0  0  0  0  0  0  0  0  0
   50.0841    7.3403   15.3053 C   0  0  0  0  0  0  0  0  0  0  0  0
   51.7563    8.0722   10.9250 C   0  0  0  0  0  0  0  0  0  0  0  0
   54.4704    7.4341   10.9522 C   0  0  0  0  0  0  0  0  0  0  0  0
   48.4876    8.0999   16.9992 C   0  0  0  0  0  0  0  0  0  0  0  0
   49.7326    5.1487   20.8301 O   0  0  0  0  0  0  0  0  0  0  0  0
   53.3031   12.6583   12.1377 C   0  0  0  0  0  0  0  0  0  0  0  0
   55.8442   11.5417   11.9993 C   0  0  0  0  0  0  0  0  0  0  0  0
   49.6345    6.2177   18.0464 O   0  0  0  0  0  0  0  0  0  0  0  0
   48.9537    4.5808   19.7840 C   0  0  0  0  0  0  0  0  0  0  0  0
   48.3484    6.7341   17.7010 C   0  0  0  0  0  0  0  0  0  0  0  0
   49.6124    4.8385   18.4255 C   0  0  0  0  0  0  0  0  0  0  0  0
   52.2711    7.1870    9.9783 C   0  0  0  0  0  0  0  0  0  0  0  0
   53.6273    6.8634    9.9972 C   0  0  0  0  0  0  0  0  0  0  0  0
   55.6318   12.8380   11.5284 C   0  0  0  0  0  0  0  0  0  0  0  0
   54.3589   13.3961   11.5963 C   0  0  0  0  0  0  0  0  0  0  0  0
   50.3444    7.2031   15.6364 C   0  0  0  0  0  0  0  0  0  0  0  0
   49.1227    6.7511   15.7549 N   0  0  0  0  0  0  0  0  0  0  0  0
   51.4085    7.0395   16.6830 C   0  0  0  0  0  0  0  0  0  0  0  0
   49.6462    8.0372   18.6079 S   0  0  0  0  0  0  0  0  0  0  0  0
   50.7176    7.8460   14.4443 N   0  0  0  0  0  0  0  0  0  0  0  0
   51.2158    7.4321   18.0125 C   0  0  0  0  0  0  0  0  0  0  0  0
   48.6292    6.0793   16.8858 C   0  0  0  0  0  0  0  0  0  0  0  0
   48.7044    6.5708   18.2027 C   0  0  0  0  0  0  0  0  0  0  0  0
   51.0947    9.5193   12.0394 N   0  0  0  0  0  0  0  0  0  0  0  0
   49.7774    7.7766   13.3041 C   0  0  0  0  0  0  0  0  0  0  0  0
   51.3524    9.1806   14.5305 C   0  0  0  0  0  0  0  0  0  0  0  0
   50.4826    8.1712   11.9903 C   0  0  0  0  0  0  0  0  0  0  0  0
   52.0193    9.5774   13.1931 C   0  0  0  0  0  0  0  0  0  0  0  0
   52.6462    6.5167   16.2763 C   0  0  0  0  0  0  0  0  0  0  0  0
   52.2727    7.3032   18.9249 C   0  0  0  0  0  0  0  0  0  0  0  0
   51.7783    9.8179   10.7628 C   0  0  0  0  0  0  0  0  0  0  0  0
   54.9502   13.6639   10.2180 O   0  0  0  0  0  0  0  0  0  0  0  0
   47.9366    4.8846   16.6597 C   0  0  0  0  0  0  0  0  0  0  0  0
   48.0962    5.8678   19.2539 C   0  0  0  0  0  0  0  0  0  0  0  0
   53.3221   11.6910   11.3366 O   0  0  0  0  0  0  0  0  0  0  0  0
   54.9781   12.3414    9.6815 C   0  0  0  0  0  0  0  0  0  0  0  0
   52.1715   11.3002   10.5838 C   0  0  0  0  0  0  0  0  0  0  0  0
   54.5782   11.3313   10.7566 C   0  0  0  0  0  0  0  0  0  0  0  0
   53.6881    6.3855   17.1930 C   0  0  0  0  0  0  0  0  0  0  0  0
   53.5039    6.7854   18.5163 C   0  0  0  0  0  0  0  0  0  0  0  0
   47.4199    4.6755   19.0093 C   0  0  0  0  0  0  0  0  0  0  0  0
   47.3386    4.1835   17.7096 C   0  0  0  0  0  0  0  0  0  0  0  0
   52.4049    9.5663   13.3232 C   0  0  0  0  0  0  0  0  0  0  0  0
   50.0994    7.5518   15.6229 C   0  0  0  0  0  0  0  0  0  0  0  0
   51.7365    9.0219   14.5084 C   0  0  0  0  0  0  0  0  0  0  0  0
   50.7639    8.1029   14.4394 C   0  0  0  0  0  0  0  0  0  0  0  0
   53.2939   10.3972   13.3563 O   0  0  0  0  0  0  0  0  0  0  0  0
   49.2173    6.7140   15.5867 O   0  0  0  0  0  0  0  0  0  0  0  0
   51.9501    9.0701   12.1630 O   0  0  0  0  0  0  0  0  0  0  0  0
   50.5466    8.0540   16.7828 O   0  0  0  0  0  0  0  0  0  0  0  0
   49.9219   10.8894   14.0075 H   0  0  0  0  0  0  0  0  0  0  0  0
   50.6939   10.1469   15.4201 H   0  0  0  0  0  0  0  0  0  0  0  0
   51.5820    7.0303   13.7954 H   0  0  0  0  0  0  0  0  0  0  0  0
   49.9425    7.1937   13.1448 H   0  0  0  0  0  0  0  0  0  0  0  0
   48.1884   10.0634   15.5121 H   0  0  0  0  0  0  0  0  0  0  0  0
   48.1556    9.2178   13.9839 H   0  0  0  0  0  0  0  0  0  0  0  0
   49.9594    6.2612   15.4384 H   0  0  0  0  0  0  0  0  0  0  0  0
   50.8361    7.6796   16.0286 H   0  0  0  0  0  0  0  0  0  0  0  0
   50.7008    8.3262   10.9077 H   0  0  0  0  0  0  0  0  0  0  0  0
   55.5303    7.1845   10.9422 H   0  0  0  0  0  0  0  0  0  0  0  0
   47.5180    8.6021   17.1086 H   0  0  0  0  0  0  0  0  0  0  0  0
   49.2432    8.7094   17.5093 H   0  0  0  0  0  0  0  0  0  0  0  0
   49.2264    5.0564   21.6553 H   0  0  0  0  0  0  0  0  0  0  0  0
   52.3198   13.1121   12.2209 H   0  0  0  0  0  0  0  0  0  0  0  0
   56.8437   11.1160   11.9460 H   0  0  0  0  0  0  0  0  0  0  0  0
   47.9501    5.0049   19.8324 H   0  0  0  0  0  0  0  0  0  0  0  0
   48.8832    3.5031   19.9627 H   0  0  0  0  0  0  0  0  0  0  0  0
   47.7740    6.8789   18.6219 H   0  0  0  0  0  0  0  0  0  0  0  0
   47.8043    6.0304   17.0591 H   0  0  0  0  0  0  0  0  0  0  0  0
   49.1210    4.2519   17.6416 H   0  0  0  0  0  0  0  0  0  0  0  0
   50.6585    4.5194   18.4703 H   0  0  0  0  0  0  0  0  0  0  0  0
   51.6173    6.7518    9.2256 H   0  0  0  0  0  0  0  0  0  0  0  0
   54.0345    6.1740    9.2615 H   0  0  0  0  0  0  0  0  0  0  0  0
   56.4592   13.4098   11.1128 H   0  0  0  0  0  0  0  0  0  0  0  0
   54.1851   14.4114   11.2444 H   0  0  0  0  0  0  0  0  0  0  0  0
   48.9212    8.4418   13.4828 H   0  0  0  0  0  0  0  0  0  0  0  0
   49.4007    6.7516   13.1898 H   0  0  0  0  0  0  0  0  0  0  0  0
   52.1180    9.2052   15.3102 H   0  0  0  0  0  0  0  0  0  0  0  0
   50.5935    9.9255   14.7976 H   0  0  0  0  0  0  0  0  0  0  0  0
   49.7355    8.1416   11.1887 H   0  0  0  0  0  0  0  0  0  0  0  0
   51.2460    7.4191   11.7546 H   0  0  0  0  0  0  0  0  0  0  0  0
   52.4055   10.5935   13.3188 H   0  0  0  0  0  0  0  0  0  0  0  0
   52.8784    8.9148   13.0225 H   0  0  0  0  0  0  0  0  0  0  0  0
   52.7933    6.2099   15.2440 H   0  0  0  0  0  0  0  0  0  0  0  0
   52.1402    7.5999   19.9636 H   0  0  0  0  0  0  0  0  0  0  0  0
   51.0799    9.5913    9.9468 H   0  0  0  0  0  0  0  0  0  0  0  0
   52.6490    9.1645   10.6358 H   0  0  0  0  0  0  0  0  0  0  0  0
   54.1897   13.6859   10.8297 H   0  0  0  0  0  0  0  0  0  0  0  0
   47.8579    4.5026   15.6431 H   0  0  0  0  0  0  0  0  0  0  0  0
   48.1669    6.2413   20.2715 H   0  0  0  0  0  0  0  0  0  0  0  0
   54.2924   12.3152    8.8290 H   0  0  0  0  0  0  0  0  0  0  0  0
   55.9908   12.1343    9.3171 H   0  0  0  0  0  0  0  0  0  0  0  0
   51.3388   11.9378   10.9036 H   0  0  0  0  0  0  0  0  0  0  0  0
   52.3279   11.5159    9.5211 H   0  0  0  0  0  0  0  0  0  0  0  0
   54.5715   10.3082   10.3736 H   0  0  0  0  0  0  0  0  0  0  0  0
   55.3067   11.3808   11.5709 H   0  0  0  0  0  0  0  0  0  0  0  0
   54.6434    5.9723   16.8791 H   0  0  0  0  0  0  0  0  0  0  0  0
   54.3137    6.6837   19.2346 H   0  0  0  0  0  0  0  0  0  0  0  0
   46.9577    4.1304   19.8297 H   0  0  0  0  0  0  0  0  0  0  0  0
   46.8075    3.2566   17.5074 H   0  0  0  0  0  0  0  0  0  0  0  0
   52.0939    9.4205   15.4513 H   0  0  0  0  0  0  0  0  0  0  0  0
   50.4072    7.7048   13.4950 H   0  0  0  0  0  0  0  0  0  0  0  0
   52.4911    9.5250   11.4836 H   0  0  0  0  0  0  0  0  0  0  0  0
   50.0180    7.5894   17.4656 H   0  0  0  0  0  0  0  0  0  0  0  0
  2  1  2  0
  3  1  1  0
  4  6  1  0
  5  1  1  0
  6  3  2  0
  7  2  1  0
  8  7  2  0
  9 13  1  0
 10  5  1  0
 11  5  1  0
 12 10  1  0
 13 11  1  0
 14  3  1  0
 15  6  1  0
 16  9  1  0
 17 21  1  0
 18  7  1  0
 19  8  1  0
 20 22  1  0
 21 23  1  0
 22 16  1  0
 23 20  1  0
 24 14  2  0
 25 15  2  0
 26 19  2  0
 27 18  2  0
  9 12  1  0
  8  4  1  0
 24 25  1  0
 27 26  1  0
 29 28  2  0
 30 28  1  0
 31 33  1  0
 32 28  1  0
 33 30  2  0
 34 29  1  0
 35 34  2  0
 36 40  1  0
 37 32  1  0
 38 32  1  0
 39 37  1  0
 40 38  1  0
 41 30  1  0
 42 33  1  0
 43 36  1  0
 44 48  1  0
 45 34  1  0
 46 35  1  0
 47 49  1  0
 48 50  1  0
 49 43  1  0
 50 47  1  0
 51 41  2  0
 52 42  2  0
 53 46  2  0
 54 45  2  0
 36 39  1  0
 35 31  1  0
 51 52  1  0
 54 53  1  0
 56 58  1  0
 57 55  1  0
 58 57  2  0
 59 55  2  0
 60 56  2  0
 61 55  1  0
 62 56  1  0
 10 63  1  0
 10 64  1  0
 11 65  1  0
 11 66  1  0
 12 67  1  0
 12 68  1  0
 13 69  1  0
 13 70  1  0
 14 71  1  0
 15 72  1  0
 16 73  1  0
 16 74  1  0
 17 75  1  0
 18 76  1  0
 19 77  1  0
 21 78  1  0
 21 79  1  0
 22 80  1  0
 22 81  1  0
 23 82  1  0
 23 83  1  0
 24 84  1  0
 25 85  1  0
 26 86  1  0
 27 87  1  0
 37 88  1  0
 37 89  1  0
 38 90  1  0
 38 91  1  0
 39 92  1  0
 39 93  1  0
 40 94  1  0
 40 95  1  0
 41 96  1  0
 42 97  1  0
 43 98  1  0
 43 99  1  0
 44100  1  0
 45101  1  0
 46102  1  0
 48103  1  0
 48104  1  0
 49105  1  0
 49106  1  0
 50107  1  0
 50108  1  0
 51109  1  0
 52110  1  0
 53111  1  0
 54112  1  0
 57113  1  0
 58114  1  0
 61115  1  0
 62116  1  0
M  END
> <Uni-Dock RESULT> 
ENERGY=   -4.342  LOWER_BOUND=    5.160  UPPER_BOUND=    7.291
INTER + INTRA:          -4.342
INTER:                  -4.342
INTRA:                   0.000
UNBOUND:                 0.000

$$$$

     RDKit          3D

116121  0  0  0  0  0  0  0  0999 V2000
   49.1889   13.7108   14.9907 C   0  0  0  0  0  0  0  0  0  0  0  0
   50.3661   13.8599   14.4394 N   0  0  0  0  0  0  0  0  0  0  0  0
   47.8979   14.0093   14.2867 C   0  0  0  0  0  0  0  0  0  0  0  0
   48.7176   12.4243   12.1328 S   0  0  0  0  0  0  0  0  0  0  0  0
   49.1300   13.2829   16.3229 N   0  0  0  0  0  0  0  0  0  0  0  0
   47.5660   13.4258   13.0560 C   0  0  0  0  0  0  0  0  0  0  0  0
   50.5805   14.2718   13.1125 C   0  0  0  0  0  0  0  0  0  0  0  0
   49.9937   13.6718   11.9827 C   0  0  0  0  0  0  0  0  0  0  0  0
   49.2194   11.9010   18.9920 N   0  0  0  0  0  0  0  0  0  0  0  0
   50.3823   13.1612   17.0941 C   0  0  0  0  0  0  0  0  0  0  0  0
   47.9890   12.5238   16.8694 C   0  0  0  0  0  0  0  0  0  0  0  0
   50.0979   13.0279   18.6028 C   0  0  0  0  0  0  0  0  0  0  0  0
   48.4504   11.4044   17.8280 C   0  0  0  0  0  0  0  0  0  0  0  0
   46.9911   14.8651   14.9276 C   0  0  0  0  0  0  0  0  0  0  0  0
   46.3070   13.6819   12.4973 C   0  0  0  0  0  0  0  0  0  0  0  0
   49.9839   10.8189   19.6448 C   0  0  0  0  0  0  0  0  0  0  0  0
   49.0829    5.9260   20.0724 O   0  0  0  0  0  0  0  0  0  0  0  0
   51.5368   15.2750   12.9118 C   0  0  0  0  0  0  0  0  0  0  0  0
   50.3609   14.0859   10.6922 C   0  0  0  0  0  0  0  0  0  0  0  0
   48.7464    8.7616   19.2080 O   0  0  0  0  0  0  0  0  0  0  0  0
   48.1341    6.8245   20.6344 C   0  0  0  0  0  0  0  0  0  0  0  0
   49.1062    9.6938   20.2287 C   0  0  0  0  0  0  0  0  0  0  0  0
   47.7019    7.8649   19.5969 C   0  0  0  0  0  0  0  0  0  0  0  0
   45.7445   15.1211   14.3571 C   0  0  0  0  0  0  0  0  0  0  0  0
   45.4010   14.5234   13.1451 C   0  0  0  0  0  0  0  0  0  0  0  0
   51.3010   15.1020   10.5157 C   0  0  0  0  0  0  0  0  0  0  0  0
   51.8883   15.6983   11.6274 C   0  0  0  0  0  0  0  0  0  0  0  0
   48.4695   10.9813   17.6982 C   0  0  0  0  0  0  0  0  0  0  0  0
   48.1834   11.0905   18.9699 N   0  0  0  0  0  0  0  0  0  0  0  0
   48.7572    9.6792   17.0082 C   0  0  0  0  0  0  0  0  0  0  0  0
   50.6163    9.0538   18.9978 S   0  0  0  0  0  0  0  0  0  0  0  0
   48.4691   12.1378   16.9006 N   0  0  0  0  0  0  0  0  0  0  0  0
   49.7291    8.7857   17.4730 C   0  0  0  0  0  0  0  0  0  0  0  0
   48.1358   10.0129   19.8700 C   0  0  0  0  0  0  0  0  0  0  0  0
   49.1764    9.0841   20.0597 C   0  0  0  0  0  0  0  0  0  0  0  0
   48.8196   14.7535   15.5736 N   0  0  0  0  0  0  0  0  0  0  0  0
   47.9259   13.3797   17.4934 C   0  0  0  0  0  0  0  0  0  0  0  0
   49.6596   12.4218   16.0678 C   0  0  0  0  0  0  0  0  0  0  0  0
   47.6332   14.4251   16.3976 C   0  0  0  0  0  0  0  0  0  0  0  0
   49.3599   13.5005   15.0014 C   0  0  0  0  0  0  0  0  0  0  0  0
   48.0461    9.3955   15.8315 C   0  0  0  0  0  0  0  0  0  0  0  0
   49.9857    7.6140   16.7468 C   0  0  0  0  0  0  0  0  0  0  0  0
   48.4603   15.7338   14.5267 C   0  0  0  0  0  0  0  0  0  0  0  0
   51.4591   16.7818   10.6462 O   0  0  0  0  0  0  0  0  0  0  0  0
   47.0072    9.9253   20.6926 C   0  0  0  0  0  0  0  0  0  0  0  0
   49.0698    8.0982   21.0525 C   0  0  0  0  0  0  0  0  0  0  0  0
   50.3090   15.5359   12.8641 O   0  0  0  0  0  0  0  0  0  0  0  0
   50.0388   16.6659   10.7300 C   0  0  0  0  0  0  0  0  0  0  0  0
   49.6706   16.3835   13.8218 C   0  0  0  0  0  0  0  0  0  0  0  0
   49.6613   15.4615   11.5919 C   0  0  0  0  0  0  0  0  0  0  0  0
   48.3035    8.2239   15.1211 C   0  0  0  0  0  0  0  0  0  0  0  0
   49.2786    7.3361   15.5748 C   0  0  0  0  0  0  0  0  0  0  0  0
   47.9340    8.0219   21.8543 C   0  0  0  0  0  0  0  0  0  0  0  0
   46.9012    8.9379   21.6752 C   0  0  0  0  0  0  0  0  0  0  0  0
   49.3915   13.2595   14.6748 C   0  0  0  0  0  0  0  0  0  0  0  0
   48.7838   11.2207   17.8585 C   0  0  0  0  0  0  0  0  0  0  0  0
   49.4902   12.2473   15.7301 C   0  0  0  0  0  0  0  0  0  0  0  0
   48.6920   12.2356   16.8061 C   0  0  0  0  0  0  0  0  0  0  0  0
   50.0992   13.2918   13.6849 O   0  0  0  0  0  0  0  0  0  0  0  0
   48.0682   11.1859   18.8424 O   0  0  0  0  0  0  0  0  0  0  0  0
   48.4377   14.1784   14.8865 O   0  0  0  0  0  0  0  0  0  0  0  0
   49.7432   10.3070   17.6528 O   0  0  0  0  0  0  0  0  0  0  0  0
   50.9998   14.0560   16.9470 H   0  0  0  0  0  0  0  0  0  0  0  0
   50.9585   12.2955   16.7429 H   0  0  0  0  0  0  0  0  0  0  0  0
   47.4049   12.0571   16.0672 H   0  0  0  0  0  0  0  0  0  0  0  0
   47.3281   13.2134   17.4070 H   0  0  0  0  0  0  0  0  0  0  0  0
   51.0487   13.0041   19.1476 H   0  0  0  0  0  0  0  0  0  0  0  0
   49.5949   13.9476   18.9292 H   0  0  0  0  0  0  0  0  0  0  0  0
   47.5627   10.8761   18.1895 H   0  0  0  0  0  0  0  0  0  0  0  0
   49.0489   10.6905   17.2483 H   0  0  0  0  0  0  0  0  0  0  0  0
   47.2591   15.3334   15.8699 H   0  0  0  0  0  0  0  0  0  0  0  0
   46.0300   13.2371   11.5428 H   0  0  0  0  0  0  0  0  0  0  0  0
   50.5261   11.2571   20.4923 H   0  0  0  0  0  0  0  0  0  0  0  0
   50.7227   10.3983   18.9521 H   0  0  0  0  0  0  0  0  0  0  0  0
   49.4075    5.3560   20.7904 H   0  0  0  0  0  0  0  0  0  0  0  0
   52.0247   15.7193   13.7745 H   0  0  0  0  0  0  0  0  0  0  0  0
   49.9110   13.6229    9.8169 H   0  0  0  0  0  0  0  0  0  0  0  0
   48.5806    7.2923   21.5127 H   0  0  0  0  0  0  0  0  0  0  0  0
   47.2661    6.2405   20.9568 H   0  0  0  0  0  0  0  0  0  0  0  0
   49.6881    9.1657   20.9912 H   0  0  0  0  0  0  0  0  0  0  0  0
   48.2127   10.1164   20.7045 H   0  0  0  0  0  0  0  0  0  0  0  0
   46.8438    8.4398   19.9620 H   0  0  0  0  0  0  0  0  0  0  0  0
   47.3893    7.3489   18.6835 H   0  0  0  0  0  0  0  0  0  0  0  0
   45.0428   15.7870   14.8547 H   0  0  0  0  0  0  0  0  0  0  0  0
   44.4306   14.7194   12.6952 H   0  0  0  0  0  0  0  0  0  0  0  0
   51.5747   15.4237    9.5129 H   0  0  0  0  0  0  0  0  0  0  0  0
   52.6327   16.4823   11.5008 H   0  0  0  0  0  0  0  0  0  0  0  0
   48.6389   13.7912   18.2212 H   0  0  0  0  0  0  0  0  0  0  0  0
   46.9838   13.1659   18.0155 H   0  0  0  0  0  0  0  0  0  0  0  0
   50.0049   11.5226   15.5512 H   0  0  0  0  0  0  0  0  0  0  0  0
   50.4794   12.7604   16.7123 H   0  0  0  0  0  0  0  0  0  0  0  0
   47.2725   15.3345   16.8919 H   0  0  0  0  0  0  0  0  0  0  0  0
   46.8213   14.0554   15.7587 H   0  0  0  0  0  0  0  0  0  0  0  0
   50.2988   13.6978   14.4751 H   0  0  0  0  0  0  0  0  0  0  0  0
   48.6527   13.0824   14.2725 H   0  0  0  0  0  0  0  0  0  0  0  0
   47.2899   10.0891   15.4733 H   0  0  0  0  0  0  0  0  0  0  0  0
   50.7352    6.9058   17.0949 H   0  0  0  0  0  0  0  0  0  0  0  0
   47.9162   16.5561   15.0092 H   0  0  0  0  0  0  0  0  0  0  0  0
   47.7809   15.2790   13.7969 H   0  0  0  0  0  0  0  0  0  0  0  0
   51.7984   16.5239   11.5245 H   0  0  0  0  0  0  0  0  0  0  0  0
   46.2026   10.6479   20.5662 H   0  0  0  0  0  0  0  0  0  0  0  0
   49.8677    7.3737   21.1884 H   0  0  0  0  0  0  0  0  0  0  0  0
   49.6545   17.5997   11.1519 H   0  0  0  0  0  0  0  0  0  0  0  0
   49.6377   16.5539    9.7161 H   0  0  0  0  0  0  0  0  0  0  0  0
   50.4234   16.6565   14.5709 H   0  0  0  0  0  0  0  0  0  0  0  0
   49.3625   17.3210   13.3460 H   0  0  0  0  0  0  0  0  0  0  0  0
   48.5787   15.3541   11.6920 H   0  0  0  0  0  0  0  0  0  0  0  0
   50.0464   14.5558   11.1148 H   0  0  0  0  0  0  0  0  0  0  0  0
   47.7461    8.0008   14.2148 H   0  0  0  0  0  0  0  0  0  0  0  0
   49.4815    6.4208   15.0242 H   0  0  0  0  0  0  0  0  0  0  0  0
   47.8533    7.2499   22.6167 H   0  0  0  0  0  0  0  0  0  0  0  0
   46.0129    8.8905   22.3003 H   0  0  0  0  0  0  0  0  0  0  0  0
   50.2619   11.5025   15.5704 H   0  0  0  0  0  0  0  0  0  0  0  0
   47.9200   12.9816   16.9646 H   0  0  0  0  0  0  0  0  0  0  0  0
   48.4998   14.7674   14.1051 H   0  0  0  0  0  0  0  0  0  0  0  0
   49.6734    9.7071   18.4252 H   0  0  0  0  0  0  0  0  0  0  0  0
  2  1  2  0
  3  1  1  0
  4  6  1  0
  5  1  1  0
  6  3  2  0
  7  2  1  0
  8  7  2  0
  9 13  1  0
 10  5  1  0
 11  5  1  0
 12 10  1  0
 13 11  1  0
 14  3  1  0
 15  6  1  0
 16  9  1  0
 17 21  1  0
 18  7  1  0
 19  8  1  0
 20 22  1  0
 21 23  1  0
 22 16  1  0
 23 20  1  0
 24 14  2  0
 25 15  2  0
 26 19  2  0
 27 18  2  0
  9 12  1  0
  8  4  1  0
 24 25  1  0
 27 26  1  0
 29 28  2  0
 30 28  1  0
 31 33  1  0
 32 28  1  0
 33 30  2  0
 34 29  1  0
 35 34  2  0
 36 40  1  0
 37 32  1  0
 38 32  1  0
 39 37  1  0
 40 38  1  0
 41 30  1  0
 42 33  1  0
 43 36  1  0
 44 48  1  0
 45 34  1  0
 46 35  1  0
 47 49  1  0
 48 50  1  0
 49 43  1  0
 50 47  1  0
 51 41  2  0
 52 42  2  0
 53 46  2  0
 54 45  2  0
 36 39  1  0
 35 31  1  0
 51 52  1  0
 54 53  1  0
 56 58  1  0
 57 55  1  0
 58 57  2  0
 59 55  2  0
 60 56  2  0
 61 55  1  0
 62 56  1  0
 10 63  1  0
 10 64  1  0
 11 65  1  0
 11 66  1  0
 12 67  1  0
 12 68  1  0
 13 69  1  0
 13 70  1  0
 14 71  1  0
 15 72  1  0
 16 73  1  0
 16 74  1  0
 17 75  1  0
 18 76  1  0
 19 77  1  0
 21 78  1  0
 21 79  1  0
 22 80  1  0
 22 81  1  0
 23 82  1  0
 23 83  1  0
 24 84  1  0
 25 85  1  0
 26 86  1  0
 27 87  1  0
 37 88  1  0
 37 89  1  0
 38 90  1  0
 38 91  1  0
 39 92  1  0
 39 93  1  0
 40 94  1  0
 40 95  1  0
 41 96  1  0
 42 97  1  0
 43 98  1  0
 43 99  1  0
 44100  1  0
 45101  1  0
 46102  1  0
 48103  1  0
 48104  1  0
 49105  1  0
 49106  1  0
 50107  1  0
 50108  1  0
 51109  1  0
 52110  1  0
 53111  1  0
 54112  1  0
 57113  1  0
 58114  1  0
 61115  1  0
 62116  1  0
M  END
> <Uni-Dock RESULT> 
ENERGY=   -4.288  LOWER_BOUND=    3.885  UPPER_BOUND=    6.253
INTER + INTRA:          -4.288
INTER:                  -4.288
INTRA:                   0.000
UNBOUND:                 0.000

$$$$
