
     RDKit          3D

116121  0  0  0  0  0  0  0  0999 V2000
   49.2747    6.9548   17.8927 C   0  0  0  0  0  0  0  0  0  0  0  0
   49.0581    7.6463   18.9828 N   0  0  0  0  0  0  0  0  0  0  0  0
   49.2399    5.4531   17.8449 C   0  0  0  0  0  0  0  0  0  0  0  0
   46.7031    5.5124   19.0228 S   0  0  0  0  0  0  0  0  0  0  0  0
   49.5775    7.6397   16.7080 N   0  0  0  0  0  0  0  0  0  0  0  0
   48.1028    4.7313   18.2374 C   0  0  0  0  0  0  0  0  0  0  0  0
   48.7141    7.0671   20.2186 C   0  0  0  0  0  0  0  0  0  0  0  0
   47.6285    6.1855   20.4053 C   0  0  0  0  0  0  0  0  0  0  0  0
   50.2500    8.9998   14.2270 N   0  0  0  0  0  0  0  0  0  0  0  0
   49.7776    9.0964   16.7425 C   0  0  0  0  0  0  0  0  0  0  0  0
   49.1802    7.0961   15.3880 C   0  0  0  0  0  0  0  0  0  0  0  0
   50.5859    9.6111   15.5241 C   0  0  0  0  0  0  0  0  0  0  0  0
   49.0314    8.1882   14.3063 C   0  0  0  0  0  0  0  0  0  0  0  0
   50.3678    4.7888   17.3395 C   0  0  0  0  0  0  0  0  0  0  0  0
   48.0947    3.3416   18.0750 C   0  0  0  0  0  0  0  0  0  0  0  0
   50.3063    9.9087   13.0770 C   0  0  0  0  0  0  0  0  0  0  0  0
   46.0687   12.6666   10.3393 O   0  0  0  0  0  0  0  0  0  0  0  0
   49.4414    7.4832   21.3417 C   0  0  0  0  0  0  0  0  0  0  0  0
   47.2938    5.7528   21.6987 C   0  0  0  0  0  0  0  0  0  0  0  0
   47.9879   10.3191   12.4289 O   0  0  0  0  0  0  0  0  0  0  0  0
   47.0669   11.7019   10.6500 C   0  0  0  0  0  0  0  0  0  0  0  0
   49.1765   10.9466   12.9208 C   0  0  0  0  0  0  0  0  0  0  0  0
   46.9609   11.2586   12.1072 C   0  0  0  0  0  0  0  0  0  0  0  0
   50.3480    3.4015   17.1941 C   0  0  0  0  0  0  0  0  0  0  0  0
   49.2074    2.6822   17.5485 C   0  0  0  0  0  0  0  0  0  0  0  0
   48.0374    6.1715   22.8017 C   0  0  0  0  0  0  0  0  0  0  0  0
   49.1172    7.0322   22.6243 C   0  0  0  0  0  0  0  0  0  0  0  0
   48.7693    6.8365   18.0698 C   0  0  0  0  0  0  0  0  0  0  0  0
   49.1783    7.4194   19.1630 N   0  0  0  0  0  0  0  0  0  0  0  0
   48.6362    5.3472   17.9276 C   0  0  0  0  0  0  0  0  0  0  0  0
   51.2520    5.0351   18.8828 S   0  0  0  0  0  0  0  0  0  0  0  0
   48.4116    7.6279   16.9659 N   0  0  0  0  0  0  0  0  0  0  0  0
   49.7080    4.4797   18.1825 C   0  0  0  0  0  0  0  0  0  0  0  0
   49.5845    6.7524   20.3320 C   0  0  0  0  0  0  0  0  0  0  0  0
   50.5630    5.7432   20.3766 C   0  0  0  0  0  0  0  0  0  0  0  0
   48.4496    9.6049   14.7069 N   0  0  0  0  0  0  0  0  0  0  0  0
   48.2154    9.0836   17.1460 C   0  0  0  0  0  0  0  0  0  0  0  0
   48.8524    7.2387   15.6090 C   0  0  0  0  0  0  0  0  0  0  0  0
   48.9477    9.9023   16.0642 C   0  0  0  0  0  0  0  0  0  0  0  0
   48.2565    8.1542   14.5168 C   0  0  0  0  0  0  0  0  0  0  0  0
   47.4147    4.8388   17.4492 C   0  0  0  0  0  0  0  0  0  0  0  0
   49.5516    3.1093   17.9245 C   0  0  0  0  0  0  0  0  0  0  0  0
   49.2961   10.2265   13.6800 C   0  0  0  0  0  0  0  0  0  0  0  0
   47.8385   12.7367    9.4326 O   0  0  0  0  0  0  0  0  0  0  0  0
   49.0613    7.2286   21.5465 C   0  0  0  0  0  0  0  0  0  0  0  0
   50.9903    5.2291   21.6098 C   0  0  0  0  0  0  0  0  0  0  0  0
   49.3751   11.0432   11.3582 O   0  0  0  0  0  0  0  0  0  0  0  0
   47.8866   12.9660   10.8420 C   0  0  0  0  0  0  0  0  0  0  0  0
   48.6042   10.3037   12.3073 C   0  0  0  0  0  0  0  0  0  0  0  0
   49.2123   12.4653   11.4258 C   0  0  0  0  0  0  0  0  0  0  0  0
   47.2684    3.4727   17.2085 C   0  0  0  0  0  0  0  0  0  0  0  0
   48.3381    2.6084   17.4385 C   0  0  0  0  0  0  0  0  0  0  0  0
   50.4510    5.7112   22.8059 C   0  0  0  0  0  0  0  0  0  0  0  0
   49.4798    6.7064   22.7742 C   0  0  0  0  0  0  0  0  0  0  0  0
   48.7788    8.6351   14.5479 C   0  0  0  0  0  0  0  0  0  0  0  0
   49.1334    7.1862   18.0010 C   0  0  0  0  0  0  0  0  0  0  0  0
   48.4723    8.1949   15.9088 C   0  0  0  0  0  0  0  0  0  0  0  0
   49.4328    7.6074   16.6328 C   0  0  0  0  0  0  0  0  0  0  0  0
   49.8472    8.5645   13.9709 O   0  0  0  0  0  0  0  0  0  0  0  0
   48.0871    7.3277   18.6044 O   0  0  0  0  0  0  0  0  0  0  0  0
   47.6883    9.1665   13.9765 O   0  0  0  0  0  0  0  0  0  0  0  0
   50.2071    6.5996   18.5510 O   0  0  0  0  0  0  0  0  0  0  0  0
   50.3204    9.3926   17.6466 H   0  0  0  0  0  0  0  0  0  0  0  0
   48.7970    9.5864   16.7686 H   0  0  0  0  0  0  0  0  0  0  0  0
   48.2244    6.5609   15.4652 H   0  0  0  0  0  0  0  0  0  0  0  0
   49.9478    6.3854   15.0654 H   0  0  0  0  0  0  0  0  0  0  0  0
   50.4768   10.7013   15.4938 H   0  0  0  0  0  0  0  0  0  0  0  0
   51.6490    9.4147   15.7043 H   0  0  0  0  0  0  0  0  0  0  0  0
   48.8417    7.6914   13.3466 H   0  0  0  0  0  0  0  0  0  0  0  0
   48.1527    8.8097   14.5343 H   0  0  0  0  0  0  0  0  0  0  0  0
   51.2504    5.3550   17.0484 H   0  0  0  0  0  0  0  0  0  0  0  0
   47.2237    2.7608   18.3697 H   0  0  0  0  0  0  0  0  0  0  0  0
   50.3296    9.2911   12.1720 H   0  0  0  0  0  0  0  0  0  0  0  0
   51.2674   10.4366   13.1096 H   0  0  0  0  0  0  0  0  0  0  0  0
   46.3232   13.5028   10.7629 H   0  0  0  0  0  0  0  0  0  0  0  0
   50.2707    8.1727   21.2008 H   0  0  0  0  0  0  0  0  0  0  0  0
   46.4567    5.0722   21.8491 H   0  0  0  0  0  0  0  0  0  0  0  0
   46.9383   10.8431    9.9870 H   0  0  0  0  0  0  0  0  0  0  0  0
   48.0512   12.1298   10.4290 H   0  0  0  0  0  0  0  0  0  0  0  0
   49.5063   11.7118   12.2053 H   0  0  0  0  0  0  0  0  0  0  0  0
   48.9639   11.4376   13.8775 H   0  0  0  0  0  0  0  0  0  0  0  0
   45.9964   10.7612   12.2606 H   0  0  0  0  0  0  0  0  0  0  0  0
   46.9743   12.1165   12.7912 H   0  0  0  0  0  0  0  0  0  0  0  0
   51.2177    2.8891   16.7921 H   0  0  0  0  0  0  0  0  0  0  0  0
   49.1886    1.6017   17.4322 H   0  0  0  0  0  0  0  0  0  0  0  0
   47.7747    5.8242   23.8006 H   0  0  0  0  0  0  0  0  0  0  0  0
   49.7016    7.3589   23.4777 H   0  0  0  0  0  0  0  0  0  0  0  0
   48.5582    9.4379   18.1273 H   0  0  0  0  0  0  0  0  0  0  0  0
   47.1379    9.2875   17.1016 H   0  0  0  0  0  0  0  0  0  0  0  0
   49.9514    7.2721   15.5624 H   0  0  0  0  0  0  0  0  0  0  0  0
   48.5494    6.2107   15.3800 H   0  0  0  0  0  0  0  0  0  0  0  0
   48.7908   10.9671   16.2683 H   0  0  0  0  0  0  0  0  0  0  0  0
   50.0225    9.7055   16.1370 H   0  0  0  0  0  0  0  0  0  0  0  0
   48.6410    7.8086   13.5483 H   0  0  0  0  0  0  0  0  0  0  0  0
   47.1734    7.9900   14.4905 H   0  0  0  0  0  0  0  0  0  0  0  0
   46.5888    5.5153   17.2468 H   0  0  0  0  0  0  0  0  0  0  0  0
   50.3762    2.4160   18.1071 H   0  0  0  0  0  0  0  0  0  0  0  0
   49.5457   11.2488   13.9958 H   0  0  0  0  0  0  0  0  0  0  0  0
   50.2600    9.7059   13.5899 H   0  0  0  0  0  0  0  0  0  0  0  0
   46.9273   12.9050    9.1499 H   0  0  0  0  0  0  0  0  0  0  0  0
   48.3261    8.0326   21.5258 H   0  0  0  0  0  0  0  0  0  0  0  0
   51.7424    4.4445   21.6432 H   0  0  0  0  0  0  0  0  0  0  0  0
   47.0225   12.4645   11.2936 H   0  0  0  0  0  0  0  0  0  0  0  0
   47.7907   14.0428   11.0071 H   0  0  0  0  0  0  0  0  0  0  0  0
   47.5881   10.7122   12.4015 H   0  0  0  0  0  0  0  0  0  0  0  0
   48.4997    9.2924   11.8919 H   0  0  0  0  0  0  0  0  0  0  0  0
   50.0408   12.8929   10.8481 H   0  0  0  0  0  0  0  0  0  0  0  0
   49.3147   12.8051   12.4608 H   0  0  0  0  0  0  0  0  0  0  0  0
   46.3219    3.0829   16.8401 H   0  0  0  0  0  0  0  0  0  0  0  0
   48.2282    1.5440   17.2351 H   0  0  0  0  0  0  0  0  0  0  0  0
   50.7865    5.3052   23.7593 H   0  0  0  0  0  0  0  0  0  0  0  0
   49.0596    7.0903   23.7028 H   0  0  0  0  0  0  0  0  0  0  0  0
   47.4693    8.3652   16.2843 H   0  0  0  0  0  0  0  0  0  0  0  0
   50.4339    7.4356   16.2543 H   0  0  0  0  0  0  0  0  0  0  0  0
   47.9893    9.4267   13.0821 H   0  0  0  0  0  0  0  0  0  0  0  0
   49.9092    6.3664   19.4558 H   0  0  0  0  0  0  0  0  0  0  0  0
  2  1  2  0
  3  1  1  0
  4  6  1  0
  5  1  1  0
  6  3  2  0
  7  2  1  0
  8  7  2  0
  9 13  1  0
 10  5  1  0
 11  5  1  0
 12 10  1  0
 13 11  1  0
 14  3  1  0
 15  6  1  0
 16  9  1  0
 17 21  1  0
 18  7  1  0
 19  8  1  0
 20 22  1  0
 21 23  1  0
 22 16  1  0
 23 20  1  0
 24 14  2  0
 25 15  2  0
 26 19  2  0
 27 18  2  0
  9 12  1  0
  8  4  1  0
 24 25  1  0
 27 26  1  0
 29 28  2  0
 30 28  1  0
 31 33  1  0
 32 28  1  0
 33 30  2  0
 34 29  1  0
 35 34  2  0
 36 40  1  0
 37 32  1  0
 38 32  1  0
 39 37  1  0
 40 38  1  0
 41 30  1  0
 42 33  1  0
 43 36  1  0
 44 48  1  0
 45 34  1  0
 46 35  1  0
 47 49  1  0
 48 50  1  0
 49 43  1  0
 50 47  1  0
 51 41  2  0
 52 42  2  0
 53 46  2  0
 54 45  2  0
 36 39  1  0
 35 31  1  0
 51 52  1  0
 54 53  1  0
 56 58  1  0
 57 55  1  0
 58 57  2  0
 59 55  2  0
 60 56  2  0
 61 55  1  0
 62 56  1  0
 10 63  1  0
 10 64  1  0
 11 65  1  0
 11 66  1  0
 12 67  1  0
 12 68  1  0
 13 69  1  0
 13 70  1  0
 14 71  1  0
 15 72  1  0
 16 73  1  0
 16 74  1  0
 17 75  1  0
 18 76  1  0
 19 77  1  0
 21 78  1  0
 21 79  1  0
 22 80  1  0
 22 81  1  0
 23 82  1  0
 23 83  1  0
 24 84  1  0
 25 85  1  0
 26 86  1  0
 27 87  1  0
 37 88  1  0
 37 89  1  0
 38 90  1  0
 38 91  1  0
 39 92  1  0
 39 93  1  0
 40 94  1  0
 40 95  1  0
 41 96  1  0
 42 97  1  0
 43 98  1  0
 43 99  1  0
 44100  1  0
 45101  1  0
 46102  1  0
 48103  1  0
 48104  1  0
 49105  1  0
 49106  1  0
 50107  1  0
 50108  1  0
 51109  1  0
 52110  1  0
 53111  1  0
 54112  1  0
 57113  1  0
 58114  1  0
 61115  1  0
 62116  1  0
M  END
> <Uni-Dock RESULT> 
ENERGY=   -6.955  LOWER_BOUND=    0.000  UPPER_BOUND=    0.000
INTER + INTRA:          -6.955
INTER:                  -6.955
INTRA:                   0.000
UNBOUND:                 0.000

$$$$

     RDKit          3D

116121  0  0  0  0  0  0  0  0999 V2000
   50.1036    6.8059   16.4627 C   0  0  0  0  0  0  0  0  0  0  0  0
   51.4066    6.6911   16.5117 N   0  0  0  0  0  0  0  0  0  0  0  0
   49.1889    6.3203   17.5518 C   0  0  0  0  0  0  0  0  0  0  0  0
   50.6865    7.7815   19.4087 S   0  0  0  0  0  0  0  0  0  0  0  0
   49.5195    7.3903   15.3307 N   0  0  0  0  0  0  0  0  0  0  0  0
   49.3136    6.7743   18.8733 C   0  0  0  0  0  0  0  0  0  0  0  0
   52.1017    6.1523   17.6105 C   0  0  0  0  0  0  0  0  0  0  0  0
   51.9608    6.6089   18.9380 C   0  0  0  0  0  0  0  0  0  0  0  0
   48.2445    8.5571   12.9918 N   0  0  0  0  0  0  0  0  0  0  0  0
   50.3620    7.7348   14.1752 C   0  0  0  0  0  0  0  0  0  0  0  0
   48.2567    8.1587   15.4326 C   0  0  0  0  0  0  0  0  0  0  0  0
   49.5427    7.8730   12.8667 C   0  0  0  0  0  0  0  0  0  0  0  0
   48.0899    9.1972   14.3019 C   0  0  0  0  0  0  0  0  0  0  0  0
   48.1613    5.4337   17.1956 C   0  0  0  0  0  0  0  0  0  0  0  0
   48.3698    6.3636   19.8212 C   0  0  0  0  0  0  0  0  0  0  0  0
   47.8725    9.4006   11.8508 C   0  0  0  0  0  0  0  0  0  0  0  0
   48.2768   15.0969   11.1828 O   0  0  0  0  0  0  0  0  0  0  0  0
   53.0651    5.1724   17.3367 C   0  0  0  0  0  0  0  0  0  0  0  0
   52.7850    6.0868   19.9481 C   0  0  0  0  0  0  0  0  0  0  0  0
   48.1081   11.7082   12.6141 O   0  0  0  0  0  0  0  0  0  0  0  0
   47.7357   13.8063   11.4375 C   0  0  0  0  0  0  0  0  0  0  0  0
   48.6054   10.7464   11.6782 C   0  0  0  0  0  0  0  0  0  0  0  0
   48.6320   13.0182   12.3897 C   0  0  0  0  0  0  0  0  0  0  0  0
   47.2347    5.0249   18.1550 C   0  0  0  0  0  0  0  0  0  0  0  0
   47.3320    5.5011   19.4618 C   0  0  0  0  0  0  0  0  0  0  0  0
   53.7309    5.1047   19.6552 C   0  0  0  0  0  0  0  0  0  0  0  0
   53.8679    4.6405   18.3497 C   0  0  0  0  0  0  0  0  0  0  0  0
   50.2805    7.0787   16.9044 C   0  0  0  0  0  0  0  0  0  0  0  0
   51.3874    6.4261   16.6785 N   0  0  0  0  0  0  0  0  0  0  0  0
   49.3206    6.7220   18.0032 C   0  0  0  0  0  0  0  0  0  0  0  0
   49.3182    4.0626   17.1203 S   0  0  0  0  0  0  0  0  0  0  0  0
   49.9641    8.1868   16.1014 N   0  0  0  0  0  0  0  0  0  0  0  0
   48.7775    5.4348   18.1239 C   0  0  0  0  0  0  0  0  0  0  0  0
   51.8173    5.2921   17.3895 C   0  0  0  0  0  0  0  0  0  0  0  0
   51.0470    4.1315   17.5833 C   0  0  0  0  0  0  0  0  0  0  0  0
   49.3619    9.9699   13.7623 N   0  0  0  0  0  0  0  0  0  0  0  0
   51.0045    8.7747   15.2284 C   0  0  0  0  0  0  0  0  0  0  0  0
   48.5833    8.3620   15.6018 C   0  0  0  0  0  0  0  0  0  0  0  0
   50.4871    9.0150   13.7961 C   0  0  0  0  0  0  0  0  0  0  0  0
   48.4004    9.6981   14.8484 C   0  0  0  0  0  0  0  0  0  0  0  0
   48.9111    7.7460   18.8768 C   0  0  0  0  0  0  0  0  0  0  0  0
   47.8025    5.1959   19.1044 C   0  0  0  0  0  0  0  0  0  0  0  0
   48.7465   10.0220   12.4296 C   0  0  0  0  0  0  0  0  0  0  0  0
   47.2316   14.1590    9.7733 O   0  0  0  0  0  0  0  0  0  0  0  0
   53.1563    5.2833   17.8169 C   0  0  0  0  0  0  0  0  0  0  0  0
   51.6125    3.0039   18.1966 C   0  0  0  0  0  0  0  0  0  0  0  0
   47.4028   11.3886   10.8834 O   0  0  0  0  0  0  0  0  0  0  0  0
   48.4539   13.5122   10.1320 C   0  0  0  0  0  0  0  0  0  0  0  0
   47.8718   11.2723   12.2282 C   0  0  0  0  0  0  0  0  0  0  0  0
   48.3286   11.9931    9.9718 C   0  0  0  0  0  0  0  0  0  0  0  0
   47.9500    7.4921   19.8553 C   0  0  0  0  0  0  0  0  0  0  0  0
   47.3898    6.2199   19.9650 C   0  0  0  0  0  0  0  0  0  0  0  0
   52.9440    3.0189   18.6217 C   0  0  0  0  0  0  0  0  0  0  0  0
   53.7146    4.1624   18.4390 C   0  0  0  0  0  0  0  0  0  0  0  0
   48.5958    9.4394   14.2160 C   0  0  0  0  0  0  0  0  0  0  0  0
   50.3547    6.9478   16.4176 C   0  0  0  0  0  0  0  0  0  0  0  0
   49.4620    8.8590   15.2420 C   0  0  0  0  0  0  0  0  0  0  0  0
   49.4731    7.5307   15.4067 C   0  0  0  0  0  0  0  0  0  0  0  0
   47.8751    8.8473   13.4353 O   0  0  0  0  0  0  0  0  0  0  0  0
   51.1329    7.5348   17.1448 O   0  0  0  0  0  0  0  0  0  0  0  0
   48.6984   10.7763   14.2254 O   0  0  0  0  0  0  0  0  0  0  0  0
   50.2065    5.6150   16.4493 O   0  0  0  0  0  0  0  0  0  0  0  0
   51.1239    6.9661   14.0071 H   0  0  0  0  0  0  0  0  0  0  0  0
   50.8819    8.6768   14.3865 H   0  0  0  0  0  0  0  0  0  0  0  0
   48.2068    8.6896   16.3926 H   0  0  0  0  0  0  0  0  0  0  0  0
   47.4216    7.4523   15.3860 H   0  0  0  0  0  0  0  0  0  0  0  0
   50.1850    8.3642   12.1267 H   0  0  0  0  0  0  0  0  0  0  0  0
   49.3387    6.8692   12.4767 H   0  0  0  0  0  0  0  0  0  0  0  0
   47.0905    9.6407   14.3935 H   0  0  0  0  0  0  0  0  0  0  0  0
   48.8226   10.0063   14.4392 H   0  0  0  0  0  0  0  0  0  0  0  0
   48.0786    5.0768   16.1708 H   0  0  0  0  0  0  0  0  0  0  0  0
   48.4443    6.7043   20.8514 H   0  0  0  0  0  0  0  0  0  0  0  0
   46.7987    9.6048   11.9305 H   0  0  0  0  0  0  0  0  0  0  0  0
   48.0024    8.8090   10.9361 H   0  0  0  0  0  0  0  0  0  0  0  0
   49.0449   14.9858   10.5986 H   0  0  0  0  0  0  0  0  0  0  0  0
   53.1835    4.8284   16.3117 H   0  0  0  0  0  0  0  0  0  0  0  0
   52.6810    6.4354   20.9748 H   0  0  0  0  0  0  0  0  0  0  0  0
   46.7409   13.9264   11.8729 H   0  0  0  0  0  0  0  0  0  0  0  0
   47.6042   13.2848   10.4827 H   0  0  0  0  0  0  0  0  0  0  0  0
   48.4283   11.1081   10.6564 H   0  0  0  0  0  0  0  0  0  0  0  0
   49.6855   10.6221   11.8178 H   0  0  0  0  0  0  0  0  0  0  0  0
   48.6657   13.5323   13.3571 H   0  0  0  0  0  0  0  0  0  0  0  0
   49.6674   12.9790   12.0285 H   0  0  0  0  0  0  0  0  0  0  0  0
   46.4328    4.3473   17.8756 H   0  0  0  0  0  0  0  0  0  0  0  0
   46.6087    5.1870   20.2097 H   0  0  0  0  0  0  0  0  0  0  0  0
   54.3606    4.7000   20.4472 H   0  0  0  0  0  0  0  0  0  0  0  0
   54.5994    3.8745   18.1160 H   0  0  0  0  0  0  0  0  0  0  0  0
   51.9037    8.1480   15.1618 H   0  0  0  0  0  0  0  0  0  0  0  0
   51.3217    9.7262   15.6743 H   0  0  0  0  0  0  0  0  0  0  0  0
   48.3304    7.5229   14.9362 H   0  0  0  0  0  0  0  0  0  0  0  0
   47.8643    8.3477   16.4287 H   0  0  0  0  0  0  0  0  0  0  0  0
   51.3073    9.4203   13.1936 H   0  0  0  0  0  0  0  0  0  0  0  0
   50.1967    8.0544   13.3578 H   0  0  0  0  0  0  0  0  0  0  0  0
   47.3598    9.7434   14.5014 H   0  0  0  0  0  0  0  0  0  0  0  0
   48.5160   10.5135   15.5712 H   0  0  0  0  0  0  0  0  0  0  0  0
   49.3297    8.7436   18.7757 H   0  0  0  0  0  0  0  0  0  0  0  0
   47.3589    4.2030   19.2107 H   0  0  0  0  0  0  0  0  0  0  0  0
   49.5413   10.0341   11.6711 H   0  0  0  0  0  0  0  0  0  0  0  0
   48.1624    9.1136   12.2249 H   0  0  0  0  0  0  0  0  0  0  0  0
   47.3065   15.0821   10.0572 H   0  0  0  0  0  0  0  0  0  0  0  0
   53.7720    6.1653   17.6431 H   0  0  0  0  0  0  0  0  0  0  0  0
   51.0144    2.1092   18.3518 H   0  0  0  0  0  0  0  0  0  0  0  0
   48.6958   13.7987   11.1623 H   0  0  0  0  0  0  0  0  0  0  0  0
   49.2378   13.8923    9.4709 H   0  0  0  0  0  0  0  0  0  0  0  0
   48.4043   12.1800   12.5453 H   0  0  0  0  0  0  0  0  0  0  0  0
   46.9747   11.1975   12.8574 H   0  0  0  0  0  0  0  0  0  0  0  0
   47.9525   11.7702    8.9659 H   0  0  0  0  0  0  0  0  0  0  0  0
   49.3128   11.5260   10.0730 H   0  0  0  0  0  0  0  0  0  0  0  0
   47.6368    8.2858   20.5301 H   0  0  0  0  0  0  0  0  0  0  0  0
   46.6276    6.0266   20.7189 H   0  0  0  0  0  0  0  0  0  0  0  0
   53.3751    2.1400   19.0992 H   0  0  0  0  0  0  0  0  0  0  0  0
   54.7543    4.1788   18.7629 H   0  0  0  0  0  0  0  0  0  0  0  0
   50.0704    9.5335   15.8344 H   0  0  0  0  0  0  0  0  0  0  0  0
   48.8619    6.8587   14.8152 H   0  0  0  0  0  0  0  0  0  0  0  0
   48.0905   11.0682   13.5159 H   0  0  0  0  0  0  0  0  0  0  0  0
   50.8377    5.3252   17.1417 H   0  0  0  0  0  0  0  0  0  0  0  0
  2  1  2  0
  3  1  1  0
  4  6  1  0
  5  1  1  0
  6  3  2  0
  7  2  1  0
  8  7  2  0
  9 13  1  0
 10  5  1  0
 11  5  1  0
 12 10  1  0
 13 11  1  0
 14  3  1  0
 15  6  1  0
 16  9  1  0
 17 21  1  0
 18  7  1  0
 19  8  1  0
 20 22  1  0
 21 23  1  0
 22 16  1  0
 23 20  1  0
 24 14  2  0
 25 15  2  0
 26 19  2  0
 27 18  2  0
  9 12  1  0
  8  4  1  0
 24 25  1  0
 27 26  1  0
 29 28  2  0
 30 28  1  0
 31 33  1  0
 32 28  1  0
 33 30  2  0
 34 29  1  0
 35 34  2  0
 36 40  1  0
 37 32  1  0
 38 32  1  0
 39 37  1  0
 40 38  1  0
 41 30  1  0
 42 33  1  0
 43 36  1  0
 44 48  1  0
 45 34  1  0
 46 35  1  0
 47 49  1  0
 48 50  1  0
 49 43  1  0
 50 47  1  0
 51 41  2  0
 52 42  2  0
 53 46  2  0
 54 45  2  0
 36 39  1  0
 35 31  1  0
 51 52  1  0
 54 53  1  0
 56 58  1  0
 57 55  1  0
 58 57  2  0
 59 55  2  0
 60 56  2  0
 61 55  1  0
 62 56  1  0
 10 63  1  0
 10 64  1  0
 11 65  1  0
 11 66  1  0
 12 67  1  0
 12 68  1  0
 13 69  1  0
 13 70  1  0
 14 71  1  0
 15 72  1  0
 16 73  1  0
 16 74  1  0
 17 75  1  0
 18 76  1  0
 19 77  1  0
 21 78  1  0
 21 79  1  0
 22 80  1  0
 22 81  1  0
 23 82  1  0
 23 83  1  0
 24 84  1  0
 25 85  1  0
 26 86  1  0
 27 87  1  0
 37 88  1  0
 37 89  1  0
 38 90  1  0
 38 91  1  0
 39 92  1  0
 39 93  1  0
 40 94  1  0
 40 95  1  0
 41 96  1  0
 42 97  1  0
 43 98  1  0
 43 99  1  0
 44100  1  0
 45101  1  0
 46102  1  0
 48103  1  0
 48104  1  0
 49105  1  0
 49106  1  0
 50107  1  0
 50108  1  0
 51109  1  0
 52110  1  0
 53111  1  0
 54112  1  0
 57113  1  0
 58114  1  0
 61115  1  0
 62116  1  0
M  END
> <Uni-Dock RESULT> 
ENERGY=   -6.028  LOWER_BOUND=    1.797  UPPER_BOUND=    3.300
INTER + INTRA:          -6.028
INTER:                  -6.028
INTRA:                   0.000
UNBOUND:                 0.000

$$$$

     RDKit          3D

116121  0  0  0  0  0  0  0  0999 V2000
   50.1039    6.8067   16.4627 C   0  0  0  0  0  0  0  0  0  0  0  0
   51.4068    6.6919   16.5116 N   0  0  0  0  0  0  0  0  0  0  0  0
   49.1892    6.3212   17.5519 C   0  0  0  0  0  0  0  0  0  0  0  0
   50.6869    7.7826   19.4086 S   0  0  0  0  0  0  0  0  0  0  0  0
   49.5197    7.3910   15.3306 N   0  0  0  0  0  0  0  0  0  0  0  0
   49.3140    6.7752   18.8734 C   0  0  0  0  0  0  0  0  0  0  0  0
   52.1019    6.1532   17.6104 C   0  0  0  0  0  0  0  0  0  0  0  0
   51.9612    6.6099   18.9379 C   0  0  0  0  0  0  0  0  0  0  0  0
   48.2445    8.5576   12.9918 N   0  0  0  0  0  0  0  0  0  0  0  0
   50.3620    7.7354   14.1751 C   0  0  0  0  0  0  0  0  0  0  0  0
   48.2568    8.1594   15.4326 C   0  0  0  0  0  0  0  0  0  0  0  0
   49.5427    7.8735   12.8666 C   0  0  0  0  0  0  0  0  0  0  0  0
   48.0900    9.1978   14.3018 C   0  0  0  0  0  0  0  0  0  0  0  0
   48.1616    5.4346   17.1958 C   0  0  0  0  0  0  0  0  0  0  0  0
   48.3703    6.3647   19.8213 C   0  0  0  0  0  0  0  0  0  0  0  0
   47.8724    9.4011   11.8507 C   0  0  0  0  0  0  0  0  0  0  0  0
   48.2767   15.0973   11.1822 O   0  0  0  0  0  0  0  0  0  0  0  0
   53.0653    5.1732   17.3366 C   0  0  0  0  0  0  0  0  0  0  0  0
   52.7854    6.0878   19.9479 C   0  0  0  0  0  0  0  0  0  0  0  0
   48.1080   11.7087   12.6138 O   0  0  0  0  0  0  0  0  0  0  0  0
   47.7356   13.8067   11.4371 C   0  0  0  0  0  0  0  0  0  0  0  0
   48.6053   10.7468   11.6780 C   0  0  0  0  0  0  0  0  0  0  0  0
   48.6320   13.0187   12.3893 C   0  0  0  0  0  0  0  0  0  0  0  0
   47.2351    5.0259   18.1554 C   0  0  0  0  0  0  0  0  0  0  0  0
   47.3324    5.5022   19.4621 C   0  0  0  0  0  0  0  0  0  0  0  0
   53.7313    5.1057   19.6550 C   0  0  0  0  0  0  0  0  0  0  0  0
   53.8682    4.6415   18.3496 C   0  0  0  0  0  0  0  0  0  0  0  0
   50.2807    7.0795   16.9043 C   0  0  0  0  0  0  0  0  0  0  0  0
   51.3876    6.4270   16.6784 N   0  0  0  0  0  0  0  0  0  0  0  0
   49.3210    6.7229   18.0032 C   0  0  0  0  0  0  0  0  0  0  0  0
   49.3185    4.0634   17.1206 S   0  0  0  0  0  0  0  0  0  0  0  0
   49.9642    8.1875   16.1012 N   0  0  0  0  0  0  0  0  0  0  0  0
   48.7778    5.4358   18.1241 C   0  0  0  0  0  0  0  0  0  0  0  0
   51.8176    5.2930   17.3894 C   0  0  0  0  0  0  0  0  0  0  0  0
   51.0473    4.1324   17.5834 C   0  0  0  0  0  0  0  0  0  0  0  0
   49.3619    9.9705   13.7621 N   0  0  0  0  0  0  0  0  0  0  0  0
   51.0046    8.7754   15.2282 C   0  0  0  0  0  0  0  0  0  0  0  0
   48.5835    8.3627   15.6017 C   0  0  0  0  0  0  0  0  0  0  0  0
   50.4871    9.0156   13.7959 C   0  0  0  0  0  0  0  0  0  0  0  0
   48.4005    9.6988   14.8483 C   0  0  0  0  0  0  0  0  0  0  0  0
   48.9115    7.7470   18.8768 C   0  0  0  0  0  0  0  0  0  0  0  0
   47.8029    5.1969   19.1046 C   0  0  0  0  0  0  0  0  0  0  0  0
   48.7464   10.0225   12.4294 C   0  0  0  0  0  0  0  0  0  0  0  0
   47.2313   14.1593    9.7729 O   0  0  0  0  0  0  0  0  0  0  0  0
   53.1566    5.2842   17.8168 C   0  0  0  0  0  0  0  0  0  0  0  0
   51.6129    3.0048   18.1968 C   0  0  0  0  0  0  0  0  0  0  0  0
   47.4026   11.3890   10.8832 O   0  0  0  0  0  0  0  0  0  0  0  0
   48.4537   13.5125   10.1316 C   0  0  0  0  0  0  0  0  0  0  0  0
   47.8717   11.2727   12.2280 C   0  0  0  0  0  0  0  0  0  0  0  0
   48.3283   11.9934    9.9715 C   0  0  0  0  0  0  0  0  0  0  0  0
   47.9505    7.4931   19.8554 C   0  0  0  0  0  0  0  0  0  0  0  0
   47.3902    6.2210   19.9652 C   0  0  0  0  0  0  0  0  0  0  0  0
   52.9444    3.0199   18.6218 C   0  0  0  0  0  0  0  0  0  0  0  0
   53.7150    4.1634   18.4389 C   0  0  0  0  0  0  0  0  0  0  0  0
   48.5958    9.4400   14.2158 C   0  0  0  0  0  0  0  0  0  0  0  0
   50.3549    6.9486   16.4176 C   0  0  0  0  0  0  0  0  0  0  0  0
   49.4621    8.8598   15.2418 C   0  0  0  0  0  0  0  0  0  0  0  0
   49.4732    7.5314   15.4066 C   0  0  0  0  0  0  0  0  0  0  0  0
   47.8751    8.8479   13.4353 O   0  0  0  0  0  0  0  0  0  0  0  0
   51.1332    7.5356   17.1446 O   0  0  0  0  0  0  0  0  0  0  0  0
   48.6984   10.7770   14.2252 O   0  0  0  0  0  0  0  0  0  0  0  0
   50.2067    5.6158   16.4494 O   0  0  0  0  0  0  0  0  0  0  0  0
   51.1239    6.9667   14.0069 H   0  0  0  0  0  0  0  0  0  0  0  0
   50.8819    8.6775   14.3863 H   0  0  0  0  0  0  0  0  0  0  0  0
   48.2070    8.6904   16.3926 H   0  0  0  0  0  0  0  0  0  0  0  0
   47.4217    7.4531   15.3861 H   0  0  0  0  0  0  0  0  0  0  0  0
   50.1849    8.3647   12.1266 H   0  0  0  0  0  0  0  0  0  0  0  0
   49.3386    6.8697   12.4767 H   0  0  0  0  0  0  0  0  0  0  0  0
   47.0906    9.6414   14.3934 H   0  0  0  0  0  0  0  0  0  0  0  0
   48.8227   10.0069   14.4390 H   0  0  0  0  0  0  0  0  0  0  0  0
   48.0788    5.0776   16.1710 H   0  0  0  0  0  0  0  0  0  0  0  0
   48.4448    6.7054   20.8515 H   0  0  0  0  0  0  0  0  0  0  0  0
   46.7986    9.6053   11.9304 H   0  0  0  0  0  0  0  0  0  0  0  0
   48.0022    8.8094   10.9361 H   0  0  0  0  0  0  0  0  0  0  0  0
   49.0446   14.9862   10.5980 H   0  0  0  0  0  0  0  0  0  0  0  0
   53.1837    4.8292   16.3116 H   0  0  0  0  0  0  0  0  0  0  0  0
   52.6815    6.4366   20.9746 H   0  0  0  0  0  0  0  0  0  0  0  0
   46.7407   13.9269   11.8726 H   0  0  0  0  0  0  0  0  0  0  0  0
   47.6039   13.2852   10.4824 H   0  0  0  0  0  0  0  0  0  0  0  0
   48.4281   11.1085   10.6562 H   0  0  0  0  0  0  0  0  0  0  0  0
   49.6853   10.6226   11.8176 H   0  0  0  0  0  0  0  0  0  0  0  0
   48.6657   13.5328   13.3567 H   0  0  0  0  0  0  0  0  0  0  0  0
   49.6673   12.9795   12.0280 H   0  0  0  0  0  0  0  0  0  0  0  0
   46.4331    4.3482   17.8760 H   0  0  0  0  0  0  0  0  0  0  0  0
   46.6092    5.1881   20.2100 H   0  0  0  0  0  0  0  0  0  0  0  0
   54.3611    4.7011   20.4470 H   0  0  0  0  0  0  0  0  0  0  0  0
   54.5997    3.8755   18.1159 H   0  0  0  0  0  0  0  0  0  0  0  0
   51.9039    8.1487   15.1616 H   0  0  0  0  0  0  0  0  0  0  0  0
   51.3219    9.7269   15.6739 H   0  0  0  0  0  0  0  0  0  0  0  0
   48.3305    7.5236   14.9362 H   0  0  0  0  0  0  0  0  0  0  0  0
   47.8645    8.3485   16.4288 H   0  0  0  0  0  0  0  0  0  0  0  0
   51.3073    9.4208   13.1933 H   0  0  0  0  0  0  0  0  0  0  0  0
   50.1967    8.0550   13.3577 H   0  0  0  0  0  0  0  0  0  0  0  0
   47.3599    9.7440   14.5013 H   0  0  0  0  0  0  0  0  0  0  0  0
   48.5162   10.5143   15.5710 H   0  0  0  0  0  0  0  0  0  0  0  0
   49.3301    8.7446   18.7756 H   0  0  0  0  0  0  0  0  0  0  0  0
   47.3593    4.2040   19.2111 H   0  0  0  0  0  0  0  0  0  0  0  0
   49.5412   10.0346   11.6709 H   0  0  0  0  0  0  0  0  0  0  0  0
   48.1623    9.1141   12.2248 H   0  0  0  0  0  0  0  0  0  0  0  0
   47.3063   15.0825   10.0568 H   0  0  0  0  0  0  0  0  0  0  0  0
   53.7723    6.1662   17.6429 H   0  0  0  0  0  0  0  0  0  0  0  0
   51.0147    2.1101   18.3520 H   0  0  0  0  0  0  0  0  0  0  0  0
   48.6957   13.7991   11.1619 H   0  0  0  0  0  0  0  0  0  0  0  0
   49.2375   13.8925    9.4704 H   0  0  0  0  0  0  0  0  0  0  0  0
   48.4042   12.1805   12.5450 H   0  0  0  0  0  0  0  0  0  0  0  0
   46.9747   11.1980   12.8572 H   0  0  0  0  0  0  0  0  0  0  0  0
   47.9522   11.7704    8.9656 H   0  0  0  0  0  0  0  0  0  0  0  0
   49.3126   11.5263   10.0727 H   0  0  0  0  0  0  0  0  0  0  0  0
   47.6373    8.2870   20.5301 H   0  0  0  0  0  0  0  0  0  0  0  0
   46.6281    6.0277   20.7192 H   0  0  0  0  0  0  0  0  0  0  0  0
   53.3755    2.1410   19.0993 H   0  0  0  0  0  0  0  0  0  0  0  0
   54.7547    4.1797   18.7628 H   0  0  0  0  0  0  0  0  0  0  0  0
   50.0706    9.5342   15.8341 H   0  0  0  0  0  0  0  0  0  0  0  0
   48.8620    6.8594   14.8153 H   0  0  0  0  0  0  0  0  0  0  0  0
   48.0905   11.0688   13.5157 H   0  0  0  0  0  0  0  0  0  0  0  0
   50.8380    5.3260   17.1417 H   0  0  0  0  0  0  0  0  0  0  0  0
  2  1  2  0
  3  1  1  0
  4  6  1  0
  5  1  1  0
  6  3  2  0
  7  2  1  0
  8  7  2  0
  9 13  1  0
 10  5  1  0
 11  5  1  0
 12 10  1  0
 13 11  1  0
 14  3  1  0
 15  6  1  0
 16  9  1  0
 17 21  1  0
 18  7  1  0
 19  8  1  0
 20 22  1  0
 21 23  1  0
 22 16  1  0
 23 20  1  0
 24 14  2  0
 25 15  2  0
 26 19  2  0
 27 18  2  0
  9 12  1  0
  8  4  1  0
 24 25  1  0
 27 26  1  0
 29 28  2  0
 30 28  1  0
 31 33  1  0
 32 28  1  0
 33 30  2  0
 34 29  1  0
 35 34  2  0
 36 40  1  0
 37 32  1  0
 38 32  1  0
 39 37  1  0
 40 38  1  0
 41 30  1  0
 42 33  1  0
 43 36  1  0
 44 48  1  0
 45 34  1  0
 46 35  1  0
 47 49  1  0
 48 50  1  0
 49 43  1  0
 50 47  1  0
 51 41  2  0
 52 42  2  0
 53 46  2  0
 54 45  2  0
 36 39  1  0
 35 31  1  0
 51 52  1  0
 54 53  1  0
 56 58  1  0
 57 55  1  0
 58 57  2  0
 59 55  2  0
 60 56  2  0
 61 55  1  0
 62 56  1  0
 10 63  1  0
 10 64  1  0
 11 65  1  0
 11 66  1  0
 12 67  1  0
 12 68  1  0
 13 69  1  0
 13 70  1  0
 14 71  1  0
 15 72  1  0
 16 73  1  0
 16 74  1  0
 17 75  1  0
 18 76  1  0
 19 77  1  0
 21 78  1  0
 21 79  1  0
 22 80  1  0
 22 81  1  0
 23 82  1  0
 23 83  1  0
 24 84  1  0
 25 85  1  0
 26 86  1  0
 27 87  1  0
 37 88  1  0
 37 89  1  0
 38 90  1  0
 38 91  1  0
 39 92  1  0
 39 93  1  0
 40 94  1  0
 40 95  1  0
 41 96  1  0
 42 97  1  0
 43 98  1  0
 43 99  1  0
 44100  1  0
 45101  1  0
 46102  1  0
 48103  1  0
 48104  1  0
 49105  1  0
 49106  1  0
 50107  1  0
 50108  1  0
 51109  1  0
 52110  1  0
 53111  1  0
 54112  1  0
 57113  1  0
 58114  1  0
 61115  1  0
 62116  1  0
M  END
> <Uni-Dock RESULT> 
ENERGY=   -6.026  LOWER_BOUND=    1.797  UPPER_BOUND=    3.300
INTER + INTRA:          -6.026
INTER:                  -6.026
INTRA:                   0.000
UNBOUND:                 0.000

$$$$

     RDKit          3D

116121  0  0  0  0  0  0  0  0999 V2000
   51.2739    9.1920   14.0246 C   0  0  0  0  0  0  0  0  0  0  0  0
   51.4722    9.2166   15.3182 N   0  0  0  0  0  0  0  0  0  0  0  0
   52.3517    9.4770   13.0168 C   0  0  0  0  0  0  0  0  0  0  0  0
   53.9647    7.5558   14.2551 S   0  0  0  0  0  0  0  0  0  0  0  0
   49.9883    8.9079   13.5440 N   0  0  0  0  0  0  0  0  0  0  0  0
   53.5420    8.7352   12.9838 C   0  0  0  0  0  0  0  0  0  0  0  0
   52.7259    9.4571   15.9108 C   0  0  0  0  0  0  0  0  0  0  0  0
   53.8959    8.7269   15.6132 C   0  0  0  0  0  0  0  0  0  0  0  0
   47.3350    8.3646   12.4849 N   0  0  0  0  0  0  0  0  0  0  0  0
   48.8711    8.7791   14.4920 C   0  0  0  0  0  0  0  0  0  0  0  0
   49.7922    8.2113   12.2510 C   0  0  0  0  0  0  0  0  0  0  0  0
   47.4929    8.9822   13.8125 C   0  0  0  0  0  0  0  0  0  0  0  0
   48.4452    7.4605   12.1690 C   0  0  0  0  0  0  0  0  0  0  0  0
   52.1085   10.4790   12.0651 C   0  0  0  0  0  0  0  0  0  0  0  0
   54.4632    8.9803   11.9596 C   0  0  0  0  0  0  0  0  0  0  0  0
   46.0024    7.8179   12.2069 C   0  0  0  0  0  0  0  0  0  0  0  0
   44.1049    2.3972   12.4776 O   0  0  0  0  0  0  0  0  0  0  0  0
   52.7746   10.4152   16.9321 C   0  0  0  0  0  0  0  0  0  0  0  0
   55.0721    8.9633   16.3431 C   0  0  0  0  0  0  0  0  0  0  0  0
   46.2428    5.3888   12.2777 O   0  0  0  0  0  0  0  0  0  0  0  0
   44.5919    3.6288   11.9586 C   0  0  0  0  0  0  0  0  0  0  0  0
   45.6009    6.5032   12.9058 C   0  0  0  0  0  0  0  0  0  0  0  0
   45.7792    4.1327   12.7758 C   0  0  0  0  0  0  0  0  0  0  0  0
   53.0422   10.7188   11.0567 C   0  0  0  0  0  0  0  0  0  0  0  0
   54.2105    9.9602   10.9972 C   0  0  0  0  0  0  0  0  0  0  0  0
   55.1011    9.9288   17.3491 C   0  0  0  0  0  0  0  0  0  0  0  0
   53.9538   10.6617   17.6407 C   0  0  0  0  0  0  0  0  0  0  0  0
   51.6573    8.8182   14.1435 C   0  0  0  0  0  0  0  0  0  0  0  0
   51.6920    9.4387   15.2907 N   0  0  0  0  0  0  0  0  0  0  0  0
   52.7111    8.9783   13.0853 C   0  0  0  0  0  0  0  0  0  0  0  0
   52.4567   11.7627   13.2714 S   0  0  0  0  0  0  0  0  0  0  0  0
   50.5978    7.9360   13.8754 N   0  0  0  0  0  0  0  0  0  0  0  0
   53.0672   10.2364   12.5784 C   0  0  0  0  0  0  0  0  0  0  0  0
   52.6790   10.3600   15.6824 C   0  0  0  0  0  0  0  0  0  0  0  0
   53.0556   11.4919   14.9375 C   0  0  0  0  0  0  0  0  0  0  0  0
   47.8693    6.7534   13.4629 N   0  0  0  0  0  0  0  0  0  0  0  0
   49.7183    7.4960   14.9813 C   0  0  0  0  0  0  0  0  0  0  0  0
   49.9415    7.9568   12.5504 C   0  0  0  0  0  0  0  0  0  0  0  0
   48.2260    7.6095   14.6113 C   0  0  0  0  0  0  0  0  0  0  0  0
   48.8914    6.8337   12.4014 C   0  0  0  0  0  0  0  0  0  0  0  0
   53.2869    7.8121   12.5489 C   0  0  0  0  0  0  0  0  0  0  0  0
   53.9782   10.3089   11.5137 C   0  0  0  0  0  0  0  0  0  0  0  0
   46.5067    7.0337   12.9916 C   0  0  0  0  0  0  0  0  0  0  0  0
   42.8505    3.6834   11.6225 O   0  0  0  0  0  0  0  0  0  0  0  0
   53.2237   10.1956   16.9677 C   0  0  0  0  0  0  0  0  0  0  0  0
   53.9595   12.4207   15.4741 C   0  0  0  0  0  0  0  0  0  0  0  0
   44.5699    6.1244   11.7727 O   0  0  0  0  0  0  0  0  0  0  0  0
   43.4618    4.1621   12.8218 C   0  0  0  0  0  0  0  0  0  0  0  0
   45.9447    5.9125   12.0995 C   0  0  0  0  0  0  0  0  0  0  0  0
   43.6382    5.6837   12.7683 C   0  0  0  0  0  0  0  0  0  0  0  0
   54.2007    7.8989   11.4987 C   0  0  0  0  0  0  0  0  0  0  0  0
   54.5412    9.1457   10.9754 C   0  0  0  0  0  0  0  0  0  0  0  0
   54.4958   12.2340   16.7513 C   0  0  0  0  0  0  0  0  0  0  0  0
   54.1338   11.1163   17.4959 C   0  0  0  0  0  0  0  0  0  0  0  0
   48.3556    7.2142   12.6722 C   0  0  0  0  0  0  0  0  0  0  0  0
   51.2222    9.0491   14.2738 C   0  0  0  0  0  0  0  0  0  0  0  0
   49.5645    7.5012   13.4442 C   0  0  0  0  0  0  0  0  0  0  0  0
   50.0258    8.7571   13.4848 C   0  0  0  0  0  0  0  0  0  0  0  0
   47.6638    8.0055   12.0602 O   0  0  0  0  0  0  0  0  0  0  0  0
   51.8688    8.2712   14.9488 O   0  0  0  0  0  0  0  0  0  0  0  0
   48.0722    5.9046   12.7257 O   0  0  0  0  0  0  0  0  0  0  0  0
   51.5402   10.3482   14.1705 O   0  0  0  0  0  0  0  0  0  0  0  0
   48.9551    9.5200   15.2944 H   0  0  0  0  0  0  0  0  0  0  0  0
   48.9126    7.7849   14.9527 H   0  0  0  0  0  0  0  0  0  0  0  0
   50.5979    7.4848   12.0804 H   0  0  0  0  0  0  0  0  0  0  0  0
   49.8267    8.9580   11.4513 H   0  0  0  0  0  0  0  0  0  0  0  0
   46.7261    8.6303   14.5121 H   0  0  0  0  0  0  0  0  0  0  0  0
   47.3224   10.0576   13.6870 H   0  0  0  0  0  0  0  0  0  0  0  0
   48.3378    7.0669   11.1504 H   0  0  0  0  0  0  0  0  0  0  0  0
   48.4655    6.5996   12.8537 H   0  0  0  0  0  0  0  0  0  0  0  0
   51.1879   11.0582   12.1048 H   0  0  0  0  0  0  0  0  0  0  0  0
   55.3919    8.4162   11.9117 H   0  0  0  0  0  0  0  0  0  0  0  0
   45.9305    7.6643   11.1242 H   0  0  0  0  0  0  0  0  0  0  0  0
   45.2621    8.5887   12.4544 H   0  0  0  0  0  0  0  0  0  0  0  0
   43.6373    2.5897   13.3070 H   0  0  0  0  0  0  0  0  0  0  0  0
   51.8701   10.9701   17.1713 H   0  0  0  0  0  0  0  0  0  0  0  0
   55.9785    8.4027   16.1180 H   0  0  0  0  0  0  0  0  0  0  0  0
   44.8914    3.4737   10.9194 H   0  0  0  0  0  0  0  0  0  0  0  0
   43.7718    4.3555   11.9481 H   0  0  0  0  0  0  0  0  0  0  0  0
   44.5116    6.3877   12.8258 H   0  0  0  0  0  0  0  0  0  0  0  0
   45.8679    6.5300   13.9685 H   0  0  0  0  0  0  0  0  0  0  0  0
   46.6038    3.4161   12.6879 H   0  0  0  0  0  0  0  0  0  0  0  0
   45.5371    4.1902   13.8444 H   0  0  0  0  0  0  0  0  0  0  0  0
   52.8478   11.4872   10.3136 H   0  0  0  0  0  0  0  0  0  0  0  0
   54.9372   10.1427   10.2099 H   0  0  0  0  0  0  0  0  0  0  0  0
   56.0207   10.1105   17.9047 H   0  0  0  0  0  0  0  0  0  0  0  0
   53.9707   11.4162   18.4197 H   0  0  0  0  0  0  0  0  0  0  0  0
   49.8818    8.0682   15.9043 H   0  0  0  0  0  0  0  0  0  0  0  0
   49.9657    6.4526   15.2153 H   0  0  0  0  0  0  0  0  0  0  0  0
   49.4619    8.9358   12.3997 H   0  0  0  0  0  0  0  0  0  0  0  0
   50.6774    7.8296   11.7482 H   0  0  0  0  0  0  0  0  0  0  0  0
   47.6289    7.3004   15.4762 H   0  0  0  0  0  0  0  0  0  0  0  0
   47.9906    8.6586   14.4036 H   0  0  0  0  0  0  0  0  0  0  0  0
   48.4450    6.9274   11.4028 H   0  0  0  0  0  0  0  0  0  0  0  0
   49.4187    5.8731   12.4104 H   0  0  0  0  0  0  0  0  0  0  0  0
   53.0034    6.8389   12.9402 H   0  0  0  0  0  0  0  0  0  0  0  0
   54.2634   11.2778   11.0968 H   0  0  0  0  0  0  0  0  0  0  0  0
   45.8449    7.1433   13.8618 H   0  0  0  0  0  0  0  0  0  0  0  0
   46.4578    7.9975   12.4652 H   0  0  0  0  0  0  0  0  0  0  0  0
   42.9241    2.7176   11.6339 H   0  0  0  0  0  0  0  0  0  0  0  0
   52.9147    9.3395   17.5667 H   0  0  0  0  0  0  0  0  0  0  0  0
   54.2549   13.2923   14.8950 H   0  0  0  0  0  0  0  0  0  0  0  0
   44.4189    3.6409   12.9423 H   0  0  0  0  0  0  0  0  0  0  0  0
   42.8102    3.8926   13.6577 H   0  0  0  0  0  0  0  0  0  0  0  0
   46.0977    4.9274   12.5626 H   0  0  0  0  0  0  0  0  0  0  0  0
   46.4855    5.8984   11.1438 H   0  0  0  0  0  0  0  0  0  0  0  0
   42.6775    6.1454   12.5097 H   0  0  0  0  0  0  0  0  0  0  0  0
   43.9364    6.0584   13.7521 H   0  0  0  0  0  0  0  0  0  0  0  0
   54.6452    6.9951   11.0874 H   0  0  0  0  0  0  0  0  0  0  0  0
   55.2427    9.2115   10.1446 H   0  0  0  0  0  0  0  0  0  0  0  0
   55.1988   12.9586   17.1600 H   0  0  0  0  0  0  0  0  0  0  0  0
   54.5438   10.9678   18.4940 H   0  0  0  0  0  0  0  0  0  0  0  0
   50.0445    6.6779   13.9617 H   0  0  0  0  0  0  0  0  0  0  0  0
   49.5459    9.5780   12.9643 H   0  0  0  0  0  0  0  0  0  0  0  0
   47.2600    5.8132   12.1869 H   0  0  0  0  0  0  0  0  0  0  0  0
   52.3374   10.4400   14.7342 H   0  0  0  0  0  0  0  0  0  0  0  0
  2  1  2  0
  3  1  1  0
  4  6  1  0
  5  1  1  0
  6  3  2  0
  7  2  1  0
  8  7  2  0
  9 13  1  0
 10  5  1  0
 11  5  1  0
 12 10  1  0
 13 11  1  0
 14  3  1  0
 15  6  1  0
 16  9  1  0
 17 21  1  0
 18  7  1  0
 19  8  1  0
 20 22  1  0
 21 23  1  0
 22 16  1  0
 23 20  1  0
 24 14  2  0
 25 15  2  0
 26 19  2  0
 27 18  2  0
  9 12  1  0
  8  4  1  0
 24 25  1  0
 27 26  1  0
 29 28  2  0
 30 28  1  0
 31 33  1  0
 32 28  1  0
 33 30  2  0
 34 29  1  0
 35 34  2  0
 36 40  1  0
 37 32  1  0
 38 32  1  0
 39 37  1  0
 40 38  1  0
 41 30  1  0
 42 33  1  0
 43 36  1  0
 44 48  1  0
 45 34  1  0
 46 35  1  0
 47 49  1  0
 48 50  1  0
 49 43  1  0
 50 47  1  0
 51 41  2  0
 52 42  2  0
 53 46  2  0
 54 45  2  0
 36 39  1  0
 35 31  1  0
 51 52  1  0
 54 53  1  0
 56 58  1  0
 57 55  1  0
 58 57  2  0
 59 55  2  0
 60 56  2  0
 61 55  1  0
 62 56  1  0
 10 63  1  0
 10 64  1  0
 11 65  1  0
 11 66  1  0
 12 67  1  0
 12 68  1  0
 13 69  1  0
 13 70  1  0
 14 71  1  0
 15 72  1  0
 16 73  1  0
 16 74  1  0
 17 75  1  0
 18 76  1  0
 19 77  1  0
 21 78  1  0
 21 79  1  0
 22 80  1  0
 22 81  1  0
 23 82  1  0
 23 83  1  0
 24 84  1  0
 25 85  1  0
 26 86  1  0
 27 87  1  0
 37 88  1  0
 37 89  1  0
 38 90  1  0
 38 91  1  0
 39 92  1  0
 39 93  1  0
 40 94  1  0
 40 95  1  0
 41 96  1  0
 42 97  1  0
 43 98  1  0
 43 99  1  0
 44100  1  0
 45101  1  0
 46102  1  0
 48103  1  0
 48104  1  0
 49105  1  0
 49106  1  0
 50107  1  0
 50108  1  0
 51109  1  0
 52110  1  0
 53111  1  0
 54112  1  0
 57113  1  0
 58114  1  0
 61115  1  0
 62116  1  0
M  END
> <Uni-Dock RESULT> 
ENERGY=   -5.842  LOWER_BOUND=    4.525  UPPER_BOUND=    7.056
INTER + INTRA:          -5.842
INTER:                  -5.842
INTRA:                   0.000
UNBOUND:                 0.000

$$$$

     RDKit          3D

116121  0  0  0  0  0  0  0  0999 V2000
   42.1177   12.8019    8.8539 C   0  0  0  0  0  0  0  0  0  0  0  0
   41.8930   11.7306    9.5716 N   0  0  0  0  0  0  0  0  0  0  0  0
   41.4247   14.1148    9.0881 C   0  0  0  0  0  0  0  0  0  0  0  0
   42.1997   14.0015   11.7737 S   0  0  0  0  0  0  0  0  0  0  0  0
   43.0337   12.7259    7.7959 N   0  0  0  0  0  0  0  0  0  0  0  0
   41.4877   14.7685   10.3277 C   0  0  0  0  0  0  0  0  0  0  0  0
   41.0212   11.7000   10.6761 C   0  0  0  0  0  0  0  0  0  0  0  0
   41.1058   12.5789   11.7765 C   0  0  0  0  0  0  0  0  0  0  0  0
   44.8925   12.6221    5.5618 N   0  0  0  0  0  0  0  0  0  0  0  0
   43.6153   11.4250    7.4315 C   0  0  0  0  0  0  0  0  0  0  0  0
   43.8404   13.9031    7.3971 C   0  0  0  0  0  0  0  0  0  0  0  0
   44.1703   11.4102    5.9843 C   0  0  0  0  0  0  0  0  0  0  0  0
   45.1588   13.5191    6.6907 C   0  0  0  0  0  0  0  0  0  0  0  0
   40.7524   14.7015    8.0051 C   0  0  0  0  0  0  0  0  0  0  0  0
   40.9075   16.0354   10.4543 C   0  0  0  0  0  0  0  0  0  0  0  0
   46.0429   12.3868    4.6825 C   0  0  0  0  0  0  0  0  0  0  0  0
   51.6547   12.1862    5.9174 O   0  0  0  0  0  0  0  0  0  0  0  0
   40.0822   10.6608   10.7179 C   0  0  0  0  0  0  0  0  0  0  0  0
   40.2643   12.3937   12.8854 C   0  0  0  0  0  0  0  0  0  0  0  0
   48.0271   12.8074    6.0423 O   0  0  0  0  0  0  0  0  0  0  0  0
   50.3898   12.6631    5.4748 C   0  0  0  0  0  0  0  0  0  0  0  0
   47.3232   11.7993    5.3098 C   0  0  0  0  0  0  0  0  0  0  0  0
   49.3036   12.3629    6.5049 C   0  0  0  0  0  0  0  0  0  0  0  0
   40.1694   15.9605    8.1508 C   0  0  0  0  0  0  0  0  0  0  0  0
   40.2600   16.6310    9.3698 C   0  0  0  0  0  0  0  0  0  0  0  0
   39.3298   11.3586   12.9021 C   0  0  0  0  0  0  0  0  0  0  0  0
   39.2322   10.4943   11.8150 C   0  0  0  0  0  0  0  0  0  0  0  0
   42.2443   12.9182    9.3748 C   0  0  0  0  0  0  0  0  0  0  0  0
   41.5948   11.8140    9.6216 N   0  0  0  0  0  0  0  0  0  0  0  0
   41.6757   14.2853    9.6270 C   0  0  0  0  0  0  0  0  0  0  0  0
   39.3689   13.5743    8.2039 S   0  0  0  0  0  0  0  0  0  0  0  0
   43.5512   12.8433    8.8656 N   0  0  0  0  0  0  0  0  0  0  0  0
   40.4510   14.6915    9.0778 C   0  0  0  0  0  0  0  0  0  0  0  0
   40.2794   11.7418   10.1125 C   0  0  0  0  0  0  0  0  0  0  0  0
   39.1737   12.3885    9.5319 C   0  0  0  0  0  0  0  0  0  0  0  0
   45.9486   12.2318    7.1651 N   0  0  0  0  0  0  0  0  0  0  0  0
   44.2734   11.5520    8.8993 C   0  0  0  0  0  0  0  0  0  0  0  0
   43.9635   13.7401    7.7645 C   0  0  0  0  0  0  0  0  0  0  0  0
   44.9367   11.2269    7.5460 C   0  0  0  0  0  0  0  0  0  0  0  0
   45.4650   13.6008    7.4294 C   0  0  0  0  0  0  0  0  0  0  0  0
   42.4495   15.1918   10.3747 C   0  0  0  0  0  0  0  0  0  0  0  0
   40.0289   16.0172    9.2598 C   0  0  0  0  0  0  0  0  0  0  0  0
   46.4118   12.0261    5.7865 C   0  0  0  0  0  0  0  0  0  0  0  0
   51.2234   12.2108    3.9752 O   0  0  0  0  0  0  0  0  0  0  0  0
   40.0497   10.8553   11.1788 C   0  0  0  0  0  0  0  0  0  0  0  0
   37.8807   12.1505   10.0209 C   0  0  0  0  0  0  0  0  0  0  0  0
   48.2502   12.4279    4.1981 O   0  0  0  0  0  0  0  0  0  0  0  0
   50.4101   11.3284    4.7504 C   0  0  0  0  0  0  0  0  0  0  0  0
   47.7335   12.7568    5.4891 C   0  0  0  0  0  0  0  0  0  0  0  0
   49.0077   11.2127    4.1430 C   0  0  0  0  0  0  0  0  0  0  0  0
   42.0124   16.5035   10.5587 C   0  0  0  0  0  0  0  0  0  0  0  0
   40.8065   16.9193    9.9955 C   0  0  0  0  0  0  0  0  0  0  0  0
   37.6751   11.2711   11.0877 C   0  0  0  0  0  0  0  0  0  0  0  0
   38.7613   10.6287   11.6726 C   0  0  0  0  0  0  0  0  0  0  0  0
   45.3752   13.0714    6.9638 C   0  0  0  0  0  0  0  0  0  0  0  0
   42.2466   12.5803    8.9935 C   0  0  0  0  0  0  0  0  0  0  0  0
   44.4703   12.8546    8.0925 C   0  0  0  0  0  0  0  0  0  0  0  0
   43.1510   12.8183    7.8690 C   0  0  0  0  0  0  0  0  0  0  0  0
   45.0778   13.1970    5.7911 O   0  0  0  0  0  0  0  0  0  0  0  0
   42.5493   12.3771   10.1536 O   0  0  0  0  0  0  0  0  0  0  0  0
   46.6462   13.1082    7.3898 O   0  0  0  0  0  0  0  0  0  0  0  0
   40.9719   12.6043    8.5764 O   0  0  0  0  0  0  0  0  0  0  0  0
   42.8654   10.6300    7.5047 H   0  0  0  0  0  0  0  0  0  0  0  0
   44.4199   11.1883    8.1378 H   0  0  0  0  0  0  0  0  0  0  0  0
   44.0899   14.5129    8.2757 H   0  0  0  0  0  0  0  0  0  0  0  0
   43.2410   14.5130    6.7136 H   0  0  0  0  0  0  0  0  0  0  0  0
   44.7941   10.5150    5.8803 H   0  0  0  0  0  0  0  0  0  0  0  0
   43.3309   11.2806    5.2915 H   0  0  0  0  0  0  0  0  0  0  0  0
   45.6365   14.4423    6.3391 H   0  0  0  0  0  0  0  0  0  0  0  0
   45.8398   13.0530    7.4183 H   0  0  0  0  0  0  0  0  0  0  0  0
   40.6978   14.1824    7.0501 H   0  0  0  0  0  0  0  0  0  0  0  0
   40.9458   16.5629   11.4047 H   0  0  0  0  0  0  0  0  0  0  0  0
   46.3002   13.3446    4.2161 H   0  0  0  0  0  0  0  0  0  0  0  0
   45.7166   11.7296    3.8670 H   0  0  0  0  0  0  0  0  0  0  0  0
   51.6488   11.2178    5.8422 H   0  0  0  0  0  0  0  0  0  0  0  0
   40.0243    9.9748    9.8759 H   0  0  0  0  0  0  0  0  0  0  0  0
   40.3250   13.0689   13.7380 H   0  0  0  0  0  0  0  0  0  0  0  0
   50.4628   13.7409    5.3108 H   0  0  0  0  0  0  0  0  0  0  0  0
   50.1620   12.2085    4.5040 H   0  0  0  0  0  0  0  0  0  0  0  0
   47.9639   11.4237    4.5006 H   0  0  0  0  0  0  0  0  0  0  0  0
   47.0819   10.9624    5.9753 H   0  0  0  0  0  0  0  0  0  0  0  0
   49.5285   12.9055    7.4303 H   0  0  0  0  0  0  0  0  0  0  0  0
   49.2847   11.2988    6.7718 H   0  0  0  0  0  0  0  0  0  0  0  0
   39.6589   16.4188    7.3083 H   0  0  0  0  0  0  0  0  0  0  0  0
   39.8100   17.6137    9.4840 H   0  0  0  0  0  0  0  0  0  0  0  0
   38.6758   11.2277   13.7638 H   0  0  0  0  0  0  0  0  0  0  0  0
   38.5052    9.6893   11.8203 H   0  0  0  0  0  0  0  0  0  0  0  0
   43.6210   10.7100    9.1664 H   0  0  0  0  0  0  0  0  0  0  0  0
   45.0384   11.6128    9.6839 H   0  0  0  0  0  0  0  0  0  0  0  0
   43.3614   13.5161    6.8710 H   0  0  0  0  0  0  0  0  0  0  0  0
   43.7789   14.7885    8.0250 H   0  0  0  0  0  0  0  0  0  0  0  0
   45.4266   10.2503    7.6247 H   0  0  0  0  0  0  0  0  0  0  0  0
   44.1587   11.1469    6.7795 H   0  0  0  0  0  0  0  0  0  0  0  0
   45.6844   14.2850    6.5993 H   0  0  0  0  0  0  0  0  0  0  0  0
   46.0394   13.9685    8.2870 H   0  0  0  0  0  0  0  0  0  0  0  0
   43.4009   14.8749   10.7931 H   0  0  0  0  0  0  0  0  0  0  0  0
   39.0825   16.3582    8.8332 H   0  0  0  0  0  0  0  0  0  0  0  0
   46.5697   10.9515    5.6209 H   0  0  0  0  0  0  0  0  0  0  0  0
   45.6427   12.3229    5.0594 H   0  0  0  0  0  0  0  0  0  0  0  0
   52.0246   12.3835    4.4917 H   0  0  0  0  0  0  0  0  0  0  0  0
   40.8949   10.3242   11.6155 H   0  0  0  0  0  0  0  0  0  0  0  0
   37.0270   12.6557    9.5754 H   0  0  0  0  0  0  0  0  0  0  0  0
   50.3834   11.7113    5.7774 H   0  0  0  0  0  0  0  0  0  0  0  0
   50.8948   10.3481    4.7560 H   0  0  0  0  0  0  0  0  0  0  0  0
   48.4753   12.5641    6.2770 H   0  0  0  0  0  0  0  0  0  0  0  0
   47.5590   13.8410    5.4794 H   0  0  0  0  0  0  0  0  0  0  0  0
   49.0991   10.9606    3.0795 H   0  0  0  0  0  0  0  0  0  0  0  0
   48.4557   10.4049    4.6329 H   0  0  0  0  0  0  0  0  0  0  0  0
   42.6126   17.2013   11.1387 H   0  0  0  0  0  0  0  0  0  0  0  0
   40.4737   17.9482   10.1260 H   0  0  0  0  0  0  0  0  0  0  0  0
   36.6682   11.0934   11.4631 H   0  0  0  0  0  0  0  0  0  0  0  0
   38.6074    9.9381   12.5006 H   0  0  0  0  0  0  0  0  0  0  0  0
   44.9070   12.7277    9.0769 H   0  0  0  0  0  0  0  0  0  0  0  0
   42.7166   12.9483    6.8844 H   0  0  0  0  0  0  0  0  0  0  0  0
   47.1677   13.2558    6.5747 H   0  0  0  0  0  0  0  0  0  0  0  0
   40.4552   12.4280    9.3911 H   0  0  0  0  0  0  0  0  0  0  0  0
  2  1  2  0
  3  1  1  0
  4  6  1  0
  5  1  1  0
  6  3  2  0
  7  2  1  0
  8  7  2  0
  9 13  1  0
 10  5  1  0
 11  5  1  0
 12 10  1  0
 13 11  1  0
 14  3  1  0
 15  6  1  0
 16  9  1  0
 17 21  1  0
 18  7  1  0
 19  8  1  0
 20 22  1  0
 21 23  1  0
 22 16  1  0
 23 20  1  0
 24 14  2  0
 25 15  2  0
 26 19  2  0
 27 18  2  0
  9 12  1  0
  8  4  1  0
 24 25  1  0
 27 26  1  0
 29 28  2  0
 30 28  1  0
 31 33  1  0
 32 28  1  0
 33 30  2  0
 34 29  1  0
 35 34  2  0
 36 40  1  0
 37 32  1  0
 38 32  1  0
 39 37  1  0
 40 38  1  0
 41 30  1  0
 42 33  1  0
 43 36  1  0
 44 48  1  0
 45 34  1  0
 46 35  1  0
 47 49  1  0
 48 50  1  0
 49 43  1  0
 50 47  1  0
 51 41  2  0
 52 42  2  0
 53 46  2  0
 54 45  2  0
 36 39  1  0
 35 31  1  0
 51 52  1  0
 54 53  1  0
 56 58  1  0
 57 55  1  0
 58 57  2  0
 59 55  2  0
 60 56  2  0
 61 55  1  0
 62 56  1  0
 10 63  1  0
 10 64  1  0
 11 65  1  0
 11 66  1  0
 12 67  1  0
 12 68  1  0
 13 69  1  0
 13 70  1  0
 14 71  1  0
 15 72  1  0
 16 73  1  0
 16 74  1  0
 17 75  1  0
 18 76  1  0
 19 77  1  0
 21 78  1  0
 21 79  1  0
 22 80  1  0
 22 81  1  0
 23 82  1  0
 23 83  1  0
 24 84  1  0
 25 85  1  0
 26 86  1  0
 27 87  1  0
 37 88  1  0
 37 89  1  0
 38 90  1  0
 38 91  1  0
 39 92  1  0
 39 93  1  0
 40 94  1  0
 40 95  1  0
 41 96  1  0
 42 97  1  0
 43 98  1  0
 43 99  1  0
 44100  1  0
 45101  1  0
 46102  1  0
 48103  1  0
 48104  1  0
 49105  1  0
 49106  1  0
 50107  1  0
 50108  1  0
 51109  1  0
 52110  1  0
 53111  1  0
 54112  1  0
 57113  1  0
 58114  1  0
 61115  1  0
 62116  1  0
M  END
> <Uni-Dock RESULT> 
ENERGY=   -5.475  LOWER_BOUND=   10.826  UPPER_BOUND=   12.775
INTER + INTRA:          -5.475
INTER:                  -5.475
INTRA:                   0.000
UNBOUND:                 0.000

$$$$

     RDKit          3D

116121  0  0  0  0  0  0  0  0999 V2000
   49.8577   10.8878   13.0980 C   0  0  0  0  0  0  0  0  0  0  0  0
   50.5601   10.9878   11.9980 N   0  0  0  0  0  0  0  0  0  0  0  0
   49.6419   12.0317   14.0485 C   0  0  0  0  0  0  0  0  0  0  0  0
   48.7374   13.5898   11.9083 S   0  0  0  0  0  0  0  0  0  0  0  0
   49.2916    9.6488   13.4271 N   0  0  0  0  0  0  0  0  0  0  0  0
   49.0610   13.2375   13.6279 C   0  0  0  0  0  0  0  0  0  0  0  0
   51.1454   12.1877   11.5523 C   0  0  0  0  0  0  0  0  0  0  0  0
   50.4362   13.3928   11.3643 C   0  0  0  0  0  0  0  0  0  0  0  0
   48.1248    7.0954   14.1862 N   0  0  0  0  0  0  0  0  0  0  0  0
   49.6074    8.4666   12.6109 C   0  0  0  0  0  0  0  0  0  0  0  0
   48.0160    9.5661   14.1766 C   0  0  0  0  0  0  0  0  0  0  0  0
   49.3487    7.1392   13.3681 C   0  0  0  0  0  0  0  0  0  0  0  0
   47.2542    8.2462   13.9264 C   0  0  0  0  0  0  0  0  0  0  0  0
   49.9901   11.8383   15.3939 C   0  0  0  0  0  0  0  0  0  0  0  0
   48.7935   14.2273   14.5799 C   0  0  0  0  0  0  0  0  0  0  0  0
   47.4366    5.8001   14.2085 C   0  0  0  0  0  0  0  0  0  0  0  0
   42.8398    4.0096   11.2554 O   0  0  0  0  0  0  0  0  0  0  0  0
   52.4948   12.1379   11.1783 C   0  0  0  0  0  0  0  0  0  0  0  0
   51.0844   14.5052   10.8036 C   0  0  0  0  0  0  0  0  0  0  0  0
   45.4141    6.0889   12.8709 O   0  0  0  0  0  0  0  0  0  0  0  0
   43.6506    4.5066   12.3133 C   0  0  0  0  0  0  0  0  0  0  0  0
   46.6531    5.3768   12.9496 C   0  0  0  0  0  0  0  0  0  0  0  0
   44.5729    5.6174   11.8169 C   0  0  0  0  0  0  0  0  0  0  0  0
   49.7269   12.8396   16.3290 C   0  0  0  0  0  0  0  0  0  0  0  0
   49.1167   14.0258   15.9234 C   0  0  0  0  0  0  0  0  0  0  0  0
   52.4311   14.4369   10.4475 C   0  0  0  0  0  0  0  0  0  0  0  0
   53.1408   13.2547   10.6407 C   0  0  0  0  0  0  0  0  0  0  0  0
   49.6227   11.2695   12.7819 C   0  0  0  0  0  0  0  0  0  0  0  0
   50.7483   11.2040   12.1255 N   0  0  0  0  0  0  0  0  0  0  0  0
   49.2727   12.3960   13.7116 C   0  0  0  0  0  0  0  0  0  0  0  0
   51.7307   12.0660   15.0160 S   0  0  0  0  0  0  0  0  0  0  0  0
   48.6691   10.2532   12.6067 N   0  0  0  0  0  0  0  0  0  0  0  0
   50.1047   12.7610   14.7798 C   0  0  0  0  0  0  0  0  0  0  0  0
   51.7950   12.1378   12.2195 C   0  0  0  0  0  0  0  0  0  0  0  0
   52.3972   12.5439   13.4238 C   0  0  0  0  0  0  0  0  0  0  0  0
   47.2872    7.5907   12.4858 N   0  0  0  0  0  0  0  0  0  0  0  0
   48.8151    9.3032   11.4814 C   0  0  0  0  0  0  0  0  0  0  0  0
   47.9625    9.6981   13.7811 C   0  0  0  0  0  0  0  0  0  0  0  0
   48.6334    7.8407   11.9342 C   0  0  0  0  0  0  0  0  0  0  0  0
   46.8656    8.6876   13.3785 C   0  0  0  0  0  0  0  0  0  0  0  0
   48.0331   13.0366   13.5313 C   0  0  0  0  0  0  0  0  0  0  0  0
   49.6683   13.7475   15.6771 C   0  0  0  0  0  0  0  0  0  0  0  0
   47.2031    6.2614   13.1050 C   0  0  0  0  0  0  0  0  0  0  0  0
   43.4217    2.7946   12.7197 O   0  0  0  0  0  0  0  0  0  0  0  0
   52.3519   12.5879   11.0100 C   0  0  0  0  0  0  0  0  0  0  0  0
   53.5205   13.3838   13.4026 C   0  0  0  0  0  0  0  0  0  0  0  0
   45.6830    4.4426   13.7721 O   0  0  0  0  0  0  0  0  0  0  0  0
   44.4869    3.3031   11.9147 C   0  0  0  0  0  0  0  0  0  0  0  0
   45.7514    5.7934   13.3110 C   0  0  0  0  0  0  0  0  0  0  0  0
   45.7681    3.4488   12.7432 C   0  0  0  0  0  0  0  0  0  0  0  0
   47.6166   14.0245   14.4234 C   0  0  0  0  0  0  0  0  0  0  0  0
   48.4296   14.3753   15.5005 C   0  0  0  0  0  0  0  0  0  0  0  0
   54.0538   13.8266   12.1887 C   0  0  0  0  0  0  0  0  0  0  0  0
   53.4643   13.4349   10.9913 C   0  0  0  0  0  0  0  0  0  0  0  0
   47.2994    8.1246   13.3740 C   0  0  0  0  0  0  0  0  0  0  0  0
   49.8618   10.8208   12.8139 C   0  0  0  0  0  0  0  0  0  0  0  0
   48.0145    9.2653   12.8021 C   0  0  0  0  0  0  0  0  0  0  0  0
   49.1344    9.6939   13.3971 C   0  0  0  0  0  0  0  0  0  0  0  0
   47.6176    7.4631   14.3439 O   0  0  0  0  0  0  0  0  0  0  0  0
   49.5851   11.4321   11.7997 O   0  0  0  0  0  0  0  0  0  0  0  0
   46.1929    7.8674   12.6616 O   0  0  0  0  0  0  0  0  0  0  0  0
   50.9356   11.1165   13.5615 O   0  0  0  0  0  0  0  0  0  0  0  0
   50.6602    8.4734   12.3085 H   0  0  0  0  0  0  0  0  0  0  0  0
   48.9999    8.4957   11.6985 H   0  0  0  0  0  0  0  0  0  0  0  0
   47.3545   10.3984   13.9015 H   0  0  0  0  0  0  0  0  0  0  0  0
   48.2412    9.6439   15.2451 H   0  0  0  0  0  0  0  0  0  0  0  0
   49.3660    6.3300   12.6290 H   0  0  0  0  0  0  0  0  0  0  0  0
   50.1915    6.9545   14.0439 H   0  0  0  0  0  0  0  0  0  0  0  0
   46.3846    8.2246   14.5951 H   0  0  0  0  0  0  0  0  0  0  0  0
   46.8752    8.2343   12.8937 H   0  0  0  0  0  0  0  0  0  0  0  0
   50.4514   10.9046   15.7100 H   0  0  0  0  0  0  0  0  0  0  0  0
   48.3414   15.1694   14.2783 H   0  0  0  0  0  0  0  0  0  0  0  0
   46.7407    5.8132   15.0550 H   0  0  0  0  0  0  0  0  0  0  0  0
   48.1795    5.0261   14.4378 H   0  0  0  0  0  0  0  0  0  0  0  0
   43.4064    3.4768   10.6734 H   0  0  0  0  0  0  0  0  0  0  0  0
   53.0396   11.2058   11.3109 H   0  0  0  0  0  0  0  0  0  0  0  0
   50.5422   15.4383   10.6559 H   0  0  0  0  0  0  0  0  0  0  0  0
   42.9974    4.8867   13.1024 H   0  0  0  0  0  0  0  0  0  0  0  0
   44.2176    3.6734   12.7436 H   0  0  0  0  0  0  0  0  0  0  0  0
   46.4496    4.2994   13.0148 H   0  0  0  0  0  0  0  0  0  0  0  0
   47.2419    5.5625   12.0439 H   0  0  0  0  0  0  0  0  0  0  0  0
   43.9639    6.4622   11.4754 H   0  0  0  0  0  0  0  0  0  0  0  0
   45.1613    5.2945   10.9488 H   0  0  0  0  0  0  0  0  0  0  0  0
   49.9867   12.6844   17.3725 H   0  0  0  0  0  0  0  0  0  0  0  0
   48.9071   14.8053   16.6512 H   0  0  0  0  0  0  0  0  0  0  0  0
   52.9275   15.3078   10.0202 H   0  0  0  0  0  0  0  0  0  0  0  0
   54.1892   13.1961   10.3688 H   0  0  0  0  0  0  0  0  0  0  0  0
   49.7909    9.3840   10.9842 H   0  0  0  0  0  0  0  0  0  0  0  0
   48.0601    9.5556   10.7258 H   0  0  0  0  0  0  0  0  0  0  0  0
   48.6921    9.2094   14.4444 H   0  0  0  0  0  0  0  0  0  0  0  0
   47.4815   10.4949   14.3598 H   0  0  0  0  0  0  0  0  0  0  0  0
   48.7827    7.1874   11.0677 H   0  0  0  0  0  0  0  0  0  0  0  0
   49.4075    7.5982   12.6698 H   0  0  0  0  0  0  0  0  0  0  0  0
   46.4025    8.3156   14.3017 H   0  0  0  0  0  0  0  0  0  0  0  0
   46.0812    9.2342   12.8431 H   0  0  0  0  0  0  0  0  0  0  0  0
   47.3886   12.7463   12.7060 H   0  0  0  0  0  0  0  0  0  0  0  0
   50.2960   14.0414   16.5218 H   0  0  0  0  0  0  0  0  0  0  0  0
   47.7087    5.5338   12.4553 H   0  0  0  0  0  0  0  0  0  0  0  0
   47.7502    6.2306   14.0579 H   0  0  0  0  0  0  0  0  0  0  0  0
   42.6075    2.8888   12.2032 H   0  0  0  0  0  0  0  0  0  0  0  0
   51.9135   12.2541   10.0701 H   0  0  0  0  0  0  0  0  0  0  0  0
   53.9817   13.7023   14.3343 H   0  0  0  0  0  0  0  0  0  0  0  0
   44.1602    4.2599   11.4904 H   0  0  0  0  0  0  0  0  0  0  0  0
   44.6518    2.5967   11.0964 H   0  0  0  0  0  0  0  0  0  0  0  0
   45.1594    5.9332   12.3955 H   0  0  0  0  0  0  0  0  0  0  0  0
   45.2760    6.4047   14.0898 H   0  0  0  0  0  0  0  0  0  0  0  0
   45.9723    2.5002   13.2544 H   0  0  0  0  0  0  0  0  0  0  0  0
   46.6147    3.6637   12.0842 H   0  0  0  0  0  0  0  0  0  0  0  0
   46.6581   14.5189   14.2800 H   0  0  0  0  0  0  0  0  0  0  0  0
   48.0964   15.1356   16.2059 H   0  0  0  0  0  0  0  0  0  0  0  0
   54.9248   14.4805   12.1808 H   0  0  0  0  0  0  0  0  0  0  0  0
   53.8783   13.7719   10.0420 H   0  0  0  0  0  0  0  0  0  0  0  0
   47.6078    9.7234   11.9073 H   0  0  0  0  0  0  0  0  0  0  0  0
   49.5375    9.2362   14.2932 H   0  0  0  0  0  0  0  0  0  0  0  0
   45.7885    7.1003   13.1158 H   0  0  0  0  0  0  0  0  0  0  0  0
   51.3523   11.8668   13.0871 H   0  0  0  0  0  0  0  0  0  0  0  0
  2  1  2  0
  3  1  1  0
  4  6  1  0
  5  1  1  0
  6  3  2  0
  7  2  1  0
  8  7  2  0
  9 13  1  0
 10  5  1  0
 11  5  1  0
 12 10  1  0
 13 11  1  0
 14  3  1  0
 15  6  1  0
 16  9  1  0
 17 21  1  0
 18  7  1  0
 19  8  1  0
 20 22  1  0
 21 23  1  0
 22 16  1  0
 23 20  1  0
 24 14  2  0
 25 15  2  0
 26 19  2  0
 27 18  2  0
  9 12  1  0
  8  4  1  0
 24 25  1  0
 27 26  1  0
 29 28  2  0
 30 28  1  0
 31 33  1  0
 32 28  1  0
 33 30  2  0
 34 29  1  0
 35 34  2  0
 36 40  1  0
 37 32  1  0
 38 32  1  0
 39 37  1  0
 40 38  1  0
 41 30  1  0
 42 33  1  0
 43 36  1  0
 44 48  1  0
 45 34  1  0
 46 35  1  0
 47 49  1  0
 48 50  1  0
 49 43  1  0
 50 47  1  0
 51 41  2  0
 52 42  2  0
 53 46  2  0
 54 45  2  0
 36 39  1  0
 35 31  1  0
 51 52  1  0
 54 53  1  0
 56 58  1  0
 57 55  1  0
 58 57  2  0
 59 55  2  0
 60 56  2  0
 61 55  1  0
 62 56  1  0
 10 63  1  0
 10 64  1  0
 11 65  1  0
 11 66  1  0
 12 67  1  0
 12 68  1  0
 13 69  1  0
 13 70  1  0
 14 71  1  0
 15 72  1  0
 16 73  1  0
 16 74  1  0
 17 75  1  0
 18 76  1  0
 19 77  1  0
 21 78  1  0
 21 79  1  0
 22 80  1  0
 22 81  1  0
 23 82  1  0
 23 83  1  0
 24 84  1  0
 25 85  1  0
 26 86  1  0
 27 87  1  0
 37 88  1  0
 37 89  1  0
 38 90  1  0
 38 91  1  0
 39 92  1  0
 39 93  1  0
 40 94  1  0
 40 95  1  0
 41 96  1  0
 42 97  1  0
 43 98  1  0
 43 99  1  0
 44100  1  0
 45101  1  0
 46102  1  0
 48103  1  0
 48104  1  0
 49105  1  0
 49106  1  0
 50107  1  0
 50108  1  0
 51109  1  0
 52110  1  0
 53111  1  0
 54112  1  0
 57113  1  0
 58114  1  0
 61115  1  0
 62116  1  0
M  END
> <Uni-Dock RESULT> 
ENERGY=   -5.475  LOWER_BOUND=    4.741  UPPER_BOUND=    8.581
INTER + INTRA:          -5.475
INTER:                  -5.475
INTRA:                   0.000
UNBOUND:                 0.000

$$$$

     RDKit          3D

116121  0  0  0  0  0  0  0  0999 V2000
   49.6673   11.1841   12.4684 C   0  0  0  0  0  0  0  0  0  0  0  0
   50.1497   10.8064   11.3117 N   0  0  0  0  0  0  0  0  0  0  0  0
   48.9635   12.4946   12.6831 C   0  0  0  0  0  0  0  0  0  0  0  0
   47.2588   11.8850   10.5503 S   0  0  0  0  0  0  0  0  0  0  0  0
   49.8293   10.3402   13.5755 N   0  0  0  0  0  0  0  0  0  0  0  0
   47.8262   12.8483   11.9417 C   0  0  0  0  0  0  0  0  0  0  0  0
   50.0165   11.5565   10.1282 C   0  0  0  0  0  0  0  0  0  0  0  0
   48.7842   12.0114    9.6134 C   0  0  0  0  0  0  0  0  0  0  0  0
   50.1684    8.6522   15.9192 N   0  0  0  0  0  0  0  0  0  0  0  0
   50.6471    9.1243   13.4478 C   0  0  0  0  0  0  0  0  0  0  0  0
   48.8227   10.3030   14.6622 C   0  0  0  0  0  0  0  0  0  0  0  0
   51.1458    8.6007   14.8188 C   0  0  0  0  0  0  0  0  0  0  0  0
   48.8202    8.9668   15.4363 C   0  0  0  0  0  0  0  0  0  0  0  0
   49.4475   13.3386   13.6941 C   0  0  0  0  0  0  0  0  0  0  0  0
   47.1561   14.0355   12.2568 C   0  0  0  0  0  0  0  0  0  0  0  0
   50.2342    7.5316   16.8636 C   0  0  0  0  0  0  0  0  0  0  0  0
   46.9986    2.7908   17.1999 O   0  0  0  0  0  0  0  0  0  0  0  0
   51.1779   11.7669    9.3731 C   0  0  0  0  0  0  0  0  0  0  0  0
   48.7419   12.6510    8.3639 C   0  0  0  0  0  0  0  0  0  0  0  0
   48.2628    6.1605   16.4203 O   0  0  0  0  0  0  0  0  0  0  0  0
   47.5121    4.0916   17.4601 C   0  0  0  0  0  0  0  0  0  0  0  0
   49.6939    6.1637   16.4001 C   0  0  0  0  0  0  0  0  0  0  0  0
   47.7105    4.8687   16.1609 C   0  0  0  0  0  0  0  0  0  0  0  0
   48.7742   14.5245   13.9886 C   0  0  0  0  0  0  0  0  0  0  0  0
   47.6226   14.8638   13.2797 C   0  0  0  0  0  0  0  0  0  0  0  0
   49.9115   12.8590    7.6333 C   0  0  0  0  0  0  0  0  0  0  0  0
   51.1329   12.4234    8.1400 C   0  0  0  0  0  0  0  0  0  0  0  0
   49.2515   11.1619   12.1113 C   0  0  0  0  0  0  0  0  0  0  0  0
   50.2102   11.1028   11.2285 N   0  0  0  0  0  0  0  0  0  0  0  0
   48.4399   12.3993   12.3680 C   0  0  0  0  0  0  0  0  0  0  0  0
   50.8044   13.8766   12.6483 S   0  0  0  0  0  0  0  0  0  0  0  0
   48.9351   10.0131   12.8549 N   0  0  0  0  0  0  0  0  0  0  0  0
   49.0391   13.6236   12.6973 C   0  0  0  0  0  0  0  0  0  0  0  0
   50.6432   12.1768   10.4314 C   0  0  0  0  0  0  0  0  0  0  0  0
   51.0329   13.4336   10.9281 C   0  0  0  0  0  0  0  0  0  0  0  0
   49.0879    7.6158   14.6557 N   0  0  0  0  0  0  0  0  0  0  0  0
   49.4693    8.7000   12.4298 C   0  0  0  0  0  0  0  0  0  0  0  0
   48.6844   10.1240   14.3080 C   0  0  0  0  0  0  0  0  0  0  0  0
   50.0831    7.9183   13.6084 C   0  0  0  0  0  0  0  0  0  0  0  0
   48.2272    8.7839   14.9254 C   0  0  0  0  0  0  0  0  0  0  0  0
   47.0379   12.2823   12.3474 C   0  0  0  0  0  0  0  0  0  0  0  0
   48.2219   14.7136   13.0335 C   0  0  0  0  0  0  0  0  0  0  0  0
   49.7287    7.0657   15.8575 C   0  0  0  0  0  0  0  0  0  0  0  0
   48.2086    3.0924   18.7503 O   0  0  0  0  0  0  0  0  0  0  0  0
   50.8162   11.9182    9.0607 C   0  0  0  0  0  0  0  0  0  0  0  0
   51.5719   14.3975   10.0632 C   0  0  0  0  0  0  0  0  0  0  0  0
   49.3859    5.6975   17.8760 O   0  0  0  0  0  0  0  0  0  0  0  0
   48.8151    3.3116   17.4754 C   0  0  0  0  0  0  0  0  0  0  0  0
   48.7308    6.3569   16.7906 C   0  0  0  0  0  0  0  0  0  0  0  0
   49.8962    4.3938   17.5703 C   0  0  0  0  0  0  0  0  0  0  0  0
   46.2368   13.3771   12.6717 C   0  0  0  0  0  0  0  0  0  0  0  0
   46.8275   14.5906   13.0222 C   0  0  0  0  0  0  0  0  0  0  0  0
   51.7279   14.1227    8.7016 C   0  0  0  0  0  0  0  0  0  0  0  0
   51.3424   12.8847    8.1982 C   0  0  0  0  0  0  0  0  0  0  0  0
   48.8850    8.5494   15.0574 C   0  0  0  0  0  0  0  0  0  0  0  0
   49.6865   10.9595   12.2829 C   0  0  0  0  0  0  0  0  0  0  0  0
   48.8853    9.2252   13.7601 C   0  0  0  0  0  0  0  0  0  0  0  0
   49.6693   10.2961   13.5862 C   0  0  0  0  0  0  0  0  0  0  0  0
   49.5561    8.8235   16.0341 O   0  0  0  0  0  0  0  0  0  0  0  0
   49.0735   10.6378   11.2831 O   0  0  0  0  0  0  0  0  0  0  0  0
   48.0180    7.5265   15.0464 O   0  0  0  0  0  0  0  0  0  0  0  0
   50.5081   12.0195   12.3129 O   0  0  0  0  0  0  0  0  0  0  0  0
   51.5294    9.3131   12.8267 H   0  0  0  0  0  0  0  0  0  0  0  0
   50.0513    8.3493   12.9511 H   0  0  0  0  0  0  0  0  0  0  0  0
   47.8146   10.4640   14.2573 H   0  0  0  0  0  0  0  0  0  0  0  0
   49.0457   11.1139   15.3631 H   0  0  0  0  0  0  0  0  0  0  0  0
   51.5229    7.5831   14.6649 H   0  0  0  0  0  0  0  0  0  0  0  0
   52.0075    9.2030   15.1283 H   0  0  0  0  0  0  0  0  0  0  0  0
   48.1265    9.0653   16.2807 H   0  0  0  0  0  0  0  0  0  0  0  0
   48.4338    8.1689   14.7847 H   0  0  0  0  0  0  0  0  0  0  0  0
   50.3374   13.0627   14.2565 H   0  0  0  0  0  0  0  0  0  0  0  0
   46.2707   14.3296   11.6977 H   0  0  0  0  0  0  0  0  0  0  0  0
   49.6837    7.8287   17.7635 H   0  0  0  0  0  0  0  0  0  0  0  0
   51.2798    7.4109   17.1730 H   0  0  0  0  0  0  0  0  0  0  0  0
   47.7181    2.2586   16.8224 H   0  0  0  0  0  0  0  0  0  0  0  0
   52.1269   11.4056    9.7628 H   0  0  0  0  0  0  0  0  0  0  0  0
   47.7935   13.0043    7.9612 H   0  0  0  0  0  0  0  0  0  0  0  0
   46.8088    4.6195   18.1085 H   0  0  0  0  0  0  0  0  0  0  0  0
   48.4494    3.9949   18.0196 H   0  0  0  0  0  0  0  0  0  0  0  0
   50.0689    5.3930   17.0869 H   0  0  0  0  0  0  0  0  0  0  0  0
   50.0477    5.9274   15.3900 H   0  0  0  0  0  0  0  0  0  0  0  0
   46.7369    5.0148   15.6792 H   0  0  0  0  0  0  0  0  0  0  0  0
   48.3241    4.3071   15.4454 H   0  0  0  0  0  0  0  0  0  0  0  0
   49.1434   15.1719   14.7792 H   0  0  0  0  0  0  0  0  0  0  0  0
   47.0944   15.7852   13.5105 H   0  0  0  0  0  0  0  0  0  0  0  0
   49.8696   13.3632    6.6682 H   0  0  0  0  0  0  0  0  0  0  0  0
   52.0466   12.5851    7.5781 H   0  0  0  0  0  0  0  0  0  0  0  0
   50.2355    8.7887   11.6480 H   0  0  0  0  0  0  0  0  0  0  0  0
   48.6437    8.1250   11.9913 H   0  0  0  0  0  0  0  0  0  0  0  0
   49.6020   10.4692   14.8079 H   0  0  0  0  0  0  0  0  0  0  0  0
   47.9044   10.8659   14.5140 H   0  0  0  0  0  0  0  0  0  0  0  0
   50.4866    6.9741   13.2268 H   0  0  0  0  0  0  0  0  0  0  0  0
   50.9189    8.4942   14.0194 H   0  0  0  0  0  0  0  0  0  0  0  0
   48.0769    8.9482   16.0004 H   0  0  0  0  0  0  0  0  0  0  0  0
   47.2414    8.5397   14.5139 H   0  0  0  0  0  0  0  0  0  0  0  0
   46.5777   11.3302   12.0980 H   0  0  0  0  0  0  0  0  0  0  0  0
   48.6672   15.6746   13.3022 H   0  0  0  0  0  0  0  0  0  0  0  0
   50.4902    6.3351   15.5516 H   0  0  0  0  0  0  0  0  0  0  0  0
   50.2761    7.8436   16.4084 H   0  0  0  0  0  0  0  0  0  0  0  0
   47.4277    2.5392   18.6003 H   0  0  0  0  0  0  0  0  0  0  0  0
   50.5478   10.9369    8.6704 H   0  0  0  0  0  0  0  0  0  0  0  0
   51.8671   15.3712   10.4469 H   0  0  0  0  0  0  0  0  0  0  0  0
   48.0222    3.5828   16.7684 H   0  0  0  0  0  0  0  0  0  0  0  0
   49.2620    2.3670   17.1530 H   0  0  0  0  0  0  0  0  0  0  0  0
   48.0921    5.6615   16.2280 H   0  0  0  0  0  0  0  0  0  0  0  0
   48.0626    7.1003   17.2456 H   0  0  0  0  0  0  0  0  0  0  0  0
   50.5852    4.1395   18.3849 H   0  0  0  0  0  0  0  0  0  0  0  0
   50.4729    4.4259   16.6410 H   0  0  0  0  0  0  0  0  0  0  0  0
   45.1531   13.2834   12.6532 H   0  0  0  0  0  0  0  0  0  0  0  0
   46.2014   15.4405   13.2909 H   0  0  0  0  0  0  0  0  0  0  0  0
   52.1452   14.8773    8.0362 H   0  0  0  0  0  0  0  0  0  0  0  0
   51.4665   12.6622    7.1392 H   0  0  0  0  0  0  0  0  0  0  0  0
   48.2459    8.8274   12.9797 H   0  0  0  0  0  0  0  0  0  0  0  0
   50.3055   10.6936   14.3686 H   0  0  0  0  0  0  0  0  0  0  0  0
   48.0882    7.1435   15.9446 H   0  0  0  0  0  0  0  0  0  0  0  0
   50.4558   12.3826   11.4034 H   0  0  0  0  0  0  0  0  0  0  0  0
  2  1  2  0
  3  1  1  0
  4  6  1  0
  5  1  1  0
  6  3  2  0
  7  2  1  0
  8  7  2  0
  9 13  1  0
 10  5  1  0
 11  5  1  0
 12 10  1  0
 13 11  1  0
 14  3  1  0
 15  6  1  0
 16  9  1  0
 17 21  1  0
 18  7  1  0
 19  8  1  0
 20 22  1  0
 21 23  1  0
 22 16  1  0
 23 20  1  0
 24 14  2  0
 25 15  2  0
 26 19  2  0
 27 18  2  0
  9 12  1  0
  8  4  1  0
 24 25  1  0
 27 26  1  0
 29 28  2  0
 30 28  1  0
 31 33  1  0
 32 28  1  0
 33 30  2  0
 34 29  1  0
 35 34  2  0
 36 40  1  0
 37 32  1  0
 38 32  1  0
 39 37  1  0
 40 38  1  0
 41 30  1  0
 42 33  1  0
 43 36  1  0
 44 48  1  0
 45 34  1  0
 46 35  1  0
 47 49  1  0
 48 50  1  0
 49 43  1  0
 50 47  1  0
 51 41  2  0
 52 42  2  0
 53 46  2  0
 54 45  2  0
 36 39  1  0
 35 31  1  0
 51 52  1  0
 54 53  1  0
 56 58  1  0
 57 55  1  0
 58 57  2  0
 59 55  2  0
 60 56  2  0
 61 55  1  0
 62 56  1  0
 10 63  1  0
 10 64  1  0
 11 65  1  0
 11 66  1  0
 12 67  1  0
 12 68  1  0
 13 69  1  0
 13 70  1  0
 14 71  1  0
 15 72  1  0
 16 73  1  0
 16 74  1  0
 17 75  1  0
 18 76  1  0
 19 77  1  0
 21 78  1  0
 21 79  1  0
 22 80  1  0
 22 81  1  0
 23 82  1  0
 23 83  1  0
 24 84  1  0
 25 85  1  0
 26 86  1  0
 27 87  1  0
 37 88  1  0
 37 89  1  0
 38 90  1  0
 38 91  1  0
 39 92  1  0
 39 93  1  0
 40 94  1  0
 40 95  1  0
 41 96  1  0
 42 97  1  0
 43 98  1  0
 43 99  1  0
 44100  1  0
 45101  1  0
 46102  1  0
 48103  1  0
 48104  1  0
 49105  1  0
 49106  1  0
 50107  1  0
 50108  1  0
 51109  1  0
 52110  1  0
 53111  1  0
 54112  1  0
 57113  1  0
 58114  1  0
 61115  1  0
 62116  1  0
M  END
> <Uni-Dock RESULT> 
ENERGY=   -5.235  LOWER_BOUND=    3.137  UPPER_BOUND=    9.492
INTER + INTRA:          -5.235
INTER:                  -5.235
INTRA:                   0.000
UNBOUND:                 0.000

$$$$

     RDKit          3D

116121  0  0  0  0  0  0  0  0999 V2000
   48.9795    8.1231   15.9230 C   0  0  0  0  0  0  0  0  0  0  0  0
   48.9281    6.8521   15.6145 N   0  0  0  0  0  0  0  0  0  0  0  0
   49.4577    8.6327   17.2535 C   0  0  0  0  0  0  0  0  0  0  0  0
   51.8022    7.1390   16.9401 S   0  0  0  0  0  0  0  0  0  0  0  0
   48.5478    9.0649   14.9791 N   0  0  0  0  0  0  0  0  0  0  0  0
   50.7360    8.3245   17.7425 C   0  0  0  0  0  0  0  0  0  0  0  0
   49.3654    5.8233   16.4696 C   0  0  0  0  0  0  0  0  0  0  0  0
   50.6518    5.7657   17.0461 C   0  0  0  0  0  0  0  0  0  0  0  0
   47.6290   11.0658   13.0793 N   0  0  0  0  0  0  0  0  0  0  0  0
   47.9258    8.6059   13.7279 C   0  0  0  0  0  0  0  0  0  0  0  0
   49.1530   10.4160   14.9154 C   0  0  0  0  0  0  0  0  0  0  0  0
   47.0636    9.7061   13.0581 C   0  0  0  0  0  0  0  0  0  0  0  0
   49.0271   11.0678   13.5211 C   0  0  0  0  0  0  0  0  0  0  0  0
   48.6025    9.4793   17.9752 C   0  0  0  0  0  0  0  0  0  0  0  0
   51.1614    8.9106   18.9397 C   0  0  0  0  0  0  0  0  0  0  0  0
   47.3648   11.8690   11.8806 C   0  0  0  0  0  0  0  0  0  0  0  0
   50.7323   12.9582    7.3494 O   0  0  0  0  0  0  0  0  0  0  0  0
   48.4926    4.7451   16.6674 C   0  0  0  0  0  0  0  0  0  0  0  0
   51.0342    4.6385   17.7911 C   0  0  0  0  0  0  0  0  0  0  0  0
   49.4885   12.0111   10.6836 O   0  0  0  0  0  0  0  0  0  0  0  0
   50.0487   13.1138    8.5871 C   0  0  0  0  0  0  0  0  0  0  0  0
   48.1448   11.5263   10.5953 C   0  0  0  0  0  0  0  0  0  0  0  0
   50.2077   11.8694    9.4574 C   0  0  0  0  0  0  0  0  0  0  0  0
   49.0375   10.0469   19.1730 C   0  0  0  0  0  0  0  0  0  0  0  0
   50.3202    9.7731   19.6458 C   0  0  0  0  0  0  0  0  0  0  0  0
   50.1462    3.5805   17.9838 C   0  0  0  0  0  0  0  0  0  0  0  0
   48.8708    3.6351   17.4280 C   0  0  0  0  0  0  0  0  0  0  0  0
   49.4878    7.9203   15.9584 C   0  0  0  0  0  0  0  0  0  0  0  0
   48.8712    6.7715   15.9123 N   0  0  0  0  0  0  0  0  0  0  0  0
   50.0609    8.5003   17.2198 C   0  0  0  0  0  0  0  0  0  0  0  0
   47.6091    8.0826   18.5106 S   0  0  0  0  0  0  0  0  0  0  0  0
   49.6510    8.6567   14.7736 N   0  0  0  0  0  0  0  0  0  0  0  0
   49.2811    8.6887   18.3700 C   0  0  0  0  0  0  0  0  0  0  0  0
   48.6219    5.9422   17.0198 C   0  0  0  0  0  0  0  0  0  0  0  0
   47.9833    6.3586   18.2016 C   0  0  0  0  0  0  0  0  0  0  0  0
   49.1448   10.1638   12.2269 N   0  0  0  0  0  0  0  0  0  0  0  0
   49.4002    8.0035   13.4695 C   0  0  0  0  0  0  0  0  0  0  0  0
   49.4128   10.1161   14.7766 C   0  0  0  0  0  0  0  0  0  0  0  0
   48.5140    8.8695   12.5519 C   0  0  0  0  0  0  0  0  0  0  0  0
   49.7662   10.7680   13.4214 C   0  0  0  0  0  0  0  0  0  0  0  0
   51.4003    8.9304   17.1966 C   0  0  0  0  0  0  0  0  0  0  0  0
   49.8471    9.3368   19.4783 C   0  0  0  0  0  0  0  0  0  0  0  0
   48.2050   11.0565   11.5360 C   0  0  0  0  0  0  0  0  0  0  0  0
   49.0681   14.0451    7.4385 O   0  0  0  0  0  0  0  0  0  0  0  0
   48.9202    4.5771   16.8679 C   0  0  0  0  0  0  0  0  0  0  0  0
   47.6655    5.4243   19.1984 C   0  0  0  0  0  0  0  0  0  0  0  0
   48.0048   12.9915   10.0262 O   0  0  0  0  0  0  0  0  0  0  0  0
   48.8843   12.6576    7.7253 C   0  0  0  0  0  0  0  0  0  0  0  0
   48.9110   12.2198   10.8169 C   0  0  0  0  0  0  0  0  0  0  0  0
   47.7376   12.4595    8.7228 C   0  0  0  0  0  0  0  0  0  0  0  0
   51.9546    9.5623   18.3097 C   0  0  0  0  0  0  0  0  0  0  0  0
   51.1770    9.7728   19.4478 C   0  0  0  0  0  0  0  0  0  0  0  0
   47.9783    4.0723   19.0309 C   0  0  0  0  0  0  0  0  0  0  0  0
   48.6135    3.6492   17.8680 C   0  0  0  0  0  0  0  0  0  0  0  0
   49.1244   10.6644   13.1342 C   0  0  0  0  0  0  0  0  0  0  0  0
   49.0407    7.9285   15.7143 C   0  0  0  0  0  0  0  0  0  0  0  0
   49.4787    9.4802   13.9164 C   0  0  0  0  0  0  0  0  0  0  0  0
   48.6992    9.1245   14.9449 C   0  0  0  0  0  0  0  0  0  0  0  0
   48.1545   11.3838   13.2798 O   0  0  0  0  0  0  0  0  0  0  0  0
   49.9674    7.1655   15.5194 O   0  0  0  0  0  0  0  0  0  0  0  0
   50.0369   10.8755   12.1746 O   0  0  0  0  0  0  0  0  0  0  0  0
   48.1616    7.7522   16.7120 O   0  0  0  0  0  0  0  0  0  0  0  0
   47.2754    7.7438   13.9109 H   0  0  0  0  0  0  0  0  0  0  0  0
   48.7158    8.2852   13.0384 H   0  0  0  0  0  0  0  0  0  0  0  0
   50.2191   10.3717   15.1756 H   0  0  0  0  0  0  0  0  0  0  0  0
   48.6461   11.0529   15.6474 H   0  0  0  0  0  0  0  0  0  0  0  0
   46.8479    9.3777   12.0349 H   0  0  0  0  0  0  0  0  0  0  0  0
   46.0980    9.7534   13.5744 H   0  0  0  0  0  0  0  0  0  0  0  0
   49.4025   12.0963   13.5924 H   0  0  0  0  0  0  0  0  0  0  0  0
   49.6711   10.5313   12.8085 H   0  0  0  0  0  0  0  0  0  0  0  0
   47.6078    9.7039   17.5949 H   0  0  0  0  0  0  0  0  0  0  0  0
   52.1491    8.6888   19.3374 H   0  0  0  0  0  0  0  0  0  0  0  0
   47.5697   12.9151   12.1352 H   0  0  0  0  0  0  0  0  0  0  0  0
   46.2904   11.8133   11.6660 H   0  0  0  0  0  0  0  0  0  0  0  0
   50.2219   12.3360    6.8055 H   0  0  0  0  0  0  0  0  0  0  0  0
   47.5051    4.7823   16.2131 H   0  0  0  0  0  0  0  0  0  0  0  0
   52.0261    4.5882   18.2385 H   0  0  0  0  0  0  0  0  0  0  0  0
   50.4575   13.9861    9.1026 H   0  0  0  0  0  0  0  0  0  0  0  0
   48.9942   13.3308    8.3822 H   0  0  0  0  0  0  0  0  0  0  0  0
   47.6402   12.0065    9.7460 H   0  0  0  0  0  0  0  0  0  0  0  0
   48.1552   10.4438   10.4232 H   0  0  0  0  0  0  0  0  0  0  0  0
   51.2671   11.7405    9.7071 H   0  0  0  0  0  0  0  0  0  0  0  0
   49.9080   10.9610    8.9198 H   0  0  0  0  0  0  0  0  0  0  0  0
   48.3787   10.7112   19.7253 H   0  0  0  0  0  0  0  0  0  0  0  0
   50.6624   10.2176   20.5766 H   0  0  0  0  0  0  0  0  0  0  0  0
   50.4494    2.7134   18.5700 H   0  0  0  0  0  0  0  0  0  0  0  0
   48.1744    2.8171   17.5769 H   0  0  0  0  0  0  0  0  0  0  0  0
   48.9197    7.0217   13.5742 H   0  0  0  0  0  0  0  0  0  0  0  0
   50.3706    7.8244   12.9889 H   0  0  0  0  0  0  0  0  0  0  0  0
   48.3566   10.3096   15.0174 H   0  0  0  0  0  0  0  0  0  0  0  0
   50.0164   10.6085   15.5475 H   0  0  0  0  0  0  0  0  0  0  0  0
   48.3397    8.3218   11.6193 H   0  0  0  0  0  0  0  0  0  0  0  0
   47.5428    9.0193   13.0350 H   0  0  0  0  0  0  0  0  0  0  0  0
   49.5494   11.8411   13.5031 H   0  0  0  0  0  0  0  0  0  0  0  0
   50.8494   10.6861   13.2780 H   0  0  0  0  0  0  0  0  0  0  0  0
   51.9992    8.7883   16.3012 H   0  0  0  0  0  0  0  0  0  0  0  0
   49.2554    9.5024   20.3819 H   0  0  0  0  0  0  0  0  0  0  0  0
   47.6498   10.4765   10.7859 H   0  0  0  0  0  0  0  0  0  0  0  0
   47.4431   11.4444   12.2268 H   0  0  0  0  0  0  0  0  0  0  0  0
   49.9021   14.1250    6.9521 H   0  0  0  0  0  0  0  0  0  0  0  0
   49.3858    4.2379   15.9431 H   0  0  0  0  0  0  0  0  0  0  0  0
   47.1775    5.7481   20.1146 H   0  0  0  0  0  0  0  0  0  0  0  0
   49.8341   12.2647    8.1068 H   0  0  0  0  0  0  0  0  0  0  0  0
   48.6501   12.1517    6.7845 H   0  0  0  0  0  0  0  0  0  0  0  0
   49.7556   11.8556   10.2150 H   0  0  0  0  0  0  0  0  0  0  0  0
   49.3295   12.9109   11.5608 H   0  0  0  0  0  0  0  0  0  0  0  0
   46.8498   12.9886    8.3556 H   0  0  0  0  0  0  0  0  0  0  0  0
   47.4880   11.3966    8.7962 H   0  0  0  0  0  0  0  0  0  0  0  0
   52.9911    9.8921   18.2888 H   0  0  0  0  0  0  0  0  0  0  0  0
   51.6058   10.2807   20.3108 H   0  0  0  0  0  0  0  0  0  0  0  0
   47.7303    3.3534   19.8106 H   0  0  0  0  0  0  0  0  0  0  0  0
   48.8550    2.5963   17.7288 H   0  0  0  0  0  0  0  0  0  0  0  0
   50.3669    8.9284   13.6290 H   0  0  0  0  0  0  0  0  0  0  0  0
   47.8134    9.6793   15.2320 H   0  0  0  0  0  0  0  0  0  0  0  0
   49.7176   11.6774   11.7128 H   0  0  0  0  0  0  0  0  0  0  0  0
   48.4694    6.9326   17.1538 H   0  0  0  0  0  0  0  0  0  0  0  0
  2  1  2  0
  3  1  1  0
  4  6  1  0
  5  1  1  0
  6  3  2  0
  7  2  1  0
  8  7  2  0
  9 13  1  0
 10  5  1  0
 11  5  1  0
 12 10  1  0
 13 11  1  0
 14  3  1  0
 15  6  1  0
 16  9  1  0
 17 21  1  0
 18  7  1  0
 19  8  1  0
 20 22  1  0
 21 23  1  0
 22 16  1  0
 23 20  1  0
 24 14  2  0
 25 15  2  0
 26 19  2  0
 27 18  2  0
  9 12  1  0
  8  4  1  0
 24 25  1  0
 27 26  1  0
 29 28  2  0
 30 28  1  0
 31 33  1  0
 32 28  1  0
 33 30  2  0
 34 29  1  0
 35 34  2  0
 36 40  1  0
 37 32  1  0
 38 32  1  0
 39 37  1  0
 40 38  1  0
 41 30  1  0
 42 33  1  0
 43 36  1  0
 44 48  1  0
 45 34  1  0
 46 35  1  0
 47 49  1  0
 48 50  1  0
 49 43  1  0
 50 47  1  0
 51 41  2  0
 52 42  2  0
 53 46  2  0
 54 45  2  0
 36 39  1  0
 35 31  1  0
 51 52  1  0
 54 53  1  0
 56 58  1  0
 57 55  1  0
 58 57  2  0
 59 55  2  0
 60 56  2  0
 61 55  1  0
 62 56  1  0
 10 63  1  0
 10 64  1  0
 11 65  1  0
 11 66  1  0
 12 67  1  0
 12 68  1  0
 13 69  1  0
 13 70  1  0
 14 71  1  0
 15 72  1  0
 16 73  1  0
 16 74  1  0
 17 75  1  0
 18 76  1  0
 19 77  1  0
 21 78  1  0
 21 79  1  0
 22 80  1  0
 22 81  1  0
 23 82  1  0
 23 83  1  0
 24 84  1  0
 25 85  1  0
 26 86  1  0
 27 87  1  0
 37 88  1  0
 37 89  1  0
 38 90  1  0
 38 91  1  0
 39 92  1  0
 39 93  1  0
 40 94  1  0
 40 95  1  0
 41 96  1  0
 42 97  1  0
 43 98  1  0
 43 99  1  0
 44100  1  0
 45101  1  0
 46102  1  0
 48103  1  0
 48104  1  0
 49105  1  0
 49106  1  0
 50107  1  0
 50108  1  0
 51109  1  0
 52110  1  0
 53111  1  0
 54112  1  0
 57113  1  0
 58114  1  0
 61115  1  0
 62116  1  0
M  END
> <Uni-Dock RESULT> 
ENERGY=   -5.148  LOWER_BOUND=    1.948  UPPER_BOUND=    4.329
INTER + INTRA:          -5.148
INTER:                  -5.148
INTRA:                   0.000
UNBOUND:                 0.000

$$$$

     RDKit          3D

116121  0  0  0  0  0  0  0  0999 V2000
   53.0796    8.2443   11.8117 C   0  0  0  0  0  0  0  0  0  0  0  0
   52.3346    8.0299   10.7570 N   0  0  0  0  0  0  0  0  0  0  0  0
   54.5815    8.2799   11.7703 C   0  0  0  0  0  0  0  0  0  0  0  0
   54.4420   10.1651    9.7081 S   0  0  0  0  0  0  0  0  0  0  0  0
   52.4553    8.4297   13.0527 N   0  0  0  0  0  0  0  0  0  0  0  0
   55.2730    9.1698   10.9349 C   0  0  0  0  0  0  0  0  0  0  0  0
   52.8505    7.8639    9.4581 C   0  0  0  0  0  0  0  0  0  0  0  0
   53.7120    8.7842    8.8244 C   0  0  0  0  0  0  0  0  0  0  0  0
   51.2222    8.7815   15.6629 N   0  0  0  0  0  0  0  0  0  0  0  0
   51.0005    8.2463   13.1680 C   0  0  0  0  0  0  0  0  0  0  0  0
   53.0579    9.3007   14.0890 C   0  0  0  0  0  0  0  0  0  0  0  0
   50.5525    7.9767   14.6271 C   0  0  0  0  0  0  0  0  0  0  0  0
   52.0176    9.8667   15.0802 C   0  0  0  0  0  0  0  0  0  0  0  0
   55.2798    7.4284   12.6399 C   0  0  0  0  0  0  0  0  0  0  0  0
   56.6688    9.2262   11.0148 C   0  0  0  0  0  0  0  0  0  0  0  0
   50.3701    9.1830   16.7874 C   0  0  0  0  0  0  0  0  0  0  0  0
   47.7075   14.1765   17.8039 O   0  0  0  0  0  0  0  0  0  0  0  0
   52.3878    6.7633    8.7246 C   0  0  0  0  0  0  0  0  0  0  0  0
   54.0790    8.5889    7.4831 C   0  0  0  0  0  0  0  0  0  0  0  0
   49.9697   11.5757   16.5083 O   0  0  0  0  0  0  0  0  0  0  0  0
   48.6654   13.1263   17.8571 C   0  0  0  0  0  0  0  0  0  0  0  0
   49.3305   10.2957   16.5445 C   0  0  0  0  0  0  0  0  0  0  0  0
   49.0372   12.6566   16.4527 C   0  0  0  0  0  0  0  0  0  0  0  0
   56.6723    7.4889   12.6997 C   0  0  0  0  0  0  0  0  0  0  0  0
   57.3631    8.3968   11.8981 C   0  0  0  0  0  0  0  0  0  0  0  0
   53.6147    7.4811    6.7744 C   0  0  0  0  0  0  0  0  0  0  0  0
   52.7736    6.5622    7.3963 C   0  0  0  0  0  0  0  0  0  0  0  0
   53.1846    8.6409   11.4476 C   0  0  0  0  0  0  0  0  0  0  0  0
   52.5537    7.8471   10.6266 N   0  0  0  0  0  0  0  0  0  0  0  0
   54.6777    8.8037   11.4559 C   0  0  0  0  0  0  0  0  0  0  0  0
   54.9679    6.0190   11.5718 S   0  0  0  0  0  0  0  0  0  0  0  0
   52.4439    9.4052   12.3641 N   0  0  0  0  0  0  0  0  0  0  0  0
   55.5419    7.7081   11.5936 C   0  0  0  0  0  0  0  0  0  0  0  0
   53.1676    7.0142    9.6749 C   0  0  0  0  0  0  0  0  0  0  0  0
   54.1825    6.0844    9.9635 C   0  0  0  0  0  0  0  0  0  0  0  0
   50.5780   10.2627   14.5542 N   0  0  0  0  0  0  0  0  0  0  0  0
   50.9794    9.5311   12.1921 C   0  0  0  0  0  0  0  0  0  0  0  0
   52.9018    9.5190   13.7656 C   0  0  0  0  0  0  0  0  0  0  0  0
   50.2204    9.2818   13.5108 C   0  0  0  0  0  0  0  0  0  0  0  0
   52.0343   10.4998   14.5852 C   0  0  0  0  0  0  0  0  0  0  0  0
   55.1971   10.1101   11.4002 C   0  0  0  0  0  0  0  0  0  0  0  0
   56.9215    7.9383   11.7053 C   0  0  0  0  0  0  0  0  0  0  0  0
   50.0144    9.8849   15.8569 C   0  0  0  0  0  0  0  0  0  0  0  0
   47.6975   12.8953   19.3262 O   0  0  0  0  0  0  0  0  0  0  0  0
   52.6287    7.0322    8.3768 C   0  0  0  0  0  0  0  0  0  0  0  0
   54.6407    5.2087    8.9681 C   0  0  0  0  0  0  0  0  0  0  0  0
   49.3108   10.7173   18.0651 O   0  0  0  0  0  0  0  0  0  0  0  0
   47.4013   12.3087   18.0576 C   0  0  0  0  0  0  0  0  0  0  0  0
   49.9967   11.0542   16.8577 C   0  0  0  0  0  0  0  0  0  0  0  0
   47.8856   10.8555   18.0081 C   0  0  0  0  0  0  0  0  0  0  0  0
   56.5717   10.3244   11.4999 C   0  0  0  0  0  0  0  0  0  0  0  0
   57.4339    9.2403   11.6600 C   0  0  0  0  0  0  0  0  0  0  0  0
   54.0967    5.2487    7.6811 C   0  0  0  0  0  0  0  0  0  0  0  0
   53.0953    6.1667    7.3827 C   0  0  0  0  0  0  0  0  0  0  0  0
   51.5573   10.0107   14.7814 C   0  0  0  0  0  0  0  0  0  0  0  0
   52.8420    8.3351   11.6684 C   0  0  0  0  0  0  0  0  0  0  0  0
   51.9288    9.7633   13.3884 C   0  0  0  0  0  0  0  0  0  0  0  0
   52.4898    8.5919   13.0645 C   0  0  0  0  0  0  0  0  0  0  0  0
   51.6656    9.2477   15.7223 O   0  0  0  0  0  0  0  0  0  0  0  0
   52.6620    9.0684   10.7152 O   0  0  0  0  0  0  0  0  0  0  0  0
   51.0438   11.2426   14.9118 O   0  0  0  0  0  0  0  0  0  0  0  0
   53.4115    7.1265   11.5485 O   0  0  0  0  0  0  0  0  0  0  0  0
   50.6663    7.3993   12.5591 H   0  0  0  0  0  0  0  0  0  0  0  0
   50.5007    9.1455   12.7885 H   0  0  0  0  0  0  0  0  0  0  0  0
   53.5799   10.1470   13.6230 H   0  0  0  0  0  0  0  0  0  0  0  0
   53.7904    8.7102   14.6487 H   0  0  0  0  0  0  0  0  0  0  0  0
   49.4640    8.0999   14.6652 H   0  0  0  0  0  0  0  0  0  0  0  0
   50.7499    6.9247   14.8626 H   0  0  0  0  0  0  0  0  0  0  0  0
   52.5582   10.4075   15.8670 H   0  0  0  0  0  0  0  0  0  0  0  0
   51.3778   10.5952   14.5604 H   0  0  0  0  0  0  0  0  0  0  0  0
   54.7364    6.7324   13.2761 H   0  0  0  0  0  0  0  0  0  0  0  0
   57.2266    9.9099   10.3790 H   0  0  0  0  0  0  0  0  0  0  0  0
   51.0306    9.5050   17.6005 H   0  0  0  0  0  0  0  0  0  0  0  0
   49.8503    8.2892   17.1541 H   0  0  0  0  0  0  0  0  0  0  0  0
   46.8543   13.7865   17.5521 H   0  0  0  0  0  0  0  0  0  0  0  0
   51.7136    6.0598    9.2077 H   0  0  0  0  0  0  0  0  0  0  0  0
   54.7437    9.2960    6.9885 H   0  0  0  0  0  0  0  0  0  0  0  0
   49.5539   13.4924   18.3771 H   0  0  0  0  0  0  0  0  0  0  0  0
   48.2578   12.3081   18.4616 H   0  0  0  0  0  0  0  0  0  0  0  0
   48.6035   10.2756   17.3677 H   0  0  0  0  0  0  0  0  0  0  0  0
   48.7922   10.1270   15.6047 H   0  0  0  0  0  0  0  0  0  0  0  0
   49.5177   13.4819   15.9150 H   0  0  0  0  0  0  0  0  0  0  0  0
   48.1476   12.3886   15.8690 H   0  0  0  0  0  0  0  0  0  0  0  0
   57.2114    6.8370   13.3815 H   0  0  0  0  0  0  0  0  0  0  0  0
   58.4476    8.4483   11.9463 H   0  0  0  0  0  0  0  0  0  0  0  0
   53.9113    7.3339    5.7362 H   0  0  0  0  0  0  0  0  0  0  0  0
   52.4118    5.6968    6.8516 H   0  0  0  0  0  0  0  0  0  0  0  0
   50.5816    8.8393   11.4376 H   0  0  0  0  0  0  0  0  0  0  0  0
   50.7678   10.5441   11.8265 H   0  0  0  0  0  0  0  0  0  0  0  0
   52.8810    8.5238   14.2348 H   0  0  0  0  0  0  0  0  0  0  0  0
   53.9368    9.8767   13.8102 H   0  0  0  0  0  0  0  0  0  0  0  0
   49.1456    9.3583   13.3131 H   0  0  0  0  0  0  0  0  0  0  0  0
   50.4235    8.2604   13.8495 H   0  0  0  0  0  0  0  0  0  0  0  0
   52.4296   10.5159   15.6093 H   0  0  0  0  0  0  0  0  0  0  0  0
   52.1894   11.5072   14.1831 H   0  0  0  0  0  0  0  0  0  0  0  0
   54.5235   10.9568   11.2999 H   0  0  0  0  0  0  0  0  0  0  0  0
   57.6129    7.1003   11.8224 H   0  0  0  0  0  0  0  0  0  0  0  0
   48.9804    9.5429   15.7114 H   0  0  0  0  0  0  0  0  0  0  0  0
   50.5476    9.0255   16.2874 H   0  0  0  0  0  0  0  0  0  0  0  0
   47.5345   13.8466   19.2426 H   0  0  0  0  0  0  0  0  0  0  0  0
   51.8199    7.7263    8.1504 H   0  0  0  0  0  0  0  0  0  0  0  0
   55.4298    4.4944    9.1904 H   0  0  0  0  0  0  0  0  0  0  0  0
   47.8725   12.9261   17.2837 H   0  0  0  0  0  0  0  0  0  0  0  0
   46.3170   12.3441   17.9200 H   0  0  0  0  0  0  0  0  0  0  0  0
   49.5747   11.9590   16.3979 H   0  0  0  0  0  0  0  0  0  0  0  0
   51.0257   11.3010   17.1515 H   0  0  0  0  0  0  0  0  0  0  0  0
   47.4940   10.3188   18.8808 H   0  0  0  0  0  0  0  0  0  0  0  0
   47.4975   10.3645   17.1106 H   0  0  0  0  0  0  0  0  0  0  0  0
   56.9700   11.3358   11.4549 H   0  0  0  0  0  0  0  0  0  0  0  0
   58.5058    9.4096   11.7540 H   0  0  0  0  0  0  0  0  0  0  0  0
   54.4596    4.5669    6.9131 H   0  0  0  0  0  0  0  0  0  0  0  0
   52.6633    6.1993    6.3834 H   0  0  0  0  0  0  0  0  0  0  0  0
   51.7313   10.5450   12.6632 H   0  0  0  0  0  0  0  0  0  0  0  0
   52.6889    7.8131   13.7917 H   0  0  0  0  0  0  0  0  0  0  0  0
   50.8298   11.3132   15.8644 H   0  0  0  0  0  0  0  0  0  0  0  0
   53.5982    7.0493   10.5889 H   0  0  0  0  0  0  0  0  0  0  0  0
  2  1  2  0
  3  1  1  0
  4  6  1  0
  5  1  1  0
  6  3  2  0
  7  2  1  0
  8  7  2  0
  9 13  1  0
 10  5  1  0
 11  5  1  0
 12 10  1  0
 13 11  1  0
 14  3  1  0
 15  6  1  0
 16  9  1  0
 17 21  1  0
 18  7  1  0
 19  8  1  0
 20 22  1  0
 21 23  1  0
 22 16  1  0
 23 20  1  0
 24 14  2  0
 25 15  2  0
 26 19  2  0
 27 18  2  0
  9 12  1  0
  8  4  1  0
 24 25  1  0
 27 26  1  0
 29 28  2  0
 30 28  1  0
 31 33  1  0
 32 28  1  0
 33 30  2  0
 34 29  1  0
 35 34  2  0
 36 40  1  0
 37 32  1  0
 38 32  1  0
 39 37  1  0
 40 38  1  0
 41 30  1  0
 42 33  1  0
 43 36  1  0
 44 48  1  0
 45 34  1  0
 46 35  1  0
 47 49  1  0
 48 50  1  0
 49 43  1  0
 50 47  1  0
 51 41  2  0
 52 42  2  0
 53 46  2  0
 54 45  2  0
 36 39  1  0
 35 31  1  0
 51 52  1  0
 54 53  1  0
 56 58  1  0
 57 55  1  0
 58 57  2  0
 59 55  2  0
 60 56  2  0
 61 55  1  0
 62 56  1  0
 10 63  1  0
 10 64  1  0
 11 65  1  0
 11 66  1  0
 12 67  1  0
 12 68  1  0
 13 69  1  0
 13 70  1  0
 14 71  1  0
 15 72  1  0
 16 73  1  0
 16 74  1  0
 17 75  1  0
 18 76  1  0
 19 77  1  0
 21 78  1  0
 21 79  1  0
 22 80  1  0
 22 81  1  0
 23 82  1  0
 23 83  1  0
 24 84  1  0
 25 85  1  0
 26 86  1  0
 27 87  1  0
 37 88  1  0
 37 89  1  0
 38 90  1  0
 38 91  1  0
 39 92  1  0
 39 93  1  0
 40 94  1  0
 40 95  1  0
 41 96  1  0
 42 97  1  0
 43 98  1  0
 43 99  1  0
 44100  1  0
 45101  1  0
 46102  1  0
 48103  1  0
 48104  1  0
 49105  1  0
 49106  1  0
 50107  1  0
 50108  1  0
 51109  1  0
 52110  1  0
 53111  1  0
 54112  1  0
 57113  1  0
 58114  1  0
 61115  1  0
 62116  1  0
M  END
> <Uni-Dock RESULT> 
ENERGY=   -5.131  LOWER_BOUND=    4.910  UPPER_BOUND=    9.162
INTER + INTRA:          -5.131
INTER:                  -5.131
INTRA:                   0.000
UNBOUND:                 0.000

$$$$
