
     RDKit          3D

116121  0  0  0  0  0  0  0  0999 V2000
   49.3282   10.7840   13.7086 C   0  0  0  0  0  0  0  0  0  0  0  0
   48.5147   11.8056   13.6673 N   0  0  0  0  0  0  0  0  0  0  0  0
   50.5933   10.7703   14.5153 C   0  0  0  0  0  0  0  0  0  0  0  0
   49.1366   11.5951   16.7605 S   0  0  0  0  0  0  0  0  0  0  0  0
   49.0242    9.6499   12.9328 N   0  0  0  0  0  0  0  0  0  0  0  0
   50.5911   11.0296   15.8925 C   0  0  0  0  0  0  0  0  0  0  0  0
   48.6872   13.0007   14.3872 C   0  0  0  0  0  0  0  0  0  0  0  0
   48.8830   13.0713   15.7785 C   0  0  0  0  0  0  0  0  0  0  0  0
   46.7784    7.8094   13.5950 N   0  0  0  0  0  0  0  0  0  0  0  0
   49.2889    8.2871   13.4476 C   0  0  0  0  0  0  0  0  0  0  0  0
   47.7772    9.6636   12.1340 C   0  0  0  0  0  0  0  0  0  0  0  0
   48.0900    7.7901   14.2896 C   0  0  0  0  0  0  0  0  0  0  0  0
   46.5889    9.1571   12.9889 C   0  0  0  0  0  0  0  0  0  0  0  0
   51.7864   10.4188   13.8632 C   0  0  0  0  0  0  0  0  0  0  0  0
   51.7845   10.8988   16.6137 C   0  0  0  0  0  0  0  0  0  0  0  0
   46.6716    6.7246   12.6026 C   0  0  0  0  0  0  0  0  0  0  0  0
   43.6155    2.3343   12.6236 O   0  0  0  0  0  0  0  0  0  0  0  0
   48.5399   14.1963   13.6705 C   0  0  0  0  0  0  0  0  0  0  0  0
   48.9478   14.3187   16.4190 C   0  0  0  0  0  0  0  0  0  0  0  0
   45.1730    5.3696   11.2238 O   0  0  0  0  0  0  0  0  0  0  0  0
   43.6806    3.6913   12.1998 C   0  0  0  0  0  0  0  0  0  0  0  0
   45.2170    6.4246   12.1930 C   0  0  0  0  0  0  0  0  0  0  0  0
   45.1048    4.0632   11.7927 C   0  0  0  0  0  0  0  0  0  0  0  0
   52.9707   10.3037   14.5901 C   0  0  0  0  0  0  0  0  0  0  0  0
   52.9667   10.5349   15.9635 C   0  0  0  0  0  0  0  0  0  0  0  0
   48.8076   15.4989   15.6853 C   0  0  0  0  0  0  0  0  0  0  0  0
   48.6055   15.4376   14.3094 C   0  0  0  0  0  0  0  0  0  0  0  0
   49.3430   10.5305   14.6453 C   0  0  0  0  0  0  0  0  0  0  0  0
   48.8312   10.7970   15.8154 N   0  0  0  0  0  0  0  0  0  0  0  0
   50.1191   11.5064   13.8082 C   0  0  0  0  0  0  0  0  0  0  0  0
   48.1369   13.4407   14.1940 S   0  0  0  0  0  0  0  0  0  0  0  0
   49.1965    9.2400   14.1236 N   0  0  0  0  0  0  0  0  0  0  0  0
   49.6524   12.7940   13.5177 C   0  0  0  0  0  0  0  0  0  0  0  0
   48.9239   12.0309   16.4773 C   0  0  0  0  0  0  0  0  0  0  0  0
   48.5823   13.2754   15.9173 C   0  0  0  0  0  0  0  0  0  0  0  0
   48.1014    6.6047   13.2876 N   0  0  0  0  0  0  0  0  0  0  0  0
   48.5149    9.0862   12.8219 C   0  0  0  0  0  0  0  0  0  0  0  0
   49.0444    8.0913   15.0452 C   0  0  0  0  0  0  0  0  0  0  0  0
   48.5293    7.6247   12.3173 C   0  0  0  0  0  0  0  0  0  0  0  0
   47.8919    7.1547   14.6330 C   0  0  0  0  0  0  0  0  0  0  0  0
   51.3326   11.0609   13.2599 C   0  0  0  0  0  0  0  0  0  0  0  0
   50.4082   13.6188   12.6708 C   0  0  0  0  0  0  0  0  0  0  0  0
   47.0327    5.7172   12.8281 C   0  0  0  0  0  0  0  0  0  0  0  0
   44.1705    2.7746   11.2622 O   0  0  0  0  0  0  0  0  0  0  0  0
   49.2774   11.9847   17.8333 C   0  0  0  0  0  0  0  0  0  0  0  0
   48.6199   14.4353   16.7035 C   0  0  0  0  0  0  0  0  0  0  0  0
   44.6826    5.3378   12.2525 O   0  0  0  0  0  0  0  0  0  0  0  0
   43.7059    3.9394   10.5784 C   0  0  0  0  0  0  0  0  0  0  0  0
   45.6355    6.3354   12.6382 C   0  0  0  0  0  0  0  0  0  0  0  0
   44.6631    5.0977   10.8396 C   0  0  0  0  0  0  0  0  0  0  0  0
   52.0752   11.8905   12.4201 C   0  0  0  0  0  0  0  0  0  0  0  0
   51.6128   13.1691   12.1246 C   0  0  0  0  0  0  0  0  0  0  0  0
   48.9826   14.3669   18.0505 C   0  0  0  0  0  0  0  0  0  0  0  0
   49.3101   13.1391   18.6164 C   0  0  0  0  0  0  0  0  0  0  0  0
   47.4413    7.6858   12.9225 C   0  0  0  0  0  0  0  0  0  0  0  0
   48.8581   10.7582   14.5701 C   0  0  0  0  0  0  0  0  0  0  0  0
   47.8139    9.0760   13.1860 C   0  0  0  0  0  0  0  0  0  0  0  0
   48.4966    9.3666   14.2994 C   0  0  0  0  0  0  0  0  0  0  0  0
   47.7006    6.7118   13.6004 O   0  0  0  0  0  0  0  0  0  0  0  0
   48.6316   11.7284   13.8734 O   0  0  0  0  0  0  0  0  0  0  0  0
   46.7412    7.6038   11.7820 O   0  0  0  0  0  0  0  0  0  0  0  0
   49.5016   10.8491   15.7429 O   0  0  0  0  0  0  0  0  0  0  0  0
   50.2002    8.2361   14.0504 H   0  0  0  0  0  0  0  0  0  0  0  0
   49.4540    7.6147   12.5969 H   0  0  0  0  0  0  0  0  0  0  0  0
   47.5627   10.6625   11.7384 H   0  0  0  0  0  0  0  0  0  0  0  0
   47.9141    9.0207   11.2568 H   0  0  0  0  0  0  0  0  0  0  0  0
   48.3003    6.7816   14.6660 H   0  0  0  0  0  0  0  0  0  0  0  0
   48.0026    8.4244   15.1825 H   0  0  0  0  0  0  0  0  0  0  0  0
   45.6701    9.1866   12.3930 H   0  0  0  0  0  0  0  0  0  0  0  0
   46.4221    9.8614   13.8159 H   0  0  0  0  0  0  0  0  0  0  0  0
   51.7864   10.2270   12.7937 H   0  0  0  0  0  0  0  0  0  0  0  0
   51.8041   11.0940   17.6842 H   0  0  0  0  0  0  0  0  0  0  0  0
   47.0844    5.8020   13.0241 H   0  0  0  0  0  0  0  0  0  0  0  0
   47.2661    6.9204   11.7046 H   0  0  0  0  0  0  0  0  0  0  0  0
   43.7875    1.7812   11.8407 H   0  0  0  0  0  0  0  0  0  0  0  0
   48.3674   14.1497   12.5984 H   0  0  0  0  0  0  0  0  0  0  0  0
   49.1102   14.3770   17.4928 H   0  0  0  0  0  0  0  0  0  0  0  0
   42.9823    3.8443   11.3688 H   0  0  0  0  0  0  0  0  0  0  0  0
   43.3316    4.3194   13.0266 H   0  0  0  0  0  0  0  0  0  0  0  0
   44.5989    6.1888   13.0665 H   0  0  0  0  0  0  0  0  0  0  0  0
   44.7718    7.2984   11.7062 H   0  0  0  0  0  0  0  0  0  0  0  0
   45.4478    3.3622   11.0263 H   0  0  0  0  0  0  0  0  0  0  0  0
   45.7948    3.9541   12.6347 H   0  0  0  0  0  0  0  0  0  0  0  0
   53.8906   10.0271   14.0822 H   0  0  0  0  0  0  0  0  0  0  0  0
   53.8880   10.4479   16.5328 H   0  0  0  0  0  0  0  0  0  0  0  0
   48.8526   16.4606   16.1895 H   0  0  0  0  0  0  0  0  0  0  0  0
   48.4883   16.3490   13.7316 H   0  0  0  0  0  0  0  0  0  0  0  0
   47.4751    9.4279   12.9213 H   0  0  0  0  0  0  0  0  0  0  0  0
   48.9923    9.7160   12.0603 H   0  0  0  0  0  0  0  0  0  0  0  0
   48.8796    8.4089   16.0802 H   0  0  0  0  0  0  0  0  0  0  0  0
   49.9901    7.5357   15.0402 H   0  0  0  0  0  0  0  0  0  0  0  0
   47.9427    7.5725   11.3923 H   0  0  0  0  0  0  0  0  0  0  0  0
   49.5617    7.3787   12.0374 H   0  0  0  0  0  0  0  0  0  0  0  0
   46.9507    7.7122   14.6925 H   0  0  0  0  0  0  0  0  0  0  0  0
   47.8358    6.3323   15.3534 H   0  0  0  0  0  0  0  0  0  0  0  0
   51.6983   10.0608   13.4894 H   0  0  0  0  0  0  0  0  0  0  0  0
   50.0694   14.6265   12.4386 H   0  0  0  0  0  0  0  0  0  0  0  0
   46.9443    4.8768   13.5297 H   0  0  0  0  0  0  0  0  0  0  0  0
   47.3527    5.2439   11.8925 H   0  0  0  0  0  0  0  0  0  0  0  0
   44.3345    3.0706   12.1808 H   0  0  0  0  0  0  0  0  0  0  0  0
   49.5177   11.0223   18.2811 H   0  0  0  0  0  0  0  0  0  0  0  0
   48.3678   15.4006   16.2710 H   0  0  0  0  0  0  0  0  0  0  0  0
   43.6478    3.7137    9.5103 H   0  0  0  0  0  0  0  0  0  0  0  0
   42.7029    4.1638   10.9536 H   0  0  0  0  0  0  0  0  0  0  0  0
   45.6424    7.1572   11.9126 H   0  0  0  0  0  0  0  0  0  0  0  0
   45.2791    6.7381   13.5896 H   0  0  0  0  0  0  0  0  0  0  0  0
   45.6672    4.8258   10.4975 H   0  0  0  0  0  0  0  0  0  0  0  0
   44.3222    5.9993   10.3171 H   0  0  0  0  0  0  0  0  0  0  0  0
   53.0122   11.5377   11.9990 H   0  0  0  0  0  0  0  0  0  0  0  0
   52.1891   13.8208   11.4705 H   0  0  0  0  0  0  0  0  0  0  0  0
   49.0053   15.2714   18.6520 H   0  0  0  0  0  0  0  0  0  0  0  0
   49.5799   13.0729   19.6667 H   0  0  0  0  0  0  0  0  0  0  0  0
   47.5098    9.8290   12.4678 H   0  0  0  0  0  0  0  0  0  0  0  0
   48.7921    8.6160   15.0234 H   0  0  0  0  0  0  0  0  0  0  0  0
   46.5377    6.6496   11.6949 H   0  0  0  0  0  0  0  0  0  0  0  0
   49.6994   11.8044   15.8357 H   0  0  0  0  0  0  0  0  0  0  0  0
  2  1  2  0
  3  1  1  0
  4  6  1  0
  5  1  1  0
  6  3  2  0
  7  2  1  0
  8  7  2  0
  9 13  1  0
 10  5  1  0
 11  5  1  0
 12 10  1  0
 13 11  1  0
 14  3  1  0
 15  6  1  0
 16  9  1  0
 17 21  1  0
 18  7  1  0
 19  8  1  0
 20 22  1  0
 21 23  1  0
 22 16  1  0
 23 20  1  0
 24 14  2  0
 25 15  2  0
 26 19  2  0
 27 18  2  0
  9 12  1  0
  8  4  1  0
 24 25  1  0
 27 26  1  0
 29 28  2  0
 30 28  1  0
 31 33  1  0
 32 28  1  0
 33 30  2  0
 34 29  1  0
 35 34  2  0
 36 40  1  0
 37 32  1  0
 38 32  1  0
 39 37  1  0
 40 38  1  0
 41 30  1  0
 42 33  1  0
 43 36  1  0
 44 48  1  0
 45 34  1  0
 46 35  1  0
 47 49  1  0
 48 50  1  0
 49 43  1  0
 50 47  1  0
 51 41  2  0
 52 42  2  0
 53 46  2  0
 54 45  2  0
 36 39  1  0
 35 31  1  0
 51 52  1  0
 54 53  1  0
 56 58  1  0
 57 55  1  0
 58 57  2  0
 59 55  2  0
 60 56  2  0
 61 55  1  0
 62 56  1  0
 10 63  1  0
 10 64  1  0
 11 65  1  0
 11 66  1  0
 12 67  1  0
 12 68  1  0
 13 69  1  0
 13 70  1  0
 14 71  1  0
 15 72  1  0
 16 73  1  0
 16 74  1  0
 17 75  1  0
 18 76  1  0
 19 77  1  0
 21 78  1  0
 21 79  1  0
 22 80  1  0
 22 81  1  0
 23 82  1  0
 23 83  1  0
 24 84  1  0
 25 85  1  0
 26 86  1  0
 27 87  1  0
 37 88  1  0
 37 89  1  0
 38 90  1  0
 38 91  1  0
 39 92  1  0
 39 93  1  0
 40 94  1  0
 40 95  1  0
 41 96  1  0
 42 97  1  0
 43 98  1  0
 43 99  1  0
 44100  1  0
 45101  1  0
 46102  1  0
 48103  1  0
 48104  1  0
 49105  1  0
 49106  1  0
 50107  1  0
 50108  1  0
 51109  1  0
 52110  1  0
 53111  1  0
 54112  1  0
 57113  1  0
 58114  1  0
 61115  1  0
 62116  1  0
M  END
> <Uni-Dock RESULT> 
ENERGY=   -6.098  LOWER_BOUND=    0.000  UPPER_BOUND=    0.000
INTER + INTRA:          -6.098
INTER:                  -6.098
INTRA:                   0.000
UNBOUND:                 0.000

$$$$

     RDKit          3D

116121  0  0  0  0  0  0  0  0999 V2000
   50.9723    8.6149   15.5909 C   0  0  0  0  0  0  0  0  0  0  0  0
   51.2227    7.7344   16.5232 N   0  0  0  0  0  0  0  0  0  0  0  0
   52.0040    9.5631   15.0547 C   0  0  0  0  0  0  0  0  0  0  0  0
   53.7276    7.3983   14.6229 S   0  0  0  0  0  0  0  0  0  0  0  0
   49.6622    8.7050   15.0848 N   0  0  0  0  0  0  0  0  0  0  0  0
   53.2177    9.1068   14.5228 C   0  0  0  0  0  0  0  0  0  0  0  0
   52.4791    7.5299   17.1197 C   0  0  0  0  0  0  0  0  0  0  0  0
   53.6670    7.2792   16.4089 C   0  0  0  0  0  0  0  0  0  0  0  0
   48.4706    6.6078   13.3380 N   0  0  0  0  0  0  0  0  0  0  0  0
   49.4221    8.9640   13.6469 C   0  0  0  0  0  0  0  0  0  0  0  0
   48.6425    7.7713   15.6155 C   0  0  0  0  0  0  0  0  0  0  0  0
   49.4268    7.6350   12.8549 C   0  0  0  0  0  0  0  0  0  0  0  0
   48.6556    6.4496   14.8078 C   0  0  0  0  0  0  0  0  0  0  0  0
   51.6926   10.9324   15.0341 C   0  0  0  0  0  0  0  0  0  0  0  0
   54.0970   10.0281   13.9401 C   0  0  0  0  0  0  0  0  0  0  0  0
   47.0814    6.9444   12.9775 C   0  0  0  0  0  0  0  0  0  0  0  0
   43.7650    4.5918    9.5017 O   0  0  0  0  0  0  0  0  0  0  0  0
   52.5102    7.4641   18.5196 C   0  0  0  0  0  0  0  0  0  0  0  0
   54.8545    6.9910   17.0996 C   0  0  0  0  0  0  0  0  0  0  0  0
   44.7962    6.1190   12.6958 O   0  0  0  0  0  0  0  0  0  0  0  0
   44.1797    4.6168   10.8628 C   0  0  0  0  0  0  0  0  0  0  0  0
   46.1309    5.7339   13.0483 C   0  0  0  0  0  0  0  0  0  0  0  0
   44.5207    6.0403   11.2984 C   0  0  0  0  0  0  0  0  0  0  0  0
   52.5819   11.8414   14.4619 C   0  0  0  0  0  0  0  0  0  0  0  0
   53.7769   11.3879   13.9087 C   0  0  0  0  0  0  0  0  0  0  0  0
   54.8664    6.9390   18.4953 C   0  0  0  0  0  0  0  0  0  0  0  0
   53.6935    7.1778   19.2060 C   0  0  0  0  0  0  0  0  0  0  0  0
   51.5734    8.3726   14.8684 C   0  0  0  0  0  0  0  0  0  0  0  0
   52.4643    7.4979   14.4899 N   0  0  0  0  0  0  0  0  0  0  0  0
   51.6916    9.2422   16.0872 C   0  0  0  0  0  0  0  0  0  0  0  0
   52.3854    7.0158   17.6302 S   0  0  0  0  0  0  0  0  0  0  0  0
   50.4292    8.5526   14.0827 N   0  0  0  0  0  0  0  0  0  0  0  0
   52.0015    8.7329   17.3539 C   0  0  0  0  0  0  0  0  0  0  0  0
   53.6704    7.2311   15.1559 C   0  0  0  0  0  0  0  0  0  0  0  0
   53.7873    6.9278   16.5246 C   0  0  0  0  0  0  0  0  0  0  0  0
   48.0146    8.0985   12.4074 N   0  0  0  0  0  0  0  0  0  0  0  0
   49.1099    8.3274   14.7083 C   0  0  0  0  0  0  0  0  0  0  0  0
   50.4864    8.2672   12.6310 C   0  0  0  0  0  0  0  0  0  0  0  0
   47.9397    8.6750   13.7591 C   0  0  0  0  0  0  0  0  0  0  0  0
   49.2916    7.4206   12.1501 C   0  0  0  0  0  0  0  0  0  0  0  0
   51.4176   10.6104   15.9301 C   0  0  0  0  0  0  0  0  0  0  0  0
   52.0248    9.6050   18.4529 C   0  0  0  0  0  0  0  0  0  0  0  0
   46.8362    7.3396   11.9876 C   0  0  0  0  0  0  0  0  0  0  0  0
   43.1161    5.4793   10.5725 O   0  0  0  0  0  0  0  0  0  0  0  0
   54.8192    7.1544   14.3559 C   0  0  0  0  0  0  0  0  0  0  0  0
   55.0330    6.5799   17.0648 C   0  0  0  0  0  0  0  0  0  0  0  0
   45.4242    5.3445   12.1432 O   0  0  0  0  0  0  0  0  0  0  0  0
   43.0538    5.1076   11.9503 C   0  0  0  0  0  0  0  0  0  0  0  0
   46.5663    6.0033   12.7031 C   0  0  0  0  0  0  0  0  0  0  0  0
   44.1860    5.7890   12.7119 C   0  0  0  0  0  0  0  0  0  0  0  0
   51.4447   11.4672   17.0301 C   0  0  0  0  0  0  0  0  0  0  0  0
   51.7474   10.9646   18.2918 C   0  0  0  0  0  0  0  0  0  0  0  0
   56.1660    6.5175   16.2505 C   0  0  0  0  0  0  0  0  0  0  0  0
   56.0581    6.8035   14.8934 C   0  0  0  0  0  0  0  0  0  0  0  0
   48.0935    7.4550   13.5552 C   0  0  0  0  0  0  0  0  0  0  0  0
   51.4795    7.9101   15.1329 C   0  0  0  0  0  0  0  0  0  0  0  0
   49.1622    7.5553   14.5494 C   0  0  0  0  0  0  0  0  0  0  0  0
   50.4079    7.8226   14.1406 C   0  0  0  0  0  0  0  0  0  0  0  0
   48.1866    7.6111   12.3542 O   0  0  0  0  0  0  0  0  0  0  0  0
   51.3802    7.7910   16.3387 O   0  0  0  0  0  0  0  0  0  0  0  0
   46.9324    7.1541   14.1544 O   0  0  0  0  0  0  0  0  0  0  0  0
   52.6522    8.1466   14.5274 O   0  0  0  0  0  0  0  0  0  0  0  0
   50.1603    9.6455   13.2144 H   0  0  0  0  0  0  0  0  0  0  0  0
   48.4518    9.4632   13.5357 H   0  0  0  0  0  0  0  0  0  0  0  0
   48.7976    7.5678   16.6807 H   0  0  0  0  0  0  0  0  0  0  0  0
   47.6581    8.2484   15.5454 H   0  0  0  0  0  0  0  0  0  0  0  0
   49.2502    7.8418   11.7924 H   0  0  0  0  0  0  0  0  0  0  0  0
   50.4348    7.2009   12.9059 H   0  0  0  0  0  0  0  0  0  0  0  0
   47.9088    5.7615   15.2190 H   0  0  0  0  0  0  0  0  0  0  0  0
   49.6239    5.9522   14.9585 H   0  0  0  0  0  0  0  0  0  0  0  0
   50.7547   11.2840   15.4552 H   0  0  0  0  0  0  0  0  0  0  0  0
   55.0438    9.6942   13.5199 H   0  0  0  0  0  0  0  0  0  0  0  0
   47.0513    7.3179   11.9485 H   0  0  0  0  0  0  0  0  0  0  0  0
   46.6766    7.7570   13.5891 H   0  0  0  0  0  0  0  0  0  0  0  0
   42.9136    5.0621    9.4530 H   0  0  0  0  0  0  0  0  0  0  0  0
   51.5921    7.6358   19.0752 H   0  0  0  0  0  0  0  0  0  0  0  0
   55.7770    6.8077   16.5535 H   0  0  0  0  0  0  0  0  0  0  0  0
   43.3865    4.1939   11.4902 H   0  0  0  0  0  0  0  0  0  0  0  0
   45.0483    3.9568   10.9623 H   0  0  0  0  0  0  0  0  0  0  0  0
   46.4875    4.9115   12.4181 H   0  0  0  0  0  0  0  0  0  0  0  0
   46.0735    5.3559   14.0741 H   0  0  0  0  0  0  0  0  0  0  0  0
   43.6585    6.6852   11.1054 H   0  0  0  0  0  0  0  0  0  0  0  0
   45.3432    6.4467   10.7023 H   0  0  0  0  0  0  0  0  0  0  0  0
   52.3347   12.8994   14.4441 H   0  0  0  0  0  0  0  0  0  0  0  0
   54.4730   12.0936   13.4638 H   0  0  0  0  0  0  0  0  0  0  0  0
   55.7885    6.7089   19.0225 H   0  0  0  0  0  0  0  0  0  0  0  0
   53.6911    7.1326   20.2905 H   0  0  0  0  0  0  0  0  0  0  0  0
   49.0339    7.2736   15.0108 H   0  0  0  0  0  0  0  0  0  0  0  0
   49.0057    8.9344   15.6166 H   0  0  0  0  0  0  0  0  0  0  0  0
   51.4113    7.7552   12.3451 H   0  0  0  0  0  0  0  0  0  0  0  0
   50.4915    9.2294   12.1046 H   0  0  0  0  0  0  0  0  0  0  0  0
   46.9997    8.4114   14.2584 H   0  0  0  0  0  0  0  0  0  0  0  0
   47.9235    9.7655   13.6353 H   0  0  0  0  0  0  0  0  0  0  0  0
   49.3316    6.4457   12.6482 H   0  0  0  0  0  0  0  0  0  0  0  0
   49.3970    7.2476   11.0743 H   0  0  0  0  0  0  0  0  0  0  0  0
   51.1809   11.0078   14.9439 H   0  0  0  0  0  0  0  0  0  0  0  0
   52.2721    9.2328   19.4452 H   0  0  0  0  0  0  0  0  0  0  0  0
   46.9069    7.1440   10.9092 H   0  0  0  0  0  0  0  0  0  0  0  0
   45.9560    7.9867   12.0787 H   0  0  0  0  0  0  0  0  0  0  0  0
   44.0448    5.3160   10.3094 H   0  0  0  0  0  0  0  0  0  0  0  0
   54.7327    7.3619   13.2910 H   0  0  0  0  0  0  0  0  0  0  0  0
   55.1293    6.3563   18.1246 H   0  0  0  0  0  0  0  0  0  0  0  0
   42.0801    5.4081   12.3462 H   0  0  0  0  0  0  0  0  0  0  0  0
   43.1425    4.0184   12.0022 H   0  0  0  0  0  0  0  0  0  0  0  0
   46.4408    6.1316   13.7846 H   0  0  0  0  0  0  0  0  0  0  0  0
   47.4095    5.3257   12.5468 H   0  0  0  0  0  0  0  0  0  0  0  0
   44.0980    6.8750   12.6022 H   0  0  0  0  0  0  0  0  0  0  0  0
   44.1491    5.5169   13.7734 H   0  0  0  0  0  0  0  0  0  0  0  0
   51.2303   12.5240   16.9003 H   0  0  0  0  0  0  0  0  0  0  0  0
   51.7708   11.6293   19.1534 H   0  0  0  0  0  0  0  0  0  0  0  0
   57.1263    6.2435   16.6784 H   0  0  0  0  0  0  0  0  0  0  0  0
   56.9304    6.7441   14.2486 H   0  0  0  0  0  0  0  0  0  0  0  0
   48.9051    7.3963   15.5905 H   0  0  0  0  0  0  0  0  0  0  0  0
   50.6681    7.9714   13.0990 H   0  0  0  0  0  0  0  0  0  0  0  0
   46.2890    7.1056   13.4174 H   0  0  0  0  0  0  0  0  0  0  0  0
   53.2989    8.1876   15.2625 H   0  0  0  0  0  0  0  0  0  0  0  0
  2  1  2  0
  3  1  1  0
  4  6  1  0
  5  1  1  0
  6  3  2  0
  7  2  1  0
  8  7  2  0
  9 13  1  0
 10  5  1  0
 11  5  1  0
 12 10  1  0
 13 11  1  0
 14  3  1  0
 15  6  1  0
 16  9  1  0
 17 21  1  0
 18  7  1  0
 19  8  1  0
 20 22  1  0
 21 23  1  0
 22 16  1  0
 23 20  1  0
 24 14  2  0
 25 15  2  0
 26 19  2  0
 27 18  2  0
  9 12  1  0
  8  4  1  0
 24 25  1  0
 27 26  1  0
 29 28  2  0
 30 28  1  0
 31 33  1  0
 32 28  1  0
 33 30  2  0
 34 29  1  0
 35 34  2  0
 36 40  1  0
 37 32  1  0
 38 32  1  0
 39 37  1  0
 40 38  1  0
 41 30  1  0
 42 33  1  0
 43 36  1  0
 44 48  1  0
 45 34  1  0
 46 35  1  0
 47 49  1  0
 48 50  1  0
 49 43  1  0
 50 47  1  0
 51 41  2  0
 52 42  2  0
 53 46  2  0
 54 45  2  0
 36 39  1  0
 35 31  1  0
 51 52  1  0
 54 53  1  0
 56 58  1  0
 57 55  1  0
 58 57  2  0
 59 55  2  0
 60 56  2  0
 61 55  1  0
 62 56  1  0
 10 63  1  0
 10 64  1  0
 11 65  1  0
 11 66  1  0
 12 67  1  0
 12 68  1  0
 13 69  1  0
 13 70  1  0
 14 71  1  0
 15 72  1  0
 16 73  1  0
 16 74  1  0
 17 75  1  0
 18 76  1  0
 19 77  1  0
 21 78  1  0
 21 79  1  0
 22 80  1  0
 22 81  1  0
 23 82  1  0
 23 83  1  0
 24 84  1  0
 25 85  1  0
 26 86  1  0
 27 87  1  0
 37 88  1  0
 37 89  1  0
 38 90  1  0
 38 91  1  0
 39 92  1  0
 39 93  1  0
 40 94  1  0
 40 95  1  0
 41 96  1  0
 42 97  1  0
 43 98  1  0
 43 99  1  0
 44100  1  0
 45101  1  0
 46102  1  0
 48103  1  0
 48104  1  0
 49105  1  0
 49106  1  0
 50107  1  0
 50108  1  0
 51109  1  0
 52110  1  0
 53111  1  0
 54112  1  0
 57113  1  0
 58114  1  0
 61115  1  0
 62116  1  0
M  END
> <Uni-Dock RESULT> 
ENERGY=   -6.031  LOWER_BOUND=    2.692  UPPER_BOUND=    5.133
INTER + INTRA:          -6.031
INTER:                  -6.031
INTRA:                   0.000
UNBOUND:                 0.000

$$$$

     RDKit          3D

116121  0  0  0  0  0  0  0  0999 V2000
   51.9950    5.1927   18.0705 C   0  0  0  0  0  0  0  0  0  0  0  0
   53.2039    4.9728   18.5148 N   0  0  0  0  0  0  0  0  0  0  0  0
   50.7608    4.6784   18.7513 C   0  0  0  0  0  0  0  0  0  0  0  0
   51.6727    5.7683   21.1646 S   0  0  0  0  0  0  0  0  0  0  0  0
   51.8390    5.9193   16.8753 N   0  0  0  0  0  0  0  0  0  0  0  0
   50.4908    4.9601   20.0973 C   0  0  0  0  0  0  0  0  0  0  0  0
   53.5126    4.2672   19.6908 C   0  0  0  0  0  0  0  0  0  0  0  0
   52.9804    4.5618   20.9593 C   0  0  0  0  0  0  0  0  0  0  0  0
   52.3701    8.8442   16.6963 N   0  0  0  0  0  0  0  0  0  0  0  0
   50.7260    6.8823   16.7144 C   0  0  0  0  0  0  0  0  0  0  0  0
   53.0568    6.4248   16.2011 C   0  0  0  0  0  0  0  0  0  0  0  0
   51.1305    8.2670   17.2734 C   0  0  0  0  0  0  0  0  0  0  0  0
   53.4439    7.8138   16.7670 C   0  0  0  0  0  0  0  0  0  0  0  0
   49.8354    3.9567   17.9799 C   0  0  0  0  0  0  0  0  0  0  0  0
   49.2735    4.5443   20.6510 C   0  0  0  0  0  0  0  0  0  0  0  0
   52.1533    9.3396   15.3250 C   0  0  0  0  0  0  0  0  0  0  0  0
   52.1002   14.3480   13.4468 O   0  0  0  0  0  0  0  0  0  0  0  0
   54.5029    3.2800   19.5932 C   0  0  0  0  0  0  0  0  0  0  0  0
   53.4256    3.8605   22.0908 C   0  0  0  0  0  0  0  0  0  0  0  0
   52.9859   10.7692   13.5234 O   0  0  0  0  0  0  0  0  0  0  0  0
   52.9262   13.2124   13.6778 C   0  0  0  0  0  0  0  0  0  0  0  0
   53.2422   10.3265   14.8622 C   0  0  0  0  0  0  0  0  0  0  0  0
   52.1466   11.9200   13.4447 C   0  0  0  0  0  0  0  0  0  0  0  0
   48.6320    3.5375   18.5461 C   0  0  0  0  0  0  0  0  0  0  0  0
   48.3492    3.8389   19.8761 C   0  0  0  0  0  0  0  0  0  0  0  0
   54.4070    2.8739   21.9710 C   0  0  0  0  0  0  0  0  0  0  0  0
   54.9446    2.5820   20.7206 C   0  0  0  0  0  0  0  0  0  0  0  0
   51.5615    5.6758   18.7920 C   0  0  0  0  0  0  0  0  0  0  0  0
   51.7542    6.2031   19.9697 N   0  0  0  0  0  0  0  0  0  0  0  0
   51.7488    4.2222   18.4640 C   0  0  0  0  0  0  0  0  0  0  0  0
   54.2415    4.2393   19.7308 S   0  0  0  0  0  0  0  0  0  0  0  0
   51.1202    6.4984   17.7491 N   0  0  0  0  0  0  0  0  0  0  0  0
   52.9098    3.5141   18.7965 C   0  0  0  0  0  0  0  0  0  0  0  0
   52.1639    5.5009   21.1136 C   0  0  0  0  0  0  0  0  0  0  0  0
   53.2850    4.6540   21.1829 C   0  0  0  0  0  0  0  0  0  0  0  0
   50.7690    8.7555   15.8451 N   0  0  0  0  0  0  0  0  0  0  0  0
   51.9574    6.5976   16.5358 C   0  0  0  0  0  0  0  0  0  0  0  0
   50.3270    7.7097   18.0585 C   0  0  0  0  0  0  0  0  0  0  0  0
   51.2914    7.4450   15.4271 C   0  0  0  0  0  0  0  0  0  0  0  0
   50.8303    8.9528   17.2990 C   0  0  0  0  0  0  0  0  0  0  0  0
   50.7243    3.5886   17.7424 C   0  0  0  0  0  0  0  0  0  0  0  0
   53.0323    2.1761   18.3922 C   0  0  0  0  0  0  0  0  0  0  0  0
   51.2485    9.8955   15.0633 C   0  0  0  0  0  0  0  0  0  0  0  0
   52.3215   13.2333   12.4155 O   0  0  0  0  0  0  0  0  0  0  0  0
   51.4553    5.7665   22.2938 C   0  0  0  0  0  0  0  0  0  0  0  0
   53.6593    4.0802   22.4058 C   0  0  0  0  0  0  0  0  0  0  0  0
   53.0400   11.4450   14.4400 O   0  0  0  0  0  0  0  0  0  0  0  0
   53.5317   12.4781   12.3417 C   0  0  0  0  0  0  0  0  0  0  0  0
   52.7334   10.2756   15.2085 C   0  0  0  0  0  0  0  0  0  0  0  0
   53.3479   11.1514   13.0713 C   0  0  0  0  0  0  0  0  0  0  0  0
   50.8576    2.2579   17.3469 C   0  0  0  0  0  0  0  0  0  0  0  0
   52.0119    1.5516   17.6709 C   0  0  0  0  0  0  0  0  0  0  0  0
   52.9339    4.3525   23.5678 C   0  0  0  0  0  0  0  0  0  0  0  0
   51.8311    5.1985   23.5116 C   0  0  0  0  0  0  0  0  0  0  0  0
   51.9889    8.2887   16.0232 C   0  0  0  0  0  0  0  0  0  0  0  0
   52.0869    5.7953   18.8400 C   0  0  0  0  0  0  0  0  0  0  0  0
   52.3872    7.1674   16.8745 C   0  0  0  0  0  0  0  0  0  0  0  0
   51.6814    6.9083   17.9813 C   0  0  0  0  0  0  0  0  0  0  0  0
   51.0456    9.0371   16.1830 O   0  0  0  0  0  0  0  0  0  0  0  0
   53.0083    5.0227   18.6609 O   0  0  0  0  0  0  0  0  0  0  0  0
   52.8315    8.4032   14.9865 O   0  0  0  0  0  0  0  0  0  0  0  0
   51.2835    5.7209   19.9109 O   0  0  0  0  0  0  0  0  0  0  0  0
   49.8077    6.5480   17.2057 H   0  0  0  0  0  0  0  0  0  0  0  0
   50.4826    6.9651   15.6481 H   0  0  0  0  0  0  0  0  0  0  0  0
   53.8940    5.7257   16.3033 H   0  0  0  0  0  0  0  0  0  0  0  0
   52.8597    6.4956   15.1252 H   0  0  0  0  0  0  0  0  0  0  0  0
   50.2969    8.9691   17.1498 H   0  0  0  0  0  0  0  0  0  0  0  0
   51.2796    8.1764   18.3582 H   0  0  0  0  0  0  0  0  0  0  0  0
   54.3541    8.1703   16.2724 H   0  0  0  0  0  0  0  0  0  0  0  0
   53.7132    7.7019   17.8266 H   0  0  0  0  0  0  0  0  0  0  0  0
   50.0515    3.7322   16.9390 H   0  0  0  0  0  0  0  0  0  0  0  0
   49.0438    4.7544   21.6939 H   0  0  0  0  0  0  0  0  0  0  0  0
   51.1961    9.8693   15.2750 H   0  0  0  0  0  0  0  0  0  0  0  0
   52.0695    8.5272   14.5961 H   0  0  0  0  0  0  0  0  0  0  0  0
   51.8969   14.3654   12.4946 H   0  0  0  0  0  0  0  0  0  0  0  0
   54.9341    3.0613   18.6199 H   0  0  0  0  0  0  0  0  0  0  0  0
   53.0082    4.0781   23.0713 H   0  0  0  0  0  0  0  0  0  0  0  0
   53.8039   13.2648   13.0231 H   0  0  0  0  0  0  0  0  0  0  0  0
   53.2952   13.2683   14.7077 H   0  0  0  0  0  0  0  0  0  0  0  0
   53.3296   11.1735   15.5518 H   0  0  0  0  0  0  0  0  0  0  0  0
   54.2172    9.8294   14.8327 H   0  0  0  0  0  0  0  0  0  0  0  0
   51.7237   11.9392   12.4361 H   0  0  0  0  0  0  0  0  0  0  0  0
   51.2963   11.8458   14.1292 H   0  0  0  0  0  0  0  0  0  0  0  0
   47.9169    2.9833   17.9442 H   0  0  0  0  0  0  0  0  0  0  0  0
   47.4133    3.5122   20.3210 H   0  0  0  0  0  0  0  0  0  0  0  0
   54.7510    2.3399   22.8528 H   0  0  0  0  0  0  0  0  0  0  0  0
   55.7128    1.8220   20.6183 H   0  0  0  0  0  0  0  0  0  0  0  0
   52.9246    7.0443   16.8055 H   0  0  0  0  0  0  0  0  0  0  0  0
   52.1630    5.6000   16.1272 H   0  0  0  0  0  0  0  0  0  0  0  0
   50.3187    7.9377   19.1296 H   0  0  0  0  0  0  0  0  0  0  0  0
   49.2864    7.5039   17.7793 H   0  0  0  0  0  0  0  0  0  0  0  0
   51.9973    7.5396   14.5934 H   0  0  0  0  0  0  0  0  0  0  0  0
   50.4371    6.8752   15.0397 H   0  0  0  0  0  0  0  0  0  0  0  0
   51.8521    9.1726   17.6276 H   0  0  0  0  0  0  0  0  0  0  0  0
   50.2031    9.8071   17.5732 H   0  0  0  0  0  0  0  0  0  0  0  0
   49.8188    4.1378   17.4874 H   0  0  0  0  0  0  0  0  0  0  0  0
   53.9220    1.6037   18.6475 H   0  0  0  0  0  0  0  0  0  0  0  0
   50.6422   10.7765   15.3135 H   0  0  0  0  0  0  0  0  0  0  0  0
   51.0202    9.7126   14.0068 H   0  0  0  0  0  0  0  0  0  0  0  0
   52.0807   13.2309   13.3644 H   0  0  0  0  0  0  0  0  0  0  0  0
   50.6023    6.4414   22.2539 H   0  0  0  0  0  0  0  0  0  0  0  0
   54.5184    3.4158   22.4610 H   0  0  0  0  0  0  0  0  0  0  0  0
   53.7739   12.3144   11.2882 H   0  0  0  0  0  0  0  0  0  0  0  0
   54.3225   13.0766   12.8037 H   0  0  0  0  0  0  0  0  0  0  0  0
   53.4001    9.4509   14.9307 H   0  0  0  0  0  0  0  0  0  0  0  0
   52.9463   10.5362   16.2483 H   0  0  0  0  0  0  0  0  0  0  0  0
   52.5201   10.5967   12.6173 H   0  0  0  0  0  0  0  0  0  0  0  0
   54.2681   10.5574   13.0197 H   0  0  0  0  0  0  0  0  0  0  0  0
   50.0611    1.7754   16.7879 H   0  0  0  0  0  0  0  0  0  0  0  0
   52.1205    0.5126   17.3655 H   0  0  0  0  0  0  0  0  0  0  0  0
   53.2344    3.9053   24.5114 H   0  0  0  0  0  0  0  0  0  0  0  0
   51.2686    5.4281   24.4122 H   0  0  0  0  0  0  0  0  0  0  0  0
   53.2555    6.5888   16.5804 H   0  0  0  0  0  0  0  0  0  0  0  0
   50.8194    7.4925   18.2819 H   0  0  0  0  0  0  0  0  0  0  0  0
   52.4893    9.1716   14.4846 H   0  0  0  0  0  0  0  0  0  0  0  0
   51.6290    4.9574   20.4187 H   0  0  0  0  0  0  0  0  0  0  0  0
  2  1  2  0
  3  1  1  0
  4  6  1  0
  5  1  1  0
  6  3  2  0
  7  2  1  0
  8  7  2  0
  9 13  1  0
 10  5  1  0
 11  5  1  0
 12 10  1  0
 13 11  1  0
 14  3  1  0
 15  6  1  0
 16  9  1  0
 17 21  1  0
 18  7  1  0
 19  8  1  0
 20 22  1  0
 21 23  1  0
 22 16  1  0
 23 20  1  0
 24 14  2  0
 25 15  2  0
 26 19  2  0
 27 18  2  0
  9 12  1  0
  8  4  1  0
 24 25  1  0
 27 26  1  0
 29 28  2  0
 30 28  1  0
 31 33  1  0
 32 28  1  0
 33 30  2  0
 34 29  1  0
 35 34  2  0
 36 40  1  0
 37 32  1  0
 38 32  1  0
 39 37  1  0
 40 38  1  0
 41 30  1  0
 42 33  1  0
 43 36  1  0
 44 48  1  0
 45 34  1  0
 46 35  1  0
 47 49  1  0
 48 50  1  0
 49 43  1  0
 50 47  1  0
 51 41  2  0
 52 42  2  0
 53 46  2  0
 54 45  2  0
 36 39  1  0
 35 31  1  0
 51 52  1  0
 54 53  1  0
 56 58  1  0
 57 55  1  0
 58 57  2  0
 59 55  2  0
 60 56  2  0
 61 55  1  0
 62 56  1  0
 10 63  1  0
 10 64  1  0
 11 65  1  0
 11 66  1  0
 12 67  1  0
 12 68  1  0
 13 69  1  0
 13 70  1  0
 14 71  1  0
 15 72  1  0
 16 73  1  0
 16 74  1  0
 17 75  1  0
 18 76  1  0
 19 77  1  0
 21 78  1  0
 21 79  1  0
 22 80  1  0
 22 81  1  0
 23 82  1  0
 23 83  1  0
 24 84  1  0
 25 85  1  0
 26 86  1  0
 27 87  1  0
 37 88  1  0
 37 89  1  0
 38 90  1  0
 38 91  1  0
 39 92  1  0
 39 93  1  0
 40 94  1  0
 40 95  1  0
 41 96  1  0
 42 97  1  0
 43 98  1  0
 43 99  1  0
 44100  1  0
 45101  1  0
 46102  1  0
 48103  1  0
 48104  1  0
 49105  1  0
 49106  1  0
 50107  1  0
 50108  1  0
 51109  1  0
 52110  1  0
 53111  1  0
 54112  1  0
 57113  1  0
 58114  1  0
 61115  1  0
 62116  1  0
M  END
> <Uni-Dock RESULT> 
ENERGY=   -5.935  LOWER_BOUND=    5.786  UPPER_BOUND=    9.384
INTER + INTRA:          -5.935
INTER:                  -5.935
INTRA:                   0.000
UNBOUND:                 0.000

$$$$

     RDKit          3D

116121  0  0  0  0  0  0  0  0999 V2000
   48.9101   11.0452   13.1724 C   0  0  0  0  0  0  0  0  0  0  0  0
   48.1487   10.1276   13.7068 N   0  0  0  0  0  0  0  0  0  0  0  0
   48.8990   11.3754   11.7089 C   0  0  0  0  0  0  0  0  0  0  0  0
   46.1133   11.6425   11.8197 S   0  0  0  0  0  0  0  0  0  0  0  0
   49.8117   11.7381   14.0016 N   0  0  0  0  0  0  0  0  0  0  0  0
   47.7194   11.7390   11.0451 C   0  0  0  0  0  0  0  0  0  0  0  0
   47.2032    9.3588   13.0058 C   0  0  0  0  0  0  0  0  0  0  0  0
   46.1824    9.8934   12.1989 C   0  0  0  0  0  0  0  0  0  0  0  0
   48.9208   13.7397   16.0188 N   0  0  0  0  0  0  0  0  0  0  0  0
   50.0692   13.1821   13.8001 C   0  0  0  0  0  0  0  0  0  0  0  0
   49.8255   11.4108   15.4459 C   0  0  0  0  0  0  0  0  0  0  0  0
   49.0221   14.0251   14.5658 C   0  0  0  0  0  0  0  0  0  0  0  0
   48.7771   12.2677   16.1984 C   0  0  0  0  0  0  0  0  0  0  0  0
   50.1257   11.3791   11.0252 C   0  0  0  0  0  0  0  0  0  0  0  0
   47.7860   12.1392    9.7047 C   0  0  0  0  0  0  0  0  0  0  0  0
   50.0683   14.2893   16.7632 C   0  0  0  0  0  0  0  0  0  0  0  0
   50.2801   18.3302   20.2619 O   0  0  0  0  0  0  0  0  0  0  0  0
   47.2259    7.9748   13.2270 C   0  0  0  0  0  0  0  0  0  0  0  0
   45.2264    9.0459   11.6176 C   0  0  0  0  0  0  0  0  0  0  0  0
   50.9475   14.9499   18.9480 O   0  0  0  0  0  0  0  0  0  0  0  0
   50.1138   16.9225   20.1357 C   0  0  0  0  0  0  0  0  0  0  0  0
   49.7993   14.4187   18.2747 C   0  0  0  0  0  0  0  0  0  0  0  0
   50.9790   16.3750   19.0025 C   0  0  0  0  0  0  0  0  0  0  0  0
   50.1773   11.7681    9.6872 C   0  0  0  0  0  0  0  0  0  0  0  0
   49.0108   12.1554    9.0321 C   0  0  0  0  0  0  0  0  0  0  0  0
   45.2718    7.6683   11.8431 C   0  0  0  0  0  0  0  0  0  0  0  0
   46.2738    7.1320   12.6469 C   0  0  0  0  0  0  0  0  0  0  0  0
   48.2835   11.6793   12.7888 C   0  0  0  0  0  0  0  0  0  0  0  0
   47.0156   11.9594   12.6617 N   0  0  0  0  0  0  0  0  0  0  0  0
   48.9345   10.4177   12.2990 C   0  0  0  0  0  0  0  0  0  0  0  0
   46.9154    8.8926   13.4891 S   0  0  0  0  0  0  0  0  0  0  0  0
   49.1239   12.6192   13.3966 N   0  0  0  0  0  0  0  0  0  0  0  0
   48.4328    9.1437   12.5910 C   0  0  0  0  0  0  0  0  0  0  0  0
   46.0615   11.1325   12.0490 C   0  0  0  0  0  0  0  0  0  0  0  0
   45.8482    9.7774   12.3605 C   0  0  0  0  0  0  0  0  0  0  0  0
   50.2738   14.6582   15.2304 N   0  0  0  0  0  0  0  0  0  0  0  0
   49.8710   12.2106   14.6038 C   0  0  0  0  0  0  0  0  0  0  0  0
   48.7772   14.0573   13.3364 C   0  0  0  0  0  0  0  0  0  0  0  0
   50.8428   13.3080   15.0960 C   0  0  0  0  0  0  0  0  0  0  0  0
   48.9051   14.7514   14.7065 C   0  0  0  0  0  0  0  0  0  0  0  0
   50.1267   10.5506   11.5691 C   0  0  0  0  0  0  0  0  0  0  0  0
   49.1407    8.0145   12.1521 C   0  0  0  0  0  0  0  0  0  0  0  0
   50.4603   15.2854   16.5391 C   0  0  0  0  0  0  0  0  0  0  0  0
   51.4428   17.3294   20.3020 O   0  0  0  0  0  0  0  0  0  0  0  0
   45.1906   11.7531   11.1424 C   0  0  0  0  0  0  0  0  0  0  0  0
   44.7990    9.0725   11.7546 C   0  0  0  0  0  0  0  0  0  0  0  0
   49.9170   15.4369   18.9224 O   0  0  0  0  0  0  0  0  0  0  0  0
   51.2977   15.9954   20.7916 C   0  0  0  0  0  0  0  0  0  0  0  0
   49.6891   14.6815   17.7269 C   0  0  0  0  0  0  0  0  0  0  0  0
   51.1065   15.0412   19.6173 C   0  0  0  0  0  0  0  0  0  0  0  0
   50.8207    9.4205   11.1376 C   0  0  0  0  0  0  0  0  0  0  0  0
   50.3284    8.1523   11.4298 C   0  0  0  0  0  0  0  0  0  0  0  0
   43.9482    9.7089   10.8481 C   0  0  0  0  0  0  0  0  0  0  0  0
   44.1436   11.0520   10.5431 C   0  0  0  0  0  0  0  0  0  0  0  0
   49.8171   13.5427   15.7641 C   0  0  0  0  0  0  0  0  0  0  0  0
   48.0179   11.4537   13.2027 C   0  0  0  0  0  0  0  0  0  0  0  0
   49.2496   12.3954   15.0554 C   0  0  0  0  0  0  0  0  0  0  0  0
   48.5970   12.5991   13.9052 C   0  0  0  0  0  0  0  0  0  0  0  0
   49.7926   14.7075   15.4202 O   0  0  0  0  0  0  0  0  0  0  0  0
   48.0744   10.2835   13.5271 O   0  0  0  0  0  0  0  0  0  0  0  0
   50.4012   13.1398   16.9017 O   0  0  0  0  0  0  0  0  0  0  0  0
   47.3777   11.8641   12.0984 O   0  0  0  0  0  0  0  0  0  0  0  0
   50.0602   13.4664   12.7439 H   0  0  0  0  0  0  0  0  0  0  0  0
   51.0771   13.4149   14.1648 H   0  0  0  0  0  0  0  0  0  0  0  0
   49.6411   10.3450   15.6197 H   0  0  0  0  0  0  0  0  0  0  0  0
   50.8289   11.6062   15.8415 H   0  0  0  0  0  0  0  0  0  0  0  0
   49.2232   15.0914   14.4061 H   0  0  0  0  0  0  0  0  0  0  0  0
   48.0338   13.8431   14.1217 H   0  0  0  0  0  0  0  0  0  0  0  0
   48.7854   12.0060   17.2622 H   0  0  0  0  0  0  0  0  0  0  0  0
   47.7745   11.9961   15.8397 H   0  0  0  0  0  0  0  0  0  0  0  0
   51.0371   11.0882   11.5403 H   0  0  0  0  0  0  0  0  0  0  0  0
   46.8820   12.4270    9.1714 H   0  0  0  0  0  0  0  0  0  0  0  0
   50.2991   15.2927   16.3901 H   0  0  0  0  0  0  0  0  0  0  0  0
   50.9832   13.7086   16.6082 H   0  0  0  0  0  0  0  0  0  0  0  0
   51.1918   18.4847   20.5675 H   0  0  0  0  0  0  0  0  0  0  0  0
   47.9988    7.5564   13.8663 H   0  0  0  0  0  0  0  0  0  0  0  0
   44.4425    9.4548   10.9842 H   0  0  0  0  0  0  0  0  0  0  0  0
   50.3650   16.4420   21.0885 H   0  0  0  0  0  0  0  0  0  0  0  0
   49.0526   16.7239   19.9508 H   0  0  0  0  0  0  0  0  0  0  0  0
   48.9077   15.0254   18.4689 H   0  0  0  0  0  0  0  0  0  0  0  0
   49.6229   13.4318   18.7147 H   0  0  0  0  0  0  0  0  0  0  0  0
   52.0186   16.6655   19.1795 H   0  0  0  0  0  0  0  0  0  0  0  0
   50.6981   16.8209   18.0437 H   0  0  0  0  0  0  0  0  0  0  0  0
   51.1293   11.7738    9.1635 H   0  0  0  0  0  0  0  0  0  0  0  0
   49.0470   12.4573    7.9890 H   0  0  0  0  0  0  0  0  0  0  0  0
   44.5240    7.0195   11.3947 H   0  0  0  0  0  0  0  0  0  0  0  0
   46.3132    6.0635   12.8339 H   0  0  0  0  0  0  0  0  0  0  0  0
   49.1548   11.9721   15.4026 H   0  0  0  0  0  0  0  0  0  0  0  0
   50.4529   11.3011   14.4072 H   0  0  0  0  0  0  0  0  0  0  0  0
   47.7636   14.2242   12.9567 H   0  0  0  0  0  0  0  0  0  0  0  0
   49.4572   14.5318   12.6184 H   0  0  0  0  0  0  0  0  0  0  0  0
   51.3017   12.9687   16.0322 H   0  0  0  0  0  0  0  0  0  0  0  0
   51.6592   13.3822   14.3660 H   0  0  0  0  0  0  0  0  0  0  0  0
   48.1839   14.2987   15.3959 H   0  0  0  0  0  0  0  0  0  0  0  0
   48.6352   15.8059   14.5902 H   0  0  0  0  0  0  0  0  0  0  0  0
   50.5150   11.5417   11.3377 H   0  0  0  0  0  0  0  0  0  0  0  0
   48.7646    7.0146   12.3597 H   0  0  0  0  0  0  0  0  0  0  0  0
   50.1964   16.3488   16.4628 H   0  0  0  0  0  0  0  0  0  0  0  0
   51.5323   15.2980   16.7684 H   0  0  0  0  0  0  0  0  0  0  0  0
   50.6885   17.4569   19.6913 H   0  0  0  0  0  0  0  0  0  0  0  0
   45.3325   12.8081   10.9157 H   0  0  0  0  0  0  0  0  0  0  0  0
   44.6383    8.0218   11.9841 H   0  0  0  0  0  0  0  0  0  0  0  0
   52.1930   15.7371   21.3633 H   0  0  0  0  0  0  0  0  0  0  0  0
   50.4295   15.9812   21.4573 H   0  0  0  0  0  0  0  0  0  0  0  0
   49.9394   13.6265   17.8886 H   0  0  0  0  0  0  0  0  0  0  0  0
   48.6146   14.7402   17.5357 H   0  0  0  0  0  0  0  0  0  0  0  0
   51.9679   15.1124   18.9450 H   0  0  0  0  0  0  0  0  0  0  0  0
   50.9979   14.0111   19.9770 H   0  0  0  0  0  0  0  0  0  0  0  0
   51.7429    9.5321   10.5746 H   0  0  0  0  0  0  0  0  0  0  0  0
   50.8658    7.2671   11.0945 H   0  0  0  0  0  0  0  0  0  0  0  0
   43.1359    9.1544   10.3865 H   0  0  0  0  0  0  0  0  0  0  0  0
   43.4789   11.5601    9.8501 H   0  0  0  0  0  0  0  0  0  0  0  0
   49.3700   11.4134   15.4986 H   0  0  0  0  0  0  0  0  0  0  0  0
   48.4670   13.5816   13.4664 H   0  0  0  0  0  0  0  0  0  0  0  0
   50.7426   13.9667   17.3006 H   0  0  0  0  0  0  0  0  0  0  0  0
   47.0285   11.0389   11.7017 H   0  0  0  0  0  0  0  0  0  0  0  0
  2  1  2  0
  3  1  1  0
  4  6  1  0
  5  1  1  0
  6  3  2  0
  7  2  1  0
  8  7  2  0
  9 13  1  0
 10  5  1  0
 11  5  1  0
 12 10  1  0
 13 11  1  0
 14  3  1  0
 15  6  1  0
 16  9  1  0
 17 21  1  0
 18  7  1  0
 19  8  1  0
 20 22  1  0
 21 23  1  0
 22 16  1  0
 23 20  1  0
 24 14  2  0
 25 15  2  0
 26 19  2  0
 27 18  2  0
  9 12  1  0
  8  4  1  0
 24 25  1  0
 27 26  1  0
 29 28  2  0
 30 28  1  0
 31 33  1  0
 32 28  1  0
 33 30  2  0
 34 29  1  0
 35 34  2  0
 36 40  1  0
 37 32  1  0
 38 32  1  0
 39 37  1  0
 40 38  1  0
 41 30  1  0
 42 33  1  0
 43 36  1  0
 44 48  1  0
 45 34  1  0
 46 35  1  0
 47 49  1  0
 48 50  1  0
 49 43  1  0
 50 47  1  0
 51 41  2  0
 52 42  2  0
 53 46  2  0
 54 45  2  0
 36 39  1  0
 35 31  1  0
 51 52  1  0
 54 53  1  0
 56 58  1  0
 57 55  1  0
 58 57  2  0
 59 55  2  0
 60 56  2  0
 61 55  1  0
 62 56  1  0
 10 63  1  0
 10 64  1  0
 11 65  1  0
 11 66  1  0
 12 67  1  0
 12 68  1  0
 13 69  1  0
 13 70  1  0
 14 71  1  0
 15 72  1  0
 16 73  1  0
 16 74  1  0
 17 75  1  0
 18 76  1  0
 19 77  1  0
 21 78  1  0
 21 79  1  0
 22 80  1  0
 22 81  1  0
 23 82  1  0
 23 83  1  0
 24 84  1  0
 25 85  1  0
 26 86  1  0
 27 87  1  0
 37 88  1  0
 37 89  1  0
 38 90  1  0
 38 91  1  0
 39 92  1  0
 39 93  1  0
 40 94  1  0
 40 95  1  0
 41 96  1  0
 42 97  1  0
 43 98  1  0
 43 99  1  0
 44100  1  0
 45101  1  0
 46102  1  0
 48103  1  0
 48104  1  0
 49105  1  0
 49106  1  0
 50107  1  0
 50108  1  0
 51109  1  0
 52110  1  0
 53111  1  0
 54112  1  0
 57113  1  0
 58114  1  0
 61115  1  0
 62116  1  0
M  END
> <Uni-Dock RESULT> 
ENERGY=   -5.792  LOWER_BOUND=    2.830  UPPER_BOUND=    8.315
INTER + INTRA:          -5.792
INTER:                  -5.792
INTRA:                   0.000
UNBOUND:                 0.000

$$$$

     RDKit          3D

116121  0  0  0  0  0  0  0  0999 V2000
   49.5295   12.3232   15.6111 C   0  0  0  0  0  0  0  0  0  0  0  0
   48.5298   12.8464   16.2700 N   0  0  0  0  0  0  0  0  0  0  0  0
   50.4883   11.3389   16.2136 C   0  0  0  0  0  0  0  0  0  0  0  0
   48.3165    9.7972   17.0797 S   0  0  0  0  0  0  0  0  0  0  0  0
   49.7417   12.7254   14.2793 N   0  0  0  0  0  0  0  0  0  0  0  0
   50.0459   10.1484   16.8062 C   0  0  0  0  0  0  0  0  0  0  0  0
   48.1954   12.5402   17.6007 C   0  0  0  0  0  0  0  0  0  0  0  0
   47.9802   11.2383   18.0885 C   0  0  0  0  0  0  0  0  0  0  0  0
   47.9339   11.9201   12.0538 N   0  0  0  0  0  0  0  0  0  0  0  0
   50.1874   11.7524   13.2563 C   0  0  0  0  0  0  0  0  0  0  0  0
   48.7975   13.6992   13.6846 C   0  0  0  0  0  0  0  0  0  0  0  0
   48.9679   11.0293   12.6371 C   0  0  0  0  0  0  0  0  0  0  0  0
   47.5867   12.9591   13.0636 C   0  0  0  0  0  0  0  0  0  0  0  0
   51.8624   11.6085   16.1073 C   0  0  0  0  0  0  0  0  0  0  0  0
   50.9907    9.2181   17.2570 C   0  0  0  0  0  0  0  0  0  0  0  0
   48.3761   12.5030   10.7741 C   0  0  0  0  0  0  0  0  0  0  0  0
   46.6269   11.6033    5.7996 O   0  0  0  0  0  0  0  0  0  0  0  0
   47.9556   13.6239   18.4568 C   0  0  0  0  0  0  0  0  0  0  0  0
   47.5544   11.0427   19.4116 C   0  0  0  0  0  0  0  0  0  0  0  0
   47.6981   13.6108    8.7015 O   0  0  0  0  0  0  0  0  0  0  0  0
   46.4642   12.4296    6.9467 C   0  0  0  0  0  0  0  0  0  0  0  0
   47.2112   13.0513    9.9278 C   0  0  0  0  0  0  0  0  0  0  0  0
   47.8057   12.6673    7.6370 C   0  0  0  0  0  0  0  0  0  0  0  0
   52.7933   10.6795   16.5709 C   0  0  0  0  0  0  0  0  0  0  0  0
   52.3572    9.4837   17.1362 C   0  0  0  0  0  0  0  0  0  0  0  0
   47.3296   12.1357   20.2516 C   0  0  0  0  0  0  0  0  0  0  0  0
   47.5323   13.4275   19.7742 C   0  0  0  0  0  0  0  0  0  0  0  0
   49.3510   11.3693   15.6278 C   0  0  0  0  0  0  0  0  0  0  0  0
   48.4898   10.4668   16.0096 N   0  0  0  0  0  0  0  0  0  0  0  0
   50.0567   12.3228   16.5488 C   0  0  0  0  0  0  0  0  0  0  0  0
   47.6270   12.9647   17.7748 S   0  0  0  0  0  0  0  0  0  0  0  0
   49.6794   11.4559   14.2699 N   0  0  0  0  0  0  0  0  0  0  0  0
   49.3809   13.1005   17.4967 C   0  0  0  0  0  0  0  0  0  0  0  0
   48.0874   10.2417   17.3351 C   0  0  0  0  0  0  0  0  0  0  0  0
   47.6120   11.2320   18.2140 C   0  0  0  0  0  0  0  0  0  0  0  0
   49.5477   11.5662   11.3012 N   0  0  0  0  0  0  0  0  0  0  0  0
   49.4394   12.7367   13.5737 C   0  0  0  0  0  0  0  0  0  0  0  0
   49.5734   10.2528   13.4136 C   0  0  0  0  0  0  0  0  0  0  0  0
   49.9553   12.7216   12.1161 C   0  0  0  0  0  0  0  0  0  0  0  0
   48.8488   10.5388   12.0837 C   0  0  0  0  0  0  0  0  0  0  0  0
   51.4450   12.4616   16.3902 C   0  0  0  0  0  0  0  0  0  0  0  0
   50.1083   14.0172   18.2710 C   0  0  0  0  0  0  0  0  0  0  0  0
   48.9016   11.8969   10.0307 C   0  0  0  0  0  0  0  0  0  0  0  0
   47.4040   12.9073    6.0258 O   0  0  0  0  0  0  0  0  0  0  0  0
   48.0575    8.9053   17.7579 C   0  0  0  0  0  0  0  0  0  0  0  0
   47.1429   10.8776   19.4864 C   0  0  0  0  0  0  0  0  0  0  0  0
   46.9697   12.7374    8.7818 O   0  0  0  0  0  0  0  0  0  0  0  0
   46.8680   14.0087    6.7605 C   0  0  0  0  0  0  0  0  0  0  0  0
   47.5009   12.5326   10.0963 C   0  0  0  0  0  0  0  0  0  0  0  0
   47.3970   13.9711    8.1905 C   0  0  0  0  0  0  0  0  0  0  0  0
   52.1569   13.3757   17.1664 C   0  0  0  0  0  0  0  0  0  0  0  0
   51.4887   14.1543   18.1063 C   0  0  0  0  0  0  0  0  0  0  0  0
   47.1297    9.5405   19.8897 C   0  0  0  0  0  0  0  0  0  0  0  0
   47.5861    8.5528   19.0230 C   0  0  0  0  0  0  0  0  0  0  0  0
   48.7641   12.3808   11.9796 C   0  0  0  0  0  0  0  0  0  0  0  0
   48.8641   11.6029   15.6602 C   0  0  0  0  0  0  0  0  0  0  0  0
   48.6913   12.5247   13.4338 C   0  0  0  0  0  0  0  0  0  0  0  0
   48.9495   11.4632   14.2062 C   0  0  0  0  0  0  0  0  0  0  0  0
   49.0632   11.3852   11.3512 O   0  0  0  0  0  0  0  0  0  0  0  0
   48.6015   12.6087   16.2906 O   0  0  0  0  0  0  0  0  0  0  0  0
   48.4452   13.5392   11.3846 O   0  0  0  0  0  0  0  0  0  0  0  0
   49.1195   10.4279   16.2535 O   0  0  0  0  0  0  0  0  0  0  0  0
   50.8825   11.0096   13.6585 H   0  0  0  0  0  0  0  0  0  0  0  0
   50.7407   12.2893   12.4761 H   0  0  0  0  0  0  0  0  0  0  0  0
   48.4568   14.4331   14.4232 H   0  0  0  0  0  0  0  0  0  0  0  0
   49.3244   14.2756   12.9155 H   0  0  0  0  0  0  0  0  0  0  0  0
   49.3124   10.3108   11.8835 H   0  0  0  0  0  0  0  0  0  0  0  0
   48.4848   10.4264   13.4184 H   0  0  0  0  0  0  0  0  0  0  0  0
   46.8881   13.6897   12.6411 H   0  0  0  0  0  0  0  0  0  0  0  0
   47.0304   12.4548   13.8660 H   0  0  0  0  0  0  0  0  0  0  0  0
   52.2020   12.5363   15.6553 H   0  0  0  0  0  0  0  0  0  0  0  0
   50.6681    8.2867   17.7186 H   0  0  0  0  0  0  0  0  0  0  0  0
   48.8751   11.7337   10.1753 H   0  0  0  0  0  0  0  0  0  0  0  0
   49.1245   13.2901   10.9104 H   0  0  0  0  0  0  0  0  0  0  0  0
   47.1384   12.1154    5.1479 H   0  0  0  0  0  0  0  0  0  0  0  0
   48.0992   14.6335   18.0810 H   0  0  0  0  0  0  0  0  0  0  0  0
   47.3978   10.0371   19.7953 H   0  0  0  0  0  0  0  0  0  0  0  0
   46.0038   13.3781    6.6466 H   0  0  0  0  0  0  0  0  0  0  0  0
   45.7577   11.9339    7.6213 H   0  0  0  0  0  0  0  0  0  0  0  0
   46.4576   12.2780    9.7411 H   0  0  0  0  0  0  0  0  0  0  0  0
   46.7122   13.8709   10.4548 H   0  0  0  0  0  0  0  0  0  0  0  0
   48.5084   13.0842    6.9098 H   0  0  0  0  0  0  0  0  0  0  0  0
   48.2444   11.7246    7.9772 H   0  0  0  0  0  0  0  0  0  0  0  0
   53.8556   10.8903   16.4823 H   0  0  0  0  0  0  0  0  0  0  0  0
   53.0798    8.7584   17.5002 H   0  0  0  0  0  0  0  0  0  0  0  0
   46.9937   11.9761   21.2728 H   0  0  0  0  0  0  0  0  0  0  0  0
   47.3534   14.2837   20.4171 H   0  0  0  0  0  0  0  0  0  0  0  0
   48.3609   12.9478   13.5771 H   0  0  0  0  0  0  0  0  0  0  0  0
   49.9336   13.5614   14.1031 H   0  0  0  0  0  0  0  0  0  0  0  0
   49.0587    9.4284   13.9184 H   0  0  0  0  0  0  0  0  0  0  0  0
   50.5922    9.9012   13.2096 H   0  0  0  0  0  0  0  0  0  0  0  0
   49.6756   13.6692   11.6406 H   0  0  0  0  0  0  0  0  0  0  0  0
   51.0523   12.7104   12.1507 H   0  0  0  0  0  0  0  0  0  0  0  0
   47.8189   10.8398   12.3051 H   0  0  0  0  0  0  0  0  0  0  0  0
   48.8055    9.6117   11.5033 H   0  0  0  0  0  0  0  0  0  0  0  0
   51.9719   11.8534   15.6560 H   0  0  0  0  0  0  0  0  0  0  0  0
   49.6051   14.6255   19.0201 H   0  0  0  0  0  0  0  0  0  0  0  0
   48.8379   10.9871    9.4187 H   0  0  0  0  0  0  0  0  0  0  0  0
   49.5723   12.5496    9.4597 H   0  0  0  0  0  0  0  0  0  0  0  0
   47.2320   12.1232    6.5862 H   0  0  0  0  0  0  0  0  0  0  0  0
   48.3989    8.1302   17.0744 H   0  0  0  0  0  0  0  0  0  0  0  0
   46.7857   11.6416   20.1728 H   0  0  0  0  0  0  0  0  0  0  0  0
   47.1617   14.9348    6.2594 H   0  0  0  0  0  0  0  0  0  0  0  0
   45.7778   13.9190    6.7404 H   0  0  0  0  0  0  0  0  0  0  0  0
   47.5001   13.4734   10.6591 H   0  0  0  0  0  0  0  0  0  0  0  0
   46.8098   11.8488   10.5955 H   0  0  0  0  0  0  0  0  0  0  0  0
   48.4911   14.0144    8.1763 H   0  0  0  0  0  0  0  0  0  0  0  0
   46.9976   14.8140    8.7669 H   0  0  0  0  0  0  0  0  0  0  0  0
   53.2305   13.4778   17.0366 H   0  0  0  0  0  0  0  0  0  0  0  0
   52.0398   14.8684   18.7153 H   0  0  0  0  0  0  0  0  0  0  0  0
   46.7609    9.2760   20.8769 H   0  0  0  0  0  0  0  0  0  0  0  0
   47.5669    7.5084   19.3216 H   0  0  0  0  0  0  0  0  0  0  0  0
   48.4168   13.4933   13.8360 H   0  0  0  0  0  0  0  0  0  0  0  0
   49.2140   10.4916   13.8050 H   0  0  0  0  0  0  0  0  0  0  0  0
   48.5180   13.3439   10.4275 H   0  0  0  0  0  0  0  0  0  0  0  0
   49.0394   10.6193   17.2112 H   0  0  0  0  0  0  0  0  0  0  0  0
  2  1  2  0
  3  1  1  0
  4  6  1  0
  5  1  1  0
  6  3  2  0
  7  2  1  0
  8  7  2  0
  9 13  1  0
 10  5  1  0
 11  5  1  0
 12 10  1  0
 13 11  1  0
 14  3  1  0
 15  6  1  0
 16  9  1  0
 17 21  1  0
 18  7  1  0
 19  8  1  0
 20 22  1  0
 21 23  1  0
 22 16  1  0
 23 20  1  0
 24 14  2  0
 25 15  2  0
 26 19  2  0
 27 18  2  0
  9 12  1  0
  8  4  1  0
 24 25  1  0
 27 26  1  0
 29 28  2  0
 30 28  1  0
 31 33  1  0
 32 28  1  0
 33 30  2  0
 34 29  1  0
 35 34  2  0
 36 40  1  0
 37 32  1  0
 38 32  1  0
 39 37  1  0
 40 38  1  0
 41 30  1  0
 42 33  1  0
 43 36  1  0
 44 48  1  0
 45 34  1  0
 46 35  1  0
 47 49  1  0
 48 50  1  0
 49 43  1  0
 50 47  1  0
 51 41  2  0
 52 42  2  0
 53 46  2  0
 54 45  2  0
 36 39  1  0
 35 31  1  0
 51 52  1  0
 54 53  1  0
 56 58  1  0
 57 55  1  0
 58 57  2  0
 59 55  2  0
 60 56  2  0
 61 55  1  0
 62 56  1  0
 10 63  1  0
 10 64  1  0
 11 65  1  0
 11 66  1  0
 12 67  1  0
 12 68  1  0
 13 69  1  0
 13 70  1  0
 14 71  1  0
 15 72  1  0
 16 73  1  0
 16 74  1  0
 17 75  1  0
 18 76  1  0
 19 77  1  0
 21 78  1  0
 21 79  1  0
 22 80  1  0
 22 81  1  0
 23 82  1  0
 23 83  1  0
 24 84  1  0
 25 85  1  0
 26 86  1  0
 27 87  1  0
 37 88  1  0
 37 89  1  0
 38 90  1  0
 38 91  1  0
 39 92  1  0
 39 93  1  0
 40 94  1  0
 40 95  1  0
 41 96  1  0
 42 97  1  0
 43 98  1  0
 43 99  1  0
 44100  1  0
 45101  1  0
 46102  1  0
 48103  1  0
 48104  1  0
 49105  1  0
 49106  1  0
 50107  1  0
 50108  1  0
 51109  1  0
 52110  1  0
 53111  1  0
 54112  1  0
 57113  1  0
 58114  1  0
 61115  1  0
 62116  1  0
M  END
> <Uni-Dock RESULT> 
ENERGY=   -5.704  LOWER_BOUND=    3.837  UPPER_BOUND=    5.380
INTER + INTRA:          -5.704
INTER:                  -5.704
INTRA:                   0.000
UNBOUND:                 0.000

$$$$

     RDKit          3D

116121  0  0  0  0  0  0  0  0999 V2000
   51.0535    9.9729   12.5643 C   0  0  0  0  0  0  0  0  0  0  0  0
   51.8583    9.3250   11.7644 N   0  0  0  0  0  0  0  0  0  0  0  0
   51.1970   11.4346   12.8705 C   0  0  0  0  0  0  0  0  0  0  0  0
   51.3021   11.9702   10.1236 S   0  0  0  0  0  0  0  0  0  0  0  0
   50.0190    9.2608   13.1994 N   0  0  0  0  0  0  0  0  0  0  0  0
   51.2257   12.4002   11.8551 C   0  0  0  0  0  0  0  0  0  0  0  0
   52.9307    9.9021   11.0622 C   0  0  0  0  0  0  0  0  0  0  0  0
   52.8204   11.0253   10.2223 C   0  0  0  0  0  0  0  0  0  0  0  0
   47.6376    8.2415   11.7300 N   0  0  0  0  0  0  0  0  0  0  0  0
   48.6869    9.8761   13.3972 C   0  0  0  0  0  0  0  0  0  0  0  0
   49.8784    7.8172   12.9001 C   0  0  0  0  0  0  0  0  0  0  0  0
   47.8041    9.6565   12.1458 C   0  0  0  0  0  0  0  0  0  0  0  0
   48.9868    7.6148   11.6497 C   0  0  0  0  0  0  0  0  0  0  0  0
   51.2328   11.8246   14.2191 C   0  0  0  0  0  0  0  0  0  0  0  0
   51.2542   13.7564   12.2033 C   0  0  0  0  0  0  0  0  0  0  0  0
   46.7295    7.5116   12.6331 C   0  0  0  0  0  0  0  0  0  0  0  0
   41.8173    5.5867   11.7504 O   0  0  0  0  0  0  0  0  0  0  0  0
   54.1609    9.2335   11.1276 C   0  0  0  0  0  0  0  0  0  0  0  0
   53.9314   11.4680    9.4875 C   0  0  0  0  0  0  0  0  0  0  0  0
   45.3094    5.5430   12.9342 O   0  0  0  0  0  0  0  0  0  0  0  0
   43.2037    5.2678   11.7147 C   0  0  0  0  0  0  0  0  0  0  0  0
   46.1783    6.2136   12.0126 C   0  0  0  0  0  0  0  0  0  0  0  0
   43.9477    5.9604   12.8546 C   0  0  0  0  0  0  0  0  0  0  0  0
   51.2734   13.1779   14.5530 C   0  0  0  0  0  0  0  0  0  0  0  0
   51.2751   14.1407   13.5466 C   0  0  0  0  0  0  0  0  0  0  0  0
   55.1512   10.7930    9.5735 C   0  0  0  0  0  0  0  0  0  0  0  0
   55.2665    9.6759   10.3960 C   0  0  0  0  0  0  0  0  0  0  0  0
   50.6636   10.6610   12.0019 C   0  0  0  0  0  0  0  0  0  0  0  0
   50.6172   11.1212   10.7820 N   0  0  0  0  0  0  0  0  0  0  0  0
   51.9104   10.5649   12.8336 C   0  0  0  0  0  0  0  0  0  0  0  0
   53.2601    9.3581   10.7027 S   0  0  0  0  0  0  0  0  0  0  0  0
   49.4737   10.2474   12.6121 N   0  0  0  0  0  0  0  0  0  0  0  0
   53.0888    9.9709   12.3662 C   0  0  0  0  0  0  0  0  0  0  0  0
   51.7182   11.5993   10.0550 C   0  0  0  0  0  0  0  0  0  0  0  0
   52.9265   10.9035    9.8685 C   0  0  0  0  0  0  0  0  0  0  0  0
   46.8276    9.0075   13.1629 N   0  0  0  0  0  0  0  0  0  0  0  0
   49.3801    8.8508   13.0848 C   0  0  0  0  0  0  0  0  0  0  0  0
   48.1882   10.8494   12.1912 C   0  0  0  0  0  0  0  0  0  0  0  0
   48.0594    8.5704   13.8386 C   0  0  0  0  0  0  0  0  0  0  0  0
   47.0938    9.7913   11.9500 C   0  0  0  0  0  0  0  0  0  0  0  0
   51.8438   11.0474   14.1506 C   0  0  0  0  0  0  0  0  0  0  0  0
   54.1874    9.8607   13.2322 C   0  0  0  0  0  0  0  0  0  0  0  0
   45.8069    7.9723   12.9974 C   0  0  0  0  0  0  0  0  0  0  0  0
   42.5832    4.9878   12.9378 O   0  0  0  0  0  0  0  0  0  0  0  0
   51.5369   12.8135    9.3778 C   0  0  0  0  0  0  0  0  0  0  0  0
   53.9240   11.4347    9.0392 C   0  0  0  0  0  0  0  0  0  0  0  0
   45.0038    5.9316   11.9069 O   0  0  0  0  0  0  0  0  0  0  0  0
   43.7070    4.1213   12.7747 C   0  0  0  0  0  0  0  0  0  0  0  0
   46.1159    6.8280   12.0147 C   0  0  0  0  0  0  0  0  0  0  0  0
   44.9944    4.9247   12.9269 C   0  0  0  0  0  0  0  0  0  0  0  0
   52.9428   10.9328   15.0014 C   0  0  0  0  0  0  0  0  0  0  0  0
   54.1144   10.3386   14.5428 C   0  0  0  0  0  0  0  0  0  0  0  0
   53.7250   12.6500    8.3805 C   0  0  0  0  0  0  0  0  0  0  0  0
   52.5285   13.3394    8.5489 C   0  0  0  0  0  0  0  0  0  0  0  0
   47.7759    8.2343   12.6722 C   0  0  0  0  0  0  0  0  0  0  0  0
   50.7850   10.2566   11.6637 C   0  0  0  0  0  0  0  0  0  0  0  0
   49.1538    8.6183   12.3646 C   0  0  0  0  0  0  0  0  0  0  0  0
   49.4093    9.8754   11.9842 C   0  0  0  0  0  0  0  0  0  0  0  0
   46.7901    8.9436   12.6486 O   0  0  0  0  0  0  0  0  0  0  0  0
   51.7776    9.5571   11.7233 O   0  0  0  0  0  0  0  0  0  0  0  0
   47.7213    6.9361   13.0026 O   0  0  0  0  0  0  0  0  0  0  0  0
   50.8302   11.5377   11.2706 O   0  0  0  0  0  0  0  0  0  0  0  0
   48.7472   10.9465   13.6141 H   0  0  0  0  0  0  0  0  0  0  0  0
   48.2138    9.4185   14.2746 H   0  0  0  0  0  0  0  0  0  0  0  0
   50.8530    7.3390   12.7538 H   0  0  0  0  0  0  0  0  0  0  0  0
   49.4316    7.3196   13.7685 H   0  0  0  0  0  0  0  0  0  0  0  0
   46.8223   10.1187   12.3051 H   0  0  0  0  0  0  0  0  0  0  0  0
   48.2513   10.2004   11.3024 H   0  0  0  0  0  0  0  0  0  0  0  0
   48.9029    6.5450   11.4288 H   0  0  0  0  0  0  0  0  0  0  0  0
   49.4938    8.0529   10.7786 H   0  0  0  0  0  0  0  0  0  0  0  0
   51.2194   11.0733   15.0039 H   0  0  0  0  0  0  0  0  0  0  0  0
   51.2751   14.5220   11.4301 H   0  0  0  0  0  0  0  0  0  0  0  0
   45.8687    8.1439   12.8750 H   0  0  0  0  0  0  0  0  0  0  0  0
   47.1954    7.2812   13.5965 H   0  0  0  0  0  0  0  0  0  0  0  0
   41.4496    5.1766   12.5536 H   0  0  0  0  0  0  0  0  0  0  0  0
   54.2484    8.3524   11.7579 H   0  0  0  0  0  0  0  0  0  0  0  0
   53.8526   12.3426    8.8459 H   0  0  0  0  0  0  0  0  0  0  0  0
   43.3259    4.1798   11.7703 H   0  0  0  0  0  0  0  0  0  0  0  0
   43.5965    5.5815   10.7414 H   0  0  0  0  0  0  0  0  0  0  0  0
   45.6726    6.4119   11.0609 H   0  0  0  0  0  0  0  0  0  0  0  0
   46.9953    5.5145   11.8069 H   0  0  0  0  0  0  0  0  0  0  0  0
   43.4739    5.6889   13.8024 H   0  0  0  0  0  0  0  0  0  0  0  0
   43.8640    7.0483   12.7739 H   0  0  0  0  0  0  0  0  0  0  0  0
   51.2963   13.4752   15.5979 H   0  0  0  0  0  0  0  0  0  0  0  0
   51.3086   15.1960   13.8031 H   0  0  0  0  0  0  0  0  0  0  0  0
   56.0049   11.1382    8.9964 H   0  0  0  0  0  0  0  0  0  0  0  0
   56.2082    9.1403   10.4640 H   0  0  0  0  0  0  0  0  0  0  0  0
   49.4579    8.1760   12.2210 H   0  0  0  0  0  0  0  0  0  0  0  0
   50.2147    8.6151   13.7574 H   0  0  0  0  0  0  0  0  0  0  0  0
   48.2909   11.4548   11.2844 H   0  0  0  0  0  0  0  0  0  0  0  0
   47.8686   11.5354   12.9851 H   0  0  0  0  0  0  0  0  0  0  0  0
   48.0247    7.5036   14.0899 H   0  0  0  0  0  0  0  0  0  0  0  0
   48.1008    9.1074   14.7950 H   0  0  0  0  0  0  0  0  0  0  0  0
   47.4077    9.1471   11.1213 H   0  0  0  0  0  0  0  0  0  0  0  0
   46.1757   10.3024   11.6429 H   0  0  0  0  0  0  0  0  0  0  0  0
   50.9286   11.5138   14.5132 H   0  0  0  0  0  0  0  0  0  0  0  0
   55.1164    9.4109   12.8875 H   0  0  0  0  0  0  0  0  0  0  0  0
   44.8672    8.4482   12.6862 H   0  0  0  0  0  0  0  0  0  0  0  0
   45.5738    7.5537   13.9834 H   0  0  0  0  0  0  0  0  0  0  0  0
   42.7578    5.7422   12.3389 H   0  0  0  0  0  0  0  0  0  0  0  0
   50.5947   13.3454    9.4959 H   0  0  0  0  0  0  0  0  0  0  0  0
   54.8639   10.9053    8.9019 H   0  0  0  0  0  0  0  0  0  0  0  0
   43.6476    3.3317   13.5285 H   0  0  0  0  0  0  0  0  0  0  0  0
   43.6362    3.6738   11.7788 H   0  0  0  0  0  0  0  0  0  0  0  0
   47.0232    6.2787   12.2923 H   0  0  0  0  0  0  0  0  0  0  0  0
   46.2705    7.2356   11.0125 H   0  0  0  0  0  0  0  0  0  0  0  0
   45.0144    5.3987   13.9138 H   0  0  0  0  0  0  0  0  0  0  0  0
   45.8673    4.2719   12.8086 H   0  0  0  0  0  0  0  0  0  0  0  0
   52.8826   11.3074   16.0192 H   0  0  0  0  0  0  0  0  0  0  0  0
   54.9753   10.2476   15.2025 H   0  0  0  0  0  0  0  0  0  0  0  0
   54.5032   13.0514    7.7373 H   0  0  0  0  0  0  0  0  0  0  0  0
   52.3580   14.2785    8.0299 H   0  0  0  0  0  0  0  0  0  0  0  0
   49.9236    7.8592   12.4457 H   0  0  0  0  0  0  0  0  0  0  0  0
   48.6391   10.6324   11.8926 H   0  0  0  0  0  0  0  0  0  0  0  0
   46.7723    6.7758   13.1848 H   0  0  0  0  0  0  0  0  0  0  0  0
   51.7780   11.6980   11.0802 H   0  0  0  0  0  0  0  0  0  0  0  0
  2  1  2  0
  3  1  1  0
  4  6  1  0
  5  1  1  0
  6  3  2  0
  7  2  1  0
  8  7  2  0
  9 13  1  0
 10  5  1  0
 11  5  1  0
 12 10  1  0
 13 11  1  0
 14  3  1  0
 15  6  1  0
 16  9  1  0
 17 21  1  0
 18  7  1  0
 19  8  1  0
 20 22  1  0
 21 23  1  0
 22 16  1  0
 23 20  1  0
 24 14  2  0
 25 15  2  0
 26 19  2  0
 27 18  2  0
  9 12  1  0
  8  4  1  0
 24 25  1  0
 27 26  1  0
 29 28  2  0
 30 28  1  0
 31 33  1  0
 32 28  1  0
 33 30  2  0
 34 29  1  0
 35 34  2  0
 36 40  1  0
 37 32  1  0
 38 32  1  0
 39 37  1  0
 40 38  1  0
 41 30  1  0
 42 33  1  0
 43 36  1  0
 44 48  1  0
 45 34  1  0
 46 35  1  0
 47 49  1  0
 48 50  1  0
 49 43  1  0
 50 47  1  0
 51 41  2  0
 52 42  2  0
 53 46  2  0
 54 45  2  0
 36 39  1  0
 35 31  1  0
 51 52  1  0
 54 53  1  0
 56 58  1  0
 57 55  1  0
 58 57  2  0
 59 55  2  0
 60 56  2  0
 61 55  1  0
 62 56  1  0
 10 63  1  0
 10 64  1  0
 11 65  1  0
 11 66  1  0
 12 67  1  0
 12 68  1  0
 13 69  1  0
 13 70  1  0
 14 71  1  0
 15 72  1  0
 16 73  1  0
 16 74  1  0
 17 75  1  0
 18 76  1  0
 19 77  1  0
 21 78  1  0
 21 79  1  0
 22 80  1  0
 22 81  1  0
 23 82  1  0
 23 83  1  0
 24 84  1  0
 25 85  1  0
 26 86  1  0
 27 87  1  0
 37 88  1  0
 37 89  1  0
 38 90  1  0
 38 91  1  0
 39 92  1  0
 39 93  1  0
 40 94  1  0
 40 95  1  0
 41 96  1  0
 42 97  1  0
 43 98  1  0
 43 99  1  0
 44100  1  0
 45101  1  0
 46102  1  0
 48103  1  0
 48104  1  0
 49105  1  0
 49106  1  0
 50107  1  0
 50108  1  0
 51109  1  0
 52110  1  0
 53111  1  0
 54112  1  0
 57113  1  0
 58114  1  0
 61115  1  0
 62116  1  0
M  END
> <Uni-Dock RESULT> 
ENERGY=   -5.612  LOWER_BOUND=    2.384  UPPER_BOUND=    4.897
INTER + INTRA:          -5.612
INTER:                  -5.612
INTRA:                   0.000
UNBOUND:                 0.000

$$$$

     RDKit          3D

116121  0  0  0  0  0  0  0  0999 V2000
   49.1327    7.9024   16.8271 C   0  0  0  0  0  0  0  0  0  0  0  0
   48.6498    6.7411   16.4726 N   0  0  0  0  0  0  0  0  0  0  0  0
   50.0209    8.0958   18.0207 C   0  0  0  0  0  0  0  0  0  0  0  0
   51.6668    6.0275   17.0951 S   0  0  0  0  0  0  0  0  0  0  0  0
   48.7774    9.0370   16.0741 N   0  0  0  0  0  0  0  0  0  0  0  0
   51.2109    7.3723   18.1779 C   0  0  0  0  0  0  0  0  0  0  0  0
   48.9177    5.5255   17.1258 C   0  0  0  0  0  0  0  0  0  0  0  0
   50.2079    5.0321   17.3926 C   0  0  0  0  0  0  0  0  0  0  0  0
   49.8041    9.5198   13.3206 N   0  0  0  0  0  0  0  0  0  0  0  0
   49.7630   10.1102   15.8110 C   0  0  0  0  0  0  0  0  0  0  0  0
   47.8984    8.8475   14.8974 C   0  0  0  0  0  0  0  0  0  0  0  0
   50.5949    9.7762   14.5501 C   0  0  0  0  0  0  0  0  0  0  0  0
   48.7468    8.5210   13.6432 C   0  0  0  0  0  0  0  0  0  0  0  0
   49.6631    9.0812   18.9551 C   0  0  0  0  0  0  0  0  0  0  0  0
   52.0531    7.6696   19.2566 C   0  0  0  0  0  0  0  0  0  0  0  0
   49.2508   10.7654   12.7591 C   0  0  0  0  0  0  0  0  0  0  0  0
   50.4917   13.3498    8.2429 O   0  0  0  0  0  0  0  0  0  0  0  0
   47.8154    4.7125   17.4236 C   0  0  0  0  0  0  0  0  0  0  0  0
   50.3722    3.7603   17.9635 C   0  0  0  0  0  0  0  0  0  0  0  0
   48.2867   11.8589   10.7950 O   0  0  0  0  0  0  0  0  0  0  0  0
   49.6275   12.3724    8.8113 C   0  0  0  0  0  0  0  0  0  0  0  0
   48.8222   10.6235   11.2860 C   0  0  0  0  0  0  0  0  0  0  0  0
   49.2677   12.7392   10.2495 C   0  0  0  0  0  0  0  0  0  0  0  0
   50.5043    9.3597   20.0317 C   0  0  0  0  0  0  0  0  0  0  0  0
   51.7004    8.6609   20.1761 C   0  0  0  0  0  0  0  0  0  0  0  0
   49.2603    2.9693   18.2611 C   0  0  0  0  0  0  0  0  0  0  0  0
   47.9805    3.4467   17.9928 C   0  0  0  0  0  0  0  0  0  0  0  0
   50.0948    7.7827   16.7821 C   0  0  0  0  0  0  0  0  0  0  0  0
   51.0359    6.9370   16.4640 N   0  0  0  0  0  0  0  0  0  0  0  0
   49.0546    7.5478   17.8397 C   0  0  0  0  0  0  0  0  0  0  0  0
   48.5256    5.0141   16.7817 S   0  0  0  0  0  0  0  0  0  0  0  0
   50.0474    9.0173   16.1244 N   0  0  0  0  0  0  0  0  0  0  0  0
   48.2829    6.3811   17.8972 C   0  0  0  0  0  0  0  0  0  0  0  0
   51.2278    5.6793   17.0563 C   0  0  0  0  0  0  0  0  0  0  0  0
   50.2337    4.6946   17.2009 C   0  0  0  0  0  0  0  0  0  0  0  0
   50.0805   11.1556   14.0581 N   0  0  0  0  0  0  0  0  0  0  0  0
   48.8188    9.3663   15.3818 C   0  0  0  0  0  0  0  0  0  0  0  0
   51.2924    9.6031   15.5778 C   0  0  0  0  0  0  0  0  0  0  0  0
   48.8644   10.8008   14.8065 C   0  0  0  0  0  0  0  0  0  0  0  0
   51.1169   10.1181   14.1358 C   0  0  0  0  0  0  0  0  0  0  0  0
   48.8286    8.5833   18.7608 C   0  0  0  0  0  0  0  0  0  0  0  0
   47.2846    6.2710   18.8771 C   0  0  0  0  0  0  0  0  0  0  0  0
   49.8525   11.6774   12.7103 C   0  0  0  0  0  0  0  0  0  0  0  0
   49.1288   13.6792    8.8668 O   0  0  0  0  0  0  0  0  0  0  0  0
   52.5427    5.3577   17.4215 C   0  0  0  0  0  0  0  0  0  0  0  0
   50.5615    3.4340   17.7189 C   0  0  0  0  0  0  0  0  0  0  0  0
   49.2033   11.3269   10.3749 O   0  0  0  0  0  0  0  0  0  0  0  0
   48.0346   12.7612    8.8619 C   0  0  0  0  0  0  0  0  0  0  0  0
   49.3118   10.6947   11.6556 C   0  0  0  0  0  0  0  0  0  0  0  0
   47.9712   12.0389   10.2037 C   0  0  0  0  0  0  0  0  0  0  0  0
   47.8339    8.4615   19.7306 C   0  0  0  0  0  0  0  0  0  0  0  0
   47.0611    7.3059   19.7885 C   0  0  0  0  0  0  0  0  0  0  0  0
   51.8767    3.1380   18.0836 C   0  0  0  0  0  0  0  0  0  0  0  0
   52.8691    4.1011   17.9328 C   0  0  0  0  0  0  0  0  0  0  0  0
   49.2916   10.1193   13.8543 C   0  0  0  0  0  0  0  0  0  0  0  0
   49.8938    7.4338   16.4209 C   0  0  0  0  0  0  0  0  0  0  0  0
   49.0874    8.9788   14.7479 C   0  0  0  0  0  0  0  0  0  0  0  0
   50.0929    8.5823   15.5366 C   0  0  0  0  0  0  0  0  0  0  0  0
   50.2917   10.7997   13.7439 O   0  0  0  0  0  0  0  0  0  0  0  0
   48.8809    6.7758   16.5591 O   0  0  0  0  0  0  0  0  0  0  0  0
   48.1857   10.3415   13.1294 O   0  0  0  0  0  0  0  0  0  0  0  0
   51.0205    7.1710   17.0985 O   0  0  0  0  0  0  0  0  0  0  0  0
   50.4375   10.2766   16.6558 H   0  0  0  0  0  0  0  0  0  0  0  0
   49.2253   11.0551   15.6659 H   0  0  0  0  0  0  0  0  0  0  0  0
   47.1569    8.0600   15.0707 H   0  0  0  0  0  0  0  0  0  0  0  0
   47.3226    9.7663   14.7367 H   0  0  0  0  0  0  0  0  0  0  0  0
   51.3215   10.5775   14.3685 H   0  0  0  0  0  0  0  0  0  0  0  0
   51.1936    8.8777   14.7537 H   0  0  0  0  0  0  0  0  0  0  0  0
   48.0855    8.3676   12.7833 H   0  0  0  0  0  0  0  0  0  0  0  0
   49.2512    7.5570   13.7980 H   0  0  0  0  0  0  0  0  0  0  0  0
   48.7355    9.6343   18.8353 H   0  0  0  0  0  0  0  0  0  0  0  0
   52.9825    7.1207   19.3958 H   0  0  0  0  0  0  0  0  0  0  0  0
   50.0105   11.5533   12.7991 H   0  0  0  0  0  0  0  0  0  0  0  0
   48.4091   11.1492   13.3442 H   0  0  0  0  0  0  0  0  0  0  0  0
   49.9758   14.1709    8.1534 H   0  0  0  0  0  0  0  0  0  0  0  0
   46.8163    5.0778   17.2010 H   0  0  0  0  0  0  0  0  0  0  0  0
   51.3678    3.3805   18.1813 H   0  0  0  0  0  0  0  0  0  0  0  0
   48.7272   12.2823    8.1924 H   0  0  0  0  0  0  0  0  0  0  0  0
   50.1393   11.4049    8.7689 H   0  0  0  0  0  0  0  0  0  0  0  0
   49.6528   10.2739   10.6626 H   0  0  0  0  0  0  0  0  0  0  0  0
   48.0156    9.8890   11.1945 H   0  0  0  0  0  0  0  0  0  0  0  0
   48.8371   13.7446   10.2608 H   0  0  0  0  0  0  0  0  0  0  0  0
   50.1619   12.7848   10.8782 H   0  0  0  0  0  0  0  0  0  0  0  0
   50.2257   10.1262   20.7497 H   0  0  0  0  0  0  0  0  0  0  0  0
   52.3574    8.8740   21.0149 H   0  0  0  0  0  0  0  0  0  0  0  0
   49.3962    1.9831   18.6971 H   0  0  0  0  0  0  0  0  0  0  0  0
   47.1104    2.8365   18.2139 H   0  0  0  0  0  0  0  0  0  0  0  0
   48.6819    8.6480   14.5613 H   0  0  0  0  0  0  0  0  0  0  0  0
   47.9392    9.2866   16.0333 H   0  0  0  0  0  0  0  0  0  0  0  0
   52.1264    8.8936   15.5933 H   0  0  0  0  0  0  0  0  0  0  0  0
   51.5824   10.4338   16.2327 H   0  0  0  0  0  0  0  0  0  0  0  0
   47.9605   10.9617   14.2069 H   0  0  0  0  0  0  0  0  0  0  0  0
   48.7990   11.5004   15.6497 H   0  0  0  0  0  0  0  0  0  0  0  0
   50.8774    9.2676   13.4881 H   0  0  0  0  0  0  0  0  0  0  0  0
   52.0701   10.5354   13.7957 H   0  0  0  0  0  0  0  0  0  0  0  0
   49.4319    9.4893   18.7192 H   0  0  0  0  0  0  0  0  0  0  0  0
   46.6789    5.3695   18.9463 H   0  0  0  0  0  0  0  0  0  0  0  0
   50.7912   12.1047   12.3326 H   0  0  0  0  0  0  0  0  0  0  0  0
   49.1820   12.5418   12.7815 H   0  0  0  0  0  0  0  0  0  0  0  0
   49.8967   13.1541    9.1717 H   0  0  0  0  0  0  0  0  0  0  0  0
   53.3227    6.1049   17.2884 H   0  0  0  0  0  0  0  0  0  0  0  0
   49.7934    2.6743   17.8430 H   0  0  0  0  0  0  0  0  0  0  0  0
   47.1141   13.3207    8.6755 H   0  0  0  0  0  0  0  0  0  0  0  0
   48.1993   12.0563    8.0415 H   0  0  0  0  0  0  0  0  0  0  0  0
   48.3487   10.2613   11.9501 H   0  0  0  0  0  0  0  0  0  0  0  0
   50.0180    9.8710   11.5243 H   0  0  0  0  0  0  0  0  0  0  0  0
   47.8540   12.7727   11.0081 H   0  0  0  0  0  0  0  0  0  0  0  0
   47.1325   11.3329   10.2174 H   0  0  0  0  0  0  0  0  0  0  0  0
   47.6645    9.2677   20.4385 H   0  0  0  0  0  0  0  0  0  0  0  0
   46.2842    7.2055   20.5441 H   0  0  0  0  0  0  0  0  0  0  0  0
   52.1209    2.1567   18.4811 H   0  0  0  0  0  0  0  0  0  0  0  0
   53.8978    3.8763   18.2002 H   0  0  0  0  0  0  0  0  0  0  0  0
   48.1227    8.4846   14.7296 H   0  0  0  0  0  0  0  0  0  0  0  0
   51.0612    9.0691   15.5482 H   0  0  0  0  0  0  0  0  0  0  0  0
   48.4186   11.1096   12.5681 H   0  0  0  0  0  0  0  0  0  0  0  0
   50.7920    6.3976   17.6551 H   0  0  0  0  0  0  0  0  0  0  0  0
  2  1  2  0
  3  1  1  0
  4  6  1  0
  5  1  1  0
  6  3  2  0
  7  2  1  0
  8  7  2  0
  9 13  1  0
 10  5  1  0
 11  5  1  0
 12 10  1  0
 13 11  1  0
 14  3  1  0
 15  6  1  0
 16  9  1  0
 17 21  1  0
 18  7  1  0
 19  8  1  0
 20 22  1  0
 21 23  1  0
 22 16  1  0
 23 20  1  0
 24 14  2  0
 25 15  2  0
 26 19  2  0
 27 18  2  0
  9 12  1  0
  8  4  1  0
 24 25  1  0
 27 26  1  0
 29 28  2  0
 30 28  1  0
 31 33  1  0
 32 28  1  0
 33 30  2  0
 34 29  1  0
 35 34  2  0
 36 40  1  0
 37 32  1  0
 38 32  1  0
 39 37  1  0
 40 38  1  0
 41 30  1  0
 42 33  1  0
 43 36  1  0
 44 48  1  0
 45 34  1  0
 46 35  1  0
 47 49  1  0
 48 50  1  0
 49 43  1  0
 50 47  1  0
 51 41  2  0
 52 42  2  0
 53 46  2  0
 54 45  2  0
 36 39  1  0
 35 31  1  0
 51 52  1  0
 54 53  1  0
 56 58  1  0
 57 55  1  0
 58 57  2  0
 59 55  2  0
 60 56  2  0
 61 55  1  0
 62 56  1  0
 10 63  1  0
 10 64  1  0
 11 65  1  0
 11 66  1  0
 12 67  1  0
 12 68  1  0
 13 69  1  0
 13 70  1  0
 14 71  1  0
 15 72  1  0
 16 73  1  0
 16 74  1  0
 17 75  1  0
 18 76  1  0
 19 77  1  0
 21 78  1  0
 21 79  1  0
 22 80  1  0
 22 81  1  0
 23 82  1  0
 23 83  1  0
 24 84  1  0
 25 85  1  0
 26 86  1  0
 27 87  1  0
 37 88  1  0
 37 89  1  0
 38 90  1  0
 38 91  1  0
 39 92  1  0
 39 93  1  0
 40 94  1  0
 40 95  1  0
 41 96  1  0
 42 97  1  0
 43 98  1  0
 43 99  1  0
 44100  1  0
 45101  1  0
 46102  1  0
 48103  1  0
 48104  1  0
 49105  1  0
 49106  1  0
 50107  1  0
 50108  1  0
 51109  1  0
 52110  1  0
 53111  1  0
 54112  1  0
 57113  1  0
 58114  1  0
 61115  1  0
 62116  1  0
M  END
> <Uni-Dock RESULT> 
ENERGY=   -5.558  LOWER_BOUND=    3.625  UPPER_BOUND=    7.189
INTER + INTRA:          -5.558
INTER:                  -5.558
INTRA:                   0.000
UNBOUND:                 0.000

$$$$

     RDKit          3D

116121  0  0  0  0  0  0  0  0999 V2000
   49.4420    6.7069   18.5391 C   0  0  0  0  0  0  0  0  0  0  0  0
   50.5012    6.2320   17.9392 N   0  0  0  0  0  0  0  0  0  0  0  0
   48.9403    6.1914   19.8558 C   0  0  0  0  0  0  0  0  0  0  0  0
   51.5107    6.5007   20.9237 S   0  0  0  0  0  0  0  0  0  0  0  0
   48.7124    7.7305   17.9063 N   0  0  0  0  0  0  0  0  0  0  0  0
   49.7615    6.1477   20.9906 C   0  0  0  0  0  0  0  0  0  0  0  0
   51.3261    5.2145   18.4495 C   0  0  0  0  0  0  0  0  0  0  0  0
   51.9210    5.2356   19.7241 C   0  0  0  0  0  0  0  0  0  0  0  0
   49.7421   10.5137   17.6556 N   0  0  0  0  0  0  0  0  0  0  0  0
   48.1148    8.8326   18.6940 C   0  0  0  0  0  0  0  0  0  0  0  0
   49.2052    8.2380   16.6052 C   0  0  0  0  0  0  0  0  0  0  0  0
   49.1482    9.9653   18.9004 C   0  0  0  0  0  0  0  0  0  0  0  0
   50.2329    9.3752   16.8293 C   0  0  0  0  0  0  0  0  0  0  0  0
   47.5907    5.8131   19.9439 C   0  0  0  0  0  0  0  0  0  0  0  0
   49.2104    5.7572   22.2174 C   0  0  0  0  0  0  0  0  0  0  0  0
   48.7875   11.3688   16.9273 C   0  0  0  0  0  0  0  0  0  0  0  0
   48.8218   16.6588   16.1340 O   0  0  0  0  0  0  0  0  0  0  0  0
   51.6566    4.1710   17.5738 C   0  0  0  0  0  0  0  0  0  0  0  0
   52.8083    4.2169   20.1050 C   0  0  0  0  0  0  0  0  0  0  0  0
   48.4968   13.1000   15.2240 O   0  0  0  0  0  0  0  0  0  0  0  0
   49.2275   15.4088   15.5879 C   0  0  0  0  0  0  0  0  0  0  0  0
   49.4700   12.2989   15.9061 C   0  0  0  0  0  0  0  0  0  0  0  0
   48.1911   14.3269   15.8844 C   0  0  0  0  0  0  0  0  0  0  0  0
   47.0566    5.4145   21.1687 C   0  0  0  0  0  0  0  0  0  0  0  0
   47.8634    5.3954   22.3038 C   0  0  0  0  0  0  0  0  0  0  0  0
   53.1177    3.1809   19.2208 C   0  0  0  0  0  0  0  0  0  0  0  0
   52.5396    3.1569   17.9547 C   0  0  0  0  0  0  0  0  0  0  0  0
   49.7782    7.0375   19.3874 C   0  0  0  0  0  0  0  0  0  0  0  0
   50.8616    7.2153   20.0921 N   0  0  0  0  0  0  0  0  0  0  0  0
   49.2832    5.7060   18.9000 C   0  0  0  0  0  0  0  0  0  0  0  0
   51.8364    5.0872   17.9424 S   0  0  0  0  0  0  0  0  0  0  0  0
   48.9876    8.1492   19.0744 N   0  0  0  0  0  0  0  0  0  0  0  0
   50.1004    4.7980   18.2161 C   0  0  0  0  0  0  0  0  0  0  0  0
   51.7333    6.1968   20.5072 C   0  0  0  0  0  0  0  0  0  0  0  0
   52.3049    5.2286   19.6617 C   0  0  0  0  0  0  0  0  0  0  0  0
   48.0552   10.8464   18.2383 N   0  0  0  0  0  0  0  0  0  0  0  0
   48.7429    8.4534   17.6495 C   0  0  0  0  0  0  0  0  0  0  0  0
   48.9963    9.3283   19.9698 C   0  0  0  0  0  0  0  0  0  0  0  0
   47.7625    9.6337   17.4580 C   0  0  0  0  0  0  0  0  0  0  0  0
   49.1505   10.6530   19.1972 C   0  0  0  0  0  0  0  0  0  0  0  0
   47.9251    5.4116   19.1019 C   0  0  0  0  0  0  0  0  0  0  0  0
   49.5407    3.6049   17.7344 C   0  0  0  0  0  0  0  0  0  0  0  0
   48.1500   12.0810   17.4588 C   0  0  0  0  0  0  0  0  0  0  0  0
   47.9579   15.8291   15.1746 O   0  0  0  0  0  0  0  0  0  0  0  0
   52.1409    6.2348   21.8482 C   0  0  0  0  0  0  0  0  0  0  0  0
   53.2420    4.3172   20.1676 C   0  0  0  0  0  0  0  0  0  0  0  0
   49.3477   13.5046   15.8660 O   0  0  0  0  0  0  0  0  0  0  0  0
   48.5157   14.9746   14.1751 C   0  0  0  0  0  0  0  0  0  0  0  0
   49.3522   12.2239   16.5077 C   0  0  0  0  0  0  0  0  0  0  0  0
   48.5333   13.5380   14.6870 C   0  0  0  0  0  0  0  0  0  0  0  0
   47.3807    4.2219   18.6189 C   0  0  0  0  0  0  0  0  0  0  0  0
   48.1881    3.3188   17.9344 C   0  0  0  0  0  0  0  0  0  0  0  0
   53.6276    4.3684   21.5090 C   0  0  0  0  0  0  0  0  0  0  0  0
   53.0772    5.3301   22.3499 C   0  0  0  0  0  0  0  0  0  0  0  0
   48.8714   10.2022   17.4280 C   0  0  0  0  0  0  0  0  0  0  0  0
   50.1973    7.0745   19.0472 C   0  0  0  0  0  0  0  0  0  0  0  0
   49.4201    8.8589   17.6160 C   0  0  0  0  0  0  0  0  0  0  0  0
   49.6363    8.4127   18.8587 C   0  0  0  0  0  0  0  0  0  0  0  0
   48.5504   10.9949   18.2906 O   0  0  0  0  0  0  0  0  0  0  0  0
   50.4837    6.2664   18.1854 O   0  0  0  0  0  0  0  0  0  0  0  0
   48.7561   10.4748   16.1203 O   0  0  0  0  0  0  0  0  0  0  0  0
   50.3734    6.8267   20.3531 O   0  0  0  0  0  0  0  0  0  0  0  0
   47.7442    8.4993   19.6676 H   0  0  0  0  0  0  0  0  0  0  0  0
   47.2399    9.2169   18.1555 H   0  0  0  0  0  0  0  0  0  0  0  0
   49.6486    7.4381   16.0021 H   0  0  0  0  0  0  0  0  0  0  0  0
   48.3516    8.6076   16.0254 H   0  0  0  0  0  0  0  0  0  0  0  0
   48.6934   10.7731   19.4865 H   0  0  0  0  0  0  0  0  0  0  0  0
   49.9703    9.5804   19.5194 H   0  0  0  0  0  0  0  0  0  0  0  0
   50.6018    9.7316   15.8613 H   0  0  0  0  0  0  0  0  0  0  0  0
   51.1127    8.9615   17.3417 H   0  0  0  0  0  0  0  0  0  0  0  0
   46.9588    5.8397   19.0603 H   0  0  0  0  0  0  0  0  0  0  0  0
   49.8305    5.7181   23.1110 H   0  0  0  0  0  0  0  0  0  0  0  0
   48.2532   12.0078   17.6383 H   0  0  0  0  0  0  0  0  0  0  0  0
   48.0086   10.7886   16.4223 H   0  0  0  0  0  0  0  0  0  0  0  0
   48.0345   16.9461   15.6379 H   0  0  0  0  0  0  0  0  0  0  0  0
   51.2175    4.1590   16.5797 H   0  0  0  0  0  0  0  0  0  0  0  0
   53.2613    4.2242   21.0938 H   0  0  0  0  0  0  0  0  0  0  0  0
   49.3817   15.5191   14.5082 H   0  0  0  0  0  0  0  0  0  0  0  0
   50.1996   15.1512   16.0222 H   0  0  0  0  0  0  0  0  0  0  0  0
   50.2337   12.9220   16.3849 H   0  0  0  0  0  0  0  0  0  0  0  0
   49.9704   11.7096   15.1311 H   0  0  0  0  0  0  0  0  0  0  0  0
   47.2179   14.6577   15.5105 H   0  0  0  0  0  0  0  0  0  0  0  0
   48.0698   14.1847   16.9624 H   0  0  0  0  0  0  0  0  0  0  0  0
   46.0106    5.1271   21.2332 H   0  0  0  0  0  0  0  0  0  0  0  0
   47.4511    5.0835   23.2595 H   0  0  0  0  0  0  0  0  0  0  0  0
   53.8106    2.3993   19.5209 H   0  0  0  0  0  0  0  0  0  0  0  0
   52.7793    2.3599   17.2579 H   0  0  0  0  0  0  0  0  0  0  0  0
   49.7007    8.6922   17.1663 H   0  0  0  0  0  0  0  0  0  0  0  0
   48.3287    7.5773   17.1343 H   0  0  0  0  0  0  0  0  0  0  0  0
   49.7898    9.2718   20.7225 H   0  0  0  0  0  0  0  0  0  0  0  0
   48.0482    9.3319   20.5213 H   0  0  0  0  0  0  0  0  0  0  0  0
   47.6895    9.8519   16.3859 H   0  0  0  0  0  0  0  0  0  0  0  0
   46.7662    9.2932   17.7681 H   0  0  0  0  0  0  0  0  0  0  0  0
   50.1237   10.6525   18.6941 H   0  0  0  0  0  0  0  0  0  0  0  0
   49.1495   11.4786   19.9160 H   0  0  0  0  0  0  0  0  0  0  0  0
   47.2899    6.1157   19.6379 H   0  0  0  0  0  0  0  0  0  0  0  0
   50.1592    2.8805   17.2081 H   0  0  0  0  0  0  0  0  0  0  0  0
   48.1538   12.9357   18.1485 H   0  0  0  0  0  0  0  0  0  0  0  0
   47.2196   12.2063   16.8925 H   0  0  0  0  0  0  0  0  0  0  0  0
   48.4481   15.6120   15.9937 H   0  0  0  0  0  0  0  0  0  0  0  0
   51.7232    6.9974   22.5028 H   0  0  0  0  0  0  0  0  0  0  0  0
   53.6772    3.5600   19.5197 H   0  0  0  0  0  0  0  0  0  0  0  0
   47.9093   15.0593   13.2694 H   0  0  0  0  0  0  0  0  0  0  0  0
   49.5284   15.3311   13.9645 H   0  0  0  0  0  0  0  0  0  0  0  0
   49.3852   11.4227   15.7601 H   0  0  0  0  0  0  0  0  0  0  0  0
   50.2818   12.1792   17.0807 H   0  0  0  0  0  0  0  0  0  0  0  0
   47.5131   13.2259   14.9340 H   0  0  0  0  0  0  0  0  0  0  0  0
   48.9552   12.8682   13.9284 H   0  0  0  0  0  0  0  0  0  0  0  0
   46.3289    4.0024   18.7782 H   0  0  0  0  0  0  0  0  0  0  0  0
   47.7683    2.3884   17.5563 H   0  0  0  0  0  0  0  0  0  0  0  0
   54.3573    3.6594   21.8904 H   0  0  0  0  0  0  0  0  0  0  0  0
   53.3809    5.3876   23.3914 H   0  0  0  0  0  0  0  0  0  0  0  0
   49.6445    8.2728   16.7320 H   0  0  0  0  0  0  0  0  0  0  0  0
   49.4222    9.0017   19.7430 H   0  0  0  0  0  0  0  0  0  0  0  0
   48.3896   11.3829   16.0972 H   0  0  0  0  0  0  0  0  0  0  0  0
   50.7475    5.9213   20.3781 H   0  0  0  0  0  0  0  0  0  0  0  0
  2  1  2  0
  3  1  1  0
  4  6  1  0
  5  1  1  0
  6  3  2  0
  7  2  1  0
  8  7  2  0
  9 13  1  0
 10  5  1  0
 11  5  1  0
 12 10  1  0
 13 11  1  0
 14  3  1  0
 15  6  1  0
 16  9  1  0
 17 21  1  0
 18  7  1  0
 19  8  1  0
 20 22  1  0
 21 23  1  0
 22 16  1  0
 23 20  1  0
 24 14  2  0
 25 15  2  0
 26 19  2  0
 27 18  2  0
  9 12  1  0
  8  4  1  0
 24 25  1  0
 27 26  1  0
 29 28  2  0
 30 28  1  0
 31 33  1  0
 32 28  1  0
 33 30  2  0
 34 29  1  0
 35 34  2  0
 36 40  1  0
 37 32  1  0
 38 32  1  0
 39 37  1  0
 40 38  1  0
 41 30  1  0
 42 33  1  0
 43 36  1  0
 44 48  1  0
 45 34  1  0
 46 35  1  0
 47 49  1  0
 48 50  1  0
 49 43  1  0
 50 47  1  0
 51 41  2  0
 52 42  2  0
 53 46  2  0
 54 45  2  0
 36 39  1  0
 35 31  1  0
 51 52  1  0
 54 53  1  0
 56 58  1  0
 57 55  1  0
 58 57  2  0
 59 55  2  0
 60 56  2  0
 61 55  1  0
 62 56  1  0
 10 63  1  0
 10 64  1  0
 11 65  1  0
 11 66  1  0
 12 67  1  0
 12 68  1  0
 13 69  1  0
 13 70  1  0
 14 71  1  0
 15 72  1  0
 16 73  1  0
 16 74  1  0
 17 75  1  0
 18 76  1  0
 19 77  1  0
 21 78  1  0
 21 79  1  0
 22 80  1  0
 22 81  1  0
 23 82  1  0
 23 83  1  0
 24 84  1  0
 25 85  1  0
 26 86  1  0
 27 87  1  0
 37 88  1  0
 37 89  1  0
 38 90  1  0
 38 91  1  0
 39 92  1  0
 39 93  1  0
 40 94  1  0
 40 95  1  0
 41 96  1  0
 42 97  1  0
 43 98  1  0
 43 99  1  0
 44100  1  0
 45101  1  0
 46102  1  0
 48103  1  0
 48104  1  0
 49105  1  0
 49106  1  0
 50107  1  0
 50108  1  0
 51109  1  0
 52110  1  0
 53111  1  0
 54112  1  0
 57113  1  0
 58114  1  0
 61115  1  0
 62116  1  0
M  END
> <Uni-Dock RESULT> 
ENERGY=   -5.495  LOWER_BOUND=    4.824  UPPER_BOUND=    8.781
INTER + INTRA:          -5.495
INTER:                  -5.495
INTRA:                   0.000
UNBOUND:                 0.000

$$$$

     RDKit          3D

116121  0  0  0  0  0  0  0  0999 V2000
   50.1499    7.1627   19.0234 C   0  0  0  0  0  0  0  0  0  0  0  0
   49.4010    6.6818   18.0668 N   0  0  0  0  0  0  0  0  0  0  0  0
   50.7397    6.3160   20.1126 C   0  0  0  0  0  0  0  0  0  0  0  0
   51.7566    4.5748   18.1691 S   0  0  0  0  0  0  0  0  0  0  0  0
   50.3906    8.5489   19.0572 N   0  0  0  0  0  0  0  0  0  0  0  0
   51.5400    5.2015   19.8272 C   0  0  0  0  0  0  0  0  0  0  0  0
   49.0771    5.3235   17.9048 C   0  0  0  0  0  0  0  0  0  0  0  0
   50.0204    4.2817   17.8411 C   0  0  0  0  0  0  0  0  0  0  0  0
   52.1442    9.9203   17.0790 N   0  0  0  0  0  0  0  0  0  0  0  0
   51.7141    9.0781   19.4577 C   0  0  0  0  0  0  0  0  0  0  0  0
   49.8064    9.3858   17.9841 C   0  0  0  0  0  0  0  0  0  0  0  0
   52.6582    9.1423   18.2337 C   0  0  0  0  0  0  0  0  0  0  0  0
   50.7664    9.4453   16.7699 C   0  0  0  0  0  0  0  0  0  0  0  0
   50.5258    6.7115   21.4431 C   0  0  0  0  0  0  0  0  0  0  0  0
   52.1506    4.5114   20.8818 C   0  0  0  0  0  0  0  0  0  0  0  0
   52.1967   11.3714   17.3332 C   0  0  0  0  0  0  0  0  0  0  0  0
   55.2775   15.1410   15.1166 O   0  0  0  0  0  0  0  0  0  0  0  0
   47.7272    5.0185   17.6819 C   0  0  0  0  0  0  0  0  0  0  0  0
   49.6029    2.9674   17.5794 C   0  0  0  0  0  0  0  0  0  0  0  0
   52.1575   13.6111   16.3509 O   0  0  0  0  0  0  0  0  0  0  0  0
   54.0243   14.4736   15.0211 C   0  0  0  0  0  0  0  0  0  0  0  0
   52.1092   12.2118   16.0449 C   0  0  0  0  0  0  0  0  0  0  0  0
   53.4788   14.1457   16.4094 C   0  0  0  0  0  0  0  0  0  0  0  0
   51.1296    6.0089   22.4852 C   0  0  0  0  0  0  0  0  0  0  0  0
   51.9469    4.9169   22.2034 C   0  0  0  0  0  0  0  0  0  0  0  0
   48.2517    2.6830   17.3689 C   0  0  0  0  0  0  0  0  0  0  0  0
   47.3128    3.7092   17.4222 C   0  0  0  0  0  0  0  0  0  0  0  0
   50.9956    6.6983   18.9186 C   0  0  0  0  0  0  0  0  0  0  0  0
   51.6411    5.8437   18.1735 N   0  0  0  0  0  0  0  0  0  0  0  0
   49.7175    6.4022   19.6495 C   0  0  0  0  0  0  0  0  0  0  0  0
   48.6287    5.2842   17.3294 S   0  0  0  0  0  0  0  0  0  0  0  0
   51.5277    7.9818   19.0878 N   0  0  0  0  0  0  0  0  0  0  0  0
   48.6058    5.8220   19.0272 C   0  0  0  0  0  0  0  0  0  0  0  0
   51.2483    4.5173   17.9374 C   0  0  0  0  0  0  0  0  0  0  0  0
   49.9751    4.1194   17.4905 C   0  0  0  0  0  0  0  0  0  0  0  0
   52.7749   10.6407   18.6215 N   0  0  0  0  0  0  0  0  0  0  0  0
   50.7046    9.1385   18.6789 C   0  0  0  0  0  0  0  0  0  0  0  0
   52.9896    8.1880   18.9767 C   0  0  0  0  0  0  0  0  0  0  0  0
   51.3696   10.4895   19.0305 C   0  0  0  0  0  0  0  0  0  0  0  0
   53.3478    9.3971   18.0907 C   0  0  0  0  0  0  0  0  0  0  0  0
   49.6437    6.7874   20.9979 C   0  0  0  0  0  0  0  0  0  0  0  0
   47.4267    5.6421   19.7661 C   0  0  0  0  0  0  0  0  0  0  0  0
   53.0652   11.8276   17.8166 C   0  0  0  0  0  0  0  0  0  0  0  0
   54.0003   15.6257   15.8158 O   0  0  0  0  0  0  0  0  0  0  0  0
   52.2490    3.5421   18.0528 C   0  0  0  0  0  0  0  0  0  0  0  0
   49.7227    2.7733   17.1920 C   0  0  0  0  0  0  0  0  0  0  0  0
   52.9114   13.0539   15.7021 O   0  0  0  0  0  0  0  0  0  0  0  0
   52.6942   15.3971   15.2847 C   0  0  0  0  0  0  0  0  0  0  0  0
   52.4908   11.8691   16.3887 C   0  0  0  0  0  0  0  0  0  0  0  0
   52.0723   14.1846   15.9696 C   0  0  0  0  0  0  0  0  0  0  0  0
   48.4662    6.6027   21.7219 C   0  0  0  0  0  0  0  0  0  0  0  0
   47.3572    6.0309   21.1061 C   0  0  0  0  0  0  0  0  0  0  0  0
   50.7325    1.8173   17.3217 C   0  0  0  0  0  0  0  0  0  0  0  0
   51.9982    2.2030   17.7511 C   0  0  0  0  0  0  0  0  0  0  0  0
   51.7539   10.3012   17.8598 C   0  0  0  0  0  0  0  0  0  0  0  0
   50.7803    6.7099   18.4224 C   0  0  0  0  0  0  0  0  0  0  0  0
   50.9687    9.0691   17.9376 C   0  0  0  0  0  0  0  0  0  0  0  0
   51.5616    7.9452   18.3568 C   0  0  0  0  0  0  0  0  0  0  0  0
   52.9212   10.4518   18.1601 O   0  0  0  0  0  0  0  0  0  0  0  0
   49.6025    6.5667   18.1577 O   0  0  0  0  0  0  0  0  0  0  0  0
   50.9954   11.3033   17.3928 O   0  0  0  0  0  0  0  0  0  0  0  0
   51.5555    5.6935   18.8274 O   0  0  0  0  0  0  0  0  0  0  0  0
   52.1833    8.4818   20.2456 H   0  0  0  0  0  0  0  0  0  0  0  0
   51.5797   10.0812   19.8805 H   0  0  0  0  0  0  0  0  0  0  0  0
   48.8232    9.0153   17.6739 H   0  0  0  0  0  0  0  0  0  0  0  0
   49.6322   10.3933   18.3791 H   0  0  0  0  0  0  0  0  0  0  0  0
   53.6345    9.5335   18.5449 H   0  0  0  0  0  0  0  0  0  0  0  0
   52.8498    8.1180   17.8855 H   0  0  0  0  0  0  0  0  0  0  0  0
   50.3172   10.0535   15.9771 H   0  0  0  0  0  0  0  0  0  0  0  0
   50.8617    8.4366   16.3441 H   0  0  0  0  0  0  0  0  0  0  0  0
   49.8977    7.5708   21.6616 H   0  0  0  0  0  0  0  0  0  0  0  0
   52.7771    3.6443   20.6815 H   0  0  0  0  0  0  0  0  0  0  0  0
   53.1457   11.6232   17.8182 H   0  0  0  0  0  0  0  0  0  0  0  0
   51.4214   11.7010   18.0321 H   0  0  0  0  0  0  0  0  0  0  0  0
   55.1078   16.0137   15.5139 H   0  0  0  0  0  0  0  0  0  0  0  0
   46.9948    5.8211   17.7085 H   0  0  0  0  0  0  0  0  0  0  0  0
   50.3283    2.1580   17.5406 H   0  0  0  0  0  0  0  0  0  0  0  0
   53.3216   15.1024   14.4619 H   0  0  0  0  0  0  0  0  0  0  0  0
   54.1721   13.5622   14.4317 H   0  0  0  0  0  0  0  0  0  0  0  0
   52.8949   11.9323   15.3341 H   0  0  0  0  0  0  0  0  0  0  0  0
   51.1477   12.0460   15.5481 H   0  0  0  0  0  0  0  0  0  0  0  0
   53.4251   15.0680   16.9951 H   0  0  0  0  0  0  0  0  0  0  0  0
   54.1585   13.4811   16.9511 H   0  0  0  0  0  0  0  0  0  0  0  0
   50.9650    6.3213   23.5129 H   0  0  0  0  0  0  0  0  0  0  0  0
   52.4174    4.3659   23.0130 H   0  0  0  0  0  0  0  0  0  0  0  0
   47.9372    1.6638   17.1605 H   0  0  0  0  0  0  0  0  0  0  0  0
   46.2613    3.4994   17.2529 H   0  0  0  0  0  0  0  0  0  0  0  0
   50.5318    9.0878   17.5948 H   0  0  0  0  0  0  0  0  0  0  0  0
   49.7220    9.1036   19.1665 H   0  0  0  0  0  0  0  0  0  0  0  0
   53.5044    7.3052   18.5829 H   0  0  0  0  0  0  0  0  0  0  0  0
   53.3794    8.3455   19.9898 H   0  0  0  0  0  0  0  0  0  0  0  0
   50.7443   11.2968   18.6310 H   0  0  0  0  0  0  0  0  0  0  0  0
   51.3466   10.5983   20.1224 H   0  0  0  0  0  0  0  0  0  0  0  0
   52.9956    9.2001   17.0722 H   0  0  0  0  0  0  0  0  0  0  0  0
   54.4378    9.4908   18.0519 H   0  0  0  0  0  0  0  0  0  0  0  0
   50.5099    7.2348   21.4838 H   0  0  0  0  0  0  0  0  0  0  0  0
   46.5532    5.1848   19.3054 H   0  0  0  0  0  0  0  0  0  0  0  0
   54.1543   11.9543   17.7528 H   0  0  0  0  0  0  0  0  0  0  0  0
   52.7311   12.7128   18.3703 H   0  0  0  0  0  0  0  0  0  0  0  0
   54.4485   14.7569   15.7648 H   0  0  0  0  0  0  0  0  0  0  0  0
   53.2440    3.8456   18.3728 H   0  0  0  0  0  0  0  0  0  0  0  0
   48.7365    2.4603   16.8575 H   0  0  0  0  0  0  0  0  0  0  0  0
   52.0906   16.2930   15.4524 H   0  0  0  0  0  0  0  0  0  0  0  0
   52.8005   15.2313   14.2085 H   0  0  0  0  0  0  0  0  0  0  0  0
   51.3973   11.7914   16.3808 H   0  0  0  0  0  0  0  0  0  0  0  0
   52.8855   11.0309   15.8091 H   0  0  0  0  0  0  0  0  0  0  0  0
   52.0229   14.3606   17.0493 H   0  0  0  0  0  0  0  0  0  0  0  0
   51.0662   13.9985   15.5754 H   0  0  0  0  0  0  0  0  0  0  0  0
   48.4170    6.9046   22.7642 H   0  0  0  0  0  0  0  0  0  0  0  0
   46.4362    5.8837   21.6670 H   0  0  0  0  0  0  0  0  0  0  0  0
   50.5274    0.7770   17.0846 H   0  0  0  0  0  0  0  0  0  0  0  0
   52.7946    1.4697   17.8418 H   0  0  0  0  0  0  0  0  0  0  0  0
   49.9274    9.1098   17.6386 H   0  0  0  0  0  0  0  0  0  0  0  0
   52.6052    7.9010   18.6461 H   0  0  0  0  0  0  0  0  0  0  0  0
   51.6015   12.0725   17.3737 H   0  0  0  0  0  0  0  0  0  0  0  0
   50.9527    4.9210   18.8397 H   0  0  0  0  0  0  0  0  0  0  0  0
  2  1  2  0
  3  1  1  0
  4  6  1  0
  5  1  1  0
  6  3  2  0
  7  2  1  0
  8  7  2  0
  9 13  1  0
 10  5  1  0
 11  5  1  0
 12 10  1  0
 13 11  1  0
 14  3  1  0
 15  6  1  0
 16  9  1  0
 17 21  1  0
 18  7  1  0
 19  8  1  0
 20 22  1  0
 21 23  1  0
 22 16  1  0
 23 20  1  0
 24 14  2  0
 25 15  2  0
 26 19  2  0
 27 18  2  0
  9 12  1  0
  8  4  1  0
 24 25  1  0
 27 26  1  0
 29 28  2  0
 30 28  1  0
 31 33  1  0
 32 28  1  0
 33 30  2  0
 34 29  1  0
 35 34  2  0
 36 40  1  0
 37 32  1  0
 38 32  1  0
 39 37  1  0
 40 38  1  0
 41 30  1  0
 42 33  1  0
 43 36  1  0
 44 48  1  0
 45 34  1  0
 46 35  1  0
 47 49  1  0
 48 50  1  0
 49 43  1  0
 50 47  1  0
 51 41  2  0
 52 42  2  0
 53 46  2  0
 54 45  2  0
 36 39  1  0
 35 31  1  0
 51 52  1  0
 54 53  1  0
 56 58  1  0
 57 55  1  0
 58 57  2  0
 59 55  2  0
 60 56  2  0
 61 55  1  0
 62 56  1  0
 10 63  1  0
 10 64  1  0
 11 65  1  0
 11 66  1  0
 12 67  1  0
 12 68  1  0
 13 69  1  0
 13 70  1  0
 14 71  1  0
 15 72  1  0
 16 73  1  0
 16 74  1  0
 17 75  1  0
 18 76  1  0
 19 77  1  0
 21 78  1  0
 21 79  1  0
 22 80  1  0
 22 81  1  0
 23 82  1  0
 23 83  1  0
 24 84  1  0
 25 85  1  0
 26 86  1  0
 27 87  1  0
 37 88  1  0
 37 89  1  0
 38 90  1  0
 38 91  1  0
 39 92  1  0
 39 93  1  0
 40 94  1  0
 40 95  1  0
 41 96  1  0
 42 97  1  0
 43 98  1  0
 43 99  1  0
 44100  1  0
 45101  1  0
 46102  1  0
 48103  1  0
 48104  1  0
 49105  1  0
 49106  1  0
 50107  1  0
 50108  1  0
 51109  1  0
 52110  1  0
 53111  1  0
 54112  1  0
 57113  1  0
 58114  1  0
 61115  1  0
 62116  1  0
M  END
> <Uni-Dock RESULT> 
ENERGY=   -5.443  LOWER_BOUND=    4.893  UPPER_BOUND=    9.497
INTER + INTRA:          -5.443
INTER:                  -5.443
INTRA:                   0.000
UNBOUND:                 0.000

$$$$
