
     RDKit          3D

116121  0  0  0  0  0  0  0  0999 V2000
   44.5550   11.6132   10.2718 C   0  0  0  0  0  0  0  0  0  0  0  0
   43.6436   11.2190   11.1231 N   0  0  0  0  0  0  0  0  0  0  0  0
   44.2430   12.1658    8.9113 C   0  0  0  0  0  0  0  0  0  0  0  0
   42.4787   13.9747   10.0893 S   0  0  0  0  0  0  0  0  0  0  0  0
   45.9023   11.4859   10.6310 N   0  0  0  0  0  0  0  0  0  0  0  0
   43.3918   13.2631    8.7370 C   0  0  0  0  0  0  0  0  0  0  0  0
   42.2571   11.3074   10.8942 C   0  0  0  0  0  0  0  0  0  0  0  0
   41.5857   12.4856   10.5206 C   0  0  0  0  0  0  0  0  0  0  0  0
   48.6622   11.6055   11.8090 N   0  0  0  0  0  0  0  0  0  0  0  0
   46.9292   12.4413   10.1724 C   0  0  0  0  0  0  0  0  0  0  0  0
   46.2646   10.7098   11.8294 C   0  0  0  0  0  0  0  0  0  0  0  0
   47.9360   12.7851   11.2911 C   0  0  0  0  0  0  0  0  0  0  0  0
   47.7775   10.4137   11.8408 C   0  0  0  0  0  0  0  0  0  0  0  0
   44.8775   11.5740    7.8091 C   0  0  0  0  0  0  0  0  0  0  0  0
   43.2037   13.7769    7.4477 C   0  0  0  0  0  0  0  0  0  0  0  0
   49.2582   11.8509   13.1310 C   0  0  0  0  0  0  0  0  0  0  0  0
   53.4900   10.7411   15.8564 O   0  0  0  0  0  0  0  0  0  0  0  0
   41.5061   10.1480   11.1302 C   0  0  0  0  0  0  0  0  0  0  0  0
   40.1908   12.4860   10.3920 C   0  0  0  0  0  0  0  0  0  0  0  0
   50.9748   12.9976   14.4318 O   0  0  0  0  0  0  0  0  0  0  0  0
   52.2872   11.5040   15.7981 C   0  0  0  0  0  0  0  0  0  0  0  0
   50.2786   13.0088   13.1795 C   0  0  0  0  0  0  0  0  0  0  0  0
   52.1181   12.1415   14.4201 C   0  0  0  0  0  0  0  0  0  0  0  0
   44.6733   12.0880    6.5285 C   0  0  0  0  0  0  0  0  0  0  0  0
   43.8375   13.1873    6.3513 C   0  0  0  0  0  0  0  0  0  0  0  0
   39.4538   11.3298   10.6412 C   0  0  0  0  0  0  0  0  0  0  0  0
   40.1132   10.1534   11.0042 C   0  0  0  0  0  0  0  0  0  0  0  0
   44.7823   13.0301   10.4112 C   0  0  0  0  0  0  0  0  0  0  0  0
   44.0233   13.0243   11.4760 N   0  0  0  0  0  0  0  0  0  0  0  0
   44.3551   12.4991    9.0754 C   0  0  0  0  0  0  0  0  0  0  0  0
   43.5436   10.1169   10.3042 S   0  0  0  0  0  0  0  0  0  0  0  0
   46.0637   13.5987   10.4959 N   0  0  0  0  0  0  0  0  0  0  0  0
   43.8589   11.1999    8.9167 C   0  0  0  0  0  0  0  0  0  0  0  0
   42.7241   12.4972   11.5298 C   0  0  0  0  0  0  0  0  0  0  0  0
   42.3715   11.1965   11.1276 C   0  0  0  0  0  0  0  0  0  0  0  0
   48.1155   12.4999   12.3110 N   0  0  0  0  0  0  0  0  0  0  0  0
   47.2251   12.8467    9.9695 C   0  0  0  0  0  0  0  0  0  0  0  0
   46.4453   14.3023   11.7417 C   0  0  0  0  0  0  0  0  0  0  0  0
   47.7582   11.8508   11.0277 C   0  0  0  0  0  0  0  0  0  0  0  0
   46.9637   13.3037   12.8042 C   0  0  0  0  0  0  0  0  0  0  0  0
   44.5389   13.3170    7.9522 C   0  0  0  0  0  0  0  0  0  0  0  0
   43.5756   10.7231    7.6227 C   0  0  0  0  0  0  0  0  0  0  0  0
   48.5110   11.5181   13.3456 C   0  0  0  0  0  0  0  0  0  0  0  0
   52.0638    8.9366   14.3634 O   0  0  0  0  0  0  0  0  0  0  0  0
   41.7456   13.3001   12.1333 C   0  0  0  0  0  0  0  0  0  0  0  0
   41.0605   10.7391   11.3043 C   0  0  0  0  0  0  0  0  0  0  0  0
   50.9193   11.4939   12.9903 O   0  0  0  0  0  0  0  0  0  0  0  0
   52.7001   10.1744   14.0372 C   0  0  0  0  0  0  0  0  0  0  0  0
   49.7577   10.6643   13.0516 C   0  0  0  0  0  0  0  0  0  0  0  0
   52.1262   10.7627   12.7464 C   0  0  0  0  0  0  0  0  0  0  0  0
   44.2365   12.8447    6.6745 C   0  0  0  0  0  0  0  0  0  0  0  0
   43.7618   11.5470    6.5108 C   0  0  0  0  0  0  0  0  0  0  0  0
   40.1012   11.5534   11.9024 C   0  0  0  0  0  0  0  0  0  0  0  0
   40.4424   12.8347   12.3239 C   0  0  0  0  0  0  0  0  0  0  0  0
   44.5919   12.8696   11.2724 C   0  0  0  0  0  0  0  0  0  0  0  0
   47.9601   11.0519   11.4443 C   0  0  0  0  0  0  0  0  0  0  0  0
   46.0273   12.5751   11.2626 C   0  0  0  0  0  0  0  0  0  0  0  0
   46.5250   11.3443   11.4445 C   0  0  0  0  0  0  0  0  0  0  0  0
   44.1184   13.9774   11.0976 O   0  0  0  0  0  0  0  0  0  0  0  0
   48.4352    9.9403   11.5920 O   0  0  0  0  0  0  0  0  0  0  0  0
   43.8185   11.7932   11.4811 O   0  0  0  0  0  0  0  0  0  0  0  0
   48.7362   12.1286   11.2529 O   0  0  0  0  0  0  0  0  0  0  0  0
   47.4596   12.0126    9.3123 H   0  0  0  0  0  0  0  0  0  0  0  0
   46.4640   13.3794    9.8448 H   0  0  0  0  0  0  0  0  0  0  0  0
   45.7242    9.7537   11.8354 H   0  0  0  0  0  0  0  0  0  0  0  0
   45.9811   11.2648   12.7319 H   0  0  0  0  0  0  0  0  0  0  0  0
   48.6645   13.5019   10.8922 H   0  0  0  0  0  0  0  0  0  0  0  0
   47.3890   13.2898   12.1007 H   0  0  0  0  0  0  0  0  0  0  0  0
   48.0109    9.7537   12.6894 H   0  0  0  0  0  0  0  0  0  0  0  0
   48.0141    9.8239   10.9424 H   0  0  0  0  0  0  0  0  0  0  0  0
   45.5270   10.7104    7.9540 H   0  0  0  0  0  0  0  0  0  0  0  0
   42.5403   14.6237    7.2855 H   0  0  0  0  0  0  0  0  0  0  0  0
   49.7703   10.9353   13.4587 H   0  0  0  0  0  0  0  0  0  0  0  0
   48.4813   12.0349   13.8861 H   0  0  0  0  0  0  0  0  0  0  0  0
   54.2257   11.3708   15.8968 H   0  0  0  0  0  0  0  0  0  0  0  0
   42.0147    9.2358   11.4257 H   0  0  0  0  0  0  0  0  0  0  0  0
   39.6676   13.3917   10.0864 H   0  0  0  0  0  0  0  0  0  0  0  0
   51.4410   10.8265   15.9850 H   0  0  0  0  0  0  0  0  0  0  0  0
   52.2878   12.2508   16.6006 H   0  0  0  0  0  0  0  0  0  0  0  0
   49.7499   13.9641   13.1133 H   0  0  0  0  0  0  0  0  0  0  0  0
   50.9877   12.9617   12.3445 H   0  0  0  0  0  0  0  0  0  0  0  0
   52.0376   11.3511   13.6646 H   0  0  0  0  0  0  0  0  0  0  0  0
   52.9995   12.7429   14.1702 H   0  0  0  0  0  0  0  0  0  0  0  0
   45.1572   11.6170    5.6758 H   0  0  0  0  0  0  0  0  0  0  0  0
   43.6719   13.5827    5.3471 H   0  0  0  0  0  0  0  0  0  0  0  0
   38.3723   11.3309   10.5287 H   0  0  0  0  0  0  0  0  0  0  0  0
   39.5491    9.2480   11.1891 H   0  0  0  0  0  0  0  0  0  0  0  0
   48.0116   13.5575    9.6927 H   0  0  0  0  0  0  0  0  0  0  0  0
   46.9704   12.2931    9.0625 H   0  0  0  0  0  0  0  0  0  0  0  0
   47.2379   15.0231   11.5081 H   0  0  0  0  0  0  0  0  0  0  0  0
   45.6108   14.8889   12.1405 H   0  0  0  0  0  0  0  0  0  0  0  0
   48.6450   11.3714   10.5970 H   0  0  0  0  0  0  0  0  0  0  0  0
   47.0084   11.0662   11.1997 H   0  0  0  0  0  0  0  0  0  0  0  0
   47.2754   13.8754   13.6868 H   0  0  0  0  0  0  0  0  0  0  0  0
   46.1462   12.6406   13.1192 H   0  0  0  0  0  0  0  0  0  0  0  0
   44.9248   14.3297    8.0758 H   0  0  0  0  0  0  0  0  0  0  0  0
   43.1948    9.7139    7.4871 H   0  0  0  0  0  0  0  0  0  0  0  0
   47.6715   10.8441   13.5527 H   0  0  0  0  0  0  0  0  0  0  0  0
   48.7182   12.0825   14.2661 H   0  0  0  0  0  0  0  0  0  0  0  0
   52.3496    8.7153   15.2687 H   0  0  0  0  0  0  0  0  0  0  0  0
   42.0189   14.2969   12.4725 H   0  0  0  0  0  0  0  0  0  0  0  0
   40.7726    9.7432   10.9690 H   0  0  0  0  0  0  0  0  0  0  0  0
   53.7725    9.9699   13.9131 H   0  0  0  0  0  0  0  0  0  0  0  0
   52.5535   10.8656   14.8732 H   0  0  0  0  0  0  0  0  0  0  0  0
   49.8667    9.9445   13.8651 H   0  0  0  0  0  0  0  0  0  0  0  0
   49.6467   10.1094   12.1184 H   0  0  0  0  0  0  0  0  0  0  0  0
   51.9644    9.9936   11.9826 H   0  0  0  0  0  0  0  0  0  0  0  0
   52.8448   11.4864   12.3498 H   0  0  0  0  0  0  0  0  0  0  0  0
   44.3848   13.4843    5.8055 H   0  0  0  0  0  0  0  0  0  0  0  0
   43.5300   11.1713    5.5167 H   0  0  0  0  0  0  0  0  0  0  0  0
   39.0800   11.1958   12.0283 H   0  0  0  0  0  0  0  0  0  0  0  0
   39.7013   13.4756   12.7946 H   0  0  0  0  0  0  0  0  0  0  0  0
   46.6634   13.4396   11.1026 H   0  0  0  0  0  0  0  0  0  0  0  0
   45.8895   10.4802   11.6014 H   0  0  0  0  0  0  0  0  0  0  0  0
   42.9082   12.1552   11.4534 H   0  0  0  0  0  0  0  0  0  0  0  0
   49.6492   11.7719   11.2747 H   0  0  0  0  0  0  0  0  0  0  0  0
  2  1  2  0
  3  1  1  0
  4  6  1  0
  5  1  1  0
  6  3  2  0
  7  2  1  0
  8  7  2  0
  9 13  1  0
 10  5  1  0
 11  5  1  0
 12 10  1  0
 13 11  1  0
 14  3  1  0
 15  6  1  0
 16  9  1  0
 17 21  1  0
 18  7  1  0
 19  8  1  0
 20 22  1  0
 21 23  1  0
 22 16  1  0
 23 20  1  0
 24 14  2  0
 25 15  2  0
 26 19  2  0
 27 18  2  0
  9 12  1  0
  8  4  1  0
 24 25  1  0
 27 26  1  0
 29 28  2  0
 30 28  1  0
 31 33  1  0
 32 28  1  0
 33 30  2  0
 34 29  1  0
 35 34  2  0
 36 40  1  0
 37 32  1  0
 38 32  1  0
 39 37  1  0
 40 38  1  0
 41 30  1  0
 42 33  1  0
 43 36  1  0
 44 48  1  0
 45 34  1  0
 46 35  1  0
 47 49  1  0
 48 50  1  0
 49 43  1  0
 50 47  1  0
 51 41  2  0
 52 42  2  0
 53 46  2  0
 54 45  2  0
 36 39  1  0
 35 31  1  0
 51 52  1  0
 54 53  1  0
 56 58  1  0
 57 55  1  0
 58 57  2  0
 59 55  2  0
 60 56  2  0
 61 55  1  0
 62 56  1  0
 10 63  1  0
 10 64  1  0
 11 65  1  0
 11 66  1  0
 12 67  1  0
 12 68  1  0
 13 69  1  0
 13 70  1  0
 14 71  1  0
 15 72  1  0
 16 73  1  0
 16 74  1  0
 17 75  1  0
 18 76  1  0
 19 77  1  0
 21 78  1  0
 21 79  1  0
 22 80  1  0
 22 81  1  0
 23 82  1  0
 23 83  1  0
 24 84  1  0
 25 85  1  0
 26 86  1  0
 27 87  1  0
 37 88  1  0
 37 89  1  0
 38 90  1  0
 38 91  1  0
 39 92  1  0
 39 93  1  0
 40 94  1  0
 40 95  1  0
 41 96  1  0
 42 97  1  0
 43 98  1  0
 43 99  1  0
 44100  1  0
 45101  1  0
 46102  1  0
 48103  1  0
 48104  1  0
 49105  1  0
 49106  1  0
 50107  1  0
 50108  1  0
 51109  1  0
 52110  1  0
 53111  1  0
 54112  1  0
 57113  1  0
 58114  1  0
 61115  1  0
 62116  1  0
M  END
> <Uni-Dock RESULT> 
ENERGY=   -6.008  LOWER_BOUND=    0.000  UPPER_BOUND=    0.000
INTER + INTRA:          -6.008
INTER:                  -6.008
INTRA:                   0.000
UNBOUND:                 0.000

$$$$

     RDKit          3D

116121  0  0  0  0  0  0  0  0999 V2000
   49.9223    6.3473   18.0690 C   0  0  0  0  0  0  0  0  0  0  0  0
   50.0995    6.8264   19.2732 N   0  0  0  0  0  0  0  0  0  0  0  0
   49.0742    5.1466   17.7647 C   0  0  0  0  0  0  0  0  0  0  0  0
   46.9775    6.3110   19.1862 S   0  0  0  0  0  0  0  0  0  0  0  0
   50.5840    6.9663   17.0014 N   0  0  0  0  0  0  0  0  0  0  0  0
   47.7317    5.0725   18.1536 C   0  0  0  0  0  0  0  0  0  0  0  0
   49.4813    6.3100   20.4281 C   0  0  0  0  0  0  0  0  0  0  0  0
   48.0957    6.1130   20.5686 C   0  0  0  0  0  0  0  0  0  0  0  0
   51.6645    8.7478   14.8387 N   0  0  0  0  0  0  0  0  0  0  0  0
   49.9992    7.0296   15.6480 C   0  0  0  0  0  0  0  0  0  0  0  0
   51.6280    7.9683   17.2763 C   0  0  0  0  0  0  0  0  0  0  0  0
   50.2336    8.4032   14.9836 C   0  0  0  0  0  0  0  0  0  0  0  0
   52.4457    8.2561   16.0015 C   0  0  0  0  0  0  0  0  0  0  0  0
   49.6604    4.1083   17.0257 C   0  0  0  0  0  0  0  0  0  0  0  0
   46.9758    3.9573   17.7710 C   0  0  0  0  0  0  0  0  0  0  0  0
   51.8758   10.1893   14.6375 C   0  0  0  0  0  0  0  0  0  0  0  0
   54.8741   13.4405   11.9904 O   0  0  0  0  0  0  0  0  0  0  0  0
   50.3150    6.0493   21.5239 C   0  0  0  0  0  0  0  0  0  0  0  0
   47.5721    5.6654   21.7885 C   0  0  0  0  0  0  0  0  0  0  0  0
   51.6591   12.1113   13.1499 O   0  0  0  0  0  0  0  0  0  0  0  0
   53.7315   13.3046   12.8320 C   0  0  0  0  0  0  0  0  0  0  0  0
   51.1880   10.7789   13.3870 C   0  0  0  0  0  0  0  0  0  0  0  0
   52.8541   12.1433   12.3680 C   0  0  0  0  0  0  0  0  0  0  0  0
   48.8999    2.9974   16.6604 C   0  0  0  0  0  0  0  0  0  0  0  0
   47.5606    2.9249   17.0338 C   0  0  0  0  0  0  0  0  0  0  0  0
   48.4102    5.4212   22.8747 C   0  0  0  0  0  0  0  0  0  0  0  0
   49.7881    5.6059   22.7412 C   0  0  0  0  0  0  0  0  0  0  0  0
   48.7269    6.9042   17.4861 C   0  0  0  0  0  0  0  0  0  0  0  0
   48.6383    7.7210   18.5035 N   0  0  0  0  0  0  0  0  0  0  0  0
   48.8362    5.4142   17.6155 C   0  0  0  0  0  0  0  0  0  0  0  0
   50.9375    5.7464   19.4370 S   0  0  0  0  0  0  0  0  0  0  0  0
   48.6800    7.4339   16.1862 N   0  0  0  0  0  0  0  0  0  0  0  0
   49.8236    4.8072   18.4003 C   0  0  0  0  0  0  0  0  0  0  0  0
   48.6640    7.3276   19.8500 C   0  0  0  0  0  0  0  0  0  0  0  0
   49.6635    6.5260   20.4301 C   0  0  0  0  0  0  0  0  0  0  0  0
   50.7314    9.3246   15.2224 N   0  0  0  0  0  0  0  0  0  0  0  0
   49.6994    7.0159   15.1975 C   0  0  0  0  0  0  0  0  0  0  0  0
   48.3808    8.8745   16.0189 C   0  0  0  0  0  0  0  0  0  0  0  0
   50.9831    7.8690   15.3399 C   0  0  0  0  0  0  0  0  0  0  0  0
   49.6623    9.7275   16.1768 C   0  0  0  0  0  0  0  0  0  0  0  0
   47.9629    4.6216   16.8583 C   0  0  0  0  0  0  0  0  0  0  0  0
   49.9419    3.4043   18.3964 C   0  0  0  0  0  0  0  0  0  0  0  0
   51.9486   10.1271   15.4777 C   0  0  0  0  0  0  0  0  0  0  0  0
   55.7666   11.2337   13.3515 O   0  0  0  0  0  0  0  0  0  0  0  0
   47.6765    7.8740   20.6824 C   0  0  0  0  0  0  0  0  0  0  0  0
   49.6415    6.2633   21.8047 C   0  0  0  0  0  0  0  0  0  0  0  0
   52.7771   10.3535   13.1997 O   0  0  0  0  0  0  0  0  0  0  0  0
   54.8045   11.4037   12.3079 C   0  0  0  0  0  0  0  0  0  0  0  0
   53.1312    9.9198   14.5142 C   0  0  0  0  0  0  0  0  0  0  0  0
   53.8412   10.2160   12.2513 C   0  0  0  0  0  0  0  0  0  0  0  0
   48.0729    3.2308   16.8754 C   0  0  0  0  0  0  0  0  0  0  0  0
   49.0658    2.6245   17.6388 C   0  0  0  0  0  0  0  0  0  0  0  0
   48.6497    6.8122   22.6147 C   0  0  0  0  0  0  0  0  0  0  0  0
   47.6672    7.6240   22.0567 C   0  0  0  0  0  0  0  0  0  0  0  0
   48.9505    7.6232   17.9728 C   0  0  0  0  0  0  0  0  0  0  0  0
   51.8589    8.0960   15.5242 C   0  0  0  0  0  0  0  0  0  0  0  0
   49.7353    7.8733   16.7608 C   0  0  0  0  0  0  0  0  0  0  0  0
   51.0745    7.8364   16.7333 C   0  0  0  0  0  0  0  0  0  0  0  0
   47.7341    7.6400   18.0171 O   0  0  0  0  0  0  0  0  0  0  0  0
   53.0749    8.0530   15.4710 O   0  0  0  0  0  0  0  0  0  0  0  0
   49.6955    7.3535   19.0557 O   0  0  0  0  0  0  0  0  0  0  0  0
   51.1176    8.3824   14.4440 O   0  0  0  0  0  0  0  0  0  0  0  0
   50.4388    6.2364   15.0297 H   0  0  0  0  0  0  0  0  0  0  0  0
   48.9158    6.8609   15.6880 H   0  0  0  0  0  0  0  0  0  0  0  0
   52.3123    7.5954   18.0502 H   0  0  0  0  0  0  0  0  0  0  0  0
   51.1683    8.8924   17.6474 H   0  0  0  0  0  0  0  0  0  0  0  0
   49.7706    8.3897   13.9890 H   0  0  0  0  0  0  0  0  0  0  0  0
   49.7098    9.1652   15.5787 H   0  0  0  0  0  0  0  0  0  0  0  0
   53.2780    8.9312   16.2499 H   0  0  0  0  0  0  0  0  0  0  0  0
   52.9211    7.3157   15.6844 H   0  0  0  0  0  0  0  0  0  0  0  0
   50.7109    4.1690   16.7406 H   0  0  0  0  0  0  0  0  0  0  0  0
   45.9327    3.8727   18.0683 H   0  0  0  0  0  0  0  0  0  0  0  0
   52.9554   10.3750   14.5485 H   0  0  0  0  0  0  0  0  0  0  0  0
   51.5544   10.7620   15.5186 H   0  0  0  0  0  0  0  0  0  0  0  0
   54.5674   13.8169   11.1514 H   0  0  0  0  0  0  0  0  0  0  0  0
   51.3849    6.2051   21.4272 H   0  0  0  0  0  0  0  0  0  0  0  0
   46.5013    5.4951   21.8971 H   0  0  0  0  0  0  0  0  0  0  0  0
   54.0805   13.1025   13.8554 H   0  0  0  0  0  0  0  0  0  0  0  0
   53.1812   14.2522   12.8585 H   0  0  0  0  0  0  0  0  0  0  0  0
   50.1100   10.8444   13.5602 H   0  0  0  0  0  0  0  0  0  0  0  0
   51.3459   10.1516   12.5017 H   0  0  0  0  0  0  0  0  0  0  0  0
   53.4236   11.2093   12.4413 H   0  0  0  0  0  0  0  0  0  0  0  0
   52.5770   12.2746   11.3159 H   0  0  0  0  0  0  0  0  0  0  0  0
   49.3630    2.1891   16.0989 H   0  0  0  0  0  0  0  0  0  0  0  0
   46.9695    2.0504   16.7545 H   0  0  0  0  0  0  0  0  0  0  0  0
   48.0014    5.0624   23.8162 H   0  0  0  0  0  0  0  0  0  0  0  0
   50.4474    5.4083   23.5769 H   0  0  0  0  0  0  0  0  0  0  0  0
   49.2833    7.1287   14.1903 H   0  0  0  0  0  0  0  0  0  0  0  0
   49.9636    5.9617   15.3107 H   0  0  0  0  0  0  0  0  0  0  0  0
   47.9649    9.0317   15.0166 H   0  0  0  0  0  0  0  0  0  0  0  0
   47.6093    9.2062   16.7220 H   0  0  0  0  0  0  0  0  0  0  0  0
   51.6696    7.5479   14.5479 H   0  0  0  0  0  0  0  0  0  0  0  0
   51.4625    7.6474   16.3035 H   0  0  0  0  0  0  0  0  0  0  0  0
   49.3980   10.7770   15.9992 H   0  0  0  0  0  0  0  0  0  0  0  0
   50.0299    9.6557   17.2098 H   0  0  0  0  0  0  0  0  0  0  0  0
   47.1929    5.0945   16.2472 H   0  0  0  0  0  0  0  0  0  0  0  0
   50.7086    2.9224   18.9981 H   0  0  0  0  0  0  0  0  0  0  0  0
   52.3002    9.9464   16.5002 H   0  0  0  0  0  0  0  0  0  0  0  0
   51.6598   11.1856   15.4084 H   0  0  0  0  0  0  0  0  0  0  0  0
   56.2246   12.0896   13.4398 H   0  0  0  0  0  0  0  0  0  0  0  0
   46.9170    8.5180   20.2447 H   0  0  0  0  0  0  0  0  0  0  0  0
   50.3958    5.6198   22.2566 H   0  0  0  0  0  0  0  0  0  0  0  0
   55.3570   11.4854   11.3617 H   0  0  0  0  0  0  0  0  0  0  0  0
   54.2578   12.3335   12.4943 H   0  0  0  0  0  0  0  0  0  0  0  0
   53.9677   10.5171   14.8818 H   0  0  0  0  0  0  0  0  0  0  0  0
   53.4437    8.8745   14.4898 H   0  0  0  0  0  0  0  0  0  0  0  0
   54.3606    9.2609   12.3890 H   0  0  0  0  0  0  0  0  0  0  0  0
   53.3687   10.2041   11.2644 H   0  0  0  0  0  0  0  0  0  0  0  0
   47.3932    2.6208   16.2820 H   0  0  0  0  0  0  0  0  0  0  0  0
   49.1603    1.5410   17.6515 H   0  0  0  0  0  0  0  0  0  0  0  0
   48.6319    6.5962   23.6822 H   0  0  0  0  0  0  0  0  0  0  0  0
   46.8916    8.0592   22.6816 H   0  0  0  0  0  0  0  0  0  0  0  0
   49.1437    8.1004   15.8800 H   0  0  0  0  0  0  0  0  0  0  0  0
   51.6655    7.6065   17.6126 H   0  0  0  0  0  0  0  0  0  0  0  0
   49.0312    7.2093   19.7616 H   0  0  0  0  0  0  0  0  0  0  0  0
   51.7769    8.5232   13.7322 H   0  0  0  0  0  0  0  0  0  0  0  0
  2  1  2  0
  3  1  1  0
  4  6  1  0
  5  1  1  0
  6  3  2  0
  7  2  1  0
  8  7  2  0
  9 13  1  0
 10  5  1  0
 11  5  1  0
 12 10  1  0
 13 11  1  0
 14  3  1  0
 15  6  1  0
 16  9  1  0
 17 21  1  0
 18  7  1  0
 19  8  1  0
 20 22  1  0
 21 23  1  0
 22 16  1  0
 23 20  1  0
 24 14  2  0
 25 15  2  0
 26 19  2  0
 27 18  2  0
  9 12  1  0
  8  4  1  0
 24 25  1  0
 27 26  1  0
 29 28  2  0
 30 28  1  0
 31 33  1  0
 32 28  1  0
 33 30  2  0
 34 29  1  0
 35 34  2  0
 36 40  1  0
 37 32  1  0
 38 32  1  0
 39 37  1  0
 40 38  1  0
 41 30  1  0
 42 33  1  0
 43 36  1  0
 44 48  1  0
 45 34  1  0
 46 35  1  0
 47 49  1  0
 48 50  1  0
 49 43  1  0
 50 47  1  0
 51 41  2  0
 52 42  2  0
 53 46  2  0
 54 45  2  0
 36 39  1  0
 35 31  1  0
 51 52  1  0
 54 53  1  0
 56 58  1  0
 57 55  1  0
 58 57  2  0
 59 55  2  0
 60 56  2  0
 61 55  1  0
 62 56  1  0
 10 63  1  0
 10 64  1  0
 11 65  1  0
 11 66  1  0
 12 67  1  0
 12 68  1  0
 13 69  1  0
 13 70  1  0
 14 71  1  0
 15 72  1  0
 16 73  1  0
 16 74  1  0
 17 75  1  0
 18 76  1  0
 19 77  1  0
 21 78  1  0
 21 79  1  0
 22 80  1  0
 22 81  1  0
 23 82  1  0
 23 83  1  0
 24 84  1  0
 25 85  1  0
 26 86  1  0
 27 87  1  0
 37 88  1  0
 37 89  1  0
 38 90  1  0
 38 91  1  0
 39 92  1  0
 39 93  1  0
 40 94  1  0
 40 95  1  0
 41 96  1  0
 42 97  1  0
 43 98  1  0
 43 99  1  0
 44100  1  0
 45101  1  0
 46102  1  0
 48103  1  0
 48104  1  0
 49105  1  0
 49106  1  0
 50107  1  0
 50108  1  0
 51109  1  0
 52110  1  0
 53111  1  0
 54112  1  0
 57113  1  0
 58114  1  0
 61115  1  0
 62116  1  0
M  END
> <Uni-Dock RESULT> 
ENERGY=   -5.924  LOWER_BOUND=    7.275  UPPER_BOUND=   10.362
INTER + INTRA:          -5.924
INTER:                  -5.924
INTRA:                   0.000
UNBOUND:                 0.000

$$$$

     RDKit          3D

116121  0  0  0  0  0  0  0  0999 V2000
   49.9215    6.3468   18.0690 C   0  0  0  0  0  0  0  0  0  0  0  0
   50.0992    6.8258   19.2731 N   0  0  0  0  0  0  0  0  0  0  0  0
   49.0731    5.1462   17.7650 C   0  0  0  0  0  0  0  0  0  0  0  0
   46.9771    6.3110   19.1872 S   0  0  0  0  0  0  0  0  0  0  0  0
   50.5829    6.9656   17.0011 N   0  0  0  0  0  0  0  0  0  0  0  0
   47.7308    5.0724   18.1543 C   0  0  0  0  0  0  0  0  0  0  0  0
   49.4813    6.3096   20.4282 C   0  0  0  0  0  0  0  0  0  0  0  0
   48.0957    6.1128   20.5692 C   0  0  0  0  0  0  0  0  0  0  0  0
   51.6631    8.7469   14.8380 N   0  0  0  0  0  0  0  0  0  0  0  0
   49.9977    7.0291   15.6479 C   0  0  0  0  0  0  0  0  0  0  0  0
   51.6273    7.9674   17.2757 C   0  0  0  0  0  0  0  0  0  0  0  0
   50.2322    8.4026   14.9834 C   0  0  0  0  0  0  0  0  0  0  0  0
   52.4446    8.2551   16.0006 C   0  0  0  0  0  0  0  0  0  0  0  0
   49.6589    4.1078   17.0258 C   0  0  0  0  0  0  0  0  0  0  0  0
   46.9745    3.9573   17.7720 C   0  0  0  0  0  0  0  0  0  0  0  0
   51.8745   10.1883   14.6367 C   0  0  0  0  0  0  0  0  0  0  0  0
   54.8726   13.4390   11.9886 O   0  0  0  0  0  0  0  0  0  0  0  0
   50.3154    6.0488   21.5238 C   0  0  0  0  0  0  0  0  0  0  0  0
   47.5725    5.6654   21.7893 C   0  0  0  0  0  0  0  0  0  0  0  0
   51.6577   12.1104   13.1492 O   0  0  0  0  0  0  0  0  0  0  0  0
   53.7302   13.3033   12.8306 C   0  0  0  0  0  0  0  0  0  0  0  0
   51.1865   10.7781   13.3865 C   0  0  0  0  0  0  0  0  0  0  0  0
   52.8524   12.1421   12.3669 C   0  0  0  0  0  0  0  0  0  0  0  0
   48.8980    2.9970   16.6608 C   0  0  0  0  0  0  0  0  0  0  0  0
   47.5588    2.9248   17.0346 C   0  0  0  0  0  0  0  0  0  0  0  0
   48.4109    5.4210   22.8752 C   0  0  0  0  0  0  0  0  0  0  0  0
   49.7888    5.6055   22.7412 C   0  0  0  0  0  0  0  0  0  0  0  0
   48.7261    6.9039   17.4865 C   0  0  0  0  0  0  0  0  0  0  0  0
   48.6379    7.7207   18.5038 N   0  0  0  0  0  0  0  0  0  0  0  0
   48.8351    5.4138   17.6158 C   0  0  0  0  0  0  0  0  0  0  0  0
   50.9370    5.7457   19.4366 S   0  0  0  0  0  0  0  0  0  0  0  0
   48.6788    7.4335   16.1866 N   0  0  0  0  0  0  0  0  0  0  0  0
   49.8227    4.8067   18.4003 C   0  0  0  0  0  0  0  0  0  0  0  0
   48.6640    7.3273   19.8504 C   0  0  0  0  0  0  0  0  0  0  0  0
   49.6636    6.5256   20.4302 C   0  0  0  0  0  0  0  0  0  0  0  0
   50.7302    9.3239   15.2221 N   0  0  0  0  0  0  0  0  0  0  0  0
   49.6978    7.0154   15.1975 C   0  0  0  0  0  0  0  0  0  0  0  0
   48.3798    8.8742   16.0194 C   0  0  0  0  0  0  0  0  0  0  0  0
   50.9817    7.8683   15.3395 C   0  0  0  0  0  0  0  0  0  0  0  0
   49.6616    9.7270   16.1769 C   0  0  0  0  0  0  0  0  0  0  0  0
   47.9613    4.6215   16.8589 C   0  0  0  0  0  0  0  0  0  0  0  0
   49.9407    3.4038   18.3964 C   0  0  0  0  0  0  0  0  0  0  0  0
   51.9477   10.1262   15.4769 C   0  0  0  0  0  0  0  0  0  0  0  0
   55.7651   11.2320   13.3494 O   0  0  0  0  0  0  0  0  0  0  0  0
   47.6769    7.8739   20.6831 C   0  0  0  0  0  0  0  0  0  0  0  0
   49.6420    6.2628   21.8048 C   0  0  0  0  0  0  0  0  0  0  0  0
   52.7754   10.3524   13.1986 O   0  0  0  0  0  0  0  0  0  0  0  0
   54.8027   11.4022   12.3062 C   0  0  0  0  0  0  0  0  0  0  0  0
   53.1299    9.9187   14.5130 C   0  0  0  0  0  0  0  0  0  0  0  0
   53.8392   10.2147   12.2499 C   0  0  0  0  0  0  0  0  0  0  0  0
   48.0711    3.2306   16.8760 C   0  0  0  0  0  0  0  0  0  0  0  0
   49.0642    2.6241   17.6391 C   0  0  0  0  0  0  0  0  0  0  0  0
   48.6506    6.8119   22.6151 C   0  0  0  0  0  0  0  0  0  0  0  0
   47.6680    7.6240   22.0574 C   0  0  0  0  0  0  0  0  0  0  0  0
   48.9499    7.6228   17.9731 C   0  0  0  0  0  0  0  0  0  0  0  0
   51.8576    8.0951   15.5235 C   0  0  0  0  0  0  0  0  0  0  0  0
   49.7344    7.8728   16.7608 C   0  0  0  0  0  0  0  0  0  0  0  0
   51.0736    7.8356   16.7329 C   0  0  0  0  0  0  0  0  0  0  0  0
   47.7336    7.6399   18.0178 O   0  0  0  0  0  0  0  0  0  0  0  0
   53.0736    8.0519   15.4699 O   0  0  0  0  0  0  0  0  0  0  0  0
   49.6953    7.3530   19.0557 O   0  0  0  0  0  0  0  0  0  0  0  0
   51.1160    8.3816   14.4436 O   0  0  0  0  0  0  0  0  0  0  0  0
   50.4370    6.2357   15.0295 H   0  0  0  0  0  0  0  0  0  0  0  0
   48.9144    6.8605   15.6883 H   0  0  0  0  0  0  0  0  0  0  0  0
   52.3117    7.5944   18.0494 H   0  0  0  0  0  0  0  0  0  0  0  0
   51.1678    8.8917   17.6469 H   0  0  0  0  0  0  0  0  0  0  0  0
   49.7688    8.3891   13.9890 H   0  0  0  0  0  0  0  0  0  0  0  0
   49.7087    9.1647   15.5787 H   0  0  0  0  0  0  0  0  0  0  0  0
   53.2771    8.9300   16.2487 H   0  0  0  0  0  0  0  0  0  0  0  0
   52.9197    7.3146   15.6833 H   0  0  0  0  0  0  0  0  0  0  0  0
   50.7093    4.1683   16.7403 H   0  0  0  0  0  0  0  0  0  0  0  0
   45.9315    3.8729   18.0697 H   0  0  0  0  0  0  0  0  0  0  0  0
   52.9542   10.3739   14.5474 H   0  0  0  0  0  0  0  0  0  0  0  0
   51.5536   10.7611   15.5180 H   0  0  0  0  0  0  0  0  0  0  0  0
   54.5657   13.8154   11.1497 H   0  0  0  0  0  0  0  0  0  0  0  0
   51.3853    6.2043   21.4266 H   0  0  0  0  0  0  0  0  0  0  0  0
   46.5017    5.4953   21.8983 H   0  0  0  0  0  0  0  0  0  0  0  0
   54.0796   13.1011   13.8538 H   0  0  0  0  0  0  0  0  0  0  0  0
   53.1801   14.2510   12.8572 H   0  0  0  0  0  0  0  0  0  0  0  0
   50.1085   10.8438   13.5601 H   0  0  0  0  0  0  0  0  0  0  0  0
   51.3440   10.1508   12.5011 H   0  0  0  0  0  0  0  0  0  0  0  0
   53.4218   11.2081   12.4400 H   0  0  0  0  0  0  0  0  0  0  0  0
   52.5750   12.2735   11.3149 H   0  0  0  0  0  0  0  0  0  0  0  0
   49.3608    2.1886   16.0991 H   0  0  0  0  0  0  0  0  0  0  0  0
   46.9675    2.0505   16.7555 H   0  0  0  0  0  0  0  0  0  0  0  0
   48.0023    5.0623   23.8169 H   0  0  0  0  0  0  0  0  0  0  0  0
   50.4483    5.4077   23.5767 H   0  0  0  0  0  0  0  0  0  0  0  0
   49.2813    7.1282   14.1904 H   0  0  0  0  0  0  0  0  0  0  0  0
   49.9618    5.9611   15.3107 H   0  0  0  0  0  0  0  0  0  0  0  0
   47.9636    9.0315   15.0172 H   0  0  0  0  0  0  0  0  0  0  0  0
   47.6086    9.2061   16.7227 H   0  0  0  0  0  0  0  0  0  0  0  0
   51.6678    7.5470   14.5472 H   0  0  0  0  0  0  0  0  0  0  0  0
   51.4613    7.6466   16.3029 H   0  0  0  0  0  0  0  0  0  0  0  0
   49.3974   10.7765   15.9993 H   0  0  0  0  0  0  0  0  0  0  0  0
   50.0295    9.6552   17.2097 H   0  0  0  0  0  0  0  0  0  0  0  0
   47.1912    5.0945   16.2482 H   0  0  0  0  0  0  0  0  0  0  0  0
   50.7075    2.9217   18.9978 H   0  0  0  0  0  0  0  0  0  0  0  0
   52.2995    9.9454   16.4994 H   0  0  0  0  0  0  0  0  0  0  0  0
   51.6590   11.1847   15.4077 H   0  0  0  0  0  0  0  0  0  0  0  0
   56.2234   12.0878   13.4375 H   0  0  0  0  0  0  0  0  0  0  0  0
   46.9174    8.5181   20.2457 H   0  0  0  0  0  0  0  0  0  0  0  0
   50.3964    5.6192   22.2564 H   0  0  0  0  0  0  0  0  0  0  0  0
   55.3549   11.4838   11.3598 H   0  0  0  0  0  0  0  0  0  0  0  0
   54.2562   12.3321   12.4927 H   0  0  0  0  0  0  0  0  0  0  0  0
   53.9666   10.5158   14.8803 H   0  0  0  0  0  0  0  0  0  0  0  0
   53.4422    8.8732   14.4886 H   0  0  0  0  0  0  0  0  0  0  0  0
   54.3584    9.2594   12.3875 H   0  0  0  0  0  0  0  0  0  0  0  0
   53.3663   10.2029   11.2631 H   0  0  0  0  0  0  0  0  0  0  0  0
   47.3911    2.6207   16.2829 H   0  0  0  0  0  0  0  0  0  0  0  0
   49.1584    1.5406   17.6518 H   0  0  0  0  0  0  0  0  0  0  0  0
   48.6331    6.5960   23.6826 H   0  0  0  0  0  0  0  0  0  0  0  0
   46.8927    8.0593   22.6826 H   0  0  0  0  0  0  0  0  0  0  0  0
   49.1425    8.1000   15.8803 H   0  0  0  0  0  0  0  0  0  0  0  0
   51.6648    7.6056   17.6120 H   0  0  0  0  0  0  0  0  0  0  0  0
   49.0312    7.2089   19.7619 H   0  0  0  0  0  0  0  0  0  0  0  0
   51.7751    8.5223   13.7315 H   0  0  0  0  0  0  0  0  0  0  0  0
  2  1  2  0
  3  1  1  0
  4  6  1  0
  5  1  1  0
  6  3  2  0
  7  2  1  0
  8  7  2  0
  9 13  1  0
 10  5  1  0
 11  5  1  0
 12 10  1  0
 13 11  1  0
 14  3  1  0
 15  6  1  0
 16  9  1  0
 17 21  1  0
 18  7  1  0
 19  8  1  0
 20 22  1  0
 21 23  1  0
 22 16  1  0
 23 20  1  0
 24 14  2  0
 25 15  2  0
 26 19  2  0
 27 18  2  0
  9 12  1  0
  8  4  1  0
 24 25  1  0
 27 26  1  0
 29 28  2  0
 30 28  1  0
 31 33  1  0
 32 28  1  0
 33 30  2  0
 34 29  1  0
 35 34  2  0
 36 40  1  0
 37 32  1  0
 38 32  1  0
 39 37  1  0
 40 38  1  0
 41 30  1  0
 42 33  1  0
 43 36  1  0
 44 48  1  0
 45 34  1  0
 46 35  1  0
 47 49  1  0
 48 50  1  0
 49 43  1  0
 50 47  1  0
 51 41  2  0
 52 42  2  0
 53 46  2  0
 54 45  2  0
 36 39  1  0
 35 31  1  0
 51 52  1  0
 54 53  1  0
 56 58  1  0
 57 55  1  0
 58 57  2  0
 59 55  2  0
 60 56  2  0
 61 55  1  0
 62 56  1  0
 10 63  1  0
 10 64  1  0
 11 65  1  0
 11 66  1  0
 12 67  1  0
 12 68  1  0
 13 69  1  0
 13 70  1  0
 14 71  1  0
 15 72  1  0
 16 73  1  0
 16 74  1  0
 17 75  1  0
 18 76  1  0
 19 77  1  0
 21 78  1  0
 21 79  1  0
 22 80  1  0
 22 81  1  0
 23 82  1  0
 23 83  1  0
 24 84  1  0
 25 85  1  0
 26 86  1  0
 27 87  1  0
 37 88  1  0
 37 89  1  0
 38 90  1  0
 38 91  1  0
 39 92  1  0
 39 93  1  0
 40 94  1  0
 40 95  1  0
 41 96  1  0
 42 97  1  0
 43 98  1  0
 43 99  1  0
 44100  1  0
 45101  1  0
 46102  1  0
 48103  1  0
 48104  1  0
 49105  1  0
 49106  1  0
 50107  1  0
 50108  1  0
 51109  1  0
 52110  1  0
 53111  1  0
 54112  1  0
 57113  1  0
 58114  1  0
 61115  1  0
 62116  1  0
M  END
> <Uni-Dock RESULT> 
ENERGY=   -5.919  LOWER_BOUND=    7.274  UPPER_BOUND=   10.362
INTER + INTRA:          -5.919
INTER:                  -5.919
INTRA:                   0.000
UNBOUND:                 0.000

$$$$

     RDKit          3D

116121  0  0  0  0  0  0  0  0999 V2000
   50.2179    7.1932   17.0258 C   0  0  0  0  0  0  0  0  0  0  0  0
   49.8348    6.1071   16.4058 N   0  0  0  0  0  0  0  0  0  0  0  0
   49.7866    7.5564   18.4171 C   0  0  0  0  0  0  0  0  0  0  0  0
   50.5857    5.0309   19.2863 S   0  0  0  0  0  0  0  0  0  0  0  0
   51.0533    8.0887   16.3470 N   0  0  0  0  0  0  0  0  0  0  0  0
   49.9792    6.6908   19.4999 C   0  0  0  0  0  0  0  0  0  0  0  0
   49.0117    5.1186   16.9785 C   0  0  0  0  0  0  0  0  0  0  0  0
   49.2675    4.4840   18.2074 C   0  0  0  0  0  0  0  0  0  0  0  0
   53.2311    9.5763   14.9106 N   0  0  0  0  0  0  0  0  0  0  0  0
   52.0685    8.8983   17.0481 C   0  0  0  0  0  0  0  0  0  0  0  0
   51.2842    7.9147   14.9027 C   0  0  0  0  0  0  0  0  0  0  0  0
   53.3898    8.9783   16.2538 C   0  0  0  0  0  0  0  0  0  0  0  0
   51.9345    9.1788   14.3062 C   0  0  0  0  0  0  0  0  0  0  0  0
   49.2227    8.8261   18.6112 C   0  0  0  0  0  0  0  0  0  0  0  0
   49.6240    7.1224   20.7841 C   0  0  0  0  0  0  0  0  0  0  0  0
   54.3497    9.2459   14.0148 C   0  0  0  0  0  0  0  0  0  0  0  0
   57.2327   11.3602   10.3018 O   0  0  0  0  0  0  0  0  0  0  0  0
   47.9075    4.7043   16.2215 C   0  0  0  0  0  0  0  0  0  0  0  0
   48.4263    3.4565   18.6535 C   0  0  0  0  0  0  0  0  0  0  0  0
   56.7033    9.5703   13.4583 O   0  0  0  0  0  0  0  0  0  0  0  0
   57.0538   10.2422   11.1680 C   0  0  0  0  0  0  0  0  0  0  0  0
   55.7365    9.7148   14.5060 C   0  0  0  0  0  0  0  0  0  0  0  0
   56.7524   10.7051   12.5923 C   0  0  0  0  0  0  0  0  0  0  0  0
   48.8626    9.2401   19.8937 C   0  0  0  0  0  0  0  0  0  0  0  0
   49.0640    8.3877   20.9760 C   0  0  0  0  0  0  0  0  0  0  0  0
   47.3383    3.0451   17.8860 C   0  0  0  0  0  0  0  0  0  0  0  0
   47.0720    3.6757   16.6686 C   0  0  0  0  0  0  0  0  0  0  0  0
   51.3801    6.9179   17.8335 C   0  0  0  0  0  0  0  0  0  0  0  0
   51.4477    5.7299   17.2912 N   0  0  0  0  0  0  0  0  0  0  0  0
   50.1540    7.4648   18.5017 C   0  0  0  0  0  0  0  0  0  0  0  0
   48.6423    6.7765   16.2468 S   0  0  0  0  0  0  0  0  0  0  0  0
   52.5266    7.7289   17.8329 N   0  0  0  0  0  0  0  0  0  0  0  0
   48.9128    7.5078   17.8560 C   0  0  0  0  0  0  0  0  0  0  0  0
   50.3842    4.8168   17.2291 C   0  0  0  0  0  0  0  0  0  0  0  0
   49.1087    5.1086   16.7133 C   0  0  0  0  0  0  0  0  0  0  0  0
   53.7710    8.6288   15.3123 N   0  0  0  0  0  0  0  0  0  0  0  0
   52.4170    9.1363   17.3872 C   0  0  0  0  0  0  0  0  0  0  0  0
   53.8033    7.1501   17.3555 C   0  0  0  0  0  0  0  0  0  0  0  0
   52.5279    9.2332   15.8463 C   0  0  0  0  0  0  0  0  0  0  0  0
   53.9060    7.2336   15.8136 C   0  0  0  0  0  0  0  0  0  0  0  0
   50.2927    8.0161   19.7827 C   0  0  0  0  0  0  0  0  0  0  0  0
   47.8240    8.1305   18.4954 C   0  0  0  0  0  0  0  0  0  0  0  0
   53.8035    8.6266   13.8326 C   0  0  0  0  0  0  0  0  0  0  0  0
   54.5021   11.5464   10.4696 O   0  0  0  0  0  0  0  0  0  0  0  0
   50.6670    3.4971   17.6097 C   0  0  0  0  0  0  0  0  0  0  0  0
   48.1437    4.0994   16.6171 C   0  0  0  0  0  0  0  0  0  0  0  0
   54.9704   10.7276   13.4437 O   0  0  0  0  0  0  0  0  0  0  0  0
   55.5536   11.8996   11.3713 C   0  0  0  0  0  0  0  0  0  0  0  0
   53.7804    9.9992   13.1359 C   0  0  0  0  0  0  0  0  0  0  0  0
   55.0323   12.0083   12.8060 C   0  0  0  0  0  0  0  0  0  0  0  0
   49.2039    8.6136   20.4188 C   0  0  0  0  0  0  0  0  0  0  0  0
   47.9734    8.6759   19.7721 C   0  0  0  0  0  0  0  0  0  0  0  0
   48.4425    2.7947   17.0040 C   0  0  0  0  0  0  0  0  0  0  0  0
   49.7073    2.4884   17.4964 C   0  0  0  0  0  0  0  0  0  0  0  0
   51.5654    6.3320   17.1807 C   0  0  0  0  0  0  0  0  0  0  0  0
   52.2886    9.3731   14.9655 C   0  0  0  0  0  0  0  0  0  0  0  0
   52.1634    7.5466   16.6198 C   0  0  0  0  0  0  0  0  0  0  0  0
   51.6849    8.1649   15.5315 C   0  0  0  0  0  0  0  0  0  0  0  0
   51.9767    5.7615   18.1743 O   0  0  0  0  0  0  0  0  0  0  0  0
   51.8629    9.9611   13.9876 O   0  0  0  0  0  0  0  0  0  0  0  0
   50.4927    5.8932   16.5044 O   0  0  0  0  0  0  0  0  0  0  0  0
   53.3710    9.8045   15.6294 O   0  0  0  0  0  0  0  0  0  0  0  0
   51.6709    9.9080   17.2131 H   0  0  0  0  0  0  0  0  0  0  0  0
   52.2970    8.4643   18.0295 H   0  0  0  0  0  0  0  0  0  0  0  0
   50.3299    7.7400   14.3879 H   0  0  0  0  0  0  0  0  0  0  0  0
   51.9264    7.0422   14.7310 H   0  0  0  0  0  0  0  0  0  0  0  0
   54.1025    9.5831   16.8283 H   0  0  0  0  0  0  0  0  0  0  0  0
   53.8065    7.9633   16.1794 H   0  0  0  0  0  0  0  0  0  0  0  0
   52.0096    9.0667   13.2145 H   0  0  0  0  0  0  0  0  0  0  0  0
   51.2443   10.0213   14.4635 H   0  0  0  0  0  0  0  0  0  0  0  0
   49.0632    9.4869   17.7589 H   0  0  0  0  0  0  0  0  0  0  0  0
   49.7562    6.4647   21.6406 H   0  0  0  0  0  0  0  0  0  0  0  0
   54.1629    9.7108   13.0365 H   0  0  0  0  0  0  0  0  0  0  0  0
   54.3927    8.1654   13.8191 H   0  0  0  0  0  0  0  0  0  0  0  0
   58.0948   11.7498   10.5130 H   0  0  0  0  0  0  0  0  0  0  0  0
   47.7060    5.1834   15.2685 H   0  0  0  0  0  0  0  0  0  0  0  0
   48.6104    2.9733   19.6127 H   0  0  0  0  0  0  0  0  0  0  0  0
   56.2032    9.6520   10.7962 H   0  0  0  0  0  0  0  0  0  0  0  0
   57.9396    9.5981   11.1225 H   0  0  0  0  0  0  0  0  0  0  0  0
   56.0632    9.0809   15.3355 H   0  0  0  0  0  0  0  0  0  0  0  0
   55.7120   10.7498   14.8670 H   0  0  0  0  0  0  0  0  0  0  0  0
   55.8138   11.2717   12.5962 H   0  0  0  0  0  0  0  0  0  0  0  0
   57.5412   11.3783   12.9468 H   0  0  0  0  0  0  0  0  0  0  0  0
   48.4135   10.2204   20.0368 H   0  0  0  0  0  0  0  0  0  0  0  0
   48.7733    8.7101   21.9778 H   0  0  0  0  0  0  0  0  0  0  0  0
   46.6807    2.2554   18.2412 H   0  0  0  0  0  0  0  0  0  0  0  0
   46.2226    3.3694   16.0712 H   0  0  0  0  0  0  0  0  0  0  0  0
   53.2150    9.7205   17.8586 H   0  0  0  0  0  0  0  0  0  0  0  0
   51.4723    9.5869   17.7007 H   0  0  0  0  0  0  0  0  0  0  0  0
   54.6317    7.7124   17.8026 H   0  0  0  0  0  0  0  0  0  0  0  0
   53.9233    6.1151   17.6930 H   0  0  0  0  0  0  0  0  0  0  0  0
   52.4957   10.2986   15.5901 H   0  0  0  0  0  0  0  0  0  0  0  0
   51.6511    8.7557   15.3874 H   0  0  0  0  0  0  0  0  0  0  0  0
   54.8837    6.8367   15.5145 H   0  0  0  0  0  0  0  0  0  0  0  0
   53.1411    6.5911   15.3562 H   0  0  0  0  0  0  0  0  0  0  0  0
   51.2597    7.9821   20.2862 H   0  0  0  0  0  0  0  0  0  0  0  0
   46.8567    8.1743   18.0011 H   0  0  0  0  0  0  0  0  0  0  0  0
   52.9685    8.0296   13.4476 H   0  0  0  0  0  0  0  0  0  0  0  0
   54.7353    8.1282   13.5292 H   0  0  0  0  0  0  0  0  0  0  0  0
   54.9331   11.3274    9.6232 H   0  0  0  0  0  0  0  0  0  0  0  0
   51.6606    3.2588   17.9828 H   0  0  0  0  0  0  0  0  0  0  0  0
   47.1443    4.3238   16.2455 H   0  0  0  0  0  0  0  0  0  0  0  0
   55.9565   12.8677   11.0431 H   0  0  0  0  0  0  0  0  0  0  0  0
   56.3345   11.1357   11.3028 H   0  0  0  0  0  0  0  0  0  0  0  0
   53.7285    9.8245   12.0596 H   0  0  0  0  0  0  0  0  0  0  0  0
   52.9031   10.5779   13.4298 H   0  0  0  0  0  0  0  0  0  0  0  0
   54.0590   12.5098   12.8509 H   0  0  0  0  0  0  0  0  0  0  0  0
   55.7452   12.6021   13.3861 H   0  0  0  0  0  0  0  0  0  0  0  0
   49.3192    9.0432   21.4130 H   0  0  0  0  0  0  0  0  0  0  0  0
   47.1225    9.1456   20.2605 H   0  0  0  0  0  0  0  0  0  0  0  0
   47.6844    2.0155   16.9362 H   0  0  0  0  0  0  0  0  0  0  0  0
   49.9502    1.4727   17.7974 H   0  0  0  0  0  0  0  0  0  0  0  0
   53.0368    7.9065   17.1538 H   0  0  0  0  0  0  0  0  0  0  0  0
   50.8106    7.8070   14.9998 H   0  0  0  0  0  0  0  0  0  0  0  0
   50.2176    5.0953   17.0025 H   0  0  0  0  0  0  0  0  0  0  0  0
   53.6486   10.6064   15.1384 H   0  0  0  0  0  0  0  0  0  0  0  0
  2  1  2  0
  3  1  1  0
  4  6  1  0
  5  1  1  0
  6  3  2  0
  7  2  1  0
  8  7  2  0
  9 13  1  0
 10  5  1  0
 11  5  1  0
 12 10  1  0
 13 11  1  0
 14  3  1  0
 15  6  1  0
 16  9  1  0
 17 21  1  0
 18  7  1  0
 19  8  1  0
 20 22  1  0
 21 23  1  0
 22 16  1  0
 23 20  1  0
 24 14  2  0
 25 15  2  0
 26 19  2  0
 27 18  2  0
  9 12  1  0
  8  4  1  0
 24 25  1  0
 27 26  1  0
 29 28  2  0
 30 28  1  0
 31 33  1  0
 32 28  1  0
 33 30  2  0
 34 29  1  0
 35 34  2  0
 36 40  1  0
 37 32  1  0
 38 32  1  0
 39 37  1  0
 40 38  1  0
 41 30  1  0
 42 33  1  0
 43 36  1  0
 44 48  1  0
 45 34  1  0
 46 35  1  0
 47 49  1  0
 48 50  1  0
 49 43  1  0
 50 47  1  0
 51 41  2  0
 52 42  2  0
 53 46  2  0
 54 45  2  0
 36 39  1  0
 35 31  1  0
 51 52  1  0
 54 53  1  0
 56 58  1  0
 57 55  1  0
 58 57  2  0
 59 55  2  0
 60 56  2  0
 61 55  1  0
 62 56  1  0
 10 63  1  0
 10 64  1  0
 11 65  1  0
 11 66  1  0
 12 67  1  0
 12 68  1  0
 13 69  1  0
 13 70  1  0
 14 71  1  0
 15 72  1  0
 16 73  1  0
 16 74  1  0
 17 75  1  0
 18 76  1  0
 19 77  1  0
 21 78  1  0
 21 79  1  0
 22 80  1  0
 22 81  1  0
 23 82  1  0
 23 83  1  0
 24 84  1  0
 25 85  1  0
 26 86  1  0
 27 87  1  0
 37 88  1  0
 37 89  1  0
 38 90  1  0
 38 91  1  0
 39 92  1  0
 39 93  1  0
 40 94  1  0
 40 95  1  0
 41 96  1  0
 42 97  1  0
 43 98  1  0
 43 99  1  0
 44100  1  0
 45101  1  0
 46102  1  0
 48103  1  0
 48104  1  0
 49105  1  0
 49106  1  0
 50107  1  0
 50108  1  0
 51109  1  0
 52110  1  0
 53111  1  0
 54112  1  0
 57113  1  0
 58114  1  0
 61115  1  0
 62116  1  0
M  END
> <Uni-Dock RESULT> 
ENERGY=   -5.297  LOWER_BOUND=    8.414  UPPER_BOUND=   10.514
INTER + INTRA:          -5.297
INTER:                  -5.297
INTRA:                   0.000
UNBOUND:                 0.000

$$$$

     RDKit          3D

116121  0  0  0  0  0  0  0  0999 V2000
   48.8550    8.6322   19.1040 C   0  0  0  0  0  0  0  0  0  0  0  0
   48.8572    7.4130   19.5777 N   0  0  0  0  0  0  0  0  0  0  0  0
   48.3551    9.8237   19.8681 C   0  0  0  0  0  0  0  0  0  0  0  0
   49.9959    9.0992   22.0025 S   0  0  0  0  0  0  0  0  0  0  0  0
   49.3148    8.8407   17.7980 N   0  0  0  0  0  0  0  0  0  0  0  0
   48.8583   10.1556   21.1313 C   0  0  0  0  0  0  0  0  0  0  0  0
   48.4387    7.0693   20.8774 C   0  0  0  0  0  0  0  0  0  0  0  0
   48.9246    7.6673   22.0542 C   0  0  0  0  0  0  0  0  0  0  0  0
   50.8131    9.1169   15.2100 N   0  0  0  0  0  0  0  0  0  0  0  0
   50.0029   10.0835   17.3985 C   0  0  0  0  0  0  0  0  0  0  0  0
   49.5602    7.6833   16.9205 C   0  0  0  0  0  0  0  0  0  0  0  0
   51.1978    9.8042   16.4618 C   0  0  0  0  0  0  0  0  0  0  0  0
   49.7209    8.1424   15.4576 C   0  0  0  0  0  0  0  0  0  0  0  0
   47.3918   10.6342   19.2494 C   0  0  0  0  0  0  0  0  0  0  0  0
   48.4038   11.3235   21.7565 C   0  0  0  0  0  0  0  0  0  0  0  0
   51.9573    8.4659   14.5543 C   0  0  0  0  0  0  0  0  0  0  0  0
   53.8515    7.5429    9.8503 O   0  0  0  0  0  0  0  0  0  0  0  0
   47.5295    6.0083   20.9849 C   0  0  0  0  0  0  0  0  0  0  0  0
   48.4999    7.1995   23.3045 C   0  0  0  0  0  0  0  0  0  0  0  0
   54.0414    8.7331   13.3136 O   0  0  0  0  0  0  0  0  0  0  0  0
   54.0886    7.4772   11.2544 C   0  0  0  0  0  0  0  0  0  0  0  0
   53.1072    9.4172   14.1578 C   0  0  0  0  0  0  0  0  0  0  0  0
   53.6768    8.7822   11.9334 C   0  0  0  0  0  0  0  0  0  0  0  0
   46.9388   11.7891   19.8873 C   0  0  0  0  0  0  0  0  0  0  0  0
   47.4456   12.1304   21.1383 C   0  0  0  0  0  0  0  0  0  0  0  0
   47.6046    6.1357   23.3985 C   0  0  0  0  0  0  0  0  0  0  0  0
   47.1105    5.5419   22.2350 C   0  0  0  0  0  0  0  0  0  0  0  0
   50.0580    9.3198   19.5025 C   0  0  0  0  0  0  0  0  0  0  0  0
   50.5200    8.1912   19.9745 N   0  0  0  0  0  0  0  0  0  0  0  0
   48.7332    9.9085   19.8866 C   0  0  0  0  0  0  0  0  0  0  0  0
   47.5038    7.4547   19.3290 S   0  0  0  0  0  0  0  0  0  0  0  0
   50.8536   10.0572   18.6105 N   0  0  0  0  0  0  0  0  0  0  0  0
   47.5399    9.1847   19.7798 C   0  0  0  0  0  0  0  0  0  0  0  0
   49.8361    7.3608   20.8752 C   0  0  0  0  0  0  0  0  0  0  0  0
   48.5275    6.8816   20.6857 C   0  0  0  0  0  0  0  0  0  0  0  0
   51.6557    8.9528   15.9935 N   0  0  0  0  0  0  0  0  0  0  0  0
   50.2551   10.5604   17.3535 C   0  0  0  0  0  0  0  0  0  0  0  0
   52.2410    9.6047   18.3588 C   0  0  0  0  0  0  0  0  0  0  0  0
   50.2922    9.4710   16.2545 C   0  0  0  0  0  0  0  0  0  0  0  0
   52.2750    8.5047   17.2708 C   0  0  0  0  0  0  0  0  0  0  0  0
   48.7007   11.2507   20.2885 C   0  0  0  0  0  0  0  0  0  0  0  0
   46.3172    9.8266   20.0536 C   0  0  0  0  0  0  0  0  0  0  0  0
   51.6548    7.8326   15.0260 C   0  0  0  0  0  0  0  0  0  0  0  0
   51.2289    7.2151   10.5808 O   0  0  0  0  0  0  0  0  0  0  0  0
   50.5655    6.8981   21.9799 C   0  0  0  0  0  0  0  0  0  0  0  0
   47.9685    5.9867   21.6054 C   0  0  0  0  0  0  0  0  0  0  0  0
   52.0156    9.0718   12.9617 O   0  0  0  0  0  0  0  0  0  0  0  0
   52.1130    8.3376   10.6251 C   0  0  0  0  0  0  0  0  0  0  0  0
   51.1440    8.1416   13.6071 C   0  0  0  0  0  0  0  0  0  0  0  0
   51.6176    9.3869   11.6227 C   0  0  0  0  0  0  0  0  0  0  0  0
   47.4867   11.8746   20.5780 C   0  0  0  0  0  0  0  0  0  0  0  0
   46.2967   11.1642   20.4539 C   0  0  0  0  0  0  0  0  0  0  0  0
   48.7079    5.5414   22.6991 C   0  0  0  0  0  0  0  0  0  0  0  0
   50.0110    5.9916   22.8866 C   0  0  0  0  0  0  0  0  0  0  0  0
   50.4201    8.5018   19.4432 C   0  0  0  0  0  0  0  0  0  0  0  0
   50.0002    8.8372   15.6499 C   0  0  0  0  0  0  0  0  0  0  0  0
   50.5495    8.9466   18.0530 C   0  0  0  0  0  0  0  0  0  0  0  0
   49.8634    8.3990   17.0406 C   0  0  0  0  0  0  0  0  0  0  0  0
   51.0245    8.9928   20.3789 O   0  0  0  0  0  0  0  0  0  0  0  0
   49.3766    8.3658   14.7160 O   0  0  0  0  0  0  0  0  0  0  0  0
   49.5505    7.4939   19.6118 O   0  0  0  0  0  0  0  0  0  0  0  0
   50.8812    9.8332   15.4759 O   0  0  0  0  0  0  0  0  0  0  0  0
   49.2848   10.7467   16.8993 H   0  0  0  0  0  0  0  0  0  0  0  0
   50.3885   10.6109   18.2799 H   0  0  0  0  0  0  0  0  0  0  0  0
   48.7140    6.9852   16.9739 H   0  0  0  0  0  0  0  0  0  0  0  0
   50.4603    7.1504   17.2507 H   0  0  0  0  0  0  0  0  0  0  0  0
   51.6699   10.7617   16.2088 H   0  0  0  0  0  0  0  0  0  0  0  0
   51.9376    9.2106   17.0182 H   0  0  0  0  0  0  0  0  0  0  0  0
   49.8063    7.2587   14.8081 H   0  0  0  0  0  0  0  0  0  0  0  0
   48.7857    8.6358   15.1528 H   0  0  0  0  0  0  0  0  0  0  0  0
   46.9954   10.3588   18.2718 H   0  0  0  0  0  0  0  0  0  0  0  0
   48.7735   11.5983   22.7421 H   0  0  0  0  0  0  0  0  0  0  0  0
   51.6003    7.9685   13.6415 H   0  0  0  0  0  0  0  0  0  0  0  0
   52.3666    7.6618   15.1817 H   0  0  0  0  0  0  0  0  0  0  0  0
   54.5304    8.1229    9.4731 H   0  0  0  0  0  0  0  0  0  0  0  0
   47.1543    5.5359   20.0825 H   0  0  0  0  0  0  0  0  0  0  0  0
   48.8604    7.6705   24.2186 H   0  0  0  0  0  0  0  0  0  0  0  0
   53.4863    6.6541   11.6665 H   0  0  0  0  0  0  0  0  0  0  0  0
   55.1411    7.2315   11.4372 H   0  0  0  0  0  0  0  0  0  0  0  0
   53.6506    9.7267   15.0552 H   0  0  0  0  0  0  0  0  0  0  0  0
   52.7345   10.3229   13.6647 H   0  0  0  0  0  0  0  0  0  0  0  0
   52.6006    8.9376   11.7933 H   0  0  0  0  0  0  0  0  0  0  0  0
   54.1921    9.6303   11.4683 H   0  0  0  0  0  0  0  0  0  0  0  0
   46.1820   12.4067   19.4089 H   0  0  0  0  0  0  0  0  0  0  0  0
   47.0832   13.0299   21.6399 H   0  0  0  0  0  0  0  0  0  0  0  0
   47.2680    5.7833   24.3706 H   0  0  0  0  0  0  0  0  0  0  0  0
   46.4064    4.7219   22.2991 H   0  0  0  0  0  0  0  0  0  0  0  0
   50.8122   11.4447   17.0249 H   0  0  0  0  0  0  0  0  0  0  0  0
   49.2198   10.8787   17.4982 H   0  0  0  0  0  0  0  0  0  0  0  0
   52.8336   10.4633   18.0214 H   0  0  0  0  0  0  0  0  0  0  0  0
   52.7183    9.2503   19.2786 H   0  0  0  0  0  0  0  0  0  0  0  0
   49.8885    9.9243   15.3417 H   0  0  0  0  0  0  0  0  0  0  0  0
   49.6245    8.6455   16.5374 H   0  0  0  0  0  0  0  0  0  0  0  0
   53.3229    8.2372   17.0884 H   0  0  0  0  0  0  0  0  0  0  0  0
   51.7694    7.6021   17.6409 H   0  0  0  0  0  0  0  0  0  0  0  0
   49.6307   11.8146   20.3724 H   0  0  0  0  0  0  0  0  0  0  0  0
   45.3837    9.2757   19.9688 H   0  0  0  0  0  0  0  0  0  0  0  0
   51.0692    6.9985   15.4301 H   0  0  0  0  0  0  0  0  0  0  0  0
   52.6945    7.4900   14.9254 H   0  0  0  0  0  0  0  0  0  0  0  0
   51.6906    6.5266   10.0680 H   0  0  0  0  0  0  0  0  0  0  0  0
   51.5881    7.2427   22.1168 H   0  0  0  0  0  0  0  0  0  0  0  0
   46.9453    5.6334   21.4809 H   0  0  0  0  0  0  0  0  0  0  0  0
   52.1496    8.7671    9.6145 H   0  0  0  0  0  0  0  0  0  0  0  0
   53.1081    7.9789   10.9069 H   0  0  0  0  0  0  0  0  0  0  0  0
   51.1322    7.2047   13.0470 H   0  0  0  0  0  0  0  0  0  0  0  0
   50.1274    8.5378   13.6295 H   0  0  0  0  0  0  0  0  0  0  0  0
   50.5321    9.5262   11.5649 H   0  0  0  0  0  0  0  0  0  0  0  0
   52.0939   10.3420   11.3812 H   0  0  0  0  0  0  0  0  0  0  0  0
   47.4681   12.9189   20.8866 H   0  0  0  0  0  0  0  0  0  0  0  0
   45.3468   11.6469   20.6726 H   0  0  0  0  0  0  0  0  0  0  0  0
   48.2643    4.8527   23.4169 H   0  0  0  0  0  0  0  0  0  0  0  0
   50.5963    5.6468   23.7351 H   0  0  0  0  0  0  0  0  0  0  0  0
   51.2562    9.7563   17.9031 H   0  0  0  0  0  0  0  0  0  0  0  0
   49.1552    7.5921   17.1907 H   0  0  0  0  0  0  0  0  0  0  0  0
   49.5788    7.3248   20.5767 H   0  0  0  0  0  0  0  0  0  0  0  0
   50.8540   10.0105   14.5120 H   0  0  0  0  0  0  0  0  0  0  0  0
  2  1  2  0
  3  1  1  0
  4  6  1  0
  5  1  1  0
  6  3  2  0
  7  2  1  0
  8  7  2  0
  9 13  1  0
 10  5  1  0
 11  5  1  0
 12 10  1  0
 13 11  1  0
 14  3  1  0
 15  6  1  0
 16  9  1  0
 17 21  1  0
 18  7  1  0
 19  8  1  0
 20 22  1  0
 21 23  1  0
 22 16  1  0
 23 20  1  0
 24 14  2  0
 25 15  2  0
 26 19  2  0
 27 18  2  0
  9 12  1  0
  8  4  1  0
 24 25  1  0
 27 26  1  0
 29 28  2  0
 30 28  1  0
 31 33  1  0
 32 28  1  0
 33 30  2  0
 34 29  1  0
 35 34  2  0
 36 40  1  0
 37 32  1  0
 38 32  1  0
 39 37  1  0
 40 38  1  0
 41 30  1  0
 42 33  1  0
 43 36  1  0
 44 48  1  0
 45 34  1  0
 46 35  1  0
 47 49  1  0
 48 50  1  0
 49 43  1  0
 50 47  1  0
 51 41  2  0
 52 42  2  0
 53 46  2  0
 54 45  2  0
 36 39  1  0
 35 31  1  0
 51 52  1  0
 54 53  1  0
 56 58  1  0
 57 55  1  0
 58 57  2  0
 59 55  2  0
 60 56  2  0
 61 55  1  0
 62 56  1  0
 10 63  1  0
 10 64  1  0
 11 65  1  0
 11 66  1  0
 12 67  1  0
 12 68  1  0
 13 69  1  0
 13 70  1  0
 14 71  1  0
 15 72  1  0
 16 73  1  0
 16 74  1  0
 17 75  1  0
 18 76  1  0
 19 77  1  0
 21 78  1  0
 21 79  1  0
 22 80  1  0
 22 81  1  0
 23 82  1  0
 23 83  1  0
 24 84  1  0
 25 85  1  0
 26 86  1  0
 27 87  1  0
 37 88  1  0
 37 89  1  0
 38 90  1  0
 38 91  1  0
 39 92  1  0
 39 93  1  0
 40 94  1  0
 40 95  1  0
 41 96  1  0
 42 97  1  0
 43 98  1  0
 43 99  1  0
 44100  1  0
 45101  1  0
 46102  1  0
 48103  1  0
 48104  1  0
 49105  1  0
 49106  1  0
 50107  1  0
 50108  1  0
 51109  1  0
 52110  1  0
 53111  1  0
 54112  1  0
 57113  1  0
 58114  1  0
 61115  1  0
 62116  1  0
M  END
> <Uni-Dock RESULT> 
ENERGY=   -5.276  LOWER_BOUND=    7.602  UPPER_BOUND=   10.560
INTER + INTRA:          -5.276
INTER:                  -5.276
INTRA:                   0.000
UNBOUND:                 0.000

$$$$

     RDKit          3D

116121  0  0  0  0  0  0  0  0999 V2000
   48.4394   13.4748   17.4662 C   0  0  0  0  0  0  0  0  0  0  0  0
   47.5398   12.5717   17.7591 N   0  0  0  0  0  0  0  0  0  0  0  0
   49.6779   13.7140   18.2802 C   0  0  0  0  0  0  0  0  0  0  0  0
   50.2558   10.9904   18.1368 S   0  0  0  0  0  0  0  0  0  0  0  0
   48.2259   14.2903   16.3482 N   0  0  0  0  0  0  0  0  0  0  0  0
   50.5850   12.6867   18.5644 C   0  0  0  0  0  0  0  0  0  0  0  0
   47.6404   11.6781   18.8426 C   0  0  0  0  0  0  0  0  0  0  0  0
   48.7466   10.8441   19.0864 C   0  0  0  0  0  0  0  0  0  0  0  0
   47.8209   15.5454   13.6501 N   0  0  0  0  0  0  0  0  0  0  0  0
   49.3400   14.7991   15.5251 C   0  0  0  0  0  0  0  0  0  0  0  0
   46.9130   14.2788   15.6805 C   0  0  0  0  0  0  0  0  0  0  0  0
   49.0115   14.7488   14.0176 C   0  0  0  0  0  0  0  0  0  0  0  0
   46.7900   15.4752   14.7161 C   0  0  0  0  0  0  0  0  0  0  0  0
   49.9283   15.0252   18.7110 C   0  0  0  0  0  0  0  0  0  0  0  0
   51.7593   12.9936   19.2634 C   0  0  0  0  0  0  0  0  0  0  0  0
   47.2591   15.1460   12.3510 C   0  0  0  0  0  0  0  0  0  0  0  0
   45.0575   17.1988    8.1670 O   0  0  0  0  0  0  0  0  0  0  0  0
   46.5216   11.5780   19.6806 C   0  0  0  0  0  0  0  0  0  0  0  0
   48.7160    9.9333   20.1502 C   0  0  0  0  0  0  0  0  0  0  0  0
   47.5105   15.1149    9.9240 O   0  0  0  0  0  0  0  0  0  0  0  0
   45.6024   16.0226    8.7599 C   0  0  0  0  0  0  0  0  0  0  0  0
   48.2251   15.2850   11.1544 C   0  0  0  0  0  0  0  0  0  0  0  0
   46.9297   16.3309    9.4505 C   0  0  0  0  0  0  0  0  0  0  0  0
   51.0963   15.3161   19.4162 C   0  0  0  0  0  0  0  0  0  0  0  0
   52.0080   14.3002   19.6904 C   0  0  0  0  0  0  0  0  0  0  0  0
   47.5929    9.8346   20.9692 C   0  0  0  0  0  0  0  0  0  0  0  0
   46.4936   10.6649   20.7396 C   0  0  0  0  0  0  0  0  0  0  0  0
   49.4932   12.8858   16.6778 C   0  0  0  0  0  0  0  0  0  0  0  0
   48.7830   11.7915   16.5871 N   0  0  0  0  0  0  0  0  0  0  0  0
   49.8506   13.5470   17.9756 C   0  0  0  0  0  0  0  0  0  0  0  0
   47.1574   13.4603   18.7386 S   0  0  0  0  0  0  0  0  0  0  0  0
   49.9915   13.4693   15.5016 N   0  0  0  0  0  0  0  0  0  0  0  0
   48.8807   13.9014   18.9204 C   0  0  0  0  0  0  0  0  0  0  0  0
   48.2320   11.1024   17.6781 C   0  0  0  0  0  0  0  0  0  0  0  0
   47.4199   11.6875   18.6661 C   0  0  0  0  0  0  0  0  0  0  0  0
   48.1809   14.4699   13.3962 N   0  0  0  0  0  0  0  0  0  0  0  0
   49.8069   14.9213   15.2799 C   0  0  0  0  0  0  0  0  0  0  0  0
   49.8216   12.7416   14.2231 C   0  0  0  0  0  0  0  0  0  0  0  0
   48.4186   15.2085   14.6587 C   0  0  0  0  0  0  0  0  0  0  0  0
   48.4273   13.0175   13.6108 C   0  0  0  0  0  0  0  0  0  0  0  0
   51.1936   13.8819   18.1959 C   0  0  0  0  0  0  0  0  0  0  0  0
   49.2669   14.6156   20.0706 C   0  0  0  0  0  0  0  0  0  0  0  0
   46.8073   14.6663   12.8810 C   0  0  0  0  0  0  0  0  0  0  0  0
   44.4252   17.8487   10.7548 O   0  0  0  0  0  0  0  0  0  0  0  0
   48.4244    9.7136   17.7051 C   0  0  0  0  0  0  0  0  0  0  0  0
   46.8487   10.8916   19.6658 C   0  0  0  0  0  0  0  0  0  0  0  0
   47.1918   16.5560   11.3950 O   0  0  0  0  0  0  0  0  0  0  0  0
   45.6518   17.8788   10.0213 C   0  0  0  0  0  0  0  0  0  0  0  0
   46.4078   16.1035   12.5004 C   0  0  0  0  0  0  0  0  0  0  0  0
   46.8558   17.8803   10.9659 C   0  0  0  0  0  0  0  0  0  0  0  0
   51.5720   14.5719   19.3481 C   0  0  0  0  0  0  0  0  0  0  0  0
   50.6079   14.9435   20.2803 C   0  0  0  0  0  0  0  0  0  0  0  0
   47.0547    9.5138   19.6780 C   0  0  0  0  0  0  0  0  0  0  0  0
   47.8389    8.9197   18.6941 C   0  0  0  0  0  0  0  0  0  0  0  0
   48.8286   12.3720   16.3645 C   0  0  0  0  0  0  0  0  0  0  0  0
   47.5496   15.5096   14.5762 C   0  0  0  0  0  0  0  0  0  0  0  0
   48.7137   13.5247   15.4670 C   0  0  0  0  0  0  0  0  0  0  0  0
   47.6687   14.3634   15.4800 C   0  0  0  0  0  0  0  0  0  0  0  0
   49.7739   11.6051   16.3774 O   0  0  0  0  0  0  0  0  0  0  0  0
   46.6179   16.2939   14.5797 O   0  0  0  0  0  0  0  0  0  0  0  0
   47.7903   12.2313   17.2026 O   0  0  0  0  0  0  0  0  0  0  0  0
   48.5779   15.6431   13.7259 O   0  0  0  0  0  0  0  0  0  0  0  0
   49.5645   15.8313   15.8236 H   0  0  0  0  0  0  0  0  0  0  0  0
   50.2444   14.1997   15.6879 H   0  0  0  0  0  0  0  0  0  0  0  0
   46.1110   14.3516   16.4273 H   0  0  0  0  0  0  0  0  0  0  0  0
   46.7820   13.3371   15.1335 H   0  0  0  0  0  0  0  0  0  0  0  0
   49.8774   15.1301   13.4622 H   0  0  0  0  0  0  0  0  0  0  0  0
   48.8766   13.6955   13.7316 H   0  0  0  0  0  0  0  0  0  0  0  0
   45.7712   15.5033   14.3021 H   0  0  0  0  0  0  0  0  0  0  0  0
   46.8873   16.3982   15.3072 H   0  0  0  0  0  0  0  0  0  0  0  0
   49.2081   15.8152   18.4972 H   0  0  0  0  0  0  0  0  0  0  0  0
   52.4757   12.2109   19.5037 H   0  0  0  0  0  0  0  0  0  0  0  0
   46.3760   15.7675   12.1463 H   0  0  0  0  0  0  0  0  0  0  0  0
   46.8857   14.1129   12.3833 H   0  0  0  0  0  0  0  0  0  0  0  0
   45.5884   17.3938    7.3798 H   0  0  0  0  0  0  0  0  0  0  0  0
   45.6604   12.2125   19.4962 H   0  0  0  0  0  0  0  0  0  0  0  0
   49.5770    9.2970   20.3535 H   0  0  0  0  0  0  0  0  0  0  0  0
   44.8870   15.6523    9.5091 H   0  0  0  0  0  0  0  0  0  0  0  0
   45.7059   15.2420    7.9972 H   0  0  0  0  0  0  0  0  0  0  0  0
   48.9795   14.4943   11.2007 H   0  0  0  0  0  0  0  0  0  0  0  0
   48.7500   16.2476   11.1646 H   0  0  0  0  0  0  0  0  0  0  0  0
   46.7569   17.0512   10.2588 H   0  0  0  0  0  0  0  0  0  0  0  0
   47.6259   16.7955    8.7430 H   0  0  0  0  0  0  0  0  0  0  0  0
   51.2791   16.3319   19.7595 H   0  0  0  0  0  0  0  0  0  0  0  0
   52.9172   14.5281   20.2502 H   0  0  0  0  0  0  0  0  0  0  0  0
   47.5776    9.1348   21.8014 H   0  0  0  0  0  0  0  0  0  0  0  0
   45.6212   10.6021   21.3777 H   0  0  0  0  0  0  0  0  0  0  0  0
   50.5984   15.2814   14.6134 H   0  0  0  0  0  0  0  0  0  0  0  0
   49.8996   15.4869   16.2101 H   0  0  0  0  0  0  0  0  0  0  0  0
   50.5953   13.0784   13.5230 H   0  0  0  0  0  0  0  0  0  0  0  0
   49.9783   11.6654   14.3525 H   0  0  0  0  0  0  0  0  0  0  0  0
   48.3701   16.2873   14.4700 H   0  0  0  0  0  0  0  0  0  0  0  0
   47.6352   14.9648   15.3896 H   0  0  0  0  0  0  0  0  0  0  0  0
   48.3681   12.4962   12.6477 H   0  0  0  0  0  0  0  0  0  0  0  0
   47.6479   12.5927   14.2583 H   0  0  0  0  0  0  0  0  0  0  0  0
   51.9496   13.6050   17.4600 H   0  0  0  0  0  0  0  0  0  0  0  0
   48.5213   14.9008   20.8086 H   0  0  0  0  0  0  0  0  0  0  0  0
   46.0830   14.2884   13.6121 H   0  0  0  0  0  0  0  0  0  0  0  0
   46.7112   14.0551   11.9723 H   0  0  0  0  0  0  0  0  0  0  0  0
   43.7230   17.6747   10.1015 H   0  0  0  0  0  0  0  0  0  0  0  0
   49.0282    9.2510   16.9274 H   0  0  0  0  0  0  0  0  0  0  0  0
   46.2420   11.3415   20.4512 H   0  0  0  0  0  0  0  0  0  0  0  0
   45.6491   18.7944    9.4140 H   0  0  0  0  0  0  0  0  0  0  0  0
   45.6796   17.0036    9.3644 H   0  0  0  0  0  0  0  0  0  0  0  0
   45.3533   16.0914   12.2183 H   0  0  0  0  0  0  0  0  0  0  0  0
   46.5267   16.7844   13.3449 H   0  0  0  0  0  0  0  0  0  0  0  0
   46.6985   18.5378   11.8284 H   0  0  0  0  0  0  0  0  0  0  0  0
   47.7250   18.2501   10.4135 H   0  0  0  0  0  0  0  0  0  0  0  0
   52.6168   14.8322   19.5117 H   0  0  0  0  0  0  0  0  0  0  0  0
   50.8961   15.4867   21.1775 H   0  0  0  0  0  0  0  0  0  0  0  0
   46.6158    8.9008   20.4641 H   0  0  0  0  0  0  0  0  0  0  0  0
   48.0022    7.8451   18.6939 H   0  0  0  0  0  0  0  0  0  0  0  0
   49.5442   13.6442   14.7789 H   0  0  0  0  0  0  0  0  0  0  0  0
   46.8405   14.2457   16.1694 H   0  0  0  0  0  0  0  0  0  0  0  0
   48.0224   11.4349   17.7244 H   0  0  0  0  0  0  0  0  0  0  0  0
   48.3539   16.4420   13.2035 H   0  0  0  0  0  0  0  0  0  0  0  0
  2  1  2  0
  3  1  1  0
  4  6  1  0
  5  1  1  0
  6  3  2  0
  7  2  1  0
  8  7  2  0
  9 13  1  0
 10  5  1  0
 11  5  1  0
 12 10  1  0
 13 11  1  0
 14  3  1  0
 15  6  1  0
 16  9  1  0
 17 21  1  0
 18  7  1  0
 19  8  1  0
 20 22  1  0
 21 23  1  0
 22 16  1  0
 23 20  1  0
 24 14  2  0
 25 15  2  0
 26 19  2  0
 27 18  2  0
  9 12  1  0
  8  4  1  0
 24 25  1  0
 27 26  1  0
 29 28  2  0
 30 28  1  0
 31 33  1  0
 32 28  1  0
 33 30  2  0
 34 29  1  0
 35 34  2  0
 36 40  1  0
 37 32  1  0
 38 32  1  0
 39 37  1  0
 40 38  1  0
 41 30  1  0
 42 33  1  0
 43 36  1  0
 44 48  1  0
 45 34  1  0
 46 35  1  0
 47 49  1  0
 48 50  1  0
 49 43  1  0
 50 47  1  0
 51 41  2  0
 52 42  2  0
 53 46  2  0
 54 45  2  0
 36 39  1  0
 35 31  1  0
 51 52  1  0
 54 53  1  0
 56 58  1  0
 57 55  1  0
 58 57  2  0
 59 55  2  0
 60 56  2  0
 61 55  1  0
 62 56  1  0
 10 63  1  0
 10 64  1  0
 11 65  1  0
 11 66  1  0
 12 67  1  0
 12 68  1  0
 13 69  1  0
 13 70  1  0
 14 71  1  0
 15 72  1  0
 16 73  1  0
 16 74  1  0
 17 75  1  0
 18 76  1  0
 19 77  1  0
 21 78  1  0
 21 79  1  0
 22 80  1  0
 22 81  1  0
 23 82  1  0
 23 83  1  0
 24 84  1  0
 25 85  1  0
 26 86  1  0
 27 87  1  0
 37 88  1  0
 37 89  1  0
 38 90  1  0
 38 91  1  0
 39 92  1  0
 39 93  1  0
 40 94  1  0
 40 95  1  0
 41 96  1  0
 42 97  1  0
 43 98  1  0
 43 99  1  0
 44100  1  0
 45101  1  0
 46102  1  0
 48103  1  0
 48104  1  0
 49105  1  0
 49106  1  0
 50107  1  0
 50108  1  0
 51109  1  0
 52110  1  0
 53111  1  0
 54112  1  0
 57113  1  0
 58114  1  0
 61115  1  0
 62116  1  0
M  END
> <Uni-Dock RESULT> 
ENERGY=   -5.001  LOWER_BOUND=    4.722  UPPER_BOUND=    9.426
INTER + INTRA:          -5.001
INTER:                  -5.001
INTRA:                   0.000
UNBOUND:                 0.000

$$$$

     RDKit          3D

116121  0  0  0  0  0  0  0  0999 V2000
   49.1941   11.7022   13.5756 C   0  0  0  0  0  0  0  0  0  0  0  0
   50.2349   12.4102   13.9310 N   0  0  0  0  0  0  0  0  0  0  0  0
   48.4276   11.9250   12.3042 C   0  0  0  0  0  0  0  0  0  0  0  0
   50.8215   11.8012   10.8806 S   0  0  0  0  0  0  0  0  0  0  0  0
   48.7444   10.6974   14.4410 N   0  0  0  0  0  0  0  0  0  0  0  0
   49.0530   11.9096   11.0521 C   0  0  0  0  0  0  0  0  0  0  0  0
   50.7982   13.4357   13.1476 C   0  0  0  0  0  0  0  0  0  0  0  0
   51.1939   13.2863   11.8061 C   0  0  0  0  0  0  0  0  0  0  0  0
   48.2895    8.2910   16.1791 N   0  0  0  0  0  0  0  0  0  0  0  0
   48.1235    9.4546   13.9433 C   0  0  0  0  0  0  0  0  0  0  0  0
   49.2890   10.6178   15.8072 C   0  0  0  0  0  0  0  0  0  0  0  0
   48.5984    8.2172   14.7347 C   0  0  0  0  0  0  0  0  0  0  0  0
   48.4245    9.6833   16.6767 C   0  0  0  0  0  0  0  0  0  0  0  0
   47.0398   12.1018   12.4054 C   0  0  0  0  0  0  0  0  0  0  0  0
   48.2677   12.0475    9.9006 C   0  0  0  0  0  0  0  0  0  0  0  0
   49.1120    7.3680   16.9756 C   0  0  0  0  0  0  0  0  0  0  0  0
   48.7715    4.2596   21.0731 O   0  0  0  0  0  0  0  0  0  0  0  0
   51.0371   14.6580   13.7900 C   0  0  0  0  0  0  0  0  0  0  0  0
   51.8162   14.3482   11.1371 C   0  0  0  0  0  0  0  0  0  0  0  0
   49.6000    5.0578   17.5911 O   0  0  0  0  0  0  0  0  0  0  0  0
   49.5744    4.6843   19.9743 C   0  0  0  0  0  0  0  0  0  0  0  0
   48.9608    5.8768   16.6043 C   0  0  0  0  0  0  0  0  0  0  0  0
   48.7445    4.7529   18.6936 C   0  0  0  0  0  0  0  0  0  0  0  0
   46.2699   12.2494   11.2515 C   0  0  0  0  0  0  0  0  0  0  0  0
   46.8856   12.2219   10.0030 C   0  0  0  0  0  0  0  0  0  0  0  0
   52.0593   15.5548   11.7904 C   0  0  0  0  0  0  0  0  0  0  0  0
   51.6617   15.7146   13.1197 C   0  0  0  0  0  0  0  0  0  0  0  0
   49.6043   10.6117   12.7262 C   0  0  0  0  0  0  0  0  0  0  0  0
   50.8513   10.9107   12.9826 N   0  0  0  0  0  0  0  0  0  0  0  0
   48.5990   11.5926   12.2008 C   0  0  0  0  0  0  0  0  0  0  0  0
   49.3061   13.3786   14.2389 S   0  0  0  0  0  0  0  0  0  0  0  0
   49.1732    9.2881   12.9119 N   0  0  0  0  0  0  0  0  0  0  0  0
   48.3477   12.8126   12.8394 C   0  0  0  0  0  0  0  0  0  0  0  0
   51.4149   12.1870   12.8344 C   0  0  0  0  0  0  0  0  0  0  0  0
   50.8932   13.3626   13.4035 C   0  0  0  0  0  0  0  0  0  0  0  0
   49.2392    8.0094   15.5713 N   0  0  0  0  0  0  0  0  0  0  0  0
   47.9261    9.0327   13.6676 C   0  0  0  0  0  0  0  0  0  0  0  0
   50.1809    8.2551   13.2443 C   0  0  0  0  0  0  0  0  0  0  0  0
   48.2049    8.9995   15.1898 C   0  0  0  0  0  0  0  0  0  0  0  0
   50.4700    8.2334   14.7644 C   0  0  0  0  0  0  0  0  0  0  0  0
   47.8430   11.2241   11.0797 C   0  0  0  0  0  0  0  0  0  0  0  0
   47.3170   13.6428   12.3594 C   0  0  0  0  0  0  0  0  0  0  0  0
   49.5748    8.0748   17.0114 C   0  0  0  0  0  0  0  0  0  0  0  0
   47.7851    6.8153   20.9526 O   0  0  0  0  0  0  0  0  0  0  0  0
   52.6437   12.2562   12.1623 C   0  0  0  0  0  0  0  0  0  0  0  0
   51.5821   14.5733   13.2666 C   0  0  0  0  0  0  0  0  0  0  0  0
   48.0306    6.4000   17.8701 O   0  0  0  0  0  0  0  0  0  0  0  0
   47.5565    5.6510   20.1554 C   0  0  0  0  0  0  0  0  0  0  0  0
   48.4398    7.7624   18.0034 C   0  0  0  0  0  0  0  0  0  0  0  0
   46.9926    6.0276   18.7836 C   0  0  0  0  0  0  0  0  0  0  0  0
   46.8366   12.0614   10.5971 C   0  0  0  0  0  0  0  0  0  0  0  0
   46.5705   13.2660   11.2411 C   0  0  0  0  0  0  0  0  0  0  0  0
   52.8000   14.6226   12.5917 C   0  0  0  0  0  0  0  0  0  0  0  0
   53.3373   13.4628   12.0422 C   0  0  0  0  0  0  0  0  0  0  0  0
   50.3469   10.6384   13.2278 C   0  0  0  0  0  0  0  0  0  0  0  0
   48.1993    9.2473   16.0793 C   0  0  0  0  0  0  0  0  0  0  0  0
   49.5061    9.7654   14.0514 C   0  0  0  0  0  0  0  0  0  0  0  0
   49.0315   10.1237   15.2521 C   0  0  0  0  0  0  0  0  0  0  0  0
   50.7785   10.3375   12.1300 O   0  0  0  0  0  0  0  0  0  0  0  0
   47.7439    9.5562   17.1658 O   0  0  0  0  0  0  0  0  0  0  0  0
   50.5999   11.8321   13.7860 O   0  0  0  0  0  0  0  0  0  0  0  0
   47.9587    8.0471   15.5315 O   0  0  0  0  0  0  0  0  0  0  0  0
   47.0319    9.5458   14.0135 H   0  0  0  0  0  0  0  0  0  0  0  0
   48.3785    9.2920   12.8887 H   0  0  0  0  0  0  0  0  0  0  0  0
   49.2937   11.6145   16.2686 H   0  0  0  0  0  0  0  0  0  0  0  0
   50.3235   10.2547   15.7749 H   0  0  0  0  0  0  0  0  0  0  0  0
   48.1105    7.3293   14.3136 H   0  0  0  0  0  0  0  0  0  0  0  0
   49.6805    8.1033   14.5751 H   0  0  0  0  0  0  0  0  0  0  0  0
   48.7898    9.7131   17.7139 H   0  0  0  0  0  0  0  0  0  0  0  0
   47.4076   10.1018   16.7163 H   0  0  0  0  0  0  0  0  0  0  0  0
   46.5645   12.1272   13.3862 H   0  0  0  0  0  0  0  0  0  0  0  0
   48.7315   12.0472    8.9165 H   0  0  0  0  0  0  0  0  0  0  0  0
   48.8394    7.4819   18.0342 H   0  0  0  0  0  0  0  0  0  0  0  0
   50.1757    7.6383   16.9191 H   0  0  0  0  0  0  0  0  0  0  0  0
   48.6066    3.3116   20.9564 H   0  0  0  0  0  0  0  0  0  0  0  0
   50.7415   14.7804   14.8273 H   0  0  0  0  0  0  0  0  0  0  0  0
   52.1093   14.2431   10.0928 H   0  0  0  0  0  0  0  0  0  0  0  0
   49.9651    5.6872   20.2015 H   0  0  0  0  0  0  0  0  0  0  0  0
   50.4373    4.0161   19.8713 H   0  0  0  0  0  0  0  0  0  0  0  0
   49.4634    5.6851   15.6518 H   0  0  0  0  0  0  0  0  0  0  0  0
   47.9086    5.5906   16.4894 H   0  0  0  0  0  0  0  0  0  0  0  0
   47.9481    5.4958   18.8194 H   0  0  0  0  0  0  0  0  0  0  0  0
   48.2626    3.7873   18.5023 H   0  0  0  0  0  0  0  0  0  0  0  0
   45.1960   12.3995   11.3364 H   0  0  0  0  0  0  0  0  0  0  0  0
   46.2825   12.3465    9.1015 H   0  0  0  0  0  0  0  0  0  0  0  0
   52.5316   16.3808   11.2642 H   0  0  0  0  0  0  0  0  0  0  0  0
   51.8372   16.6525   13.6314 H   0  0  0  0  0  0  0  0  0  0  0  0
   47.5042    8.0754   13.3420 H   0  0  0  0  0  0  0  0  0  0  0  0
   47.1683    9.7935   13.4655 H   0  0  0  0  0  0  0  0  0  0  0  0
   49.7934    7.2763   12.9375 H   0  0  0  0  0  0  0  0  0  0  0  0
   51.1070    8.4045   12.6791 H   0  0  0  0  0  0  0  0  0  0  0  0
   47.2574    8.7523   15.6827 H   0  0  0  0  0  0  0  0  0  0  0  0
   48.5020   10.0020   15.5275 H   0  0  0  0  0  0  0  0  0  0  0  0
   51.1839    7.4253   14.9648 H   0  0  0  0  0  0  0  0  0  0  0  0
   50.9527    9.1742   15.0630 H   0  0  0  0  0  0  0  0  0  0  0  0
   48.0392   10.2737   10.5816 H   0  0  0  0  0  0  0  0  0  0  0  0
   47.1095   14.5902   12.8507 H   0  0  0  0  0  0  0  0  0  0  0  0
   49.9792    9.0655   17.2499 H   0  0  0  0  0  0  0  0  0  0  0  0
   50.3713    7.3390   17.1927 H   0  0  0  0  0  0  0  0  0  0  0  0
   48.2975    6.5175   21.7265 H   0  0  0  0  0  0  0  0  0  0  0  0
   53.0667   11.3453   11.7444 H   0  0  0  0  0  0  0  0  0  0  0  0
   51.1701   15.4935   13.6798 H   0  0  0  0  0  0  0  0  0  0  0  0
   46.8393    5.0181   20.6961 H   0  0  0  0  0  0  0  0  0  0  0  0
   48.5065    5.1180   20.0474 H   0  0  0  0  0  0  0  0  0  0  0  0
   48.8240    7.9303   19.0113 H   0  0  0  0  0  0  0  0  0  0  0  0
   47.5859    8.4244   17.8496 H   0  0  0  0  0  0  0  0  0  0  0  0
   46.2380    6.8193   18.8546 H   0  0  0  0  0  0  0  0  0  0  0  0
   46.5137    5.1423   18.3545 H   0  0  0  0  0  0  0  0  0  0  0  0
   46.2505   11.7676    9.7274 H   0  0  0  0  0  0  0  0  0  0  0  0
   45.7833   13.9201   10.8730 H   0  0  0  0  0  0  0  0  0  0  0  0
   53.3267   15.5694   12.4797 H   0  0  0  0  0  0  0  0  0  0  0  0
   54.2885   13.4913   11.5170 H   0  0  0  0  0  0  0  0  0  0  0  0
   49.3012    8.7939   13.6136 H   0  0  0  0  0  0  0  0  0  0  0  0
   49.2337   11.0954   15.6881 H   0  0  0  0  0  0  0  0  0  0  0  0
   51.1573   12.2843   13.1188 H   0  0  0  0  0  0  0  0  0  0  0  0
   47.3967    7.5910   16.1927 H   0  0  0  0  0  0  0  0  0  0  0  0
  2  1  2  0
  3  1  1  0
  4  6  1  0
  5  1  1  0
  6  3  2  0
  7  2  1  0
  8  7  2  0
  9 13  1  0
 10  5  1  0
 11  5  1  0
 12 10  1  0
 13 11  1  0
 14  3  1  0
 15  6  1  0
 16  9  1  0
 17 21  1  0
 18  7  1  0
 19  8  1  0
 20 22  1  0
 21 23  1  0
 22 16  1  0
 23 20  1  0
 24 14  2  0
 25 15  2  0
 26 19  2  0
 27 18  2  0
  9 12  1  0
  8  4  1  0
 24 25  1  0
 27 26  1  0
 29 28  2  0
 30 28  1  0
 31 33  1  0
 32 28  1  0
 33 30  2  0
 34 29  1  0
 35 34  2  0
 36 40  1  0
 37 32  1  0
 38 32  1  0
 39 37  1  0
 40 38  1  0
 41 30  1  0
 42 33  1  0
 43 36  1  0
 44 48  1  0
 45 34  1  0
 46 35  1  0
 47 49  1  0
 48 50  1  0
 49 43  1  0
 50 47  1  0
 51 41  2  0
 52 42  2  0
 53 46  2  0
 54 45  2  0
 36 39  1  0
 35 31  1  0
 51 52  1  0
 54 53  1  0
 56 58  1  0
 57 55  1  0
 58 57  2  0
 59 55  2  0
 60 56  2  0
 61 55  1  0
 62 56  1  0
 10 63  1  0
 10 64  1  0
 11 65  1  0
 11 66  1  0
 12 67  1  0
 12 68  1  0
 13 69  1  0
 13 70  1  0
 14 71  1  0
 15 72  1  0
 16 73  1  0
 16 74  1  0
 17 75  1  0
 18 76  1  0
 19 77  1  0
 21 78  1  0
 21 79  1  0
 22 80  1  0
 22 81  1  0
 23 82  1  0
 23 83  1  0
 24 84  1  0
 25 85  1  0
 26 86  1  0
 27 87  1  0
 37 88  1  0
 37 89  1  0
 38 90  1  0
 38 91  1  0
 39 92  1  0
 39 93  1  0
 40 94  1  0
 40 95  1  0
 41 96  1  0
 42 97  1  0
 43 98  1  0
 43 99  1  0
 44100  1  0
 45101  1  0
 46102  1  0
 48103  1  0
 48104  1  0
 49105  1  0
 49106  1  0
 50107  1  0
 50108  1  0
 51109  1  0
 52110  1  0
 53111  1  0
 54112  1  0
 57113  1  0
 58114  1  0
 61115  1  0
 62116  1  0
M  END
> <Uni-Dock RESULT> 
ENERGY=   -4.961  LOWER_BOUND=    4.049  UPPER_BOUND=    7.674
INTER + INTRA:          -4.961
INTER:                  -4.961
INTRA:                   0.000
UNBOUND:                 0.000

$$$$

     RDKit          3D

116121  0  0  0  0  0  0  0  0999 V2000
   49.3928   10.6889   13.8683 C   0  0  0  0  0  0  0  0  0  0  0  0
   48.7323   11.3478   14.7850 N   0  0  0  0  0  0  0  0  0  0  0  0
   50.7959   11.0204   13.4499 C   0  0  0  0  0  0  0  0  0  0  0  0
   51.5723   10.9551   16.1267 S   0  0  0  0  0  0  0  0  0  0  0  0
   48.7492    9.6318   13.2133 N   0  0  0  0  0  0  0  0  0  0  0  0
   51.8463   11.0854   14.3726 C   0  0  0  0  0  0  0  0  0  0  0  0
   49.2666   12.4172   15.5290 C   0  0  0  0  0  0  0  0  0  0  0  0
   50.4716   12.3599   16.2523 C   0  0  0  0  0  0  0  0  0  0  0  0
   47.3727    7.1127   12.3312 N   0  0  0  0  0  0  0  0  0  0  0  0
   49.4816    8.4418   12.7387 C   0  0  0  0  0  0  0  0  0  0  0  0
   47.2998    9.4404   13.3931 C   0  0  0  0  0  0  0  0  0  0  0  0
   48.6930    7.1400   12.9968 C   0  0  0  0  0  0  0  0  0  0  0  0
   46.7518    8.4613   12.3359 C   0  0  0  0  0  0  0  0  0  0  0  0
   51.0360   11.2166   12.0818 C   0  0  0  0  0  0  0  0  0  0  0  0
   53.1449   11.3238   13.9055 C   0  0  0  0  0  0  0  0  0  0  0  0
   46.4671    6.1171   12.9243 C   0  0  0  0  0  0  0  0  0  0  0  0
   42.8401    2.7210   11.5536 O   0  0  0  0  0  0  0  0  0  0  0  0
   48.4928   13.5837   15.5973 C   0  0  0  0  0  0  0  0  0  0  0  0
   50.8778   13.4559   17.0244 C   0  0  0  0  0  0  0  0  0  0  0  0
   45.9271    3.7584   13.2393 O   0  0  0  0  0  0  0  0  0  0  0  0
   43.6639    3.2100   12.6093 C   0  0  0  0  0  0  0  0  0  0  0  0
   46.9778    4.6608   12.8718 C   0  0  0  0  0  0  0  0  0  0  0  0
   45.1038    3.3897   12.1318 C   0  0  0  0  0  0  0  0  0  0  0  0
   52.3324   11.4645   11.6303 C   0  0  0  0  0  0  0  0  0  0  0  0
   53.3827   11.5174   12.5427 C   0  0  0  0  0  0  0  0  0  0  0  0
   50.0937   14.6058   17.0940 C   0  0  0  0  0  0  0  0  0  0  0  0
   48.9001   14.6745   16.3720 C   0  0  0  0  0  0  0  0  0  0  0  0
   50.1918    9.6564   14.4804 C   0  0  0  0  0  0  0  0  0  0  0  0
   49.6059    9.9109   15.6215 N   0  0  0  0  0  0  0  0  0  0  0  0
   50.8777   10.6932   13.6417 C   0  0  0  0  0  0  0  0  0  0  0  0
   48.5962   12.3090   13.8087 S   0  0  0  0  0  0  0  0  0  0  0  0
   50.2233    8.3315   14.0159 N   0  0  0  0  0  0  0  0  0  0  0  0
   50.2319   11.8673   13.2369 C   0  0  0  0  0  0  0  0  0  0  0  0
   49.5082   11.1833   16.2047 C   0  0  0  0  0  0  0  0  0  0  0  0
   49.0014   12.3236   15.5560 C   0  0  0  0  0  0  0  0  0  0  0  0
   47.7399    6.8582   13.4041 N   0  0  0  0  0  0  0  0  0  0  0  0
   49.8298    8.0455   12.6177 C   0  0  0  0  0  0  0  0  0  0  0  0
   49.7269    7.2569   14.9058 C   0  0  0  0  0  0  0  0  0  0  0  0
   48.2938    7.8941   12.5008 C   0  0  0  0  0  0  0  0  0  0  0  0
   48.1894    7.1170   14.7994 C   0  0  0  0  0  0  0  0  0  0  0  0
   52.1785   10.4238   13.1951 C   0  0  0  0  0  0  0  0  0  0  0  0
   50.8921   12.7510   12.3621 C   0  0  0  0  0  0  0  0  0  0  0  0
   46.2611    6.8101   13.3630 C   0  0  0  0  0  0  0  0  0  0  0  0
   43.0100    5.2976   10.6308 O   0  0  0  0  0  0  0  0  0  0  0  0
   49.8400   11.2778   17.5639 C   0  0  0  0  0  0  0  0  0  0  0  0
   48.8662   13.5272   16.2574 C   0  0  0  0  0  0  0  0  0  0  0  0
   45.9524    5.1070   11.6509 O   0  0  0  0  0  0  0  0  0  0  0  0
   43.9260    4.2003   10.6118 C   0  0  0  0  0  0  0  0  0  0  0  0
   45.6158    6.4475   12.0133 C   0  0  0  0  0  0  0  0  0  0  0  0
   45.3628    4.6887   10.4148 C   0  0  0  0  0  0  0  0  0  0  0  0
   52.8344   11.3144   12.3444 C   0  0  0  0  0  0  0  0  0  0  0  0
   52.1884   12.4729   11.9240 C   0  0  0  0  0  0  0  0  0  0  0  0
   49.2050   13.6023   17.6067 C   0  0  0  0  0  0  0  0  0  0  0  0
   49.6877   12.4760   18.2656 C   0  0  0  0  0  0  0  0  0  0  0  0
   49.5180    9.6312   15.0713 C   0  0  0  0  0  0  0  0  0  0  0  0
   47.4184    8.0754   12.2696 C   0  0  0  0  0  0  0  0  0  0  0  0
   49.0036    8.7163   14.0487 C   0  0  0  0  0  0  0  0  0  0  0  0
   47.9382    8.9940   13.2848 C   0  0  0  0  0  0  0  0  0  0  0  0
   50.4905    9.4040   15.7674 O   0  0  0  0  0  0  0  0  0  0  0  0
   46.4622    8.3118   11.5534 O   0  0  0  0  0  0  0  0  0  0  0  0
   48.8241   10.7750   15.1746 O   0  0  0  0  0  0  0  0  0  0  0  0
   48.0996    6.9241   12.1756 O   0  0  0  0  0  0  0  0  0  0  0  0
   49.6833    8.5491   11.6651 H   0  0  0  0  0  0  0  0  0  0  0  0
   50.4466    8.3528   13.2531 H   0  0  0  0  0  0  0  0  0  0  0  0
   46.7773   10.3999   13.2808 H   0  0  0  0  0  0  0  0  0  0  0  0
   47.0970    9.0603   14.4018 H   0  0  0  0  0  0  0  0  0  0  0  0
   49.2907    6.2956   12.6314 H   0  0  0  0  0  0  0  0  0  0  0  0
   48.5818    7.0169   14.0838 H   0  0  0  0  0  0  0  0  0  0  0  0
   45.6567    8.4070   12.4258 H   0  0  0  0  0  0  0  0  0  0  0  0
   46.9390    8.8958   11.3424 H   0  0  0  0  0  0  0  0  0  0  0  0
   50.2085   11.1786   11.3731 H   0  0  0  0  0  0  0  0  0  0  0  0
   53.9767   11.3872   14.6040 H   0  0  0  0  0  0  0  0  0  0  0  0
   45.5064    6.1577   12.3919 H   0  0  0  0  0  0  0  0  0  0  0  0
   46.2316    6.3698   13.9675 H   0  0  0  0  0  0  0  0  0  0  0  0
   43.0671    1.7877   11.4234 H   0  0  0  0  0  0  0  0  0  0  0  0
   47.5580   13.6347   15.0481 H   0  0  0  0  0  0  0  0  0  0  0  0
   51.8187   13.4227   17.5731 H   0  0  0  0  0  0  0  0  0  0  0  0
   43.2690    4.1853   12.9298 H   0  0  0  0  0  0  0  0  0  0  0  0
   43.5961    2.5343   13.4698 H   0  0  0  0  0  0  0  0  0  0  0  0
   47.7838    4.5304   13.5998 H   0  0  0  0  0  0  0  0  0  0  0  0
   47.3769    4.4047   11.8832 H   0  0  0  0  0  0  0  0  0  0  0  0
   45.1272    4.1368   11.3298 H   0  0  0  0  0  0  0  0  0  0  0  0
   45.4844    2.4507   11.7140 H   0  0  0  0  0  0  0  0  0  0  0  0
   52.5109   11.6291   10.5700 H   0  0  0  0  0  0  0  0  0  0  0  0
   54.3952   11.7204   12.1883 H   0  0  0  0  0  0  0  0  0  0  0  0
   50.4183   15.4590   17.6848 H   0  0  0  0  0  0  0  0  0  0  0  0
   48.2903   15.5682   16.4121 H   0  0  0  0  0  0  0  0  0  0  0  0
   50.3240    7.1235   12.2920 H   0  0  0  0  0  0  0  0  0  0  0  0
   50.1582    8.8340   11.9363 H   0  0  0  0  0  0  0  0  0  0  0  0
   50.1959    6.3115   14.6086 H   0  0  0  0  0  0  0  0  0  0  0  0
   50.0260    7.4295   15.9452 H   0  0  0  0  0  0  0  0  0  0  0  0
   48.0772    7.6298   11.4592 H   0  0  0  0  0  0  0  0  0  0  0  0
   47.8160    8.8628   12.7028 H   0  0  0  0  0  0  0  0  0  0  0  0
   47.8774    6.2823   15.4388 H   0  0  0  0  0  0  0  0  0  0  0  0
   47.7071    8.0234   15.1908 H   0  0  0  0  0  0  0  0  0  0  0  0
   52.6821    9.5093   13.5111 H   0  0  0  0  0  0  0  0  0  0  0  0
   50.3981   13.6633   12.0370 H   0  0  0  0  0  0  0  0  0  0  0  0
   45.8528    7.7722   13.6939 H   0  0  0  0  0  0  0  0  0  0  0  0
   45.9411    6.0472   14.0871 H   0  0  0  0  0  0  0  0  0  0  0  0
   42.1568    4.9332   10.9299 H   0  0  0  0  0  0  0  0  0  0  0  0
   50.2058   10.3922   18.0788 H   0  0  0  0  0  0  0  0  0  0  0  0
   48.5014   14.4222   15.7542 H   0  0  0  0  0  0  0  0  0  0  0  0
   43.6346    3.5434    9.7807 H   0  0  0  0  0  0  0  0  0  0  0  0
   43.8305    3.6581   11.5579 H   0  0  0  0  0  0  0  0  0  0  0  0
   44.5337    6.5326   12.1290 H   0  0  0  0  0  0  0  0  0  0  0  0
   45.9295    7.1358   11.2266 H   0  0  0  0  0  0  0  0  0  0  0  0
   45.4246    5.4876    9.6672 H   0  0  0  0  0  0  0  0  0  0  0  0
   45.9657    3.8471   10.0603 H   0  0  0  0  0  0  0  0  0  0  0  0
   53.8441   11.0974   11.9983 H   0  0  0  0  0  0  0  0  0  0  0  0
   52.6924   13.1679   11.2562 H   0  0  0  0  0  0  0  0  0  0  0  0
   49.1070   14.5442   18.1449 H   0  0  0  0  0  0  0  0  0  0  0  0
   49.9513   12.5246   19.3190 H   0  0  0  0  0  0  0  0  0  0  0  0
   49.5520    7.7842   13.9614 H   0  0  0  0  0  0  0  0  0  0  0  0
   47.3921    9.9266   13.3700 H   0  0  0  0  0  0  0  0  0  0  0  0
   49.2918   11.2643   15.8834 H   0  0  0  0  0  0  0  0  0  0  0  0
   47.6392    6.4314   11.4640 H   0  0  0  0  0  0  0  0  0  0  0  0
  2  1  2  0
  3  1  1  0
  4  6  1  0
  5  1  1  0
  6  3  2  0
  7  2  1  0
  8  7  2  0
  9 13  1  0
 10  5  1  0
 11  5  1  0
 12 10  1  0
 13 11  1  0
 14  3  1  0
 15  6  1  0
 16  9  1  0
 17 21  1  0
 18  7  1  0
 19  8  1  0
 20 22  1  0
 21 23  1  0
 22 16  1  0
 23 20  1  0
 24 14  2  0
 25 15  2  0
 26 19  2  0
 27 18  2  0
  9 12  1  0
  8  4  1  0
 24 25  1  0
 27 26  1  0
 29 28  2  0
 30 28  1  0
 31 33  1  0
 32 28  1  0
 33 30  2  0
 34 29  1  0
 35 34  2  0
 36 40  1  0
 37 32  1  0
 38 32  1  0
 39 37  1  0
 40 38  1  0
 41 30  1  0
 42 33  1  0
 43 36  1  0
 44 48  1  0
 45 34  1  0
 46 35  1  0
 47 49  1  0
 48 50  1  0
 49 43  1  0
 50 47  1  0
 51 41  2  0
 52 42  2  0
 53 46  2  0
 54 45  2  0
 36 39  1  0
 35 31  1  0
 51 52  1  0
 54 53  1  0
 56 58  1  0
 57 55  1  0
 58 57  2  0
 59 55  2  0
 60 56  2  0
 61 55  1  0
 62 56  1  0
 10 63  1  0
 10 64  1  0
 11 65  1  0
 11 66  1  0
 12 67  1  0
 12 68  1  0
 13 69  1  0
 13 70  1  0
 14 71  1  0
 15 72  1  0
 16 73  1  0
 16 74  1  0
 17 75  1  0
 18 76  1  0
 19 77  1  0
 21 78  1  0
 21 79  1  0
 22 80  1  0
 22 81  1  0
 23 82  1  0
 23 83  1  0
 24 84  1  0
 25 85  1  0
 26 86  1  0
 27 87  1  0
 37 88  1  0
 37 89  1  0
 38 90  1  0
 38 91  1  0
 39 92  1  0
 39 93  1  0
 40 94  1  0
 40 95  1  0
 41 96  1  0
 42 97  1  0
 43 98  1  0
 43 99  1  0
 44100  1  0
 45101  1  0
 46102  1  0
 48103  1  0
 48104  1  0
 49105  1  0
 49106  1  0
 50107  1  0
 50108  1  0
 51109  1  0
 52110  1  0
 53111  1  0
 54112  1  0
 57113  1  0
 58114  1  0
 61115  1  0
 62116  1  0
M  END
> <Uni-Dock RESULT> 
ENERGY=   -4.916  LOWER_BOUND=    5.147  UPPER_BOUND=    8.566
INTER + INTRA:          -4.916
INTER:                  -4.916
INTRA:                   0.000
UNBOUND:                 0.000

$$$$

     RDKit          3D

116121  0  0  0  0  0  0  0  0999 V2000
   50.0016    8.2962   18.5362 C   0  0  0  0  0  0  0  0  0  0  0  0
   49.9790    9.5039   19.0380 N   0  0  0  0  0  0  0  0  0  0  0  0
   49.4035    7.0986   19.2156 C   0  0  0  0  0  0  0  0  0  0  0  0
   47.0133    8.5031   19.5097 S   0  0  0  0  0  0  0  0  0  0  0  0
   50.6469    8.0960   17.3097 N   0  0  0  0  0  0  0  0  0  0  0  0
   48.0624    7.0689   19.6150 C   0  0  0  0  0  0  0  0  0  0  0  0
   49.3506    9.8440   20.2513 C   0  0  0  0  0  0  0  0  0  0  0  0
   48.0119    9.5474   20.5647 C   0  0  0  0  0  0  0  0  0  0  0  0
   51.6092    8.0043   14.4664 N   0  0  0  0  0  0  0  0  0  0  0  0
   50.1915    7.0797   16.3414 C   0  0  0  0  0  0  0  0  0  0  0  0
   51.4739    9.1732   16.7393 C   0  0  0  0  0  0  0  0  0  0  0  0
   50.2507    7.6009   14.8895 C   0  0  0  0  0  0  0  0  0  0  0  0
   52.3483    8.6294   15.5921 C   0  0  0  0  0  0  0  0  0  0  0  0
   50.2258    5.9765   19.3957 C   0  0  0  0  0  0  0  0  0  0  0  0
   47.5476    5.8923   20.1737 C   0  0  0  0  0  0  0  0  0  0  0  0
   51.5899    8.8930   13.2947 C   0  0  0  0  0  0  0  0  0  0  0  0
   54.2288    9.8307    8.9675 O   0  0  0  0  0  0  0  0  0  0  0  0
   50.1083   10.5906   21.1637 C   0  0  0  0  0  0  0  0  0  0  0  0
   47.4584    9.9980   21.7701 C   0  0  0  0  0  0  0  0  0  0  0  0
   51.1917    9.1285   10.8988 O   0  0  0  0  0  0  0  0  0  0  0  0
   53.0512   10.1138    9.7193 C   0  0  0  0  0  0  0  0  0  0  0  0
   50.9341    8.2912   12.0329 C   0  0  0  0  0  0  0  0  0  0  0  0
   52.4327    8.8257   10.2598 C   0  0  0  0  0  0  0  0  0  0  0  0
   49.7040    4.8141   19.9638 C   0  0  0  0  0  0  0  0  0  0  0  0
   48.3673    4.7752   20.3511 C   0  0  0  0  0  0  0  0  0  0  0  0
   48.2184   10.7500   22.6638 C   0  0  0  0  0  0  0  0  0  0  0  0
   49.5511   11.0417   22.3645 C   0  0  0  0  0  0  0  0  0  0  0  0
   48.7899    8.0453   17.7961 C   0  0  0  0  0  0  0  0  0  0  0  0
   48.4669    9.3040   17.9420 N   0  0  0  0  0  0  0  0  0  0  0  0
   49.1387    7.1330   18.9341 C   0  0  0  0  0  0  0  0  0  0  0  0
   50.9693    9.0341   19.8711 S   0  0  0  0  0  0  0  0  0  0  0  0
   48.7776    7.4878   16.5072 N   0  0  0  0  0  0  0  0  0  0  0  0
   50.1358    7.4522   19.8632 C   0  0  0  0  0  0  0  0  0  0  0  0
   48.4308    9.9839   19.1688 C   0  0  0  0  0  0  0  0  0  0  0  0
   49.4923   10.0280   20.0903 C   0  0  0  0  0  0  0  0  0  0  0  0
   50.5591    8.4950   14.3803 N   0  0  0  0  0  0  0  0  0  0  0  0
   49.9428    6.6978   16.0494 C   0  0  0  0  0  0  0  0  0  0  0  0
   48.2546    8.3039   15.3876 C   0  0  0  0  0  0  0  0  0  0  0  0
   51.0428    7.6247   15.4778 C   0  0  0  0  0  0  0  0  0  0  0  0
   49.3511    9.2412   14.8271 C   0  0  0  0  0  0  0  0  0  0  0  0
   48.4894    5.8931   19.0068 C   0  0  0  0  0  0  0  0  0  0  0  0
   50.4911    6.5079   20.8451 C   0  0  0  0  0  0  0  0  0  0  0  0
   51.5919    9.4538   13.9276 C   0  0  0  0  0  0  0  0  0  0  0  0
   55.3505    9.4375   11.4386 O   0  0  0  0  0  0  0  0  0  0  0  0
   47.2899   10.7584   19.4237 C   0  0  0  0  0  0  0  0  0  0  0  0
   49.3846   10.8083   21.2472 C   0  0  0  0  0  0  0  0  0  0  0  0
   52.5830    8.1655   12.1151 O   0  0  0  0  0  0  0  0  0  0  0  0
   54.4774    8.6413   10.6342 C   0  0  0  0  0  0  0  0  0  0  0  0
   52.8788    8.8568   13.3300 C   0  0  0  0  0  0  0  0  0  0  0  0
   53.7404    7.6049   11.4853 C   0  0  0  0  0  0  0  0  0  0  0  0
   48.8327    4.9702   19.9954 C   0  0  0  0  0  0  0  0  0  0  0  0
   49.8370    5.2759   20.9087 C   0  0  0  0  0  0  0  0  0  0  0  0
   48.2411   11.5680   21.4848 C   0  0  0  0  0  0  0  0  0  0  0  0
   47.1923   11.5497   20.5707 C   0  0  0  0  0  0  0  0  0  0  0  0
   48.8403    8.9228   17.6196 C   0  0  0  0  0  0  0  0  0  0  0  0
   51.8456    8.0742   15.4001 C   0  0  0  0  0  0  0  0  0  0  0  0
   49.6829    8.3910   16.5451 C   0  0  0  0  0  0  0  0  0  0  0  0
   51.0053    8.5976   16.4793 C   0  0  0  0  0  0  0  0  0  0  0  0
   47.6402    8.7374   17.7049 O   0  0  0  0  0  0  0  0  0  0  0  0
   53.0506    8.2355   15.3271 O   0  0  0  0  0  0  0  0  0  0  0  0
   49.5137    9.6375   18.5341 O   0  0  0  0  0  0  0  0  0  0  0  0
   51.1727    7.3737   14.4755 O   0  0  0  0  0  0  0  0  0  0  0  0
   50.8168    6.1831   16.4416 H   0  0  0  0  0  0  0  0  0  0  0  0
   49.1540    6.7887   16.5475 H   0  0  0  0  0  0  0  0  0  0  0  0
   52.1347    9.5887   17.5119 H   0  0  0  0  0  0  0  0  0  0  0  0
   50.8301    9.9824   16.3733 H   0  0  0  0  0  0  0  0  0  0  0  0
   49.8938    6.8065   14.2222 H   0  0  0  0  0  0  0  0  0  0  0  0
   49.5504    8.4440   14.7996 H   0  0  0  0  0  0  0  0  0  0  0  0
   53.0258    9.4237   15.2454 H   0  0  0  0  0  0  0  0  0  0  0  0
   53.0050    7.8499   16.0068 H   0  0  0  0  0  0  0  0  0  0  0  0
   51.2729    6.0150   19.0947 H   0  0  0  0  0  0  0  0  0  0  0  0
   46.5106    5.8472   20.4998 H   0  0  0  0  0  0  0  0  0  0  0  0
   52.6256    9.1607   13.0422 H   0  0  0  0  0  0  0  0  0  0  0  0
   51.0932    9.8447   13.5294 H   0  0  0  0  0  0  0  0  0  0  0  0
   53.9439    9.4427    8.1262 H   0  0  0  0  0  0  0  0  0  0  0  0
   51.1403   10.8304   20.9274 H   0  0  0  0  0  0  0  0  0  0  0  0
   46.4268    9.7564   22.0251 H   0  0  0  0  0  0  0  0  0  0  0  0
   53.3304   10.7589   10.5654 H   0  0  0  0  0  0  0  0  0  0  0  0
   52.3474   10.6802    9.0984 H   0  0  0  0  0  0  0  0  0  0  0  0
   49.8491    8.2556   12.1673 H   0  0  0  0  0  0  0  0  0  0  0  0
   51.2803    7.2684   11.8426 H   0  0  0  0  0  0  0  0  0  0  0  0
   53.1435    8.3424   10.9404 H   0  0  0  0  0  0  0  0  0  0  0  0
   52.2388    8.1253    9.4394 H   0  0  0  0  0  0  0  0  0  0  0  0
   50.3494    3.9514   20.1134 H   0  0  0  0  0  0  0  0  0  0  0  0
   47.9631    3.8675   20.8037 H   0  0  0  0  0  0  0  0  0  0  0  0
   47.7889   11.0878   23.6039 H   0  0  0  0  0  0  0  0  0  0  0  0
   50.1517   11.6163   23.0583 H   0  0  0  0  0  0  0  0  0  0  0  0
   49.6115    5.9901   15.2814 H   0  0  0  0  0  0  0  0  0  0  0  0
   50.3707    6.1026   16.8597 H   0  0  0  0  0  0  0  0  0  0  0  0
   47.9154    7.6302   14.5917 H   0  0  0  0  0  0  0  0  0  0  0  0
   47.3744    8.8807   15.6912 H   0  0  0  0  0  0  0  0  0  0  0  0
   51.8463    6.9768   15.1085 H   0  0  0  0  0  0  0  0  0  0  0  0
   51.4589    8.2388   16.2884 H   0  0  0  0  0  0  0  0  0  0  0  0
   48.9299    9.7879   13.9747 H   0  0  0  0  0  0  0  0  0  0  0  0
   49.6254    9.9860   15.5869 H   0  0  0  0  0  0  0  0  0  0  0  0
   47.7119    5.6446   18.2833 H   0  0  0  0  0  0  0  0  0  0  0  0
   51.2678    6.7430   21.5687 H   0  0  0  0  0  0  0  0  0  0  0  0
   51.8700   10.1135   14.7579 H   0  0  0  0  0  0  0  0  0  0  0  0
   51.1348   10.0781   13.1466 H   0  0  0  0  0  0  0  0  0  0  0  0
   55.6454   10.1735   10.8716 H   0  0  0  0  0  0  0  0  0  0  0  0
   46.4769   10.7511   18.7010 H   0  0  0  0  0  0  0  0  0  0  0  0
   50.1909   10.8250   21.9798 H   0  0  0  0  0  0  0  0  0  0  0  0
   55.0955    8.1368    9.8788 H   0  0  0  0  0  0  0  0  0  0  0  0
   53.7650    9.3084   10.1385 H   0  0  0  0  0  0  0  0  0  0  0  0
   53.5625    9.6821   13.1222 H   0  0  0  0  0  0  0  0  0  0  0  0
   53.3658    8.1802   14.0344 H   0  0  0  0  0  0  0  0  0  0  0  0
   54.3994    7.1428   12.2291 H   0  0  0  0  0  0  0  0  0  0  0  0
   53.3731    6.8152   10.8228 H   0  0  0  0  0  0  0  0  0  0  0  0
   48.3265    4.0071   20.0444 H   0  0  0  0  0  0  0  0  0  0  0  0
   50.1131    4.5581   21.6780 H   0  0  0  0  0  0  0  0  0  0  0  0
   48.1587   12.1657   22.3917 H   0  0  0  0  0  0  0  0  0  0  0  0
   46.2979   12.1419   20.7463 H   0  0  0  0  0  0  0  0  0  0  0  0
   49.1479    7.8178   15.7951 H   0  0  0  0  0  0  0  0  0  0  0  0
   51.5402    9.1678   17.2302 H   0  0  0  0  0  0  0  0  0  0  0  0
   48.8195    9.9094   19.1701 H   0  0  0  0  0  0  0  0  0  0  0  0
   51.8631    7.0943   13.8381 H   0  0  0  0  0  0  0  0  0  0  0  0
  2  1  2  0
  3  1  1  0
  4  6  1  0
  5  1  1  0
  6  3  2  0
  7  2  1  0
  8  7  2  0
  9 13  1  0
 10  5  1  0
 11  5  1  0
 12 10  1  0
 13 11  1  0
 14  3  1  0
 15  6  1  0
 16  9  1  0
 17 21  1  0
 18  7  1  0
 19  8  1  0
 20 22  1  0
 21 23  1  0
 22 16  1  0
 23 20  1  0
 24 14  2  0
 25 15  2  0
 26 19  2  0
 27 18  2  0
  9 12  1  0
  8  4  1  0
 24 25  1  0
 27 26  1  0
 29 28  2  0
 30 28  1  0
 31 33  1  0
 32 28  1  0
 33 30  2  0
 34 29  1  0
 35 34  2  0
 36 40  1  0
 37 32  1  0
 38 32  1  0
 39 37  1  0
 40 38  1  0
 41 30  1  0
 42 33  1  0
 43 36  1  0
 44 48  1  0
 45 34  1  0
 46 35  1  0
 47 49  1  0
 48 50  1  0
 49 43  1  0
 50 47  1  0
 51 41  2  0
 52 42  2  0
 53 46  2  0
 54 45  2  0
 36 39  1  0
 35 31  1  0
 51 52  1  0
 54 53  1  0
 56 58  1  0
 57 55  1  0
 58 57  2  0
 59 55  2  0
 60 56  2  0
 61 55  1  0
 62 56  1  0
 10 63  1  0
 10 64  1  0
 11 65  1  0
 11 66  1  0
 12 67  1  0
 12 68  1  0
 13 69  1  0
 13 70  1  0
 14 71  1  0
 15 72  1  0
 16 73  1  0
 16 74  1  0
 17 75  1  0
 18 76  1  0
 19 77  1  0
 21 78  1  0
 21 79  1  0
 22 80  1  0
 22 81  1  0
 23 82  1  0
 23 83  1  0
 24 84  1  0
 25 85  1  0
 26 86  1  0
 27 87  1  0
 37 88  1  0
 37 89  1  0
 38 90  1  0
 38 91  1  0
 39 92  1  0
 39 93  1  0
 40 94  1  0
 40 95  1  0
 41 96  1  0
 42 97  1  0
 43 98  1  0
 43 99  1  0
 44100  1  0
 45101  1  0
 46102  1  0
 48103  1  0
 48104  1  0
 49105  1  0
 49106  1  0
 50107  1  0
 50108  1  0
 51109  1  0
 52110  1  0
 53111  1  0
 54112  1  0
 57113  1  0
 58114  1  0
 61115  1  0
 62116  1  0
M  END
> <Uni-Dock RESULT> 
ENERGY=   -4.898  LOWER_BOUND=    7.229  UPPER_BOUND=   10.266
INTER + INTRA:          -4.898
INTER:                  -4.898
INTRA:                   0.000
UNBOUND:                 0.000

$$$$
