
     RDKit          3D

 65 66  0  0  0  0  0  0  0  0999 V2000
   48.3490    8.2063   14.2407 Cl  0  0  0  0  0  0  0  0  0  0  0  0
   45.4076    7.3224   12.4332 C   0  0  0  0  0  0  0  0  0  0  0  0
   45.1184    8.5928   11.9863 C   0  0  0  0  0  0  0  0  0  0  0  0
   45.9999    9.6318   12.2072 C   0  0  0  0  0  0  0  0  0  0  0  0
   46.6056    7.1056   13.1115 C   0  0  0  0  0  0  0  0  0  0  0  0
   47.5123    8.1146   13.3521 C   0  0  0  0  0  0  0  0  0  0  0  0
   43.8651    3.8857   12.4388 C   0  0  0  0  0  0  0  0  0  0  0  0
   47.1561    9.3740   12.8731 C   0  0  0  0  0  0  0  0  0  0  0  0
   44.5195    6.2913   12.2118 C   0  0  0  0  0  0  0  0  0  0  0  0
   45.7383   10.9113   11.7723 C   0  0  0  0  0  0  0  0  0  0  0  0
   44.8050    4.9953   12.6684 C   0  0  0  0  0  0  0  0  0  0  0  0
   44.5799   11.1855   11.1007 C   0  0  0  0  0  0  0  0  0  0  0  0
   46.8657    5.8225   13.5523 C   0  0  0  0  0  0  0  0  0  0  0  0
   43.9559    8.8872   11.3078 C   0  0  0  0  0  0  0  0  0  0  0  0
   43.6839   10.1722   10.8660 C   0  0  0  0  0  0  0  0  0  0  0  0
   48.8087    7.8819   14.0660 C   0  0  1  0  0  0  0  0  0  0  0  0
   48.6363    7.9223   15.5424 C   0  0  0  0  0  0  0  0  0  0  0  0
   45.9854    4.7689   13.3409 C   0  0  0  0  0  0  0  0  0  0  0  0
   44.5515    2.7789   11.9786 F   0  0  0  0  0  0  0  0  0  0  0  0
   42.9302    4.2199   11.4943 F   0  0  0  0  0  0  0  0  0  0  0  0
   43.2166    3.5624   13.6138 F   0  0  0  0  0  0  0  0  0  0  0  0
   46.8968   12.1887   12.0837 Cl  0  0  0  0  0  0  0  0  0  0  0  0
   49.8569    7.7022   16.3662 C   0  0  0  0  0  0  0  0  0  0  0  0
   50.9214    8.6087   16.2235 N   0  0  0  0  0  0  0  0  0  0  0  0
   42.2154   10.5274   10.0108 Cl  0  0  0  0  0  0  0  0  0  0  0  0
   49.5503    6.8509   13.5596 O   0  0  0  0  0  0  0  0  0  0  0  0
   50.7054    9.9203   16.6786 C   0  0  0  0  0  0  0  0  0  0  0  0
   51.9428    8.3785   15.2985 C   0  0  0  0  0  0  0  0  0  0  0  0
   51.8183   10.9135   16.4793 C   0  0  0  0  0  0  0  0  0  0  0  0
   52.7853    7.1576   15.6620 C   0  0  0  0  0  0  0  0  0  0  0  0
   51.4142   12.2816   17.0571 C   0  0  0  0  0  0  0  0  0  0  0  0
   53.4452    7.2856   16.9945 C   0  0  0  0  0  0  0  0  0  0  0  0
   52.5166   13.2849   16.8652 C   0  0  0  0  0  0  0  0  0  0  0  0
   54.2617    6.0171   17.2720 C   0  0  0  0  0  0  0  0  0  0  0  0
   49.4893    8.5416   14.9257 H   0  0  0  0  0  0  0  0  0  0  0  0
   47.8574   10.1775   13.0541 H   0  0  0  0  0  0  0  0  0  0  0  0
   43.5858    6.3905   11.6995 H   0  0  0  0  0  0  0  0  0  0  0  0
   44.3544   12.1829   10.7504 H   0  0  0  0  0  0  0  0  0  0  0  0
   47.7688    5.5690   14.0914 H   0  0  0  0  0  0  0  0  0  0  0  0
   43.2049    8.1476   11.0850 H   0  0  0  0  0  0  0  0  0  0  0  0
   49.4086    8.8138   13.8142 H   0  0  0  0  0  0  0  0  0  0  0  0
   47.8136    7.2147   15.8209 H   0  0  0  0  0  0  0  0  0  0  0  0
   48.2144    8.9247   15.8650 H   0  0  0  0  0  0  0  0  0  0  0  0
   46.2045    3.7643   13.6933 H   0  0  0  0  0  0  0  0  0  0  0  0
   49.5080    7.7866   17.4430 H   0  0  0  0  0  0  0  0  0  0  0  0
   50.1900    6.6393   16.3008 H   0  0  0  0  0  0  0  0  0  0  0  0
   50.0559    6.3848   14.2492 H   0  0  0  0  0  0  0  0  0  0  0  0
   49.7976   10.3838   16.1898 H   0  0  0  0  0  0  0  0  0  0  0  0
   50.4588    9.9427   17.7795 H   0  0  0  0  0  0  0  0  0  0  0  0
   51.7098    8.3302   14.2375 H   0  0  0  0  0  0  0  0  0  0  0  0
   52.6858    9.2307   15.4042 H   0  0  0  0  0  0  0  0  0  0  0  0
   52.7553   10.6237   16.9822 H   0  0  0  0  0  0  0  0  0  0  0  0
   52.0424   11.0915   15.4023 H   0  0  0  0  0  0  0  0  0  0  0  0
   52.2007    6.2171   15.5890 H   0  0  0  0  0  0  0  0  0  0  0  0
   53.6025    7.1349   14.8985 H   0  0  0  0  0  0  0  0  0  0  0  0
   50.4873   12.6538   16.5671 H   0  0  0  0  0  0  0  0  0  0  0  0
   51.2106   12.1852   18.1352 H   0  0  0  0  0  0  0  0  0  0  0  0
   54.1248    8.1570   17.0190 H   0  0  0  0  0  0  0  0  0  0  0  0
   52.7076    7.3460   17.8369 H   0  0  0  0  0  0  0  0  0  0  0  0
   52.1445   14.2977   16.5680 H   0  0  0  0  0  0  0  0  0  0  0  0
   53.0751   13.4079   17.8100 H   0  0  0  0  0  0  0  0  0  0  0  0
   53.1783   12.9351   16.0393 H   0  0  0  0  0  0  0  0  0  0  0  0
   53.7425    5.1792   16.7504 H   0  0  0  0  0  0  0  0  0  0  0  0
   54.2639    5.7997   18.3387 H   0  0  0  0  0  0  0  0  0  0  0  0
   55.2813    6.1044   16.8585 H   0  0  0  0  0  0  0  0  0  0  0  0
  3  2  2  0
  4  3  1  0
  5  2  1  0
  6  5  2  0
  7 11  1  0
  8  6  1  0
  9  2  1  0
 10  4  1  0
 11  9  2  0
 12 15  1  0
 13  5  1  0
 14  3  1  0
 15 14  2  0
 16  6  1  0
 17 16  1  0
 18 11  1  0
 19  7  1  0
 20  7  1  0
 21  7  1  0
 22 10  1  0
 23 17  1  0
 24 23  1  0
 25 15  1  0
 26 16  1  0
 27 24  1  0
 28 24  1  0
 29 27  1  0
 30 28  1  0
 31 29  1  0
 32 30  1  0
 33 31  1  0
 34 32  1  0
 18 13  2  0
  8  4  2  0
 10 12  2  0
  1 35  1  0
  8 36  1  0
  9 37  1  0
 12 38  1  0
 13 39  1  0
 14 40  1  0
 16 41  1  6
 17 42  1  0
 17 43  1  0
 18 44  1  0
 23 45  1  0
 23 46  1  0
 26 47  1  0
 27 48  1  0
 27 49  1  0
 28 50  1  0
 28 51  1  0
 29 52  1  0
 29 53  1  0
 30 54  1  0
 30 55  1  0
 31 56  1  0
 31 57  1  0
 32 58  1  0
 32 59  1  0
 33 60  1  0
 33 61  1  0
 33 62  1  0
 34 63  1  0
 34 64  1  0
 34 65  1  0
M  END
> <Uni-Dock RESULT> 
ENERGY=   -5.983  LOWER_BOUND=    0.000  UPPER_BOUND=    0.000
INTER + INTRA:          -5.983
INTER:                  -5.983
INTRA:                   0.000
UNBOUND:                 0.000

$$$$

     RDKit          3D

 65 66  0  0  0  0  0  0  0  0999 V2000
   48.4619    8.1489   14.0893 Cl  0  0  0  0  0  0  0  0  0  0  0  0
   45.4307    7.4756   12.3401 C   0  0  0  0  0  0  0  0  0  0  0  0
   45.4537    6.1102   12.5198 C   0  0  0  0  0  0  0  0  0  0  0  0
   46.4077    5.5248   13.3277 C   0  0  0  0  0  0  0  0  0  0  0  0
   46.3873    8.2545   12.9889 C   0  0  0  0  0  0  0  0  0  0  0  0
   47.3555    7.7100   13.8037 C   0  0  0  0  0  0  0  0  0  0  0  0
   43.4373   10.0689   10.4716 C   0  0  0  0  0  0  0  0  0  0  0  0
   47.3206    6.3234   13.9404 C   0  0  0  0  0  0  0  0  0  0  0  0
   44.4769    8.0515   11.5281 C   0  0  0  0  0  0  0  0  0  0  0  0
   46.4552    4.1636   13.5263 C   0  0  0  0  0  0  0  0  0  0  0  0
   44.4502    9.4415   11.3363 C   0  0  0  0  0  0  0  0  0  0  0  0
   45.5433    3.3479   12.9172 C   0  0  0  0  0  0  0  0  0  0  0  0
   46.3424    9.6201   12.7855 C   0  0  0  0  0  0  0  0  0  0  0  0
   44.5425    5.2729   11.9138 C   0  0  0  0  0  0  0  0  0  0  0  0
   44.5825    3.9014   12.1079 C   0  0  0  0  0  0  0  0  0  0  0  0
   48.3748    8.5456   14.5161 C   0  0  1  0  0  0  0  0  0  0  0  0
   49.5351    8.8590   13.6406 C   0  0  0  0  0  0  0  0  0  0  0  0
   45.3909   10.2217   11.9715 C   0  0  0  0  0  0  0  0  0  0  0  0
   42.8946   11.1680   11.1084 F   0  0  0  0  0  0  0  0  0  0  0  0
   42.4154    9.1977   10.1985 F   0  0  0  0  0  0  0  0  0  0  0  0
   44.0117   10.4701    9.2822 F   0  0  0  0  0  0  0  0  0  0  0  0
   47.6911    3.4797   14.5636 Cl  0  0  0  0  0  0  0  0  0  0  0  0
   50.6191    9.6884   14.2357 C   0  0  0  0  0  0  0  0  0  0  0  0
   51.2952    9.1830   15.3593 N   0  0  0  0  0  0  0  0  0  0  0  0
   43.4262    2.8594   11.3389 Cl  0  0  0  0  0  0  0  0  0  0  0  0
   47.8468    9.5818   15.2349 O   0  0  0  0  0  0  0  0  0  0  0  0
   52.1061    8.0532   15.1590 C   0  0  0  0  0  0  0  0  0  0  0  0
   50.8563    9.4737   16.6535 C   0  0  0  0  0  0  0  0  0  0  0  0
   52.7898    7.4699   16.3661 C   0  0  0  0  0  0  0  0  0  0  0  0
   51.0087   10.9544   16.9950 C   0  0  0  0  0  0  0  0  0  0  0  0
   53.6479    6.2607   15.9533 C   0  0  0  0  0  0  0  0  0  0  0  0
   52.4229   11.4244   16.9146 C   0  0  0  0  0  0  0  0  0  0  0  0
   54.3376    5.6668   17.1493 C   0  0  0  0  0  0  0  0  0  0  0  0
   52.4750   12.9159   17.2691 C   0  0  0  0  0  0  0  0  0  0  0  0
   49.6210    8.4122   14.7740 H   0  0  0  0  0  0  0  0  0  0  0  0
   48.0746    5.8801   14.5769 H   0  0  0  0  0  0  0  0  0  0  0  0
   43.7170    7.5120   11.0032 H   0  0  0  0  0  0  0  0  0  0  0  0
   45.5624    2.2765   13.0593 H   0  0  0  0  0  0  0  0  0  0  0  0
   47.0503   10.2962   13.2462 H   0  0  0  0  0  0  0  0  0  0  0  0
   43.7596    5.6307   11.2660 H   0  0  0  0  0  0  0  0  0  0  0  0
   48.7831    7.8334   15.3021 H   0  0  0  0  0  0  0  0  0  0  0  0
   49.1482    9.3023   12.6873 H   0  0  0  0  0  0  0  0  0  0  0  0
   50.0301    7.9036   13.2812 H   0  0  0  0  0  0  0  0  0  0  0  0
   45.3681   11.2980   11.8217 H   0  0  0  0  0  0  0  0  0  0  0  0
   51.3970    9.7937   13.4158 H   0  0  0  0  0  0  0  0  0  0  0  0
   50.2756   10.7400   14.3818 H   0  0  0  0  0  0  0  0  0  0  0  0
   48.4325   10.3598   15.2479 H   0  0  0  0  0  0  0  0  0  0  0  0
   51.5216    7.1999   14.7029 H   0  0  0  0  0  0  0  0  0  0  0  0
   52.9204    8.2549   14.4044 H   0  0  0  0  0  0  0  0  0  0  0  0
   49.8702    9.1477   16.9753 H   0  0  0  0  0  0  0  0  0  0  0  0
   51.5848    8.9793   17.3709 H   0  0  0  0  0  0  0  0  0  0  0  0
   53.4671    8.1800   16.8679 H   0  0  0  0  0  0  0  0  0  0  0  0
   52.0661    7.0865   17.1217 H   0  0  0  0  0  0  0  0  0  0  0  0
   50.3360   11.5898   16.3822 H   0  0  0  0  0  0  0  0  0  0  0  0
   50.7028   11.0348   18.0679 H   0  0  0  0  0  0  0  0  0  0  0  0
   53.0182    5.4832   15.4668 H   0  0  0  0  0  0  0  0  0  0  0  0
   54.4135    6.5775   15.2276 H   0  0  0  0  0  0  0  0  0  0  0  0
   53.0666   10.8695   17.6214 H   0  0  0  0  0  0  0  0  0  0  0  0
   52.8410   11.3581   15.8763 H   0  0  0  0  0  0  0  0  0  0  0  0
   54.3472    4.5478   17.1424 H   0  0  0  0  0  0  0  0  0  0  0  0
   55.3899    6.0010   17.1747 H   0  0  0  0  0  0  0  0  0  0  0  0
   53.7867    5.9737   18.0683 H   0  0  0  0  0  0  0  0  0  0  0  0
   51.5009   13.3566   16.9518 H   0  0  0  0  0  0  0  0  0  0  0  0
   53.2663   13.4068   16.7052 H   0  0  0  0  0  0  0  0  0  0  0  0
   52.5828   13.0603   18.3580 H   0  0  0  0  0  0  0  0  0  0  0  0
  3  2  2  0
  4  3  1  0
  5  2  1  0
  6  5  2  0
  7 11  1  0
  8  6  1  0
  9  2  1  0
 10  4  1  0
 11  9  2  0
 12 15  1  0
 13  5  1  0
 14  3  1  0
 15 14  2  0
 16  6  1  0
 17 16  1  0
 18 11  1  0
 19  7  1  0
 20  7  1  0
 21  7  1  0
 22 10  1  0
 23 17  1  0
 24 23  1  0
 25 15  1  0
 26 16  1  0
 27 24  1  0
 28 24  1  0
 29 27  1  0
 30 28  1  0
 31 29  1  0
 32 30  1  0
 33 31  1  0
 34 32  1  0
 18 13  2  0
  8  4  2  0
 10 12  2  0
  1 35  1  0
  8 36  1  0
  9 37  1  0
 12 38  1  0
 13 39  1  0
 14 40  1  0
 16 41  1  6
 17 42  1  0
 17 43  1  0
 18 44  1  0
 23 45  1  0
 23 46  1  0
 26 47  1  0
 27 48  1  0
 27 49  1  0
 28 50  1  0
 28 51  1  0
 29 52  1  0
 29 53  1  0
 30 54  1  0
 30 55  1  0
 31 56  1  0
 31 57  1  0
 32 58  1  0
 32 59  1  0
 33 60  1  0
 33 61  1  0
 33 62  1  0
 34 63  1  0
 34 64  1  0
 34 65  1  0
M  END
> <Uni-Dock RESULT> 
ENERGY=   -5.384  LOWER_BOUND=    2.666  UPPER_BOUND=    5.091
INTER + INTRA:          -5.384
INTER:                  -5.384
INTRA:                   0.000
UNBOUND:                 0.000

$$$$

     RDKit          3D

 65 66  0  0  0  0  0  0  0  0999 V2000
   48.2159    8.0715   12.7733 Cl  0  0  0  0  0  0  0  0  0  0  0  0
   46.9125    5.0598   14.1630 C   0  0  0  0  0  0  0  0  0  0  0  0
   46.1162    4.7308   13.0884 C   0  0  0  0  0  0  0  0  0  0  0  0
   46.1738    5.4659   11.9214 C   0  0  0  0  0  0  0  0  0  0  0  0
   47.7768    6.1473   14.0503 C   0  0  0  0  0  0  0  0  0  0  0  0
   47.8651    6.9062   12.9039 C   0  0  0  0  0  0  0  0  0  0  0  0
   47.5880    3.8761   17.6749 C   0  0  0  0  0  0  0  0  0  0  0  0
   47.0314    6.5180   11.8566 C   0  0  0  0  0  0  0  0  0  0  0  0
   46.8455    4.3227   15.3262 C   0  0  0  0  0  0  0  0  0  0  0  0
   45.3907    5.1608   10.8314 C   0  0  0  0  0  0  0  0  0  0  0  0
   47.6502    4.6548   16.4270 C   0  0  0  0  0  0  0  0  0  0  0  0
   44.5240    4.1051   10.8817 C   0  0  0  0  0  0  0  0  0  0  0  0
   48.5591    6.4564   15.1462 C   0  0  0  0  0  0  0  0  0  0  0  0
   45.2371    3.6703   13.1214 C   0  0  0  0  0  0  0  0  0  0  0  0
   44.4448    3.3554   12.0289 C   0  0  0  0  0  0  0  0  0  0  0  0
   48.8051    8.0654   12.7732 C   0  0  1  0  0  0  0  0  0  0  0  0
   48.2234    9.3096   13.3431 C   0  0  0  0  0  0  0  0  0  0  0  0
   48.5077    5.7281   16.3280 C   0  0  0  0  0  0  0  0  0  0  0  0
   48.8668    3.5951   18.1150 F   0  0  0  0  0  0  0  0  0  0  0  0
   46.9422    2.6835   17.4791 F   0  0  0  0  0  0  0  0  0  0  0  0
   46.9192    4.5915   18.6477 F   0  0  0  0  0  0  0  0  0  0  0  0
   45.5087    6.1322    9.3777 Cl  0  0  0  0  0  0  0  0  0  0  0  0
   49.0655   10.5357   13.2749 C   0  0  0  0  0  0  0  0  0  0  0  0
   49.4439   11.0064   12.0059 N   0  0  0  0  0  0  0  0  0  0  0  0
   43.3431    2.0149   12.0851 Cl  0  0  0  0  0  0  0  0  0  0  0  0
   50.0988    7.7787   13.1102 O   0  0  0  0  0  0  0  0  0  0  0  0
   48.4233   11.5171   11.1864 C   0  0  0  0  0  0  0  0  0  0  0  0
   50.6376   10.5902   11.4112 C   0  0  0  0  0  0  0  0  0  0  0  0
   48.8084   11.9716    9.8044 C   0  0  0  0  0  0  0  0  0  0  0  0
   51.8649   11.0916   12.1694 C   0  0  0  0  0  0  0  0  0  0  0  0
   47.5738   12.5187    9.0660 C   0  0  0  0  0  0  0  0  0  0  0  0
   51.9296   12.5807   12.2459 C   0  0  0  0  0  0  0  0  0  0  0  0
   47.9429   12.9768    7.6829 C   0  0  0  0  0  0  0  0  0  0  0  0
   53.1873   12.9871   13.0242 C   0  0  0  0  0  0  0  0  0  0  0  0
   48.7298    9.2239   12.2351 H   0  0  0  0  0  0  0  0  0  0  0  0
   47.0884    7.1040   10.9491 H   0  0  0  0  0  0  0  0  0  0  0  0
   46.2056    3.4791   15.4772 H   0  0  0  0  0  0  0  0  0  0  0  0
   43.8999    3.8479   10.0374 H   0  0  0  0  0  0  0  0  0  0  0  0
   49.2520    7.2872   15.1452 H   0  0  0  0  0  0  0  0  0  0  0  0
   45.1180    3.0355   13.9836 H   0  0  0  0  0  0  0  0  0  0  0  0
   48.8363    8.2423   11.6510 H   0  0  0  0  0  0  0  0  0  0  0  0
   47.8864    9.0943   14.3896 H   0  0  0  0  0  0  0  0  0  0  0  0
   47.2491    9.5666   12.8219 H   0  0  0  0  0  0  0  0  0  0  0  0
   49.1301    5.9833   17.1817 H   0  0  0  0  0  0  0  0  0  0  0  0
   48.4360   11.3552   13.7446 H   0  0  0  0  0  0  0  0  0  0  0  0
   49.9295   10.4598   13.9769 H   0  0  0  0  0  0  0  0  0  0  0  0
   50.5534    8.5393   13.5142 H   0  0  0  0  0  0  0  0  0  0  0  0
   47.5968   10.7610   11.0349 H   0  0  0  0  0  0  0  0  0  0  0  0
   47.9012   12.3928   11.6701 H   0  0  0  0  0  0  0  0  0  0  0  0
   50.7861    9.5390   11.1762 H   0  0  0  0  0  0  0  0  0  0  0  0
   50.7222   11.1346   10.4182 H   0  0  0  0  0  0  0  0  0  0  0  0
   49.5583   12.7793    9.8053 H   0  0  0  0  0  0  0  0  0  0  0  0
   49.1959   11.1380    9.1746 H   0  0  0  0  0  0  0  0  0  0  0  0
   51.9437   10.6312   13.1761 H   0  0  0  0  0  0  0  0  0  0  0  0
   52.7380   10.7623   11.5525 H   0  0  0  0  0  0  0  0  0  0  0  0
   46.7828   11.7394    8.9976 H   0  0  0  0  0  0  0  0  0  0  0  0
   47.1572   13.3746    9.6200 H   0  0  0  0  0  0  0  0  0  0  0  0
   51.9773   13.0284   11.2365 H   0  0  0  0  0  0  0  0  0  0  0  0
   51.0756   13.0202   12.8245 H   0  0  0  0  0  0  0  0  0  0  0  0
   47.1801   12.7059    6.9102 H   0  0  0  0  0  0  0  0  0  0  0  0
   48.0422   14.0767    7.6705 H   0  0  0  0  0  0  0  0  0  0  0  0
   48.8916   12.4752    7.3817 H   0  0  0  0  0  0  0  0  0  0  0  0
   53.3900   12.1717   13.7576 H   0  0  0  0  0  0  0  0  0  0  0  0
   53.0020   13.9034   13.5821 H   0  0  0  0  0  0  0  0  0  0  0  0
   54.0583   13.0731   12.3517 H   0  0  0  0  0  0  0  0  0  0  0  0
  3  2  2  0
  4  3  1  0
  5  2  1  0
  6  5  2  0
  7 11  1  0
  8  6  1  0
  9  2  1  0
 10  4  1  0
 11  9  2  0
 12 15  1  0
 13  5  1  0
 14  3  1  0
 15 14  2  0
 16  6  1  0
 17 16  1  0
 18 11  1  0
 19  7  1  0
 20  7  1  0
 21  7  1  0
 22 10  1  0
 23 17  1  0
 24 23  1  0
 25 15  1  0
 26 16  1  0
 27 24  1  0
 28 24  1  0
 29 27  1  0
 30 28  1  0
 31 29  1  0
 32 30  1  0
 33 31  1  0
 34 32  1  0
 18 13  2  0
  8  4  2  0
 10 12  2  0
  1 35  1  0
  8 36  1  0
  9 37  1  0
 12 38  1  0
 13 39  1  0
 14 40  1  0
 16 41  1  6
 17 42  1  0
 17 43  1  0
 18 44  1  0
 23 45  1  0
 23 46  1  0
 26 47  1  0
 27 48  1  0
 27 49  1  0
 28 50  1  0
 28 51  1  0
 29 52  1  0
 29 53  1  0
 30 54  1  0
 30 55  1  0
 31 56  1  0
 31 57  1  0
 32 58  1  0
 32 59  1  0
 33 60  1  0
 33 61  1  0
 33 62  1  0
 34 63  1  0
 34 64  1  0
 34 65  1  0
M  END
> <Uni-Dock RESULT> 
ENERGY=   -5.234  LOWER_BOUND=    3.689  UPPER_BOUND=    5.707
INTER + INTRA:          -5.234
INTER:                  -5.234
INTRA:                   0.000
UNBOUND:                 0.000

$$$$

     RDKit          3D

 65 66  0  0  0  0  0  0  0  0999 V2000
   48.8655    9.6564   18.2189 Cl  0  0  0  0  0  0  0  0  0  0  0  0
   47.9749    6.4027   19.3683 C   0  0  0  0  0  0  0  0  0  0  0  0
   47.8052    6.7515   20.6899 C   0  0  0  0  0  0  0  0  0  0  0  0
   47.8678    8.0741   21.0801 C   0  0  0  0  0  0  0  0  0  0  0  0
   48.2105    7.4090   18.4331 C   0  0  0  0  0  0  0  0  0  0  0  0
   48.2799    8.7402   18.7808 C   0  0  0  0  0  0  0  0  0  0  0  0
   48.0306    3.3054   17.2249 C   0  0  0  0  0  0  0  0  0  0  0  0
   48.0995    9.0216   20.1339 C   0  0  0  0  0  0  0  0  0  0  0  0
   47.9150    5.0789   18.9879 C   0  0  0  0  0  0  0  0  0  0  0  0
   47.7017    8.4527   22.3929 C   0  0  0  0  0  0  0  0  0  0  0  0
   48.0919    4.7154   17.6440 C   0  0  0  0  0  0  0  0  0  0  0  0
   47.4674    7.5111   23.3554 C   0  0  0  0  0  0  0  0  0  0  0  0
   48.3820    7.0283   17.1163 C   0  0  0  0  0  0  0  0  0  0  0  0
   47.5681    5.8158   21.6732 C   0  0  0  0  0  0  0  0  0  0  0  0
   47.3996    6.1875   22.9975 C   0  0  0  0  0  0  0  0  0  0  0  0
   48.5160    9.8260   17.7759 C   0  0  1  0  0  0  0  0  0  0  0  0
   49.9647   10.0045   17.4923 C   0  0  0  0  0  0  0  0  0  0  0  0
   48.3262    5.7008   16.7107 C   0  0  0  0  0  0  0  0  0  0  0  0
   47.2426    3.1867   16.0965 F   0  0  0  0  0  0  0  0  0  0  0  0
   47.4768    2.5242   18.2051 F   0  0  0  0  0  0  0  0  0  0  0  0
   49.2990    2.8381   16.9450 F   0  0  0  0  0  0  0  0  0  0  0  0
   47.7927   10.1483   22.8263 Cl  0  0  0  0  0  0  0  0  0  0  0  0
   50.3296   11.0570   16.5043 C   0  0  0  0  0  0  0  0  0  0  0  0
   49.9759   12.3858   16.7949 N   0  0  0  0  0  0  0  0  0  0  0  0
   47.0998    4.9970   24.2250 Cl  0  0  0  0  0  0  0  0  0  0  0  0
   47.6770    9.7836   16.6972 O   0  0  0  0  0  0  0  0  0  0  0  0
   50.6373   12.9992   17.8720 C   0  0  0  0  0  0  0  0  0  0  0  0
   48.7561   12.9152   16.3664 C   0  0  0  0  0  0  0  0  0  0  0  0
   50.2260   14.4025   18.2275 C   0  0  0  0  0  0  0  0  0  0  0  0
   48.6802   13.0307   14.8454 C   0  0  0  0  0  0  0  0  0  0  0  0
   51.0690   14.9161   19.4083 C   0  0  0  0  0  0  0  0  0  0  0  0
   49.7436   13.9107   14.2779 C   0  0  0  0  0  0  0  0  0  0  0  0
   50.6694   16.3178   19.7752 C   0  0  0  0  0  0  0  0  0  0  0  0
   49.5889   13.9620   12.7527 C   0  0  0  0  0  0  0  0  0  0  0  0
   49.1949   10.9106   17.7714 H   0  0  0  0  0  0  0  0  0  0  0  0
   48.1513   10.0625   20.4235 H   0  0  0  0  0  0  0  0  0  0  0  0
   47.7380    4.2608   19.6539 H   0  0  0  0  0  0  0  0  0  0  0  0
   47.3341    7.7863   24.3922 H   0  0  0  0  0  0  0  0  0  0  0  0
   48.5744    7.7444   16.3285 H   0  0  0  0  0  0  0  0  0  0  0  0
   47.5007    4.7596   21.4719 H   0  0  0  0  0  0  0  0  0  0  0  0
   48.2084   10.7645   18.3384 H   0  0  0  0  0  0  0  0  0  0  0  0
   50.3955    9.0079   17.2163 H   0  0  0  0  0  0  0  0  0  0  0  0
   50.5269   10.2572   18.4446 H   0  0  0  0  0  0  0  0  0  0  0  0
   48.4626    5.4170   15.6704 H   0  0  0  0  0  0  0  0  0  0  0  0
   51.4632   11.0332   16.4495 H   0  0  0  0  0  0  0  0  0  0  0  0
   50.0297   10.7512   15.4739 H   0  0  0  0  0  0  0  0  0  0  0  0
   48.1088   10.0903   15.8800 H   0  0  0  0  0  0  0  0  0  0  0  0
   50.5203   12.4012   18.8242 H   0  0  0  0  0  0  0  0  0  0  0  0
   51.7536   13.0312   17.7102 H   0  0  0  0  0  0  0  0  0  0  0  0
   47.8245   12.4834   16.7240 H   0  0  0  0  0  0  0  0  0  0  0  0
   48.7301   14.0013   16.6974 H   0  0  0  0  0  0  0  0  0  0  0  0
   50.3691   15.1197   17.4029 H   0  0  0  0  0  0  0  0  0  0  0  0
   49.1646   14.4635   18.5612 H   0  0  0  0  0  0  0  0  0  0  0  0
   48.6762   12.0345   14.3563 H   0  0  0  0  0  0  0  0  0  0  0  0
   47.7026   13.5356   14.6441 H   0  0  0  0  0  0  0  0  0  0  0  0
   50.9453   14.2536   20.2935 H   0  0  0  0  0  0  0  0  0  0  0  0
   52.1354   14.9156   19.1328 H   0  0  0  0  0  0  0  0  0  0  0  0
   49.6635   14.9384   14.6770 H   0  0  0  0  0  0  0  0  0  0  0  0
   50.7753   13.5073   14.4515 H   0  0  0  0  0  0  0  0  0  0  0  0
   50.6340   16.4914   20.8801 H   0  0  0  0  0  0  0  0  0  0  0  0
   51.3990   17.0333   19.3566 H   0  0  0  0  0  0  0  0  0  0  0  0
   49.6405   16.5080   19.3911 H   0  0  0  0  0  0  0  0  0  0  0  0
   49.1551   12.9834   12.4398 H   0  0  0  0  0  0  0  0  0  0  0  0
   50.5647   14.0639   12.2811 H   0  0  0  0  0  0  0  0  0  0  0  0
   48.8910   14.7626   12.4524 H   0  0  0  0  0  0  0  0  0  0  0  0
  3  2  2  0
  4  3  1  0
  5  2  1  0
  6  5  2  0
  7 11  1  0
  8  6  1  0
  9  2  1  0
 10  4  1  0
 11  9  2  0
 12 15  1  0
 13  5  1  0
 14  3  1  0
 15 14  2  0
 16  6  1  0
 17 16  1  0
 18 11  1  0
 19  7  1  0
 20  7  1  0
 21  7  1  0
 22 10  1  0
 23 17  1  0
 24 23  1  0
 25 15  1  0
 26 16  1  0
 27 24  1  0
 28 24  1  0
 29 27  1  0
 30 28  1  0
 31 29  1  0
 32 30  1  0
 33 31  1  0
 34 32  1  0
 18 13  2  0
  8  4  2  0
 10 12  2  0
  1 35  1  0
  8 36  1  0
  9 37  1  0
 12 38  1  0
 13 39  1  0
 14 40  1  0
 16 41  1  6
 17 42  1  0
 17 43  1  0
 18 44  1  0
 23 45  1  0
 23 46  1  0
 26 47  1  0
 27 48  1  0
 27 49  1  0
 28 50  1  0
 28 51  1  0
 29 52  1  0
 29 53  1  0
 30 54  1  0
 30 55  1  0
 31 56  1  0
 31 57  1  0
 32 58  1  0
 32 59  1  0
 33 60  1  0
 33 61  1  0
 33 62  1  0
 34 63  1  0
 34 64  1  0
 34 65  1  0
M  END
> <Uni-Dock RESULT> 
ENERGY=   -5.106  LOWER_BOUND=    5.017  UPPER_BOUND=    7.750
INTER + INTRA:          -5.106
INTER:                  -5.106
INTRA:                   0.000
UNBOUND:                 0.000

$$$$

     RDKit          3D

 65 66  0  0  0  0  0  0  0  0999 V2000
   48.5284    9.1180   13.2563 Cl  0  0  0  0  0  0  0  0  0  0  0  0
   45.2657    8.3784   12.0281 C   0  0  0  0  0  0  0  0  0  0  0  0
   45.2690    7.0480   12.3844 C   0  0  0  0  0  0  0  0  0  0  0  0
   46.3055    6.5241   13.1306 C   0  0  0  0  0  0  0  0  0  0  0  0
   46.3269    9.1852   12.4348 C   0  0  0  0  0  0  0  0  0  0  0  0
   47.3797    8.7021   13.1805 C   0  0  0  0  0  0  0  0  0  0  0  0
   43.1193   10.8070   10.1082 C   0  0  0  0  0  0  0  0  0  0  0  0
   47.3191    7.3480   13.5051 C   0  0  0  0  0  0  0  0  0  0  0  0
   44.2285    8.8924   11.2791 C   0  0  0  0  0  0  0  0  0  0  0  0
   46.3358    5.1990   13.5018 C   0  0  0  0  0  0  0  0  0  0  0  0
   44.2206   10.2459   10.9081 C   0  0  0  0  0  0  0  0  0  0  0  0
   45.3231    4.3585   13.1330 C   0  0  0  0  0  0  0  0  0  0  0  0
   46.2986   10.5140   12.0581 C   0  0  0  0  0  0  0  0  0  0  0  0
   44.2566    6.1866   12.0216 C   0  0  0  0  0  0  0  0  0  0  0  0
   44.2786    4.8510   12.3906 C   0  0  0  0  0  0  0  0  0  0  0  0
   48.5136    9.5700   13.6338 C   0  0  1  0  0  0  0  0  0  0  0  0
   49.5523    9.7100   12.5790 C   0  0  0  0  0  0  0  0  0  0  0  0
   45.2643   11.0530   11.3034 C   0  0  0  0  0  0  0  0  0  0  0  0
   42.7050   12.0046   10.6580 F   0  0  0  0  0  0  0  0  0  0  0  0
   42.0421    9.9603   10.0914 F   0  0  0  0  0  0  0  0  0  0  0  0
   43.5377   11.0230    8.8106 F   0  0  0  0  0  0  0  0  0  0  0  0
   47.6796    4.5928   14.4492 Cl  0  0  0  0  0  0  0  0  0  0  0  0
   50.7339   10.5536   12.9095 C   0  0  0  0  0  0  0  0  0  0  0  0
   51.5411   10.1633   13.9917 N   0  0  0  0  0  0  0  0  0  0  0  0
   42.9947    3.7782   11.9273 Cl  0  0  0  0  0  0  0  0  0  0  0  0
   48.1230   10.7151   14.2706 O   0  0  0  0  0  0  0  0  0  0  0  0
   52.2799    8.9780   13.8394 C   0  0  0  0  0  0  0  0  0  0  0  0
   51.2937   10.6393   15.2817 C   0  0  0  0  0  0  0  0  0  0  0  0
   53.1037    8.5209   15.0129 C   0  0  0  0  0  0  0  0  0  0  0  0
   51.5393   12.1421   15.3986 C   0  0  0  0  0  0  0  0  0  0  0  0
   53.8575    7.2273   14.6564 C   0  0  0  0  0  0  0  0  0  0  0  0
   52.9435   12.5264   15.0703 C   0  0  0  0  0  0  0  0  0  0  0  0
   54.6854    6.7580   15.8197 C   0  0  0  0  0  0  0  0  0  0  0  0
   53.0918   14.0466   15.2118 C   0  0  0  0  0  0  0  0  0  0  0  0
   49.7785    9.4086   13.7407 H   0  0  0  0  0  0  0  0  0  0  0  0
   48.1386    6.9528   14.0902 H   0  0  0  0  0  0  0  0  0  0  0  0
   43.3867    8.3288   10.9360 H   0  0  0  0  0  0  0  0  0  0  0  0
   45.3269    3.3147   13.4136 H   0  0  0  0  0  0  0  0  0  0  0  0
   47.0845   11.2073   12.3267 H   0  0  0  0  0  0  0  0  0  0  0  0
   43.4042    6.4970   11.4406 H   0  0  0  0  0  0  0  0  0  0  0  0
   49.0027    8.9451   14.4475 H   0  0  0  0  0  0  0  0  0  0  0  0
   49.0526   10.0461   11.6344 H   0  0  0  0  0  0  0  0  0  0  0  0
   49.9621    8.6928   12.2887 H   0  0  0  0  0  0  0  0  0  0  0  0
   45.2559   12.1010   11.0152 H   0  0  0  0  0  0  0  0  0  0  0  0
   51.3949   10.5136   11.9876 H   0  0  0  0  0  0  0  0  0  0  0  0
   50.4478   11.6310   12.9574 H   0  0  0  0  0  0  0  0  0  0  0  0
   48.7297   11.4580   14.1019 H   0  0  0  0  0  0  0  0  0  0  0  0
   51.6111    8.1035   13.5827 H   0  0  0  0  0  0  0  0  0  0  0  0
   52.9891    9.0400   12.9639 H   0  0  0  0  0  0  0  0  0  0  0  0
   50.3511   10.4072   15.7715 H   0  0  0  0  0  0  0  0  0  0  0  0
   52.0974   10.2052   15.9565 H   0  0  0  0  0  0  0  0  0  0  0  0
   53.8661    9.2547   15.3214 H   0  0  0  0  0  0  0  0  0  0  0  0
   52.4785    8.2744   15.9019 H   0  0  0  0  0  0  0  0  0  0  0  0
   50.8097   12.7265   14.8004 H   0  0  0  0  0  0  0  0  0  0  0  0
   51.3863   12.3747   16.4820 H   0  0  0  0  0  0  0  0  0  0  0  0
   53.1422    6.4262   14.3657 H   0  0  0  0  0  0  0  0  0  0  0  0
   54.5260    7.4095   13.8003 H   0  0  0  0  0  0  0  0  0  0  0  0
   53.6598   12.0353   15.7540 H   0  0  0  0  0  0  0  0  0  0  0  0
   53.2127   12.3066   14.0043 H   0  0  0  0  0  0  0  0  0  0  0  0
   54.6577    5.6483   15.9616 H   0  0  0  0  0  0  0  0  0  0  0  0
   55.7414    7.0395   15.6612 H   0  0  0  0  0  0  0  0  0  0  0  0
   54.2760    7.2075   16.7538 H   0  0  0  0  0  0  0  0  0  0  0  0
   52.0982   14.4912   14.9696 H   0  0  0  0  0  0  0  0  0  0  0  0
   53.8136   14.4208   14.4879 H   0  0  0  0  0  0  0  0  0  0  0  0
   53.3528   14.3240   16.2477 H   0  0  0  0  0  0  0  0  0  0  0  0
  3  2  2  0
  4  3  1  0
  5  2  1  0
  6  5  2  0
  7 11  1  0
  8  6  1  0
  9  2  1  0
 10  4  1  0
 11  9  2  0
 12 15  1  0
 13  5  1  0
 14  3  1  0
 15 14  2  0
 16  6  1  0
 17 16  1  0
 18 11  1  0
 19  7  1  0
 20  7  1  0
 21  7  1  0
 22 10  1  0
 23 17  1  0
 24 23  1  0
 25 15  1  0
 26 16  1  0
 27 24  1  0
 28 24  1  0
 29 27  1  0
 30 28  1  0
 31 29  1  0
 32 30  1  0
 33 31  1  0
 34 32  1  0
 18 13  2  0
  8  4  2  0
 10 12  2  0
  1 35  1  0
  8 36  1  0
  9 37  1  0
 12 38  1  0
 13 39  1  0
 14 40  1  0
 16 41  1  6
 17 42  1  0
 17 43  1  0
 18 44  1  0
 23 45  1  0
 23 46  1  0
 26 47  1  0
 27 48  1  0
 27 49  1  0
 28 50  1  0
 28 51  1  0
 29 52  1  0
 29 53  1  0
 30 54  1  0
 30 55  1  0
 31 56  1  0
 31 57  1  0
 32 58  1  0
 32 59  1  0
 33 60  1  0
 33 61  1  0
 33 62  1  0
 34 63  1  0
 34 64  1  0
 34 65  1  0
M  END
> <Uni-Dock RESULT> 
ENERGY=   -4.968  LOWER_BOUND=    2.919  UPPER_BOUND=    5.242
INTER + INTRA:          -4.968
INTER:                  -4.968
INTRA:                   0.000
UNBOUND:                 0.000

$$$$

     RDKit          3D

 65 66  0  0  0  0  0  0  0  0999 V2000
   44.2032   10.2564   10.8273 Cl  0  0  0  0  0  0  0  0  0  0  0  0
   45.7051    7.4018   12.3428 C   0  0  0  0  0  0  0  0  0  0  0  0
   46.8140    8.0569   12.8310 C   0  0  0  0  0  0  0  0  0  0  0  0
   46.9156    9.4303   12.7368 C   0  0  0  0  0  0  0  0  0  0  0  0
   44.6884    8.1506   11.7528 C   0  0  0  0  0  0  0  0  0  0  0  0
   44.7505    9.5222   11.6395 C   0  0  0  0  0  0  0  0  0  0  0  0
   44.3796    3.8894   12.0321 C   0  0  0  0  0  0  0  0  0  0  0  0
   45.8999   10.1196   12.1537 C   0  0  0  0  0  0  0  0  0  0  0  0
   45.6138    6.0294   12.4372 C   0  0  0  0  0  0  0  0  0  0  0  0
   48.0111   10.1122   13.2158 C   0  0  0  0  0  0  0  0  0  0  0  0
   44.4893    5.3545   11.9377 C   0  0  0  0  0  0  0  0  0  0  0  0
   49.0400    9.4325   13.8052 C   0  0  0  0  0  0  0  0  0  0  0  0
   43.5912    7.4656   11.2677 C   0  0  0  0  0  0  0  0  0  0  0  0
   47.8602    7.3879   13.4280 C   0  0  0  0  0  0  0  0  0  0  0  0
   48.9671    8.0659   13.9133 C   0  0  0  0  0  0  0  0  0  0  0  0
   43.6520   10.3319   11.0213 C   0  0  1  0  0  0  0  0  0  0  0  0
   43.7728   10.3788    9.5400 C   0  0  0  0  0  0  0  0  0  0  0  0
   43.4783    6.0836   11.3517 C   0  0  0  0  0  0  0  0  0  0  0  0
   43.1224    3.5428   12.4874 F   0  0  0  0  0  0  0  0  0  0  0  0
   45.2977    3.3829   12.9143 F   0  0  0  0  0  0  0  0  0  0  0  0
   44.5883    3.3173   10.7933 F   0  0  0  0  0  0  0  0  0  0  0  0
   48.0821   11.8568   13.0664 Cl  0  0  0  0  0  0  0  0  0  0  0  0
   42.7348   11.1547    8.8069 C   0  0  0  0  0  0  0  0  0  0  0  0
   42.6206   12.5281    9.0824 N   0  0  0  0  0  0  0  0  0  0  0  0
   50.2768    7.2091   14.6648 Cl  0  0  0  0  0  0  0  0  0  0  0  0
   42.4100   10.0732   11.5310 O   0  0  0  0  0  0  0  0  0  0  0  0
   43.6881   13.3485    8.6809 C   0  0  0  0  0  0  0  0  0  0  0  0
   41.7523   12.9929   10.0735 C   0  0  0  0  0  0  0  0  0  0  0  0
   43.6018   14.8119    9.0213 C   0  0  0  0  0  0  0  0  0  0  0  0
   40.2872   12.7523    9.7154 C   0  0  0  0  0  0  0  0  0  0  0  0
   44.8402   15.5521    8.4855 C   0  0  0  0  0  0  0  0  0  0  0  0
   39.8820   13.4301    8.4491 C   0  0  0  0  0  0  0  0  0  0  0  0
   44.7683   17.0160    8.8181 C   0  0  0  0  0  0  0  0  0  0  0  0
   38.4035   13.1294    8.1721 C   0  0  0  0  0  0  0  0  0  0  0  0
   43.6161   11.3562   10.2552 H   0  0  0  0  0  0  0  0  0  0  0  0
   45.9643   11.1964   12.0724 H   0  0  0  0  0  0  0  0  0  0  0  0
   46.3567    5.3979   12.8771 H   0  0  0  0  0  0  0  0  0  0  0  0
   49.9095    9.9479   14.1881 H   0  0  0  0  0  0  0  0  0  0  0  0
   42.7609    7.9688   10.7905 H   0  0  0  0  0  0  0  0  0  0  0  0
   47.8769    6.3177   13.5503 H   0  0  0  0  0  0  0  0  0  0  0  0
   43.8876   11.3879   11.3693 H   0  0  0  0  0  0  0  0  0  0  0  0
   43.8528    9.3282    9.1592 H   0  0  0  0  0  0  0  0  0  0  0  0
   44.7716   10.8237    9.2375 H   0  0  0  0  0  0  0  0  0  0  0  0
   42.6082    5.5588   10.9658 H   0  0  0  0  0  0  0  0  0  0  0  0
   43.0199   11.0716    7.7114 H   0  0  0  0  0  0  0  0  0  0  0  0
   41.7512   10.6291    8.8430 H   0  0  0  0  0  0  0  0  0  0  0  0
   41.7089   10.1620   10.8608 H   0  0  0  0  0  0  0  0  0  0  0  0
   44.6688   12.9954    9.1186 H   0  0  0  0  0  0  0  0  0  0  0  0
   43.8566   13.2954    7.5665 H   0  0  0  0  0  0  0  0  0  0  0  0
   41.9052   12.6958   11.1082 H   0  0  0  0  0  0  0  0  0  0  0  0
   41.8230   14.1263   10.0730 H   0  0  0  0  0  0  0  0  0  0  0  0
   42.7225   15.3097    8.5811 H   0  0  0  0  0  0  0  0  0  0  0  0
   43.5900   14.9934   10.1208 H   0  0  0  0  0  0  0  0  0  0  0  0
   40.0413   11.6703    9.6915 H   0  0  0  0  0  0  0  0  0  0  0  0
   39.7068   13.2363   10.5401 H   0  0  0  0  0  0  0  0  0  0  0  0
   45.7701   15.1208    8.9180 H   0  0  0  0  0  0  0  0  0  0  0  0
   44.8950   15.4428    7.3909 H   0  0  0  0  0  0  0  0  0  0  0  0
   40.0127   14.5250    8.5253 H   0  0  0  0  0  0  0  0  0  0  0  0
   40.4308   13.0360    7.5543 H   0  0  0  0  0  0  0  0  0  0  0  0
   45.7516   17.4447    9.1371 H   0  0  0  0  0  0  0  0  0  0  0  0
   44.4393   17.5828    7.9292 H   0  0  0  0  0  0  0  0  0  0  0  0
   44.0692   17.1537    9.6752 H   0  0  0  0  0  0  0  0  0  0  0  0
   38.1926   12.1237    8.6054 H   0  0  0  0  0  0  0  0  0  0  0  0
   38.2272   13.0775    7.0991 H   0  0  0  0  0  0  0  0  0  0  0  0
   37.7498   13.8659    8.6705 H   0  0  0  0  0  0  0  0  0  0  0  0
  3  2  2  0
  4  3  1  0
  5  2  1  0
  6  5  2  0
  7 11  1  0
  8  6  1  0
  9  2  1  0
 10  4  1  0
 11  9  2  0
 12 15  1  0
 13  5  1  0
 14  3  1  0
 15 14  2  0
 16  6  1  0
 17 16  1  0
 18 11  1  0
 19  7  1  0
 20  7  1  0
 21  7  1  0
 22 10  1  0
 23 17  1  0
 24 23  1  0
 25 15  1  0
 26 16  1  0
 27 24  1  0
 28 24  1  0
 29 27  1  0
 30 28  1  0
 31 29  1  0
 32 30  1  0
 33 31  1  0
 34 32  1  0
 18 13  2  0
  8  4  2  0
 10 12  2  0
  1 35  1  0
  8 36  1  0
  9 37  1  0
 12 38  1  0
 13 39  1  0
 14 40  1  0
 16 41  1  6
 17 42  1  0
 17 43  1  0
 18 44  1  0
 23 45  1  0
 23 46  1  0
 26 47  1  0
 27 48  1  0
 27 49  1  0
 28 50  1  0
 28 51  1  0
 29 52  1  0
 29 53  1  0
 30 54  1  0
 30 55  1  0
 31 56  1  0
 31 57  1  0
 32 58  1  0
 32 59  1  0
 33 60  1  0
 33 61  1  0
 33 62  1  0
 34 63  1  0
 34 64  1  0
 34 65  1  0
M  END
> <Uni-Dock RESULT> 
ENERGY=   -4.949  LOWER_BOUND=    3.602  UPPER_BOUND=    8.276
INTER + INTRA:          -4.949
INTER:                  -4.949
INTRA:                   0.000
UNBOUND:                 0.000

$$$$

     RDKit          3D

 65 66  0  0  0  0  0  0  0  0999 V2000
   48.8942    7.8573   12.9299 Cl  0  0  0  0  0  0  0  0  0  0  0  0
   46.8156    5.1344   13.9127 C   0  0  0  0  0  0  0  0  0  0  0  0
   47.3965    4.9396   15.1463 C   0  0  0  0  0  0  0  0  0  0  0  0
   48.3511    5.8177   15.6188 C   0  0  0  0  0  0  0  0  0  0  0  0
   47.2089    6.2336   13.1513 C   0  0  0  0  0  0  0  0  0  0  0  0
   48.1572    7.1333   13.5862 C   0  0  0  0  0  0  0  0  0  0  0  0
   44.2584    3.5023   11.6795 C   0  0  0  0  0  0  0  0  0  0  0  0
   48.7035    6.8756   14.8422 C   0  0  0  0  0  0  0  0  0  0  0  0
   45.8660    4.2502   13.4467 C   0  0  0  0  0  0  0  0  0  0  0  0
   48.9485    5.6490   16.8473 C   0  0  0  0  0  0  0  0  0  0  0  0
   45.2733    4.4393   12.1888 C   0  0  0  0  0  0  0  0  0  0  0  0
   48.6037    4.5900   17.6397 C   0  0  0  0  0  0  0  0  0  0  0  0
   46.6127    6.3999   11.9163 C   0  0  0  0  0  0  0  0  0  0  0  0
   47.0610    3.8780   15.9581 C   0  0  0  0  0  0  0  0  0  0  0  0
   47.6570    3.7001   17.1965 C   0  0  0  0  0  0  0  0  0  0  0  0
   48.5700    8.3252   12.7779 C   0  0  1  0  0  0  0  0  0  0  0  0
   49.6136    7.9747   11.7783 C   0  0  0  0  0  0  0  0  0  0  0  0
   45.6544    5.5215   11.4267 C   0  0  0  0  0  0  0  0  0  0  0  0
   43.1900    4.2071   11.1598 F   0  0  0  0  0  0  0  0  0  0  0  0
   43.7813    2.7003   12.6829 F   0  0  0  0  0  0  0  0  0  0  0  0
   44.8014    2.7058   10.6915 F   0  0  0  0  0  0  0  0  0  0  0  0
   50.1546    6.7978   17.3919 Cl  0  0  0  0  0  0  0  0  0  0  0  0
   50.1070    9.0784   10.9091 C   0  0  0  0  0  0  0  0  0  0  0  0
   50.7258   10.1785   11.5272 N   0  0  0  0  0  0  0  0  0  0  0  0
   47.2226    2.3584   18.2089 Cl  0  0  0  0  0  0  0  0  0  0  0  0
   47.5275    9.0925   12.3378 O   0  0  0  0  0  0  0  0  0  0  0  0
   51.9676    9.9472   12.1423 C   0  0  0  0  0  0  0  0  0  0  0  0
   49.9840   11.2982   11.9118 C   0  0  0  0  0  0  0  0  0  0  0  0
   52.6123   11.1049   12.8558 C   0  0  0  0  0  0  0  0  0  0  0  0
   49.4164   12.0536   10.7120 C   0  0  0  0  0  0  0  0  0  0  0  0
   53.9677   10.6735   13.4437 C   0  0  0  0  0  0  0  0  0  0  0  0
   50.4765   12.5489    9.7855 C   0  0  0  0  0  0  0  0  0  0  0  0
   54.6242   11.8201   14.1600 C   0  0  0  0  0  0  0  0  0  0  0  0
   49.8132   13.2876    8.6162 C   0  0  0  0  0  0  0  0  0  0  0  0
   49.6838    8.9146   12.5550 H   0  0  0  0  0  0  0  0  0  0  0  0
   49.4501    7.5728   15.1983 H   0  0  0  0  0  0  0  0  0  0  0  0
   45.5209    3.3895   13.9799 H   0  0  0  0  0  0  0  0  0  0  0  0
   49.0602    4.4386   18.6077 H   0  0  0  0  0  0  0  0  0  0  0  0
   46.8640    7.2224   11.2598 H   0  0  0  0  0  0  0  0  0  0  0  0
   46.3281    3.1385   15.6816 H   0  0  0  0  0  0  0  0  0  0  0  0
   49.1013    8.9786   13.5412 H   0  0  0  0  0  0  0  0  0  0  0  0
   49.2473    7.1036   11.1766 H   0  0  0  0  0  0  0  0  0  0  0  0
   50.5287    7.5462   12.2942 H   0  0  0  0  0  0  0  0  0  0  0  0
   45.1938    5.6661   10.4529 H   0  0  0  0  0  0  0  0  0  0  0  0
   50.8932    8.6029   10.2425 H   0  0  0  0  0  0  0  0  0  0  0  0
   49.3217    9.3855   10.1784 H   0  0  0  0  0  0  0  0  0  0  0  0
   47.7054    9.4960   11.4695 H   0  0  0  0  0  0  0  0  0  0  0  0
   51.9015    9.1200   12.9100 H   0  0  0  0  0  0  0  0  0  0  0  0
   52.7327    9.5685   11.4044 H   0  0  0  0  0  0  0  0  0  0  0  0
   49.1973   11.1955   12.6553 H   0  0  0  0  0  0  0  0  0  0  0  0
   50.7159   12.0475   12.3508 H   0  0  0  0  0  0  0  0  0  0  0  0
   52.8145   11.9643   12.1960 H   0  0  0  0  0  0  0  0  0  0  0  0
   52.0059   11.4642   13.7189 H   0  0  0  0  0  0  0  0  0  0  0  0
   48.6543   11.4549   10.1712 H   0  0  0  0  0  0  0  0  0  0  0  0
   48.9223   12.9571   11.1489 H   0  0  0  0  0  0  0  0  0  0  0  0
   53.8341    9.8248   14.1506 H   0  0  0  0  0  0  0  0  0  0  0  0
   54.6346   10.3367   12.6345 H   0  0  0  0  0  0  0  0  0  0  0  0
   51.1614   13.2458   10.3022 H   0  0  0  0  0  0  0  0  0  0  0  0
   51.0575   11.7159    9.3103 H   0  0  0  0  0  0  0  0  0  0  0  0
   55.1191   11.5172   15.1169 H   0  0  0  0  0  0  0  0  0  0  0  0
   55.4046   12.2622   13.5157 H   0  0  0  0  0  0  0  0  0  0  0  0
   53.8424   12.5673   14.4300 H   0  0  0  0  0  0  0  0  0  0  0  0
   48.8171   12.8117    8.4579 H   0  0  0  0  0  0  0  0  0  0  0  0
   50.3988   13.1529    7.7085 H   0  0  0  0  0  0  0  0  0  0  0  0
   49.6541   14.3523    8.8599 H   0  0  0  0  0  0  0  0  0  0  0  0
  3  2  2  0
  4  3  1  0
  5  2  1  0
  6  5  2  0
  7 11  1  0
  8  6  1  0
  9  2  1  0
 10  4  1  0
 11  9  2  0
 12 15  1  0
 13  5  1  0
 14  3  1  0
 15 14  2  0
 16  6  1  0
 17 16  1  0
 18 11  1  0
 19  7  1  0
 20  7  1  0
 21  7  1  0
 22 10  1  0
 23 17  1  0
 24 23  1  0
 25 15  1  0
 26 16  1  0
 27 24  1  0
 28 24  1  0
 29 27  1  0
 30 28  1  0
 31 29  1  0
 32 30  1  0
 33 31  1  0
 34 32  1  0
 18 13  2  0
  8  4  2  0
 10 12  2  0
  1 35  1  0
  8 36  1  0
  9 37  1  0
 12 38  1  0
 13 39  1  0
 14 40  1  0
 16 41  1  6
 17 42  1  0
 17 43  1  0
 18 44  1  0
 23 45  1  0
 23 46  1  0
 26 47  1  0
 27 48  1  0
 27 49  1  0
 28 50  1  0
 28 51  1  0
 29 52  1  0
 29 53  1  0
 30 54  1  0
 30 55  1  0
 31 56  1  0
 31 57  1  0
 32 58  1  0
 32 59  1  0
 33 60  1  0
 33 61  1  0
 33 62  1  0
 34 63  1  0
 34 64  1  0
 34 65  1  0
M  END
> <Uni-Dock RESULT> 
ENERGY=   -4.937  LOWER_BOUND=    3.353  UPPER_BOUND=    5.807
INTER + INTRA:          -4.937
INTER:                  -4.937
INTRA:                   0.000
UNBOUND:                 0.000

$$$$

     RDKit          3D

 65 66  0  0  0  0  0  0  0  0999 V2000
   48.7255    9.6179   16.7356 Cl  0  0  0  0  0  0  0  0  0  0  0  0
   48.1576    6.8713   18.9343 C   0  0  0  0  0  0  0  0  0  0  0  0
   47.8520    7.6278   20.0439 C   0  0  0  0  0  0  0  0  0  0  0  0
   47.7247    8.9987   19.9450 C   0  0  0  0  0  0  0  0  0  0  0  0
   48.3355    7.5149   17.7109 C   0  0  0  0  0  0  0  0  0  0  0  0
   48.2169    8.8801   17.5693 C   0  0  0  0  0  0  0  0  0  0  0  0
   48.7444    3.2642   18.0203 C   0  0  0  0  0  0  0  0  0  0  0  0
   47.9067    9.5834   18.7319 C   0  0  0  0  0  0  0  0  0  0  0  0
   48.2870    5.5029   19.0429 C   0  0  0  0  0  0  0  0  0  0  0  0
   47.4197    9.7805   21.0361 C   0  0  0  0  0  0  0  0  0  0  0  0
   48.6031    4.7260   17.9177 C   0  0  0  0  0  0  0  0  0  0  0  0
   47.2332    9.2064   22.2623 C   0  0  0  0  0  0  0  0  0  0  0  0
   48.6465    6.7306   16.6170 C   0  0  0  0  0  0  0  0  0  0  0  0
   47.6605    7.0660   21.2874 C   0  0  0  0  0  0  0  0  0  0  0  0
   47.3531    7.8450   22.3916 C   0  0  0  0  0  0  0  0  0  0  0  0
   48.3907    9.5735   16.2527 C   0  0  1  0  0  0  0  0  0  0  0  0
   49.8235    9.8431   15.9603 C   0  0  0  0  0  0  0  0  0  0  0  0
   48.7821    5.3508   16.7034 C   0  0  0  0  0  0  0  0  0  0  0  0
   48.0601    2.6544   16.9868 F   0  0  0  0  0  0  0  0  0  0  0  0
   48.2209    2.8006   19.1987 F   0  0  0  0  0  0  0  0  0  0  0  0
   50.0771    2.9106   17.9542 F   0  0  0  0  0  0  0  0  0  0  0  0
   47.2719   11.5164   20.8470 Cl  0  0  0  0  0  0  0  0  0  0  0  0
   50.1276   10.5294   14.6744 C   0  0  0  0  0  0  0  0  0  0  0  0
   49.5947   11.8136   14.4699 N   0  0  0  0  0  0  0  0  0  0  0  0
   47.1131    7.1223   23.9517 Cl  0  0  0  0  0  0  0  0  0  0  0  0
   47.6429    9.0447   15.2376 O   0  0  0  0  0  0  0  0  0  0  0  0
   50.0971   12.8472   15.2782 C   0  0  0  0  0  0  0  0  0  0  0  0
   48.3534   11.9870   13.8524 C   0  0  0  0  0  0  0  0  0  0  0  0
   49.4934   14.2150   15.1067 C   0  0  0  0  0  0  0  0  0  0  0  0
   48.3737   11.5582   12.3868 C   0  0  0  0  0  0  0  0  0  0  0  0
   50.1803   15.2170   16.0515 C   0  0  0  0  0  0  0  0  0  0  0  0
   49.3600   12.3271   11.5723 C   0  0  0  0  0  0  0  0  0  0  0  0
   49.5875   16.5888   15.8916 C   0  0  0  0  0  0  0  0  0  0  0  0
   49.3103   11.8262   10.1233 C   0  0  0  0  0  0  0  0  0  0  0  0
   48.9310   10.6732   15.8835 H   0  0  0  0  0  0  0  0  0  0  0  0
   47.8103   10.6568   18.6378 H   0  0  0  0  0  0  0  0  0  0  0  0
   48.1636    4.9491   19.9496 H   0  0  0  0  0  0  0  0  0  0  0  0
   46.9930    9.8013   23.1322 H   0  0  0  0  0  0  0  0  0  0  0  0
   48.8064    7.1499   15.6325 H   0  0  0  0  0  0  0  0  0  0  0  0
   47.7370    6.0069   21.4692 H   0  0  0  0  0  0  0  0  0  0  0  0
   47.9314   10.5959   16.4411 H   0  0  0  0  0  0  0  0  0  0  0  0
   50.3913    8.8829   16.0635 H   0  0  0  0  0  0  0  0  0  0  0  0
   50.2808   10.4849   16.7763 H   0  0  0  0  0  0  0  0  0  0  0  0
   49.0266    4.7470   15.8332 H   0  0  0  0  0  0  0  0  0  0  0  0
   51.2566   10.6463   14.6595 H   0  0  0  0  0  0  0  0  0  0  0  0
   49.9421    9.8480   13.8105 H   0  0  0  0  0  0  0  0  0  0  0  0
   48.0918    9.1072   14.3757 H   0  0  0  0  0  0  0  0  0  0  0  0
   49.9856   12.6049   16.3767 H   0  0  0  0  0  0  0  0  0  0  0  0
   51.2099   12.9766   15.1431 H   0  0  0  0  0  0  0  0  0  0  0  0
   47.4580   11.5800   14.3160 H   0  0  0  0  0  0  0  0  0  0  0  0
   48.1715   13.1056   13.7792 H   0  0  0  0  0  0  0  0  0  0  0  0
   49.6069   14.6157   14.0862 H   0  0  0  0  0  0  0  0  0  0  0  0
   48.4111   14.2390   15.3712 H   0  0  0  0  0  0  0  0  0  0  0  0
   48.5263   10.4642   12.2797 H   0  0  0  0  0  0  0  0  0  0  0  0
   47.3588   11.8210   11.9965 H   0  0  0  0  0  0  0  0  0  0  0  0
   50.0749   14.8907   17.1099 H   0  0  0  0  0  0  0  0  0  0  0  0
   51.2558   15.2700   15.8203 H   0  0  0  0  0  0  0  0  0  0  0  0
   49.1267   13.4075   11.5820 H   0  0  0  0  0  0  0  0  0  0  0  0
   50.4180   12.1564   11.9022 H   0  0  0  0  0  0  0  0  0  0  0  0
   49.4517   17.1267   16.8636 H   0  0  0  0  0  0  0  0  0  0  0  0
   50.2527   17.2100   15.2661 H   0  0  0  0  0  0  0  0  0  0  0  0
   48.5734   16.4893   15.4399 H   0  0  0  0  0  0  0  0  0  0  0  0
   49.0227   10.7495   10.1642 H   0  0  0  0  0  0  0  0  0  0  0  0
   50.2979   11.8939    9.6703 H   0  0  0  0  0  0  0  0  0  0  0  0
   48.5436   12.3683    9.5433 H   0  0  0  0  0  0  0  0  0  0  0  0
  3  2  2  0
  4  3  1  0
  5  2  1  0
  6  5  2  0
  7 11  1  0
  8  6  1  0
  9  2  1  0
 10  4  1  0
 11  9  2  0
 12 15  1  0
 13  5  1  0
 14  3  1  0
 15 14  2  0
 16  6  1  0
 17 16  1  0
 18 11  1  0
 19  7  1  0
 20  7  1  0
 21  7  1  0
 22 10  1  0
 23 17  1  0
 24 23  1  0
 25 15  1  0
 26 16  1  0
 27 24  1  0
 28 24  1  0
 29 27  1  0
 30 28  1  0
 31 29  1  0
 32 30  1  0
 33 31  1  0
 34 32  1  0
 18 13  2  0
  8  4  2  0
 10 12  2  0
  1 35  1  0
  8 36  1  0
  9 37  1  0
 12 38  1  0
 13 39  1  0
 14 40  1  0
 16 41  1  6
 17 42  1  0
 17 43  1  0
 18 44  1  0
 23 45  1  0
 23 46  1  0
 26 47  1  0
 27 48  1  0
 27 49  1  0
 28 50  1  0
 28 51  1  0
 29 52  1  0
 29 53  1  0
 30 54  1  0
 30 55  1  0
 31 56  1  0
 31 57  1  0
 32 58  1  0
 32 59  1  0
 33 60  1  0
 33 61  1  0
 33 62  1  0
 34 63  1  0
 34 64  1  0
 34 65  1  0
M  END
> <Uni-Dock RESULT> 
ENERGY=   -4.923  LOWER_BOUND=    4.613  UPPER_BOUND=    7.334
INTER + INTRA:          -4.923
INTER:                  -4.923
INTRA:                   0.000
UNBOUND:                 0.000

$$$$

     RDKit          3D

 65 66  0  0  0  0  0  0  0  0999 V2000
   48.4387   11.0541   12.2533 Cl  0  0  0  0  0  0  0  0  0  0  0  0
   45.3735    9.2503   12.0266 C   0  0  0  0  0  0  0  0  0  0  0  0
   45.8602    8.0633   12.5279 C   0  0  0  0  0  0  0  0  0  0  0  0
   47.1428    7.9884   13.0326 C   0  0  0  0  0  0  0  0  0  0  0  0
   46.1990   10.3732   12.0387 C   0  0  0  0  0  0  0  0  0  0  0  0
   47.4843   10.3409   12.5336 C   0  0  0  0  0  0  0  0  0  0  0  0
   42.2258   10.6025   10.4600 C   0  0  0  0  0  0  0  0  0  0  0  0
   47.9120    9.1085   13.0243 C   0  0  0  0  0  0  0  0  0  0  0  0
   44.0927    9.3153   11.5205 C   0  0  0  0  0  0  0  0  0  0  0  0
   47.6562    6.8165   13.5403 C   0  0  0  0  0  0  0  0  0  0  0  0
   43.5915   10.5199   11.0036 C   0  0  0  0  0  0  0  0  0  0  0  0
   46.8941    5.6820   13.5558 C   0  0  0  0  0  0  0  0  0  0  0  0
   45.6853   11.5480   11.5245 C   0  0  0  0  0  0  0  0  0  0  0  0
   45.1061    6.9103   12.5515 C   0  0  0  0  0  0  0  0  0  0  0  0
   45.6145    5.7260   13.0607 C   0  0  0  0  0  0  0  0  0  0  0  0
   48.3686   11.5499   12.5638 C   0  0  1  0  0  0  0  0  0  0  0  0
   49.0607   11.7552   11.2638 C   0  0  0  0  0  0  0  0  0  0  0  0
   44.3982   11.6362   11.0093 C   0  0  0  0  0  0  0  0  0  0  0  0
   41.5946   11.7293   10.9501 F   0  0  0  0  0  0  0  0  0  0  0  0
   41.4819    9.5128   10.8301 F   0  0  0  0  0  0  0  0  0  0  0  0
   42.2668   10.6676    9.0817 F   0  0  0  0  0  0  0  0  0  0  0  0
   49.2925    6.7843   14.1667 Cl  0  0  0  0  0  0  0  0  0  0  0  0
   49.9701   12.9302   11.1668 C   0  0  0  0  0  0  0  0  0  0  0  0
   51.0721   12.9851   12.0373 N   0  0  0  0  0  0  0  0  0  0  0  0
   44.6514    4.2817   13.0853 Cl  0  0  0  0  0  0  0  0  0  0  0  0
   47.7944   12.6502   13.1374 O   0  0  0  0  0  0  0  0  0  0  0  0
   52.0863   12.0330   11.8406 C   0  0  0  0  0  0  0  0  0  0  0  0
   50.9764   13.6175   13.2794 C   0  0  0  0  0  0  0  0  0  0  0  0
   53.2439   12.0468   12.8022 C   0  0  0  0  0  0  0  0  0  0  0  0
   50.7702   15.1248   13.1446 C   0  0  0  0  0  0  0  0  0  0  0  0
   54.2609   10.9570   12.4192 C   0  0  0  0  0  0  0  0  0  0  0  0
   51.8838   15.7982   12.4141 C   0  0  0  0  0  0  0  0  0  0  0  0
   55.4237   10.9584   13.3715 C   0  0  0  0  0  0  0  0  0  0  0  0
   51.5875   17.3007   12.3263 C   0  0  0  0  0  0  0  0  0  0  0  0
   49.6139   11.7547   12.3526 H   0  0  0  0  0  0  0  0  0  0  0  0
   48.9194    9.0662   13.4164 H   0  0  0  0  0  0  0  0  0  0  0  0
   43.4101    8.4927   11.4820 H   0  0  0  0  0  0  0  0  0  0  0  0
   47.2773    4.7513   13.9498 H   0  0  0  0  0  0  0  0  0  0  0  0
   46.2603   12.4637   11.4907 H   0  0  0  0  0  0  0  0  0  0  0  0
   44.0951    6.8646   12.1823 H   0  0  0  0  0  0  0  0  0  0  0  0
   49.1892   11.2468   13.2894 H   0  0  0  0  0  0  0  0  0  0  0  0
   48.2902   11.7575   10.4506 H   0  0  0  0  0  0  0  0  0  0  0  0
   49.6886   10.8477   11.0013 H   0  0  0  0  0  0  0  0  0  0  0  0
   44.0078   12.5682   10.6087 H   0  0  0  0  0  0  0  0  0  0  0  0
   50.3957   12.8907   10.1153 H   0  0  0  0  0  0  0  0  0  0  0  0
   49.3860   13.8809   11.1574 H   0  0  0  0  0  0  0  0  0  0  0  0
   48.0935   13.4807   12.7262 H   0  0  0  0  0  0  0  0  0  0  0  0
   51.6778   10.9795   11.8770 H   0  0  0  0  0  0  0  0  0  0  0  0
   52.5355   12.1116   10.8084 H   0  0  0  0  0  0  0  0  0  0  0  0
   50.2793   13.2418   14.0245 H   0  0  0  0  0  0  0  0  0  0  0  0
   52.0003   13.5516   13.7662 H   0  0  0  0  0  0  0  0  0  0  0  0
   53.7933   13.0023   12.8078 H   0  0  0  0  0  0  0  0  0  0  0  0
   52.9319   11.8190   13.8475 H   0  0  0  0  0  0  0  0  0  0  0  0
   49.7857   15.3671   12.6933 H   0  0  0  0  0  0  0  0  0  0  0  0
   50.7918   15.5126   14.1936 H   0  0  0  0  0  0  0  0  0  0  0  0
   53.7795    9.9540   12.4264 H   0  0  0  0  0  0  0  0  0  0  0  0
   54.6398   11.1421   11.4018 H   0  0  0  0  0  0  0  0  0  0  0  0
   52.8461   15.6569   12.9393 H   0  0  0  0  0  0  0  0  0  0  0  0
   51.9699   15.4568   11.3496 H   0  0  0  0  0  0  0  0  0  0  0  0
   55.7678    9.9304   13.6490 H   0  0  0  0  0  0  0  0  0  0  0  0
   56.2826   11.4749   12.9076 H   0  0  0  0  0  0  0  0  0  0  0  0
   55.1089   11.4541   14.3188 H   0  0  0  0  0  0  0  0  0  0  0  0
   50.4779   17.4094   12.3023 H   0  0  0  0  0  0  0  0  0  0  0  0
   51.9858   17.7067   11.3981 H   0  0  0  0  0  0  0  0  0  0  0  0
   51.9689   17.8319   13.2155 H   0  0  0  0  0  0  0  0  0  0  0  0
  3  2  2  0
  4  3  1  0
  5  2  1  0
  6  5  2  0
  7 11  1  0
  8  6  1  0
  9  2  1  0
 10  4  1  0
 11  9  2  0
 12 15  1  0
 13  5  1  0
 14  3  1  0
 15 14  2  0
 16  6  1  0
 17 16  1  0
 18 11  1  0
 19  7  1  0
 20  7  1  0
 21  7  1  0
 22 10  1  0
 23 17  1  0
 24 23  1  0
 25 15  1  0
 26 16  1  0
 27 24  1  0
 28 24  1  0
 29 27  1  0
 30 28  1  0
 31 29  1  0
 32 30  1  0
 33 31  1  0
 34 32  1  0
 18 13  2  0
  8  4  2  0
 10 12  2  0
  1 35  1  0
  8 36  1  0
  9 37  1  0
 12 38  1  0
 13 39  1  0
 14 40  1  0
 16 41  1  6
 17 42  1  0
 17 43  1  0
 18 44  1  0
 23 45  1  0
 23 46  1  0
 26 47  1  0
 27 48  1  0
 27 49  1  0
 28 50  1  0
 28 51  1  0
 29 52  1  0
 29 53  1  0
 30 54  1  0
 30 55  1  0
 31 56  1  0
 31 57  1  0
 32 58  1  0
 32 59  1  0
 33 60  1  0
 33 61  1  0
 33 62  1  0
 34 63  1  0
 34 64  1  0
 34 65  1  0
M  END
> <Uni-Dock RESULT> 
ENERGY=   -4.870  LOWER_BOUND=    3.769  UPPER_BOUND=    6.084
INTER + INTRA:          -4.870
INTER:                  -4.870
INTRA:                   0.000
UNBOUND:                 0.000

$$$$
