
     RDKit          3D

 65 66  0  0  0  0  0  0  0  0999 V2000
   47.5009    8.7246   14.7549 Cl  0  0  0  0  0  0  0  0  0  0  0  0
   45.4251    7.6573   12.2641 C   0  0  0  0  0  0  0  0  0  0  0  0
   45.3909    6.2998   12.4889 C   0  0  0  0  0  0  0  0  0  0  0  0
   46.3820    5.6737   13.2113 C   0  0  0  0  0  0  0  0  0  0  0  0
   46.4872    8.3636   12.7883 C   0  0  0  0  0  0  0  0  0  0  0  0
   47.5051    7.7898   13.5173 C   0  0  0  0  0  0  0  0  0  0  0  0
   43.4157   10.3440   10.5531 C   0  0  0  0  0  0  0  0  0  0  0  0
   47.4251    6.4124   13.7180 C   0  0  0  0  0  0  0  0  0  0  0  0
   44.4387    8.2954   11.5455 C   0  0  0  0  0  0  0  0  0  0  0  0
   46.3919    4.3171   13.4649 C   0  0  0  0  0  0  0  0  0  0  0  0
   44.4817    9.6715   11.3259 C   0  0  0  0  0  0  0  0  0  0  0  0
   45.3437    3.5764   12.9567 C   0  0  0  0  0  0  0  0  0  0  0  0
   46.5304    9.7235   12.5720 C   0  0  0  0  0  0  0  0  0  0  0  0
   44.3615    5.5300   11.9978 C   0  0  0  0  0  0  0  0  0  0  0  0
   44.3291    4.1483   12.2299 C   0  0  0  0  0  0  0  0  0  0  0  0
   48.6460    8.4963   14.0853 C   0  0  1  0  0  0  0  0  0  0  0  0
   48.3703    9.0358   15.4908 C   0  0  0  0  0  0  0  0  0  0  0  0
   45.5446   10.3755   11.8515 C   0  0  0  0  0  0  0  0  0  0  0  0
   42.2360    9.6340   10.5604 F   0  0  0  0  0  0  0  0  0  0  0  0
   43.9013   10.5672    9.2667 F   0  0  0  0  0  0  0  0  0  0  0  0
   43.1885   11.5923   11.1086 F   0  0  0  0  0  0  0  0  0  0  0  0
   47.6880    3.5566   14.4026 Cl  0  0  0  0  0  0  0  0  0  0  0  0
   49.6262    9.7233   15.8947 C   0  0  0  0  0  0  0  0  0  0  0  0
   49.7738   10.2874   17.1464 N   0  0  0  0  0  0  0  0  0  0  0  0
   43.0472    3.1350   11.6285 Cl  0  0  0  0  0  0  0  0  0  0  0  0
   49.7217    7.6032   14.2490 O   0  0  0  0  0  0  0  0  0  0  0  0
   50.9842   10.9842   17.3765 C   0  0  0  0  0  0  0  0  0  0  0  0
   48.9311   10.1027   18.2372 C   0  0  0  0  0  0  0  0  0  0  0  0
   52.2590   10.2655   17.4625 C   0  0  0  0  0  0  0  0  0  0  0  0
   47.5745   10.7427   18.1498 C   0  0  0  0  0  0  0  0  0  0  0  0
   52.4438    9.2695   18.5510 C   0  0  0  0  0  0  0  0  0  0  0  0
   47.6400   12.2412   17.9485 C   0  0  0  0  0  0  0  0  0  0  0  0
   51.5209    8.1122   18.5952 C   0  0  0  0  0  0  0  0  0  0  0  0
   48.3545   12.9473   19.0777 C   0  0  0  0  0  0  0  0  0  0  0  0
   48.2851    9.2270   15.7755 H   0  0  0  0  0  0  0  0  0  0  0  0
   48.2197    5.9137   14.2968 H   0  0  0  0  0  0  0  0  0  0  0  0
   43.5907    7.7891   11.1164 H   0  0  0  0  0  0  0  0  0  0  0  0
   45.3449    2.5293   13.1481 H   0  0  0  0  0  0  0  0  0  0  0  0
   47.3282   10.3462   12.9535 H   0  0  0  0  0  0  0  0  0  0  0  0
   43.5347    5.9083   11.4215 H   0  0  0  0  0  0  0  0  0  0  0  0
   48.9622    9.3119   13.4468 H   0  0  0  0  0  0  0  0  0  0  0  0
   47.4955    9.7345   15.4354 H   0  0  0  0  0  0  0  0  0  0  0  0
   48.0603    8.1780   16.1036 H   0  0  0  0  0  0  0  0  0  0  0  0
   45.5777   11.4619   11.6771 H   0  0  0  0  0  0  0  0  0  0  0  0
   49.7270   10.5799   15.1334 H   0  0  0  0  0  0  0  0  0  0  0  0
   50.4552    8.9940   15.6905 H   0  0  0  0  0  0  0  0  0  0  0  0
   49.6210    7.1617   15.1388 H   0  0  0  0  0  0  0  0  0  0  0  0
   51.0222   11.8196   16.6157 H   0  0  0  0  0  0  0  0  0  0  0  0
   50.8598   11.5469   18.3539 H   0  0  0  0  0  0  0  0  0  0  0  0
   48.7966    9.0233   18.5433 H   0  0  0  0  0  0  0  0  0  0  0  0
   49.4019   10.5438   19.1754 H   0  0  0  0  0  0  0  0  0  0  0  0
   53.0619   11.0521   17.6318 H   0  0  0  0  0  0  0  0  0  0  0  0
   52.5907    9.7786   16.5177 H   0  0  0  0  0  0  0  0  0  0  0  0
   46.8523   10.2539   17.4977 H   0  0  0  0  0  0  0  0  0  0  0  0
   47.0956   10.6141   19.1927 H   0  0  0  0  0  0  0  0  0  0  0  0
   53.4915    8.8544   18.4087 H   0  0  0  0  0  0  0  0  0  0  0  0
   52.5196    9.7655   19.5562 H   0  0  0  0  0  0  0  0  0  0  0  0
   46.6202   12.6543   17.8044 H   0  0  0  0  0  0  0  0  0  0  0  0
   48.1910   12.5009   17.0102 H   0  0  0  0  0  0  0  0  0  0  0  0
   50.8350    8.2390   19.4808 H   0  0  0  0  0  0  0  0  0  0  0  0
   52.0974    7.1708   18.8495 H   0  0  0  0  0  0  0  0  0  0  0  0
   50.9791    7.8804   17.6853 H   0  0  0  0  0  0  0  0  0  0  0  0
   47.7059   13.7920   19.4571 H   0  0  0  0  0  0  0  0  0  0  0  0
   48.5400   12.2287   19.9025 H   0  0  0  0  0  0  0  0  0  0  0  0
   49.3204   13.3728   18.7461 H   0  0  0  0  0  0  0  0  0  0  0  0
  3  2  2  0
  4  3  1  0
  5  2  1  0
  6  5  2  0
  7 11  1  0
  8  6  1  0
  9  2  1  0
 10  4  1  0
 11  9  2  0
 12 15  1  0
 13  5  1  0
 14  3  1  0
 15 14  2  0
 16  6  1  0
 17 16  1  0
 18 11  1  0
 19  7  1  0
 20  7  1  0
 21  7  1  0
 22 10  1  0
 23 17  1  0
 24 23  1  0
 25 15  1  0
 26 16  1  0
 27 24  1  0
 28 24  1  0
 29 27  1  0
 30 28  1  0
 31 29  1  0
 32 30  1  0
 33 31  1  0
 34 32  1  0
 18 13  2  0
  8  4  2  0
 10 12  2  0
  1 35  1  0
  8 36  1  0
  9 37  1  0
 12 38  1  0
 13 39  1  0
 14 40  1  0
 16 41  1  1
 17 42  1  0
 17 43  1  0
 18 44  1  0
 23 45  1  0
 23 46  1  0
 26 47  1  0
 27 48  1  0
 27 49  1  0
 28 50  1  0
 28 51  1  0
 29 52  1  0
 29 53  1  0
 30 54  1  0
 30 55  1  0
 31 56  1  0
 31 57  1  0
 32 58  1  0
 32 59  1  0
 33 60  1  0
 33 61  1  0
 33 62  1  0
 34 63  1  0
 34 64  1  0
 34 65  1  0
M  END
> <Uni-Dock RESULT> 
ENERGY=   -6.148  LOWER_BOUND=    0.000  UPPER_BOUND=    0.000
INTER + INTRA:          -6.148
INTER:                  -6.148
INTRA:                   0.000
UNBOUND:                 0.000

$$$$

     RDKit          3D

 65 66  0  0  0  0  0  0  0  0999 V2000
   47.4142    8.5440   12.5191 Cl  0  0  0  0  0  0  0  0  0  0  0  0
   46.7291    5.3305   13.4447 C   0  0  0  0  0  0  0  0  0  0  0  0
   47.3763    5.2428   14.6562 C   0  0  0  0  0  0  0  0  0  0  0  0
   48.3917    6.1131   14.9844 C   0  0  0  0  0  0  0  0  0  0  0  0
   47.1360    6.3203   12.5749 C   0  0  0  0  0  0  0  0  0  0  0  0
   48.1448    7.2166   12.8503 C   0  0  0  0  0  0  0  0  0  0  0  0
   43.9672    3.6350   11.5262 C   0  0  0  0  0  0  0  0  0  0  0  0
   48.7692    7.0869   14.0902 C   0  0  0  0  0  0  0  0  0  0  0  0
   45.7104    4.4679   13.1059 C   0  0  0  0  0  0  0  0  0  0  0  0
   49.0695    6.0669   16.1858 C   0  0  0  0  0  0  0  0  0  0  0  0
   45.0597    4.5673   11.8769 C   0  0  0  0  0  0  0  0  0  0  0  0
   48.6892    5.0895   17.0833 C   0  0  0  0  0  0  0  0  0  0  0  0
   46.4935    6.4194   11.3604 C   0  0  0  0  0  0  0  0  0  0  0  0
   47.0237    4.2814   15.5755 C   0  0  0  0  0  0  0  0  0  0  0  0
   47.6837    4.1960   16.8087 C   0  0  0  0  0  0  0  0  0  0  0  0
   48.6087    8.2733   11.9607 C   0  0  1  0  0  0  0  0  0  0  0  0
   47.8308    9.5799   12.1349 C   0  0  0  0  0  0  0  0  0  0  0  0
   45.4683    5.5580   11.0092 C   0  0  0  0  0  0  0  0  0  0  0  0
   43.3648    3.0916   12.6388 F   0  0  0  0  0  0  0  0  0  0  0  0
   44.4931    2.6677   10.6729 F   0  0  0  0  0  0  0  0  0  0  0  0
   43.0146    4.3261   10.7960 F   0  0  0  0  0  0  0  0  0  0  0  0
   50.3680    7.2106   16.5644 Cl  0  0  0  0  0  0  0  0  0  0  0  0
   48.4308   10.5215   11.1519 C   0  0  0  0  0  0  0  0  0  0  0  0
   48.0192   11.8366   11.0630 N   0  0  0  0  0  0  0  0  0  0  0  0
   47.2717    2.9967   18.0019 Cl  0  0  0  0  0  0  0  0  0  0  0  0
   49.9404    8.6047   12.2740 O   0  0  0  0  0  0  0  0  0  0  0  0
   48.6093   12.6053   10.0312 C   0  0  0  0  0  0  0  0  0  0  0  0
   47.2143   12.5106   11.9749 C   0  0  0  0  0  0  0  0  0  0  0  0
   50.0282   12.9696   10.0849 C   0  0  0  0  0  0  0  0  0  0  0  0
   45.7694   12.1008   12.0220 C   0  0  0  0  0  0  0  0  0  0  0  0
   50.5031   13.8236   11.2058 C   0  0  0  0  0  0  0  0  0  0  0  0
   45.0692   12.2500   10.6887 C   0  0  0  0  0  0  0  0  0  0  0  0
   50.3428   13.3086   12.5849 C   0  0  0  0  0  0  0  0  0  0  0  0
   45.0747   13.6757   10.1872 C   0  0  0  0  0  0  0  0  0  0  0  0
   47.6056    9.8515   12.1159 H   0  0  0  0  0  0  0  0  0  0  0  0
   49.5816    7.7850   14.3505 H   0  0  0  0  0  0  0  0  0  0  0  0
   45.3569    3.6800   13.7492 H   0  0  0  0  0  0  0  0  0  0  0  0
   49.2079    5.0477   18.0120 H   0  0  0  0  0  0  0  0  0  0  0  0
   46.7527    7.1707   10.6268 H   0  0  0  0  0  0  0  0  0  0  0  0
   46.2477    3.5497   15.4295 H   0  0  0  0  0  0  0  0  0  0  0  0
   48.5592    7.9654   10.9236 H   0  0  0  0  0  0  0  0  0  0  0  0
   46.7478    9.3759   11.9303 H   0  0  0  0  0  0  0  0  0  0  0  0
   47.9125    9.8576   13.1949 H   0  0  0  0  0  0  0  0  0  0  0  0
   44.9541    5.6353   10.0389 H   0  0  0  0  0  0  0  0  0  0  0  0
   48.2045   10.0359   10.1337 H   0  0  0  0  0  0  0  0  0  0  0  0
   49.5409   10.4655   11.3106 H   0  0  0  0  0  0  0  0  0  0  0  0
   49.9231    9.2943   12.9958 H   0  0  0  0  0  0  0  0  0  0  0  0
   48.3420   12.0944    9.0587 H   0  0  0  0  0  0  0  0  0  0  0  0
   48.0250   13.5758    9.9680 H   0  0  0  0  0  0  0  0  0  0  0  0
   47.6161   12.5210   13.0310 H   0  0  0  0  0  0  0  0  0  0  0  0
   47.1942   13.6231   11.7328 H   0  0  0  0  0  0  0  0  0  0  0  0
   50.2450   13.5623    9.1394 H   0  0  0  0  0  0  0  0  0  0  0  0
   50.7380   12.1154   10.0048 H   0  0  0  0  0  0  0  0  0  0  0  0
   45.5528   11.1550   12.5163 H   0  0  0  0  0  0  0  0  0  0  0  0
   45.2449   12.8667   12.7087 H   0  0  0  0  0  0  0  0  0  0  0  0
   51.6164   13.9642   11.0303 H   0  0  0  0  0  0  0  0  0  0  0  0
   50.1144   14.8739   11.1181 H   0  0  0  0  0  0  0  0  0  0  0  0
   44.0338   11.8559   10.7524 H   0  0  0  0  0  0  0  0  0  0  0  0
   45.5643   11.6318    9.8988 H   0  0  0  0  0  0  0  0  0  0  0  0
   49.5415   13.9129   13.0984 H   0  0  0  0  0  0  0  0  0  0  0  0
   51.2699   13.5428   13.1924 H   0  0  0  0  0  0  0  0  0  0  0  0
   50.1881   12.2415   12.6966 H   0  0  0  0  0  0  0  0  0  0  0  0
   44.0199   13.9779    9.9148 H   0  0  0  0  0  0  0  0  0  0  0  0
   45.4530   14.3458   10.9865 H   0  0  0  0  0  0  0  0  0  0  0  0
   45.7115   13.7897    9.2897 H   0  0  0  0  0  0  0  0  0  0  0  0
  3  2  2  0
  4  3  1  0
  5  2  1  0
  6  5  2  0
  7 11  1  0
  8  6  1  0
  9  2  1  0
 10  4  1  0
 11  9  2  0
 12 15  1  0
 13  5  1  0
 14  3  1  0
 15 14  2  0
 16  6  1  0
 17 16  1  0
 18 11  1  0
 19  7  1  0
 20  7  1  0
 21  7  1  0
 22 10  1  0
 23 17  1  0
 24 23  1  0
 25 15  1  0
 26 16  1  0
 27 24  1  0
 28 24  1  0
 29 27  1  0
 30 28  1  0
 31 29  1  0
 32 30  1  0
 33 31  1  0
 34 32  1  0
 18 13  2  0
  8  4  2  0
 10 12  2  0
  1 35  1  0
  8 36  1  0
  9 37  1  0
 12 38  1  0
 13 39  1  0
 14 40  1  0
 16 41  1  1
 17 42  1  0
 17 43  1  0
 18 44  1  0
 23 45  1  0
 23 46  1  0
 26 47  1  0
 27 48  1  0
 27 49  1  0
 28 50  1  0
 28 51  1  0
 29 52  1  0
 29 53  1  0
 30 54  1  0
 30 55  1  0
 31 56  1  0
 31 57  1  0
 32 58  1  0
 32 59  1  0
 33 60  1  0
 33 61  1  0
 33 62  1  0
 34 63  1  0
 34 64  1  0
 34 65  1  0
M  END
> <Uni-Dock RESULT> 
ENERGY=   -5.739  LOWER_BOUND=    3.958  UPPER_BOUND=    5.737
INTER + INTRA:          -5.739
INTER:                  -5.739
INTRA:                   0.000
UNBOUND:                 0.000

$$$$

     RDKit          3D

 65 66  0  0  0  0  0  0  0  0999 V2000
   48.9015    8.2959   12.0803 Cl  0  0  0  0  0  0  0  0  0  0  0  0
   45.5380    7.7191   12.1609 C   0  0  0  0  0  0  0  0  0  0  0  0
   45.0328    8.9538   11.8222 C   0  0  0  0  0  0  0  0  0  0  0  0
   45.7884   10.0956   11.9686 C   0  0  0  0  0  0  0  0  0  0  0  0
   46.8260    7.6702   12.6513 C   0  0  0  0  0  0  0  0  0  0  0  0
   47.6258    8.7787   12.8186 C   0  0  0  0  0  0  0  0  0  0  0  0
   44.5054    4.0975   12.2000 C   0  0  0  0  0  0  0  0  0  0  0  0
   47.0690   10.0059   12.4611 C   0  0  0  0  0  0  0  0  0  0  0  0
   44.7932    6.5697   12.0168 C   0  0  0  0  0  0  0  0  0  0  0  0
   45.3280   11.3551   11.6420 C   0  0  0  0  0  0  0  0  0  0  0  0
   45.3157    5.3236   12.3604 C   0  0  0  0  0  0  0  0  0  0  0  0
   44.0426   11.4440   11.1466 C   0  0  0  0  0  0  0  0  0  0  0  0
   47.3432    6.4393   12.9909 C   0  0  0  0  0  0  0  0  0  0  0  0
   43.7558    9.0805   11.3252 C   0  0  0  0  0  0  0  0  0  0  0  0
   43.2452   10.3390   10.9799 C   0  0  0  0  0  0  0  0  0  0  0  0
   48.9881    8.7732   13.3359 C   0  0  1  0  0  0  0  0  0  0  0  0
   50.0381    8.5727   12.2406 C   0  0  0  0  0  0  0  0  0  0  0  0
   46.6039    5.2775   12.8502 C   0  0  0  0  0  0  0  0  0  0  0  0
   43.5092    4.2470   11.2612 F   0  0  0  0  0  0  0  0  0  0  0  0
   44.0133    3.7475   13.4553 F   0  0  0  0  0  0  0  0  0  0  0  0
   45.3401    3.0655   11.8043 F   0  0  0  0  0  0  0  0  0  0  0  0
   46.3389   12.7953   11.8451 Cl  0  0  0  0  0  0  0  0  0  0  0  0
   51.3453    8.5853   12.9506 C   0  0  0  0  0  0  0  0  0  0  0  0
   52.5421    8.4914   12.2682 N   0  0  0  0  0  0  0  0  0  0  0  0
   41.6364   10.5473   10.3476 Cl  0  0  0  0  0  0  0  0  0  0  0  0
   49.2875   10.0305   13.8935 O   0  0  0  0  0  0  0  0  0  0  0  0
   53.7102    8.4303   13.0653 C   0  0  0  0  0  0  0  0  0  0  0  0
   52.7177    8.6113   10.8939 C   0  0  0  0  0  0  0  0  0  0  0  0
   54.1516    9.5940   13.8400 C   0  0  0  0  0  0  0  0  0  0  0  0
   52.1921    7.4833   10.0518 C   0  0  0  0  0  0  0  0  0  0  0  0
   54.5254   10.8353   13.1116 C   0  0  0  0  0  0  0  0  0  0  0  0
   52.7973    6.1442   10.4137 C   0  0  0  0  0  0  0  0  0  0  0  0
   53.4892   11.4890   12.2798 C   0  0  0  0  0  0  0  0  0  0  0  0
   54.2984    6.1204   10.2402 C   0  0  0  0  0  0  0  0  0  0  0  0
   50.2727    8.4487   12.0072 H   0  0  0  0  0  0  0  0  0  0  0  0
   47.6761   10.9183   12.5790 H   0  0  0  0  0  0  0  0  0  0  0  0
   43.7848    6.5555   11.6392 H   0  0  0  0  0  0  0  0  0  0  0  0
   43.6807   12.4124   10.8929 H   0  0  0  0  0  0  0  0  0  0  0  0
   48.3456    6.3185   13.3786 H   0  0  0  0  0  0  0  0  0  0  0  0
   43.0756    8.2610   11.1680 H   0  0  0  0  0  0  0  0  0  0  0  0
   49.1178    8.0131   14.0964 H   0  0  0  0  0  0  0  0  0  0  0  0
   49.8343    7.5955   11.7308 H   0  0  0  0  0  0  0  0  0  0  0  0
   49.8747    9.3652   11.4971 H   0  0  0  0  0  0  0  0  0  0  0  0
   47.0153    4.2931   13.1216 H   0  0  0  0  0  0  0  0  0  0  0  0
   51.2892    7.6696   13.6447 H   0  0  0  0  0  0  0  0  0  0  0  0
   51.3329    9.5004   13.6011 H   0  0  0  0  0  0  0  0  0  0  0  0
   49.6259   10.6182   13.1606 H   0  0  0  0  0  0  0  0  0  0  0  0
   53.6090    7.5080   13.7113 H   0  0  0  0  0  0  0  0  0  0  0  0
   54.5666    8.1540   12.3743 H   0  0  0  0  0  0  0  0  0  0  0  0
   52.3416    9.5846   10.4602 H   0  0  0  0  0  0  0  0  0  0  0  0
   53.8271    8.6696   10.6440 H   0  0  0  0  0  0  0  0  0  0  0  0
   55.0902    9.2743   14.3957 H   0  0  0  0  0  0  0  0  0  0  0  0
   53.4701    9.8961   14.6671 H   0  0  0  0  0  0  0  0  0  0  0  0
   51.1121    7.4437    9.9194 H   0  0  0  0  0  0  0  0  0  0  0  0
   52.5674    7.6870    8.9790 H   0  0  0  0  0  0  0  0  0  0  0  0
   54.8264   11.5801   13.9146 H   0  0  0  0  0  0  0  0  0  0  0  0
   55.4824   10.7051   12.5379 H   0  0  0  0  0  0  0  0  0  0  0  0
   52.3171    5.3344    9.8263 H   0  0  0  0  0  0  0  0  0  0  0  0
   52.5953    5.8831   11.4826 H   0  0  0  0  0  0  0  0  0  0  0  0
   53.7610   11.3436   11.1954 H   0  0  0  0  0  0  0  0  0  0  0  0
   53.5450   12.6129   12.4100 H   0  0  0  0  0  0  0  0  0  0  0  0
   52.4573   11.2270   12.4838 H   0  0  0  0  0  0  0  0  0  0  0  0
   54.5858    5.2244    9.6135 H   0  0  0  0  0  0  0  0  0  0  0  0
   54.6244    7.0475    9.7253 H   0  0  0  0  0  0  0  0  0  0  0  0
   54.8201    6.0457   11.2130 H   0  0  0  0  0  0  0  0  0  0  0  0
  3  2  2  0
  4  3  1  0
  5  2  1  0
  6  5  2  0
  7 11  1  0
  8  6  1  0
  9  2  1  0
 10  4  1  0
 11  9  2  0
 12 15  1  0
 13  5  1  0
 14  3  1  0
 15 14  2  0
 16  6  1  0
 17 16  1  0
 18 11  1  0
 19  7  1  0
 20  7  1  0
 21  7  1  0
 22 10  1  0
 23 17  1  0
 24 23  1  0
 25 15  1  0
 26 16  1  0
 27 24  1  0
 28 24  1  0
 29 27  1  0
 30 28  1  0
 31 29  1  0
 32 30  1  0
 33 31  1  0
 34 32  1  0
 18 13  2  0
  8  4  2  0
 10 12  2  0
  1 35  1  0
  8 36  1  0
  9 37  1  0
 12 38  1  0
 13 39  1  0
 14 40  1  0
 16 41  1  1
 17 42  1  0
 17 43  1  0
 18 44  1  0
 23 45  1  0
 23 46  1  0
 26 47  1  0
 27 48  1  0
 27 49  1  0
 28 50  1  0
 28 51  1  0
 29 52  1  0
 29 53  1  0
 30 54  1  0
 30 55  1  0
 31 56  1  0
 31 57  1  0
 32 58  1  0
 32 59  1  0
 33 60  1  0
 33 61  1  0
 33 62  1  0
 34 63  1  0
 34 64  1  0
 34 65  1  0
M  END
> <Uni-Dock RESULT> 
ENERGY=   -5.391  LOWER_BOUND=    3.954  UPPER_BOUND=    6.232
INTER + INTRA:          -5.391
INTER:                  -5.391
INTRA:                   0.000
UNBOUND:                 0.000

$$$$

     RDKit          3D

 65 66  0  0  0  0  0  0  0  0999 V2000
   50.1873    8.5427   11.5008 Cl  0  0  0  0  0  0  0  0  0  0  0  0
   47.0061    8.1087   12.6602 C   0  0  0  0  0  0  0  0  0  0  0  0
   46.3954    9.2710   12.2475 C   0  0  0  0  0  0  0  0  0  0  0  0
   47.1339   10.3929   11.9435 C   0  0  0  0  0  0  0  0  0  0  0  0
   48.3817    8.1113   12.7574 C   0  0  0  0  0  0  0  0  0  0  0  0
   49.1693    9.2030   12.4669 C   0  0  0  0  0  0  0  0  0  0  0  0
   46.1150    4.6010   13.7022 C   0  0  0  0  0  0  0  0  0  0  0  0
   48.5039   10.3562   12.0529 C   0  0  0  0  0  0  0  0  0  0  0  0
   46.2789    6.9795   12.9645 C   0  0  0  0  0  0  0  0  0  0  0  0
   46.5689   11.5803   11.5244 C   0  0  0  0  0  0  0  0  0  0  0  0
   46.9078    5.8063   13.3791 C   0  0  0  0  0  0  0  0  0  0  0  0
   45.1934   11.6159   11.4139 C   0  0  0  0  0  0  0  0  0  0  0  0
   49.0041    6.9524   13.1668 C   0  0  0  0  0  0  0  0  0  0  0  0
   45.0266    9.3430   12.1256 C   0  0  0  0  0  0  0  0  0  0  0  0
   44.4082   10.5276   11.7037 C   0  0  0  0  0  0  0  0  0  0  0  0
   50.6228    9.2509   12.5594 C   0  0  1  0  0  0  0  0  0  0  0  0
   51.3147    8.8060   11.2687 C   0  0  0  0  0  0  0  0  0  0  0  0
   48.2835    5.8115   13.4752 C   0  0  0  0  0  0  0  0  0  0  0  0
   44.8863    4.6001   13.0807 F   0  0  0  0  0  0  0  0  0  0  0  0
   46.0163    4.5179   15.0891 F   0  0  0  0  0  0  0  0  0  0  0  0
   46.8233    3.4838   13.2917 F   0  0  0  0  0  0  0  0  0  0  0  0
   47.5609   12.9970   11.1417 Cl  0  0  0  0  0  0  0  0  0  0  0  0
   52.7709    8.9108   11.5543 C   0  0  0  0  0  0  0  0  0  0  0  0
   53.7204    8.6454   10.5874 N   0  0  0  0  0  0  0  0  0  0  0  0
   42.6807   10.6649   11.5349 Cl  0  0  0  0  0  0  0  0  0  0  0  0
   51.0412   10.5813   12.7500 O   0  0  0  0  0  0  0  0  0  0  0  0
   55.0705    8.6996   11.0092 C   0  0  0  0  0  0  0  0  0  0  0  0
   53.4873    8.4908    9.2253 C   0  0  0  0  0  0  0  0  0  0  0  0
   55.6898    9.9753   11.3807 C   0  0  0  0  0  0  0  0  0  0  0  0
   52.7670    7.2398    8.8080 C   0  0  0  0  0  0  0  0  0  0  0  0
   55.8070   11.0384   10.3476 C   0  0  0  0  0  0  0  0  0  0  0  0
   53.4825    5.9761    9.2340 C   0  0  0  0  0  0  0  0  0  0  0  0
   54.5591   11.5540    9.7395 C   0  0  0  0  0  0  0  0  0  0  0  0
   54.8691    5.8674    8.6426 C   0  0  0  0  0  0  0  0  0  0  0  0
   51.4744    8.6311   11.0065 H   0  0  0  0  0  0  0  0  0  0  0  0
   49.0974   11.2527   11.8099 H   0  0  0  0  0  0  0  0  0  0  0  0
   45.2050    6.9272   12.9046 H   0  0  0  0  0  0  0  0  0  0  0  0
   44.7507   12.5287   11.0915 H   0  0  0  0  0  0  0  0  0  0  0  0
   50.0784    6.8745   13.2642 H   0  0  0  0  0  0  0  0  0  0  0  0
   44.3496    8.5326   12.3347 H   0  0  0  0  0  0  0  0  0  0  0  0
   50.9853    8.6484   13.3832 H   0  0  0  0  0  0  0  0  0  0  0  0
   50.9950    7.7562   11.0406 H   0  0  0  0  0  0  0  0  0  0  0  0
   50.9241    9.4446   10.4643 H   0  0  0  0  0  0  0  0  0  0  0  0
   48.7789    4.8848   13.8030 H   0  0  0  0  0  0  0  0  0  0  0  0
   52.9400    8.1493   12.3999 H   0  0  0  0  0  0  0  0  0  0  0  0
   52.9260    9.9344   11.9889 H   0  0  0  0  0  0  0  0  0  0  0  0
   51.1386   11.0039   11.8507 H   0  0  0  0  0  0  0  0  0  0  0  0
   55.1827    7.9239   11.8240 H   0  0  0  0  0  0  0  0  0  0  0  0
   55.6961    8.2654   10.1683 H   0  0  0  0  0  0  0  0  0  0  0  0
   52.9787    9.3740    8.7373 H   0  0  0  0  0  0  0  0  0  0  0  0
   54.4749    8.4613    8.6593 H   0  0  0  0  0  0  0  0  0  0  0  0
   56.7565    9.7371   11.6929 H   0  0  0  0  0  0  0  0  0  0  0  0
   55.2704   10.4553   12.2937 H   0  0  0  0  0  0  0  0  0  0  0  0
   51.6961    7.2125    9.0035 H   0  0  0  0  0  0  0  0  0  0  0  0
   52.8103    7.2188    7.6543 H   0  0  0  0  0  0  0  0  0  0  0  0
   56.3101   11.9138   10.8679 H   0  0  0  0  0  0  0  0  0  0  0  0
   56.5595   10.7668    9.5590 H   0  0  0  0  0  0  0  0  0  0  0  0
   52.8720    5.0849    8.9802 H   0  0  0  0  0  0  0  0  0  0  0  0
   53.6052    5.9340   10.3451 H   0  0  0  0  0  0  0  0  0  0  0  0
   54.5083   11.1921    8.6731 H   0  0  0  0  0  0  0  0  0  0  0  0
   54.6237   12.6793    9.6259 H   0  0  0  0  0  0  0  0  0  0  0  0
   53.6371   11.3722   10.2798 H   0  0  0  0  0  0  0  0  0  0  0  0
   54.9836    4.8577    8.1471 H   0  0  0  0  0  0  0  0  0  0  0  0
   55.0098    6.6655    7.8847 H   0  0  0  0  0  0  0  0  0  0  0  0
   55.6519    5.9646    9.4183 H   0  0  0  0  0  0  0  0  0  0  0  0
  3  2  2  0
  4  3  1  0
  5  2  1  0
  6  5  2  0
  7 11  1  0
  8  6  1  0
  9  2  1  0
 10  4  1  0
 11  9  2  0
 12 15  1  0
 13  5  1  0
 14  3  1  0
 15 14  2  0
 16  6  1  0
 17 16  1  0
 18 11  1  0
 19  7  1  0
 20  7  1  0
 21  7  1  0
 22 10  1  0
 23 17  1  0
 24 23  1  0
 25 15  1  0
 26 16  1  0
 27 24  1  0
 28 24  1  0
 29 27  1  0
 30 28  1  0
 31 29  1  0
 32 30  1  0
 33 31  1  0
 34 32  1  0
 18 13  2  0
  8  4  2  0
 10 12  2  0
  1 35  1  0
  8 36  1  0
  9 37  1  0
 12 38  1  0
 13 39  1  0
 14 40  1  0
 16 41  1  1
 17 42  1  0
 17 43  1  0
 18 44  1  0
 23 45  1  0
 23 46  1  0
 26 47  1  0
 27 48  1  0
 27 49  1  0
 28 50  1  0
 28 51  1  0
 29 52  1  0
 29 53  1  0
 30 54  1  0
 30 55  1  0
 31 56  1  0
 31 57  1  0
 32 58  1  0
 32 59  1  0
 33 60  1  0
 33 61  1  0
 33 62  1  0
 34 63  1  0
 34 64  1  0
 34 65  1  0
M  END
> <Uni-Dock RESULT> 
ENERGY=   -5.208  LOWER_BOUND=    4.985  UPPER_BOUND=    7.187
INTER + INTRA:          -5.208
INTER:                  -5.208
INTRA:                   0.000
UNBOUND:                 0.000

$$$$

     RDKit          3D

 65 66  0  0  0  0  0  0  0  0999 V2000
   44.0293    9.5798   10.7959 Cl  0  0  0  0  0  0  0  0  0  0  0  0
   41.7468   11.8267    9.6151 C   0  0  0  0  0  0  0  0  0  0  0  0
   42.4908   12.5237    8.6904 C   0  0  0  0  0  0  0  0  0  0  0  0
   43.8667   12.5310    8.7448 C   0  0  0  0  0  0  0  0  0  0  0  0
   42.4306   11.1384   10.5951 C   0  0  0  0  0  0  0  0  0  0  0  0
   43.8037   11.1111   10.6975 C   0  0  0  0  0  0  0  0  0  0  0  0
   38.1494   11.0874   10.4493 C   0  0  0  0  0  0  0  0  0  0  0  0
   44.5124   11.8323    9.7375 C   0  0  0  0  0  0  0  0  0  0  0  0
   40.3705   11.8094    9.5698 C   0  0  0  0  0  0  0  0  0  0  0  0
   44.6564   13.2125    7.8411 C   0  0  0  0  0  0  0  0  0  0  0  0
   39.6265   11.0978   10.5099 C   0  0  0  0  0  0  0  0  0  0  0  0
   44.0074   13.9128    6.8442 C   0  0  0  0  0  0  0  0  0  0  0  0
   41.6963   10.4347   11.5244 C   0  0  0  0  0  0  0  0  0  0  0  0
   41.8779   13.2327    7.6828 C   0  0  0  0  0  0  0  0  0  0  0  0
   42.6385   13.9401    6.7422 C   0  0  0  0  0  0  0  0  0  0  0  0
   44.5658   10.4017   11.7170 C   0  0  1  0  0  0  0  0  0  0  0  0
   44.8828    8.9571   11.3232 C   0  0  0  0  0  0  0  0  0  0  0  0
   40.3128   10.4102   11.4886 C   0  0  0  0  0  0  0  0  0  0  0  0
   37.6751   11.3607    9.1858 F   0  0  0  0  0  0  0  0  0  0  0  0
   37.6797   11.9844   11.4058 F   0  0  0  0  0  0  0  0  0  0  0  0
   37.7008    9.8344   10.8328 F   0  0  0  0  0  0  0  0  0  0  0  0
   46.4242   13.1899    7.9500 Cl  0  0  0  0  0  0  0  0  0  0  0  0
   45.6441    8.4005   12.4737 C   0  0  0  0  0  0  0  0  0  0  0  0
   46.1585    7.1192   12.4510 N   0  0  0  0  0  0  0  0  0  0  0  0
   41.9068   14.8504    5.4509 Cl  0  0  0  0  0  0  0  0  0  0  0  0
   45.8233   11.0132   11.8788 O   0  0  0  0  0  0  0  0  0  0  0  0
   46.7895    6.6805   13.6398 C   0  0  0  0  0  0  0  0  0  0  0  0
   46.2567    6.2912   11.3382 C   0  0  0  0  0  0  0  0  0  0  0  0
   48.0596    7.2684   14.0760 C   0  0  0  0  0  0  0  0  0  0  0  0
   44.9667    5.7425   10.7972 C   0  0  0  0  0  0  0  0  0  0  0  0
   49.2529    7.1168   13.2018 C   0  0  0  0  0  0  0  0  0  0  0  0
   44.1901    4.9420   11.8201 C   0  0  0  0  0  0  0  0  0  0  0  0
   49.1888    7.6880   11.8370 C   0  0  0  0  0  0  0  0  0  0  0  0
   44.9625    3.7468   12.3290 C   0  0  0  0  0  0  0  0  0  0  0  0
   44.8877    8.6075   11.2719 H   0  0  0  0  0  0  0  0  0  0  0  0
   45.6137   11.8363    9.7832 H   0  0  0  0  0  0  0  0  0  0  0  0
   39.7914   12.3299    8.8258 H   0  0  0  0  0  0  0  0  0  0  0  0
   44.6101   14.4412    6.1437 H   0  0  0  0  0  0  0  0  0  0  0  0
   42.1594    9.8678   12.3206 H   0  0  0  0  0  0  0  0  0  0  0  0
   40.8128   13.2993    7.5410 H   0  0  0  0  0  0  0  0  0  0  0  0
   44.0494   10.4057   12.6691 H   0  0  0  0  0  0  0  0  0  0  0  0
   43.9155    8.4191   11.1461 H   0  0  0  0  0  0  0  0  0  0  0  0
   45.4094    9.0003   10.3598 H   0  0  0  0  0  0  0  0  0  0  0  0
   39.7243    9.8490   12.2306 H   0  0  0  0  0  0  0  0  0  0  0  0
   44.8926    8.4384   13.3439 H   0  0  0  0  0  0  0  0  0  0  0  0
   46.4531    9.1465   12.6967 H   0  0  0  0  0  0  0  0  0  0  0  0
   46.4474   10.6123   11.2104 H   0  0  0  0  0  0  0  0  0  0  0  0
   46.0049    6.7221   14.4527 H   0  0  0  0  0  0  0  0  0  0  0  0
   46.9674    5.5658   13.5263 H   0  0  0  0  0  0  0  0  0  0  0  0
   46.8433    6.7336   10.4796 H   0  0  0  0  0  0  0  0  0  0  0  0
   46.8828    5.3731   11.5866 H   0  0  0  0  0  0  0  0  0  0  0  0
   48.3329    6.7566   15.0535 H   0  0  0  0  0  0  0  0  0  0  0  0
   48.0068    8.3412   14.3695 H   0  0  0  0  0  0  0  0  0  0  0  0
   44.3451    6.4383   10.2358 H   0  0  0  0  0  0  0  0  0  0  0  0
   45.2637    4.9689    9.9930 H   0  0  0  0  0  0  0  0  0  0  0  0
   50.0973    7.6474   13.7454 H   0  0  0  0  0  0  0  0  0  0  0  0
   49.6159    6.0540   13.1793 H   0  0  0  0  0  0  0  0  0  0  0  0
   43.2100    4.6322   11.4018 H   0  0  0  0  0  0  0  0  0  0  0  0
   43.9374    5.5635   12.7152 H   0  0  0  0  0  0  0  0  0  0  0  0
   49.1357    6.8377   11.0988 H   0  0  0  0  0  0  0  0  0  0  0  0
   50.1734    8.1874   11.5832 H   0  0  0  0  0  0  0  0  0  0  0  0
   48.4296    8.4397   11.6537 H   0  0  0  0  0  0  0  0  0  0  0  0
   44.3186    2.8220   12.2376 H   0  0  0  0  0  0  0  0  0  0  0  0
   45.8809    3.6155   11.7205 H   0  0  0  0  0  0  0  0  0  0  0  0
   45.2478    3.8679   13.3911 H   0  0  0  0  0  0  0  0  0  0  0  0
  3  2  2  0
  4  3  1  0
  5  2  1  0
  6  5  2  0
  7 11  1  0
  8  6  1  0
  9  2  1  0
 10  4  1  0
 11  9  2  0
 12 15  1  0
 13  5  1  0
 14  3  1  0
 15 14  2  0
 16  6  1  0
 17 16  1  0
 18 11  1  0
 19  7  1  0
 20  7  1  0
 21  7  1  0
 22 10  1  0
 23 17  1  0
 24 23  1  0
 25 15  1  0
 26 16  1  0
 27 24  1  0
 28 24  1  0
 29 27  1  0
 30 28  1  0
 31 29  1  0
 32 30  1  0
 33 31  1  0
 34 32  1  0
 18 13  2  0
  8  4  2  0
 10 12  2  0
  1 35  1  0
  8 36  1  0
  9 37  1  0
 12 38  1  0
 13 39  1  0
 14 40  1  0
 16 41  1  1
 17 42  1  0
 17 43  1  0
 18 44  1  0
 23 45  1  0
 23 46  1  0
 26 47  1  0
 27 48  1  0
 27 49  1  0
 28 50  1  0
 28 51  1  0
 29 52  1  0
 29 53  1  0
 30 54  1  0
 30 55  1  0
 31 56  1  0
 31 57  1  0
 32 58  1  0
 32 59  1  0
 33 60  1  0
 33 61  1  0
 33 62  1  0
 34 63  1  0
 34 64  1  0
 34 65  1  0
M  END
> <Uni-Dock RESULT> 
ENERGY=   -4.960  LOWER_BOUND=    4.330  UPPER_BOUND=    7.842
INTER + INTRA:          -4.960
INTER:                  -4.960
INTRA:                   0.000
UNBOUND:                 0.000

$$$$

     RDKit          3D

 65 66  0  0  0  0  0  0  0  0999 V2000
   43.5239   10.3581   11.7095 Cl  0  0  0  0  0  0  0  0  0  0  0  0
   45.8117    7.9459   12.4838 C   0  0  0  0  0  0  0  0  0  0  0  0
   46.8819    8.6996   12.9091 C   0  0  0  0  0  0  0  0  0  0  0  0
   47.0053   10.0239   12.5524 C   0  0  0  0  0  0  0  0  0  0  0  0
   44.8709    8.5664   11.6890 C   0  0  0  0  0  0  0  0  0  0  0  0
   44.9438    9.8860   11.3017 C   0  0  0  0  0  0  0  0  0  0  0  0
   44.4521    4.4469   12.7874 C   0  0  0  0  0  0  0  0  0  0  0  0
   46.0463   10.6071   11.7583 C   0  0  0  0  0  0  0  0  0  0  0  0
   45.6757    6.6214   12.8358 C   0  0  0  0  0  0  0  0  0  0  0  0
   48.0578   10.8211   12.9542 C   0  0  0  0  0  0  0  0  0  0  0  0
   44.5861    5.8678   12.4017 C   0  0  0  0  0  0  0  0  0  0  0  0
   49.0196   10.2350   13.7523 C   0  0  0  0  0  0  0  0  0  0  0  0
   43.7938    7.8225   11.2597 C   0  0  0  0  0  0  0  0  0  0  0  0
   47.8594    8.1487   13.7058 C   0  0  0  0  0  0  0  0  0  0  0  0
   48.9470    8.9195   14.1382 C   0  0  0  0  0  0  0  0  0  0  0  0
   43.9763   10.5795   10.4613 C   0  0  1  0  0  0  0  0  0  0  0  0
   42.8347   11.2074   11.2645 C   0  0  0  0  0  0  0  0  0  0  0  0
   43.6467    6.4907   11.6072 C   0  0  0  0  0  0  0  0  0  0  0  0
   45.1424    4.1501   13.9413 F   0  0  0  0  0  0  0  0  0  0  0  0
   44.8592    3.6731   11.7031 F   0  0  0  0  0  0  0  0  0  0  0  0
   43.1101    4.1682   12.9864 F   0  0  0  0  0  0  0  0  0  0  0  0
   48.1719   12.5217   12.4720 Cl  0  0  0  0  0  0  0  0  0  0  0  0
   41.9569   11.8514   10.2508 C   0  0  0  0  0  0  0  0  0  0  0  0
   40.8418   12.5799   10.6151 N   0  0  0  0  0  0  0  0  0  0  0  0
   50.2066    8.2655   15.1468 Cl  0  0  0  0  0  0  0  0  0  0  0  0
   44.6007   11.6646    9.8176 O   0  0  0  0  0  0  0  0  0  0  0  0
   40.0442   13.0703    9.5534 C   0  0  0  0  0  0  0  0  0  0  0  0
   40.5211   13.0073   11.8990 C   0  0  0  0  0  0  0  0  0  0  0  0
   40.5423   14.1257    8.6664 C   0  0  0  0  0  0  0  0  0  0  0  0
   40.0973   11.9431   12.8715 C   0  0  0  0  0  0  0  0  0  0  0  0
   40.8597   15.4563    9.2496 C   0  0  0  0  0  0  0  0  0  0  0  0
   38.8910   11.1595   12.4012 C   0  0  0  0  0  0  0  0  0  0  0  0
   41.9033   15.5219   10.2981 C   0  0  0  0  0  0  0  0  0  0  0  0
   37.6757   12.0341   12.1953 C   0  0  0  0  0  0  0  0  0  0  0  0
   42.5344   11.2824   11.4348 H   0  0  0  0  0  0  0  0  0  0  0  0
   46.1425   11.6671   11.4715 H   0  0  0  0  0  0  0  0  0  0  0  0
   46.3819    6.0925   13.4531 H   0  0  0  0  0  0  0  0  0  0  0  0
   49.8346   10.8439   14.0658 H   0  0  0  0  0  0  0  0  0  0  0  0
   43.0132    8.2383   10.6372 H   0  0  0  0  0  0  0  0  0  0  0  0
   47.8686    7.1277   14.0466 H   0  0  0  0  0  0  0  0  0  0  0  0
   43.5614    9.9186    9.7103 H   0  0  0  0  0  0  0  0  0  0  0  0
   42.3128   10.3935   11.8315 H   0  0  0  0  0  0  0  0  0  0  0  0
   43.2985   11.8719   12.0067 H   0  0  0  0  0  0  0  0  0  0  0  0
   42.7870    5.8945   11.2647 H   0  0  0  0  0  0  0  0  0  0  0  0
   41.5809   10.9701    9.6140 H   0  0  0  0  0  0  0  0  0  0  0  0
   42.6361   12.4675    9.6028 H   0  0  0  0  0  0  0  0  0  0  0  0
   44.5530   12.4525   10.4292 H   0  0  0  0  0  0  0  0  0  0  0  0
   39.6905   12.1658    8.9747 H   0  0  0  0  0  0  0  0  0  0  0  0
   39.0833   13.4582   10.0152 H   0  0  0  0  0  0  0  0  0  0  0  0
   41.3165   13.6421   12.3901 H   0  0  0  0  0  0  0  0  0  0  0  0
   39.6458   13.7347   11.8629 H   0  0  0  0  0  0  0  0  0  0  0  0
   39.7235   14.3174    7.9017 H   0  0  0  0  0  0  0  0  0  0  0  0
   41.4080   13.8364    8.0286 H   0  0  0  0  0  0  0  0  0  0  0  0
   40.8898   11.3115   13.2699 H   0  0  0  0  0  0  0  0  0  0  0  0
   39.7275   12.5020   13.8117 H   0  0  0  0  0  0  0  0  0  0  0  0
   41.2214   16.0910    8.3798 H   0  0  0  0  0  0  0  0  0  0  0  0
   39.9298   15.9995    9.5693 H   0  0  0  0  0  0  0  0  0  0  0  0
   38.6700   10.3334   13.1084 H   0  0  0  0  0  0  0  0  0  0  0  0
   39.0907   10.6552   11.4229 H   0  0  0  0  0  0  0  0  0  0  0  0
   41.4027   15.7438   11.2835 H   0  0  0  0  0  0  0  0  0  0  0  0
   42.5578   16.4315   10.1321 H   0  0  0  0  0  0  0  0  0  0  0  0
   42.5876   14.6838   10.3641 H   0  0  0  0  0  0  0  0  0  0  0  0
   36.7982   11.5878   12.7512 H   0  0  0  0  0  0  0  0  0  0  0  0
   37.8818   13.0500   12.5911 H   0  0  0  0  0  0  0  0  0  0  0  0
   37.4060   12.1118   11.1252 H   0  0  0  0  0  0  0  0  0  0  0  0
  3  2  2  0
  4  3  1  0
  5  2  1  0
  6  5  2  0
  7 11  1  0
  8  6  1  0
  9  2  1  0
 10  4  1  0
 11  9  2  0
 12 15  1  0
 13  5  1  0
 14  3  1  0
 15 14  2  0
 16  6  1  0
 17 16  1  0
 18 11  1  0
 19  7  1  0
 20  7  1  0
 21  7  1  0
 22 10  1  0
 23 17  1  0
 24 23  1  0
 25 15  1  0
 26 16  1  0
 27 24  1  0
 28 24  1  0
 29 27  1  0
 30 28  1  0
 31 29  1  0
 32 30  1  0
 33 31  1  0
 34 32  1  0
 18 13  2  0
  8  4  2  0
 10 12  2  0
  1 35  1  0
  8 36  1  0
  9 37  1  0
 12 38  1  0
 13 39  1  0
 14 40  1  0
 16 41  1  1
 17 42  1  0
 17 43  1  0
 18 44  1  0
 23 45  1  0
 23 46  1  0
 26 47  1  0
 27 48  1  0
 27 49  1  0
 28 50  1  0
 28 51  1  0
 29 52  1  0
 29 53  1  0
 30 54  1  0
 30 55  1  0
 31 56  1  0
 31 57  1  0
 32 58  1  0
 32 59  1  0
 33 60  1  0
 33 61  1  0
 33 62  1  0
 34 63  1  0
 34 64  1  0
 34 65  1  0
M  END
> <Uni-Dock RESULT> 
ENERGY=   -4.945  LOWER_BOUND=    4.369  UPPER_BOUND=    8.483
INTER + INTRA:          -4.945
INTER:                  -4.945
INTRA:                   0.000
UNBOUND:                 0.000

$$$$

     RDKit          3D

 65 66  0  0  0  0  0  0  0  0999 V2000
   49.7555   10.0061   16.2864 Cl  0  0  0  0  0  0  0  0  0  0  0  0
   47.8485    9.6395   19.0938 C   0  0  0  0  0  0  0  0  0  0  0  0
   47.8658    8.2745   19.2692 C   0  0  0  0  0  0  0  0  0  0  0  0
   48.1639    7.4274   18.2254 C   0  0  0  0  0  0  0  0  0  0  0  0
   48.1400   10.1243   17.8361 C   0  0  0  0  0  0  0  0  0  0  0  0
   48.4443    9.3243   16.7571 C   0  0  0  0  0  0  0  0  0  0  0  0
   47.2257   12.7882   21.0641 C   0  0  0  0  0  0  0  0  0  0  0  0
   48.4492    7.9490   16.9856 C   0  0  0  0  0  0  0  0  0  0  0  0
   47.5546   10.4973   20.1304 C   0  0  0  0  0  0  0  0  0  0  0  0
   48.1956    6.0533   18.3510 C   0  0  0  0  0  0  0  0  0  0  0  0
   47.5425   11.8787   19.9424 C   0  0  0  0  0  0  0  0  0  0  0  0
   47.9101    5.5306   19.5963 C   0  0  0  0  0  0  0  0  0  0  0  0
   48.1285   11.4892   17.6494 C   0  0  0  0  0  0  0  0  0  0  0  0
   47.5866    7.7182   20.4965 C   0  0  0  0  0  0  0  0  0  0  0  0
   47.6066    6.3280   20.6719 C   0  0  0  0  0  0  0  0  0  0  0  0
   48.7540    9.7930   15.4125 C   0  0  1  0  0  0  0  0  0  0  0  0
   50.2434   10.0845   15.2139 C   0  0  0  0  0  0  0  0  0  0  0  0
   47.8345   12.3607   18.6839 C   0  0  0  0  0  0  0  0  0  0  0  0
   47.4701   12.2120   22.2907 F   0  0  0  0  0  0  0  0  0  0  0  0
   45.9028   13.1984   20.9165 F   0  0  0  0  0  0  0  0  0  0  0  0
   48.0052   13.9266   20.9428 F   0  0  0  0  0  0  0  0  0  0  0  0
   48.5875    5.0038   16.9790 Cl  0  0  0  0  0  0  0  0  0  0  0  0
   50.3616   10.5538   13.8073 C   0  0  0  0  0  0  0  0  0  0  0  0
   51.5858   10.8555   13.2440 N   0  0  0  0  0  0  0  0  0  0  0  0
   47.2602    5.5800   22.2055 Cl  0  0  0  0  0  0  0  0  0  0  0  0
   48.4594    8.7813   14.4793 O   0  0  0  0  0  0  0  0  0  0  0  0
   51.5547   11.3711   11.9261 C   0  0  0  0  0  0  0  0  0  0  0  0
   52.8342   10.5555   13.7783 C   0  0  0  0  0  0  0  0  0  0  0  0
   51.1548   10.5242   10.7984 C   0  0  0  0  0  0  0  0  0  0  0  0
   53.2448   11.3340   14.9961 C   0  0  0  0  0  0  0  0  0  0  0  0
   51.9783    9.3282   10.4778 C   0  0  0  0  0  0  0  0  0  0  0  0
   53.2618   12.8293   14.7634 C   0  0  0  0  0  0  0  0  0  0  0  0
   52.1149    8.2823   11.5172 C   0  0  0  0  0  0  0  0  0  0  0  0
   54.2260   13.2355   13.6728 C   0  0  0  0  0  0  0  0  0  0  0  0
   50.5660   10.2265   15.1894 H   0  0  0  0  0  0  0  0  0  0  0  0
   48.6883    7.2730   16.1483 H   0  0  0  0  0  0  0  0  0  0  0  0
   47.3207   10.1686   21.1288 H   0  0  0  0  0  0  0  0  0  0  0  0
   47.9324    4.4714   19.7006 H   0  0  0  0  0  0  0  0  0  0  0  0
   48.3497   11.9456   16.6942 H   0  0  0  0  0  0  0  0  0  0  0  0
   47.3411    8.2793   21.3818 H   0  0  0  0  0  0  0  0  0  0  0  0
   48.1819   10.6778   15.1620 H   0  0  0  0  0  0  0  0  0  0  0  0
   50.5522   10.8658   15.9561 H   0  0  0  0  0  0  0  0  0  0  0  0
   50.7831    9.1627   15.4719 H   0  0  0  0  0  0  0  0  0  0  0  0
   47.8243   13.4516   18.5365 H   0  0  0  0  0  0  0  0  0  0  0  0
   49.7426   11.5233   13.7887 H   0  0  0  0  0  0  0  0  0  0  0  0
   49.8165    9.7959   13.1835 H   0  0  0  0  0  0  0  0  0  0  0  0
   49.2625    8.1932   14.4009 H   0  0  0  0  0  0  0  0  0  0  0  0
   50.9513   12.3262   11.9703 H   0  0  0  0  0  0  0  0  0  0  0  0
   52.5989   11.7502   11.6958 H   0  0  0  0  0  0  0  0  0  0  0  0
   52.9995    9.4570   13.9854 H   0  0  0  0  0  0  0  0  0  0  0  0
   53.6493   10.7631   13.0108 H   0  0  0  0  0  0  0  0  0  0  0  0
   51.1989   11.1800    9.8710 H   0  0  0  0  0  0  0  0  0  0  0  0
   50.0921   10.1921   10.8113 H   0  0  0  0  0  0  0  0  0  0  0  0
   52.7661   11.0515   15.9324 H   0  0  0  0  0  0  0  0  0  0  0  0
   54.3501   11.0612   15.1889 H   0  0  0  0  0  0  0  0  0  0  0  0
   51.4751    8.8437    9.5822 H   0  0  0  0  0  0  0  0  0  0  0  0
   52.9803    9.6168   10.0597 H   0  0  0  0  0  0  0  0  0  0  0  0
   53.4861   13.3629   15.7102 H   0  0  0  0  0  0  0  0  0  0  0  0
   52.2540   13.2034   14.4540 H   0  0  0  0  0  0  0  0  0  0  0  0
   53.1708    8.3094   11.9111 H   0  0  0  0  0  0  0  0  0  0  0  0
   52.0445    7.2567   11.0415 H   0  0  0  0  0  0  0  0  0  0  0  0
   51.3790    8.2810   12.3132 H   0  0  0  0  0  0  0  0  0  0  0  0
   54.9014   14.0551   14.0603 H   0  0  0  0  0  0  0  0  0  0  0  0
   54.8423   12.3600   13.3812 H   0  0  0  0  0  0  0  0  0  0  0  0
   53.6949   13.6160   12.7800 H   0  0  0  0  0  0  0  0  0  0  0  0
  3  2  2  0
  4  3  1  0
  5  2  1  0
  6  5  2  0
  7 11  1  0
  8  6  1  0
  9  2  1  0
 10  4  1  0
 11  9  2  0
 12 15  1  0
 13  5  1  0
 14  3  1  0
 15 14  2  0
 16  6  1  0
 17 16  1  0
 18 11  1  0
 19  7  1  0
 20  7  1  0
 21  7  1  0
 22 10  1  0
 23 17  1  0
 24 23  1  0
 25 15  1  0
 26 16  1  0
 27 24  1  0
 28 24  1  0
 29 27  1  0
 30 28  1  0
 31 29  1  0
 32 30  1  0
 33 31  1  0
 34 32  1  0
 18 13  2  0
  8  4  2  0
 10 12  2  0
  1 35  1  0
  8 36  1  0
  9 37  1  0
 12 38  1  0
 13 39  1  0
 14 40  1  0
 16 41  1  1
 17 42  1  0
 17 43  1  0
 18 44  1  0
 23 45  1  0
 23 46  1  0
 26 47  1  0
 27 48  1  0
 27 49  1  0
 28 50  1  0
 28 51  1  0
 29 52  1  0
 29 53  1  0
 30 54  1  0
 30 55  1  0
 31 56  1  0
 31 57  1  0
 32 58  1  0
 32 59  1  0
 33 60  1  0
 33 61  1  0
 33 62  1  0
 34 63  1  0
 34 64  1  0
 34 65  1  0
M  END
> <Uni-Dock RESULT> 
ENERGY=   -4.877  LOWER_BOUND=    5.405  UPPER_BOUND=    7.408
INTER + INTRA:          -4.877
INTER:                  -4.877
INTRA:                   0.000
UNBOUND:                 0.000

$$$$

     RDKit          3D

 65 66  0  0  0  0  0  0  0  0999 V2000
   53.7854    7.4605   13.3308 Cl  0  0  0  0  0  0  0  0  0  0  0  0
   54.8711    5.4210   10.8180 C   0  0  0  0  0  0  0  0  0  0  0  0
   55.5606    4.4564   11.5168 C   0  0  0  0  0  0  0  0  0  0  0  0
   56.0240    4.6965   12.7911 C   0  0  0  0  0  0  0  0  0  0  0  0
   54.6636    6.6336   11.4412 C   0  0  0  0  0  0  0  0  0  0  0  0
   55.1044    6.9283   12.7123 C   0  0  0  0  0  0  0  0  0  0  0  0
   53.2002    5.9163    7.4793 C   0  0  0  0  0  0  0  0  0  0  0  0
   55.7972    5.9186   13.3789 C   0  0  0  0  0  0  0  0  0  0  0  0
   54.4003    5.1922    9.5442 C   0  0  0  0  0  0  0  0  0  0  0  0
   56.7183    3.7621   13.5326 C   0  0  0  0  0  0  0  0  0  0  0  0
   53.7007    6.1755    8.8461 C   0  0  0  0  0  0  0  0  0  0  0  0
   56.9447    2.5352   12.9421 C   0  0  0  0  0  0  0  0  0  0  0  0
   53.9722    7.6058   10.7523 C   0  0  0  0  0  0  0  0  0  0  0  0
   55.8044    3.2218   10.9599 C   0  0  0  0  0  0  0  0  0  0  0  0
   56.5054    2.2414   11.6750 C   0  0  0  0  0  0  0  0  0  0  0  0
   54.9110    8.1949   13.4063 C   0  0  1  0  0  0  0  0  0  0  0  0
   53.5981    8.2472   14.1912 C   0  0  0  0  0  0  0  0  0  0  0  0
   53.4942    7.3870    9.4718 C   0  0  0  0  0  0  0  0  0  0  0  0
   53.0331    4.5727    7.2287 F   0  0  0  0  0  0  0  0  0  0  0  0
   54.0768    6.5255    6.5844 F   0  0  0  0  0  0  0  0  0  0  0  0
   51.9798    6.5534    7.3280 F   0  0  0  0  0  0  0  0  0  0  0  0
   57.2925    4.1164   15.1704 Cl  0  0  0  0  0  0  0  0  0  0  0  0
   53.5730    9.5980   14.8138 C   0  0  0  0  0  0  0  0  0  0  0  0
   52.5527    9.9882   15.6586 N   0  0  0  0  0  0  0  0  0  0  0  0
   56.8368    0.6663   11.0112 Cl  0  0  0  0  0  0  0  0  0  0  0  0
   55.9161    8.3604   14.3777 O   0  0  0  0  0  0  0  0  0  0  0  0
   52.6021   11.3262   16.1180 C   0  0  0  0  0  0  0  0  0  0  0  0
   51.5866    9.1603   16.2198 C   0  0  0  0  0  0  0  0  0  0  0  0
   53.6472   11.7615   17.0492 C   0  0  0  0  0  0  0  0  0  0  0  0
   50.5492    8.6118   15.2813 C   0  0  0  0  0  0  0  0  0  0  0  0
   53.7099   11.1327   18.3953 C   0  0  0  0  0  0  0  0  0  0  0  0
   49.7744    9.6932   14.5598 C   0  0  0  0  0  0  0  0  0  0  0  0
   53.9290    9.6699   18.4670 C   0  0  0  0  0  0  0  0  0  0  0  0
   49.0288   10.6034   15.5085 C   0  0  0  0  0  0  0  0  0  0  0  0
   53.2664    8.2919   14.3046 H   0  0  0  0  0  0  0  0  0  0  0  0
   56.1670    6.1133   14.3989 H   0  0  0  0  0  0  0  0  0  0  0  0
   54.5365    4.2640    9.0154 H   0  0  0  0  0  0  0  0  0  0  0  0
   57.4799    1.8096   13.5081 H   0  0  0  0  0  0  0  0  0  0  0  0
   53.7665    8.5801   11.1743 H   0  0  0  0  0  0  0  0  0  0  0  0
   55.4912    2.9216    9.9747 H   0  0  0  0  0  0  0  0  0  0  0  0
   54.9477    9.0307   12.7185 H   0  0  0  0  0  0  0  0  0  0  0  0
   52.7515    8.0876   13.4741 H   0  0  0  0  0  0  0  0  0  0  0  0
   53.6058    7.3893   14.8778 H   0  0  0  0  0  0  0  0  0  0  0  0
   52.9421    8.1628    8.9194 H   0  0  0  0  0  0  0  0  0  0  0  0
   53.5476   10.3143   13.9139 H   0  0  0  0  0  0  0  0  0  0  0  0
   54.5699    9.7241   15.3148 H   0  0  0  0  0  0  0  0  0  0  0  0
   55.6077    7.9156   15.2168 H   0  0  0  0  0  0  0  0  0  0  0  0
   52.5575   11.9822   15.1983 H   0  0  0  0  0  0  0  0  0  0  0  0
   51.6075   11.5389   16.6206 H   0  0  0  0  0  0  0  0  0  0  0  0
   52.0040    8.3046   16.8285 H   0  0  0  0  0  0  0  0  0  0  0  0
   50.9945    9.7280   17.0096 H   0  0  0  0  0  0  0  0  0  0  0  0
   53.4692   12.8679   17.2395 H   0  0  0  0  0  0  0  0  0  0  0  0
   54.6816   11.7489   16.6370 H   0  0  0  0  0  0  0  0  0  0  0  0
   50.8718    7.8053   14.6247 H   0  0  0  0  0  0  0  0  0  0  0  0
   49.7626    8.0913   15.9474 H   0  0  0  0  0  0  0  0  0  0  0  0
   54.5869   11.6269   18.9213 H   0  0  0  0  0  0  0  0  0  0  0  0
   52.8421   11.4440   19.0373 H   0  0  0  0  0  0  0  0  0  0  0  0
   49.0834    9.2411   13.8185 H   0  0  0  0  0  0  0  0  0  0  0  0
   50.4542   10.3470   13.9583 H   0  0  0  0  0  0  0  0  0  0  0  0
   52.9722    9.1844   18.8128 H   0  0  0  0  0  0  0  0  0  0  0  0
   54.6550    9.4310   19.3031 H   0  0  0  0  0  0  0  0  0  0  0  0
   54.3382    9.1902   17.5853 H   0  0  0  0  0  0  0  0  0  0  0  0
   47.9480   10.6731   15.1840 H   0  0  0  0  0  0  0  0  0  0  0  0
   49.0770   10.1846   16.5348 H   0  0  0  0  0  0  0  0  0  0  0  0
   49.4562   11.6238   15.5149 H   0  0  0  0  0  0  0  0  0  0  0  0
  3  2  2  0
  4  3  1  0
  5  2  1  0
  6  5  2  0
  7 11  1  0
  8  6  1  0
  9  2  1  0
 10  4  1  0
 11  9  2  0
 12 15  1  0
 13  5  1  0
 14  3  1  0
 15 14  2  0
 16  6  1  0
 17 16  1  0
 18 11  1  0
 19  7  1  0
 20  7  1  0
 21  7  1  0
 22 10  1  0
 23 17  1  0
 24 23  1  0
 25 15  1  0
 26 16  1  0
 27 24  1  0
 28 24  1  0
 29 27  1  0
 30 28  1  0
 31 29  1  0
 32 30  1  0
 33 31  1  0
 34 32  1  0
 18 13  2  0
  8  4  2  0
 10 12  2  0
  1 35  1  0
  8 36  1  0
  9 37  1  0
 12 38  1  0
 13 39  1  0
 14 40  1  0
 16 41  1  1
 17 42  1  0
 17 43  1  0
 18 44  1  0
 23 45  1  0
 23 46  1  0
 26 47  1  0
 27 48  1  0
 27 49  1  0
 28 50  1  0
 28 51  1  0
 29 52  1  0
 29 53  1  0
 30 54  1  0
 30 55  1  0
 31 56  1  0
 31 57  1  0
 32 58  1  0
 32 59  1  0
 33 60  1  0
 33 61  1  0
 33 62  1  0
 34 63  1  0
 34 64  1  0
 34 65  1  0
M  END
> <Uni-Dock RESULT> 
ENERGY=   -4.774  LOWER_BOUND=    7.005  UPPER_BOUND=    8.533
INTER + INTRA:          -4.774
INTER:                  -4.774
INTRA:                   0.000
UNBOUND:                 0.000

$$$$

     RDKit          3D

 65 66  0  0  0  0  0  0  0  0999 V2000
   47.9385    8.4308   14.8954 Cl  0  0  0  0  0  0  0  0  0  0  0  0
   47.2629   10.7199   12.4549 C   0  0  0  0  0  0  0  0  0  0  0  0
   46.0819   10.2389   11.9373 C   0  0  0  0  0  0  0  0  0  0  0  0
   45.7119    8.9241   12.1130 C   0  0  0  0  0  0  0  0  0  0  0  0
   48.0591    9.8370   13.1537 C   0  0  0  0  0  0  0  0  0  0  0  0
   47.7393    8.5133   13.3595 C   0  0  0  0  0  0  0  0  0  0  0  0
   49.2355   13.9232   12.6332 C   0  0  0  0  0  0  0  0  0  0  0  0
   46.5328    8.0741   12.8159 C   0  0  0  0  0  0  0  0  0  0  0  0
   47.6427   12.0331   12.2883 C   0  0  0  0  0  0  0  0  0  0  0  0
   44.5384    8.3950   11.6154 C   0  0  0  0  0  0  0  0  0  0  0  0
   48.8401   12.5108   12.8191 C   0  0  0  0  0  0  0  0  0  0  0  0
   43.7143    9.2494   10.9107 C   0  0  0  0  0  0  0  0  0  0  0  0
   49.2424   10.3081   13.6788 C   0  0  0  0  0  0  0  0  0  0  0  0
   45.2357   11.0616   11.2297 C   0  0  0  0  0  0  0  0  0  0  0  0
   44.0331   10.5688   10.7055 C   0  0  0  0  0  0  0  0  0  0  0  0
   48.5513    7.5462   14.0868 C   0  0  1  0  0  0  0  0  0  0  0  0
   48.2473    7.5247   15.5867 C   0  0  0  0  0  0  0  0  0  0  0  0
   49.6342   11.6259   13.5177 C   0  0  0  0  0  0  0  0  0  0  0  0
   48.1549   14.7425   12.3943 F   0  0  0  0  0  0  0  0  0  0  0  0
   50.1806   13.9677   11.6110 F   0  0  0  0  0  0  0  0  0  0  0  0
   49.8783   14.3563   13.7810 F   0  0  0  0  0  0  0  0  0  0  0  0
   44.1036    6.6968   11.8698 Cl  0  0  0  0  0  0  0  0  0  0  0  0
   49.1658    6.5007   16.1530 C   0  0  0  0  0  0  0  0  0  0  0  0
   49.1337    6.1581   17.4903 N   0  0  0  0  0  0  0  0  0  0  0  0
   42.9321   11.5724    9.8043 Cl  0  0  0  0  0  0  0  0  0  0  0  0
   48.2499    6.2454   13.6414 O   0  0  0  0  0  0  0  0  0  0  0  0
   50.1147    5.2323   17.9197 C   0  0  0  0  0  0  0  0  0  0  0  0
   48.1464    6.5061   18.4058 C   0  0  0  0  0  0  0  0  0  0  0  0
   50.0717    3.8350   17.4786 C   0  0  0  0  0  0  0  0  0  0  0  0
   48.0920    7.9513   18.8133 C   0  0  0  0  0  0  0  0  0  0  0  0
   48.8979    3.0039   17.8565 C   0  0  0  0  0  0  0  0  0  0  0  0
   49.3878    8.4429   19.4213 C   0  0  0  0  0  0  0  0  0  0  0  0
   47.5622    3.4373   17.3867 C   0  0  0  0  0  0  0  0  0  0  0  0
   49.7695    7.6793   20.6685 C   0  0  0  0  0  0  0  0  0  0  0  0
   48.2373    7.5732   15.9365 H   0  0  0  0  0  0  0  0  0  0  0  0
   46.2390    7.0213   12.9582 H   0  0  0  0  0  0  0  0  0  0  0  0
   47.0570   12.7602   11.7517 H   0  0  0  0  0  0  0  0  0  0  0  0
   42.8075    8.8480   10.5237 H   0  0  0  0  0  0  0  0  0  0  0  0
   49.9183    9.6787   14.2416 H   0  0  0  0  0  0  0  0  0  0  0  0
   45.4194   12.1034   11.0300 H   0  0  0  0  0  0  0  0  0  0  0  0
   49.6085    7.7302   13.9407 H   0  0  0  0  0  0  0  0  0  0  0  0
   48.4371    8.5492   16.0001 H   0  0  0  0  0  0  0  0  0  0  0  0
   47.1707    7.3297   15.6884 H   0  0  0  0  0  0  0  0  0  0  0  0
   50.5796   12.0041   13.9360 H   0  0  0  0  0  0  0  0  0  0  0  0
   50.2138    6.9287   15.9477 H   0  0  0  0  0  0  0  0  0  0  0  0
   49.0440    5.5889   15.5092 H   0  0  0  0  0  0  0  0  0  0  0  0
   47.4733    5.9116   14.1728 H   0  0  0  0  0  0  0  0  0  0  0  0
   51.1181    5.7093   17.7105 H   0  0  0  0  0  0  0  0  0  0  0  0
   50.0805    5.2182   19.0536 H   0  0  0  0  0  0  0  0  0  0  0  0
   47.1050    6.1792   18.1133 H   0  0  0  0  0  0  0  0  0  0  0  0
   48.2949    5.9339   19.3790 H   0  0  0  0  0  0  0  0  0  0  0  0
   50.9706    3.3210   17.9474 H   0  0  0  0  0  0  0  0  0  0  0  0
   50.2425    3.6786   16.3894 H   0  0  0  0  0  0  0  0  0  0  0  0
   47.6718    8.6420   18.0839 H   0  0  0  0  0  0  0  0  0  0  0  0
   47.3296    8.0082   19.6786 H   0  0  0  0  0  0  0  0  0  0  0  0
   49.0930    1.9796   17.4061 H   0  0  0  0  0  0  0  0  0  0  0  0
   48.8872    2.7809   18.9575 H   0  0  0  0  0  0  0  0  0  0  0  0
   49.3274    9.5319   19.6257 H   0  0  0  0  0  0  0  0  0  0  0  0
   50.2401    8.3313   18.7053 H   0  0  0  0  0  0  0  0  0  0  0  0
   46.9777    3.8113   18.2752 H   0  0  0  0  0  0  0  0  0  0  0  0
   46.9642    2.5374   17.0464 H   0  0  0  0  0  0  0  0  0  0  0  0
   47.5349    4.1318   16.5548 H   0  0  0  0  0  0  0  0  0  0  0  0
   49.9857    8.4126   21.5014 H   0  0  0  0  0  0  0  0  0  0  0  0
   48.9286    7.0208   20.9689 H   0  0  0  0  0  0  0  0  0  0  0  0
   50.6724    7.0605   20.5073 H   0  0  0  0  0  0  0  0  0  0  0  0
  3  2  2  0
  4  3  1  0
  5  2  1  0
  6  5  2  0
  7 11  1  0
  8  6  1  0
  9  2  1  0
 10  4  1  0
 11  9  2  0
 12 15  1  0
 13  5  1  0
 14  3  1  0
 15 14  2  0
 16  6  1  0
 17 16  1  0
 18 11  1  0
 19  7  1  0
 20  7  1  0
 21  7  1  0
 22 10  1  0
 23 17  1  0
 24 23  1  0
 25 15  1  0
 26 16  1  0
 27 24  1  0
 28 24  1  0
 29 27  1  0
 30 28  1  0
 31 29  1  0
 32 30  1  0
 33 31  1  0
 34 32  1  0
 18 13  2  0
  8  4  2  0
 10 12  2  0
  1 35  1  0
  8 36  1  0
  9 37  1  0
 12 38  1  0
 13 39  1  0
 14 40  1  0
 16 41  1  1
 17 42  1  0
 17 43  1  0
 18 44  1  0
 23 45  1  0
 23 46  1  0
 26 47  1  0
 27 48  1  0
 27 49  1  0
 28 50  1  0
 28 51  1  0
 29 52  1  0
 29 53  1  0
 30 54  1  0
 30 55  1  0
 31 56  1  0
 31 57  1  0
 32 58  1  0
 32 59  1  0
 33 60  1  0
 33 61  1  0
 33 62  1  0
 34 63  1  0
 34 64  1  0
 34 65  1  0
M  END
> <Uni-Dock RESULT> 
ENERGY=   -4.757  LOWER_BOUND=    3.540  UPPER_BOUND=    5.117
INTER + INTRA:          -4.757
INTER:                  -4.757
INTRA:                   0.000
UNBOUND:                 0.000

$$$$
