
     RDKit          3D

 65 66  0  0  0  0  0  0  0  0999 V2000
   47.7196    8.5053   14.7833 Cl  0  0  0  0  0  0  0  0  0  0  0  0
   46.0692    8.6382   12.4288 C   0  0  0  0  0  0  0  0  0  0  0  0
   45.6181    7.3450   12.5693 C   0  0  0  0  0  0  0  0  0  0  0  0
   46.4619    6.3977   13.1453 C   0  0  0  0  0  0  0  0  0  0  0  0
   47.3294    8.9477   12.8597 C   0  0  0  0  0  0  0  0  0  0  0  0
   48.2064    8.0576   13.4355 C   0  0  0  0  0  0  0  0  0  0  0  0
   44.8200   11.9383   11.0920 C   0  0  0  0  0  0  0  0  0  0  0  0
   47.7266    6.7465   13.5683 C   0  0  0  0  0  0  0  0  0  0  0  0
   45.2495    9.5760   11.8619 C   0  0  0  0  0  0  0  0  0  0  0  0
   46.0778    5.0808   13.3233 C   0  0  0  0  0  0  0  0  0  0  0  0
   45.7004   10.8942   11.7125 C   0  0  0  0  0  0  0  0  0  0  0  0
   44.8155    4.7288   12.9066 C   0  0  0  0  0  0  0  0  0  0  0  0
   47.7583   10.2505   12.7051 C   0  0  0  0  0  0  0  0  0  0  0  0
   44.3701    6.9360   12.1725 C   0  0  0  0  0  0  0  0  0  0  0  0
   43.9298    5.6155   12.3287 C   0  0  0  0  0  0  0  0  0  0  0  0
   49.5321    8.4593   13.8659 C   0  0  1  0  0  0  0  0  0  0  0  0
   49.4275    8.9767   15.3211 C   0  0  0  0  0  0  0  0  0  0  0  0
   46.9670   11.2279   12.1398 C   0  0  0  0  0  0  0  0  0  0  0  0
   44.8181   13.0614   11.8806 F   0  0  0  0  0  0  0  0  0  0  0  0
   43.5446   11.4495   10.9451 F   0  0  0  0  0  0  0  0  0  0  0  0
   45.2952   12.2340    9.8222 F   0  0  0  0  0  0  0  0  0  0  0  0
   47.1580    3.9123   14.0497 Cl  0  0  0  0  0  0  0  0  0  0  0  0
   48.9143    7.8818   16.1915 C   0  0  0  0  0  0  0  0  0  0  0  0
   48.8271    8.1830   17.5379 N   0  0  0  0  0  0  0  0  0  0  0  0
   42.3216    5.1392   11.8042 Cl  0  0  0  0  0  0  0  0  0  0  0  0
   50.2924    7.2623   13.9226 O   0  0  0  0  0  0  0  0  0  0  0  0
   47.9337    9.0492   18.0903 C   0  0  0  0  0  0  0  0  0  0  0  0
   49.6414    7.3417   18.3589 C   0  0  0  0  0  0  0  0  0  0  0  0
   48.0105   10.5232   17.8995 C   0  0  0  0  0  0  0  0  0  0  0  0
   51.1083    7.6398   18.0820 C   0  0  0  0  0  0  0  0  0  0  0  0
   49.3177   11.1185   18.3630 C   0  0  0  0  0  0  0  0  0  0  0  0
   51.9923    6.7717   18.9326 C   0  0  0  0  0  0  0  0  0  0  0  0
   49.2472   12.6239   18.1028 C   0  0  0  0  0  0  0  0  0  0  0  0
   51.7896    5.3020   18.6956 C   0  0  0  0  0  0  0  0  0  0  0  0
   48.5498    8.5472   15.8864 H   0  0  0  0  0  0  0  0  0  0  0  0
   48.3768    6.0005   14.0180 H   0  0  0  0  0  0  0  0  0  0  0  0
   44.2509    9.4005   11.5016 H   0  0  0  0  0  0  0  0  0  0  0  0
   44.4742    3.7001   13.0297 H   0  0  0  0  0  0  0  0  0  0  0  0
   48.7544   10.5851   13.0239 H   0  0  0  0  0  0  0  0  0  0  0  0
   43.6561    7.6002   11.7194 H   0  0  0  0  0  0  0  0  0  0  0  0
   50.1257    9.1056   13.2360 H   0  0  0  0  0  0  0  0  0  0  0  0
   50.3813    9.3987   15.6514 H   0  0  0  0  0  0  0  0  0  0  0  0
   48.6773    9.8106   15.3287 H   0  0  0  0  0  0  0  0  0  0  0  0
   47.2738   12.2511   12.0069 H   0  0  0  0  0  0  0  0  0  0  0  0
   47.8681    7.5536   15.8256 H   0  0  0  0  0  0  0  0  0  0  0  0
   49.4873    6.9190   16.0196 H   0  0  0  0  0  0  0  0  0  0  0  0
   50.1690    6.7748   13.0647 H   0  0  0  0  0  0  0  0  0  0  0  0
   47.8538    8.8171   19.2217 H   0  0  0  0  0  0  0  0  0  0  0  0
   46.8352    8.7963   17.8005 H   0  0  0  0  0  0  0  0  0  0  0  0
   49.4231    7.4937   19.4422 H   0  0  0  0  0  0  0  0  0  0  0  0
   49.5150    6.2484   18.1155 H   0  0  0  0  0  0  0  0  0  0  0  0
   47.2560   10.9581   18.6699 H   0  0  0  0  0  0  0  0  0  0  0  0
   47.7211   10.9404   16.9539 H   0  0  0  0  0  0  0  0  0  0  0  0
   51.3539    8.6976   18.2086 H   0  0  0  0  0  0  0  0  0  0  0  0
   51.2942    7.3795   17.0136 H   0  0  0  0  0  0  0  0  0  0  0  0
   49.4871   10.9691   19.4444 H   0  0  0  0  0  0  0  0  0  0  0  0
   50.1634   10.7373   17.7783 H   0  0  0  0  0  0  0  0  0  0  0  0
   53.0634    6.9996   18.7830 H   0  0  0  0  0  0  0  0  0  0  0  0
   51.7411    6.9714   19.9967 H   0  0  0  0  0  0  0  0  0  0  0  0
   49.2939   12.8715   17.0289 H   0  0  0  0  0  0  0  0  0  0  0  0
   50.0738   13.1298   18.6683 H   0  0  0  0  0  0  0  0  0  0  0  0
   48.2849   13.0652   18.4763 H   0  0  0  0  0  0  0  0  0  0  0  0
   52.7505    4.7690   18.9214 H   0  0  0  0  0  0  0  0  0  0  0  0
   51.0555    4.8385   19.4052 H   0  0  0  0  0  0  0  0  0  0  0  0
   51.5527    5.0612   17.6276 H   0  0  0  0  0  0  0  0  0  0  0  0
  3  2  2  0
  4  3  1  0
  5  2  1  0
  6  5  2  0
  7 11  1  0
  8  6  1  0
  9  2  1  0
 10  4  1  0
 11  9  2  0
 12 15  1  0
 13  5  1  0
 14  3  1  0
 15 14  2  0
 16  6  1  0
 17 16  1  0
 18 11  1  0
 19  7  1  0
 20  7  1  0
 21  7  1  0
 22 10  1  0
 23 17  1  0
 24 23  1  0
 25 15  1  0
 26 16  1  0
 27 24  1  0
 28 24  1  0
 29 27  1  0
 30 28  1  0
 31 29  1  0
 32 30  1  0
 33 31  1  0
 34 32  1  0
 18 13  2  0
  8  4  2  0
 10 12  2  0
  1 35  1  0
  8 36  1  0
  9 37  1  0
 12 38  1  0
 13 39  1  0
 14 40  1  0
 16 41  1  1
 17 42  1  0
 17 43  1  0
 18 44  1  0
 23 45  1  0
 23 46  1  0
 26 47  1  0
 27 48  1  0
 27 49  1  0
 28 50  1  0
 28 51  1  0
 29 52  1  0
 29 53  1  0
 30 54  1  0
 30 55  1  0
 31 56  1  0
 31 57  1  0
 32 58  1  0
 32 59  1  0
 33 60  1  0
 33 61  1  0
 33 62  1  0
 34 63  1  0
 34 64  1  0
 34 65  1  0
M  END
> <Uni-Dock RESULT> 
ENERGY=   -5.851  LOWER_BOUND=    0.000  UPPER_BOUND=    0.000
INTER + INTRA:          -5.851
INTER:                  -5.851
INTRA:                   0.000
UNBOUND:                 0.000

$$$$

     RDKit          3D

 65 66  0  0  0  0  0  0  0  0999 V2000
   49.1782    8.8165   18.9822 Cl  0  0  0  0  0  0  0  0  0  0  0  0
   48.3057    6.9466   16.9755 C   0  0  0  0  0  0  0  0  0  0  0  0
   48.7004    7.7532   15.9317 C   0  0  0  0  0  0  0  0  0  0  0  0
   48.6537    9.1359   16.0960 C   0  0  0  0  0  0  0  0  0  0  0  0
   47.8819    7.5307   18.1368 C   0  0  0  0  0  0  0  0  0  0  0  0
   47.8145    8.8870   18.3580 C   0  0  0  0  0  0  0  0  0  0  0  0
   47.9758    3.2652   17.7348 C   0  0  0  0  0  0  0  0  0  0  0  0
   48.2207    9.6894   17.2819 C   0  0  0  0  0  0  0  0  0  0  0  0
   48.3450    5.5871   16.8237 C   0  0  0  0  0  0  0  0  0  0  0  0
   49.0378   10.0098   15.0950 C   0  0  0  0  0  0  0  0  0  0  0  0
   47.9431    4.7580   17.8793 C   0  0  0  0  0  0  0  0  0  0  0  0
   49.4745    9.4624   13.9114 C   0  0  0  0  0  0  0  0  0  0  0  0
   47.4893    6.6999   19.1666 C   0  0  0  0  0  0  0  0  0  0  0  0
   49.1446    7.2644   14.7292 C   0  0  0  0  0  0  0  0  0  0  0  0
   49.5455    8.1034   13.6818 C   0  0  0  0  0  0  0  0  0  0  0  0
   47.3500    9.4347   19.6184 C   0  0  1  0  0  0  0  0  0  0  0  0
   48.5667    9.5507   20.5682 C   0  0  0  0  0  0  0  0  0  0  0  0
   47.5124    5.3256   19.0585 C   0  0  0  0  0  0  0  0  0  0  0  0
   48.5958    2.7141   18.8281 F   0  0  0  0  0  0  0  0  0  0  0  0
   48.6360    2.9200   16.5806 F   0  0  0  0  0  0  0  0  0  0  0  0
   46.6759    2.7932   17.6212 F   0  0  0  0  0  0  0  0  0  0  0  0
   48.9691   11.7420   15.3288 Cl  0  0  0  0  0  0  0  0  0  0  0  0
   49.5780   10.4572   19.9556 C   0  0  0  0  0  0  0  0  0  0  0  0
   50.6994   10.7049   20.7253 N   0  0  0  0  0  0  0  0  0  0  0  0
   50.1070    7.4298   12.1589 Cl  0  0  0  0  0  0  0  0  0  0  0  0
   46.9428   10.7630   19.3287 O   0  0  0  0  0  0  0  0  0  0  0  0
   51.6739    9.7960   21.0045 C   0  0  0  0  0  0  0  0  0  0  0  0
   50.8646   12.0866   21.0546 C   0  0  0  0  0  0  0  0  0  0  0  0
   51.4648    8.6383   21.9159 C   0  0  0  0  0  0  0  0  0  0  0  0
   49.7528   12.5119   22.0035 C   0  0  0  0  0  0  0  0  0  0  0  0
   51.0364    9.0415   23.3057 C   0  0  0  0  0  0  0  0  0  0  0  0
   49.8995   13.9617   22.3713 C   0  0  0  0  0  0  0  0  0  0  0  0
   50.8611    7.7566   24.1163 C   0  0  0  0  0  0  0  0  0  0  0  0
   49.8448   14.8849   21.1873 C   0  0  0  0  0  0  0  0  0  0  0  0
   49.5516    9.6427   20.0242 H   0  0  0  0  0  0  0  0  0  0  0  0
   48.1894   10.7694   17.4008 H   0  0  0  0  0  0  0  0  0  0  0  0
   48.6653    5.0637   15.9399 H   0  0  0  0  0  0  0  0  0  0  0  0
   49.7869   10.1175   13.0971 H   0  0  0  0  0  0  0  0  0  0  0  0
   47.1364    7.0846   20.1327 H   0  0  0  0  0  0  0  0  0  0  0  0
   49.2123    6.2124   14.5172 H   0  0  0  0  0  0  0  0  0  0  0  0
   46.4844    9.0051   20.1012 H   0  0  0  0  0  0  0  0  0  0  0  0
   48.2479    9.8514   21.5707 H   0  0  0  0  0  0  0  0  0  0  0  0
   49.0215    8.5294   20.6590 H   0  0  0  0  0  0  0  0  0  0  0  0
   47.2132    4.6531   19.8440 H   0  0  0  0  0  0  0  0  0  0  0  0
   49.9239   10.0234   18.9415 H   0  0  0  0  0  0  0  0  0  0  0  0
   49.1010   11.4212   19.5980 H   0  0  0  0  0  0  0  0  0  0  0  0
   46.3391   10.7377   18.5390 H   0  0  0  0  0  0  0  0  0  0  0  0
   52.6237   10.3706   21.3333 H   0  0  0  0  0  0  0  0  0  0  0  0
   52.1114    9.3073   20.0430 H   0  0  0  0  0  0  0  0  0  0  0  0
   51.8572   12.2780   21.5261 H   0  0  0  0  0  0  0  0  0  0  0  0
   50.7557   12.7600   20.1573 H   0  0  0  0  0  0  0  0  0  0  0  0
   52.5317    8.2148   22.1012 H   0  0  0  0  0  0  0  0  0  0  0  0
   50.8853    7.8034   21.5707 H   0  0  0  0  0  0  0  0  0  0  0  0
   49.6967   11.8819   22.8953 H   0  0  0  0  0  0  0  0  0  0  0  0
   48.7924   12.3921   21.4493 H   0  0  0  0  0  0  0  0  0  0  0  0
   51.7947    9.6628   23.8152 H   0  0  0  0  0  0  0  0  0  0  0  0
   50.0615    9.5434   23.2968 H   0  0  0  0  0  0  0  0  0  0  0  0
   49.1293   14.2848   23.0953 H   0  0  0  0  0  0  0  0  0  0  0  0
   50.8965   14.0921   22.8448 H   0  0  0  0  0  0  0  0  0  0  0  0
   49.9771    7.1754   23.8043 H   0  0  0  0  0  0  0  0  0  0  0  0
   50.8059    8.0187   25.2059 H   0  0  0  0  0  0  0  0  0  0  0  0
   51.7384    7.0665   23.9955 H   0  0  0  0  0  0  0  0  0  0  0  0
   49.4456   15.8767   21.5273 H   0  0  0  0  0  0  0  0  0  0  0  0
   50.8575   15.1332   20.7751 H   0  0  0  0  0  0  0  0  0  0  0  0
   49.1409   14.5314   20.3908 H   0  0  0  0  0  0  0  0  0  0  0  0
  3  2  2  0
  4  3  1  0
  5  2  1  0
  6  5  2  0
  7 11  1  0
  8  6  1  0
  9  2  1  0
 10  4  1  0
 11  9  2  0
 12 15  1  0
 13  5  1  0
 14  3  1  0
 15 14  2  0
 16  6  1  0
 17 16  1  0
 18 11  1  0
 19  7  1  0
 20  7  1  0
 21  7  1  0
 22 10  1  0
 23 17  1  0
 24 23  1  0
 25 15  1  0
 26 16  1  0
 27 24  1  0
 28 24  1  0
 29 27  1  0
 30 28  1  0
 31 29  1  0
 32 30  1  0
 33 31  1  0
 34 32  1  0
 18 13  2  0
  8  4  2  0
 10 12  2  0
  1 35  1  0
  8 36  1  0
  9 37  1  0
 12 38  1  0
 13 39  1  0
 14 40  1  0
 16 41  1  1
 17 42  1  0
 17 43  1  0
 18 44  1  0
 23 45  1  0
 23 46  1  0
 26 47  1  0
 27 48  1  0
 27 49  1  0
 28 50  1  0
 28 51  1  0
 29 52  1  0
 29 53  1  0
 30 54  1  0
 30 55  1  0
 31 56  1  0
 31 57  1  0
 32 58  1  0
 32 59  1  0
 33 60  1  0
 33 61  1  0
 33 62  1  0
 34 63  1  0
 34 64  1  0
 34 65  1  0
M  END
> <Uni-Dock RESULT> 
ENERGY=   -4.754  LOWER_BOUND=    5.151  UPPER_BOUND=    7.381
INTER + INTRA:          -4.754
INTER:                  -4.754
INTRA:                   0.000
UNBOUND:                 0.000

$$$$

     RDKit          3D

 65 66  0  0  0  0  0  0  0  0999 V2000
   50.7426    6.4980   16.6630 Cl  0  0  0  0  0  0  0  0  0  0  0  0
   52.2462    5.1692   18.7266 C   0  0  0  0  0  0  0  0  0  0  0  0
   51.9313    3.9114   18.2634 C   0  0  0  0  0  0  0  0  0  0  0  0
   50.7015    3.7136   17.6389 C   0  0  0  0  0  0  0  0  0  0  0  0
   51.3414    6.1802   18.5574 C   0  0  0  0  0  0  0  0  0  0  0  0
   50.1144    6.0463   17.9496 C   0  0  0  0  0  0  0  0  0  0  0  0
   55.0921    6.8969   20.5025 C   0  0  0  0  0  0  0  0  0  0  0  0
   49.8141    4.7572   17.4859 C   0  0  0  0  0  0  0  0  0  0  0  0
   53.4503    5.3739   19.3439 C   0  0  0  0  0  0  0  0  0  0  0  0
   50.3167    2.4804   17.1445 C   0  0  0  0  0  0  0  0  0  0  0  0
   53.7789    6.6497   19.8208 C   0  0  0  0  0  0  0  0  0  0  0  0
   51.2004    1.4370   17.2910 C   0  0  0  0  0  0  0  0  0  0  0  0
   51.6804    7.4307   19.0329 C   0  0  0  0  0  0  0  0  0  0  0  0
   52.7719    2.8336   18.3813 C   0  0  0  0  0  0  0  0  0  0  0  0
   52.4330    1.5631   17.8989 C   0  0  0  0  0  0  0  0  0  0  0  0
   49.2036    7.1666   17.8091 C   0  0  1  0  0  0  0  0  0  0  0  0
   49.5449    7.8992   16.4889 C   0  0  0  0  0  0  0  0  0  0  0  0
   52.8817    7.6830   19.6608 C   0  0  0  0  0  0  0  0  0  0  0  0
   55.6826    8.0131   19.9650 F   0  0  0  0  0  0  0  0  0  0  0  0
   55.9090    5.8018   20.3582 F   0  0  0  0  0  0  0  0  0  0  0  0
   54.8709    7.0681   21.8616 F   0  0  0  0  0  0  0  0  0  0  0  0
   48.7664    2.2607   16.3646 Cl  0  0  0  0  0  0  0  0  0  0  0  0
   49.3764    6.9539   15.3497 C   0  0  0  0  0  0  0  0  0  0  0  0
   49.5890    7.4912   14.0938 N   0  0  0  0  0  0  0  0  0  0  0  0
   53.5437    0.2125   18.0739 Cl  0  0  0  0  0  0  0  0  0  0  0  0
   47.9193    6.5917   17.6248 O   0  0  0  0  0  0  0  0  0  0  0  0
   50.7981    7.8782   13.6019 C   0  0  0  0  0  0  0  0  0  0  0  0
   48.4369    7.4261   13.2491 C   0  0  0  0  0  0  0  0  0  0  0  0
   51.5267    9.0785   14.0952 C   0  0  0  0  0  0  0  0  0  0  0  0
   47.3633    8.3581   13.7934 C   0  0  0  0  0  0  0  0  0  0  0  0
   50.7349   10.3561   13.9590 C   0  0  0  0  0  0  0  0  0  0  0  0
   46.1376    8.3144   12.9249 C   0  0  0  0  0  0  0  0  0  0  0  0
   51.6058   11.4889   14.5041 C   0  0  0  0  0  0  0  0  0  0  0  0
   45.5248    6.9461   12.8283 C   0  0  0  0  0  0  0  0  0  0  0  0
   50.0459    7.2353   15.7256 H   0  0  0  0  0  0  0  0  0  0  0  0
   48.8579    4.5931   16.9959 H   0  0  0  0  0  0  0  0  0  0  0  0
   54.2050    4.6252   19.5103 H   0  0  0  0  0  0  0  0  0  0  0  0
   50.9349    0.4484   16.9141 H   0  0  0  0  0  0  0  0  0  0  0  0
   51.0138    8.2982   18.9384 H   0  0  0  0  0  0  0  0  0  0  0  0
   53.7381    2.8969   18.8488 H   0  0  0  0  0  0  0  0  0  0  0  0
   49.0597    7.8456   18.6367 H   0  0  0  0  0  0  0  0  0  0  0  0
   48.9606    8.8194   16.3946 H   0  0  0  0  0  0  0  0  0  0  0  0
   50.6250    8.1978   16.5391 H   0  0  0  0  0  0  0  0  0  0  0  0
   53.1735    8.6469   20.0410 H   0  0  0  0  0  0  0  0  0  0  0  0
   50.0896    6.0541   15.4837 H   0  0  0  0  0  0  0  0  0  0  0  0
   48.3796    6.4174   15.4064 H   0  0  0  0  0  0  0  0  0  0  0  0
   47.7765    5.9147   18.3390 H   0  0  0  0  0  0  0  0  0  0  0  0
   50.7222    7.9286   12.4478 H   0  0  0  0  0  0  0  0  0  0  0  0
   51.5945    7.0321   13.6698 H   0  0  0  0  0  0  0  0  0  0  0  0
   48.6845    7.7080   12.1987 H   0  0  0  0  0  0  0  0  0  0  0  0
   47.9615    6.4041   13.2458 H   0  0  0  0  0  0  0  0  0  0  0  0
   52.3837    9.2377   13.3257 H   0  0  0  0  0  0  0  0  0  0  0  0
   52.0105    9.0356   15.0523 H   0  0  0  0  0  0  0  0  0  0  0  0
   47.7211    9.3834   13.9203 H   0  0  0  0  0  0  0  0  0  0  0  0
   47.0848    7.9744   14.8029 H   0  0  0  0  0  0  0  0  0  0  0  0
   50.4937   10.5904   12.9066 H   0  0  0  0  0  0  0  0  0  0  0  0
   49.8266   10.3342   14.5728 H   0  0  0  0  0  0  0  0  0  0  0  0
   45.3583    9.0164   13.2736 H   0  0  0  0  0  0  0  0  0  0  0  0
   46.4389    8.6136   11.8978 H   0  0  0  0  0  0  0  0  0  0  0  0
   51.7171   11.4484   15.6007 H   0  0  0  0  0  0  0  0  0  0  0  0
   51.1699   12.4708   14.1802 H   0  0  0  0  0  0  0  0  0  0  0  0
   52.6484   11.4474   14.0897 H   0  0  0  0  0  0  0  0  0  0  0  0
   44.4242    7.0610   12.6437 H   0  0  0  0  0  0  0  0  0  0  0  0
   45.8839    6.3643   11.9396 H   0  0  0  0  0  0  0  0  0  0  0  0
   45.6134    6.3604   13.7790 H   0  0  0  0  0  0  0  0  0  0  0  0
  3  2  2  0
  4  3  1  0
  5  2  1  0
  6  5  2  0
  7 11  1  0
  8  6  1  0
  9  2  1  0
 10  4  1  0
 11  9  2  0
 12 15  1  0
 13  5  1  0
 14  3  1  0
 15 14  2  0
 16  6  1  0
 17 16  1  0
 18 11  1  0
 19  7  1  0
 20  7  1  0
 21  7  1  0
 22 10  1  0
 23 17  1  0
 24 23  1  0
 25 15  1  0
 26 16  1  0
 27 24  1  0
 28 24  1  0
 29 27  1  0
 30 28  1  0
 31 29  1  0
 32 30  1  0
 33 31  1  0
 34 32  1  0
 18 13  2  0
  8  4  2  0
 10 12  2  0
  1 35  1  0
  8 36  1  0
  9 37  1  0
 12 38  1  0
 13 39  1  0
 14 40  1  0
 16 41  1  1
 17 42  1  0
 17 43  1  0
 18 44  1  0
 23 45  1  0
 23 46  1  0
 26 47  1  0
 27 48  1  0
 27 49  1  0
 28 50  1  0
 28 51  1  0
 29 52  1  0
 29 53  1  0
 30 54  1  0
 30 55  1  0
 31 56  1  0
 31 57  1  0
 32 58  1  0
 32 59  1  0
 33 60  1  0
 33 61  1  0
 33 62  1  0
 34 63  1  0
 34 64  1  0
 34 65  1  0
M  END
> <Uni-Dock RESULT> 
ENERGY=   -4.624  LOWER_BOUND=    5.262  UPPER_BOUND=    8.890
INTER + INTRA:          -4.624
INTER:                  -4.624
INTRA:                   0.000
UNBOUND:                 0.000

$$$$

     RDKit          3D

 65 66  0  0  0  0  0  0  0  0999 V2000
   48.7866   11.2114   19.5173 Cl  0  0  0  0  0  0  0  0  0  0  0  0
   48.9057   14.0630   19.1447 C   0  0  0  0  0  0  0  0  0  0  0  0
   49.4167   14.2909   20.4027 C   0  0  0  0  0  0  0  0  0  0  0  0
   49.0561   13.4335   21.4400 C   0  0  0  0  0  0  0  0  0  0  0  0
   48.0626   13.0031   18.9572 C   0  0  0  0  0  0  0  0  0  0  0  0
   47.6715   12.1235   19.9401 C   0  0  0  0  0  0  0  0  0  0  0  0
   49.0979   15.5850   15.6972 C   0  0  0  0  0  0  0  0  0  0  0  0
   48.2032   12.3745   21.2133 C   0  0  0  0  0  0  0  0  0  0  0  0
   49.2513   14.9008   18.1192 C   0  0  0  0  0  0  0  0  0  0  0  0
   49.5317   13.5960   22.7287 C   0  0  0  0  0  0  0  0  0  0  0  0
   48.7346   14.6785   16.8359 C   0  0  0  0  0  0  0  0  0  0  0  0
   50.3862   14.6486   22.9590 C   0  0  0  0  0  0  0  0  0  0  0  0
   47.5624   12.7982   17.6872 C   0  0  0  0  0  0  0  0  0  0  0  0
   50.2721   15.3238   20.6918 C   0  0  0  0  0  0  0  0  0  0  0  0
   50.7836   15.5349   21.9786 C   0  0  0  0  0  0  0  0  0  0  0  0
   46.7689   11.0215   19.6661 C   0  0  1  0  0  0  0  0  0  0  0  0
   47.6168    9.8096   19.2094 C   0  0  0  0  0  0  0  0  0  0  0  0
   47.8831   13.6161   16.6246 C   0  0  0  0  0  0  0  0  0  0  0  0
   49.4751   14.8301   14.6150 F   0  0  0  0  0  0  0  0  0  0  0  0
   50.1142   16.4285   16.0751 F   0  0  0  0  0  0  0  0  0  0  0  0
   48.0027   16.3768   15.3824 F   0  0  0  0  0  0  0  0  0  0  0  0
   49.0624   12.5039   24.0121 Cl  0  0  0  0  0  0  0  0  0  0  0  0
   48.5637    9.4396   20.2986 C   0  0  0  0  0  0  0  0  0  0  0  0
   49.3478    8.3277   20.0536 N   0  0  0  0  0  0  0  0  0  0  0  0
   51.8767   16.8728   22.3000 Cl  0  0  0  0  0  0  0  0  0  0  0  0
   46.2103   10.6662   20.9214 O   0  0  0  0  0  0  0  0  0  0  0  0
   50.3599    8.2679   19.1449 C   0  0  0  0  0  0  0  0  0  0  0  0
   49.1392    7.2710   20.9943 C   0  0  0  0  0  0  0  0  0  0  0  0
   50.1294    8.2672   17.6746 C   0  0  0  0  0  0  0  0  0  0  0  0
   47.7420    6.6978   20.8021 C   0  0  0  0  0  0  0  0  0  0  0  0
   49.2519    7.1315   17.2078 C   0  0  0  0  0  0  0  0  0  0  0  0
   47.4918    5.5812   21.7764 C   0  0  0  0  0  0  0  0  0  0  0  0
   49.1069    7.2651   15.6913 C   0  0  0  0  0  0  0  0  0  0  0  0
   47.5982    6.0090   23.2126 C   0  0  0  0  0  0  0  0  0  0  0  0
   48.6782    9.8365   19.5928 H   0  0  0  0  0  0  0  0  0  0  0  0
   47.9292   11.7103   22.0289 H   0  0  0  0  0  0  0  0  0  0  0  0
   49.9063   15.7508   18.1974 H   0  0  0  0  0  0  0  0  0  0  0  0
   50.7839   14.8109   23.9616 H   0  0  0  0  0  0  0  0  0  0  0  0
   46.8803   11.9714   17.4484 H   0  0  0  0  0  0  0  0  0  0  0  0
   50.6015   16.0317   19.9525 H   0  0  0  0  0  0  0  0  0  0  0  0
   45.9027   11.1827   19.0411 H   0  0  0  0  0  0  0  0  0  0  0  0
   46.9728    8.9884   18.8807 H   0  0  0  0  0  0  0  0  0  0  0  0
   48.2169   10.1348   18.3193 H   0  0  0  0  0  0  0  0  0  0  0  0
   47.5094   13.4808   15.6242 H   0  0  0  0  0  0  0  0  0  0  0  0
   49.2624   10.3323   20.5248 H   0  0  0  0  0  0  0  0  0  0  0  0
   48.0301    9.3577   21.2952 H   0  0  0  0  0  0  0  0  0  0  0  0
   45.8743   11.4943   21.3575 H   0  0  0  0  0  0  0  0  0  0  0  0
   51.0451    7.3767   19.4217 H   0  0  0  0  0  0  0  0  0  0  0  0
   51.1402    9.1183   19.2955 H   0  0  0  0  0  0  0  0  0  0  0  0
   49.8986    6.4627   20.8752 H   0  0  0  0  0  0  0  0  0  0  0  0
   49.1617    7.6327   22.0616 H   0  0  0  0  0  0  0  0  0  0  0  0
   51.1602    7.9851   17.2166 H   0  0  0  0  0  0  0  0  0  0  0  0
   49.8471    9.1836   17.1926 H   0  0  0  0  0  0  0  0  0  0  0  0
   47.5578    6.3738   19.7743 H   0  0  0  0  0  0  0  0  0  0  0  0
   47.0225    7.5197   21.0271 H   0  0  0  0  0  0  0  0  0  0  0  0
   49.6968    6.1426   17.4199 H   0  0  0  0  0  0  0  0  0  0  0  0
   48.2418    7.2041   17.6282 H   0  0  0  0  0  0  0  0  0  0  0  0
   46.4994    5.1176   21.6283 H   0  0  0  0  0  0  0  0  0  0  0  0
   48.2666    4.8028   21.6063 H   0  0  0  0  0  0  0  0  0  0  0  0
   48.4799    8.1242   15.3991 H   0  0  0  0  0  0  0  0  0  0  0  0
   48.6929    6.3068   15.2797 H   0  0  0  0  0  0  0  0  0  0  0  0
   50.0992    7.4275   15.1919 H   0  0  0  0  0  0  0  0  0  0  0  0
   46.9331    5.3501   23.8307 H   0  0  0  0  0  0  0  0  0  0  0  0
   48.6177    5.8407   23.6480 H   0  0  0  0  0  0  0  0  0  0  0  0
   47.2342    7.0543   23.3844 H   0  0  0  0  0  0  0  0  0  0  0  0
  3  2  2  0
  4  3  1  0
  5  2  1  0
  6  5  2  0
  7 11  1  0
  8  6  1  0
  9  2  1  0
 10  4  1  0
 11  9  2  0
 12 15  1  0
 13  5  1  0
 14  3  1  0
 15 14  2  0
 16  6  1  0
 17 16  1  0
 18 11  1  0
 19  7  1  0
 20  7  1  0
 21  7  1  0
 22 10  1  0
 23 17  1  0
 24 23  1  0
 25 15  1  0
 26 16  1  0
 27 24  1  0
 28 24  1  0
 29 27  1  0
 30 28  1  0
 31 29  1  0
 32 30  1  0
 33 31  1  0
 34 32  1  0
 18 13  2  0
  8  4  2  0
 10 12  2  0
  1 35  1  0
  8 36  1  0
  9 37  1  0
 12 38  1  0
 13 39  1  0
 14 40  1  0
 16 41  1  1
 17 42  1  0
 17 43  1  0
 18 44  1  0
 23 45  1  0
 23 46  1  0
 26 47  1  0
 27 48  1  0
 27 49  1  0
 28 50  1  0
 28 51  1  0
 29 52  1  0
 29 53  1  0
 30 54  1  0
 30 55  1  0
 31 56  1  0
 31 57  1  0
 32 58  1  0
 32 59  1  0
 33 60  1  0
 33 61  1  0
 33 62  1  0
 34 63  1  0
 34 64  1  0
 34 65  1  0
M  END
> <Uni-Dock RESULT> 
ENERGY=   -4.529  LOWER_BOUND=    5.120  UPPER_BOUND=    8.848
INTER + INTRA:          -4.529
INTER:                  -4.529
INTRA:                   0.000
UNBOUND:                 0.000

$$$$

     RDKit          3D

 65 66  0  0  0  0  0  0  0  0999 V2000
   47.9208   11.3014   13.0243 Cl  0  0  0  0  0  0  0  0  0  0  0  0
   45.6376    9.9819   11.8706 C   0  0  0  0  0  0  0  0  0  0  0  0
   46.0802    8.7262   12.2212 C   0  0  0  0  0  0  0  0  0  0  0  0
   47.4519    8.4870   12.2720 C   0  0  0  0  0  0  0  0  0  0  0  0
   46.5595   10.9504   11.5848 C   0  0  0  0  0  0  0  0  0  0  0  0
   47.9237   10.7745   11.6184 C   0  0  0  0  0  0  0  0  0  0  0  0
   42.3622   11.7919   11.3873 C   0  0  0  0  0  0  0  0  0  0  0  0
   48.3522    9.4883   11.9773 C   0  0  0  0  0  0  0  0  0  0  0  0
   44.2924   10.2270   11.8149 C   0  0  0  0  0  0  0  0  0  0  0  0
   47.9717    7.2532   12.6198 C   0  0  0  0  0  0  0  0  0  0  0  0
   43.8322   11.5010   11.4569 C   0  0  0  0  0  0  0  0  0  0  0  0
   47.0776    6.2521   12.9187 C   0  0  0  0  0  0  0  0  0  0  0  0
   46.0897   12.1997   11.2338 C   0  0  0  0  0  0  0  0  0  0  0  0
   45.2361    7.6895   12.5294 C   0  0  0  0  0  0  0  0  0  0  0  0
   45.7082    6.4205   12.8878 C   0  0  0  0  0  0  0  0  0  0  0  0
   48.8422   11.8508   11.2985 C   0  0  1  0  0  0  0  0  0  0  0  0
   49.1218   12.6445   12.5977 C   0  0  0  0  0  0  0  0  0  0  0  0
   44.7440   12.4918   11.1648 C   0  0  0  0  0  0  0  0  0  0  0  0
   42.0941   12.9545   12.0654 F   0  0  0  0  0  0  0  0  0  0  0  0
   41.6511   10.7457   11.9231 F   0  0  0  0  0  0  0  0  0  0  0  0
   41.9861   11.9051   10.0564 F   0  0  0  0  0  0  0  0  0  0  0  0
   49.6988    6.9809   12.6756 Cl  0  0  0  0  0  0  0  0  0  0  0  0
   49.7312   11.7311   13.6047 C   0  0  0  0  0  0  0  0  0  0  0  0
   50.0935   12.3211   14.8014 N   0  0  0  0  0  0  0  0  0  0  0  0
   44.5870    5.1234   13.2738 Cl  0  0  0  0  0  0  0  0  0  0  0  0
   50.0629   11.2173   10.9483 O   0  0  0  0  0  0  0  0  0  0  0  0
   49.2239   12.7861   15.7401 C   0  0  0  0  0  0  0  0  0  0  0  0
   51.4934   12.2258   15.0772 C   0  0  0  0  0  0  0  0  0  0  0  0
   48.3930   14.0047   15.5416 C   0  0  0  0  0  0  0  0  0  0  0  0
   52.2601   13.0824   14.0792 C   0  0  0  0  0  0  0  0  0  0  0  0
   49.2071   15.2438   15.2601 C   0  0  0  0  0  0  0  0  0  0  0  0
   53.7374   13.0055   14.3441 C   0  0  0  0  0  0  0  0  0  0  0  0
   48.2233   16.4006   15.0789 C   0  0  0  0  0  0  0  0  0  0  0  0
   54.2888   11.6116   14.2425 C   0  0  0  0  0  0  0  0  0  0  0  0
   48.9746   12.0335   13.5355 H   0  0  0  0  0  0  0  0  0  0  0  0
   49.4204    9.2921   12.0214 H   0  0  0  0  0  0  0  0  0  0  0  0
   43.5156    9.5128   12.0255 H   0  0  0  0  0  0  0  0  0  0  0  0
   47.4472    5.2646   13.1981 H   0  0  0  0  0  0  0  0  0  0  0  0
   46.7599   13.0346   10.9895 H   0  0  0  0  0  0  0  0  0  0  0  0
   44.1653    7.7864   12.5152 H   0  0  0  0  0  0  0  0  0  0  0  0
   48.6398   12.4929   10.4538 H   0  0  0  0  0  0  0  0  0  0  0  0
   49.7192   13.5362   12.3855 H   0  0  0  0  0  0  0  0  0  0  0  0
   48.1342   12.9962   12.9965 H   0  0  0  0  0  0  0  0  0  0  0  0
   44.3484   13.4558   10.8949 H   0  0  0  0  0  0  0  0  0  0  0  0
   49.0010   10.8651   13.8348 H   0  0  0  0  0  0  0  0  0  0  0  0
   50.5904   11.1425   13.1573 H   0  0  0  0  0  0  0  0  0  0  0  0
   49.8649   10.5100   10.2780 H   0  0  0  0  0  0  0  0  0  0  0  0
   49.7878   12.8718   16.7476 H   0  0  0  0  0  0  0  0  0  0  0  0
   48.4486   11.9801   16.0625 H   0  0  0  0  0  0  0  0  0  0  0  0
   51.7280   12.5556   16.1166 H   0  0  0  0  0  0  0  0  0  0  0  0
   51.8918   11.1814   14.9316 H   0  0  0  0  0  0  0  0  0  0  0  0
   47.9529   14.2338   16.5931 H   0  0  0  0  0  0  0  0  0  0  0  0
   47.5452   13.9541   14.8853 H   0  0  0  0  0  0  0  0  0  0  0  0
   51.9153   14.1198   14.0629 H   0  0  0  0  0  0  0  0  0  0  0  0
   52.0677   12.6508   13.0690 H   0  0  0  0  0  0  0  0  0  0  0  0
   49.8826   15.5012   16.0956 H   0  0  0  0  0  0  0  0  0  0  0  0
   49.7644   15.1545   14.3200 H   0  0  0  0  0  0  0  0  0  0  0  0
   54.3146   13.6543   13.6603 H   0  0  0  0  0  0  0  0  0  0  0  0
   53.9141   13.3545   15.3843 H   0  0  0  0  0  0  0  0  0  0  0  0
   47.6524   16.3286   14.1379 H   0  0  0  0  0  0  0  0  0  0  0  0
   48.7868   17.3693   15.1341 H   0  0  0  0  0  0  0  0  0  0  0  0
   47.4574   16.4268   15.8993 H   0  0  0  0  0  0  0  0  0  0  0  0
   55.3656   11.6762   13.9346 H   0  0  0  0  0  0  0  0  0  0  0  0
   54.3260   11.0796   15.2288 H   0  0  0  0  0  0  0  0  0  0  0  0
   53.7834   10.9992   13.4524 H   0  0  0  0  0  0  0  0  0  0  0  0
  3  2  2  0
  4  3  1  0
  5  2  1  0
  6  5  2  0
  7 11  1  0
  8  6  1  0
  9  2  1  0
 10  4  1  0
 11  9  2  0
 12 15  1  0
 13  5  1  0
 14  3  1  0
 15 14  2  0
 16  6  1  0
 17 16  1  0
 18 11  1  0
 19  7  1  0
 20  7  1  0
 21  7  1  0
 22 10  1  0
 23 17  1  0
 24 23  1  0
 25 15  1  0
 26 16  1  0
 27 24  1  0
 28 24  1  0
 29 27  1  0
 30 28  1  0
 31 29  1  0
 32 30  1  0
 33 31  1  0
 34 32  1  0
 18 13  2  0
  8  4  2  0
 10 12  2  0
  1 35  1  0
  8 36  1  0
  9 37  1  0
 12 38  1  0
 13 39  1  0
 14 40  1  0
 16 41  1  1
 17 42  1  0
 17 43  1  0
 18 44  1  0
 23 45  1  0
 23 46  1  0
 26 47  1  0
 27 48  1  0
 27 49  1  0
 28 50  1  0
 28 51  1  0
 29 52  1  0
 29 53  1  0
 30 54  1  0
 30 55  1  0
 31 56  1  0
 31 57  1  0
 32 58  1  0
 32 59  1  0
 33 60  1  0
 33 61  1  0
 33 62  1  0
 34 63  1  0
 34 64  1  0
 34 65  1  0
M  END
> <Uni-Dock RESULT> 
ENERGY=   -4.440  LOWER_BOUND=    3.262  UPPER_BOUND=    4.071
INTER + INTRA:          -4.440
INTER:                  -4.440
INTRA:                   0.000
UNBOUND:                 0.000

$$$$

     RDKit          3D

 65 66  0  0  0  0  0  0  0  0999 V2000
   49.5335    9.2529   12.2230 Cl  0  0  0  0  0  0  0  0  0  0  0  0
   47.0200    8.1273   13.0598 C   0  0  0  0  0  0  0  0  0  0  0  0
   46.2779    9.1015   12.4304 C   0  0  0  0  0  0  0  0  0  0  0  0
   46.8099   10.3843   12.3186 C   0  0  0  0  0  0  0  0  0  0  0  0
   48.2530    8.4527   13.5529 C   0  0  0  0  0  0  0  0  0  0  0  0
   48.8303    9.6990   13.4723 C   0  0  0  0  0  0  0  0  0  0  0  0
   46.7078    4.4764   13.9608 C   0  0  0  0  0  0  0  0  0  0  0  0
   48.0572   10.6757   12.8279 C   0  0  0  0  0  0  0  0  0  0  0  0
   46.5057    6.8645   13.1775 C   0  0  0  0  0  0  0  0  0  0  0  0
   46.1262   11.4133   11.6965 C   0  0  0  0  0  0  0  0  0  0  0  0
   47.2523    5.8670   13.8184 C   0  0  0  0  0  0  0  0  0  0  0  0
   44.8831   11.1266   11.1831 C   0  0  0  0  0  0  0  0  0  0  0  0
   48.9753    7.4587   14.1814 C   0  0  0  0  0  0  0  0  0  0  0  0
   45.0334    8.8742   11.8995 C   0  0  0  0  0  0  0  0  0  0  0  0
   44.2973    9.8793   11.2594 C   0  0  0  0  0  0  0  0  0  0  0  0
   50.1445    9.9707   14.0231 C   0  0  1  0  0  0  0  0  0  0  0  0
   51.1970    9.6420   12.9367 C   0  0  0  0  0  0  0  0  0  0  0  0
   48.4973    6.1732   14.3227 C   0  0  0  0  0  0  0  0  0  0  0  0
   47.6602    3.5705   13.5663 F   0  0  0  0  0  0  0  0  0  0  0  0
   45.5687    4.3390   13.2054 F   0  0  0  0  0  0  0  0  0  0  0  0
   46.3507    4.2640   15.2848 F   0  0  0  0  0  0  0  0  0  0  0  0
   46.8185   13.0148   11.5702 Cl  0  0  0  0  0  0  0  0  0  0  0  0
   50.9515   10.5018   11.7449 C   0  0  0  0  0  0  0  0  0  0  0  0
   51.8590   10.3601   10.7116 N   0  0  0  0  0  0  0  0  0  0  0  0
   42.7062    9.5396   10.5952 Cl  0  0  0  0  0  0  0  0  0  0  0  0
   50.1939   11.3762   14.2131 O   0  0  0  0  0  0  0  0  0  0  0  0
   51.9664    9.2662    9.9082 C   0  0  0  0  0  0  0  0  0  0  0  0
   52.5680   11.5655   10.4132 C   0  0  0  0  0  0  0  0  0  0  0  0
   52.5026    7.9617   10.3833 C   0  0  0  0  0  0  0  0  0  0  0  0
   53.4912   11.9045   11.5753 C   0  0  0  0  0  0  0  0  0  0  0  0
   53.9044    8.0567   10.9343 C   0  0  0  0  0  0  0  0  0  0  0  0
   54.2541   13.1678   11.2914 C   0  0  0  0  0  0  0  0  0  0  0  0
   54.3122    6.6516   11.3794 C   0  0  0  0  0  0  0  0  0  0  0  0
   53.3686   14.3612   11.0703 C   0  0  0  0  0  0  0  0  0  0  0  0
   50.7916    9.7122   11.8855 H   0  0  0  0  0  0  0  0  0  0  0  0
   48.4642   11.6792   12.7343 H   0  0  0  0  0  0  0  0  0  0  0  0
   45.5455    6.5421   12.8147 H   0  0  0  0  0  0  0  0  0  0  0  0
   44.3116   11.9105   10.6844 H   0  0  0  0  0  0  0  0  0  0  0  0
   49.9733    7.6330   14.6051 H   0  0  0  0  0  0  0  0  0  0  0  0
   44.5484    7.9155   11.9416 H   0  0  0  0  0  0  0  0  0  0  0  0
   50.4098    9.5756   14.9928 H   0  0  0  0  0  0  0  0  0  0  0  0
   52.2100    9.7214   13.3425 H   0  0  0  0  0  0  0  0  0  0  0  0
   51.0457    8.5726   12.6340 H   0  0  0  0  0  0  0  0  0  0  0  0
   49.0375    5.3780   14.8070 H   0  0  0  0  0  0  0  0  0  0  0  0
   49.8935   10.2940   11.3283 H   0  0  0  0  0  0  0  0  0  0  0  0
   50.8297   11.5888   12.0419 H   0  0  0  0  0  0  0  0  0  0  0  0
   49.3757   11.6522   14.7062 H   0  0  0  0  0  0  0  0  0  0  0  0
   52.5256    9.5770    8.9433 H   0  0  0  0  0  0  0  0  0  0  0  0
   50.9521    8.9780    9.4155 H   0  0  0  0  0  0  0  0  0  0  0  0
   53.1628   11.4676    9.4747 H   0  0  0  0  0  0  0  0  0  0  0  0
   51.8836   12.4558   10.3154 H   0  0  0  0  0  0  0  0  0  0  0  0
   52.6616    7.3397    9.4139 H   0  0  0  0  0  0  0  0  0  0  0  0
   51.8902    7.3478   11.0158 H   0  0  0  0  0  0  0  0  0  0  0  0
   54.1672   11.0835   11.8290 H   0  0  0  0  0  0  0  0  0  0  0  0
   52.8398   12.0867   12.4621 H   0  0  0  0  0  0  0  0  0  0  0  0
   54.6318    8.3962   10.1753 H   0  0  0  0  0  0  0  0  0  0  0  0
   53.9441    8.6933   11.8263 H   0  0  0  0  0  0  0  0  0  0  0  0
   54.9652   13.4125   12.1014 H   0  0  0  0  0  0  0  0  0  0  0  0
   54.8344   13.0107   10.3567 H   0  0  0  0  0  0  0  0  0  0  0  0
   53.7733    6.3195   12.2827 H   0  0  0  0  0  0  0  0  0  0  0  0
   55.4221    6.6296   11.5426 H   0  0  0  0  0  0  0  0  0  0  0  0
   54.0877    5.8847   10.5908 H   0  0  0  0  0  0  0  0  0  0  0  0
   53.9293   15.2827   11.3786 H   0  0  0  0  0  0  0  0  0  0  0  0
   53.1348   14.5419    9.9887 H   0  0  0  0  0  0  0  0  0  0  0  0
   52.4447   14.3420   11.7034 H   0  0  0  0  0  0  0  0  0  0  0  0
  3  2  2  0
  4  3  1  0
  5  2  1  0
  6  5  2  0
  7 11  1  0
  8  6  1  0
  9  2  1  0
 10  4  1  0
 11  9  2  0
 12 15  1  0
 13  5  1  0
 14  3  1  0
 15 14  2  0
 16  6  1  0
 17 16  1  0
 18 11  1  0
 19  7  1  0
 20  7  1  0
 21  7  1  0
 22 10  1  0
 23 17  1  0
 24 23  1  0
 25 15  1  0
 26 16  1  0
 27 24  1  0
 28 24  1  0
 29 27  1  0
 30 28  1  0
 31 29  1  0
 32 30  1  0
 33 31  1  0
 34 32  1  0
 18 13  2  0
  8  4  2  0
 10 12  2  0
  1 35  1  0
  8 36  1  0
  9 37  1  0
 12 38  1  0
 13 39  1  0
 14 40  1  0
 16 41  1  1
 17 42  1  0
 17 43  1  0
 18 44  1  0
 23 45  1  0
 23 46  1  0
 26 47  1  0
 27 48  1  0
 27 49  1  0
 28 50  1  0
 28 51  1  0
 29 52  1  0
 29 53  1  0
 30 54  1  0
 30 55  1  0
 31 56  1  0
 31 57  1  0
 32 58  1  0
 32 59  1  0
 33 60  1  0
 33 61  1  0
 33 62  1  0
 34 63  1  0
 34 64  1  0
 34 65  1  0
M  END
> <Uni-Dock RESULT> 
ENERGY=   -4.421  LOWER_BOUND=    4.420  UPPER_BOUND=    6.784
INTER + INTRA:          -4.421
INTER:                  -4.421
INTRA:                   0.000
UNBOUND:                 0.000

$$$$

     RDKit          3D

 65 66  0  0  0  0  0  0  0  0999 V2000
   50.5316    7.1509   15.4474 Cl  0  0  0  0  0  0  0  0  0  0  0  0
   51.9878    5.7945   17.5269 C   0  0  0  0  0  0  0  0  0  0  0  0
   51.2144    4.6584   17.4438 C   0  0  0  0  0  0  0  0  0  0  0  0
   49.8751    4.7823   17.0801 C   0  0  0  0  0  0  0  0  0  0  0  0
   51.4148    7.0044   17.2493 C   0  0  0  0  0  0  0  0  0  0  0  0
   50.1010    7.1893   16.8851 C   0  0  0  0  0  0  0  0  0  0  0  0
   55.5427    6.7385   18.3694 C   0  0  0  0  0  0  0  0  0  0  0  0
   49.3316    6.0193   16.8072 C   0  0  0  0  0  0  0  0  0  0  0  0
   53.3038    5.6844   17.8860 C   0  0  0  0  0  0  0  0  0  0  0  0
   49.0373    3.6870   16.9714 C   0  0  0  0  0  0  0  0  0  0  0  0
   54.0984    6.8350   17.9756 C   0  0  0  0  0  0  0  0  0  0  0  0
   49.5760    2.4503   17.2386 C   0  0  0  0  0  0  0  0  0  0  0  0
   52.2112    8.1278   17.3424 C   0  0  0  0  0  0  0  0  0  0  0  0
   51.6964    3.3995   17.6986 C   0  0  0  0  0  0  0  0  0  0  0  0
   50.8926    2.2563   17.6040 C   0  0  0  0  0  0  0  0  0  0  0  0
   49.5616    8.5073   16.6087 C   0  0  1  0  0  0  0  0  0  0  0  0
   49.8032    8.8198   15.1119 C   0  0  0  0  0  0  0  0  0  0  0  0
   53.5411    8.0645   17.7002 C   0  0  0  0  0  0  0  0  0  0  0  0
   56.3055    7.4639   17.4888 F   0  0  0  0  0  0  0  0  0  0  0  0
   55.9389    5.4232   18.3812 F   0  0  0  0  0  0  0  0  0  0  0  0
   55.6928    7.2243   19.6605 F   0  0  0  0  0  0  0  0  0  0  0  0
   47.3595    3.8718   16.5124 Cl  0  0  0  0  0  0  0  0  0  0  0  0
   49.1082    7.7957   14.2823 C   0  0  0  0  0  0  0  0  0  0  0  0
   49.1861    7.9845   12.9150 N   0  0  0  0  0  0  0  0  0  0  0  0
   51.5559    0.6641   17.9407 Cl  0  0  0  0  0  0  0  0  0  0  0  0
   48.1568    8.3843   16.7681 O   0  0  0  0  0  0  0  0  0  0  0  0
   50.3135    7.8347   12.1667 C   0  0  0  0  0  0  0  0  0  0  0  0
   47.9095    8.1630   12.2958 C   0  0  0  0  0  0  0  0  0  0  0  0
   51.4600    8.7815   12.2307 C   0  0  0  0  0  0  0  0  0  0  0  0
   47.3156    9.4905   12.7460 C   0  0  0  0  0  0  0  0  0  0  0  0
   51.0792   10.2043   11.9014 C   0  0  0  0  0  0  0  0  0  0  0  0
   45.9718    9.7096   12.1097 C   0  0  0  0  0  0  0  0  0  0  0  0
   52.3489   11.0497   12.0105 C   0  0  0  0  0  0  0  0  0  0  0  0
   44.9709    8.6420   12.4496 C   0  0  0  0  0  0  0  0  0  0  0  0
   49.8976    7.8949   14.4715 H   0  0  0  0  0  0  0  0  0  0  0  0
   48.2861    6.1053   16.5226 H   0  0  0  0  0  0  0  0  0  0  0  0
   53.8159    4.7670   18.1182 H   0  0  0  0  0  0  0  0  0  0  0  0
   48.9485    1.5612   17.1637 H   0  0  0  0  0  0  0  0  0  0  0  0
   51.8325    9.1378   17.1362 H   0  0  0  0  0  0  0  0  0  0  0  0
   52.7159    3.2130   17.9853 H   0  0  0  0  0  0  0  0  0  0  0  0
   49.8172    9.3354   17.2533 H   0  0  0  0  0  0  0  0  0  0  0  0
   49.5167    9.8500   14.8805 H   0  0  0  0  0  0  0  0  0  0  0  0
   50.9056    8.7335   14.9236 H   0  0  0  0  0  0  0  0  0  0  0  0
   54.1863    8.9225   17.7804 H   0  0  0  0  0  0  0  0  0  0  0  0
   49.5292    6.7474   14.5274 H   0  0  0  0  0  0  0  0  0  0  0  0
   48.0354    7.6542   14.6197 H   0  0  0  0  0  0  0  0  0  0  0  0
   47.9806    7.9425   17.6413 H   0  0  0  0  0  0  0  0  0  0  0  0
   50.0003    7.6930   11.0612 H   0  0  0  0  0  0  0  0  0  0  0  0
   50.8129    6.7950   12.3226 H   0  0  0  0  0  0  0  0  0  0  0  0
   47.9889    8.1427   11.1835 H   0  0  0  0  0  0  0  0  0  0  0  0
   47.1608    7.3845   12.6183 H   0  0  0  0  0  0  0  0  0  0  0  0
   52.1305    8.4913   11.3263 H   0  0  0  0  0  0  0  0  0  0  0  0
   52.1096    8.7537   13.0847 H   0  0  0  0  0  0  0  0  0  0  0  0
   47.9837   10.3355   12.5586 H   0  0  0  0  0  0  0  0  0  0  0  0
   47.1677    9.4201   13.8491 H   0  0  0  0  0  0  0  0  0  0  0  0
   50.6907   10.3075   10.8724 H   0  0  0  0  0  0  0  0  0  0  0  0
   50.3676   10.6097   12.6306 H   0  0  0  0  0  0  0  0  0  0  0  0
   45.5381   10.6881   12.3857 H   0  0  0  0  0  0  0  0  0  0  0  0
   46.1115    9.6912   11.0073 H   0  0  0  0  0  0  0  0  0  0  0  0
   52.6850   11.1778   13.0532 H   0  0  0  0  0  0  0  0  0  0  0  0
   52.1673   12.0433   11.5218 H   0  0  0  0  0  0  0  0  0  0  0  0
   53.2105   10.5769   11.4679 H   0  0  0  0  0  0  0  0  0  0  0  0
   43.9437    9.0912   12.4095 H   0  0  0  0  0  0  0  0  0  0  0  0
   44.9305    7.8182   11.6901 H   0  0  0  0  0  0  0  0  0  0  0  0
   45.0897    8.2487   13.4917 H   0  0  0  0  0  0  0  0  0  0  0  0
  3  2  2  0
  4  3  1  0
  5  2  1  0
  6  5  2  0
  7 11  1  0
  8  6  1  0
  9  2  1  0
 10  4  1  0
 11  9  2  0
 12 15  1  0
 13  5  1  0
 14  3  1  0
 15 14  2  0
 16  6  1  0
 17 16  1  0
 18 11  1  0
 19  7  1  0
 20  7  1  0
 21  7  1  0
 22 10  1  0
 23 17  1  0
 24 23  1  0
 25 15  1  0
 26 16  1  0
 27 24  1  0
 28 24  1  0
 29 27  1  0
 30 28  1  0
 31 29  1  0
 32 30  1  0
 33 31  1  0
 34 32  1  0
 18 13  2  0
  8  4  2  0
 10 12  2  0
  1 35  1  0
  8 36  1  0
  9 37  1  0
 12 38  1  0
 13 39  1  0
 14 40  1  0
 16 41  1  1
 17 42  1  0
 17 43  1  0
 18 44  1  0
 23 45  1  0
 23 46  1  0
 26 47  1  0
 27 48  1  0
 27 49  1  0
 28 50  1  0
 28 51  1  0
 29 52  1  0
 29 53  1  0
 30 54  1  0
 30 55  1  0
 31 56  1  0
 31 57  1  0
 32 58  1  0
 32 59  1  0
 33 60  1  0
 33 61  1  0
 33 62  1  0
 34 63  1  0
 34 64  1  0
 34 65  1  0
M  END
> <Uni-Dock RESULT> 
ENERGY=   -4.376  LOWER_BOUND=    5.038  UPPER_BOUND=    8.381
INTER + INTRA:          -4.376
INTER:                  -4.376
INTRA:                   0.000
UNBOUND:                 0.000

$$$$

     RDKit          3D

 65 66  0  0  0  0  0  0  0  0999 V2000
   49.9163   10.0460   16.6442 Cl  0  0  0  0  0  0  0  0  0  0  0  0
   47.9763    9.9704   18.7692 C   0  0  0  0  0  0  0  0  0  0  0  0
   47.9764    8.5951   18.8343 C   0  0  0  0  0  0  0  0  0  0  0  0
   48.2108    7.8673   17.6696 C   0  0  0  0  0  0  0  0  0  0  0  0
   48.2064   10.5739   17.5641 C   0  0  0  0  0  0  0  0  0  0  0  0
   48.4441    9.9099   16.3828 C   0  0  0  0  0  0  0  0  0  0  0  0
   47.4860   12.9097   21.0840 C   0  0  0  0  0  0  0  0  0  0  0  0
   48.4393    8.5103   16.4719 C   0  0  0  0  0  0  0  0  0  0  0  0
   47.7444   10.6950   19.9068 C   0  0  0  0  0  0  0  0  0  0  0  0
   48.2305    6.4842   17.6570 C   0  0  0  0  0  0  0  0  0  0  0  0
   47.7400   12.0951   19.8503 C   0  0  0  0  0  0  0  0  0  0  0  0
   48.0072    5.8381   18.8503 C   0  0  0  0  0  0  0  0  0  0  0  0
   48.1985   11.9535   17.5257 C   0  0  0  0  0  0  0  0  0  0  0  0
   47.7599    7.8965   19.9950 C   0  0  0  0  0  0  0  0  0  0  0  0
   47.7685    6.4966   20.0394 C   0  0  0  0  0  0  0  0  0  0  0  0
   48.6771   10.6198   15.1394 C   0  0  1  0  0  0  0  0  0  0  0  0
   50.1924   10.9185   15.0346 C   0  0  0  0  0  0  0  0  0  0  0  0
   47.9696   12.7237   18.6461 C   0  0  0  0  0  0  0  0  0  0  0  0
   48.4411   13.8897   21.1887 F   0  0  0  0  0  0  0  0  0  0  0  0
   47.5027   12.0992   22.1931 F   0  0  0  0  0  0  0  0  0  0  0  0
   46.2189   13.4694   21.0035 F   0  0  0  0  0  0  0  0  0  0  0  0
   48.5275    5.5957   16.1798 Cl  0  0  0  0  0  0  0  0  0  0  0  0
   50.9439    9.6320   15.0406 C   0  0  0  0  0  0  0  0  0  0  0  0
   52.3137    9.7422   14.8898 N   0  0  0  0  0  0  0  0  0  0  0  0
   47.4854    5.6462   21.5510 Cl  0  0  0  0  0  0  0  0  0  0  0  0
   48.3826    9.6891   14.1093 O   0  0  0  0  0  0  0  0  0  0  0  0
   53.1657   10.2514   15.8217 C   0  0  0  0  0  0  0  0  0  0  0  0
   52.8087    9.0792   13.7234 C   0  0  0  0  0  0  0  0  0  0  0  0
   53.2190   11.6984   16.1657 C   0  0  0  0  0  0  0  0  0  0  0  0
   52.3134    9.8103   12.4834 C   0  0  0  0  0  0  0  0  0  0  0  0
   53.5206   12.5836   14.9811 C   0  0  0  0  0  0  0  0  0  0  0  0
   52.8192    9.1383   11.2380 C   0  0  0  0  0  0  0  0  0  0  0  0
   53.5401   14.0265   15.4874 C   0  0  0  0  0  0  0  0  0  0  0  0
   52.3770    7.7080   11.1116 C   0  0  0  0  0  0  0  0  0  0  0  0
   50.8321   10.1968   15.6214 H   0  0  0  0  0  0  0  0  0  0  0  0
   48.6227    7.9335   15.5691 H   0  0  0  0  0  0  0  0  0  0  0  0
   47.5558   10.2854   20.8837 H   0  0  0  0  0  0  0  0  0  0  0  0
   48.0150    4.7478   18.8829 H   0  0  0  0  0  0  0  0  0  0  0  0
   48.3748   12.5186   16.6008 H   0  0  0  0  0  0  0  0  0  0  0  0
   47.5711    8.3777   20.9379 H   0  0  0  0  0  0  0  0  0  0  0  0
   48.0661   11.4747   14.8893 H   0  0  0  0  0  0  0  0  0  0  0  0
   50.4027   11.5536   14.1689 H   0  0  0  0  0  0  0  0  0  0  0  0
   50.4850   11.4991   15.9487 H   0  0  0  0  0  0  0  0  0  0  0  0
   47.9580   13.8001   18.6467 H   0  0  0  0  0  0  0  0  0  0  0  0
   50.7328    9.0642   16.0250 H   0  0  0  0  0  0  0  0  0  0  0  0
   50.5041    8.8971   14.2982 H   0  0  0  0  0  0  0  0  0  0  0  0
   47.4933    9.2867   14.2990 H   0  0  0  0  0  0  0  0  0  0  0  0
   54.2350    9.8800   15.5785 H   0  0  0  0  0  0  0  0  0  0  0  0
   53.0509    9.7318   16.8567 H   0  0  0  0  0  0  0  0  0  0  0  0
   53.9234    9.0398   13.7185 H   0  0  0  0  0  0  0  0  0  0  0  0
   52.4102    8.0297   13.6218 H   0  0  0  0  0  0  0  0  0  0  0  0
   54.1815   11.8116   16.8080 H   0  0  0  0  0  0  0  0  0  0  0  0
   52.4312   12.1203   16.7601 H   0  0  0  0  0  0  0  0  0  0  0  0
   52.5702   10.8730   12.4908 H   0  0  0  0  0  0  0  0  0  0  0  0
   51.2006    9.7357   12.4881 H   0  0  0  0  0  0  0  0  0  0  0  0
   54.5084   12.3673   14.5360 H   0  0  0  0  0  0  0  0  0  0  0  0
   52.7295   12.5264   14.2240 H   0  0  0  0  0  0  0  0  0  0  0  0
   52.5101    9.6760   10.3231 H   0  0  0  0  0  0  0  0  0  0  0  0
   53.9298    9.1371   11.2805 H   0  0  0  0  0  0  0  0  0  0  0  0
   52.5355   14.3968   15.7525 H   0  0  0  0  0  0  0  0  0  0  0  0
   54.0164   14.6788   14.7086 H   0  0  0  0  0  0  0  0  0  0  0  0
   54.1596   14.1318   16.4178 H   0  0  0  0  0  0  0  0  0  0  0  0
   52.3216    7.4474   10.0218 H   0  0  0  0  0  0  0  0  0  0  0  0
   53.1231    6.9784   11.5216 H   0  0  0  0  0  0  0  0  0  0  0  0
   51.3483    7.5320   11.5184 H   0  0  0  0  0  0  0  0  0  0  0  0
  3  2  2  0
  4  3  1  0
  5  2  1  0
  6  5  2  0
  7 11  1  0
  8  6  1  0
  9  2  1  0
 10  4  1  0
 11  9  2  0
 12 15  1  0
 13  5  1  0
 14  3  1  0
 15 14  2  0
 16  6  1  0
 17 16  1  0
 18 11  1  0
 19  7  1  0
 20  7  1  0
 21  7  1  0
 22 10  1  0
 23 17  1  0
 24 23  1  0
 25 15  1  0
 26 16  1  0
 27 24  1  0
 28 24  1  0
 29 27  1  0
 30 28  1  0
 31 29  1  0
 32 30  1  0
 33 31  1  0
 34 32  1  0
 18 13  2  0
  8  4  2  0
 10 12  2  0
  1 35  1  0
  8 36  1  0
  9 37  1  0
 12 38  1  0
 13 39  1  0
 14 40  1  0
 16 41  1  1
 17 42  1  0
 17 43  1  0
 18 44  1  0
 23 45  1  0
 23 46  1  0
 26 47  1  0
 27 48  1  0
 27 49  1  0
 28 50  1  0
 28 51  1  0
 29 52  1  0
 29 53  1  0
 30 54  1  0
 30 55  1  0
 31 56  1  0
 31 57  1  0
 32 58  1  0
 32 59  1  0
 33 60  1  0
 33 61  1  0
 33 62  1  0
 34 63  1  0
 34 64  1  0
 34 65  1  0
M  END
> <Uni-Dock RESULT> 
ENERGY=   -4.295  LOWER_BOUND=    4.926  UPPER_BOUND=    6.861
INTER + INTRA:          -4.295
INTER:                  -4.295
INTRA:                   0.000
UNBOUND:                 0.000

$$$$

     RDKit          3D

 65 66  0  0  0  0  0  0  0  0999 V2000
   48.8068    8.9575   14.1649 Cl  0  0  0  0  0  0  0  0  0  0  0  0
   48.3935   10.8117   12.0025 C   0  0  0  0  0  0  0  0  0  0  0  0
   47.0405   10.5645   11.9373 C   0  0  0  0  0  0  0  0  0  0  0  0
   46.5728    9.2941   12.2667 C   0  0  0  0  0  0  0  0  0  0  0  0
   49.2306    9.8020   12.3885 C   0  0  0  0  0  0  0  0  0  0  0  0
   48.8286    8.5302   12.7258 C   0  0  0  0  0  0  0  0  0  0  0  0
   50.7775   13.6709   11.3867 C   0  0  0  0  0  0  0  0  0  0  0  0
   47.4471    8.3004   12.6520 C   0  0  0  0  0  0  0  0  0  0  0  0
   48.8638   12.0553   11.6784 C   0  0  0  0  0  0  0  0  0  0  0  0
   45.2282    8.9719   12.2291 C   0  0  0  0  0  0  0  0  0  0  0  0
   50.2392   12.3159   11.7394 C   0  0  0  0  0  0  0  0  0  0  0  0
   44.3516    9.9611   11.8494 C   0  0  0  0  0  0  0  0  0  0  0  0
   50.5825   10.0751   12.4433 C   0  0  0  0  0  0  0  0  0  0  0  0
   46.1196   11.5111   11.5656 C   0  0  0  0  0  0  0  0  0  0  0  0
   44.7467   11.2391   11.5101 C   0  0  0  0  0  0  0  0  0  0  0  0
   49.7776    7.5077   13.1234 C   0  0  1  0  0  0  0  0  0  0  0  0
   49.9918    7.6208   14.6523 C   0  0  0  0  0  0  0  0  0  0  0  0
   51.1008   11.3127   12.1259 C   0  0  0  0  0  0  0  0  0  0  0  0
   51.6455   14.0863   12.3651 F   0  0  0  0  0  0  0  0  0  0  0  0
   49.7436   14.5648   11.2475 F   0  0  0  0  0  0  0  0  0  0  0  0
   51.4233   13.5959   10.1608 F   0  0  0  0  0  0  0  0  0  0  0  0
   44.6687    7.3683   12.6482 Cl  0  0  0  0  0  0  0  0  0  0  0  0
   48.6890    7.4095   15.3435 C   0  0  0  0  0  0  0  0  0  0  0  0
   48.7393    7.4213   16.7250 N   0  0  0  0  0  0  0  0  0  0  0  0
   43.6052   12.4850   11.0275 Cl  0  0  0  0  0  0  0  0  0  0  0  0
   49.1177    6.2705   12.9043 O   0  0  0  0  0  0  0  0  0  0  0  0
   48.9740    8.5224   17.4906 C   0  0  0  0  0  0  0  0  0  0  0  0
   48.3179    6.1893   17.3162 C   0  0  0  0  0  0  0  0  0  0  0  0
   50.3032    9.1874   17.5672 C   0  0  0  0  0  0  0  0  0  0  0  0
   49.3348    5.1041   16.9909 C   0  0  0  0  0  0  0  0  0  0  0  0
   51.4054    8.2682   18.0338 C   0  0  0  0  0  0  0  0  0  0  0  0
   48.9213    3.7944   17.6012 C   0  0  0  0  0  0  0  0  0  0  0  0
   52.6972    9.0864   18.0589 C   0  0  0  0  0  0  0  0  0  0  0  0
   47.5861    3.3062   17.1153 C   0  0  0  0  0  0  0  0  0  0  0  0
   49.1183    8.0890   15.1928 H   0  0  0  0  0  0  0  0  0  0  0  0
   47.0721    7.3130   12.9086 H   0  0  0  0  0  0  0  0  0  0  0  0
   48.2627   12.8915   11.3668 H   0  0  0  0  0  0  0  0  0  0  0  0
   43.2827    9.7475   11.8074 H   0  0  0  0  0  0  0  0  0  0  0  0
   51.3243    9.3232   12.7435 H   0  0  0  0  0  0  0  0  0  0  0  0
   46.3930   12.5152   11.2953 H   0  0  0  0  0  0  0  0  0  0  0  0
   50.7048    7.3987   12.5801 H   0  0  0  0  0  0  0  0  0  0  0  0
   50.7865    6.9454   14.9828 H   0  0  0  0  0  0  0  0  0  0  0  0
   50.3367    8.6663   14.8674 H   0  0  0  0  0  0  0  0  0  0  0  0
   52.1491   11.5550   12.1599 H   0  0  0  0  0  0  0  0  0  0  0  0
   47.9337    8.2151   15.0020 H   0  0  0  0  0  0  0  0  0  0  0  0
   48.1658    6.4813   14.9568 H   0  0  0  0  0  0  0  0  0  0  0  0
   48.7427    6.2772   11.9833 H   0  0  0  0  0  0  0  0  0  0  0  0
   48.5957    8.3069   18.5634 H   0  0  0  0  0  0  0  0  0  0  0  0
   48.2482    9.3974   17.2413 H   0  0  0  0  0  0  0  0  0  0  0  0
   48.2074    6.2840   18.4221 H   0  0  0  0  0  0  0  0  0  0  0  0
   47.3450    5.8153   16.8871 H   0  0  0  0  0  0  0  0  0  0  0  0
   50.2088    9.9292   18.4575 H   0  0  0  0  0  0  0  0  0  0  0  0
   50.6349    9.7822   16.7376 H   0  0  0  0  0  0  0  0  0  0  0  0
   50.3506    5.3759   17.2901 H   0  0  0  0  0  0  0  0  0  0  0  0
   49.3343    4.9835   15.8822 H   0  0  0  0  0  0  0  0  0  0  0  0
   51.2278    7.8840   19.0543 H   0  0  0  0  0  0  0  0  0  0  0  0
   51.5683    7.4445   17.3286 H   0  0  0  0  0  0  0  0  0  0  0  0
   49.6662    2.9988   17.4171 H   0  0  0  0  0  0  0  0  0  0  0  0
   48.8378    3.9433   18.6994 H   0  0  0  0  0  0  0  0  0  0  0  0
   53.0653    9.3291   17.0479 H   0  0  0  0  0  0  0  0  0  0  0  0
   53.4721    8.5248   18.6448 H   0  0  0  0  0  0  0  0  0  0  0  0
   52.5544   10.0723   18.5766 H   0  0  0  0  0  0  0  0  0  0  0  0
   47.5757    2.1857   17.1685 H   0  0  0  0  0  0  0  0  0  0  0  0
   46.7367    3.6116   17.7805 H   0  0  0  0  0  0  0  0  0  0  0  0
   47.3930    3.5608   16.0417 H   0  0  0  0  0  0  0  0  0  0  0  0
  3  2  2  0
  4  3  1  0
  5  2  1  0
  6  5  2  0
  7 11  1  0
  8  6  1  0
  9  2  1  0
 10  4  1  0
 11  9  2  0
 12 15  1  0
 13  5  1  0
 14  3  1  0
 15 14  2  0
 16  6  1  0
 17 16  1  0
 18 11  1  0
 19  7  1  0
 20  7  1  0
 21  7  1  0
 22 10  1  0
 23 17  1  0
 24 23  1  0
 25 15  1  0
 26 16  1  0
 27 24  1  0
 28 24  1  0
 29 27  1  0
 30 28  1  0
 31 29  1  0
 32 30  1  0
 33 31  1  0
 34 32  1  0
 18 13  2  0
  8  4  2  0
 10 12  2  0
  1 35  1  0
  8 36  1  0
  9 37  1  0
 12 38  1  0
 13 39  1  0
 14 40  1  0
 16 41  1  1
 17 42  1  0
 17 43  1  0
 18 44  1  0
 23 45  1  0
 23 46  1  0
 26 47  1  0
 27 48  1  0
 27 49  1  0
 28 50  1  0
 28 51  1  0
 29 52  1  0
 29 53  1  0
 30 54  1  0
 30 55  1  0
 31 56  1  0
 31 57  1  0
 32 58  1  0
 32 59  1  0
 33 60  1  0
 33 61  1  0
 33 62  1  0
 34 63  1  0
 34 64  1  0
 34 65  1  0
M  END
> <Uni-Dock RESULT> 
ENERGY=   -4.257  LOWER_BOUND=    2.971  UPPER_BOUND=    4.125
INTER + INTRA:          -4.257
INTER:                  -4.257
INTRA:                   0.000
UNBOUND:                 0.000

$$$$
