
     RDKit          3D

 65 66  0  0  0  0  0  0  0  0999 V2000
   48.3924    7.6379   13.9992 Cl  0  0  0  0  0  0  0  0  0  0  0  0
   45.2563    7.4501   12.2153 C   0  0  0  0  0  0  0  0  0  0  0  0
   45.0272    8.7594   11.8784 C   0  0  0  0  0  0  0  0  0  0  0  0
   45.9727    9.7331   12.1148 C   0  0  0  0  0  0  0  0  0  0  0  0
   46.4728    7.1101   12.8070 C   0  0  0  0  0  0  0  0  0  0  0  0
   47.4496    8.0564   13.0616 C   0  0  0  0  0  0  0  0  0  0  0  0
   43.5289    4.1089   12.0873 C   0  0  0  0  0  0  0  0  0  0  0  0
   47.1582    9.3521   12.7006 C   0  0  0  0  0  0  0  0  0  0  0  0
   44.3008    6.4878   11.9786 C   0  0  0  0  0  0  0  0  0  0  0  0
   45.7765   11.0647   11.7877 C   0  0  0  0  0  0  0  0  0  0  0  0
   44.5491    5.1700   12.3317 C   0  0  0  0  0  0  0  0  0  0  0  0
   44.6027   11.4330   11.2076 C   0  0  0  0  0  0  0  0  0  0  0  0
   46.6813    5.7719   13.1466 C   0  0  0  0  0  0  0  0  0  0  0  0
   43.8531    9.1549   11.2934 C   0  0  0  0  0  0  0  0  0  0  0  0
   43.6344   10.4941   10.9544 C   0  0  0  0  0  0  0  0  0  0  0  0
   48.7719    7.6724   13.6897 C   0  0  1  0  0  0  0  0  0  0  0  0
   48.6663    7.6234   15.1684 C   0  0  0  0  0  0  0  0  0  0  0  0
   45.7214    4.8016   12.9096 C   0  0  0  0  0  0  0  0  0  0  0  0
   42.3244    4.5762   12.6163 F   0  0  0  0  0  0  0  0  0  0  0  0
   43.3463    4.0034   10.7320 F   0  0  0  0  0  0  0  0  0  0  0  0
   43.8948    2.9179   12.6693 F   0  0  0  0  0  0  0  0  0  0  0  0
   46.9780   12.2995   12.0889 Cl  0  0  0  0  0  0  0  0  0  0  0  0
   49.8536    7.2228   15.9057 C   0  0  0  0  0  0  0  0  0  0  0  0
   51.0791    7.9171   15.8938 N   0  0  0  0  0  0  0  0  0  0  0  0
   42.1191   10.9909   10.2004 Cl  0  0  0  0  0  0  0  0  0  0  0  0
   49.3918    6.6330   13.0659 O   0  0  0  0  0  0  0  0  0  0  0  0
   51.9284    7.8890   14.7791 C   0  0  0  0  0  0  0  0  0  0  0  0
   51.8186    7.5865   17.1439 C   0  0  0  0  0  0  0  0  0  0  0  0
   53.0866    8.8668   14.8780 C   0  0  0  0  0  0  0  0  0  0  0  0
   52.2631    6.1626   17.1709 C   0  0  0  0  0  0  0  0  0  0  0  0
   52.6669   10.3007   14.9195 C   0  0  0  0  0  0  0  0  0  0  0  0
   53.0291    5.7790   18.4323 C   0  0  0  0  0  0  0  0  0  0  0  0
   51.7849   10.7325   16.0276 C   0  0  0  0  0  0  0  0  0  0  0  0
   54.2714    6.5793   18.6262 C   0  0  0  0  0  0  0  0  0  0  0  0
   49.5681    7.9172   14.6674 H   0  0  0  0  0  0  0  0  0  0  0  0
   47.8946   10.1199   12.8835 H   0  0  0  0  0  0  0  0  0  0  0  0
   43.3412    6.6754   11.5260 H   0  0  0  0  0  0  0  0  0  0  0  0
   44.3828   12.4521   10.9258 H   0  0  0  0  0  0  0  0  0  0  0  0
   47.5902    5.4279   13.6110 H   0  0  0  0  0  0  0  0  0  0  0  0
   43.0395    8.4908   11.0566 H   0  0  0  0  0  0  0  0  0  0  0  0
   49.3851    8.6085   13.4666 H   0  0  0  0  0  0  0  0  0  0  0  0
   47.7621    6.9569   15.4125 H   0  0  0  0  0  0  0  0  0  0  0  0
   48.2442    8.6291   15.5554 H   0  0  0  0  0  0  0  0  0  0  0  0
   45.8898    3.7557   13.1781 H   0  0  0  0  0  0  0  0  0  0  0  0
   49.5378    7.2021   17.0159 H   0  0  0  0  0  0  0  0  0  0  0  0
   50.0671    6.0925   15.7716 H   0  0  0  0  0  0  0  0  0  0  0  0
   49.9622    6.8879   12.3012 H   0  0  0  0  0  0  0  0  0  0  0  0
   52.3357    6.8493   14.5549 H   0  0  0  0  0  0  0  0  0  0  0  0
   51.4233    8.1626   13.8526 H   0  0  0  0  0  0  0  0  0  0  0  0
   52.5926    8.3347   17.2757 H   0  0  0  0  0  0  0  0  0  0  0  0
   51.0663    7.7191   17.9483 H   0  0  0  0  0  0  0  0  0  0  0  0
   53.7366    8.7787   13.9535 H   0  0  0  0  0  0  0  0  0  0  0  0
   53.7575    8.6155   15.7156 H   0  0  0  0  0  0  0  0  0  0  0  0
   52.8627    5.8308   16.3197 H   0  0  0  0  0  0  0  0  0  0  0  0
   51.3575    5.4895   17.2018 H   0  0  0  0  0  0  0  0  0  0  0  0
   53.5333   10.9965   14.8178 H   0  0  0  0  0  0  0  0  0  0  0  0
   52.0762   10.4671   13.9636 H   0  0  0  0  0  0  0  0  0  0  0  0
   52.3484    5.8534   19.3201 H   0  0  0  0  0  0  0  0  0  0  0  0
   53.3117    4.7040   18.3720 H   0  0  0  0  0  0  0  0  0  0  0  0
   51.5883   11.8341   15.8623 H   0  0  0  0  0  0  0  0  0  0  0  0
   52.2176   10.6615   17.0419 H   0  0  0  0  0  0  0  0  0  0  0  0
   50.7860   10.2465   15.9759 H   0  0  0  0  0  0  0  0  0  0  0  0
   55.1595    5.9068   18.8093 H   0  0  0  0  0  0  0  0  0  0  0  0
   54.5012    7.0627   17.6496 H   0  0  0  0  0  0  0  0  0  0  0  0
   54.1208    7.2869   19.4528 H   0  0  0  0  0  0  0  0  0  0  0  0
  3  2  2  0
  4  3  1  0
  5  2  1  0
  6  5  2  0
  7 11  1  0
  8  6  1  0
  9  2  1  0
 10  4  1  0
 11  9  2  0
 12 15  1  0
 13  5  1  0
 14  3  1  0
 15 14  2  0
 16  6  1  0
 17 16  1  0
 18 11  1  0
 19  7  1  0
 20  7  1  0
 21  7  1  0
 22 10  1  0
 23 17  1  0
 24 23  1  0
 25 15  1  0
 26 16  1  0
 27 24  1  0
 28 24  1  0
 29 27  1  0
 30 28  1  0
 31 29  1  0
 32 30  1  0
 33 31  1  0
 34 32  1  0
 18 13  2  0
  8  4  2  0
 10 12  2  0
  1 35  1  0
  8 36  1  0
  9 37  1  0
 12 38  1  0
 13 39  1  0
 14 40  1  0
 16 41  1  1
 17 42  1  0
 17 43  1  0
 18 44  1  0
 23 45  1  0
 23 46  1  0
 26 47  1  0
 27 48  1  0
 27 49  1  0
 28 50  1  0
 28 51  1  0
 29 52  1  0
 29 53  1  0
 30 54  1  0
 30 55  1  0
 31 56  1  0
 31 57  1  0
 32 58  1  0
 32 59  1  0
 33 60  1  0
 33 61  1  0
 33 62  1  0
 34 63  1  0
 34 64  1  0
 34 65  1  0
M  END
> <Uni-Dock RESULT> 
ENERGY=   -5.814  LOWER_BOUND=    0.000  UPPER_BOUND=    0.000
INTER + INTRA:          -5.814
INTER:                  -5.814
INTRA:                   0.000
UNBOUND:                 0.000

$$$$

     RDKit          3D

 65 66  0  0  0  0  0  0  0  0999 V2000
   48.6181    7.7894   13.9526 Cl  0  0  0  0  0  0  0  0  0  0  0  0
   45.3838    7.6927   12.3457 C   0  0  0  0  0  0  0  0  0  0  0  0
   45.1903    9.0023   11.9881 C   0  0  0  0  0  0  0  0  0  0  0  0
   46.1864    9.9404   12.1481 C   0  0  0  0  0  0  0  0  0  0  0  0
   46.6159    7.3155   12.8795 C   0  0  0  0  0  0  0  0  0  0  0  0
   47.6432    8.2253   13.0567 C   0  0  0  0  0  0  0  0  0  0  0  0
   43.5166    4.4255   12.3967 C   0  0  0  0  0  0  0  0  0  0  0  0
   47.3857    9.5234   12.6788 C   0  0  0  0  0  0  0  0  0  0  0  0
   44.3781    6.7664   12.1856 C   0  0  0  0  0  0  0  0  0  0  0  0
   46.0273   11.2711   11.7980 C   0  0  0  0  0  0  0  0  0  0  0  0
   44.5912    5.4479   12.5586 C   0  0  0  0  0  0  0  0  0  0  0  0
   44.8395   11.6750   11.2727 C   0  0  0  0  0  0  0  0  0  0  0  0
   46.7878    5.9780   13.2417 C   0  0  0  0  0  0  0  0  0  0  0  0
   44.0030    9.4333   11.4572 C   0  0  0  0  0  0  0  0  0  0  0  0
   43.8210   10.7722   11.0963 C   0  0  0  0  0  0  0  0  0  0  0  0
   48.9812    7.8006   13.6223 C   0  0  1  0  0  0  0  0  0  0  0  0
   48.9549    7.7908   15.1053 C   0  0  0  0  0  0  0  0  0  0  0  0
   45.7774    5.0439   13.0817 C   0  0  0  0  0  0  0  0  0  0  0  0
   42.3631    4.9555   12.9778 F   0  0  0  0  0  0  0  0  0  0  0  0
   43.2557    4.2961   11.0565 F   0  0  0  0  0  0  0  0  0  0  0  0
   43.8648    3.2340   12.9886 F   0  0  0  0  0  0  0  0  0  0  0  0
   47.2931   12.4607   12.0022 Cl  0  0  0  0  0  0  0  0  0  0  0  0
   50.1636    7.3577   15.7877 C   0  0  0  0  0  0  0  0  0  0  0  0
   51.4139    7.9991   15.6919 N   0  0  0  0  0  0  0  0  0  0  0  0
   42.2882   11.3148   10.4125 Cl  0  0  0  0  0  0  0  0  0  0  0  0
   49.5228    6.7216   12.9929 O   0  0  0  0  0  0  0  0  0  0  0  0
   52.1989    7.9090   14.5342 C   0  0  0  0  0  0  0  0  0  0  0  0
   52.2069    7.6669   16.9084 C   0  0  0  0  0  0  0  0  0  0  0  0
   53.3999    8.8390   14.5453 C   0  0  0  0  0  0  0  0  0  0  0  0
   52.5934    6.2265   16.9480 C   0  0  0  0  0  0  0  0  0  0  0  0
   53.0421   10.2899   14.5726 C   0  0  0  0  0  0  0  0  0  0  0  0
   53.4112    5.8405   18.1758 C   0  0  0  0  0  0  0  0  0  0  0  0
   52.2407   10.7844   15.7152 C   0  0  0  0  0  0  0  0  0  0  0  0
   54.6940    6.5918   18.2818 C   0  0  0  0  0  0  0  0  0  0  0  0
   49.8391    8.0343   14.5491 H   0  0  0  0  0  0  0  0  0  0  0  0
   48.1619   10.2635   12.8020 H   0  0  0  0  0  0  0  0  0  0  0  0
   43.4036    6.9838   11.7807 H   0  0  0  0  0  0  0  0  0  0  0  0
   44.6463   12.6956   10.9771 H   0  0  0  0  0  0  0  0  0  0  0  0
   47.7060    5.6068   13.6650 H   0  0  0  0  0  0  0  0  0  0  0  0
   43.1512    8.7988   11.2818 H   0  0  0  0  0  0  0  0  0  0  0  0
   49.6190    8.7045   13.3425 H   0  0  0  0  0  0  0  0  0  0  0  0
   48.0390    7.1690   15.4148 H   0  0  0  0  0  0  0  0  0  0  0  0
   48.5963    8.8222   15.4886 H   0  0  0  0  0  0  0  0  0  0  0  0
   45.9173    3.9984   13.3675 H   0  0  0  0  0  0  0  0  0  0  0  0
   49.9086    7.3764   16.9134 H   0  0  0  0  0  0  0  0  0  0  0  0
   50.3230    6.2166   15.6713 H   0  0  0  0  0  0  0  0  0  0  0  0
   50.0603    6.9342   12.1923 H   0  0  0  0  0  0  0  0  0  0  0  0
   52.5504    6.8481   14.3151 H   0  0  0  0  0  0  0  0  0  0  0  0
   51.6554    8.1820   13.6295 H   0  0  0  0  0  0  0  0  0  0  0  0
   53.0169    8.3845   16.9790 H   0  0  0  0  0  0  0  0  0  0  0  0
   51.5059    7.8500   17.7485 H   0  0  0  0  0  0  0  0  0  0  0  0
   53.9940    8.7018   13.5897 H   0  0  0  0  0  0  0  0  0  0  0  0
   54.1049    8.5792   15.3518 H   0  0  0  0  0  0  0  0  0  0  0  0
   53.1313    5.8498   16.0746 H   0  0  0  0  0  0  0  0  0  0  0  0
   51.6642    5.5932   17.0449 H   0  0  0  0  0  0  0  0  0  0  0  0
   53.9294   10.9459   14.4065 H   0  0  0  0  0  0  0  0  0  0  0  0
   52.4071   10.4588   13.6460 H   0  0  0  0  0  0  0  0  0  0  0  0
   52.7839    5.9644   19.0967 H   0  0  0  0  0  0  0  0  0  0  0  0
   53.6458    4.7534   18.1279 H   0  0  0  0  0  0  0  0  0  0  0  0
   52.0806   11.8892   15.5324 H   0  0  0  0  0  0  0  0  0  0  0  0
   52.7252   10.7190   16.7061 H   0  0  0  0  0  0  0  0  0  0  0  0
   51.2214   10.3401   15.7299 H   0  0  0  0  0  0  0  0  0  0  0  0
   55.5626    5.8869   18.4340 H   0  0  0  0  0  0  0  0  0  0  0  0
   54.8895    7.0421   17.2821 H   0  0  0  0  0  0  0  0  0  0  0  0
   54.6181    7.3243   19.0968 H   0  0  0  0  0  0  0  0  0  0  0  0
  3  2  2  0
  4  3  1  0
  5  2  1  0
  6  5  2  0
  7 11  1  0
  8  6  1  0
  9  2  1  0
 10  4  1  0
 11  9  2  0
 12 15  1  0
 13  5  1  0
 14  3  1  0
 15 14  2  0
 16  6  1  0
 17 16  1  0
 18 11  1  0
 19  7  1  0
 20  7  1  0
 21  7  1  0
 22 10  1  0
 23 17  1  0
 24 23  1  0
 25 15  1  0
 26 16  1  0
 27 24  1  0
 28 24  1  0
 29 27  1  0
 30 28  1  0
 31 29  1  0
 32 30  1  0
 33 31  1  0
 34 32  1  0
 18 13  2  0
  8  4  2  0
 10 12  2  0
  1 35  1  0
  8 36  1  0
  9 37  1  0
 12 38  1  0
 13 39  1  0
 14 40  1  0
 16 41  1  1
 17 42  1  0
 17 43  1  0
 18 44  1  0
 23 45  1  0
 23 46  1  0
 26 47  1  0
 27 48  1  0
 27 49  1  0
 28 50  1  0
 28 51  1  0
 29 52  1  0
 29 53  1  0
 30 54  1  0
 30 55  1  0
 31 56  1  0
 31 57  1  0
 32 58  1  0
 32 59  1  0
 33 60  1  0
 33 61  1  0
 33 62  1  0
 34 63  1  0
 34 64  1  0
 34 65  1  0
M  END
> <Uni-Dock RESULT> 
ENERGY=   -5.777  LOWER_BOUND=    0.382  UPPER_BOUND=    0.382
INTER + INTRA:          -5.777
INTER:                  -5.777
INTRA:                   0.000
UNBOUND:                 0.000

$$$$

     RDKit          3D

 65 66  0  0  0  0  0  0  0  0999 V2000
   48.5636    8.5889   13.8989 Cl  0  0  0  0  0  0  0  0  0  0  0  0
   45.4423    7.6910   12.3165 C   0  0  0  0  0  0  0  0  0  0  0  0
   45.3995    6.3319   12.4937 C   0  0  0  0  0  0  0  0  0  0  0  0
   46.3402    5.6825   13.2626 C   0  0  0  0  0  0  0  0  0  0  0  0
   46.4612    8.4184   12.9316 C   0  0  0  0  0  0  0  0  0  0  0  0
   47.4255    7.8059   13.7122 C   0  0  0  0  0  0  0  0  0  0  0  0
   43.5538   10.4138   10.5323 C   0  0  0  0  0  0  0  0  0  0  0  0
   47.3273    6.4402   13.8502 C   0  0  0  0  0  0  0  0  0  0  0  0
   44.4993    8.3270   11.5411 C   0  0  0  0  0  0  0  0  0  0  0  0
   46.3283    4.3121   13.4641 C   0  0  0  0  0  0  0  0  0  0  0  0
   44.5629    9.7015   11.3693 C   0  0  0  0  0  0  0  0  0  0  0  0
   45.3484    3.5705   12.8812 C   0  0  0  0  0  0  0  0  0  0  0  0
   46.4879    9.8001   12.7322 C   0  0  0  0  0  0  0  0  0  0  0  0
   44.4228    5.5635   11.9169 C   0  0  0  0  0  0  0  0  0  0  0  0
   44.3916    4.1783   12.1076 C   0  0  0  0  0  0  0  0  0  0  0  0
   48.5170    8.6080   14.3873 C   0  0  1  0  0  0  0  0  0  0  0  0
   49.6524    8.8478   13.4635 C   0  0  0  0  0  0  0  0  0  0  0  0
   45.5402   10.4425   11.9523 C   0  0  0  0  0  0  0  0  0  0  0  0
   43.4869    9.7351    9.3141 F   0  0  0  0  0  0  0  0  0  0  0  0
   42.3287   10.2653   11.1308 F   0  0  0  0  0  0  0  0  0  0  0  0
   43.8983   11.7319   10.3448 F   0  0  0  0  0  0  0  0  0  0  0  0
   47.5236    3.4894   14.4405 Cl  0  0  0  0  0  0  0  0  0  0  0  0
   50.7586    9.6472   13.9648 C   0  0  0  0  0  0  0  0  0  0  0  0
   51.5673    9.2998   15.0645 N   0  0  0  0  0  0  0  0  0  0  0  0
   43.1281    3.1999   11.3609 Cl  0  0  0  0  0  0  0  0  0  0  0  0
   48.0521    9.6674   15.1051 O   0  0  0  0  0  0  0  0  0  0  0  0
   51.0915    9.3803   16.3805 C   0  0  0  0  0  0  0  0  0  0  0  0
   52.8780    9.9929   14.9215 C   0  0  0  0  0  0  0  0  0  0  0  0
   52.0312    8.7614   17.4010 C   0  0  0  0  0  0  0  0  0  0  0  0
   52.7493   11.4709   15.0789 C   0  0  0  0  0  0  0  0  0  0  0  0
   52.2311    7.2906   17.2264 C   0  0  0  0  0  0  0  0  0  0  0  0
   54.0688   12.2231   14.9441 C   0  0  0  0  0  0  0  0  0  0  0  0
   52.7924    6.8154   15.9413 C   0  0  0  0  0  0  0  0  0  0  0  0
   55.0818   11.8096   15.9561 C   0  0  0  0  0  0  0  0  0  0  0  0
   49.7890    8.7261   14.5204 H   0  0  0  0  0  0  0  0  0  0  0  0
   48.0615    5.9251   14.4511 H   0  0  0  0  0  0  0  0  0  0  0  0
   43.6855    7.8322   11.0372 H   0  0  0  0  0  0  0  0  0  0  0  0
   45.2777    2.4990   12.9961 H   0  0  0  0  0  0  0  0  0  0  0  0
   47.2433   10.4328   13.1672 H   0  0  0  0  0  0  0  0  0  0  0  0
   43.6326    5.9516   11.2972 H   0  0  0  0  0  0  0  0  0  0  0  0
   48.9022    7.8400   15.1382 H   0  0  0  0  0  0  0  0  0  0  0  0
   49.2061    9.2864   12.4993 H   0  0  0  0  0  0  0  0  0  0  0  0
   50.0178    7.8364   13.0357 H   0  0  0  0  0  0  0  0  0  0  0  0
   45.5663   11.5243   11.7992 H   0  0  0  0  0  0  0  0  0  0  0  0
   51.4931    9.7506   13.0803 H   0  0  0  0  0  0  0  0  0  0  0  0
   50.4579   10.7612   14.0635 H   0  0  0  0  0  0  0  0  0  0  0  0
   47.7926    9.4578   16.0345 H   0  0  0  0  0  0  0  0  0  0  0  0
   50.8418   10.4445   16.7002 H   0  0  0  0  0  0  0  0  0  0  0  0
   50.1499    8.8504   16.5255 H   0  0  0  0  0  0  0  0  0  0  0  0
   53.5847    9.4988   15.5791 H   0  0  0  0  0  0  0  0  0  0  0  0
   53.1793    9.7916   13.8730 H   0  0  0  0  0  0  0  0  0  0  0  0
   51.5912    8.8760   18.4393 H   0  0  0  0  0  0  0  0  0  0  0  0
   52.9921    9.2997   17.4443 H   0  0  0  0  0  0  0  0  0  0  0  0
   52.2779   11.8158   16.0024 H   0  0  0  0  0  0  0  0  0  0  0  0
   52.1270   11.8837   14.2325 H   0  0  0  0  0  0  0  0  0  0  0  0
   52.7816    6.8355   18.0838 H   0  0  0  0  0  0  0  0  0  0  0  0
   51.1928    6.8364   17.3037 H   0  0  0  0  0  0  0  0  0  0  0  0
   54.4594   12.1083   13.8994 H   0  0  0  0  0  0  0  0  0  0  0  0
   53.8786   13.3132   15.0651 H   0  0  0  0  0  0  0  0  0  0  0  0
   52.8505    5.6885   16.0209 H   0  0  0  0  0  0  0  0  0  0  0  0
   53.8222    7.1462   15.7151 H   0  0  0  0  0  0  0  0  0  0  0  0
   52.1047    7.0130   15.0901 H   0  0  0  0  0  0  0  0  0  0  0  0
   55.5100   12.7085   16.4883 H   0  0  0  0  0  0  0  0  0  0  0  0
   54.5351   11.2622   16.7571 H   0  0  0  0  0  0  0  0  0  0  0  0
   55.8655   11.2185   15.4631 H   0  0  0  0  0  0  0  0  0  0  0  0
  3  2  2  0
  4  3  1  0
  5  2  1  0
  6  5  2  0
  7 11  1  0
  8  6  1  0
  9  2  1  0
 10  4  1  0
 11  9  2  0
 12 15  1  0
 13  5  1  0
 14  3  1  0
 15 14  2  0
 16  6  1  0
 17 16  1  0
 18 11  1  0
 19  7  1  0
 20  7  1  0
 21  7  1  0
 22 10  1  0
 23 17  1  0
 24 23  1  0
 25 15  1  0
 26 16  1  0
 27 24  1  0
 28 24  1  0
 29 27  1  0
 30 28  1  0
 31 29  1  0
 32 30  1  0
 33 31  1  0
 34 32  1  0
 18 13  2  0
  8  4  2  0
 10 12  2  0
  1 35  1  0
  8 36  1  0
  9 37  1  0
 12 38  1  0
 13 39  1  0
 14 40  1  0
 16 41  1  1
 17 42  1  0
 17 43  1  0
 18 44  1  0
 23 45  1  0
 23 46  1  0
 26 47  1  0
 27 48  1  0
 27 49  1  0
 28 50  1  0
 28 51  1  0
 29 52  1  0
 29 53  1  0
 30 54  1  0
 30 55  1  0
 31 56  1  0
 31 57  1  0
 32 58  1  0
 32 59  1  0
 33 60  1  0
 33 61  1  0
 33 62  1  0
 34 63  1  0
 34 64  1  0
 34 65  1  0
M  END
> <Uni-Dock RESULT> 
ENERGY=   -5.127  LOWER_BOUND=    2.800  UPPER_BOUND=    4.987
INTER + INTRA:          -5.127
INTER:                  -5.127
INTRA:                   0.000
UNBOUND:                 0.000

$$$$

     RDKit          3D

 65 66  0  0  0  0  0  0  0  0999 V2000
   48.5639    8.5890   13.8988 Cl  0  0  0  0  0  0  0  0  0  0  0  0
   45.4424    7.6912   12.3166 C   0  0  0  0  0  0  0  0  0  0  0  0
   45.3995    6.3321   12.4938 C   0  0  0  0  0  0  0  0  0  0  0  0
   46.3403    5.6826   13.2626 C   0  0  0  0  0  0  0  0  0  0  0  0
   46.4614    8.4185   12.9316 C   0  0  0  0  0  0  0  0  0  0  0  0
   47.4258    7.8060   13.7121 C   0  0  0  0  0  0  0  0  0  0  0  0
   43.5539   10.4141   10.5326 C   0  0  0  0  0  0  0  0  0  0  0  0
   47.3276    6.4402   13.8502 C   0  0  0  0  0  0  0  0  0  0  0  0
   44.4994    8.3272   11.5413 C   0  0  0  0  0  0  0  0  0  0  0  0
   46.3283    4.3123   13.4641 C   0  0  0  0  0  0  0  0  0  0  0  0
   44.5631    9.7018   11.3695 C   0  0  0  0  0  0  0  0  0  0  0  0
   45.3484    3.5707   12.8813 C   0  0  0  0  0  0  0  0  0  0  0  0
   46.4882    9.8003   12.7322 C   0  0  0  0  0  0  0  0  0  0  0  0
   44.4227    5.5638   11.9171 C   0  0  0  0  0  0  0  0  0  0  0  0
   44.3915    4.1786   12.1078 C   0  0  0  0  0  0  0  0  0  0  0  0
   48.5173    8.6080   14.3871 C   0  0  1  0  0  0  0  0  0  0  0  0
   49.6527    8.8477   13.4632 C   0  0  0  0  0  0  0  0  0  0  0  0
   45.5405   10.4427   11.9524 C   0  0  0  0  0  0  0  0  0  0  0  0
   43.4869    9.7355    9.3144 F   0  0  0  0  0  0  0  0  0  0  0  0
   42.3289   10.2657   11.1312 F   0  0  0  0  0  0  0  0  0  0  0  0
   43.8984   11.7322   10.3451 F   0  0  0  0  0  0  0  0  0  0  0  0
   47.5237    3.4895   14.4404 Cl  0  0  0  0  0  0  0  0  0  0  0  0
   50.7590    9.6471   13.9644 C   0  0  0  0  0  0  0  0  0  0  0  0
   51.5677    9.2997   15.0641 N   0  0  0  0  0  0  0  0  0  0  0  0
   43.1279    3.2002   11.3611 Cl  0  0  0  0  0  0  0  0  0  0  0  0
   48.0526    9.6675   15.1050 O   0  0  0  0  0  0  0  0  0  0  0  0
   51.0920    9.3801   16.3801 C   0  0  0  0  0  0  0  0  0  0  0  0
   52.8785    9.9927   14.9210 C   0  0  0  0  0  0  0  0  0  0  0  0
   52.0319    8.7612   17.4005 C   0  0  0  0  0  0  0  0  0  0  0  0
   52.7499   11.4707   15.0784 C   0  0  0  0  0  0  0  0  0  0  0  0
   52.2316    7.2904   17.2259 C   0  0  0  0  0  0  0  0  0  0  0  0
   54.0694   12.2229   14.9434 C   0  0  0  0  0  0  0  0  0  0  0  0
   52.7928    6.8152   15.9408 C   0  0  0  0  0  0  0  0  0  0  0  0
   55.0825   11.8093   15.9553 C   0  0  0  0  0  0  0  0  0  0  0  0
   49.7894    8.7261   14.5201 H   0  0  0  0  0  0  0  0  0  0  0  0
   48.0618    5.9252   14.4509 H   0  0  0  0  0  0  0  0  0  0  0  0
   43.6856    7.8325   11.0375 H   0  0  0  0  0  0  0  0  0  0  0  0
   45.2776    2.4992   12.9961 H   0  0  0  0  0  0  0  0  0  0  0  0
   47.2436   10.4329   13.1672 H   0  0  0  0  0  0  0  0  0  0  0  0
   43.6325    5.9519   11.2974 H   0  0  0  0  0  0  0  0  0  0  0  0
   48.9026    7.8400   15.1380 H   0  0  0  0  0  0  0  0  0  0  0  0
   49.2063    9.2864   12.4990 H   0  0  0  0  0  0  0  0  0  0  0  0
   50.0180    7.8364   13.0354 H   0  0  0  0  0  0  0  0  0  0  0  0
   45.5666   11.5245   11.7993 H   0  0  0  0  0  0  0  0  0  0  0  0
   51.4934    9.7505   13.0799 H   0  0  0  0  0  0  0  0  0  0  0  0
   50.4584   10.7611   14.0632 H   0  0  0  0  0  0  0  0  0  0  0  0
   47.7932    9.4579   16.0344 H   0  0  0  0  0  0  0  0  0  0  0  0
   50.8424   10.4443   16.6998 H   0  0  0  0  0  0  0  0  0  0  0  0
   50.1504    8.8503   16.5252 H   0  0  0  0  0  0  0  0  0  0  0  0
   53.5853    9.4985   15.5785 H   0  0  0  0  0  0  0  0  0  0  0  0
   53.1796    9.7913   13.8724 H   0  0  0  0  0  0  0  0  0  0  0  0
   51.5920    8.8758   18.4389 H   0  0  0  0  0  0  0  0  0  0  0  0
   52.9928    9.2994   17.4437 H   0  0  0  0  0  0  0  0  0  0  0  0
   52.2785   11.8156   16.0020 H   0  0  0  0  0  0  0  0  0  0  0  0
   52.1275   11.8835   14.2321 H   0  0  0  0  0  0  0  0  0  0  0  0
   52.7822    6.8352   18.0832 H   0  0  0  0  0  0  0  0  0  0  0  0
   51.1933    6.8363   17.3033 H   0  0  0  0  0  0  0  0  0  0  0  0
   54.4599   12.1080   13.8988 H   0  0  0  0  0  0  0  0  0  0  0  0
   53.8793   13.3129   15.0645 H   0  0  0  0  0  0  0  0  0  0  0  0
   52.8508    5.6883   16.0203 H   0  0  0  0  0  0  0  0  0  0  0  0
   53.8226    7.1459   15.7144 H   0  0  0  0  0  0  0  0  0  0  0  0
   52.1050    7.0129   15.0896 H   0  0  0  0  0  0  0  0  0  0  0  0
   55.5108   12.7081   16.4875 H   0  0  0  0  0  0  0  0  0  0  0  0
   54.5358   11.2618   16.7564 H   0  0  0  0  0  0  0  0  0  0  0  0
   55.8661   11.2181   15.4623 H   0  0  0  0  0  0  0  0  0  0  0  0
  3  2  2  0
  4  3  1  0
  5  2  1  0
  6  5  2  0
  7 11  1  0
  8  6  1  0
  9  2  1  0
 10  4  1  0
 11  9  2  0
 12 15  1  0
 13  5  1  0
 14  3  1  0
 15 14  2  0
 16  6  1  0
 17 16  1  0
 18 11  1  0
 19  7  1  0
 20  7  1  0
 21  7  1  0
 22 10  1  0
 23 17  1  0
 24 23  1  0
 25 15  1  0
 26 16  1  0
 27 24  1  0
 28 24  1  0
 29 27  1  0
 30 28  1  0
 31 29  1  0
 32 30  1  0
 33 31  1  0
 34 32  1  0
 18 13  2  0
  8  4  2  0
 10 12  2  0
  1 35  1  0
  8 36  1  0
  9 37  1  0
 12 38  1  0
 13 39  1  0
 14 40  1  0
 16 41  1  1
 17 42  1  0
 17 43  1  0
 18 44  1  0
 23 45  1  0
 23 46  1  0
 26 47  1  0
 27 48  1  0
 27 49  1  0
 28 50  1  0
 28 51  1  0
 29 52  1  0
 29 53  1  0
 30 54  1  0
 30 55  1  0
 31 56  1  0
 31 57  1  0
 32 58  1  0
 32 59  1  0
 33 60  1  0
 33 61  1  0
 33 62  1  0
 34 63  1  0
 34 64  1  0
 34 65  1  0
M  END
> <Uni-Dock RESULT> 
ENERGY=   -5.127  LOWER_BOUND=    2.800  UPPER_BOUND=    4.987
INTER + INTRA:          -5.127
INTER:                  -5.127
INTRA:                   0.000
UNBOUND:                 0.000

$$$$

     RDKit          3D

 65 66  0  0  0  0  0  0  0  0999 V2000
   49.1428    8.2123   12.6914 Cl  0  0  0  0  0  0  0  0  0  0  0  0
   47.0087    5.5208   13.8115 C   0  0  0  0  0  0  0  0  0  0  0  0
   47.5351    5.2159   15.0404 C   0  0  0  0  0  0  0  0  0  0  0  0
   48.5339    5.9829   15.5992 C   0  0  0  0  0  0  0  0  0  0  0  0
   47.5012    6.6304   13.1246 C   0  0  0  0  0  0  0  0  0  0  0  0
   48.5030    7.4275   13.6495 C   0  0  0  0  0  0  0  0  0  0  0  0
   44.4230    4.2358   11.3977 C   0  0  0  0  0  0  0  0  0  0  0  0
   48.9892    7.0681   14.8858 C   0  0  0  0  0  0  0  0  0  0  0  0
   46.0148    4.7429   13.2620 C   0  0  0  0  0  0  0  0  0  0  0  0
   49.0889    5.7057   16.8376 C   0  0  0  0  0  0  0  0  0  0  0  0
   45.4993    5.0642   12.0154 C   0  0  0  0  0  0  0  0  0  0  0  0
   48.6324    4.6323   17.5372 C   0  0  0  0  0  0  0  0  0  0  0  0
   46.9540    6.9179   11.8725 C   0  0  0  0  0  0  0  0  0  0  0  0
   47.0921    4.1401   15.7639 C   0  0  0  0  0  0  0  0  0  0  0  0
   47.6381    3.8424   17.0167 C   0  0  0  0  0  0  0  0  0  0  0  0
   49.0179    8.6381   12.9015 C   0  0  1  0  0  0  0  0  0  0  0  0
   50.0629    8.2551   11.9209 C   0  0  0  0  0  0  0  0  0  0  0  0
   45.9538    6.1366   11.3173 C   0  0  0  0  0  0  0  0  0  0  0  0
   44.8466    2.9073   11.4639 F   0  0  0  0  0  0  0  0  0  0  0  0
   43.3088    4.3313   12.1918 F   0  0  0  0  0  0  0  0  0  0  0  0
   44.1836    4.6135   10.0972 F   0  0  0  0  0  0  0  0  0  0  0  0
   50.3570    6.6805   17.5453 Cl  0  0  0  0  0  0  0  0  0  0  0  0
   50.6189    9.3149   11.0954 C   0  0  0  0  0  0  0  0  0  0  0  0
   51.3181   10.4341   11.5880 N   0  0  0  0  0  0  0  0  0  0  0  0
   47.0583    2.4553   17.9394 Cl  0  0  0  0  0  0  0  0  0  0  0  0
   48.0339    9.4792   12.4797 O   0  0  0  0  0  0  0  0  0  0  0  0
   50.6585   11.4803   12.2475 C   0  0  0  0  0  0  0  0  0  0  0  0
   52.2010   10.9506   10.5052 C   0  0  0  0  0  0  0  0  0  0  0  0
   51.6043   12.4808   12.8893 C   0  0  0  0  0  0  0  0  0  0  0  0
   51.4193   11.5380    9.3785 C   0  0  0  0  0  0  0  0  0  0  0  0
   52.4488   11.9030   13.9787 C   0  0  0  0  0  0  0  0  0  0  0  0
   52.2829   12.0841    8.2467 C   0  0  0  0  0  0  0  0  0  0  0  0
   53.3514   10.7809   13.6344 C   0  0  0  0  0  0  0  0  0  0  0  0
   53.2057   13.1680    8.6882 C   0  0  0  0  0  0  0  0  0  0  0  0
   50.0744    9.1980   12.4321 H   0  0  0  0  0  0  0  0  0  0  0  0
   49.7721    7.6646   15.3290 H   0  0  0  0  0  0  0  0  0  0  0  0
   45.5859    3.8739   13.7330 H   0  0  0  0  0  0  0  0  0  0  0  0
   49.0184    4.3582   18.5078 H   0  0  0  0  0  0  0  0  0  0  0  0
   47.2816    7.7527   11.2761 H   0  0  0  0  0  0  0  0  0  0  0  0
   46.3177    3.4672   15.4377 H   0  0  0  0  0  0  0  0  0  0  0  0
   49.5783    9.1741   13.7386 H   0  0  0  0  0  0  0  0  0  0  0  0
   49.6245    7.4013   11.2884 H   0  0  0  0  0  0  0  0  0  0  0  0
   50.8932    7.6563   12.4608 H   0  0  0  0  0  0  0  0  0  0  0  0
   45.5296    6.3661   10.3366 H   0  0  0  0  0  0  0  0  0  0  0  0
   51.3616    8.7950   10.3808 H   0  0  0  0  0  0  0  0  0  0  0  0
   49.8521    9.6756   10.3060 H   0  0  0  0  0  0  0  0  0  0  0  0
   47.7519   10.1544   13.1428 H   0  0  0  0  0  0  0  0  0  0  0  0
   49.9245   12.0371   11.5779 H   0  0  0  0  0  0  0  0  0  0  0  0
   50.0316   11.1363   13.0703 H   0  0  0  0  0  0  0  0  0  0  0  0
   52.9418   11.5958   10.9647 H   0  0  0  0  0  0  0  0  0  0  0  0
   52.7174   10.0470   10.1209 H   0  0  0  0  0  0  0  0  0  0  0  0
   51.0043   13.3027   13.3886 H   0  0  0  0  0  0  0  0  0  0  0  0
   52.2157   13.0011   12.1340 H   0  0  0  0  0  0  0  0  0  0  0  0
   50.7087   12.3240    9.6459 H   0  0  0  0  0  0  0  0  0  0  0  0
   50.8179   10.7248    8.8775 H   0  0  0  0  0  0  0  0  0  0  0  0
   53.0032   12.6893   14.5440 H   0  0  0  0  0  0  0  0  0  0  0  0
   51.7136   11.4932   14.7415 H   0  0  0  0  0  0  0  0  0  0  0  0
   52.8402   11.2408    7.7615 H   0  0  0  0  0  0  0  0  0  0  0  0
   51.6211   12.4916    7.4499 H   0  0  0  0  0  0  0  0  0  0  0  0
   53.8813   10.4979   14.5929 H   0  0  0  0  0  0  0  0  0  0  0  0
   54.1557   11.0149   12.9136 H   0  0  0  0  0  0  0  0  0  0  0  0
   52.7864    9.8717   13.3335 H   0  0  0  0  0  0  0  0  0  0  0  0
   53.1122   14.0737    8.0207 H   0  0  0  0  0  0  0  0  0  0  0  0
   52.8357   13.5265    9.6756 H   0  0  0  0  0  0  0  0  0  0  0  0
   54.2341   12.7824    8.7074 H   0  0  0  0  0  0  0  0  0  0  0  0
  3  2  2  0
  4  3  1  0
  5  2  1  0
  6  5  2  0
  7 11  1  0
  8  6  1  0
  9  2  1  0
 10  4  1  0
 11  9  2  0
 12 15  1  0
 13  5  1  0
 14  3  1  0
 15 14  2  0
 16  6  1  0
 17 16  1  0
 18 11  1  0
 19  7  1  0
 20  7  1  0
 21  7  1  0
 22 10  1  0
 23 17  1  0
 24 23  1  0
 25 15  1  0
 26 16  1  0
 27 24  1  0
 28 24  1  0
 29 27  1  0
 30 28  1  0
 31 29  1  0
 32 30  1  0
 33 31  1  0
 34 32  1  0
 18 13  2  0
  8  4  2  0
 10 12  2  0
  1 35  1  0
  8 36  1  0
  9 37  1  0
 12 38  1  0
 13 39  1  0
 14 40  1  0
 16 41  1  1
 17 42  1  0
 17 43  1  0
 18 44  1  0
 23 45  1  0
 23 46  1  0
 26 47  1  0
 27 48  1  0
 27 49  1  0
 28 50  1  0
 28 51  1  0
 29 52  1  0
 29 53  1  0
 30 54  1  0
 30 55  1  0
 31 56  1  0
 31 57  1  0
 32 58  1  0
 32 59  1  0
 33 60  1  0
 33 61  1  0
 33 62  1  0
 34 63  1  0
 34 64  1  0
 34 65  1  0
M  END
> <Uni-Dock RESULT> 
ENERGY=   -4.841  LOWER_BOUND=    3.254  UPPER_BOUND=    6.046
INTER + INTRA:          -4.841
INTER:                  -4.841
INTRA:                   0.000
UNBOUND:                 0.000

$$$$

     RDKit          3D

 65 66  0  0  0  0  0  0  0  0999 V2000
   48.7467    9.5132   15.5776 Cl  0  0  0  0  0  0  0  0  0  0  0  0
   48.4765    7.4349   18.5204 C   0  0  0  0  0  0  0  0  0  0  0  0
   47.9547    8.2995   19.4480 C   0  0  0  0  0  0  0  0  0  0  0  0
   47.5484    9.5671   19.0929 C   0  0  0  0  0  0  0  0  0  0  0  0
   48.5925    7.8576   17.1963 C   0  0  0  0  0  0  0  0  0  0  0  0
   48.1962    9.1218   16.7970 C   0  0  0  0  0  0  0  0  0  0  0  0
   49.8646    3.9429   18.3134 C   0  0  0  0  0  0  0  0  0  0  0  0
   47.6815    9.9415   17.7753 C   0  0  0  0  0  0  0  0  0  0  0  0
   48.8839    6.1728   18.8896 C   0  0  0  0  0  0  0  0  0  0  0  0
   47.0166   10.4668   20.0019 C   0  0  0  0  0  0  0  0  0  0  0  0
   49.4143    5.3150   17.9380 C   0  0  0  0  0  0  0  0  0  0  0  0
   46.8869   10.0887   21.3019 C   0  0  0  0  0  0  0  0  0  0  0  0
   49.1319    6.9621   16.2707 C   0  0  0  0  0  0  0  0  0  0  0  0
   47.8142    7.9419   20.7631 C   0  0  0  0  0  0  0  0  0  0  0  0
   47.2792    8.8345   21.6975 C   0  0  0  0  0  0  0  0  0  0  0  0
   48.3124    9.5633   15.3541 C   0  0  1  0  0  0  0  0  0  0  0  0
   49.6728   10.0765   15.0608 C   0  0  0  0  0  0  0  0  0  0  0  0
   49.5427    5.6916   16.6396 C   0  0  0  0  0  0  0  0  0  0  0  0
   50.7031    4.0811   19.4210 F   0  0  0  0  0  0  0  0  0  0  0  0
   48.7665    3.2402   18.7391 F   0  0  0  0  0  0  0  0  0  0  0  0
   50.5194    3.3277   17.2722 F   0  0  0  0  0  0  0  0  0  0  0  0
   46.5016   12.0758   19.5491 Cl  0  0  0  0  0  0  0  0  0  0  0  0
   49.9438   10.4963   13.6954 C   0  0  0  0  0  0  0  0  0  0  0  0
   49.2731   11.5394   13.0275 N   0  0  0  0  0  0  0  0  0  0  0  0
   47.1021    8.3619   23.3878 Cl  0  0  0  0  0  0  0  0  0  0  0  0
   47.7634    8.6868   14.4686 O   0  0  0  0  0  0  0  0  0  0  0  0
   47.9540   11.3942   12.5762 C   0  0  0  0  0  0  0  0  0  0  0  0
   50.1599   12.0514   11.9457 C   0  0  0  0  0  0  0  0  0  0  0  0
   47.3397   12.6916   12.0795 C   0  0  0  0  0  0  0  0  0  0  0  0
   50.3492   11.0497   10.8564 C   0  0  0  0  0  0  0  0  0  0  0  0
   47.1987   13.7386   13.1367 C   0  0  0  0  0  0  0  0  0  0  0  0
   51.2482   11.5324    9.7234 C   0  0  0  0  0  0  0  0  0  0  0  0
   48.4276   14.2042   13.8189 C   0  0  0  0  0  0  0  0  0  0  0  0
   50.7269   12.7528    9.0449 C   0  0  0  0  0  0  0  0  0  0  0  0
   48.7970   10.4657   14.5792 H   0  0  0  0  0  0  0  0  0  0  0  0
   47.3617   10.9361   17.5038 H   0  0  0  0  0  0  0  0  0  0  0  0
   48.8243    5.7781   19.8904 H   0  0  0  0  0  0  0  0  0  0  0  0
   46.4803   10.7378   22.0632 H   0  0  0  0  0  0  0  0  0  0  0  0
   49.2599    7.2122   15.2309 H   0  0  0  0  0  0  0  0  0  0  0  0
   48.0924    6.9822   21.1638 H   0  0  0  0  0  0  0  0  0  0  0  0
   47.6428   10.4872   15.3671 H   0  0  0  0  0  0  0  0  0  0  0  0
   50.4127    9.2733   15.4195 H   0  0  0  0  0  0  0  0  0  0  0  0
   49.9413   10.9058   15.8222 H   0  0  0  0  0  0  0  0  0  0  0  0
   49.9648    4.9950   15.9110 H   0  0  0  0  0  0  0  0  0  0  0  0
   51.0562   10.8041   13.6799 H   0  0  0  0  0  0  0  0  0  0  0  0
   50.0125    9.5850   12.9840 H   0  0  0  0  0  0  0  0  0  0  0  0
   46.7972    8.8103   14.3065 H   0  0  0  0  0  0  0  0  0  0  0  0
   47.8434   10.5964   11.7709 H   0  0  0  0  0  0  0  0  0  0  0  0
   47.2725   11.0550   13.3565 H   0  0  0  0  0  0  0  0  0  0  0  0
   49.7846   13.0236   11.6454 H   0  0  0  0  0  0  0  0  0  0  0  0
   51.1407   12.1960   12.4435 H   0  0  0  0  0  0  0  0  0  0  0  0
   46.2833   12.4963   11.7180 H   0  0  0  0  0  0  0  0  0  0  0  0
   47.8707   13.0773   11.1940 H   0  0  0  0  0  0  0  0  0  0  0  0
   49.4366   10.6621   10.3971 H   0  0  0  0  0  0  0  0  0  0  0  0
   50.9029   10.1548   11.2645 H   0  0  0  0  0  0  0  0  0  0  0  0
   46.5926   14.6089   12.7896 H   0  0  0  0  0  0  0  0  0  0  0  0
   46.5516   13.2657   13.9416 H   0  0  0  0  0  0  0  0  0  0  0  0
   52.2879   11.6897   10.1124 H   0  0  0  0  0  0  0  0  0  0  0  0
   51.3410   10.7234    8.9645 H   0  0  0  0  0  0  0  0  0  0  0  0
   48.0944   14.9777   14.5741 H   0  0  0  0  0  0  0  0  0  0  0  0
   49.1667   14.7193   13.1791 H   0  0  0  0  0  0  0  0  0  0  0  0
   48.9007   13.3957   14.4182 H   0  0  0  0  0  0  0  0  0  0  0  0
   50.6943   12.6088    7.9257 H   0  0  0  0  0  0  0  0  0  0  0  0
   49.6552   12.8502    9.3316 H   0  0  0  0  0  0  0  0  0  0  0  0
   51.3466   13.6154    9.3253 H   0  0  0  0  0  0  0  0  0  0  0  0
  3  2  2  0
  4  3  1  0
  5  2  1  0
  6  5  2  0
  7 11  1  0
  8  6  1  0
  9  2  1  0
 10  4  1  0
 11  9  2  0
 12 15  1  0
 13  5  1  0
 14  3  1  0
 15 14  2  0
 16  6  1  0
 17 16  1  0
 18 11  1  0
 19  7  1  0
 20  7  1  0
 21  7  1  0
 22 10  1  0
 23 17  1  0
 24 23  1  0
 25 15  1  0
 26 16  1  0
 27 24  1  0
 28 24  1  0
 29 27  1  0
 30 28  1  0
 31 29  1  0
 32 30  1  0
 33 31  1  0
 34 32  1  0
 18 13  2  0
  8  4  2  0
 10 12  2  0
  1 35  1  0
  8 36  1  0
  9 37  1  0
 12 38  1  0
 13 39  1  0
 14 40  1  0
 16 41  1  1
 17 42  1  0
 17 43  1  0
 18 44  1  0
 23 45  1  0
 23 46  1  0
 26 47  1  0
 27 48  1  0
 27 49  1  0
 28 50  1  0
 28 51  1  0
 29 52  1  0
 29 53  1  0
 30 54  1  0
 30 55  1  0
 31 56  1  0
 31 57  1  0
 32 58  1  0
 32 59  1  0
 33 60  1  0
 33 61  1  0
 33 62  1  0
 34 63  1  0
 34 64  1  0
 34 65  1  0
M  END
> <Uni-Dock RESULT> 
ENERGY=   -4.795  LOWER_BOUND=    4.901  UPPER_BOUND=    7.745
INTER + INTRA:          -4.795
INTER:                  -4.795
INTRA:                   0.000
UNBOUND:                 0.000

$$$$

     RDKit          3D

 65 66  0  0  0  0  0  0  0  0999 V2000
   48.0914    8.8079   12.6686 Cl  0  0  0  0  0  0  0  0  0  0  0  0
   46.7433    5.6148   13.6885 C   0  0  0  0  0  0  0  0  0  0  0  0
   47.4295    5.3591   14.8478 C   0  0  0  0  0  0  0  0  0  0  0  0
   48.2675    6.3008   15.4036 C   0  0  0  0  0  0  0  0  0  0  0  0
   46.9044    6.8547   13.0702 C   0  0  0  0  0  0  0  0  0  0  0  0
   47.7355    7.8287   13.5948 C   0  0  0  0  0  0  0  0  0  0  0  0
   44.3283    3.9229   11.3499 C   0  0  0  0  0  0  0  0  0  0  0  0
   48.3960    7.5101   14.7593 C   0  0  0  0  0  0  0  0  0  0  0  0
   45.9133    4.6630   13.1406 C   0  0  0  0  0  0  0  0  0  0  0  0
   48.9758    6.0781   16.5729 C   0  0  0  0  0  0  0  0  0  0  0  0
   45.2323    4.9385   11.9644 C   0  0  0  0  0  0  0  0  0  0  0  0
   48.8422    4.8809   17.2045 C   0  0  0  0  0  0  0  0  0  0  0  0
   46.2001    7.0903   11.8878 C   0  0  0  0  0  0  0  0  0  0  0  0
   47.3115    4.1612   15.5021 C   0  0  0  0  0  0  0  0  0  0  0  0
   48.0171    3.9154   16.6844 C   0  0  0  0  0  0  0  0  0  0  0  0
   47.8898    9.1761   12.9232 C   0  0  1  0  0  0  0  0  0  0  0  0
   48.9070    9.1218   11.8450 C   0  0  0  0  0  0  0  0  0  0  0  0
   45.3643    6.1341   11.3343 C   0  0  0  0  0  0  0  0  0  0  0  0
   45.0524    2.7320   11.2705 F   0  0  0  0  0  0  0  0  0  0  0  0
   43.2947    3.6952   12.2222 F   0  0  0  0  0  0  0  0  0  0  0  0
   43.8972    4.3224   10.1066 F   0  0  0  0  0  0  0  0  0  0  0  0
   50.0394    7.2748   17.2768 Cl  0  0  0  0  0  0  0  0  0  0  0  0
   49.1293   10.3383   11.0803 C   0  0  0  0  0  0  0  0  0  0  0  0
   49.5898   11.5545   11.6214 N   0  0  0  0  0  0  0  0  0  0  0  0
   47.8559    2.3695   17.5185 Cl  0  0  0  0  0  0  0  0  0  0  0  0
   46.7051    9.7862   12.6438 O   0  0  0  0  0  0  0  0  0  0  0  0
   48.7647   12.3653   12.4129 C   0  0  0  0  0  0  0  0  0  0  0  0
   50.2327   12.3402   10.5314 C   0  0  0  0  0  0  0  0  0  0  0  0
   49.5045   13.5149   13.0753 C   0  0  0  0  0  0  0  0  0  0  0  0
   49.2423   12.8018    9.5156 C   0  0  0  0  0  0  0  0  0  0  0  0
   50.5502   13.0802   14.0507 C   0  0  0  0  0  0  0  0  0  0  0  0
   49.8556   13.6150    8.3808 C   0  0  0  0  0  0  0  0  0  0  0  0
   51.6553   12.2317   13.5494 C   0  0  0  0  0  0  0  0  0  0  0  0
   50.5365   14.8539    8.8530 C   0  0  0  0  0  0  0  0  0  0  0  0
   48.7434   10.0024   12.4351 H   0  0  0  0  0  0  0  0  0  0  0  0
   49.0545    8.2434   15.1998 H   0  0  0  0  0  0  0  0  0  0  0  0
   45.7395    3.6864   13.5611 H   0  0  0  0  0  0  0  0  0  0  0  0
   49.3630    4.6397   18.1192 H   0  0  0  0  0  0  0  0  0  0  0  0
   46.2730    8.0185   11.3463 H   0  0  0  0  0  0  0  0  0  0  0  0
   46.6890    3.3477   15.1707 H   0  0  0  0  0  0  0  0  0  0  0  0
   48.3804    9.7704   13.7647 H   0  0  0  0  0  0  0  0  0  0  0  0
   48.6257    8.2343   11.1707 H   0  0  0  0  0  0  0  0  0  0  0  0
   49.8966    8.7015   12.2733 H   0  0  0  0  0  0  0  0  0  0  0  0
   44.8159    6.3237   10.4082 H   0  0  0  0  0  0  0  0  0  0  0  0
   49.9081   10.0609   10.2746 H   0  0  0  0  0  0  0  0  0  0  0  0
   48.2349   10.5602   10.3789 H   0  0  0  0  0  0  0  0  0  0  0  0
   46.3323   10.3271   13.3811 H   0  0  0  0  0  0  0  0  0  0  0  0
   47.8670   12.7767   11.8455 H   0  0  0  0  0  0  0  0  0  0  0  0
   48.3076   11.8257   13.2425 H   0  0  0  0  0  0  0  0  0  0  0  0
   50.8404   13.1096   10.9951 H   0  0  0  0  0  0  0  0  0  0  0  0
   50.9094   11.6144   10.0355 H   0  0  0  0  0  0  0  0  0  0  0  0
   48.7755   14.1337   13.6839 H   0  0  0  0  0  0  0  0  0  0  0  0
   49.9115   14.2169   12.3294 H   0  0  0  0  0  0  0  0  0  0  0  0
   48.3947   13.3757    9.8980 H   0  0  0  0  0  0  0  0  0  0  0  0
   48.8051   11.9058    8.9865 H   0  0  0  0  0  0  0  0  0  0  0  0
   50.9537   13.9345   14.6444 H   0  0  0  0  0  0  0  0  0  0  0  0
   49.9982   12.4552   14.8221 H   0  0  0  0  0  0  0  0  0  0  0  0
   50.5493   12.9643    7.7872 H   0  0  0  0  0  0  0  0  0  0  0  0
   49.0514   13.9078    7.6690 H   0  0  0  0  0  0  0  0  0  0  0  0
   52.3165   12.0168   14.4417 H   0  0  0  0  0  0  0  0  0  0  0  0
   52.3185   12.6998   12.7997 H   0  0  0  0  0  0  0  0  0  0  0  0
   51.2926   11.2373   13.2084 H   0  0  0  0  0  0  0  0  0  0  0  0
   50.1787   15.7555    8.2753 H   0  0  0  0  0  0  0  0  0  0  0  0
   50.1796   15.0445    9.8906 H   0  0  0  0  0  0  0  0  0  0  0  0
   51.6240   14.7235    8.7693 H   0  0  0  0  0  0  0  0  0  0  0  0
  3  2  2  0
  4  3  1  0
  5  2  1  0
  6  5  2  0
  7 11  1  0
  8  6  1  0
  9  2  1  0
 10  4  1  0
 11  9  2  0
 12 15  1  0
 13  5  1  0
 14  3  1  0
 15 14  2  0
 16  6  1  0
 17 16  1  0
 18 11  1  0
 19  7  1  0
 20  7  1  0
 21  7  1  0
 22 10  1  0
 23 17  1  0
 24 23  1  0
 25 15  1  0
 26 16  1  0
 27 24  1  0
 28 24  1  0
 29 27  1  0
 30 28  1  0
 31 29  1  0
 32 30  1  0
 33 31  1  0
 34 32  1  0
 18 13  2  0
  8  4  2  0
 10 12  2  0
  1 35  1  0
  8 36  1  0
  9 37  1  0
 12 38  1  0
 13 39  1  0
 14 40  1  0
 16 41  1  1
 17 42  1  0
 17 43  1  0
 18 44  1  0
 23 45  1  0
 23 46  1  0
 26 47  1  0
 27 48  1  0
 27 49  1  0
 28 50  1  0
 28 51  1  0
 29 52  1  0
 29 53  1  0
 30 54  1  0
 30 55  1  0
 31 56  1  0
 31 57  1  0
 32 58  1  0
 32 59  1  0
 33 60  1  0
 33 61  1  0
 33 62  1  0
 34 63  1  0
 34 64  1  0
 34 65  1  0
M  END
> <Uni-Dock RESULT> 
ENERGY=   -4.753  LOWER_BOUND=    3.185  UPPER_BOUND=    6.348
INTER + INTRA:          -4.753
INTER:                  -4.753
INTRA:                   0.000
UNBOUND:                 0.000

$$$$

     RDKit          3D

 65 66  0  0  0  0  0  0  0  0999 V2000
   48.1846   11.7128   11.3116 Cl  0  0  0  0  0  0  0  0  0  0  0  0
   45.2551    9.6910   11.9312 C   0  0  0  0  0  0  0  0  0  0  0  0
   45.7975    8.4818   12.2829 C   0  0  0  0  0  0  0  0  0  0  0  0
   47.1560    8.3326   12.4573 C   0  0  0  0  0  0  0  0  0  0  0  0
   46.1042   10.7827   11.7500 C   0  0  0  0  0  0  0  0  0  0  0  0
   47.4739   10.6766   11.9153 C   0  0  0  0  0  0  0  0  0  0  0  0
   41.8987   11.2258   11.1944 C   0  0  0  0  0  0  0  0  0  0  0  0
   47.9555    9.4365   12.2679 C   0  0  0  0  0  0  0  0  0  0  0  0
   43.8965    9.8252   11.7547 C   0  0  0  0  0  0  0  0  0  0  0  0
   47.7390    7.1274   12.8126 C   0  0  0  0  0  0  0  0  0  0  0  0
   43.3676   11.0551   11.3933 C   0  0  0  0  0  0  0  0  0  0  0  0
   46.9418    6.0414   12.9995 C   0  0  0  0  0  0  0  0  0  0  0  0
   45.5299   12.0023   11.3864 C   0  0  0  0  0  0  0  0  0  0  0  0
   45.0155    7.3736   12.4766 C   0  0  0  0  0  0  0  0  0  0  0  0
   45.5833    6.1471   12.8362 C   0  0  0  0  0  0  0  0  0  0  0  0
   48.3832   11.8722   11.7313 C   0  0  1  0  0  0  0  0  0  0  0  0
   48.7359   12.0599   10.3028 C   0  0  0  0  0  0  0  0  0  0  0  0
   44.1630   12.1400   11.2081 C   0  0  0  0  0  0  0  0  0  0  0  0
   41.4852   10.2043   10.3373 F   0  0  0  0  0  0  0  0  0  0  0  0
   41.2810   11.0009   12.3981 F   0  0  0  0  0  0  0  0  0  0  0  0
   41.6043   12.4616   10.6678 F   0  0  0  0  0  0  0  0  0  0  0  0
   49.4639    6.9399   13.0332 Cl  0  0  0  0  0  0  0  0  0  0  0  0
   49.5716   13.2021    9.9700 C   0  0  0  0  0  0  0  0  0  0  0  0
   50.8814   13.4054   10.4468 N   0  0  0  0  0  0  0  0  0  0  0  0
   44.5657    4.7277   13.0841 Cl  0  0  0  0  0  0  0  0  0  0  0  0
   47.9914   12.9701   12.4347 O   0  0  0  0  0  0  0  0  0  0  0  0
   51.1296   13.7835   11.7735 C   0  0  0  0  0  0  0  0  0  0  0  0
   51.5972   14.2944    9.4896 C   0  0  0  0  0  0  0  0  0  0  0  0
   52.6011   13.7407   12.1480 C   0  0  0  0  0  0  0  0  0  0  0  0
   51.0426   15.6794    9.4907 C   0  0  0  0  0  0  0  0  0  0  0  0
   53.2010   12.3730   12.0915 C   0  0  0  0  0  0  0  0  0  0  0  0
   51.7481   16.6275    8.5271 C   0  0  0  0  0  0  0  0  0  0  0  0
   53.1775   11.6592   10.7945 C   0  0  0  0  0  0  0  0  0  0  0  0
   53.1995   16.7881    8.8252 C   0  0  0  0  0  0  0  0  0  0  0  0
   49.4121   12.3077   11.0977 H   0  0  0  0  0  0  0  0  0  0  0  0
   49.0190    9.3128   12.4056 H   0  0  0  0  0  0  0  0  0  0  0  0
   43.1811    9.0290   11.8775 H   0  0  0  0  0  0  0  0  0  0  0  0
   47.3280    5.0720   13.2778 H   0  0  0  0  0  0  0  0  0  0  0  0
   46.1154   12.8913   11.2224 H   0  0  0  0  0  0  0  0  0  0  0  0
   43.9440    7.3617   12.3727 H   0  0  0  0  0  0  0  0  0  0  0  0
   49.3363   11.4835   12.2239 H   0  0  0  0  0  0  0  0  0  0  0  0
   47.7470   12.0642    9.7169 H   0  0  0  0  0  0  0  0  0  0  0  0
   49.1758   11.0745    9.8846 H   0  0  0  0  0  0  0  0  0  0  0  0
   43.7190   13.0970   10.9229 H   0  0  0  0  0  0  0  0  0  0  0  0
   49.6760   13.1863    8.8205 H   0  0  0  0  0  0  0  0  0  0  0  0
   48.9828   14.1942   10.0708 H   0  0  0  0  0  0  0  0  0  0  0  0
   48.3230   13.0083   13.3641 H   0  0  0  0  0  0  0  0  0  0  0  0
   50.7085   14.8099   12.0310 H   0  0  0  0  0  0  0  0  0  0  0  0
   50.6478   13.1285   12.4996 H   0  0  0  0  0  0  0  0  0  0  0  0
   52.6597   14.2015    9.6862 H   0  0  0  0  0  0  0  0  0  0  0  0
   51.3872   13.8490    8.4955 H   0  0  0  0  0  0  0  0  0  0  0  0
   52.7276   14.0717   13.2247 H   0  0  0  0  0  0  0  0  0  0  0  0
   53.1886   14.4665   11.5623 H   0  0  0  0  0  0  0  0  0  0  0  0
   51.0044   16.1803   10.4611 H   0  0  0  0  0  0  0  0  0  0  0  0
   49.9824   15.6572    9.1040 H   0  0  0  0  0  0  0  0  0  0  0  0
   54.2251   12.3434   12.5337 H   0  0  0  0  0  0  0  0  0  0  0  0
   52.5819   11.7452   12.8077 H   0  0  0  0  0  0  0  0  0  0  0  0
   51.5796   16.2832    7.4735 H   0  0  0  0  0  0  0  0  0  0  0  0
   51.2662   17.6291    8.5863 H   0  0  0  0  0  0  0  0  0  0  0  0
   53.6678   10.6565   10.9782 H   0  0  0  0  0  0  0  0  0  0  0  0
   53.7601   12.1248    9.9791 H   0  0  0  0  0  0  0  0  0  0  0  0
   52.1405   11.4223   10.4703 H   0  0  0  0  0  0  0  0  0  0  0  0
   53.4791   17.8800    8.8907 H   0  0  0  0  0  0  0  0  0  0  0  0
   53.3617   16.4100    9.8601 H   0  0  0  0  0  0  0  0  0  0  0  0
   53.7866   16.2641    8.0588 H   0  0  0  0  0  0  0  0  0  0  0  0
  3  2  2  0
  4  3  1  0
  5  2  1  0
  6  5  2  0
  7 11  1  0
  8  6  1  0
  9  2  1  0
 10  4  1  0
 11  9  2  0
 12 15  1  0
 13  5  1  0
 14  3  1  0
 15 14  2  0
 16  6  1  0
 17 16  1  0
 18 11  1  0
 19  7  1  0
 20  7  1  0
 21  7  1  0
 22 10  1  0
 23 17  1  0
 24 23  1  0
 25 15  1  0
 26 16  1  0
 27 24  1  0
 28 24  1  0
 29 27  1  0
 30 28  1  0
 31 29  1  0
 32 30  1  0
 33 31  1  0
 34 32  1  0
 18 13  2  0
  8  4  2  0
 10 12  2  0
  1 35  1  0
  8 36  1  0
  9 37  1  0
 12 38  1  0
 13 39  1  0
 14 40  1  0
 16 41  1  1
 17 42  1  0
 17 43  1  0
 18 44  1  0
 23 45  1  0
 23 46  1  0
 26 47  1  0
 27 48  1  0
 27 49  1  0
 28 50  1  0
 28 51  1  0
 29 52  1  0
 29 53  1  0
 30 54  1  0
 30 55  1  0
 31 56  1  0
 31 57  1  0
 32 58  1  0
 32 59  1  0
 33 60  1  0
 33 61  1  0
 33 62  1  0
 34 63  1  0
 34 64  1  0
 34 65  1  0
M  END
> <Uni-Dock RESULT> 
ENERGY=   -4.688  LOWER_BOUND=    4.431  UPPER_BOUND=    7.000
INTER + INTRA:          -4.688
INTER:                  -4.688
INTRA:                   0.000
UNBOUND:                 0.000

$$$$
