
     RDKit          3D

 65 66  0  0  0  0  0  0  0  0999 V2000
   47.1941    8.8531   12.8248 Cl  0  0  0  0  0  0  0  0  0  0  0  0
   46.6568    5.4565   13.5560 C   0  0  0  0  0  0  0  0  0  0  0  0
   47.3188    5.2674   14.7489 C   0  0  0  0  0  0  0  0  0  0  0  0
   48.2759    6.1540   15.1900 C   0  0  0  0  0  0  0  0  0  0  0  0
   46.9634    6.5618   12.7861 C   0  0  0  0  0  0  0  0  0  0  0  0
   47.9337    7.4922   13.1967 C   0  0  0  0  0  0  0  0  0  0  0  0
   43.9993    3.7237   11.4750 C   0  0  0  0  0  0  0  0  0  0  0  0
   48.5577    7.2454   14.3991 C   0  0  0  0  0  0  0  0  0  0  0  0
   45.6920    4.5344   13.1306 C   0  0  0  0  0  0  0  0  0  0  0  0
   48.9757    6.0066   16.3682 C   0  0  0  0  0  0  0  0  0  0  0  0
   45.0228    4.7240   11.9151 C   0  0  0  0  0  0  0  0  0  0  0  0
   48.6932    4.9021   17.1444 C   0  0  0  0  0  0  0  0  0  0  0  0
   46.2799    6.7171   11.5884 C   0  0  0  0  0  0  0  0  0  0  0  0
   47.0585    4.1725   15.5479 C   0  0  0  0  0  0  0  0  0  0  0  0
   47.7419    3.9714   16.7595 C   0  0  0  0  0  0  0  0  0  0  0  0
   48.2014    8.6048   12.3089 C   0  0  1  0  0  0  0  0  0  0  0  0
   49.0875    9.6978   12.9549 C   0  0  0  0  0  0  0  0  0  0  0  0
   45.3271    5.8265   11.1477 C   0  0  0  0  0  0  0  0  0  0  0  0
   42.7182    4.1707   11.5631 F   0  0  0  0  0  0  0  0  0  0  0  0
   44.2443    3.3596   10.1520 F   0  0  0  0  0  0  0  0  0  0  0  0
   44.1374    2.5721   12.2312 F   0  0  0  0  0  0  0  0  0  0  0  0
   50.1696    7.1544   16.8727 Cl  0  0  0  0  0  0  0  0  0  0  0  0
   49.2675   10.7360   11.8684 C   0  0  0  0  0  0  0  0  0  0  0  0
   47.9682   11.3127   11.4692 N   0  0  0  0  0  0  0  0  0  0  0  0
   47.3877    2.5588   17.7596 Cl  0  0  0  0  0  0  0  0  0  0  0  0
   48.9589    8.1502   11.2275 O   0  0  0  0  0  0  0  0  0  0  0  0
   48.2404   11.9101   10.1745 C   0  0  0  0  0  0  0  0  0  0  0  0
   47.6188   12.2999   12.4873 C   0  0  0  0  0  0  0  0  0  0  0  0
   47.0584   12.1768    9.3400 C   0  0  0  0  0  0  0  0  0  0  0  0
   48.4446   13.5260   12.5482 C   0  0  0  0  0  0  0  0  0  0  0  0
   45.9839   13.0968    9.7846 C   0  0  0  0  0  0  0  0  0  0  0  0
   47.8964   14.4717   13.6415 C   0  0  0  0  0  0  0  0  0  0  0  0
   46.3852   14.5171   10.0381 C   0  0  0  0  0  0  0  0  0  0  0  0
   48.7511   15.7227   13.6116 C   0  0  0  0  0  0  0  0  0  0  0  0
   47.3715   10.1782   12.5219 H   0  0  0  0  0  0  0  0  0  0  0  0
   49.3012    7.9639   14.7134 H   0  0  0  0  0  0  0  0  0  0  0  0
   45.4149    3.6732   13.6748 H   0  0  0  0  0  0  0  0  0  0  0  0
   49.2051    4.7038   18.0999 H   0  0  0  0  0  0  0  0  0  0  0  0
   46.4669    7.5636   10.9185 H   0  0  0  0  0  0  0  0  0  0  0  0
   46.3382    3.4113   15.3143 H   0  0  0  0  0  0  0  0  0  0  0  0
   47.3057    9.0795   11.8672 H   0  0  0  0  0  0  0  0  0  0  0  0
   48.6955   10.0541   13.8980 H   0  0  0  0  0  0  0  0  0  0  0  0
   50.0887    9.2465   13.1374 H   0  0  0  0  0  0  0  0  0  0  0  0
   44.7959    5.9443   10.2214 H   0  0  0  0  0  0  0  0  0  0  0  0
   49.6828   10.2427   10.9460 H   0  0  0  0  0  0  0  0  0  0  0  0
   49.9273   11.5588   12.1399 H   0  0  0  0  0  0  0  0  0  0  0  0
   49.9009    7.9818   11.4898 H   0  0  0  0  0  0  0  0  0  0  0  0
   48.8913   12.7856   10.3332 H   0  0  0  0  0  0  0  0  0  0  0  0
   48.8894   11.1779    9.5722 H   0  0  0  0  0  0  0  0  0  0  0  0
   47.8510   11.7358   13.4603 H   0  0  0  0  0  0  0  0  0  0  0  0
   46.5415   12.3993   12.5273 H   0  0  0  0  0  0  0  0  0  0  0  0
   47.3447   12.5015    8.2905 H   0  0  0  0  0  0  0  0  0  0  0  0
   46.5115   11.1828    9.1280 H   0  0  0  0  0  0  0  0  0  0  0  0
   48.6251   14.1079   11.6515 H   0  0  0  0  0  0  0  0  0  0  0  0
   49.4593   13.2410   12.9919 H   0  0  0  0  0  0  0  0  0  0  0  0
   45.2073   13.0947    8.9278 H   0  0  0  0  0  0  0  0  0  0  0  0
   45.4232   12.6403   10.6242 H   0  0  0  0  0  0  0  0  0  0  0  0
   46.8531   14.7267   13.4918 H   0  0  0  0  0  0  0  0  0  0  0  0
   48.1087   13.9810   14.6174 H   0  0  0  0  0  0  0  0  0  0  0  0
   46.2292   14.7059   11.1284 H   0  0  0  0  0  0  0  0  0  0  0  0
   47.4099   14.7405    9.7108 H   0  0  0  0  0  0  0  0  0  0  0  0
   45.7089   15.1872    9.4334 H   0  0  0  0  0  0  0  0  0  0  0  0
   48.1757   16.5147   14.1583 H   0  0  0  0  0  0  0  0  0  0  0  0
   49.7236   15.5974   14.0829 H   0  0  0  0  0  0  0  0  0  0  0  0
   48.8128   16.0162   12.5391 H   0  0  0  0  0  0  0  0  0  0  0  0
  3  2  2  0
  4  3  1  0
  5  2  1  0
  6  5  2  0
  7 11  1  0
  8  6  1  0
  9  2  1  0
 10  4  1  0
 11  9  2  0
 12 15  1  0
 13  5  1  0
 14  3  1  0
 15 14  2  0
 16  6  1  0
 17 16  1  0
 18 11  1  0
 19  7  1  0
 20  7  1  0
 21  7  1  0
 22 10  1  0
 23 17  1  0
 24 23  1  0
 25 15  1  0
 26 16  1  0
 27 24  1  0
 28 24  1  0
 29 27  1  0
 30 28  1  0
 31 29  1  0
 32 30  1  0
 33 31  1  0
 34 32  1  0
 18 13  2  0
  8  4  2  0
 10 12  2  0
  1 35  1  0
  8 36  1  0
  9 37  1  0
 12 38  1  0
 13 39  1  0
 14 40  1  0
 16 41  1  6
 17 42  1  0
 17 43  1  0
 18 44  1  0
 23 45  1  0
 23 46  1  0
 26 47  1  0
 27 48  1  0
 27 49  1  0
 28 50  1  0
 28 51  1  0
 29 52  1  0
 29 53  1  0
 30 54  1  0
 30 55  1  0
 31 56  1  0
 31 57  1  0
 32 58  1  0
 32 59  1  0
 33 60  1  0
 33 61  1  0
 33 62  1  0
 34 63  1  0
 34 64  1  0
 34 65  1  0
M  END
> <Uni-Dock RESULT> 
ENERGY=   -5.916  LOWER_BOUND=    0.000  UPPER_BOUND=    0.000
INTER + INTRA:          -5.916
INTER:                  -5.916
INTRA:                   0.000
UNBOUND:                 0.000

$$$$

     RDKit          3D

 65 66  0  0  0  0  0  0  0  0999 V2000
   48.7886    8.6045   15.0210 Cl  0  0  0  0  0  0  0  0  0  0  0  0
   46.2481    8.2840   12.6119 C   0  0  0  0  0  0  0  0  0  0  0  0
   45.8211    6.9823   12.7544 C   0  0  0  0  0  0  0  0  0  0  0  0
   46.5894    6.0387   13.3994 C   0  0  0  0  0  0  0  0  0  0  0  0
   47.4767    8.6477   13.1284 C   0  0  0  0  0  0  0  0  0  0  0  0
   48.2943    7.7177   13.7935 C   0  0  0  0  0  0  0  0  0  0  0  0
   45.0159   11.5269   11.0756 C   0  0  0  0  0  0  0  0  0  0  0  0
   47.8086    6.4339   13.9028 C   0  0  0  0  0  0  0  0  0  0  0  0
   45.4472    9.2204   11.9457 C   0  0  0  0  0  0  0  0  0  0  0  0
   46.2157    4.7217   13.5594 C   0  0  0  0  0  0  0  0  0  0  0  0
   45.8839   10.5426   11.7963 C   0  0  0  0  0  0  0  0  0  0  0  0
   44.9981    4.3360   13.0389 C   0  0  0  0  0  0  0  0  0  0  0  0
   47.8761    9.9662   12.9618 C   0  0  0  0  0  0  0  0  0  0  0  0
   44.6080    6.5656   12.2449 C   0  0  0  0  0  0  0  0  0  0  0  0
   44.1762    5.2347   12.3784 C   0  0  0  0  0  0  0  0  0  0  0  0
   49.5750    8.1897   14.2781 C   0  0  1  0  0  0  0  0  0  0  0  0
   50.2841    7.1750   15.2078 C   0  0  0  0  0  0  0  0  0  0  0  0
   47.1081   10.9061   12.3122 C   0  0  0  0  0  0  0  0  0  0  0  0
   44.4292   12.4443   11.8899 F   0  0  0  0  0  0  0  0  0  0  0  0
   45.7757   12.2088   10.1265 F   0  0  0  0  0  0  0  0  0  0  0  0
   44.0376   10.8408   10.3761 F   0  0  0  0  0  0  0  0  0  0  0  0
   47.2237    3.5781   14.3801 Cl  0  0  0  0  0  0  0  0  0  0  0  0
   51.5942    7.8400   15.5716 C   0  0  0  0  0  0  0  0  0  0  0  0
   51.3603    9.1062   16.2942 N   0  0  0  0  0  0  0  0  0  0  0  0
   42.6188    4.7312   11.7136 Cl  0  0  0  0  0  0  0  0  0  0  0  0
   50.4475    8.3248   13.1963 O   0  0  0  0  0  0  0  0  0  0  0  0
   52.6215    9.8133   16.1660 C   0  0  0  0  0  0  0  0  0  0  0  0
   51.0488    8.7477   17.6754 C   0  0  0  0  0  0  0  0  0  0  0  0
   52.5603   11.2640   16.4033 C   0  0  0  0  0  0  0  0  0  0  0  0
   52.1467    8.1788   18.4877 C   0  0  0  0  0  0  0  0  0  0  0  0
   52.1280   11.8212   17.7076 C   0  0  0  0  0  0  0  0  0  0  0  0
   51.6489    7.9139   19.9272 C   0  0  0  0  0  0  0  0  0  0  0  0
   52.9563   11.4499   18.8985 C   0  0  0  0  0  0  0  0  0  0  0  0
   52.8323    7.3861   20.7130 C   0  0  0  0  0  0  0  0  0  0  0  0
   49.7711    8.7653   15.9633 H   0  0  0  0  0  0  0  0  0  0  0  0
   48.4381    5.7218   14.4171 H   0  0  0  0  0  0  0  0  0  0  0  0
   44.5009    9.0025   11.5314 H   0  0  0  0  0  0  0  0  0  0  0  0
   44.6206    3.3038   13.1188 H   0  0  0  0  0  0  0  0  0  0  0  0
   48.8372   10.3338   13.3380 H   0  0  0  0  0  0  0  0  0  0  0  0
   43.9211    7.2035   11.7214 H   0  0  0  0  0  0  0  0  0  0  0  0
   49.5552    9.1794   14.7708 H   0  0  0  0  0  0  0  0  0  0  0  0
   49.6630    6.8560   16.0340 H   0  0  0  0  0  0  0  0  0  0  0  0
   50.5367    6.2827   14.5919 H   0  0  0  0  0  0  0  0  0  0  0  0
   47.4143   11.9276   12.1822 H   0  0  0  0  0  0  0  0  0  0  0  0
   52.1451    8.1187   14.6307 H   0  0  0  0  0  0  0  0  0  0  0  0
   52.2541    7.2255   16.1823 H   0  0  0  0  0  0  0  0  0  0  0  0
   50.7640    7.4416   12.8731 H   0  0  0  0  0  0  0  0  0  0  0  0
   53.3722    9.2846   16.7762 H   0  0  0  0  0  0  0  0  0  0  0  0
   52.9932    9.6887   15.0860 H   0  0  0  0  0  0  0  0  0  0  0  0
   50.3021    7.8859   17.5385 H   0  0  0  0  0  0  0  0  0  0  0  0
   50.4316    9.5234   18.1106 H   0  0  0  0  0  0  0  0  0  0  0  0
   53.5386   11.7780   16.1434 H   0  0  0  0  0  0  0  0  0  0  0  0
   51.8423   11.7438   15.6375 H   0  0  0  0  0  0  0  0  0  0  0  0
   53.1033    8.6857   18.5443 H   0  0  0  0  0  0  0  0  0  0  0  0
   52.3356    7.1125   18.1201 H   0  0  0  0  0  0  0  0  0  0  0  0
   52.1824   12.9694   17.5813 H   0  0  0  0  0  0  0  0  0  0  0  0
   51.0440   11.6420   17.8510 H   0  0  0  0  0  0  0  0  0  0  0  0
   51.2486    8.8021   20.4034 H   0  0  0  0  0  0  0  0  0  0  0  0
   50.9269    7.0698   19.8601 H   0  0  0  0  0  0  0  0  0  0  0  0
   52.2996   10.8466   19.5719 H   0  0  0  0  0  0  0  0  0  0  0  0
   53.8851   10.9272   18.6316 H   0  0  0  0  0  0  0  0  0  0  0  0
   53.2689   12.3998   19.4199 H   0  0  0  0  0  0  0  0  0  0  0  0
   52.5697    7.4976   21.7974 H   0  0  0  0  0  0  0  0  0  0  0  0
   53.0626    6.3432   20.5060 H   0  0  0  0  0  0  0  0  0  0  0  0
   53.6738    8.0794   20.4864 H   0  0  0  0  0  0  0  0  0  0  0  0
  3  2  2  0
  4  3  1  0
  5  2  1  0
  6  5  2  0
  7 11  1  0
  8  6  1  0
  9  2  1  0
 10  4  1  0
 11  9  2  0
 12 15  1  0
 13  5  1  0
 14  3  1  0
 15 14  2  0
 16  6  1  0
 17 16  1  0
 18 11  1  0
 19  7  1  0
 20  7  1  0
 21  7  1  0
 22 10  1  0
 23 17  1  0
 24 23  1  0
 25 15  1  0
 26 16  1  0
 27 24  1  0
 28 24  1  0
 29 27  1  0
 30 28  1  0
 31 29  1  0
 32 30  1  0
 33 31  1  0
 34 32  1  0
 18 13  2  0
  8  4  2  0
 10 12  2  0
  1 35  1  0
  8 36  1  0
  9 37  1  0
 12 38  1  0
 13 39  1  0
 14 40  1  0
 16 41  1  6
 17 42  1  0
 17 43  1  0
 18 44  1  0
 23 45  1  0
 23 46  1  0
 26 47  1  0
 27 48  1  0
 27 49  1  0
 28 50  1  0
 28 51  1  0
 29 52  1  0
 29 53  1  0
 30 54  1  0
 30 55  1  0
 31 56  1  0
 31 57  1  0
 32 58  1  0
 32 59  1  0
 33 60  1  0
 33 61  1  0
 33 62  1  0
 34 63  1  0
 34 64  1  0
 34 65  1  0
M  END
> <Uni-Dock RESULT> 
ENERGY=   -5.280  LOWER_BOUND=    4.135  UPPER_BOUND=    6.534
INTER + INTRA:          -5.280
INTER:                  -5.280
INTRA:                   0.000
UNBOUND:                 0.000

$$$$

     RDKit          3D

 65 66  0  0  0  0  0  0  0  0999 V2000
   47.8701    8.7137   14.8648 Cl  0  0  0  0  0  0  0  0  0  0  0  0
   45.5907    7.7234   12.3780 C   0  0  0  0  0  0  0  0  0  0  0  0
   45.4715    6.3637   12.5628 C   0  0  0  0  0  0  0  0  0  0  0  0
   46.4065    5.6493   13.2784 C   0  0  0  0  0  0  0  0  0  0  0  0
   46.6753    8.3823   12.9237 C   0  0  0  0  0  0  0  0  0  0  0  0
   47.6540    7.6933   13.6607 C   0  0  0  0  0  0  0  0  0  0  0  0
   43.7132   10.5321   10.6513 C   0  0  0  0  0  0  0  0  0  0  0  0
   47.4752    6.3362   13.8094 C   0  0  0  0  0  0  0  0  0  0  0  0
   44.6267    8.4224   11.6404 C   0  0  0  0  0  0  0  0  0  0  0  0
   46.3417    4.2879   13.4833 C   0  0  0  0  0  0  0  0  0  0  0  0
   44.7509    9.8040   11.4481 C   0  0  0  0  0  0  0  0  0  0  0  0
   45.2731    3.6100   12.9350 C   0  0  0  0  0  0  0  0  0  0  0  0
   46.7650    9.7510   12.7131 C   0  0  0  0  0  0  0  0  0  0  0  0
   44.4139    5.6571   12.0269 C   0  0  0  0  0  0  0  0  0  0  0  0
   44.2972    4.2676   12.2040 C   0  0  0  0  0  0  0  0  0  0  0  0
   48.7657    8.4686   14.1717 C   0  0  1  0  0  0  0  0  0  0  0  0
   49.6462    7.6812   15.1725 C   0  0  0  0  0  0  0  0  0  0  0  0
   45.8314   10.4618   11.9931 C   0  0  0  0  0  0  0  0  0  0  0  0
   42.8916   11.3146   11.4005 F   0  0  0  0  0  0  0  0  0  0  0  0
   44.3380   11.3391    9.7018 F   0  0  0  0  0  0  0  0  0  0  0  0
   42.9553    9.6119    9.9469 F   0  0  0  0  0  0  0  0  0  0  0  0
   47.5477    3.4414   14.3925 Cl  0  0  0  0  0  0  0  0  0  0  0  0
   50.7472    8.6467   15.5554 C   0  0  0  0  0  0  0  0  0  0  0  0
   50.1916    9.8476   16.2107 N   0  0  0  0  0  0  0  0  0  0  0  0
   42.9326    3.3907   11.5039 Cl  0  0  0  0  0  0  0  0  0  0  0  0
   49.6332    8.7662   13.1188 O   0  0  0  0  0  0  0  0  0  0  0  0
   51.2588   10.8252   16.0987 C   0  0  0  0  0  0  0  0  0  0  0  0
   49.9068    9.4747   17.5938 C   0  0  0  0  0  0  0  0  0  0  0  0
   50.8510   12.2287   16.2677 C   0  0  0  0  0  0  0  0  0  0  0  0
   51.0670    9.2073   18.4720 C   0  0  0  0  0  0  0  0  0  0  0  0
   50.2398   12.7146   17.5282 C   0  0  0  0  0  0  0  0  0  0  0  0
   50.5767    8.8839   19.9021 C   0  0  0  0  0  0  0  0  0  0  0  0
   51.0743   12.5893   18.7652 C   0  0  0  0  0  0  0  0  0  0  0  0
   51.8116    8.6755   20.7553 C   0  0  0  0  0  0  0  0  0  0  0  0
   48.7426    9.1328   15.8355 H   0  0  0  0  0  0  0  0  0  0  0  0
   48.2278    5.8097   14.3788 H   0  0  0  0  0  0  0  0  0  0  0  0
   43.7776    7.9747   11.2007 H   0  0  0  0  0  0  0  0  0  0  0  0
   45.1423    2.5215   13.0471 H   0  0  0  0  0  0  0  0  0  0  0  0
   47.5955   10.3463   13.1085 H   0  0  0  0  0  0  0  0  0  0  0  0
   43.6232    6.0978   11.4496 H   0  0  0  0  0  0  0  0  0  0  0  0
   48.4932    9.4428   14.6181 H   0  0  0  0  0  0  0  0  0  0  0  0
   49.0777    7.2549   15.9881 H   0  0  0  0  0  0  0  0  0  0  0  0
   50.1280    6.8518   14.6075 H   0  0  0  0  0  0  0  0  0  0  0  0
   45.8977   11.5214   11.8288 H   0  0  0  0  0  0  0  0  0  0  0  0
   51.2623    9.0134   14.6244 H   0  0  0  0  0  0  0  0  0  0  0  0
   51.5021    8.2254   16.2177 H   0  0  0  0  0  0  0  0  0  0  0  0
   50.1611    7.9708   12.8480 H   0  0  0  0  0  0  0  0  0  0  0  0
   52.0819   10.5085   16.7601 H   0  0  0  0  0  0  0  0  0  0  0  0
   51.6999   10.7533   15.0402 H   0  0  0  0  0  0  0  0  0  0  0  0
   49.3880    8.4578   17.4678 H   0  0  0  0  0  0  0  0  0  0  0  0
   49.1064   10.0992   17.9699 H   0  0  0  0  0  0  0  0  0  0  0  0
   51.6944   12.9479   16.0222 H   0  0  0  0  0  0  0  0  0  0  0  0
   50.0784   12.5000   15.4544 H   0  0  0  0  0  0  0  0  0  0  0  0
   51.8760    9.9256   18.5420 H   0  0  0  0  0  0  0  0  0  0  0  0
   51.5156    8.2026   18.1604 H   0  0  0  0  0  0  0  0  0  0  0  0
   50.0319   13.8385   17.3524 H   0  0  0  0  0  0  0  0  0  0  0  0
   49.2215   12.2918   17.6383 H   0  0  0  0  0  0  0  0  0  0  0  0
   49.9589    9.6699   20.3222 H   0  0  0  0  0  0  0  0  0  0  0  0
   50.0745    7.8925   19.8459 H   0  0  0  0  0  0  0  0  0  0  0  0
   50.5445   11.8731   19.4398 H   0  0  0  0  0  0  0  0  0  0  0  0
   52.1107   12.2894   18.5576 H   0  0  0  0  0  0  0  0  0  0  0  0
   51.1326   13.6037   19.2548 H   0  0  0  0  0  0  0  0  0  0  0  0
   51.4792    8.7604   21.8228 H   0  0  0  0  0  0  0  0  0  0  0  0
   52.2875    7.7089   20.6044 H   0  0  0  0  0  0  0  0  0  0  0  0
   52.4789    9.5381   20.5297 H   0  0  0  0  0  0  0  0  0  0  0  0
  3  2  2  0
  4  3  1  0
  5  2  1  0
  6  5  2  0
  7 11  1  0
  8  6  1  0
  9  2  1  0
 10  4  1  0
 11  9  2  0
 12 15  1  0
 13  5  1  0
 14  3  1  0
 15 14  2  0
 16  6  1  0
 17 16  1  0
 18 11  1  0
 19  7  1  0
 20  7  1  0
 21  7  1  0
 22 10  1  0
 23 17  1  0
 24 23  1  0
 25 15  1  0
 26 16  1  0
 27 24  1  0
 28 24  1  0
 29 27  1  0
 30 28  1  0
 31 29  1  0
 32 30  1  0
 33 31  1  0
 34 32  1  0
 18 13  2  0
  8  4  2  0
 10 12  2  0
  1 35  1  0
  8 36  1  0
  9 37  1  0
 12 38  1  0
 13 39  1  0
 14 40  1  0
 16 41  1  6
 17 42  1  0
 17 43  1  0
 18 44  1  0
 23 45  1  0
 23 46  1  0
 26 47  1  0
 27 48  1  0
 27 49  1  0
 28 50  1  0
 28 51  1  0
 29 52  1  0
 29 53  1  0
 30 54  1  0
 30 55  1  0
 31 56  1  0
 31 57  1  0
 32 58  1  0
 32 59  1  0
 33 60  1  0
 33 61  1  0
 33 62  1  0
 34 63  1  0
 34 64  1  0
 34 65  1  0
M  END
> <Uni-Dock RESULT> 
ENERGY=   -5.262  LOWER_BOUND=    3.821  UPPER_BOUND=    5.851
INTER + INTRA:          -5.262
INTER:                  -5.262
INTRA:                   0.000
UNBOUND:                 0.000

$$$$

     RDKit          3D

 65 66  0  0  0  0  0  0  0  0999 V2000
   49.5482    8.6124   15.3561 Cl  0  0  0  0  0  0  0  0  0  0  0  0
   48.1370    8.4775   18.5734 C   0  0  0  0  0  0  0  0  0  0  0  0
   48.2599    7.1533   18.9320 C   0  0  0  0  0  0  0  0  0  0  0  0
   48.4839    6.1707   17.9934 C   0  0  0  0  0  0  0  0  0  0  0  0
   48.2403    8.8241   17.2402 C   0  0  0  0  0  0  0  0  0  0  0  0
   48.4678    7.8545   16.2483 C   0  0  0  0  0  0  0  0  0  0  0  0
   47.5180   11.8279   20.2426 C   0  0  0  0  0  0  0  0  0  0  0  0
   48.5821    6.5498   16.6733 C   0  0  0  0  0  0  0  0  0  0  0  0
   47.9036    9.4541   19.5500 C   0  0  0  0  0  0  0  0  0  0  0  0
   48.6030    4.8313   18.2960 C   0  0  0  0  0  0  0  0  0  0  0  0
   47.7734   10.7998   19.1846 C   0  0  0  0  0  0  0  0  0  0  0  0
   48.4895    4.4636   19.6204 C   0  0  0  0  0  0  0  0  0  0  0  0
   48.1064   10.1667   16.9157 C   0  0  0  0  0  0  0  0  0  0  0  0
   48.1514    6.7537   20.2486 C   0  0  0  0  0  0  0  0  0  0  0  0
   48.2642    5.4014   20.6149 C   0  0  0  0  0  0  0  0  0  0  0  0
   48.5365    8.3143   14.8765 C   0  0  1  0  0  0  0  0  0  0  0  0
   49.0375    7.2263   13.8956 C   0  0  0  0  0  0  0  0  0  0  0  0
   47.8776   11.1462   17.8556 C   0  0  0  0  0  0  0  0  0  0  0  0
   48.5880   12.6239   20.5075 F   0  0  0  0  0  0  0  0  0  0  0  0
   46.4549   12.6412   19.8533 F   0  0  0  0  0  0  0  0  0  0  0  0
   47.1196   11.1911   21.4059 F   0  0  0  0  0  0  0  0  0  0  0  0
   48.8845    3.6388   17.0728 Cl  0  0  0  0  0  0  0  0  0  0  0  0
   49.0068    7.8926   12.5369 C   0  0  0  0  0  0  0  0  0  0  0  0
   49.9123    9.0584   12.5004 N   0  0  0  0  0  0  0  0  0  0  0  0
   48.1187    4.9210   22.3087 Cl  0  0  0  0  0  0  0  0  0  0  0  0
   47.2455    8.6042   14.4301 O   0  0  0  0  0  0  0  0  0  0  0  0
   49.4450    9.8210   11.3571 C   0  0  0  0  0  0  0  0  0  0  0  0
   51.2628    8.5329   12.3183 C   0  0  0  0  0  0  0  0  0  0  0  0
   49.8613   11.2318   11.3250 C   0  0  0  0  0  0  0  0  0  0  0  0
   51.5745    7.9151   11.0106 C   0  0  0  0  0  0  0  0  0  0  0  0
   51.2916   11.6198   11.2779 C   0  0  0  0  0  0  0  0  0  0  0  0
   53.0545    7.4691   10.9826 C   0  0  0  0  0  0  0  0  0  0  0  0
   52.0722   11.1449   10.0915 C   0  0  0  0  0  0  0  0  0  0  0  0
   53.3172    6.8983    9.6037 C   0  0  0  0  0  0  0  0  0  0  0  0
   50.1083    8.6998   14.1080 H   0  0  0  0  0  0  0  0  0  0  0  0
   48.7597    5.8070   15.9088 H   0  0  0  0  0  0  0  0  0  0  0  0
   47.8161    9.2508   20.5823 H   0  0  0  0  0  0  0  0  0  0  0  0
   48.5696    3.4160   19.9526 H   0  0  0  0  0  0  0  0  0  0  0  0
   48.1712   10.5237   15.8819 H   0  0  0  0  0  0  0  0  0  0  0  0
   47.9761    7.4219   21.0705 H   0  0  0  0  0  0  0  0  0  0  0  0
   49.1211    9.2396   14.7199 H   0  0  0  0  0  0  0  0  0  0  0  0
   49.9819    6.7924   14.1953 H   0  0  0  0  0  0  0  0  0  0  0  0
   48.2699    6.4202   13.8758 H   0  0  0  0  0  0  0  0  0  0  0  0
   47.7741   12.1864   17.6077 H   0  0  0  0  0  0  0  0  0  0  0  0
   47.9747    8.2971   12.3430 H   0  0  0  0  0  0  0  0  0  0  0  0
   49.2755    7.2367   11.7102 H   0  0  0  0  0  0  0  0  0  0  0  0
   46.7298    7.7759   14.2492 H   0  0  0  0  0  0  0  0  0  0  0  0
   49.6924    9.2536   10.4448 H   0  0  0  0  0  0  0  0  0  0  0  0
   48.2964    9.8346   11.3815 H   0  0  0  0  0  0  0  0  0  0  0  0
   51.2880    7.6658   13.0709 H   0  0  0  0  0  0  0  0  0  0  0  0
   51.9731    9.2306   12.7433 H   0  0  0  0  0  0  0  0  0  0  0  0
   49.3452   11.8075   10.4937 H   0  0  0  0  0  0  0  0  0  0  0  0
   49.4518   11.7696   12.2606 H   0  0  0  0  0  0  0  0  0  0  0  0
   51.3599    8.4467   10.0905 H   0  0  0  0  0  0  0  0  0  0  0  0
   51.0392    6.9055   10.9658 H   0  0  0  0  0  0  0  0  0  0  0  0
   51.2931   12.7761   11.2642 H   0  0  0  0  0  0  0  0  0  0  0  0
   51.7755   11.3859   12.2468 H   0  0  0  0  0  0  0  0  0  0  0  0
   53.7421    8.2817   11.1893 H   0  0  0  0  0  0  0  0  0  0  0  0
   53.1384    6.6125   11.6879 H   0  0  0  0  0  0  0  0  0  0  0  0
   52.8525   10.4450   10.4789 H   0  0  0  0  0  0  0  0  0  0  0  0
   51.4422   10.6904    9.3147 H   0  0  0  0  0  0  0  0  0  0  0  0
   52.5648   12.0397    9.6132 H   0  0  0  0  0  0  0  0  0  0  0  0
   54.4309    6.8752    9.4754 H   0  0  0  0  0  0  0  0  0  0  0  0
   52.9201    5.8951    9.4644 H   0  0  0  0  0  0  0  0  0  0  0  0
   52.9006    7.6432    8.8883 H   0  0  0  0  0  0  0  0  0  0  0  0
  3  2  2  0
  4  3  1  0
  5  2  1  0
  6  5  2  0
  7 11  1  0
  8  6  1  0
  9  2  1  0
 10  4  1  0
 11  9  2  0
 12 15  1  0
 13  5  1  0
 14  3  1  0
 15 14  2  0
 16  6  1  0
 17 16  1  0
 18 11  1  0
 19  7  1  0
 20  7  1  0
 21  7  1  0
 22 10  1  0
 23 17  1  0
 24 23  1  0
 25 15  1  0
 26 16  1  0
 27 24  1  0
 28 24  1  0
 29 27  1  0
 30 28  1  0
 31 29  1  0
 32 30  1  0
 33 31  1  0
 34 32  1  0
 18 13  2  0
  8  4  2  0
 10 12  2  0
  1 35  1  0
  8 36  1  0
  9 37  1  0
 12 38  1  0
 13 39  1  0
 14 40  1  0
 16 41  1  6
 17 42  1  0
 17 43  1  0
 18 44  1  0
 23 45  1  0
 23 46  1  0
 26 47  1  0
 27 48  1  0
 27 49  1  0
 28 50  1  0
 28 51  1  0
 29 52  1  0
 29 53  1  0
 30 54  1  0
 30 55  1  0
 31 56  1  0
 31 57  1  0
 32 58  1  0
 32 59  1  0
 33 60  1  0
 33 61  1  0
 33 62  1  0
 34 63  1  0
 34 64  1  0
 34 65  1  0
M  END
> <Uni-Dock RESULT> 
ENERGY=   -5.242  LOWER_BOUND=    5.102  UPPER_BOUND=    6.892
INTER + INTRA:          -5.242
INTER:                  -5.242
INTRA:                   0.000
UNBOUND:                 0.000

$$$$

     RDKit          3D

 65 66  0  0  0  0  0  0  0  0999 V2000
   49.4296    7.1668   12.9734 Cl  0  0  0  0  0  0  0  0  0  0  0  0
   46.9967    4.9882   14.2754 C   0  0  0  0  0  0  0  0  0  0  0  0
   46.1852    4.7173   13.1959 C   0  0  0  0  0  0  0  0  0  0  0  0
   46.1847    5.5189   12.0761 C   0  0  0  0  0  0  0  0  0  0  0  0
   47.8273    6.0911   14.2306 C   0  0  0  0  0  0  0  0  0  0  0  0
   47.8590    6.9372   13.1086 C   0  0  0  0  0  0  0  0  0  0  0  0
   47.7460    3.5403   17.7014 C   0  0  0  0  0  0  0  0  0  0  0  0
   47.0245    6.6101   12.0634 C   0  0  0  0  0  0  0  0  0  0  0  0
   46.9712    4.1578   15.4032 C   0  0  0  0  0  0  0  0  0  0  0  0
   45.3856    5.3004   10.9746 C   0  0  0  0  0  0  0  0  0  0  0  0
   47.7924    4.4364   16.5028 C   0  0  0  0  0  0  0  0  0  0  0  0
   44.5396    4.2116   11.0057 C   0  0  0  0  0  0  0  0  0  0  0  0
   48.6270    6.3355   15.3381 C   0  0  0  0  0  0  0  0  0  0  0  0
   45.3281    3.6356   13.1966 C   0  0  0  0  0  0  0  0  0  0  0  0
   44.4903    3.3647   12.1010 C   0  0  0  0  0  0  0  0  0  0  0  0
   48.7452    8.0814   13.1672 C   0  0  1  0  0  0  0  0  0  0  0  0
   48.8996    8.8005   11.8049 C   0  0  0  0  0  0  0  0  0  0  0  0
   48.6218    5.5352   16.4583 C   0  0  0  0  0  0  0  0  0  0  0  0
   48.8434    2.7498   17.8415 F   0  0  0  0  0  0  0  0  0  0  0  0
   47.6147    4.3127   18.8543 F   0  0  0  0  0  0  0  0  0  0  0  0
   46.6138    2.7465   17.6296 F   0  0  0  0  0  0  0  0  0  0  0  0
   45.4272    6.3431    9.5931 Cl  0  0  0  0  0  0  0  0  0  0  0  0
   49.8263    9.9630   12.0887 C   0  0  0  0  0  0  0  0  0  0  0  0
   51.1426    9.4862   12.5579 N   0  0  0  0  0  0  0  0  0  0  0  0
   43.4024    1.9732   12.1326 Cl  0  0  0  0  0  0  0  0  0  0  0  0
   48.1806    9.0502   13.9994 O   0  0  0  0  0  0  0  0  0  0  0  0
   51.7231   10.6529   13.1972 C   0  0  0  0  0  0  0  0  0  0  0  0
   51.8812    9.0632   11.3710 C   0  0  0  0  0  0  0  0  0  0  0  0
   52.8287   10.3794   14.1287 C   0  0  0  0  0  0  0  0  0  0  0  0
   52.3044   10.1220   10.4282 C   0  0  0  0  0  0  0  0  0  0  0  0
   54.0828    9.7295   13.6778 C   0  0  0  0  0  0  0  0  0  0  0  0
   53.1148    9.4968    9.2696 C   0  0  0  0  0  0  0  0  0  0  0  0
   54.8684   10.4532   12.6283 C   0  0  0  0  0  0  0  0  0  0  0  0
   53.5599   10.6376    8.3768 C   0  0  0  0  0  0  0  0  0  0  0  0
   50.4022    8.0034   12.4904 H   0  0  0  0  0  0  0  0  0  0  0  0
   47.0532    7.2608   11.2011 H   0  0  0  0  0  0  0  0  0  0  0  0
   46.3595    3.3023   15.4953 H   0  0  0  0  0  0  0  0  0  0  0  0
   43.8650    3.9623   10.1708 H   0  0  0  0  0  0  0  0  0  0  0  0
   49.3100    7.1910   15.3839 H   0  0  0  0  0  0  0  0  0  0  0  0
   45.2347    2.9388   14.0082 H   0  0  0  0  0  0  0  0  0  0  0  0
   49.7486    7.8776   13.5847 H   0  0  0  0  0  0  0  0  0  0  0  0
   49.1987    8.1326   11.0082 H   0  0  0  0  0  0  0  0  0  0  0  0
   47.9080    9.2354   11.5463 H   0  0  0  0  0  0  0  0  0  0  0  0
   49.2400    5.7214   17.3169 H   0  0  0  0  0  0  0  0  0  0  0  0
   49.4038   10.5803   12.9295 H   0  0  0  0  0  0  0  0  0  0  0  0
   49.9949   10.6199   11.2366 H   0  0  0  0  0  0  0  0  0  0  0  0
   47.4231    9.5127   13.5556 H   0  0  0  0  0  0  0  0  0  0  0  0
   51.9626   11.3883   12.4115 H   0  0  0  0  0  0  0  0  0  0  0  0
   50.9052   11.1615   13.8238 H   0  0  0  0  0  0  0  0  0  0  0  0
   51.0925    8.4540   10.8002 H   0  0  0  0  0  0  0  0  0  0  0  0
   52.6003    8.3053   11.6544 H   0  0  0  0  0  0  0  0  0  0  0  0
   53.1376   11.3077   14.7046 H   0  0  0  0  0  0  0  0  0  0  0  0
   52.4476    9.7008   14.9810 H   0  0  0  0  0  0  0  0  0  0  0  0
   52.8398   10.9927   10.7894 H   0  0  0  0  0  0  0  0  0  0  0  0
   51.3733   10.4874    9.8738 H   0  0  0  0  0  0  0  0  0  0  0  0
   54.7425    9.6512   14.6243 H   0  0  0  0  0  0  0  0  0  0  0  0
   53.8861    8.6681   13.4281 H   0  0  0  0  0  0  0  0  0  0  0  0
   53.9747    8.9333    9.6145 H   0  0  0  0  0  0  0  0  0  0  0  0
   52.3937    8.9015    8.6665 H   0  0  0  0  0  0  0  0  0  0  0  0
   54.8639    9.8045   11.7183 H   0  0  0  0  0  0  0  0  0  0  0  0
   54.4918   11.4660   12.4295 H   0  0  0  0  0  0  0  0  0  0  0  0
   55.9248   10.5785   13.0031 H   0  0  0  0  0  0  0  0  0  0  0  0
   54.3913   10.2376    7.7396 H   0  0  0  0  0  0  0  0  0  0  0  0
   52.7702   11.0220    7.7347 H   0  0  0  0  0  0  0  0  0  0  0  0
   53.9860   11.4043    9.0628 H   0  0  0  0  0  0  0  0  0  0  0  0
  3  2  2  0
  4  3  1  0
  5  2  1  0
  6  5  2  0
  7 11  1  0
  8  6  1  0
  9  2  1  0
 10  4  1  0
 11  9  2  0
 12 15  1  0
 13  5  1  0
 14  3  1  0
 15 14  2  0
 16  6  1  0
 17 16  1  0
 18 11  1  0
 19  7  1  0
 20  7  1  0
 21  7  1  0
 22 10  1  0
 23 17  1  0
 24 23  1  0
 25 15  1  0
 26 16  1  0
 27 24  1  0
 28 24  1  0
 29 27  1  0
 30 28  1  0
 31 29  1  0
 32 30  1  0
 33 31  1  0
 34 32  1  0
 18 13  2  0
  8  4  2  0
 10 12  2  0
  1 35  1  0
  8 36  1  0
  9 37  1  0
 12 38  1  0
 13 39  1  0
 14 40  1  0
 16 41  1  6
 17 42  1  0
 17 43  1  0
 18 44  1  0
 23 45  1  0
 23 46  1  0
 26 47  1  0
 27 48  1  0
 27 49  1  0
 28 50  1  0
 28 51  1  0
 29 52  1  0
 29 53  1  0
 30 54  1  0
 30 55  1  0
 31 56  1  0
 31 57  1  0
 32 58  1  0
 32 59  1  0
 33 60  1  0
 33 61  1  0
 33 62  1  0
 34 63  1  0
 34 64  1  0
 34 65  1  0
M  END
> <Uni-Dock RESULT> 
ENERGY=   -5.240  LOWER_BOUND=    3.605  UPPER_BOUND=    5.836
INTER + INTRA:          -5.240
INTER:                  -5.240
INTRA:                   0.000
UNBOUND:                 0.000

$$$$

     RDKit          3D

 65 66  0  0  0  0  0  0  0  0999 V2000
   49.4297    7.1668   12.9734 Cl  0  0  0  0  0  0  0  0  0  0  0  0
   46.9967    4.9882   14.2754 C   0  0  0  0  0  0  0  0  0  0  0  0
   46.1853    4.7174   13.1959 C   0  0  0  0  0  0  0  0  0  0  0  0
   46.1848    5.5190   12.0761 C   0  0  0  0  0  0  0  0  0  0  0  0
   47.8273    6.0911   14.2306 C   0  0  0  0  0  0  0  0  0  0  0  0
   47.8591    6.9372   13.1086 C   0  0  0  0  0  0  0  0  0  0  0  0
   47.7460    3.5403   17.7014 C   0  0  0  0  0  0  0  0  0  0  0  0
   47.0246    6.6101   12.0634 C   0  0  0  0  0  0  0  0  0  0  0  0
   46.9712    4.1579   15.4032 C   0  0  0  0  0  0  0  0  0  0  0  0
   45.3857    5.3005   10.9746 C   0  0  0  0  0  0  0  0  0  0  0  0
   47.7925    4.4364   16.5028 C   0  0  0  0  0  0  0  0  0  0  0  0
   44.5397    4.2117   11.0057 C   0  0  0  0  0  0  0  0  0  0  0  0
   48.6271    6.3355   15.3381 C   0  0  0  0  0  0  0  0  0  0  0  0
   45.3281    3.6356   13.1966 C   0  0  0  0  0  0  0  0  0  0  0  0
   44.4903    3.3648   12.1010 C   0  0  0  0  0  0  0  0  0  0  0  0
   48.7453    8.0814   13.1672 C   0  0  1  0  0  0  0  0  0  0  0  0
   48.8998    8.8004   11.8049 C   0  0  0  0  0  0  0  0  0  0  0  0
   48.6218    5.5352   16.4583 C   0  0  0  0  0  0  0  0  0  0  0  0
   48.8434    2.7498   17.8415 F   0  0  0  0  0  0  0  0  0  0  0  0
   47.6147    4.3127   18.8543 F   0  0  0  0  0  0  0  0  0  0  0  0
   46.6138    2.7465   17.6296 F   0  0  0  0  0  0  0  0  0  0  0  0
   45.4273    6.3431    9.5931 Cl  0  0  0  0  0  0  0  0  0  0  0  0
   49.8264    9.9630   12.0887 C   0  0  0  0  0  0  0  0  0  0  0  0
   51.1428    9.4861   12.5579 N   0  0  0  0  0  0  0  0  0  0  0  0
   43.4024    1.9733   12.1326 Cl  0  0  0  0  0  0  0  0  0  0  0  0
   48.1807    9.0502   13.9994 O   0  0  0  0  0  0  0  0  0  0  0  0
   51.7233   10.6529   13.1972 C   0  0  0  0  0  0  0  0  0  0  0  0
   51.8813    9.0632   11.3710 C   0  0  0  0  0  0  0  0  0  0  0  0
   52.8288   10.3793   14.1287 C   0  0  0  0  0  0  0  0  0  0  0  0
   52.3046   10.1219   10.4282 C   0  0  0  0  0  0  0  0  0  0  0  0
   54.0830    9.7294   13.6778 C   0  0  0  0  0  0  0  0  0  0  0  0
   53.1150    9.4968    9.2696 C   0  0  0  0  0  0  0  0  0  0  0  0
   54.8686   10.4531   12.6283 C   0  0  0  0  0  0  0  0  0  0  0  0
   53.5600   10.6375    8.3768 C   0  0  0  0  0  0  0  0  0  0  0  0
   50.4023    8.0033   12.4905 H   0  0  0  0  0  0  0  0  0  0  0  0
   47.0533    7.2608   11.2011 H   0  0  0  0  0  0  0  0  0  0  0  0
   46.3595    3.3023   15.4953 H   0  0  0  0  0  0  0  0  0  0  0  0
   43.8650    3.9624   10.1708 H   0  0  0  0  0  0  0  0  0  0  0  0
   49.3101    7.1909   15.3839 H   0  0  0  0  0  0  0  0  0  0  0  0
   45.2347    2.9389   14.0082 H   0  0  0  0  0  0  0  0  0  0  0  0
   49.7487    7.8776   13.5847 H   0  0  0  0  0  0  0  0  0  0  0  0
   49.1988    8.1326   11.0082 H   0  0  0  0  0  0  0  0  0  0  0  0
   47.9081    9.2355   11.5463 H   0  0  0  0  0  0  0  0  0  0  0  0
   49.2401    5.7214   17.3169 H   0  0  0  0  0  0  0  0  0  0  0  0
   49.4040   10.5803   12.9296 H   0  0  0  0  0  0  0  0  0  0  0  0
   49.9950   10.6199   11.2366 H   0  0  0  0  0  0  0  0  0  0  0  0
   47.4232    9.5127   13.5556 H   0  0  0  0  0  0  0  0  0  0  0  0
   51.9627   11.3882   12.4116 H   0  0  0  0  0  0  0  0  0  0  0  0
   50.9054   11.1614   13.8238 H   0  0  0  0  0  0  0  0  0  0  0  0
   51.0926    8.4540   10.8002 H   0  0  0  0  0  0  0  0  0  0  0  0
   52.6004    8.3052   11.6545 H   0  0  0  0  0  0  0  0  0  0  0  0
   53.1378   11.3076   14.7046 H   0  0  0  0  0  0  0  0  0  0  0  0
   52.4478    9.7007   14.9810 H   0  0  0  0  0  0  0  0  0  0  0  0
   52.8400   10.9927   10.7895 H   0  0  0  0  0  0  0  0  0  0  0  0
   51.3735   10.4874    9.8738 H   0  0  0  0  0  0  0  0  0  0  0  0
   54.7427    9.6511   14.6243 H   0  0  0  0  0  0  0  0  0  0  0  0
   53.8862    8.6680   13.4281 H   0  0  0  0  0  0  0  0  0  0  0  0
   53.9748    8.9332    9.6146 H   0  0  0  0  0  0  0  0  0  0  0  0
   52.3938    8.9014    8.6665 H   0  0  0  0  0  0  0  0  0  0  0  0
   54.8640    9.8044   11.7184 H   0  0  0  0  0  0  0  0  0  0  0  0
   54.4920   11.4658   12.4296 H   0  0  0  0  0  0  0  0  0  0  0  0
   55.9249   10.5784   13.0032 H   0  0  0  0  0  0  0  0  0  0  0  0
   54.3915   10.2375    7.7396 H   0  0  0  0  0  0  0  0  0  0  0  0
   52.7704   11.0219    7.7347 H   0  0  0  0  0  0  0  0  0  0  0  0
   53.9862   11.4042    9.0628 H   0  0  0  0  0  0  0  0  0  0  0  0
  3  2  2  0
  4  3  1  0
  5  2  1  0
  6  5  2  0
  7 11  1  0
  8  6  1  0
  9  2  1  0
 10  4  1  0
 11  9  2  0
 12 15  1  0
 13  5  1  0
 14  3  1  0
 15 14  2  0
 16  6  1  0
 17 16  1  0
 18 11  1  0
 19  7  1  0
 20  7  1  0
 21  7  1  0
 22 10  1  0
 23 17  1  0
 24 23  1  0
 25 15  1  0
 26 16  1  0
 27 24  1  0
 28 24  1  0
 29 27  1  0
 30 28  1  0
 31 29  1  0
 32 30  1  0
 33 31  1  0
 34 32  1  0
 18 13  2  0
  8  4  2  0
 10 12  2  0
  1 35  1  0
  8 36  1  0
  9 37  1  0
 12 38  1  0
 13 39  1  0
 14 40  1  0
 16 41  1  6
 17 42  1  0
 17 43  1  0
 18 44  1  0
 23 45  1  0
 23 46  1  0
 26 47  1  0
 27 48  1  0
 27 49  1  0
 28 50  1  0
 28 51  1  0
 29 52  1  0
 29 53  1  0
 30 54  1  0
 30 55  1  0
 31 56  1  0
 31 57  1  0
 32 58  1  0
 32 59  1  0
 33 60  1  0
 33 61  1  0
 33 62  1  0
 34 63  1  0
 34 64  1  0
 34 65  1  0
M  END
> <Uni-Dock RESULT> 
ENERGY=   -5.240  LOWER_BOUND=    3.605  UPPER_BOUND=    5.836
INTER + INTRA:          -5.240
INTER:                  -5.240
INTRA:                   0.000
UNBOUND:                 0.000

$$$$

     RDKit          3D

 65 66  0  0  0  0  0  0  0  0999 V2000
   43.3712   10.0298   12.0756 Cl  0  0  0  0  0  0  0  0  0  0  0  0
   45.7426    7.4600   12.4407 C   0  0  0  0  0  0  0  0  0  0  0  0
   46.8766    8.1160   12.8661 C   0  0  0  0  0  0  0  0  0  0  0  0
   47.0240    9.4761   12.7080 C   0  0  0  0  0  0  0  0  0  0  0  0
   44.7322    8.1865   11.8410 C   0  0  0  0  0  0  0  0  0  0  0  0
   44.8401    9.5760   11.6585 C   0  0  0  0  0  0  0  0  0  0  0  0
   44.3673    3.9250   12.3568 C   0  0  0  0  0  0  0  0  0  0  0  0
   45.9983   10.1707   12.1068 C   0  0  0  0  0  0  0  0  0  0  0  0
   45.6236    6.0747   12.6099 C   0  0  0  0  0  0  0  0  0  0  0  0
   48.1411   10.1795   13.1044 C   0  0  0  0  0  0  0  0  0  0  0  0
   44.4728    5.4071   12.1725 C   0  0  0  0  0  0  0  0  0  0  0  0
   49.1666    9.4698   13.6933 C   0  0  0  0  0  0  0  0  0  0  0  0
   43.6069    7.4915   11.4208 C   0  0  0  0  0  0  0  0  0  0  0  0
   47.9198    7.4340   13.4589 C   0  0  0  0  0  0  0  0  0  0  0  0
   49.0830    8.0999   13.8824 C   0  0  0  0  0  0  0  0  0  0  0  0
   43.7381   10.2445   10.9977 C   0  0  1  0  0  0  0  0  0  0  0  0
   43.8326   11.7881   11.0702 C   0  0  0  0  0  0  0  0  0  0  0  0
   43.4644    6.1310   11.5757 C   0  0  0  0  0  0  0  0  0  0  0  0
   43.4902    3.5511   13.3261 F   0  0  0  0  0  0  0  0  0  0  0  0
   43.9704    3.3347   11.1580 F   0  0  0  0  0  0  0  0  0  0  0  0
   45.6208    3.4148   12.6495 F   0  0  0  0  0  0  0  0  0  0  0  0
   48.2714   11.8913   12.8798 Cl  0  0  0  0  0  0  0  0  0  0  0  0
   42.6222   12.2818   10.3074 C   0  0  0  0  0  0  0  0  0  0  0  0
   41.3726   11.8237   10.9468 N   0  0  0  0  0  0  0  0  0  0  0  0
   50.4023    7.1988   14.6363 Cl  0  0  0  0  0  0  0  0  0  0  0  0
   43.7926    9.9657    9.6305 O   0  0  0  0  0  0  0  0  0  0  0  0
   40.3770   11.9711    9.9008 C   0  0  0  0  0  0  0  0  0  0  0  0
   41.1362   12.7092   12.0840 C   0  0  0  0  0  0  0  0  0  0  0  0
   39.1393   11.1990   10.0924 C   0  0  0  0  0  0  0  0  0  0  0  0
   40.7792   14.1129   11.7819 C   0  0  0  0  0  0  0  0  0  0  0  0
   38.2593   11.4185   11.2654 C   0  0  0  0  0  0  0  0  0  0  0  0
   40.5144   14.8798   13.0979 C   0  0  0  0  0  0  0  0  0  0  0  0
   37.6750   12.7893   11.4130 C   0  0  0  0  0  0  0  0  0  0  0  0
   40.1036   16.2868   12.7134 C   0  0  0  0  0  0  0  0  0  0  0  0
   42.4200   11.0076   11.9410 H   0  0  0  0  0  0  0  0  0  0  0  0
   46.0772   11.2394   11.9676 H   0  0  0  0  0  0  0  0  0  0  0  0
   46.3602    5.4674   13.0607 H   0  0  0  0  0  0  0  0  0  0  0  0
   50.0964    9.9499   14.0387 H   0  0  0  0  0  0  0  0  0  0  0  0
   42.7634    7.9925   10.9330 H   0  0  0  0  0  0  0  0  0  0  0  0
   47.9265    6.3751   13.6363 H   0  0  0  0  0  0  0  0  0  0  0  0
   42.7312    9.9277   11.3268 H   0  0  0  0  0  0  0  0  0  0  0  0
   43.9446   12.1557   12.0814 H   0  0  0  0  0  0  0  0  0  0  0  0
   44.7285   12.0924   10.4835 H   0  0  0  0  0  0  0  0  0  0  0  0
   42.5944    5.5903   11.2520 H   0  0  0  0  0  0  0  0  0  0  0  0
   42.6232   11.8333    9.2752 H   0  0  0  0  0  0  0  0  0  0  0  0
   42.5669   13.3648   10.2072 H   0  0  0  0  0  0  0  0  0  0  0  0
   44.5199   10.4734    9.1856 H   0  0  0  0  0  0  0  0  0  0  0  0
   40.2183   13.0488    9.7308 H   0  0  0  0  0  0  0  0  0  0  0  0
   40.8330   11.5915    8.9170 H   0  0  0  0  0  0  0  0  0  0  0  0
   42.1764   12.7639   12.5677 H   0  0  0  0  0  0  0  0  0  0  0  0
   40.5599   12.1781   12.8308 H   0  0  0  0  0  0  0  0  0  0  0  0
   38.4690   11.2381    9.1769 H   0  0  0  0  0  0  0  0  0  0  0  0
   39.3965   10.0747   10.1367 H   0  0  0  0  0  0  0  0  0  0  0  0
   39.9758   14.3350   11.0888 H   0  0  0  0  0  0  0  0  0  0  0  0
   41.7225   14.6391   11.4062 H   0  0  0  0  0  0  0  0  0  0  0  0
   37.3857   10.6723   11.1346 H   0  0  0  0  0  0  0  0  0  0  0  0
   38.7596   11.0510   12.1832 H   0  0  0  0  0  0  0  0  0  0  0  0
   39.7447   14.4174   13.7059 H   0  0  0  0  0  0  0  0  0  0  0  0
   41.4983   14.9784   13.6082 H   0  0  0  0  0  0  0  0  0  0  0  0
   38.0976   13.2198   12.3538 H   0  0  0  0  0  0  0  0  0  0  0  0
   37.8501   13.4292   10.5373 H   0  0  0  0  0  0  0  0  0  0  0  0
   36.5559   12.6866   11.5086 H   0  0  0  0  0  0  0  0  0  0  0  0
   39.6132   16.7336   13.6174 H   0  0  0  0  0  0  0  0  0  0  0  0
   40.9373   16.9167   12.4105 H   0  0  0  0  0  0  0  0  0  0  0  0
   39.3292   16.1657   11.9223 H   0  0  0  0  0  0  0  0  0  0  0  0
  3  2  2  0
  4  3  1  0
  5  2  1  0
  6  5  2  0
  7 11  1  0
  8  6  1  0
  9  2  1  0
 10  4  1  0
 11  9  2  0
 12 15  1  0
 13  5  1  0
 14  3  1  0
 15 14  2  0
 16  6  1  0
 17 16  1  0
 18 11  1  0
 19  7  1  0
 20  7  1  0
 21  7  1  0
 22 10  1  0
 23 17  1  0
 24 23  1  0
 25 15  1  0
 26 16  1  0
 27 24  1  0
 28 24  1  0
 29 27  1  0
 30 28  1  0
 31 29  1  0
 32 30  1  0
 33 31  1  0
 34 32  1  0
 18 13  2  0
  8  4  2  0
 10 12  2  0
  1 35  1  0
  8 36  1  0
  9 37  1  0
 12 38  1  0
 13 39  1  0
 14 40  1  0
 16 41  1  6
 17 42  1  0
 17 43  1  0
 18 44  1  0
 23 45  1  0
 23 46  1  0
 26 47  1  0
 27 48  1  0
 27 49  1  0
 28 50  1  0
 28 51  1  0
 29 52  1  0
 29 53  1  0
 30 54  1  0
 30 55  1  0
 31 56  1  0
 31 57  1  0
 32 58  1  0
 32 59  1  0
 33 60  1  0
 33 61  1  0
 33 62  1  0
 34 63  1  0
 34 64  1  0
 34 65  1  0
M  END
> <Uni-Dock RESULT> 
ENERGY=   -5.068  LOWER_BOUND=    4.090  UPPER_BOUND=    5.422
INTER + INTRA:          -5.068
INTER:                  -5.068
INTRA:                   0.000
UNBOUND:                 0.000

$$$$

     RDKit          3D

 65 66  0  0  0  0  0  0  0  0999 V2000
   49.9536    8.8902   11.4554 Cl  0  0  0  0  0  0  0  0  0  0  0  0
   46.6198    8.3834   12.4500 C   0  0  0  0  0  0  0  0  0  0  0  0
   45.9876    9.5537   12.0924 C   0  0  0  0  0  0  0  0  0  0  0  0
   46.6966   10.7061   11.8357 C   0  0  0  0  0  0  0  0  0  0  0  0
   47.9972    8.3693   12.5537 C   0  0  0  0  0  0  0  0  0  0  0  0
   48.7611    9.5220   12.3017 C   0  0  0  0  0  0  0  0  0  0  0  0
   45.6960    4.8177   13.3598 C   0  0  0  0  0  0  0  0  0  0  0  0
   48.0682   10.6581   11.9477 C   0  0  0  0  0  0  0  0  0  0  0  0
   45.8714    7.2283   12.7106 C   0  0  0  0  0  0  0  0  0  0  0  0
   46.1142   11.9053   11.4860 C   0  0  0  0  0  0  0  0  0  0  0  0
   46.5140    6.0400   13.0794 C   0  0  0  0  0  0  0  0  0  0  0  0
   44.7388   11.9429   11.3902 C   0  0  0  0  0  0  0  0  0  0  0  0
   48.5993    7.1741   12.9209 C   0  0  0  0  0  0  0  0  0  0  0  0
   44.6131    9.6233   11.9879 C   0  0  0  0  0  0  0  0  0  0  0  0
   43.9655   10.8199   11.6352 C   0  0  0  0  0  0  0  0  0  0  0  0
   50.1966    9.4127   12.4605 C   0  0  1  0  0  0  0  0  0  0  0  0
   50.9630   10.6450   11.9211 C   0  0  0  0  0  0  0  0  0  0  0  0
   47.8875    6.0249   13.1817 C   0  0  0  0  0  0  0  0  0  0  0  0
   45.7830    3.8629   12.3957 F   0  0  0  0  0  0  0  0  0  0  0  0
   46.1010    4.2548   14.5691 F   0  0  0  0  0  0  0  0  0  0  0  0
   44.3715    5.1871   13.5228 F   0  0  0  0  0  0  0  0  0  0  0  0
   47.0570   13.3236   11.1748 Cl  0  0  0  0  0  0  0  0  0  0  0  0
   52.4188   10.3453   12.2066 C   0  0  0  0  0  0  0  0  0  0  0  0
   52.8567    9.1288   11.4935 N   0  0  0  0  0  0  0  0  0  0  0  0
   42.2041   10.8779   11.5115 Cl  0  0  0  0  0  0  0  0  0  0  0  0
   50.5021    9.3937   13.8230 O   0  0  0  0  0  0  0  0  0  0  0  0
   54.0632    8.7333   12.1971 C   0  0  0  0  0  0  0  0  0  0  0  0
   53.1102    9.5237   10.1104 C   0  0  0  0  0  0  0  0  0  0  0  0
   54.4811    7.3364   12.0002 C   0  0  0  0  0  0  0  0  0  0  0  0
   54.2714   10.4068    9.8640 C   0  0  0  0  0  0  0  0  0  0  0  0
   54.8273    6.8100   10.6579 C   0  0  0  0  0  0  0  0  0  0  0  0
   54.4141   10.6720    8.3476 C   0  0  0  0  0  0  0  0  0  0  0  0
   55.9740    7.4715    9.9580 C   0  0  0  0  0  0  0  0  0  0  0  0
   55.6474   11.5333    8.1646 C   0  0  0  0  0  0  0  0  0  0  0  0
   51.2569    9.0516   11.0623 H   0  0  0  0  0  0  0  0  0  0  0  0
   48.6583   11.5420   11.7519 H   0  0  0  0  0  0  0  0  0  0  0  0
   44.8188    7.1775   12.6473 H   0  0  0  0  0  0  0  0  0  0  0  0
   44.1894   12.8587   11.1186 H   0  0  0  0  0  0  0  0  0  0  0  0
   49.6854    7.0802   13.0293 H   0  0  0  0  0  0  0  0  0  0  0  0
   43.9509    8.7967   12.1638 H   0  0  0  0  0  0  0  0  0  0  0  0
   50.6471    8.4943   12.0410 H   0  0  0  0  0  0  0  0  0  0  0  0
   50.7141   10.8790   10.8947 H   0  0  0  0  0  0  0  0  0  0  0  0
   50.6826   11.5137   12.5584 H   0  0  0  0  0  0  0  0  0  0  0  0
   48.3507    5.0981   13.4656 H   0  0  0  0  0  0  0  0  0  0  0  0
   52.5462   10.1235   13.3025 H   0  0  0  0  0  0  0  0  0  0  0  0
   53.1023   11.1506   11.9413 H   0  0  0  0  0  0  0  0  0  0  0  0
   50.4087   10.2947   14.2282 H   0  0  0  0  0  0  0  0  0  0  0  0
   54.8462    9.4771   11.9757 H   0  0  0  0  0  0  0  0  0  0  0  0
   53.8731    8.8466   13.3245 H   0  0  0  0  0  0  0  0  0  0  0  0
   52.1900   10.1677    9.8707 H   0  0  0  0  0  0  0  0  0  0  0  0
   52.9674    8.6651    9.4665 H   0  0  0  0  0  0  0  0  0  0  0  0
   55.3372    7.0488   12.6881 H   0  0  0  0  0  0  0  0  0  0  0  0
   53.6449    6.6340   12.3737 H   0  0  0  0  0  0  0  0  0  0  0  0
   55.2473   10.1489   10.2596 H   0  0  0  0  0  0  0  0  0  0  0  0
   54.0025   11.4507   10.2459 H   0  0  0  0  0  0  0  0  0  0  0  0
   55.1074    5.7011   10.8287 H   0  0  0  0  0  0  0  0  0  0  0  0
   53.9130    6.7384   10.0361 H   0  0  0  0  0  0  0  0  0  0  0  0
   54.5044    9.7598    7.7683 H   0  0  0  0  0  0  0  0  0  0  0  0
   53.5505   11.3109    8.0573 H   0  0  0  0  0  0  0  0  0  0  0  0
   55.5553    7.9584    9.0436 H   0  0  0  0  0  0  0  0  0  0  0  0
   56.5232    8.1742   10.5996 H   0  0  0  0  0  0  0  0  0  0  0  0
   56.7133    6.6730    9.6615 H   0  0  0  0  0  0  0  0  0  0  0  0
   55.9300   11.4589    7.0821 H   0  0  0  0  0  0  0  0  0  0  0  0
   55.4912   12.5785    8.4226 H   0  0  0  0  0  0  0  0  0  0  0  0
   56.4457   11.0426    8.7664 H   0  0  0  0  0  0  0  0  0  0  0  0
  3  2  2  0
  4  3  1  0
  5  2  1  0
  6  5  2  0
  7 11  1  0
  8  6  1  0
  9  2  1  0
 10  4  1  0
 11  9  2  0
 12 15  1  0
 13  5  1  0
 14  3  1  0
 15 14  2  0
 16  6  1  0
 17 16  1  0
 18 11  1  0
 19  7  1  0
 20  7  1  0
 21  7  1  0
 22 10  1  0
 23 17  1  0
 24 23  1  0
 25 15  1  0
 26 16  1  0
 27 24  1  0
 28 24  1  0
 29 27  1  0
 30 28  1  0
 31 29  1  0
 32 30  1  0
 33 31  1  0
 34 32  1  0
 18 13  2  0
  8  4  2  0
 10 12  2  0
  1 35  1  0
  8 36  1  0
  9 37  1  0
 12 38  1  0
 13 39  1  0
 14 40  1  0
 16 41  1  6
 17 42  1  0
 17 43  1  0
 18 44  1  0
 23 45  1  0
 23 46  1  0
 26 47  1  0
 27 48  1  0
 27 49  1  0
 28 50  1  0
 28 51  1  0
 29 52  1  0
 29 53  1  0
 30 54  1  0
 30 55  1  0
 31 56  1  0
 31 57  1  0
 32 58  1  0
 32 59  1  0
 33 60  1  0
 33 61  1  0
 33 62  1  0
 34 63  1  0
 34 64  1  0
 34 65  1  0
M  END
> <Uni-Dock RESULT> 
ENERGY=   -5.020  LOWER_BOUND=    3.846  UPPER_BOUND=    6.494
INTER + INTRA:          -5.020
INTER:                  -5.020
INTRA:                   0.000
UNBOUND:                 0.000

$$$$

     RDKit          3D

 65 66  0  0  0  0  0  0  0  0999 V2000
   47.5970   12.1059   12.7153 Cl  0  0  0  0  0  0  0  0  0  0  0  0
   45.3306    9.5288   11.9521 C   0  0  0  0  0  0  0  0  0  0  0  0
   45.9768    8.3869   12.3711 C   0  0  0  0  0  0  0  0  0  0  0  0
   47.3357    8.3687   12.5940 C   0  0  0  0  0  0  0  0  0  0  0  0
   46.0662   10.6807   11.7508 C   0  0  0  0  0  0  0  0  0  0  0  0
   47.4551   10.7078   11.9652 C   0  0  0  0  0  0  0  0  0  0  0  0
   41.8146   10.6386   11.0570 C   0  0  0  0  0  0  0  0  0  0  0  0
   48.0394    9.5335   12.3843 C   0  0  0  0  0  0  0  0  0  0  0  0
   43.9480    9.5153   11.7280 C   0  0  0  0  0  0  0  0  0  0  0  0
   48.0329    7.2520   13.0019 C   0  0  0  0  0  0  0  0  0  0  0  0
   43.2921   10.6751   11.2969 C   0  0  0  0  0  0  0  0  0  0  0  0
   47.3180    6.0886   13.1955 C   0  0  0  0  0  0  0  0  0  0  0  0
   45.3825   11.8104   11.3241 C   0  0  0  0  0  0  0  0  0  0  0  0
   45.2894    7.2073   12.5737 C   0  0  0  0  0  0  0  0  0  0  0  0
   45.9491    6.0378   12.9893 C   0  0  0  0  0  0  0  0  0  0  0  0
   48.1411   11.9563   11.7034 C   0  0  1  0  0  0  0  0  0  0  0  0
   49.6056   11.9616   12.2054 C   0  0  0  0  0  0  0  0  0  0  0  0
   44.0247   11.8242   11.0973 C   0  0  0  0  0  0  0  0  0  0  0  0
   41.0868   11.2968   11.9982 F   0  0  0  0  0  0  0  0  0  0  0  0
   41.5316   11.2022    9.8138 F   0  0  0  0  0  0  0  0  0  0  0  0
   41.3987    9.3194   10.9938 F   0  0  0  0  0  0  0  0  0  0  0  0
   49.7435    7.2879   13.2666 Cl  0  0  0  0  0  0  0  0  0  0  0  0
   50.1397   13.3224   11.8130 C   0  0  0  0  0  0  0  0  0  0  0  0
   49.3770   14.3995   12.4751 N   0  0  0  0  0  0  0  0  0  0  0  0
   45.0417    4.5425   13.2384 Cl  0  0  0  0  0  0  0  0  0  0  0  0
   48.2558   12.1299   10.3226 O   0  0  0  0  0  0  0  0  0  0  0  0
   49.6840   15.5758   11.6819 C   0  0  0  0  0  0  0  0  0  0  0  0
   49.8823   14.4896   13.8425 C   0  0  0  0  0  0  0  0  0  0  0  0
   48.7457   16.6996   11.8278 C   0  0  0  0  0  0  0  0  0  0  0  0
   51.2614   14.9953   14.0190 C   0  0  0  0  0  0  0  0  0  0  0  0
   48.5281   17.3665   13.1342 C   0  0  0  0  0  0  0  0  0  0  0  0
   51.6011   15.0724   15.5253 C   0  0  0  0  0  0  0  0  0  0  0  0
   49.7254   18.0116   13.7608 C   0  0  0  0  0  0  0  0  0  0  0  0
   52.9996   15.6462   15.6332 C   0  0  0  0  0  0  0  0  0  0  0  0
   48.4523   13.1337   13.0174 H   0  0  0  0  0  0  0  0  0  0  0  0
   49.1069    9.5582   12.5509 H   0  0  0  0  0  0  0  0  0  0  0  0
   43.3338    8.6676   11.8650 H   0  0  0  0  0  0  0  0  0  0  0  0
   47.7937    5.1487   13.5191 H   0  0  0  0  0  0  0  0  0  0  0  0
   45.8924   12.7620   11.1375 H   0  0  0  0  0  0  0  0  0  0  0  0
   44.2312    7.0925   12.4329 H   0  0  0  0  0  0  0  0  0  0  0  0
   47.6274   12.8617   12.0762 H   0  0  0  0  0  0  0  0  0  0  0  0
   49.6931   11.6955   13.2502 H   0  0  0  0  0  0  0  0  0  0  0  0
   50.1645   11.2109   11.6026 H   0  0  0  0  0  0  0  0  0  0  0  0
   43.4925   12.6972   10.7675 H   0  0  0  0  0  0  0  0  0  0  0  0
   49.9944   13.4757   10.7076 H   0  0  0  0  0  0  0  0  0  0  0  0
   51.1939   13.4726   12.0411 H   0  0  0  0  0  0  0  0  0  0  0  0
   48.9497   11.5335    9.9385 H   0  0  0  0  0  0  0  0  0  0  0  0
   50.7398   15.8397   11.8583 H   0  0  0  0  0  0  0  0  0  0  0  0
   49.6460   15.2790   10.5726 H   0  0  0  0  0  0  0  0  0  0  0  0
   49.9273   13.3857   14.1564 H   0  0  0  0  0  0  0  0  0  0  0  0
   49.1017   14.8816   14.4819 H   0  0  0  0  0  0  0  0  0  0  0  0
   48.9528   17.5253   11.0768 H   0  0  0  0  0  0  0  0  0  0  0  0
   47.6918   16.3584   11.5041 H   0  0  0  0  0  0  0  0  0  0  0  0
   51.5663   15.9247   13.5515 H   0  0  0  0  0  0  0  0  0  0  0  0
   51.9800   14.1759   13.6727 H   0  0  0  0  0  0  0  0  0  0  0  0
   47.7466   18.1934   12.9275 H   0  0  0  0  0  0  0  0  0  0  0  0
   47.9865   16.6834   13.8181 H   0  0  0  0  0  0  0  0  0  0  0  0
   50.9007   15.6842   16.0831 H   0  0  0  0  0  0  0  0  0  0  0  0
   51.6741   14.0222   15.8856 H   0  0  0  0  0  0  0  0  0  0  0  0
   49.9296   17.4581   14.7098 H   0  0  0  0  0  0  0  0  0  0  0  0
   50.5968   18.0443   13.0924 H   0  0  0  0  0  0  0  0  0  0  0  0
   49.4664   19.0847   13.9922 H   0  0  0  0  0  0  0  0  0  0  0  0
   53.1194   15.9960   16.6918 H   0  0  0  0  0  0  0  0  0  0  0  0
   53.7840   14.9285   15.4025 H   0  0  0  0  0  0  0  0  0  0  0  0
   53.0072   16.5400   14.9691 H   0  0  0  0  0  0  0  0  0  0  0  0
  3  2  2  0
  4  3  1  0
  5  2  1  0
  6  5  2  0
  7 11  1  0
  8  6  1  0
  9  2  1  0
 10  4  1  0
 11  9  2  0
 12 15  1  0
 13  5  1  0
 14  3  1  0
 15 14  2  0
 16  6  1  0
 17 16  1  0
 18 11  1  0
 19  7  1  0
 20  7  1  0
 21  7  1  0
 22 10  1  0
 23 17  1  0
 24 23  1  0
 25 15  1  0
 26 16  1  0
 27 24  1  0
 28 24  1  0
 29 27  1  0
 30 28  1  0
 31 29  1  0
 32 30  1  0
 33 31  1  0
 34 32  1  0
 18 13  2  0
  8  4  2  0
 10 12  2  0
  1 35  1  0
  8 36  1  0
  9 37  1  0
 12 38  1  0
 13 39  1  0
 14 40  1  0
 16 41  1  6
 17 42  1  0
 17 43  1  0
 18 44  1  0
 23 45  1  0
 23 46  1  0
 26 47  1  0
 27 48  1  0
 27 49  1  0
 28 50  1  0
 28 51  1  0
 29 52  1  0
 29 53  1  0
 30 54  1  0
 30 55  1  0
 31 56  1  0
 31 57  1  0
 32 58  1  0
 32 59  1  0
 33 60  1  0
 33 61  1  0
 33 62  1  0
 34 63  1  0
 34 64  1  0
 34 65  1  0
M  END
> <Uni-Dock RESULT> 
ENERGY=   -4.884  LOWER_BOUND=    3.296  UPPER_BOUND=    4.918
INTER + INTRA:          -4.884
INTER:                  -4.884
INTRA:                   0.000
UNBOUND:                 0.000

$$$$
