
     RDKit          3D

 65 66  0  0  0  0  0  0  0  0999 V2000
   48.4106    8.3359   14.3653 Cl  0  0  0  0  0  0  0  0  0  0  0  0
   45.4762    7.4829   12.4389 C   0  0  0  0  0  0  0  0  0  0  0  0
   45.1814    8.7344   11.9499 C   0  0  0  0  0  0  0  0  0  0  0  0
   46.0103    9.8042   12.2244 C   0  0  0  0  0  0  0  0  0  0  0  0
   46.6177    7.3056   13.2141 C   0  0  0  0  0  0  0  0  0  0  0  0
   47.4699    8.3779   13.5019 C   0  0  0  0  0  0  0  0  0  0  0  0
   44.0663    3.9618   12.3779 C   0  0  0  0  0  0  0  0  0  0  0  0
   47.1370    9.6157   12.9913 C   0  0  0  0  0  0  0  0  0  0  0  0
   44.6428    6.4086   12.1628 C   0  0  0  0  0  0  0  0  0  0  0  0
   45.7479   11.0628   11.7553 C   0  0  0  0  0  0  0  0  0  0  0  0
   44.9355    5.1474   12.6556 C   0  0  0  0  0  0  0  0  0  0  0  0
   44.6322   11.3023   10.9850 C   0  0  0  0  0  0  0  0  0  0  0  0
   46.8819    6.0394   13.6918 C   0  0  0  0  0  0  0  0  0  0  0  0
   44.0770    8.9749   11.1860 C   0  0  0  0  0  0  0  0  0  0  0  0
   43.7839   10.2459   10.6949 C   0  0  0  0  0  0  0  0  0  0  0  0
   48.7051    8.1561   14.3239 C   0  0  1  0  0  0  0  0  0  0  0  0
   48.4283    8.1789   15.7771 C   0  0  0  0  0  0  0  0  0  0  0  0
   46.0463    4.9501   13.4179 C   0  0  0  0  0  0  0  0  0  0  0  0
   43.0480    4.2852   11.5146 F   0  0  0  0  0  0  0  0  0  0  0  0
   43.5179    3.4532   13.5587 F   0  0  0  0  0  0  0  0  0  0  0  0
   44.8687    2.9435   11.8596 F   0  0  0  0  0  0  0  0  0  0  0  0
   46.8014   12.4420   12.1000 Cl  0  0  0  0  0  0  0  0  0  0  0  0
   49.5755    7.9660   16.7024 C   0  0  0  0  0  0  0  0  0  0  0  0
   50.6513    8.8643   16.6285 N   0  0  0  0  0  0  0  0  0  0  0  0
   42.3349   10.5028    9.7109 Cl  0  0  0  0  0  0  0  0  0  0  0  0
   49.4807    7.1290   13.8433 O   0  0  0  0  0  0  0  0  0  0  0  0
   50.3346   10.1696   17.0083 C   0  0  0  0  0  0  0  0  0  0  0  0
   51.9202    8.3399   16.6407 C   0  0  0  0  0  0  0  0  0  0  0  0
   51.4113   11.1330   17.3620 C   0  0  0  0  0  0  0  0  0  0  0  0
   52.2343    7.4789   15.4059 C   0  0  0  0  0  0  0  0  0  0  0  0
   52.1577   10.8039   18.6130 C   0  0  0  0  0  0  0  0  0  0  0  0
   53.6370    6.9786   15.4940 C   0  0  0  0  0  0  0  0  0  0  0  0
   53.2686   11.8008   18.9193 C   0  0  0  0  0  0  0  0  0  0  0  0
   54.6906    8.0358   15.5156 C   0  0  0  0  0  0  0  0  0  0  0  0
   49.5610    8.5879   15.0688 H   0  0  0  0  0  0  0  0  0  0  0  0
   47.7935   10.4725   13.2062 H   0  0  0  0  0  0  0  0  0  0  0  0
   43.7502    6.4833   11.5720 H   0  0  0  0  0  0  0  0  0  0  0  0
   44.3872   12.3010   10.5891 H   0  0  0  0  0  0  0  0  0  0  0  0
   47.7289    5.8175   14.3019 H   0  0  0  0  0  0  0  0  0  0  0  0
   43.3657    8.2109   10.9150 H   0  0  0  0  0  0  0  0  0  0  0  0
   49.3305    9.0860   14.1193 H   0  0  0  0  0  0  0  0  0  0  0  0
   47.9288    9.1598   16.0550 H   0  0  0  0  0  0  0  0  0  0  0  0
   47.6384    7.4287   16.0866 H   0  0  0  0  0  0  0  0  0  0  0  0
   46.2771    3.9525   13.8078 H   0  0  0  0  0  0  0  0  0  0  0  0
   49.1260    7.9976   17.7499 H   0  0  0  0  0  0  0  0  0  0  0  0
   49.9296    6.9069   16.6153 H   0  0  0  0  0  0  0  0  0  0  0  0
   49.8524    7.3764   12.9716 H   0  0  0  0  0  0  0  0  0  0  0  0
   49.6160   10.6299   16.2575 H   0  0  0  0  0  0  0  0  0  0  0  0
   49.6492   10.0884   17.9295 H   0  0  0  0  0  0  0  0  0  0  0  0
   52.6623    9.1961   16.5533 H   0  0  0  0  0  0  0  0  0  0  0  0
   52.2399    7.7353   17.5002 H   0  0  0  0  0  0  0  0  0  0  0  0
   50.8917   12.1300   17.5311 H   0  0  0  0  0  0  0  0  0  0  0  0
   52.0928   11.3523   16.5067 H   0  0  0  0  0  0  0  0  0  0  0  0
   51.5676    6.5916   15.4716 H   0  0  0  0  0  0  0  0  0  0  0  0
   52.0239    8.0004   14.4747 H   0  0  0  0  0  0  0  0  0  0  0  0
   52.5108    9.7817   18.6650 H   0  0  0  0  0  0  0  0  0  0  0  0
   51.4521   10.8845   19.5189 H   0  0  0  0  0  0  0  0  0  0  0  0
   53.7798    6.3426   16.3961 H   0  0  0  0  0  0  0  0  0  0  0  0
   53.8635    6.3097   14.6350 H   0  0  0  0  0  0  0  0  0  0  0  0
   52.8799   12.6846   19.4639 H   0  0  0  0  0  0  0  0  0  0  0  0
   53.7403   12.0783   17.9562 H   0  0  0  0  0  0  0  0  0  0  0  0
   54.0515   11.2494   19.4930 H   0  0  0  0  0  0  0  0  0  0  0  0
   54.6347    8.6881   14.5990 H   0  0  0  0  0  0  0  0  0  0  0  0
   55.6697    7.4902   15.3718 H   0  0  0  0  0  0  0  0  0  0  0  0
   54.7943    8.5980   16.4432 H   0  0  0  0  0  0  0  0  0  0  0  0
  3  2  2  0
  4  3  1  0
  5  2  1  0
  6  5  2  0
  7 11  1  0
  8  6  1  0
  9  2  1  0
 10  4  1  0
 11  9  2  0
 12 15  1  0
 13  5  1  0
 14  3  1  0
 15 14  2  0
 16  6  1  0
 17 16  1  0
 18 11  1  0
 19  7  1  0
 20  7  1  0
 21  7  1  0
 22 10  1  0
 23 17  1  0
 24 23  1  0
 25 15  1  0
 26 16  1  0
 27 24  1  0
 28 24  1  0
 29 27  1  0
 30 28  1  0
 31 29  1  0
 32 30  1  0
 33 31  1  0
 34 32  1  0
 18 13  2  0
  8  4  2  0
 10 12  2  0
  1 35  1  0
  8 36  1  0
  9 37  1  0
 12 38  1  0
 13 39  1  0
 14 40  1  0
 16 41  1  1
 17 42  1  0
 17 43  1  0
 18 44  1  0
 23 45  1  0
 23 46  1  0
 26 47  1  0
 27 48  1  0
 27 49  1  0
 28 50  1  0
 28 51  1  0
 29 52  1  0
 29 53  1  0
 30 54  1  0
 30 55  1  0
 31 56  1  0
 31 57  1  0
 32 58  1  0
 32 59  1  0
 33 60  1  0
 33 61  1  0
 33 62  1  0
 34 63  1  0
 34 64  1  0
 34 65  1  0
M  END
> <Uni-Dock RESULT> 
ENERGY=   -5.599  LOWER_BOUND=    0.000  UPPER_BOUND=    0.000
INTER + INTRA:          -5.599
INTER:                  -5.599
INTRA:                   0.000
UNBOUND:                 0.000

$$$$

     RDKit          3D

 65 66  0  0  0  0  0  0  0  0999 V2000
   48.4195    8.3328   14.3788 Cl  0  0  0  0  0  0  0  0  0  0  0  0
   45.4829    7.4871   12.4526 C   0  0  0  0  0  0  0  0  0  0  0  0
   45.1923    8.7391   11.9620 C   0  0  0  0  0  0  0  0  0  0  0  0
   46.0246    9.8065   12.2355 C   0  0  0  0  0  0  0  0  0  0  0  0
   46.6236    7.3070   13.2282 C   0  0  0  0  0  0  0  0  0  0  0  0
   47.4792    8.3769   13.5151 C   0  0  0  0  0  0  0  0  0  0  0  0
   44.0615    3.9707   12.3951 C   0  0  0  0  0  0  0  0  0  0  0  0
   47.1504    9.6152   13.0029 C   0  0  0  0  0  0  0  0  0  0  0  0
   44.6461    6.4153   12.1775 C   0  0  0  0  0  0  0  0  0  0  0  0
   45.7664   11.0655   11.7650 C   0  0  0  0  0  0  0  0  0  0  0  0
   44.9345    5.1537   12.6717 C   0  0  0  0  0  0  0  0  0  0  0  0
   44.6517   11.3076   10.9940 C   0  0  0  0  0  0  0  0  0  0  0  0
   46.8835    6.0406   13.7074 C   0  0  0  0  0  0  0  0  0  0  0  0
   44.0889    8.9823   11.1976 C   0  0  0  0  0  0  0  0  0  0  0  0
   43.8000   10.2537   10.7049 C   0  0  0  0  0  0  0  0  0  0  0  0
   48.7134    8.1520   14.3376 C   0  0  1  0  0  0  0  0  0  0  0  0
   48.4364    8.1774   15.7907 C   0  0  0  0  0  0  0  0  0  0  0  0
   46.0444    4.9536   13.4345 C   0  0  0  0  0  0  0  0  0  0  0  0
   43.0445    4.2964   11.5312 F   0  0  0  0  0  0  0  0  0  0  0  0
   43.5112    3.4651   13.5764 F   0  0  0  0  0  0  0  0  0  0  0  0
   44.8608    2.9491   11.8783 F   0  0  0  0  0  0  0  0  0  0  0  0
   46.8243   12.4415   12.1083 Cl  0  0  0  0  0  0  0  0  0  0  0  0
   49.5826    7.9618   16.7166 C   0  0  0  0  0  0  0  0  0  0  0  0
   50.6613    8.8565   16.6419 N   0  0  0  0  0  0  0  0  0  0  0  0
   42.3522   10.5142    9.7203 Cl  0  0  0  0  0  0  0  0  0  0  0  0
   49.4858    7.1218   13.8584 O   0  0  0  0  0  0  0  0  0  0  0  0
   50.3488   10.1633   17.0202 C   0  0  0  0  0  0  0  0  0  0  0  0
   51.9285    8.3280   16.6551 C   0  0  0  0  0  0  0  0  0  0  0  0
   51.4285   11.1236   17.3731 C   0  0  0  0  0  0  0  0  0  0  0  0
   52.2401    7.4646   15.4214 C   0  0  0  0  0  0  0  0  0  0  0  0
   52.1735   10.7935   18.6247 C   0  0  0  0  0  0  0  0  0  0  0  0
   53.6411    6.9598   15.5104 C   0  0  0  0  0  0  0  0  0  0  0  0
   53.2876   11.7871   18.9301 C   0  0  0  0  0  0  0  0  0  0  0  0
   54.6982    8.0136   15.5311 C   0  0  0  0  0  0  0  0  0  0  0  0
   49.5706    8.5819   15.0823 H   0  0  0  0  0  0  0  0  0  0  0  0
   47.8097   10.4701   13.2171 H   0  0  0  0  0  0  0  0  0  0  0  0
   43.7539    6.4922   11.5863 H   0  0  0  0  0  0  0  0  0  0  0  0
   44.4100   12.3067   10.5969 H   0  0  0  0  0  0  0  0  0  0  0  0
   47.7297    5.8166   14.3180 H   0  0  0  0  0  0  0  0  0  0  0  0
   43.3752    8.2204   10.9273 H   0  0  0  0  0  0  0  0  0  0  0  0
   49.3419    9.0796   14.1322 H   0  0  0  0  0  0  0  0  0  0  0  0
   47.9399    9.1603   16.0674 H   0  0  0  0  0  0  0  0  0  0  0  0
   47.6439    7.4301   16.1008 H   0  0  0  0  0  0  0  0  0  0  0  0
   46.2719    3.9557   13.8257 H   0  0  0  0  0  0  0  0  0  0  0  0
   49.1329    7.9960   17.7640 H   0  0  0  0  0  0  0  0  0  0  0  0
   49.9333    6.9015   16.6308 H   0  0  0  0  0  0  0  0  0  0  0  0
   49.8586    7.3671   12.9865 H   0  0  0  0  0  0  0  0  0  0  0  0
   49.6319   10.6250   16.2687 H   0  0  0  0  0  0  0  0  0  0  0  0
   49.6629   10.0854   17.9413 H   0  0  0  0  0  0  0  0  0  0  0  0
   52.6734    9.1817   16.5670 H   0  0  0  0  0  0  0  0  0  0  0  0
   52.2460    7.7233   17.5154 H   0  0  0  0  0  0  0  0  0  0  0  0
   50.9121   12.1225   17.5410 H   0  0  0  0  0  0  0  0  0  0  0  0
   52.1109   11.3397   16.5178 H   0  0  0  0  0  0  0  0  0  0  0  0
   51.5705    6.5795   15.4878 H   0  0  0  0  0  0  0  0  0  0  0  0
   52.0317    7.9857   14.4895 H   0  0  0  0  0  0  0  0  0  0  0  0
   52.5232    9.7702   18.6779 H   0  0  0  0  0  0  0  0  0  0  0  0
   51.4679   10.8774   19.5303 H   0  0  0  0  0  0  0  0  0  0  0  0
   53.7817    6.3244   16.4133 H   0  0  0  0  0  0  0  0  0  0  0  0
   53.8657    6.2892   14.6522 H   0  0  0  0  0  0  0  0  0  0  0  0
   52.9016   12.6728   19.4737 H   0  0  0  0  0  0  0  0  0  0  0  0
   53.7604   12.0619   17.9669 H   0  0  0  0  0  0  0  0  0  0  0  0
   54.0685   11.2338   19.5047 H   0  0  0  0  0  0  0  0  0  0  0  0
   54.6446    8.6651   14.6138 H   0  0  0  0  0  0  0  0  0  0  0  0
   55.6756    7.4646   15.3882 H   0  0  0  0  0  0  0  0  0  0  0  0
   54.8035    8.5765   16.4581 H   0  0  0  0  0  0  0  0  0  0  0  0
  3  2  2  0
  4  3  1  0
  5  2  1  0
  6  5  2  0
  7 11  1  0
  8  6  1  0
  9  2  1  0
 10  4  1  0
 11  9  2  0
 12 15  1  0
 13  5  1  0
 14  3  1  0
 15 14  2  0
 16  6  1  0
 17 16  1  0
 18 11  1  0
 19  7  1  0
 20  7  1  0
 21  7  1  0
 22 10  1  0
 23 17  1  0
 24 23  1  0
 25 15  1  0
 26 16  1  0
 27 24  1  0
 28 24  1  0
 29 27  1  0
 30 28  1  0
 31 29  1  0
 32 30  1  0
 33 31  1  0
 34 32  1  0
 18 13  2  0
  8  4  2  0
 10 12  2  0
  1 35  1  0
  8 36  1  0
  9 37  1  0
 12 38  1  0
 13 39  1  0
 14 40  1  0
 16 41  1  1
 17 42  1  0
 17 43  1  0
 18 44  1  0
 23 45  1  0
 23 46  1  0
 26 47  1  0
 27 48  1  0
 27 49  1  0
 28 50  1  0
 28 51  1  0
 29 52  1  0
 29 53  1  0
 30 54  1  0
 30 55  1  0
 31 56  1  0
 31 57  1  0
 32 58  1  0
 32 59  1  0
 33 60  1  0
 33 61  1  0
 33 62  1  0
 34 63  1  0
 34 64  1  0
 34 65  1  0
M  END
> <Uni-Dock RESULT> 
ENERGY=   -5.597  LOWER_BOUND=    0.020  UPPER_BOUND=    0.020
INTER + INTRA:          -5.597
INTER:                  -5.597
INTRA:                   0.000
UNBOUND:                 0.000

$$$$

     RDKit          3D

 65 66  0  0  0  0  0  0  0  0999 V2000
   48.5164    8.2075   14.1145 Cl  0  0  0  0  0  0  0  0  0  0  0  0
   45.4468    7.5288   12.3351 C   0  0  0  0  0  0  0  0  0  0  0  0
   45.4026    6.1658   12.5156 C   0  0  0  0  0  0  0  0  0  0  0  0
   46.3607    5.5316   13.2816 C   0  0  0  0  0  0  0  0  0  0  0  0
   46.4674    8.2624   12.9312 C   0  0  0  0  0  0  0  0  0  0  0  0
   47.4466    7.6371   13.7116 C   0  0  0  0  0  0  0  0  0  0  0  0
   43.5061   10.2629   10.5609 C   0  0  0  0  0  0  0  0  0  0  0  0
   47.3644    6.2685   13.8670 C   0  0  0  0  0  0  0  0  0  0  0  0
   44.4839    8.1651   11.5652 C   0  0  0  0  0  0  0  0  0  0  0  0
   46.3484    4.1778   13.4820 C   0  0  0  0  0  0  0  0  0  0  0  0
   44.5267    9.5372   11.3794 C   0  0  0  0  0  0  0  0  0  0  0  0
   45.3655    3.3972   12.9162 C   0  0  0  0  0  0  0  0  0  0  0  0
   46.4847    9.6260   12.7270 C   0  0  0  0  0  0  0  0  0  0  0  0
   44.4299    5.3895   11.9567 C   0  0  0  0  0  0  0  0  0  0  0  0
   44.3920    4.0088   12.1429 C   0  0  0  0  0  0  0  0  0  0  0  0
   48.5254    8.4536   14.3597 C   0  0  1  0  0  0  0  0  0  0  0  0
   49.6496    8.7360   13.4403 C   0  0  0  0  0  0  0  0  0  0  0  0
   45.5171   10.2759   11.9517 C   0  0  0  0  0  0  0  0  0  0  0  0
   42.5145    9.4120   10.1370 F   0  0  0  0  0  0  0  0  0  0  0  0
   44.0937   10.8684    9.4465 F   0  0  0  0  0  0  0  0  0  0  0  0
   42.9873   11.3046   11.3325 F   0  0  0  0  0  0  0  0  0  0  0  0
   47.5700    3.3531   14.4608 Cl  0  0  0  0  0  0  0  0  0  0  0  0
   50.7850    9.5442   13.9649 C   0  0  0  0  0  0  0  0  0  0  0  0
   51.4790    9.0508   15.0806 N   0  0  0  0  0  0  0  0  0  0  0  0
   43.1087    3.0486   11.3914 Cl  0  0  0  0  0  0  0  0  0  0  0  0
   48.0246    9.5048   15.0889 O   0  0  0  0  0  0  0  0  0  0  0  0
   52.1774    7.8659   14.8426 C   0  0  0  0  0  0  0  0  0  0  0  0
   51.7741    9.9351   16.0886 C   0  0  0  0  0  0  0  0  0  0  0  0
   53.2562    7.4287   15.7686 C   0  0  0  0  0  0  0  0  0  0  0  0
   50.5264   10.4852   16.7995 C   0  0  0  0  0  0  0  0  0  0  0  0
   54.4673    8.3025   15.7735 C   0  0  0  0  0  0  0  0  0  0  0  0
   50.9457   11.4106   17.8919 C   0  0  0  0  0  0  0  0  0  0  0  0
   55.5321    7.8331   16.7571 C   0  0  0  0  0  0  0  0  0  0  0  0
   51.7724   10.7915   18.9696 C   0  0  0  0  0  0  0  0  0  0  0  0
   49.6447    8.5345   14.8228 H   0  0  0  0  0  0  0  0  0  0  0  0
   48.1248    5.7570   14.4764 H   0  0  0  0  0  0  0  0  0  0  0  0
   43.6742    7.6537   11.0812 H   0  0  0  0  0  0  0  0  0  0  0  0
   45.3218    2.3049   13.0544 H   0  0  0  0  0  0  0  0  0  0  0  0
   47.2368   10.2619   13.1381 H   0  0  0  0  0  0  0  0  0  0  0  0
   43.6370    5.7842   11.3414 H   0  0  0  0  0  0  0  0  0  0  0  0
   48.9493    7.7528   15.1514 H   0  0  0  0  0  0  0  0  0  0  0  0
   50.0680    7.7601   13.0382 H   0  0  0  0  0  0  0  0  0  0  0  0
   49.3198    9.2493   12.4862 H   0  0  0  0  0  0  0  0  0  0  0  0
   45.5508   11.3611   11.8042 H   0  0  0  0  0  0  0  0  0  0  0  0
   51.5055    9.6543   13.0879 H   0  0  0  0  0  0  0  0  0  0  0  0
   50.4414   10.5961   14.1384 H   0  0  0  0  0  0  0  0  0  0  0  0
   47.5291    9.1638   15.8617 H   0  0  0  0  0  0  0  0  0  0  0  0
   51.4476    7.0164   14.6482 H   0  0  0  0  0  0  0  0  0  0  0  0
   52.6582    7.9693   13.8018 H   0  0  0  0  0  0  0  0  0  0  0  0
   52.3129    9.3700   16.9143 H   0  0  0  0  0  0  0  0  0  0  0  0
   52.3872   10.8179   15.8622 H   0  0  0  0  0  0  0  0  0  0  0  0
   53.5815    6.4026   15.4029 H   0  0  0  0  0  0  0  0  0  0  0  0
   52.8822    7.2164   16.7978 H   0  0  0  0  0  0  0  0  0  0  0  0
   49.9862   11.0968   16.0444 H   0  0  0  0  0  0  0  0  0  0  0  0
   49.8630    9.6935   17.1409 H   0  0  0  0  0  0  0  0  0  0  0  0
   54.2543    9.3581   15.8868 H   0  0  0  0  0  0  0  0  0  0  0  0
   54.9895    8.2483   14.7491 H   0  0  0  0  0  0  0  0  0  0  0  0
   51.5149   12.2771   17.4869 H   0  0  0  0  0  0  0  0  0  0  0  0
   50.0539   11.8595   18.3819 H   0  0  0  0  0  0  0  0  0  0  0  0
   56.1799    7.0527   16.3097 H   0  0  0  0  0  0  0  0  0  0  0  0
   55.0095    7.4720   17.6646 H   0  0  0  0  0  0  0  0  0  0  0  0
   56.1027    8.7382   17.0754 H   0  0  0  0  0  0  0  0  0  0  0  0
   51.2306    9.9340   19.4595 H   0  0  0  0  0  0  0  0  0  0  0  0
   51.8172   11.5607   19.7963 H   0  0  0  0  0  0  0  0  0  0  0  0
   52.8073   10.5634   18.7161 H   0  0  0  0  0  0  0  0  0  0  0  0
  3  2  2  0
  4  3  1  0
  5  2  1  0
  6  5  2  0
  7 11  1  0
  8  6  1  0
  9  2  1  0
 10  4  1  0
 11  9  2  0
 12 15  1  0
 13  5  1  0
 14  3  1  0
 15 14  2  0
 16  6  1  0
 17 16  1  0
 18 11  1  0
 19  7  1  0
 20  7  1  0
 21  7  1  0
 22 10  1  0
 23 17  1  0
 24 23  1  0
 25 15  1  0
 26 16  1  0
 27 24  1  0
 28 24  1  0
 29 27  1  0
 30 28  1  0
 31 29  1  0
 32 30  1  0
 33 31  1  0
 34 32  1  0
 18 13  2  0
  8  4  2  0
 10 12  2  0
  1 35  1  0
  8 36  1  0
  9 37  1  0
 12 38  1  0
 13 39  1  0
 14 40  1  0
 16 41  1  1
 17 42  1  0
 17 43  1  0
 18 44  1  0
 23 45  1  0
 23 46  1  0
 26 47  1  0
 27 48  1  0
 27 49  1  0
 28 50  1  0
 28 51  1  0
 29 52  1  0
 29 53  1  0
 30 54  1  0
 30 55  1  0
 31 56  1  0
 31 57  1  0
 32 58  1  0
 32 59  1  0
 33 60  1  0
 33 61  1  0
 33 62  1  0
 34 63  1  0
 34 64  1  0
 34 65  1  0
M  END
> <Uni-Dock RESULT> 
ENERGY=   -5.481  LOWER_BOUND=    2.716  UPPER_BOUND=    4.954
INTER + INTRA:          -5.481
INTER:                  -5.481
INTRA:                   0.000
UNBOUND:                 0.000

$$$$

     RDKit          3D

 65 66  0  0  0  0  0  0  0  0999 V2000
   48.5419    9.4955   16.4807 Cl  0  0  0  0  0  0  0  0  0  0  0  0
   48.0830    6.9244   18.9764 C   0  0  0  0  0  0  0  0  0  0  0  0
   47.8146    7.7330   20.0564 C   0  0  0  0  0  0  0  0  0  0  0  0
   47.7289    9.1022   19.8991 C   0  0  0  0  0  0  0  0  0  0  0  0
   48.2684    7.4999   17.7235 C   0  0  0  0  0  0  0  0  0  0  0  0
   48.1844    8.8856   17.5448 C   0  0  0  0  0  0  0  0  0  0  0  0
   48.5386    3.2443   18.1773 C   0  0  0  0  0  0  0  0  0  0  0  0
   47.9130    9.6593   18.6546 C   0  0  0  0  0  0  0  0  0  0  0  0
   48.1692    5.5489   19.1353 C   0  0  0  0  0  0  0  0  0  0  0  0
   47.4643    9.9370   20.9509 C   0  0  0  0  0  0  0  0  0  0  0  0
   48.4416    4.7318   18.0503 C   0  0  0  0  0  0  0  0  0  0  0  0
   47.2738    9.4276   22.2157 C   0  0  0  0  0  0  0  0  0  0  0  0
   48.5397    6.6615   16.6631 C   0  0  0  0  0  0  0  0  0  0  0  0
   47.6250    7.2315   21.3108 C   0  0  0  0  0  0  0  0  0  0  0  0
   47.3546    8.0569   22.4008 C   0  0  0  0  0  0  0  0  0  0  0  0
   48.3690    9.4795   16.1797 C   0  0  1  0  0  0  0  0  0  0  0  0
   49.7950    9.6708   15.8348 C   0  0  0  0  0  0  0  0  0  0  0  0
   48.6283    5.2726   16.8148 C   0  0  0  0  0  0  0  0  0  0  0  0
   48.2245    2.8340   19.4500 F   0  0  0  0  0  0  0  0  0  0  0  0
   49.8233    2.7954   17.8582 F   0  0  0  0  0  0  0  0  0  0  0  0
   47.6871    2.6686   17.2322 F   0  0  0  0  0  0  0  0  0  0  0  0
   47.3521   11.6928   20.7629 Cl  0  0  0  0  0  0  0  0  0  0  0  0
   50.1114   10.2509   14.5003 C   0  0  0  0  0  0  0  0  0  0  0  0
   49.5987   11.5228   14.2015 N   0  0  0  0  0  0  0  0  0  0  0  0
   47.1203    7.3532   24.0082 Cl  0  0  0  0  0  0  0  0  0  0  0  0
   47.5628    8.8912   15.2355 O   0  0  0  0  0  0  0  0  0  0  0  0
   50.1207   12.5502   14.9890 C   0  0  0  0  0  0  0  0  0  0  0  0
   49.0327   11.7060   12.9640 C   0  0  0  0  0  0  0  0  0  0  0  0
   49.9932   13.9682   14.5580 C   0  0  0  0  0  0  0  0  0  0  0  0
   47.7593   10.8713   12.7481 C   0  0  0  0  0  0  0  0  0  0  0  0
   50.7748   14.3222   13.3357 C   0  0  0  0  0  0  0  0  0  0  0  0
   47.2030   11.1568   11.3937 C   0  0  0  0  0  0  0  0  0  0  0  0
   50.5907   15.7751   12.9153 C   0  0  0  0  0  0  0  0  0  0  0  0
   46.7908   12.5722   11.1592 C   0  0  0  0  0  0  0  0  0  0  0  0
   48.6727   10.4228   15.4784 H   0  0  0  0  0  0  0  0  0  0  0  0
   47.8432   10.7512   18.5360 H   0  0  0  0  0  0  0  0  0  0  0  0
   48.0360    5.0480   20.0749 H   0  0  0  0  0  0  0  0  0  0  0  0
   47.0588   10.0670   23.0871 H   0  0  0  0  0  0  0  0  0  0  0  0
   48.7057    7.0197   15.6715 H   0  0  0  0  0  0  0  0  0  0  0  0
   47.6717    6.1791   21.5419 H   0  0  0  0  0  0  0  0  0  0  0  0
   47.9391   10.5290   16.2865 H   0  0  0  0  0  0  0  0  0  0  0  0
   50.2960   10.3128   16.6259 H   0  0  0  0  0  0  0  0  0  0  0  0
   50.3973    8.7145   15.9068 H   0  0  0  0  0  0  0  0  0  0  0  0
   48.8443    4.6260   15.9569 H   0  0  0  0  0  0  0  0  0  0  0  0
   51.2501   10.2787   14.4475 H   0  0  0  0  0  0  0  0  0  0  0  0
   49.8431    9.5119   13.7025 H   0  0  0  0  0  0  0  0  0  0  0  0
   46.6249    9.0981   15.4274 H   0  0  0  0  0  0  0  0  0  0  0  0
   49.7795   12.4267   16.0661 H   0  0  0  0  0  0  0  0  0  0  0  0
   51.2468   12.3401   15.1020 H   0  0  0  0  0  0  0  0  0  0  0  0
   48.6539   12.7754   12.8984 H   0  0  0  0  0  0  0  0  0  0  0  0
   49.6429   11.5346   12.0669 H   0  0  0  0  0  0  0  0  0  0  0  0
   50.4061   14.5908   15.4150 H   0  0  0  0  0  0  0  0  0  0  0  0
   48.9324   14.3070   14.4960 H   0  0  0  0  0  0  0  0  0  0  0  0
   48.0842    9.8081   12.7490 H   0  0  0  0  0  0  0  0  0  0  0  0
   47.0338   11.0111   13.5466 H   0  0  0  0  0  0  0  0  0  0  0  0
   50.6330   13.6433   12.5043 H   0  0  0  0  0  0  0  0  0  0  0  0
   51.9013   14.2355   13.5564 H   0  0  0  0  0  0  0  0  0  0  0  0
   47.9285   10.8810   10.5960 H   0  0  0  0  0  0  0  0  0  0  0  0
   46.3114   10.5210   11.2001 H   0  0  0  0  0  0  0  0  0  0  0  0
   51.2789   16.4461   13.4677 H   0  0  0  0  0  0  0  0  0  0  0  0
   49.5278   16.0372   13.0838 H   0  0  0  0  0  0  0  0  0  0  0  0
   50.7419   15.8158   11.8101 H   0  0  0  0  0  0  0  0  0  0  0  0
   46.0145   12.9014   11.9059 H   0  0  0  0  0  0  0  0  0  0  0  0
   46.2121   12.5620   10.1886 H   0  0  0  0  0  0  0  0  0  0  0  0
   47.5947   13.2947   11.0212 H   0  0  0  0  0  0  0  0  0  0  0  0
  3  2  2  0
  4  3  1  0
  5  2  1  0
  6  5  2  0
  7 11  1  0
  8  6  1  0
  9  2  1  0
 10  4  1  0
 11  9  2  0
 12 15  1  0
 13  5  1  0
 14  3  1  0
 15 14  2  0
 16  6  1  0
 17 16  1  0
 18 11  1  0
 19  7  1  0
 20  7  1  0
 21  7  1  0
 22 10  1  0
 23 17  1  0
 24 23  1  0
 25 15  1  0
 26 16  1  0
 27 24  1  0
 28 24  1  0
 29 27  1  0
 30 28  1  0
 31 29  1  0
 32 30  1  0
 33 31  1  0
 34 32  1  0
 18 13  2  0
  8  4  2  0
 10 12  2  0
  1 35  1  0
  8 36  1  0
  9 37  1  0
 12 38  1  0
 13 39  1  0
 14 40  1  0
 16 41  1  1
 17 42  1  0
 17 43  1  0
 18 44  1  0
 23 45  1  0
 23 46  1  0
 26 47  1  0
 27 48  1  0
 27 49  1  0
 28 50  1  0
 28 51  1  0
 29 52  1  0
 29 53  1  0
 30 54  1  0
 30 55  1  0
 31 56  1  0
 31 57  1  0
 32 58  1  0
 32 59  1  0
 33 60  1  0
 33 61  1  0
 33 62  1  0
 34 63  1  0
 34 64  1  0
 34 65  1  0
M  END
> <Uni-Dock RESULT> 
ENERGY=   -5.054  LOWER_BOUND=    4.498  UPPER_BOUND=    7.420
INTER + INTRA:          -5.054
INTER:                  -5.054
INTRA:                   0.000
UNBOUND:                 0.000

$$$$

     RDKit          3D

 65 66  0  0  0  0  0  0  0  0999 V2000
   48.0941   11.4514   11.9250 Cl  0  0  0  0  0  0  0  0  0  0  0  0
   45.1623    9.3412   11.9544 C   0  0  0  0  0  0  0  0  0  0  0  0
   45.7509    8.1792   12.3968 C   0  0  0  0  0  0  0  0  0  0  0  0
   47.0897    8.1594   12.7344 C   0  0  0  0  0  0  0  0  0  0  0  0
   45.9298   10.4967   11.8494 C   0  0  0  0  0  0  0  0  0  0  0  0
   47.2879   10.4959   12.1879 C   0  0  0  0  0  0  0  0  0  0  0  0
   41.7741   10.5928   10.7957 C   0  0  0  0  0  0  0  0  0  0  0  0
   47.8379    9.3092   12.6273 C   0  0  0  0  0  0  0  0  0  0  0  0
   43.8172    9.3602   11.6152 C   0  0  0  0  0  0  0  0  0  0  0  0
   47.7084    7.0218   13.1772 C   0  0  0  0  0  0  0  0  0  0  0  0
   43.2218   10.5280   11.1672 C   0  0  0  0  0  0  0  0  0  0  0  0
   47.0027    5.8460   13.2999 C   0  0  0  0  0  0  0  0  0  0  0  0
   45.3100   11.6431   11.3991 C   0  0  0  0  0  0  0  0  0  0  0  0
   45.0545    7.0126   12.5199 C   0  0  0  0  0  0  0  0  0  0  0  0
   45.6577    5.8387   12.9676 C   0  0  0  0  0  0  0  0  0  0  0  0
   48.0887   11.7602   12.0843 C   0  0  1  0  0  0  0  0  0  0  0  0
   48.5833   12.0049   10.7116 C   0  0  0  0  0  0  0  0  0  0  0  0
   43.9533   11.6709   11.0548 C   0  0  0  0  0  0  0  0  0  0  0  0
   41.1412    9.4024   11.0586 F   0  0  0  0  0  0  0  0  0  0  0  0
   41.6162   10.9032    9.4420 F   0  0  0  0  0  0  0  0  0  0  0  0
   41.1888   11.6468   11.5000 F   0  0  0  0  0  0  0  0  0  0  0  0
   49.4229    6.9829   13.6126 Cl  0  0  0  0  0  0  0  0  0  0  0  0
   49.3904   13.2341   10.4767 C   0  0  0  0  0  0  0  0  0  0  0  0
   50.5760   13.3887   11.2117 N   0  0  0  0  0  0  0  0  0  0  0  0
   44.7075    4.3514   13.1054 Cl  0  0  0  0  0  0  0  0  0  0  0  0
   47.4993   12.8128   12.7418 O   0  0  0  0  0  0  0  0  0  0  0  0
   51.5626   12.4479   10.9118 C   0  0  0  0  0  0  0  0  0  0  0  0
   50.8222   14.6183   11.7711 C   0  0  0  0  0  0  0  0  0  0  0  0
   52.9791   12.6948   11.2927 C   0  0  0  0  0  0  0  0  0  0  0  0
   49.8068   15.0056   12.8592 C   0  0  0  0  0  0  0  0  0  0  0  0
   53.6357   13.8193   10.5614 C   0  0  0  0  0  0  0  0  0  0  0  0
   50.1704   16.3370   13.4254 C   0  0  0  0  0  0  0  0  0  0  0  0
   55.0744   14.0539   11.0048 C   0  0  0  0  0  0  0  0  0  0  0  0
   51.5052   16.4040   14.0902 C   0  0  0  0  0  0  0  0  0  0  0  0
   49.1594   12.3154   11.9459 H   0  0  0  0  0  0  0  0  0  0  0  0
   48.9044    9.2868   12.8981 H   0  0  0  0  0  0  0  0  0  0  0  0
   43.1753    8.5024   11.6753 H   0  0  0  0  0  0  0  0  0  0  0  0
   47.4652    4.9101   13.6528 H   0  0  0  0  0  0  0  0  0  0  0  0
   45.8262   12.5695   11.2788 H   0  0  0  0  0  0  0  0  0  0  0  0
   44.0067    6.9197   12.2820 H   0  0  0  0  0  0  0  0  0  0  0  0
   49.0168   11.5382   12.7063 H   0  0  0  0  0  0  0  0  0  0  0  0
   49.1903   11.1123   10.3599 H   0  0  0  0  0  0  0  0  0  0  0  0
   47.7525   12.0291    9.9422 H   0  0  0  0  0  0  0  0  0  0  0  0
   43.4822   12.5943   10.7000 H   0  0  0  0  0  0  0  0  0  0  0  0
   49.6329   13.2256    9.3625 H   0  0  0  0  0  0  0  0  0  0  0  0
   48.7324   14.1346   10.5814 H   0  0  0  0  0  0  0  0  0  0  0  0
   47.5027   12.6427   13.7063 H   0  0  0  0  0  0  0  0  0  0  0  0
   51.2309   11.4148   11.2504 H   0  0  0  0  0  0  0  0  0  0  0  0
   51.5482   12.3070    9.7695 H   0  0  0  0  0  0  0  0  0  0  0  0
   51.8029   14.5618   12.3423 H   0  0  0  0  0  0  0  0  0  0  0  0
   50.8910   15.4983   11.1174 H   0  0  0  0  0  0  0  0  0  0  0  0
   53.5420   11.7438   11.0257 H   0  0  0  0  0  0  0  0  0  0  0  0
   53.1235   12.7650   12.3965 H   0  0  0  0  0  0  0  0  0  0  0  0
   48.8312   15.1280   12.3403 H   0  0  0  0  0  0  0  0  0  0  0  0
   49.6998   14.2331   13.6176 H   0  0  0  0  0  0  0  0  0  0  0  0
   53.0640   14.7387   10.5525 H   0  0  0  0  0  0  0  0  0  0  0  0
   53.7267   13.5556    9.4446 H   0  0  0  0  0  0  0  0  0  0  0  0
   50.1450   17.1265   12.6413 H   0  0  0  0  0  0  0  0  0  0  0  0
   49.4153   16.6569   14.1765 H   0  0  0  0  0  0  0  0  0  0  0  0
   55.7769   13.3844   10.4689 H   0  0  0  0  0  0  0  0  0  0  0  0
   55.1119   13.9060   12.1019 H   0  0  0  0  0  0  0  0  0  0  0  0
   55.2946   15.1352   10.8365 H   0  0  0  0  0  0  0  0  0  0  0  0
   51.5804   15.6604   14.9330 H   0  0  0  0  0  0  0  0  0  0  0  0
   51.5238   17.3953   14.6324 H   0  0  0  0  0  0  0  0  0  0  0  0
   52.3745   16.4053   13.4332 H   0  0  0  0  0  0  0  0  0  0  0  0
  3  2  2  0
  4  3  1  0
  5  2  1  0
  6  5  2  0
  7 11  1  0
  8  6  1  0
  9  2  1  0
 10  4  1  0
 11  9  2  0
 12 15  1  0
 13  5  1  0
 14  3  1  0
 15 14  2  0
 16  6  1  0
 17 16  1  0
 18 11  1  0
 19  7  1  0
 20  7  1  0
 21  7  1  0
 22 10  1  0
 23 17  1  0
 24 23  1  0
 25 15  1  0
 26 16  1  0
 27 24  1  0
 28 24  1  0
 29 27  1  0
 30 28  1  0
 31 29  1  0
 32 30  1  0
 33 31  1  0
 34 32  1  0
 18 13  2  0
  8  4  2  0
 10 12  2  0
  1 35  1  0
  8 36  1  0
  9 37  1  0
 12 38  1  0
 13 39  1  0
 14 40  1  0
 16 41  1  1
 17 42  1  0
 17 43  1  0
 18 44  1  0
 23 45  1  0
 23 46  1  0
 26 47  1  0
 27 48  1  0
 27 49  1  0
 28 50  1  0
 28 51  1  0
 29 52  1  0
 29 53  1  0
 30 54  1  0
 30 55  1  0
 31 56  1  0
 31 57  1  0
 32 58  1  0
 32 59  1  0
 33 60  1  0
 33 61  1  0
 33 62  1  0
 34 63  1  0
 34 64  1  0
 34 65  1  0
M  END
> <Uni-Dock RESULT> 
ENERGY=   -4.979  LOWER_BOUND=    4.388  UPPER_BOUND=    6.384
INTER + INTRA:          -4.979
INTER:                  -4.979
INTRA:                   0.000
UNBOUND:                 0.000

$$$$

     RDKit          3D

 65 66  0  0  0  0  0  0  0  0999 V2000
   48.0276   11.3512   11.8503 Cl  0  0  0  0  0  0  0  0  0  0  0  0
   45.0425    9.3177   11.9114 C   0  0  0  0  0  0  0  0  0  0  0  0
   45.6069    8.1385   12.3394 C   0  0  0  0  0  0  0  0  0  0  0  0
   46.9495    8.0822   12.6576 C   0  0  0  0  0  0  0  0  0  0  0  0
   45.8383   10.4535   11.8011 C   0  0  0  0  0  0  0  0  0  0  0  0
   47.2006   10.4156   12.1199 C   0  0  0  0  0  0  0  0  0  0  0  0
   41.6719   10.6630   10.8078 C   0  0  0  0  0  0  0  0  0  0  0  0
   47.7257    9.2127   12.5455 C   0  0  0  0  0  0  0  0  0  0  0  0
   43.6937    9.3734   11.5917 C   0  0  0  0  0  0  0  0  0  0  0  0
   47.5446    6.9265   13.0857 C   0  0  0  0  0  0  0  0  0  0  0  0
   43.1226   10.5587   11.1582 C   0  0  0  0  0  0  0  0  0  0  0  0
   46.8104    5.7687   13.2128 C   0  0  0  0  0  0  0  0  0  0  0  0
   45.2422   11.6180   11.3655 C   0  0  0  0  0  0  0  0  0  0  0  0
   44.8822    6.9897   12.4667 C   0  0  0  0  0  0  0  0  0  0  0  0
   45.4610    5.7981   12.8999 C   0  0  0  0  0  0  0  0  0  0  0  0
   48.0324   11.6592   12.0112 C   0  0  1  0  0  0  0  0  0  0  0  0
   48.5136   11.8984   10.6327 C   0  0  0  0  0  0  0  0  0  0  0  0
   43.8819   11.6828   11.0410 C   0  0  0  0  0  0  0  0  0  0  0  0
   41.0120    9.4881   11.0739 F   0  0  0  0  0  0  0  0  0  0  0  0
   41.5027   10.9846    9.4581 F   0  0  0  0  0  0  0  0  0  0  0  0
   41.1243   11.7281   11.5258 F   0  0  0  0  0  0  0  0  0  0  0  0
   49.2635    6.8408   13.4963 Cl  0  0  0  0  0  0  0  0  0  0  0  0
   49.3489   13.1075   10.3924 C   0  0  0  0  0  0  0  0  0  0  0  0
   50.5486   13.2273   11.1110 N   0  0  0  0  0  0  0  0  0  0  0  0
   44.4745    4.3353   13.0439 Cl  0  0  0  0  0  0  0  0  0  0  0  0
   47.4801   12.7232   12.6824 O   0  0  0  0  0  0  0  0  0  0  0  0
   51.5059   12.2629   10.7922 C   0  0  0  0  0  0  0  0  0  0  0  0
   50.8346   14.4470   11.6729 C   0  0  0  0  0  0  0  0  0  0  0  0
   52.9337   12.4708   11.1539 C   0  0  0  0  0  0  0  0  0  0  0  0
   49.8453   14.8547   12.7774 C   0  0  0  0  0  0  0  0  0  0  0  0
   53.6088   13.5818   10.4189 C   0  0  0  0  0  0  0  0  0  0  0  0
   50.2515   16.1732   13.3450 C   0  0  0  0  0  0  0  0  0  0  0  0
   55.0594   13.7766   10.8427 C   0  0  0  0  0  0  0  0  0  0  0  0
   51.5970   16.2019   13.9909 C   0  0  0  0  0  0  0  0  0  0  0  0
   49.1152   12.1872   11.8601 H   0  0  0  0  0  0  0  0  0  0  0  0
   48.7950    9.1611   12.8008 H   0  0  0  0  0  0  0  0  0  0  0  0
   43.0306    8.5323   11.6567 H   0  0  0  0  0  0  0  0  0  0  0  0
   47.2533    4.8193   13.5543 H   0  0  0  0  0  0  0  0  0  0  0  0
   45.7806   12.5312   11.2424 H   0  0  0  0  0  0  0  0  0  0  0  0
   43.8291    6.9253   12.2435 H   0  0  0  0  0  0  0  0  0  0  0  0
   48.9632   11.4099   12.6186 H   0  0  0  0  0  0  0  0  0  0  0  0
   49.0921   10.9922   10.2679 H   0  0  0  0  0  0  0  0  0  0  0  0
   47.6729   11.9482    9.8755 H   0  0  0  0  0  0  0  0  0  0  0  0
   43.4299   12.6200   10.6976 H   0  0  0  0  0  0  0  0  0  0  0  0
   49.5753   13.0986    9.2748 H   0  0  0  0  0  0  0  0  0  0  0  0
   48.7162   14.0241   10.5110 H   0  0  0  0  0  0  0  0  0  0  0  0
   47.4929   12.5479   13.6459 H   0  0  0  0  0  0  0  0  0  0  0  0
   51.1524   11.2369   11.1304 H   0  0  0  0  0  0  0  0  0  0  0  0
   51.4716   12.1285    9.6495 H   0  0  0  0  0  0  0  0  0  0  0  0
   51.8217   14.3621   12.2297 H   0  0  0  0  0  0  0  0  0  0  0  0
   50.9170   15.3285   11.0227 H   0  0  0  0  0  0  0  0  0  0  0  0
   53.4678   11.5070   10.8741 H   0  0  0  0  0  0  0  0  0  0  0  0
   53.0957   12.5313   12.2558 H   0  0  0  0  0  0  0  0  0  0  0  0
   48.8659   15.0052   12.2733 H   0  0  0  0  0  0  0  0  0  0  0  0
   49.7290   14.0812   13.5335 H   0  0  0  0  0  0  0  0  0  0  0  0
   53.0612   14.5158   10.4228 H   0  0  0  0  0  0  0  0  0  0  0  0
   53.6770   13.3218    9.2996 H   0  0  0  0  0  0  0  0  0  0  0  0
   50.2354   16.9673   12.5654 H   0  0  0  0  0  0  0  0  0  0  0  0
   49.5158   16.5086   14.1085 H   0  0  0  0  0  0  0  0  0  0  0  0
   55.7365   13.0920   10.2934 H   0  0  0  0  0  0  0  0  0  0  0  0
   55.1087   13.6219   11.9384 H   0  0  0  0  0  0  0  0  0  0  0  0
   55.3052   14.8527   10.6766 H   0  0  0  0  0  0  0  0  0  0  0  0
   51.6648   15.4521   14.8287 H   0  0  0  0  0  0  0  0  0  0  0  0
   51.6491   17.1895   14.5376 H   0  0  0  0  0  0  0  0  0  0  0  0
   52.4565   16.1843   13.3214 H   0  0  0  0  0  0  0  0  0  0  0  0
  3  2  2  0
  4  3  1  0
  5  2  1  0
  6  5  2  0
  7 11  1  0
  8  6  1  0
  9  2  1  0
 10  4  1  0
 11  9  2  0
 12 15  1  0
 13  5  1  0
 14  3  1  0
 15 14  2  0
 16  6  1  0
 17 16  1  0
 18 11  1  0
 19  7  1  0
 20  7  1  0
 21  7  1  0
 22 10  1  0
 23 17  1  0
 24 23  1  0
 25 15  1  0
 26 16  1  0
 27 24  1  0
 28 24  1  0
 29 27  1  0
 30 28  1  0
 31 29  1  0
 32 30  1  0
 33 31  1  0
 34 32  1  0
 18 13  2  0
  8  4  2  0
 10 12  2  0
  1 35  1  0
  8 36  1  0
  9 37  1  0
 12 38  1  0
 13 39  1  0
 14 40  1  0
 16 41  1  1
 17 42  1  0
 17 43  1  0
 18 44  1  0
 23 45  1  0
 23 46  1  0
 26 47  1  0
 27 48  1  0
 27 49  1  0
 28 50  1  0
 28 51  1  0
 29 52  1  0
 29 53  1  0
 30 54  1  0
 30 55  1  0
 31 56  1  0
 31 57  1  0
 32 58  1  0
 32 59  1  0
 33 60  1  0
 33 61  1  0
 33 62  1  0
 34 63  1  0
 34 64  1  0
 34 65  1  0
M  END
> <Uni-Dock RESULT> 
ENERGY=   -4.962  LOWER_BOUND=    4.377  UPPER_BOUND=    6.376
INTER + INTRA:          -4.962
INTER:                  -4.962
INTRA:                   0.000
UNBOUND:                 0.000

$$$$

     RDKit          3D

 65 66  0  0  0  0  0  0  0  0999 V2000
   44.1194   10.1879   10.9451 Cl  0  0  0  0  0  0  0  0  0  0  0  0
   45.7939    7.3577   12.4403 C   0  0  0  0  0  0  0  0  0  0  0  0
   46.8853    8.0157   12.9581 C   0  0  0  0  0  0  0  0  0  0  0  0
   46.9892    9.3884   12.8493 C   0  0  0  0  0  0  0  0  0  0  0  0
   44.7957    8.0890   11.8046 C   0  0  0  0  0  0  0  0  0  0  0  0
   44.8834    9.4808   11.6856 C   0  0  0  0  0  0  0  0  0  0  0  0
   44.4409    3.8277   12.1280 C   0  0  0  0  0  0  0  0  0  0  0  0
   45.9947   10.1005   12.2193 C   0  0  0  0  0  0  0  0  0  0  0  0
   45.6904    5.9786   12.5498 C   0  0  0  0  0  0  0  0  0  0  0  0
   48.0608   10.0758   13.3517 C   0  0  0  0  0  0  0  0  0  0  0  0
   44.5937    5.3125   12.0275 C   0  0  0  0  0  0  0  0  0  0  0  0
   49.0820    9.4079   13.9893 C   0  0  0  0  0  0  0  0  0  0  0  0
   43.7173    7.3983   11.2934 C   0  0  0  0  0  0  0  0  0  0  0  0
   47.8987    7.3570   13.5907 C   0  0  0  0  0  0  0  0  0  0  0  0
   49.0022    8.0301   14.1119 C   0  0  0  0  0  0  0  0  0  0  0  0
   43.7839   10.2481   11.0128 C   0  0  1  0  0  0  0  0  0  0  0  0
   43.9240   10.2620    9.5400 C   0  0  0  0  0  0  0  0  0  0  0  0
   43.6051    6.0070   11.3997 C   0  0  0  0  0  0  0  0  0  0  0  0
   45.4528    3.2747   12.8745 F   0  0  0  0  0  0  0  0  0  0  0  0
   44.4341    3.2363   10.8615 F   0  0  0  0  0  0  0  0  0  0  0  0
   43.1899    3.5537   12.6844 F   0  0  0  0  0  0  0  0  0  0  0  0
   48.2062   11.8342   13.2187 Cl  0  0  0  0  0  0  0  0  0  0  0  0
   42.8894   10.9898    8.7543 C   0  0  0  0  0  0  0  0  0  0  0  0
   42.7148   12.3584    9.0118 N   0  0  0  0  0  0  0  0  0  0  0  0
   50.2909    7.1252   14.9206 Cl  0  0  0  0  0  0  0  0  0  0  0  0
   42.5446    9.9545   11.5280 O   0  0  0  0  0  0  0  0  0  0  0  0
   43.8121   13.1502    8.6692 C   0  0  0  0  0  0  0  0  0  0  0  0
   41.4287   12.8249    9.1283 C   0  0  0  0  0  0  0  0  0  0  0  0
   43.6580   14.6207    8.5068 C   0  0  0  0  0  0  0  0  0  0  0  0
   40.6807   12.2495   10.3425 C   0  0  0  0  0  0  0  0  0  0  0  0
   42.8206   15.0361    7.3420 C   0  0  0  0  0  0  0  0  0  0  0  0
   39.3090   12.8327   10.4019 C   0  0  0  0  0  0  0  0  0  0  0  0
   42.6667   16.5481    7.2328 C   0  0  0  0  0  0  0  0  0  0  0  0
   39.2532   14.3148   10.5709 C   0  0  0  0  0  0  0  0  0  0  0  0
   43.4098   11.2306   10.4056 H   0  0  0  0  0  0  0  0  0  0  0  0
   46.0835   11.1944   12.1361 H   0  0  0  0  0  0  0  0  0  0  0  0
   46.4267    5.3618   13.0281 H   0  0  0  0  0  0  0  0  0  0  0  0
   49.9604    9.9258   14.4069 H   0  0  0  0  0  0  0  0  0  0  0  0
   42.9134    7.8792   10.7821 H   0  0  0  0  0  0  0  0  0  0  0  0
   47.9160    6.2874   13.7278 H   0  0  0  0  0  0  0  0  0  0  0  0
   43.9677   11.3220   11.3453 H   0  0  0  0  0  0  0  0  0  0  0  0
   44.9406   10.6811    9.2574 H   0  0  0  0  0  0  0  0  0  0  0  0
   43.9771    9.2227    9.0930 H   0  0  0  0  0  0  0  0  0  0  0  0
   42.7381    5.4797   10.9863 H   0  0  0  0  0  0  0  0  0  0  0  0
   43.1839   10.8436    7.6623 H   0  0  0  0  0  0  0  0  0  0  0  0
   41.9160   10.4401    8.8254 H   0  0  0  0  0  0  0  0  0  0  0  0
   42.4870   10.2750   12.4516 H   0  0  0  0  0  0  0  0  0  0  0  0
   44.6912   12.9122    9.3492 H   0  0  0  0  0  0  0  0  0  0  0  0
   44.2096   12.7477    7.6667 H   0  0  0  0  0  0  0  0  0  0  0  0
   41.4707   13.9377    9.3552 H   0  0  0  0  0  0  0  0  0  0  0  0
   40.7380   12.7039    8.2828 H   0  0  0  0  0  0  0  0  0  0  0  0
   44.7060   15.0244    8.3303 H   0  0  0  0  0  0  0  0  0  0  0  0
   43.3535   15.1300    9.4512 H   0  0  0  0  0  0  0  0  0  0  0  0
   40.5636   11.1617   10.1448 H   0  0  0  0  0  0  0  0  0  0  0  0
   41.2388   12.3738   11.2680 H   0  0  0  0  0  0  0  0  0  0  0  0
   41.8655   14.5302    7.2773 H   0  0  0  0  0  0  0  0  0  0  0  0
   43.3436   14.7367    6.3613 H   0  0  0  0  0  0  0  0  0  0  0  0
   38.7243   12.5758    9.4904 H   0  0  0  0  0  0  0  0  0  0  0  0
   38.7353   12.3866   11.2436 H   0  0  0  0  0  0  0  0  0  0  0  0
   43.5219   17.0037    6.6943 H   0  0  0  0  0  0  0  0  0  0  0  0
   42.5612   16.9461    8.2611 H   0  0  0  0  0  0  0  0  0  0  0  0
   41.6882   16.7402    6.7310 H   0  0  0  0  0  0  0  0  0  0  0  0
   39.7861   14.6402   11.5084 H   0  0  0  0  0  0  0  0  0  0  0  0
   38.1734   14.5523   10.8048 H   0  0  0  0  0  0  0  0  0  0  0  0
   39.5089   14.9124    9.6964 H   0  0  0  0  0  0  0  0  0  0  0  0
  3  2  2  0
  4  3  1  0
  5  2  1  0
  6  5  2  0
  7 11  1  0
  8  6  1  0
  9  2  1  0
 10  4  1  0
 11  9  2  0
 12 15  1  0
 13  5  1  0
 14  3  1  0
 15 14  2  0
 16  6  1  0
 17 16  1  0
 18 11  1  0
 19  7  1  0
 20  7  1  0
 21  7  1  0
 22 10  1  0
 23 17  1  0
 24 23  1  0
 25 15  1  0
 26 16  1  0
 27 24  1  0
 28 24  1  0
 29 27  1  0
 30 28  1  0
 31 29  1  0
 32 30  1  0
 33 31  1  0
 34 32  1  0
 18 13  2  0
  8  4  2  0
 10 12  2  0
  1 35  1  0
  8 36  1  0
  9 37  1  0
 12 38  1  0
 13 39  1  0
 14 40  1  0
 16 41  1  1
 17 42  1  0
 17 43  1  0
 18 44  1  0
 23 45  1  0
 23 46  1  0
 26 47  1  0
 27 48  1  0
 27 49  1  0
 28 50  1  0
 28 51  1  0
 29 52  1  0
 29 53  1  0
 30 54  1  0
 30 55  1  0
 31 56  1  0
 31 57  1  0
 32 58  1  0
 32 59  1  0
 33 60  1  0
 33 61  1  0
 33 62  1  0
 34 63  1  0
 34 64  1  0
 34 65  1  0
M  END
> <Uni-Dock RESULT> 
ENERGY=   -4.868  LOWER_BOUND=    3.571  UPPER_BOUND=    8.489
INTER + INTRA:          -4.868
INTER:                  -4.868
INTRA:                   0.000
UNBOUND:                 0.000

$$$$

     RDKit          3D

 65 66  0  0  0  0  0  0  0  0999 V2000
   44.3583   10.1934   11.1943 Cl  0  0  0  0  0  0  0  0  0  0  0  0
   46.9763    8.3625   12.8805 C   0  0  0  0  0  0  0  0  0  0  0  0
   46.3709    7.1278   12.9183 C   0  0  0  0  0  0  0  0  0  0  0  0
   45.1415    6.9345   12.3199 C   0  0  0  0  0  0  0  0  0  0  0  0
   46.3370    9.4154   12.2340 C   0  0  0  0  0  0  0  0  0  0  0  0
   45.0911    9.2381   11.6213 C   0  0  0  0  0  0  0  0  0  0  0  0
   50.1556   10.0486   14.0797 C   0  0  0  0  0  0  0  0  0  0  0  0
   44.5199    7.9835   11.6826 C   0  0  0  0  0  0  0  0  0  0  0  0
   48.2114    8.5559   13.4820 C   0  0  0  0  0  0  0  0  0  0  0  0
   44.5097    5.7206   12.3386 C   0  0  0  0  0  0  0  0  0  0  0  0
   48.8228    9.7985   13.4478 C   0  0  0  0  0  0  0  0  0  0  0  0
   45.0906    4.6408   12.9648 C   0  0  0  0  0  0  0  0  0  0  0  0
   46.9692   10.6407   12.2179 C   0  0  0  0  0  0  0  0  0  0  0  0
   46.9439    6.0558   13.5376 C   0  0  0  0  0  0  0  0  0  0  0  0
   46.3242    4.8079   13.5731 C   0  0  0  0  0  0  0  0  0  0  0  0
   44.4319   10.3849   10.9137 C   0  0  1  0  0  0  0  0  0  0  0  0
   43.6854   11.2656   11.8389 C   0  0  0  0  0  0  0  0  0  0  0  0
   48.2154   10.8443   12.8223 C   0  0  0  0  0  0  0  0  0  0  0  0
   50.6943    8.8869   14.5768 F   0  0  0  0  0  0  0  0  0  0  0  0
   50.0538   10.9827   15.1146 F   0  0  0  0  0  0  0  0  0  0  0  0
   50.9910   10.6283   13.1228 F   0  0  0  0  0  0  0  0  0  0  0  0
   42.9345    5.4597   11.5761 Cl  0  0  0  0  0  0  0  0  0  0  0  0
   42.9880   12.4460   11.2576 C   0  0  0  0  0  0  0  0  0  0  0  0
   42.0116   12.2116   10.2771 N   0  0  0  0  0  0  0  0  0  0  0  0
   47.1111    3.4512   14.3938 Cl  0  0  0  0  0  0  0  0  0  0  0  0
   45.2611   10.9862    9.9981 O   0  0  0  0  0  0  0  0  0  0  0  0
   40.8857   11.5296   10.7414 C   0  0  0  0  0  0  0  0  0  0  0  0
   42.0285   13.0084    9.1590 C   0  0  0  0  0  0  0  0  0  0  0  0
   39.6197   11.5470    9.9607 C   0  0  0  0  0  0  0  0  0  0  0  0
   43.2896   12.8225    8.2988 C   0  0  0  0  0  0  0  0  0  0  0  0
   38.9506   12.8801    9.8853 C   0  0  0  0  0  0  0  0  0  0  0  0
   43.2053   13.7039    7.0982 C   0  0  0  0  0  0  0  0  0  0  0  0
   37.6750   12.8561    9.0523 C   0  0  0  0  0  0  0  0  0  0  0  0
   42.0594   13.4262    6.1827 C   0  0  0  0  0  0  0  0  0  0  0  0
   43.4245   10.9281   10.5085 H   0  0  0  0  0  0  0  0  0  0  0  0
   43.5402    7.8228   11.2076 H   0  0  0  0  0  0  0  0  0  0  0  0
   48.7521    7.7837   13.9944 H   0  0  0  0  0  0  0  0  0  0  0  0
   44.6136    3.6481   13.0010 H   0  0  0  0  0  0  0  0  0  0  0  0
   46.5451   11.5032   11.7540 H   0  0  0  0  0  0  0  0  0  0  0  0
   47.8996    6.0997   14.0353 H   0  0  0  0  0  0  0  0  0  0  0  0
   43.6395    9.8794   10.2701 H   0  0  0  0  0  0  0  0  0  0  0  0
   42.9221   10.6540   12.4155 H   0  0  0  0  0  0  0  0  0  0  0  0
   44.3298   11.6698   12.6780 H   0  0  0  0  0  0  0  0  0  0  0  0
   48.6991   11.8272   12.7959 H   0  0  0  0  0  0  0  0  0  0  0  0
   42.5133   12.9814   12.1455 H   0  0  0  0  0  0  0  0  0  0  0  0
   43.7487   13.1855   10.8985 H   0  0  0  0  0  0  0  0  0  0  0  0
   45.4452   10.3661    9.2627 H   0  0  0  0  0  0  0  0  0  0  0  0
   41.1655   10.4657   11.0271 H   0  0  0  0  0  0  0  0  0  0  0  0
   40.6397   11.9655   11.7780 H   0  0  0  0  0  0  0  0  0  0  0  0
   41.1925   12.6718    8.4668 H   0  0  0  0  0  0  0  0  0  0  0  0
   41.9194   14.0952    9.2759 H   0  0  0  0  0  0  0  0  0  0  0  0
   38.9109   10.8436   10.5040 H   0  0  0  0  0  0  0  0  0  0  0  0
   39.7233   11.0673    8.9591 H   0  0  0  0  0  0  0  0  0  0  0  0
   44.1391   13.1910    8.9141 H   0  0  0  0  0  0  0  0  0  0  0  0
   43.4701   11.7787    8.0512 H   0  0  0  0  0  0  0  0  0  0  0  0
   39.6054   13.6911    9.5925 H   0  0  0  0  0  0  0  0  0  0  0  0
   38.5942   13.1955   10.9334 H   0  0  0  0  0  0  0  0  0  0  0  0
   43.1498   14.7762    7.3911 H   0  0  0  0  0  0  0  0  0  0  0  0
   44.1342   13.6218    6.4923 H   0  0  0  0  0  0  0  0  0  0  0  0
   36.8044   12.5285    9.6553 H   0  0  0  0  0  0  0  0  0  0  0  0
   37.8569   12.1903    8.1859 H   0  0  0  0  0  0  0  0  0  0  0  0
   37.5451   13.8797    8.6264 H   0  0  0  0  0  0  0  0  0  0  0  0
   42.0842   12.3649    5.8062 H   0  0  0  0  0  0  0  0  0  0  0  0
   42.2671   14.0256    5.2475 H   0  0  0  0  0  0  0  0  0  0  0  0
   41.0753   13.7416    6.5284 H   0  0  0  0  0  0  0  0  0  0  0  0
  3  2  2  0
  4  3  1  0
  5  2  1  0
  6  5  2  0
  7 11  1  0
  8  6  1  0
  9  2  1  0
 10  4  1  0
 11  9  2  0
 12 15  1  0
 13  5  1  0
 14  3  1  0
 15 14  2  0
 16  6  1  0
 17 16  1  0
 18 11  1  0
 19  7  1  0
 20  7  1  0
 21  7  1  0
 22 10  1  0
 23 17  1  0
 24 23  1  0
 25 15  1  0
 26 16  1  0
 27 24  1  0
 28 24  1  0
 29 27  1  0
 30 28  1  0
 31 29  1  0
 32 30  1  0
 33 31  1  0
 34 32  1  0
 18 13  2  0
  8  4  2  0
 10 12  2  0
  1 35  1  0
  8 36  1  0
  9 37  1  0
 12 38  1  0
 13 39  1  0
 14 40  1  0
 16 41  1  1
 17 42  1  0
 17 43  1  0
 18 44  1  0
 23 45  1  0
 23 46  1  0
 26 47  1  0
 27 48  1  0
 27 49  1  0
 28 50  1  0
 28 51  1  0
 29 52  1  0
 29 53  1  0
 30 54  1  0
 30 55  1  0
 31 56  1  0
 31 57  1  0
 32 58  1  0
 32 59  1  0
 33 60  1  0
 33 61  1  0
 33 62  1  0
 34 63  1  0
 34 64  1  0
 34 65  1  0
M  END
> <Uni-Dock RESULT> 
ENERGY=   -4.853  LOWER_BOUND=    4.613  UPPER_BOUND=    9.344
INTER + INTRA:          -4.853
INTER:                  -4.853
INTRA:                   0.000
UNBOUND:                 0.000

$$$$

     RDKit          3D

 65 66  0  0  0  0  0  0  0  0999 V2000
   47.8033    8.9162   13.0909 Cl  0  0  0  0  0  0  0  0  0  0  0  0
   46.7155    5.5323   13.7353 C   0  0  0  0  0  0  0  0  0  0  0  0
   47.4578    5.2909   14.8680 C   0  0  0  0  0  0  0  0  0  0  0  0
   48.2415    6.2877   15.4147 C   0  0  0  0  0  0  0  0  0  0  0  0
   46.7630    6.7910   13.1449 C   0  0  0  0  0  0  0  0  0  0  0  0
   47.5510    7.8138   13.6852 C   0  0  0  0  0  0  0  0  0  0  0  0
   44.3167    3.7182   11.4236 C   0  0  0  0  0  0  0  0  0  0  0  0
   48.2791    7.5289   14.8221 C   0  0  0  0  0  0  0  0  0  0  0  0
   45.9285    4.5302   13.1866 C   0  0  0  0  0  0  0  0  0  0  0  0
   48.9933    6.0830   16.5399 C   0  0  0  0  0  0  0  0  0  0  0  0
   45.1816    4.7691   12.0447 C   0  0  0  0  0  0  0  0  0  0  0  0
   48.9901    4.8581   17.1683 C   0  0  0  0  0  0  0  0  0  0  0  0
   46.0102    6.9984   12.0084 C   0  0  0  0  0  0  0  0  0  0  0  0
   47.4566    4.0784   15.4933 C   0  0  0  0  0  0  0  0  0  0  0  0
   48.2121    3.8405   16.6401 C   0  0  0  0  0  0  0  0  0  0  0  0
   47.5694    9.1682   13.0405 C   0  0  1  0  0  0  0  0  0  0  0  0
   48.5159    9.2409   11.9056 C   0  0  0  0  0  0  0  0  0  0  0  0
   45.2134    5.9928   11.4484 C   0  0  0  0  0  0  0  0  0  0  0  0
   44.2993    2.5761   12.1865 F   0  0  0  0  0  0  0  0  0  0  0  0
   44.7592    3.3994   10.1366 F   0  0  0  0  0  0  0  0  0  0  0  0
   43.0332    4.2450   11.2666 F   0  0  0  0  0  0  0  0  0  0  0  0
   50.0018    7.3515   17.2502 Cl  0  0  0  0  0  0  0  0  0  0  0  0
   48.6237   10.5355   11.1776 C   0  0  0  0  0  0  0  0  0  0  0  0
   49.0094   11.6684   11.9108 N   0  0  0  0  0  0  0  0  0  0  0  0
   48.1763    2.2467   17.4096 Cl  0  0  0  0  0  0  0  0  0  0  0  0
   46.3080    9.6768   12.8462 O   0  0  0  0  0  0  0  0  0  0  0  0
   50.3136   11.6139   12.4052 C   0  0  0  0  0  0  0  0  0  0  0  0
   48.3070   12.8299   11.7037 C   0  0  0  0  0  0  0  0  0  0  0  0
   51.0028   12.8549   12.8497 C   0  0  0  0  0  0  0  0  0  0  0  0
   46.8374   12.7391   12.1474 C   0  0  0  0  0  0  0  0  0  0  0  0
   51.3115   13.8239   11.7559 C   0  0  0  0  0  0  0  0  0  0  0  0
   46.1662   14.0502   11.9109 C   0  0  0  0  0  0  0  0  0  0  0  0
   51.9898   15.0911   12.2616 C   0  0  0  0  0  0  0  0  0  0  0  0
   46.7359   15.2037   12.6680 C   0  0  0  0  0  0  0  0  0  0  0  0
   48.1358   10.2205   12.8264 H   0  0  0  0  0  0  0  0  0  0  0  0
   48.9057    8.3191   15.2628 H   0  0  0  0  0  0  0  0  0  0  0  0
   45.8514    3.5414   13.5963 H   0  0  0  0  0  0  0  0  0  0  0  0
   49.5815    4.6547   18.0756 H   0  0  0  0  0  0  0  0  0  0  0  0
   45.9968    7.9293   11.4866 H   0  0  0  0  0  0  0  0  0  0  0  0
   46.8813    3.2340   15.1484 H   0  0  0  0  0  0  0  0  0  0  0  0
   48.0108    9.8403   13.8474 H   0  0  0  0  0  0  0  0  0  0  0  0
   49.5548    8.9460   12.2558 H   0  0  0  0  0  0  0  0  0  0  0  0
   48.3145    8.4569   11.1136 H   0  0  0  0  0  0  0  0  0  0  0  0
   44.6228    6.1813   10.5449 H   0  0  0  0  0  0  0  0  0  0  0  0
   49.3781   10.3486   10.3431 H   0  0  0  0  0  0  0  0  0  0  0  0
   47.6731   10.7247   10.6161 H   0  0  0  0  0  0  0  0  0  0  0  0
   45.8910    9.8643   13.7124 H   0  0  0  0  0  0  0  0  0  0  0  0
   50.3956   10.8041   13.1986 H   0  0  0  0  0  0  0  0  0  0  0  0
   50.9635   11.1561   11.5727 H   0  0  0  0  0  0  0  0  0  0  0  0
   48.7331   13.6324   12.3861 H   0  0  0  0  0  0  0  0  0  0  0  0
   48.2752   13.2620   10.6943 H   0  0  0  0  0  0  0  0  0  0  0  0
   51.9943   12.5174   13.2917 H   0  0  0  0  0  0  0  0  0  0  0  0
   50.4989   13.3415   13.7176 H   0  0  0  0  0  0  0  0  0  0  0  0
   46.3563   12.0004   11.4700 H   0  0  0  0  0  0  0  0  0  0  0  0
   46.7364   12.3855   13.1712 H   0  0  0  0  0  0  0  0  0  0  0  0
   50.4720   14.0489   11.1103 H   0  0  0  0  0  0  0  0  0  0  0  0
   52.0814   13.3632   11.0349 H   0  0  0  0  0  0  0  0  0  0  0  0
   46.1784   14.3177   10.8306 H   0  0  0  0  0  0  0  0  0  0  0  0
   45.0882   13.9861   12.1764 H   0  0  0  0  0  0  0  0  0  0  0  0
   53.0856   14.9527   12.3566 H   0  0  0  0  0  0  0  0  0  0  0  0
   51.5176   15.3576   13.2274 H   0  0  0  0  0  0  0  0  0  0  0  0
   51.7174   15.9105   11.5541 H   0  0  0  0  0  0  0  0  0  0  0  0
   46.7066   15.0188   13.7787 H   0  0  0  0  0  0  0  0  0  0  0  0
   45.9947   16.0468   12.5377 H   0  0  0  0  0  0  0  0  0  0  0  0
   47.6927   15.5890   12.3168 H   0  0  0  0  0  0  0  0  0  0  0  0
  3  2  2  0
  4  3  1  0
  5  2  1  0
  6  5  2  0
  7 11  1  0
  8  6  1  0
  9  2  1  0
 10  4  1  0
 11  9  2  0
 12 15  1  0
 13  5  1  0
 14  3  1  0
 15 14  2  0
 16  6  1  0
 17 16  1  0
 18 11  1  0
 19  7  1  0
 20  7  1  0
 21  7  1  0
 22 10  1  0
 23 17  1  0
 24 23  1  0
 25 15  1  0
 26 16  1  0
 27 24  1  0
 28 24  1  0
 29 27  1  0
 30 28  1  0
 31 29  1  0
 32 30  1  0
 33 31  1  0
 34 32  1  0
 18 13  2  0
  8  4  2  0
 10 12  2  0
  1 35  1  0
  8 36  1  0
  9 37  1  0
 12 38  1  0
 13 39  1  0
 14 40  1  0
 16 41  1  1
 17 42  1  0
 17 43  1  0
 18 44  1  0
 23 45  1  0
 23 46  1  0
 26 47  1  0
 27 48  1  0
 27 49  1  0
 28 50  1  0
 28 51  1  0
 29 52  1  0
 29 53  1  0
 30 54  1  0
 30 55  1  0
 31 56  1  0
 31 57  1  0
 32 58  1  0
 32 59  1  0
 33 60  1  0
 33 61  1  0
 33 62  1  0
 34 63  1  0
 34 64  1  0
 34 65  1  0
M  END
> <Uni-Dock RESULT> 
ENERGY=   -4.762  LOWER_BOUND=    3.336  UPPER_BOUND=    6.136
INTER + INTRA:          -4.762
INTER:                  -4.762
INTRA:                   0.000
UNBOUND:                 0.000

$$$$
