
     RDKit          3D

 65 66  0  0  0  0  0  0  0  0999 V2000
   47.2942    8.8430   14.3223 Cl  0  0  0  0  0  0  0  0  0  0  0  0
   45.2862    7.4770   12.2655 C   0  0  0  0  0  0  0  0  0  0  0  0
   44.9945    8.7386   11.8481 C   0  0  0  0  0  0  0  0  0  0  0  0
   45.9143    9.7336   12.0979 C   0  0  0  0  0  0  0  0  0  0  0  0
   46.4734    7.1767   12.9281 C   0  0  0  0  0  0  0  0  0  0  0  0
   47.4273    8.1760   13.1948 C   0  0  0  0  0  0  0  0  0  0  0  0
   43.6093    4.0702   12.1412 C   0  0  0  0  0  0  0  0  0  0  0  0
   47.0882    9.4339   12.7538 C   0  0  0  0  0  0  0  0  0  0  0  0
   44.3430    6.4790   12.0013 C   0  0  0  0  0  0  0  0  0  0  0  0
   45.6823   11.0564   11.6969 C   0  0  0  0  0  0  0  0  0  0  0  0
   44.5901    5.1549   12.4069 C   0  0  0  0  0  0  0  0  0  0  0  0
   44.5300   11.4160   11.0390 C   0  0  0  0  0  0  0  0  0  0  0  0
   46.6905    5.8694   13.3150 C   0  0  0  0  0  0  0  0  0  0  0  0
   43.8433    9.1086   11.1881 C   0  0  0  0  0  0  0  0  0  0  0  0
   43.6081   10.4299   10.7858 C   0  0  0  0  0  0  0  0  0  0  0  0
   48.6768    7.8294   13.8917 C   0  0  1  0  0  0  0  0  0  0  0  0
   48.6007    7.7729   15.3728 C   0  0  0  0  0  0  0  0  0  0  0  0
   45.7602    4.8547   13.0613 C   0  0  0  0  0  0  0  0  0  0  0  0
   42.4052    4.6643   11.7529 F   0  0  0  0  0  0  0  0  0  0  0  0
   44.0074    3.2715   11.0897 F   0  0  0  0  0  0  0  0  0  0  0  0
   43.3831    3.2925   13.2560 F   0  0  0  0  0  0  0  0  0  0  0  0
   46.8523   12.3224   12.0117 Cl  0  0  0  0  0  0  0  0  0  0  0  0
   48.2735    8.9570   16.1658 C   0  0  0  0  0  0  0  0  0  0  0  0
   49.0975   10.0822   16.2631 N   0  0  0  0  0  0  0  0  0  0  0  0
   42.1220   10.8334    9.9491 Cl  0  0  0  0  0  0  0  0  0  0  0  0
   49.3818    6.7638   13.3279 O   0  0  0  0  0  0  0  0  0  0  0  0
   50.3414    9.8753   16.9417 C   0  0  0  0  0  0  0  0  0  0  0  0
   49.0068   11.1441   15.3552 C   0  0  0  0  0  0  0  0  0  0  0  0
   50.0829    9.5975   18.4009 C   0  0  0  0  0  0  0  0  0  0  0  0
   49.7896   12.3903   15.7157 C   0  0  0  0  0  0  0  0  0  0  0  0
   51.3864    9.3931   19.1602 C   0  0  0  0  0  0  0  0  0  0  0  0
   49.3948   13.0241   17.0051 C   0  0  0  0  0  0  0  0  0  0  0  0
   52.1406    8.2343   18.5923 C   0  0  0  0  0  0  0  0  0  0  0  0
   47.9294   13.4446   17.0001 C   0  0  0  0  0  0  0  0  0  0  0  0
   48.1749    9.3384   15.2548 H   0  0  0  0  0  0  0  0  0  0  0  0
   47.7677   10.2533   12.9080 H   0  0  0  0  0  0  0  0  0  0  0  0
   43.4277    6.6347   11.5063 H   0  0  0  0  0  0  0  0  0  0  0  0
   44.3057   12.4210   10.7101 H   0  0  0  0  0  0  0  0  0  0  0  0
   47.5765    5.5447   13.8287 H   0  0  0  0  0  0  0  0  0  0  0  0
   43.0900    8.4115   10.9594 H   0  0  0  0  0  0  0  0  0  0  0  0
   49.3764    8.7001   13.6699 H   0  0  0  0  0  0  0  0  0  0  0  0
   49.4724    7.1809   15.8041 H   0  0  0  0  0  0  0  0  0  0  0  0
   47.7425    7.0448   15.5970 H   0  0  0  0  0  0  0  0  0  0  0  0
   45.9428    3.8259   13.3726 H   0  0  0  0  0  0  0  0  0  0  0  0
   48.0429    8.5920   17.2168 H   0  0  0  0  0  0  0  0  0  0  0  0
   47.2286    9.2867   15.8293 H   0  0  0  0  0  0  0  0  0  0  0  0
   49.8869    6.3458   14.0622 H   0  0  0  0  0  0  0  0  0  0  0  0
   50.9588   10.7795   16.8764 H   0  0  0  0  0  0  0  0  0  0  0  0
   50.9522    9.0622   16.5007 H   0  0  0  0  0  0  0  0  0  0  0  0
   49.4162   10.8910   14.3302 H   0  0  0  0  0  0  0  0  0  0  0  0
   47.9593   11.4383   15.1929 H   0  0  0  0  0  0  0  0  0  0  0  0
   49.5314    8.6191   18.5352 H   0  0  0  0  0  0  0  0  0  0  0  0
   49.4942   10.3354   18.9285 H   0  0  0  0  0  0  0  0  0  0  0  0
   50.8664   12.2761   15.6305 H   0  0  0  0  0  0  0  0  0  0  0  0
   49.4911   13.1482   14.9152 H   0  0  0  0  0  0  0  0  0  0  0  0
   51.9702   10.3192   19.2284 H   0  0  0  0  0  0  0  0  0  0  0  0
   51.0864    9.1070   20.1962 H   0  0  0  0  0  0  0  0  0  0  0  0
   49.6513   12.4571   17.9049 H   0  0  0  0  0  0  0  0  0  0  0  0
   49.9925   13.9744   17.0796 H   0  0  0  0  0  0  0  0  0  0  0  0
   52.8305    7.7792   19.3404 H   0  0  0  0  0  0  0  0  0  0  0  0
   52.7334    8.5254   17.6997 H   0  0  0  0  0  0  0  0  0  0  0  0
   51.4194    7.4550   18.2858 H   0  0  0  0  0  0  0  0  0  0  0  0
   47.7770   14.2365   17.7729 H   0  0  0  0  0  0  0  0  0  0  0  0
   47.6576   13.8467   16.0113 H   0  0  0  0  0  0  0  0  0  0  0  0
   47.3239   12.5453   17.2183 H   0  0  0  0  0  0  0  0  0  0  0  0
  3  2  2  0
  4  3  1  0
  5  2  1  0
  6  5  2  0
  7 11  1  0
  8  6  1  0
  9  2  1  0
 10  4  1  0
 11  9  2  0
 12 15  1  0
 13  5  1  0
 14  3  1  0
 15 14  2  0
 16  6  1  0
 17 16  1  0
 18 11  1  0
 19  7  1  0
 20  7  1  0
 21  7  1  0
 22 10  1  0
 23 17  1  0
 24 23  1  0
 25 15  1  0
 26 16  1  0
 27 24  1  0
 28 24  1  0
 29 27  1  0
 30 28  1  0
 31 29  1  0
 32 30  1  0
 33 31  1  0
 34 32  1  0
 18 13  2  0
  8  4  2  0
 10 12  2  0
  1 35  1  0
  8 36  1  0
  9 37  1  0
 12 38  1  0
 13 39  1  0
 14 40  1  0
 16 41  1  1
 17 42  1  0
 17 43  1  0
 18 44  1  0
 23 45  1  0
 23 46  1  0
 26 47  1  0
 27 48  1  0
 27 49  1  0
 28 50  1  0
 28 51  1  0
 29 52  1  0
 29 53  1  0
 30 54  1  0
 30 55  1  0
 31 56  1  0
 31 57  1  0
 32 58  1  0
 32 59  1  0
 33 60  1  0
 33 61  1  0
 33 62  1  0
 34 63  1  0
 34 64  1  0
 34 65  1  0
M  END
> <Uni-Dock RESULT> 
ENERGY=   -6.339  LOWER_BOUND=    0.000  UPPER_BOUND=    0.000
INTER + INTRA:          -6.339
INTER:                  -6.339
INTRA:                   0.000
UNBOUND:                 0.000

$$$$

     RDKit          3D

 65 66  0  0  0  0  0  0  0  0999 V2000
   49.2809    6.9902   12.9422 Cl  0  0  0  0  0  0  0  0  0  0  0  0
   46.7076    5.2741   13.6918 C   0  0  0  0  0  0  0  0  0  0  0  0
   47.3093    5.0592   14.8929 C   0  0  0  0  0  0  0  0  0  0  0  0
   48.2814    5.9469   15.2998 C   0  0  0  0  0  0  0  0  0  0  0  0
   47.0484    6.3530   12.8802 C   0  0  0  0  0  0  0  0  0  0  0  0
   48.0382    7.2721   13.2741 C   0  0  0  0  0  0  0  0  0  0  0  0
   44.0092    3.5900   11.6144 C   0  0  0  0  0  0  0  0  0  0  0  0
   48.6169    7.0135   14.4947 C   0  0  0  0  0  0  0  0  0  0  0  0
   45.7214    4.3652   13.2959 C   0  0  0  0  0  0  0  0  0  0  0  0
   48.9439    5.7896   16.5248 C   0  0  0  0  0  0  0  0  0  0  0  0
   45.0625    4.5370   12.0649 C   0  0  0  0  0  0  0  0  0  0  0  0
   48.6523    4.7453   17.3701 C   0  0  0  0  0  0  0  0  0  0  0  0
   46.3862    6.4977   11.6775 C   0  0  0  0  0  0  0  0  0  0  0  0
   47.0239    4.0166   15.7469 C   0  0  0  0  0  0  0  0  0  0  0  0
   47.6841    3.8562   16.9723 C   0  0  0  0  0  0  0  0  0  0  0  0
   48.3744    8.4071   12.3991 C   0  0  1  0  0  0  0  0  0  0  0  0
   49.3405    8.1233   11.3087 C   0  0  0  0  0  0  0  0  0  0  0  0
   45.3962    5.5999   11.2610 C   0  0  0  0  0  0  0  0  0  0  0  0
   44.0673    2.4596   12.4343 F   0  0  0  0  0  0  0  0  0  0  0  0
   42.7466    4.1219   11.7719 F   0  0  0  0  0  0  0  0  0  0  0  0
   44.1894    3.2002   10.3050 F   0  0  0  0  0  0  0  0  0  0  0  0
   50.1787    6.9191   17.0445 Cl  0  0  0  0  0  0  0  0  0  0  0  0
   50.7115    7.7025   11.5944 C   0  0  0  0  0  0  0  0  0  0  0  0
   51.6649    8.5183   12.2106 N   0  0  0  0  0  0  0  0  0  0  0  0
   47.2725    2.5072   18.0125 Cl  0  0  0  0  0  0  0  0  0  0  0  0
   47.2794    9.1713   11.9897 O   0  0  0  0  0  0  0  0  0  0  0  0
   52.0893    9.6520   11.4457 C   0  0  0  0  0  0  0  0  0  0  0  0
   51.8041    8.5688   13.6028 C   0  0  0  0  0  0  0  0  0  0  0  0
   52.8642    9.1881   10.2385 C   0  0  0  0  0  0  0  0  0  0  0  0
   53.0217    9.3083   14.1188 C   0  0  0  0  0  0  0  0  0  0  0  0
   53.3508   10.3696    9.4110 C   0  0  0  0  0  0  0  0  0  0  0  0
   54.3282    8.7443   13.6769 C   0  0  0  0  0  0  0  0  0  0  0  0
   52.1899   11.1818    8.9349 C   0  0  0  0  0  0  0  0  0  0  0  0
   54.5000    7.2992   14.1316 C   0  0  0  0  0  0  0  0  0  0  0  0
   50.3553    7.7373   12.5201 H   0  0  0  0  0  0  0  0  0  0  0  0
   49.3753    7.6745   14.8752 H   0  0  0  0  0  0  0  0  0  0  0  0
   45.4147    3.5304   13.8580 H   0  0  0  0  0  0  0  0  0  0  0  0
   49.1348    4.5817   18.3236 H   0  0  0  0  0  0  0  0  0  0  0  0
   46.5809    7.2988   10.9886 H   0  0  0  0  0  0  0  0  0  0  0  0
   46.2965    3.2944   15.5123 H   0  0  0  0  0  0  0  0  0  0  0  0
   48.9144    9.1415   13.0816 H   0  0  0  0  0  0  0  0  0  0  0  0
   49.2840    8.9186   10.4960 H   0  0  0  0  0  0  0  0  0  0  0  0
   48.8915    7.2333   10.7403 H   0  0  0  0  0  0  0  0  0  0  0  0
   44.8808    5.7245   10.3085 H   0  0  0  0  0  0  0  0  0  0  0  0
   51.1464    7.3223   10.6159 H   0  0  0  0  0  0  0  0  0  0  0  0
   50.6277    6.7192   12.1774 H   0  0  0  0  0  0  0  0  0  0  0  0
   47.5241    9.5632   11.1205 H   0  0  0  0  0  0  0  0  0  0  0  0
   52.7534   10.2834   12.0485 H   0  0  0  0  0  0  0  0  0  0  0  0
   51.2528   10.3088   11.1331 H   0  0  0  0  0  0  0  0  0  0  0  0
   50.9554    9.1148   14.1165 H   0  0  0  0  0  0  0  0  0  0  0  0
   51.8136    7.5580   14.0370 H   0  0  0  0  0  0  0  0  0  0  0  0
   52.1994    8.6113    9.5279 H   0  0  0  0  0  0  0  0  0  0  0  0
   53.7075    8.5402   10.4347 H   0  0  0  0  0  0  0  0  0  0  0  0
   52.9757   10.3850   13.9826 H   0  0  0  0  0  0  0  0  0  0  0  0
   52.9961    9.1343   15.2471 H   0  0  0  0  0  0  0  0  0  0  0  0
   54.1191   10.9492    9.9370 H   0  0  0  0  0  0  0  0  0  0  0  0
   53.8264    9.9238    8.5053 H   0  0  0  0  0  0  0  0  0  0  0  0
   54.5563    8.8650   12.6138 H   0  0  0  0  0  0  0  0  0  0  0  0
   55.1197    9.3371   14.2136 H   0  0  0  0  0  0  0  0  0  0  0  0
   52.4334   11.7544    8.0099 H   0  0  0  0  0  0  0  0  0  0  0  0
   51.8419   11.8975    9.7092 H   0  0  0  0  0  0  0  0  0  0  0  0
   51.3526   10.5013    8.6957 H   0  0  0  0  0  0  0  0  0  0  0  0
   55.5886    7.0496   14.1418 H   0  0  0  0  0  0  0  0  0  0  0  0
   54.0903    7.1737   15.1463 H   0  0  0  0  0  0  0  0  0  0  0  0
   53.9451    6.6583   13.4215 H   0  0  0  0  0  0  0  0  0  0  0  0
  3  2  2  0
  4  3  1  0
  5  2  1  0
  6  5  2  0
  7 11  1  0
  8  6  1  0
  9  2  1  0
 10  4  1  0
 11  9  2  0
 12 15  1  0
 13  5  1  0
 14  3  1  0
 15 14  2  0
 16  6  1  0
 17 16  1  0
 18 11  1  0
 19  7  1  0
 20  7  1  0
 21  7  1  0
 22 10  1  0
 23 17  1  0
 24 23  1  0
 25 15  1  0
 26 16  1  0
 27 24  1  0
 28 24  1  0
 29 27  1  0
 30 28  1  0
 31 29  1  0
 32 30  1  0
 33 31  1  0
 34 32  1  0
 18 13  2  0
  8  4  2  0
 10 12  2  0
  1 35  1  0
  8 36  1  0
  9 37  1  0
 12 38  1  0
 13 39  1  0
 14 40  1  0
 16 41  1  1
 17 42  1  0
 17 43  1  0
 18 44  1  0
 23 45  1  0
 23 46  1  0
 26 47  1  0
 27 48  1  0
 27 49  1  0
 28 50  1  0
 28 51  1  0
 29 52  1  0
 29 53  1  0
 30 54  1  0
 30 55  1  0
 31 56  1  0
 31 57  1  0
 32 58  1  0
 32 59  1  0
 33 60  1  0
 33 61  1  0
 33 62  1  0
 34 63  1  0
 34 64  1  0
 34 65  1  0
M  END
> <Uni-Dock RESULT> 
ENERGY=   -6.170  LOWER_BOUND=    3.741  UPPER_BOUND=    6.063
INTER + INTRA:          -6.170
INTER:                  -6.170
INTRA:                   0.000
UNBOUND:                 0.000

$$$$

     RDKit          3D

 65 66  0  0  0  0  0  0  0  0999 V2000
   48.3633   10.5984   11.2599 Cl  0  0  0  0  0  0  0  0  0  0  0  0
   45.4605    9.5654   12.0570 C   0  0  0  0  0  0  0  0  0  0  0  0
   46.0757    8.4234   12.4671 C   0  0  0  0  0  0  0  0  0  0  0  0
   47.4189    8.4821   12.7682 C   0  0  0  0  0  0  0  0  0  0  0  0
   46.1484   10.7701   11.9374 C   0  0  0  0  0  0  0  0  0  0  0  0
   47.5202   10.8544   12.2385 C   0  0  0  0  0  0  0  0  0  0  0  0
   41.9561   10.5904   11.0070 C   0  0  0  0  0  0  0  0  0  0  0  0
   48.0973    9.6753   12.6487 C   0  0  0  0  0  0  0  0  0  0  0  0
   44.0965    9.4885   11.7584 C   0  0  0  0  0  0  0  0  0  0  0  0
   48.1189    7.3461   13.1972 C   0  0  0  0  0  0  0  0  0  0  0  0
   43.4058   10.6372   11.3317 C   0  0  0  0  0  0  0  0  0  0  0  0
   47.4961    6.1283   13.3353 C   0  0  0  0  0  0  0  0  0  0  0  0
   45.4463   11.8818   11.5165 C   0  0  0  0  0  0  0  0  0  0  0  0
   45.4605    7.1990   12.6090 C   0  0  0  0  0  0  0  0  0  0  0  0
   46.1570    6.0613   13.0376 C   0  0  0  0  0  0  0  0  0  0  0  0
   48.2213   12.1423   12.1090 C   0  0  1  0  0  0  0  0  0  0  0  0
   48.6931   12.4911   10.7457 C   0  0  0  0  0  0  0  0  0  0  0  0
   44.0811   11.8276   11.2118 C   0  0  0  0  0  0  0  0  0  0  0  0
   41.5794    9.2477   10.9122 F   0  0  0  0  0  0  0  0  0  0  0  0
   41.1917   11.1401   12.0147 F   0  0  0  0  0  0  0  0  0  0  0  0
   41.6726   11.2178    9.8134 F   0  0  0  0  0  0  0  0  0  0  0  0
   49.8267    7.4199   13.5827 Cl  0  0  0  0  0  0  0  0  0  0  0  0
   49.6855   11.6738   10.0491 C   0  0  0  0  0  0  0  0  0  0  0  0
   51.0145   11.5410   10.4620 N   0  0  0  0  0  0  0  0  0  0  0  0
   45.3137    4.5334   13.1975 Cl  0  0  0  0  0  0  0  0  0  0  0  0
   47.6133   13.2064   12.7786 O   0  0  0  0  0  0  0  0  0  0  0  0
   51.8091   12.7283   10.3644 C   0  0  0  0  0  0  0  0  0  0  0  0
   51.4097   10.5522   11.3710 C   0  0  0  0  0  0  0  0  0  0  0  0
   52.0071   13.0881    8.9137 C   0  0  0  0  0  0  0  0  0  0  0  0
   52.9042   10.3753   11.5466 C   0  0  0  0  0  0  0  0  0  0  0  0
   52.8671   14.3360    8.7700 C   0  0  0  0  0  0  0  0  0  0  0  0
   53.6376    9.9955   10.3065 C   0  0  0  0  0  0  0  0  0  0  0  0
   52.2159   15.4954    9.4525 C   0  0  0  0  0  0  0  0  0  0  0  0
   53.1306    8.6763    9.7345 C   0  0  0  0  0  0  0  0  0  0  0  0
   49.5710   11.1274   10.8698 H   0  0  0  0  0  0  0  0  0  0  0  0
   49.1408    9.6555   12.9091 H   0  0  0  0  0  0  0  0  0  0  0  0
   43.5161    8.6136   11.8268 H   0  0  0  0  0  0  0  0  0  0  0  0
   47.9921    5.2252   13.6623 H   0  0  0  0  0  0  0  0  0  0  0  0
   45.8924   12.8518   11.3970 H   0  0  0  0  0  0  0  0  0  0  0  0
   44.4385    7.0672   12.3992 H   0  0  0  0  0  0  0  0  0  0  0  0
   49.1728   12.0102   12.7205 H   0  0  0  0  0  0  0  0  0  0  0  0
   48.9022   13.6070   10.6592 H   0  0  0  0  0  0  0  0  0  0  0  0
   47.7598   12.4172   10.0821 H   0  0  0  0  0  0  0  0  0  0  0  0
   43.5378   12.7125   10.8797 H   0  0  0  0  0  0  0  0  0  0  0  0
   49.6812   12.0102    8.9639 H   0  0  0  0  0  0  0  0  0  0  0  0
   49.2211   10.6313    9.9426 H   0  0  0  0  0  0  0  0  0  0  0  0
   47.8608   14.0219   12.2860 H   0  0  0  0  0  0  0  0  0  0  0  0
   52.7984   12.5543   10.8051 H   0  0  0  0  0  0  0  0  0  0  0  0
   51.3818   13.5892   10.9164 H   0  0  0  0  0  0  0  0  0  0  0  0
   51.0655   10.7568   12.4303 H   0  0  0  0  0  0  0  0  0  0  0  0
   50.9828    9.5743   11.1031 H   0  0  0  0  0  0  0  0  0  0  0  0
   51.0255   13.3748    8.4302 H   0  0  0  0  0  0  0  0  0  0  0  0
   52.4236   12.3138    8.2841 H   0  0  0  0  0  0  0  0  0  0  0  0
   53.3877   11.1943   12.0714 H   0  0  0  0  0  0  0  0  0  0  0  0
   52.9987    9.4660   12.2310 H   0  0  0  0  0  0  0  0  0  0  0  0
   53.9039   14.1568    9.0798 H   0  0  0  0  0  0  0  0  0  0  0  0
   52.8770   14.5674    7.6785 H   0  0  0  0  0  0  0  0  0  0  0  0
   53.6984   10.7736    9.5399 H   0  0  0  0  0  0  0  0  0  0  0  0
   54.7026    9.8116   10.6197 H   0  0  0  0  0  0  0  0  0  0  0  0
   52.5442   16.4701    9.0224 H   0  0  0  0  0  0  0  0  0  0  0  0
   52.4268   15.5041   10.5426 H   0  0  0  0  0  0  0  0  0  0  0  0
   51.1218   15.4215    9.3154 H   0  0  0  0  0  0  0  0  0  0  0  0
   53.9223    8.2368    9.0806 H   0  0  0  0  0  0  0  0  0  0  0  0
   52.9058    7.9740   10.5527 H   0  0  0  0  0  0  0  0  0  0  0  0
   52.2091    8.8933    9.1630 H   0  0  0  0  0  0  0  0  0  0  0  0
  3  2  2  0
  4  3  1  0
  5  2  1  0
  6  5  2  0
  7 11  1  0
  8  6  1  0
  9  2  1  0
 10  4  1  0
 11  9  2  0
 12 15  1  0
 13  5  1  0
 14  3  1  0
 15 14  2  0
 16  6  1  0
 17 16  1  0
 18 11  1  0
 19  7  1  0
 20  7  1  0
 21  7  1  0
 22 10  1  0
 23 17  1  0
 24 23  1  0
 25 15  1  0
 26 16  1  0
 27 24  1  0
 28 24  1  0
 29 27  1  0
 30 28  1  0
 31 29  1  0
 32 30  1  0
 33 31  1  0
 34 32  1  0
 18 13  2  0
  8  4  2  0
 10 12  2  0
  1 35  1  0
  8 36  1  0
  9 37  1  0
 12 38  1  0
 13 39  1  0
 14 40  1  0
 16 41  1  1
 17 42  1  0
 17 43  1  0
 18 44  1  0
 23 45  1  0
 23 46  1  0
 26 47  1  0
 27 48  1  0
 27 49  1  0
 28 50  1  0
 28 51  1  0
 29 52  1  0
 29 53  1  0
 30 54  1  0
 30 55  1  0
 31 56  1  0
 31 57  1  0
 32 58  1  0
 32 59  1  0
 33 60  1  0
 33 61  1  0
 33 62  1  0
 34 63  1  0
 34 64  1  0
 34 65  1  0
M  END
> <Uni-Dock RESULT> 
ENERGY=   -5.256  LOWER_BOUND=    4.270  UPPER_BOUND=    6.543
INTER + INTRA:          -5.256
INTER:                  -5.256
INTRA:                   0.000
UNBOUND:                 0.000

$$$$

     RDKit          3D

 65 66  0  0  0  0  0  0  0  0999 V2000
   44.6634   10.2646   10.2936 Cl  0  0  0  0  0  0  0  0  0  0  0  0
   45.2277    7.6979   12.0887 C   0  0  0  0  0  0  0  0  0  0  0  0
   46.3910    8.3088   12.4411 C   0  0  0  0  0  0  0  0  0  0  0  0
   46.4747    9.6767   12.2984 C   0  0  0  0  0  0  0  0  0  0  0  0
   44.1401    8.4139   11.5955 C   0  0  0  0  0  0  0  0  0  0  0  0
   44.2021    9.8109   11.4404 C   0  0  0  0  0  0  0  0  0  0  0  0
   43.8745    4.1481   12.0491 C   0  0  0  0  0  0  0  0  0  0  0  0
   45.3971   10.3828   11.8100 C   0  0  0  0  0  0  0  0  0  0  0  0
   45.1591    6.3097   12.2426 C   0  0  0  0  0  0  0  0  0  0  0  0
   47.6410   10.3742   12.6414 C   0  0  0  0  0  0  0  0  0  0  0  0
   43.9811    5.6228   11.8971 C   0  0  0  0  0  0  0  0  0  0  0  0
   48.7480    9.7244   13.1336 C   0  0  0  0  0  0  0  0  0  0  0  0
   42.9966    7.7148   11.2642 C   0  0  0  0  0  0  0  0  0  0  0  0
   47.5052    7.6668   12.9353 C   0  0  0  0  0  0  0  0  0  0  0  0
   48.6727    8.3608   13.2793 C   0  0  0  0  0  0  0  0  0  0  0  0
   43.0351   10.5435   10.9224 C   0  0  1  0  0  0  0  0  0  0  0  0
   42.8917   10.5763    9.4455 C   0  0  0  0  0  0  0  0  0  0  0  0
   42.9060    6.3255   11.4097 C   0  0  0  0  0  0  0  0  0  0  0  0
   45.1603    3.6433   12.2630 F   0  0  0  0  0  0  0  0  0  0  0  0
   43.1306    3.8040   13.1582 F   0  0  0  0  0  0  0  0  0  0  0  0
   43.3419    3.5495   10.9280 F   0  0  0  0  0  0  0  0  0  0  0  0
   47.7479   12.1141   12.4627 Cl  0  0  0  0  0  0  0  0  0  0  0  0
   43.8969   11.2123    8.5951 C   0  0  0  0  0  0  0  0  0  0  0  0
   44.1561   12.5861    8.5885 N   0  0  0  0  0  0  0  0  0  0  0  0
   50.0551    7.4828   13.9034 Cl  0  0  0  0  0  0  0  0  0  0  0  0
   41.8386   10.2827   11.5938 O   0  0  0  0  0  0  0  0  0  0  0  0
   43.0971   13.4081    8.0853 C   0  0  0  0  0  0  0  0  0  0  0  0
   45.0888   13.1654    9.4572 C   0  0  0  0  0  0  0  0  0  0  0  0
   42.9166   13.1559    6.6098 C   0  0  0  0  0  0  0  0  0  0  0  0
   45.4372   14.6140    9.1821 C   0  0  0  0  0  0  0  0  0  0  0  0
   41.8110   14.0299    6.0345 C   0  0  0  0  0  0  0  0  0  0  0  0
   46.0335   14.8686    7.8406 C   0  0  0  0  0  0  0  0  0  0  0  0
   40.5136   13.7411    6.7182 C   0  0  0  0  0  0  0  0  0  0  0  0
   47.3283   14.0884    7.6430 C   0  0  0  0  0  0  0  0  0  0  0  0
   44.3368   11.3223    9.4780 H   0  0  0  0  0  0  0  0  0  0  0  0
   45.5239   11.4481   11.7331 H   0  0  0  0  0  0  0  0  0  0  0  0
   45.9404    5.7075   12.6085 H   0  0  0  0  0  0  0  0  0  0  0  0
   49.6690   10.2174   13.4119 H   0  0  0  0  0  0  0  0  0  0  0  0
   42.1093    8.1823   10.8788 H   0  0  0  0  0  0  0  0  0  0  0  0
   47.5254    6.6246   13.0741 H   0  0  0  0  0  0  0  0  0  0  0  0
   43.2248   11.6262   11.2198 H   0  0  0  0  0  0  0  0  0  0  0  0
   41.8268   10.8443    9.1447 H   0  0  0  0  0  0  0  0  0  0  0  0
   42.9130    9.4756    9.1220 H   0  0  0  0  0  0  0  0  0  0  0  0
   41.9975    5.7846   11.1438 H   0  0  0  0  0  0  0  0  0  0  0  0
   43.6760   10.8860    7.5294 H   0  0  0  0  0  0  0  0  0  0  0  0
   44.8765   10.6478    8.7837 H   0  0  0  0  0  0  0  0  0  0  0  0
   41.1166   10.4284   10.9407 H   0  0  0  0  0  0  0  0  0  0  0  0
   43.3505   14.4673    8.2162 H   0  0  0  0  0  0  0  0  0  0  0  0
   42.1362   13.2612    8.6180 H   0  0  0  0  0  0  0  0  0  0  0  0
   44.7340   13.2031   10.5320 H   0  0  0  0  0  0  0  0  0  0  0  0
   46.0261   12.5896    9.4735 H   0  0  0  0  0  0  0  0  0  0  0  0
   42.5575   12.1000    6.4207 H   0  0  0  0  0  0  0  0  0  0  0  0
   43.7986   13.2750    5.9955 H   0  0  0  0  0  0  0  0  0  0  0  0
   44.6375   15.3124    9.4119 H   0  0  0  0  0  0  0  0  0  0  0  0
   46.2759   14.8443    9.9222 H   0  0  0  0  0  0  0  0  0  0  0  0
   42.0891   15.0909    6.0283 H   0  0  0  0  0  0  0  0  0  0  0  0
   41.6961   13.7055    4.9731 H   0  0  0  0  0  0  0  0  0  0  0  0
   45.3525   14.7462    6.9932 H   0  0  0  0  0  0  0  0  0  0  0  0
   46.3193   15.9568    7.8295 H   0  0  0  0  0  0  0  0  0  0  0  0
   39.6385   13.9972    6.0768 H   0  0  0  0  0  0  0  0  0  0  0  0
   40.4201   14.2941    7.6765 H   0  0  0  0  0  0  0  0  0  0  0  0
   40.4601   12.6596    6.9398 H   0  0  0  0  0  0  0  0  0  0  0  0
   47.9307   14.5827    6.8429 H   0  0  0  0  0  0  0  0  0  0  0  0
   47.9081   14.0798    8.5796 H   0  0  0  0  0  0  0  0  0  0  0  0
   47.0547   13.0544    7.3621 H   0  0  0  0  0  0  0  0  0  0  0  0
  3  2  2  0
  4  3  1  0
  5  2  1  0
  6  5  2  0
  7 11  1  0
  8  6  1  0
  9  2  1  0
 10  4  1  0
 11  9  2  0
 12 15  1  0
 13  5  1  0
 14  3  1  0
 15 14  2  0
 16  6  1  0
 17 16  1  0
 18 11  1  0
 19  7  1  0
 20  7  1  0
 21  7  1  0
 22 10  1  0
 23 17  1  0
 24 23  1  0
 25 15  1  0
 26 16  1  0
 27 24  1  0
 28 24  1  0
 29 27  1  0
 30 28  1  0
 31 29  1  0
 32 30  1  0
 33 31  1  0
 34 32  1  0
 18 13  2  0
  8  4  2  0
 10 12  2  0
  1 35  1  0
  8 36  1  0
  9 37  1  0
 12 38  1  0
 13 39  1  0
 14 40  1  0
 16 41  1  1
 17 42  1  0
 17 43  1  0
 18 44  1  0
 23 45  1  0
 23 46  1  0
 26 47  1  0
 27 48  1  0
 27 49  1  0
 28 50  1  0
 28 51  1  0
 29 52  1  0
 29 53  1  0
 30 54  1  0
 30 55  1  0
 31 56  1  0
 31 57  1  0
 32 58  1  0
 32 59  1  0
 33 60  1  0
 33 61  1  0
 33 62  1  0
 34 63  1  0
 34 64  1  0
 34 65  1  0
M  END
> <Uni-Dock RESULT> 
ENERGY=   -4.799  LOWER_BOUND=    3.515  UPPER_BOUND=    7.480
INTER + INTRA:          -4.799
INTER:                  -4.799
INTRA:                   0.000
UNBOUND:                 0.000

$$$$

     RDKit          3D

 65 66  0  0  0  0  0  0  0  0999 V2000
   47.8226    8.1459   13.9930 Cl  0  0  0  0  0  0  0  0  0  0  0  0
   47.4856    5.0989   14.8480 C   0  0  0  0  0  0  0  0  0  0  0  0
   46.6432    4.9856   13.7858 C   0  0  0  0  0  0  0  0  0  0  0  0
   46.7530    5.9090   12.7690 C   0  0  0  0  0  0  0  0  0  0  0  0
   48.4389    6.1108   14.9270 C   0  0  0  0  0  0  0  0  0  0  0  0
   48.5694    7.0653   13.9016 C   0  0  0  0  0  0  0  0  0  0  0  0
   48.1034    3.2253   18.0947 C   0  0  0  0  0  0  0  0  0  0  0  0
   47.6970    6.9094   12.8498 C   0  0  0  0  0  0  0  0  0  0  0  0
   47.3623    4.1518   15.8693 C   0  0  0  0  0  0  0  0  0  0  0  0
   45.9196    5.8548   11.6435 C   0  0  0  0  0  0  0  0  0  0  0  0
   48.2075    4.2164   16.9920 C   0  0  0  0  0  0  0  0  0  0  0  0
   44.9595    4.8803   11.5069 C   0  0  0  0  0  0  0  0  0  0  0  0
   49.2551    6.1508   16.0396 C   0  0  0  0  0  0  0  0  0  0  0  0
   45.6787    4.0129   13.6396 C   0  0  0  0  0  0  0  0  0  0  0  0
   44.8437    3.9557   12.5158 C   0  0  0  0  0  0  0  0  0  0  0  0
   49.5899    8.1208   14.0082 C   0  0  1  0  0  0  0  0  0  0  0  0
   49.2119    9.3117   14.8092 C   0  0  0  0  0  0  0  0  0  0  0  0
   49.1489    5.2136   17.0739 C   0  0  0  0  0  0  0  0  0  0  0  0
   46.9067    2.5221   17.9301 F   0  0  0  0  0  0  0  0  0  0  0  0
   49.1163    2.2913   18.0357 F   0  0  0  0  0  0  0  0  0  0  0  0
   48.0987    3.8283   19.3338 F   0  0  0  0  0  0  0  0  0  0  0  0
   46.0599    7.0271   10.3486 Cl  0  0  0  0  0  0  0  0  0  0  0  0
   48.0992   10.1747   14.4150 C   0  0  0  0  0  0  0  0  0  0  0  0
   48.0960   10.9644   13.2615 N   0  0  0  0  0  0  0  0  0  0  0  0
   43.6368    2.6911   12.3920 Cl  0  0  0  0  0  0  0  0  0  0  0  0
   50.8811    7.6582   14.2711 O   0  0  0  0  0  0  0  0  0  0  0  0
   49.0377   12.0431   13.2535 C   0  0  0  0  0  0  0  0  0  0  0  0
   47.6408   10.4732   12.0320 C   0  0  0  0  0  0  0  0  0  0  0  0
   48.6449   13.0670   14.2881 C   0  0  0  0  0  0  0  0  0  0  0  0
   47.4747   11.5004   10.9307 C   0  0  0  0  0  0  0  0  0  0  0  0
   49.6134   14.2415   14.2937 C   0  0  0  0  0  0  0  0  0  0  0  0
   46.5010   12.5871   11.2325 C   0  0  0  0  0  0  0  0  0  0  0  0
   50.9970   13.7705   14.6068 C   0  0  0  0  0  0  0  0  0  0  0  0
   45.1046   12.0347   11.4952 C   0  0  0  0  0  0  0  0  0  0  0  0
   48.0215    9.4773   13.7131 H   0  0  0  0  0  0  0  0  0  0  0  0
   47.7378    7.5908   12.0186 H   0  0  0  0  0  0  0  0  0  0  0  0
   46.6663    3.3628   15.8747 H   0  0  0  0  0  0  0  0  0  0  0  0
   44.2940    4.7968   10.6592 H   0  0  0  0  0  0  0  0  0  0  0  0
   50.0185    6.8926   16.1858 H   0  0  0  0  0  0  0  0  0  0  0  0
   45.5280    3.2710   14.3694 H   0  0  0  0  0  0  0  0  0  0  0  0
   49.7066    8.5112   12.9448 H   0  0  0  0  0  0  0  0  0  0  0  0
   50.1339    9.8992   15.1273 H   0  0  0  0  0  0  0  0  0  0  0  0
   48.8887    8.8925   15.8274 H   0  0  0  0  0  0  0  0  0  0  0  0
   49.7990    5.2562   17.9481 H   0  0  0  0  0  0  0  0  0  0  0  0
   47.8739   10.8433   15.3056 H   0  0  0  0  0  0  0  0  0  0  0  0
   47.1652    9.5102   14.4159 H   0  0  0  0  0  0  0  0  0  0  0  0
   51.3431    8.3829   14.7510 H   0  0  0  0  0  0  0  0  0  0  0  0
   49.0335   12.5369   12.2740 H   0  0  0  0  0  0  0  0  0  0  0  0
   50.0832   11.7144   13.4194 H   0  0  0  0  0  0  0  0  0  0  0  0
   48.3495    9.7267   11.5598 H   0  0  0  0  0  0  0  0  0  0  0  0
   46.6837    9.9432   12.1468 H   0  0  0  0  0  0  0  0  0  0  0  0
   48.7268   12.6395   15.3321 H   0  0  0  0  0  0  0  0  0  0  0  0
   47.6388   13.4564   14.2139 H   0  0  0  0  0  0  0  0  0  0  0  0
   48.4122   11.8891   10.5435 H   0  0  0  0  0  0  0  0  0  0  0  0
   47.0006   10.9147   10.0725 H   0  0  0  0  0  0  0  0  0  0  0  0
   49.5388   14.8383   13.3765 H   0  0  0  0  0  0  0  0  0  0  0  0
   49.2923   14.8889   15.1439 H   0  0  0  0  0  0  0  0  0  0  0  0
   46.8109   13.2929   12.0088 H   0  0  0  0  0  0  0  0  0  0  0  0
   46.4222   13.2028   10.2940 H   0  0  0  0  0  0  0  0  0  0  0  0
   51.6231   14.5807   15.0477 H   0  0  0  0  0  0  0  0  0  0  0  0
   51.5135   13.3791   13.7053 H   0  0  0  0  0  0  0  0  0  0  0  0
   50.9365   12.9539   15.3491 H   0  0  0  0  0  0  0  0  0  0  0  0
   44.3559   12.8456   11.3239 H   0  0  0  0  0  0  0  0  0  0  0  0
   44.8963   11.1988   10.8088 H   0  0  0  0  0  0  0  0  0  0  0  0
   45.0794   11.6760   12.5410 H   0  0  0  0  0  0  0  0  0  0  0  0
  3  2  2  0
  4  3  1  0
  5  2  1  0
  6  5  2  0
  7 11  1  0
  8  6  1  0
  9  2  1  0
 10  4  1  0
 11  9  2  0
 12 15  1  0
 13  5  1  0
 14  3  1  0
 15 14  2  0
 16  6  1  0
 17 16  1  0
 18 11  1  0
 19  7  1  0
 20  7  1  0
 21  7  1  0
 22 10  1  0
 23 17  1  0
 24 23  1  0
 25 15  1  0
 26 16  1  0
 27 24  1  0
 28 24  1  0
 29 27  1  0
 30 28  1  0
 31 29  1  0
 32 30  1  0
 33 31  1  0
 34 32  1  0
 18 13  2  0
  8  4  2  0
 10 12  2  0
  1 35  1  0
  8 36  1  0
  9 37  1  0
 12 38  1  0
 13 39  1  0
 14 40  1  0
 16 41  1  1
 17 42  1  0
 17 43  1  0
 18 44  1  0
 23 45  1  0
 23 46  1  0
 26 47  1  0
 27 48  1  0
 27 49  1  0
 28 50  1  0
 28 51  1  0
 29 52  1  0
 29 53  1  0
 30 54  1  0
 30 55  1  0
 31 56  1  0
 31 57  1  0
 32 58  1  0
 32 59  1  0
 33 60  1  0
 33 61  1  0
 33 62  1  0
 34 63  1  0
 34 64  1  0
 34 65  1  0
M  END
> <Uni-Dock RESULT> 
ENERGY=   -4.716  LOWER_BOUND=    3.259  UPPER_BOUND=    5.392
INTER + INTRA:          -4.716
INTER:                  -4.716
INTRA:                   0.000
UNBOUND:                 0.000

$$$$

     RDKit          3D

 65 66  0  0  0  0  0  0  0  0999 V2000
   49.3534    9.5356   16.9357 Cl  0  0  0  0  0  0  0  0  0  0  0  0
   48.0373    7.1564   18.5896 C   0  0  0  0  0  0  0  0  0  0  0  0
   47.7742    8.0854   19.5481 C   0  0  0  0  0  0  0  0  0  0  0  0
   47.7339    9.4107   19.1734 C   0  0  0  0  0  0  0  0  0  0  0  0
   48.2627    7.5114   17.2623 C   0  0  0  0  0  0  0  0  0  0  0  0
   48.2272    8.8580   16.8561 C   0  0  0  0  0  0  0  0  0  0  0  0
   48.3795    3.3761   18.4281 C   0  0  0  0  0  0  0  0  0  0  0  0
   47.9575    9.7593   17.8593 C   0  0  0  0  0  0  0  0  0  0  0  0
   48.0716    5.8160   18.9868 C   0  0  0  0  0  0  0  0  0  0  0  0
   47.4683   10.4229   20.1058 C   0  0  0  0  0  0  0  0  0  0  0  0
   48.3365    4.8102   18.0397 C   0  0  0  0  0  0  0  0  0  0  0  0
   47.2375   10.1366   21.4304 C   0  0  0  0  0  0  0  0  0  0  0  0
   48.5203    6.5043   16.3537 C   0  0  0  0  0  0  0  0  0  0  0  0
   47.5413    7.8086   20.8773 C   0  0  0  0  0  0  0  0  0  0  0  0
   47.2755    8.8178   21.8122 C   0  0  0  0  0  0  0  0  0  0  0  0
   48.4632    9.2044   15.4449 C   0  0  1  0  0  0  0  0  0  0  0  0
   49.8844    9.3147   15.0318 C   0  0  0  0  0  0  0  0  0  0  0  0
   48.5599    5.1564   16.7292 C   0  0  0  0  0  0  0  0  0  0  0  0
   48.4266    3.3092   19.8234 F   0  0  0  0  0  0  0  0  0  0  0  0
   47.2340    2.7111   18.0439 F   0  0  0  0  0  0  0  0  0  0  0  0
   49.4847    2.7336   17.9139 F   0  0  0  0  0  0  0  0  0  0  0  0
   47.4143   12.1085   19.6301 Cl  0  0  0  0  0  0  0  0  0  0  0  0
   50.7732   10.3184   15.6158 C   0  0  0  0  0  0  0  0  0  0  0  0
   50.6241   11.6956   15.4277 N   0  0  0  0  0  0  0  0  0  0  0  0
   46.9871    8.3970   23.4888 Cl  0  0  0  0  0  0  0  0  0  0  0  0
   47.6694    8.5054   14.5330 O   0  0  0  0  0  0  0  0  0  0  0  0
   50.8486   12.1606   14.0921 C   0  0  0  0  0  0  0  0  0  0  0  0
   49.8264   12.4741   16.2750 C   0  0  0  0  0  0  0  0  0  0  0  0
   52.3031   11.9906   13.7336 C   0  0  0  0  0  0  0  0  0  0  0  0
   49.9427   13.9744   16.0978 C   0  0  0  0  0  0  0  0  0  0  0  0
   52.5841   12.4952   12.3252 C   0  0  0  0  0  0  0  0  0  0  0  0
   51.3070   14.5264   16.3299 C   0  0  0  0  0  0  0  0  0  0  0  0
   51.7677   11.7354   11.3301 C   0  0  0  0  0  0  0  0  0  0  0  0
   51.7972   14.2390   17.7447 C   0  0  0  0  0  0  0  0  0  0  0  0
   49.9565   10.4915   16.1526 H   0  0  0  0  0  0  0  0  0  0  0  0
   47.9014   10.8090   17.6311 H   0  0  0  0  0  0  0  0  0  0  0  0
   47.9107    5.4775   19.9699 H   0  0  0  0  0  0  0  0  0  0  0  0
   47.0286   10.8809   22.1861 H   0  0  0  0  0  0  0  0  0  0  0  0
   48.7040    6.6828   15.3103 H   0  0  0  0  0  0  0  0  0  0  0  0
   47.5548    6.8241   21.2466 H   0  0  0  0  0  0  0  0  0  0  0  0
   48.0471   10.2590   15.3382 H   0  0  0  0  0  0  0  0  0  0  0  0
   49.9876    9.2398   13.9004 H   0  0  0  0  0  0  0  0  0  0  0  0
   50.3591    8.3153   15.3361 H   0  0  0  0  0  0  0  0  0  0  0  0
   48.7651    4.3701   16.0023 H   0  0  0  0  0  0  0  0  0  0  0  0
   51.8310   10.0302   15.3174 H   0  0  0  0  0  0  0  0  0  0  0  0
   50.8093   10.0962   16.7397 H   0  0  0  0  0  0  0  0  0  0  0  0
   48.1843    8.4593   13.6953 H   0  0  0  0  0  0  0  0  0  0  0  0
   50.6081   13.2285   14.0218 H   0  0  0  0  0  0  0  0  0  0  0  0
   50.2086   11.6586   13.3390 H   0  0  0  0  0  0  0  0  0  0  0  0
   48.7172   12.2997   16.1282 H   0  0  0  0  0  0  0  0  0  0  0  0
   50.0268   12.2422   17.3315 H   0  0  0  0  0  0  0  0  0  0  0  0
   52.5849   10.8958   13.6937 H   0  0  0  0  0  0  0  0  0  0  0  0
   53.0154   12.4475   14.4069 H   0  0  0  0  0  0  0  0  0  0  0  0
   49.5040   14.3460   15.1762 H   0  0  0  0  0  0  0  0  0  0  0  0
   49.3066   14.4049   16.9429 H   0  0  0  0  0  0  0  0  0  0  0  0
   52.4813   13.5848   12.2524 H   0  0  0  0  0  0  0  0  0  0  0  0
   53.6528   12.2437   12.1258 H   0  0  0  0  0  0  0  0  0  0  0  0
   52.0559   14.2587   15.5788 H   0  0  0  0  0  0  0  0  0  0  0  0
   51.2063   15.6446   16.2550 H   0  0  0  0  0  0  0  0  0  0  0  0
   52.2336   11.7414   10.3173 H   0  0  0  0  0  0  0  0  0  0  0  0
   50.7379   12.1417   11.2450 H   0  0  0  0  0  0  0  0  0  0  0  0
   51.6949   10.6825   11.6579 H   0  0  0  0  0  0  0  0  0  0  0  0
   52.5984   14.9718   18.0064 H   0  0  0  0  0  0  0  0  0  0  0  0
   50.9648   14.3425   18.4587 H   0  0  0  0  0  0  0  0  0  0  0  0
   52.1781   13.2010   17.7610 H   0  0  0  0  0  0  0  0  0  0  0  0
  3  2  2  0
  4  3  1  0
  5  2  1  0
  6  5  2  0
  7 11  1  0
  8  6  1  0
  9  2  1  0
 10  4  1  0
 11  9  2  0
 12 15  1  0
 13  5  1  0
 14  3  1  0
 15 14  2  0
 16  6  1  0
 17 16  1  0
 18 11  1  0
 19  7  1  0
 20  7  1  0
 21  7  1  0
 22 10  1  0
 23 17  1  0
 24 23  1  0
 25 15  1  0
 26 16  1  0
 27 24  1  0
 28 24  1  0
 29 27  1  0
 30 28  1  0
 31 29  1  0
 32 30  1  0
 33 31  1  0
 34 32  1  0
 18 13  2  0
  8  4  2  0
 10 12  2  0
  1 35  1  0
  8 36  1  0
  9 37  1  0
 12 38  1  0
 13 39  1  0
 14 40  1  0
 16 41  1  1
 17 42  1  0
 17 43  1  0
 18 44  1  0
 23 45  1  0
 23 46  1  0
 26 47  1  0
 27 48  1  0
 27 49  1  0
 28 50  1  0
 28 51  1  0
 29 52  1  0
 29 53  1  0
 30 54  1  0
 30 55  1  0
 31 56  1  0
 31 57  1  0
 32 58  1  0
 32 59  1  0
 33 60  1  0
 33 61  1  0
 33 62  1  0
 34 63  1  0
 34 64  1  0
 34 65  1  0
M  END
> <Uni-Dock RESULT> 
ENERGY=   -4.701  LOWER_BOUND=    4.789  UPPER_BOUND=    6.878
INTER + INTRA:          -4.701
INTER:                  -4.701
INTRA:                   0.000
UNBOUND:                 0.000

$$$$

     RDKit          3D

 65 66  0  0  0  0  0  0  0  0999 V2000
   48.4404   10.6268   13.4879 Cl  0  0  0  0  0  0  0  0  0  0  0  0
   46.3351    8.4694   12.4670 C   0  0  0  0  0  0  0  0  0  0  0  0
   45.5833    9.5265   12.0569 C   0  0  0  0  0  0  0  0  0  0  0  0
   46.2179   10.7312   11.8462 C   0  0  0  0  0  0  0  0  0  0  0  0
   47.7076    8.5785   12.6745 C   0  0  0  0  0  0  0  0  0  0  0  0
   48.3774    9.7982   12.4664 C   0  0  0  0  0  0  0  0  0  0  0  0
   45.7307    4.8177   13.3231 C   0  0  0  0  0  0  0  0  0  0  0  0
   47.5761   10.8365   12.0524 C   0  0  0  0  0  0  0  0  0  0  0  0
   45.6754    7.2538   12.6733 C   0  0  0  0  0  0  0  0  0  0  0  0
   45.5083   11.8633   11.4229 C   0  0  0  0  0  0  0  0  0  0  0  0
   46.4006    6.1247   13.0953 C   0  0  0  0  0  0  0  0  0  0  0  0
   44.1523   11.8196   11.2008 C   0  0  0  0  0  0  0  0  0  0  0  0
   48.3948    7.4551   13.0885 C   0  0  0  0  0  0  0  0  0  0  0  0
   44.2247    9.4926   11.8313 C   0  0  0  0  0  0  0  0  0  0  0  0
   43.5121   10.6224   11.4082 C   0  0  0  0  0  0  0  0  0  0  0  0
   49.8303    9.8837   12.6876 C   0  0  1  0  0  0  0  0  0  0  0  0
   50.2622   10.1038   14.0903 C   0  0  0  0  0  0  0  0  0  0  0  0
   47.7549    6.2284   13.3016 C   0  0  0  0  0  0  0  0  0  0  0  0
   44.3508    5.0392   13.3448 F   0  0  0  0  0  0  0  0  0  0  0  0
   45.9685    3.9376   12.2883 F   0  0  0  0  0  0  0  0  0  0  0  0
   46.1084    4.2438   14.5176 F   0  0  0  0  0  0  0  0  0  0  0  0
   46.3146   13.3954   11.1522 Cl  0  0  0  0  0  0  0  0  0  0  0  0
   49.8962   11.3170   14.8200 C   0  0  0  0  0  0  0  0  0  0  0  0
   50.3582   12.5945   14.4899 N   0  0  0  0  0  0  0  0  0  0  0  0
   41.7840   10.5107   11.1388 Cl  0  0  0  0  0  0  0  0  0  0  0  0
   50.5794    8.9133   12.0186 O   0  0  0  0  0  0  0  0  0  0  0  0
   51.7610   12.8085   14.6817 C   0  0  0  0  0  0  0  0  0  0  0  0
   49.6829   13.4095   13.5735 C   0  0  0  0  0  0  0  0  0  0  0  0
   52.0829   12.7723   16.1542 C   0  0  0  0  0  0  0  0  0  0  0  0
   50.1600   14.8451   13.4893 C   0  0  0  0  0  0  0  0  0  0  0  0
   53.5653   13.0179   16.3985 C   0  0  0  0  0  0  0  0  0  0  0  0
   50.0491   15.6153   14.7599 C   0  0  0  0  0  0  0  0  0  0  0  0
   54.3834   11.9687   15.7173 C   0  0  0  0  0  0  0  0  0  0  0  0
   48.6072   15.6880   15.2499 C   0  0  0  0  0  0  0  0  0  0  0  0
   49.4026   11.4799   13.9745 H   0  0  0  0  0  0  0  0  0  0  0  0
   48.0114   11.8011   11.8598 H   0  0  0  0  0  0  0  0  0  0  0  0
   44.6436    7.1005   12.5359 H   0  0  0  0  0  0  0  0  0  0  0  0
   43.5619   12.6643   10.8744 H   0  0  0  0  0  0  0  0  0  0  0  0
   49.4534    7.4442   13.2717 H   0  0  0  0  0  0  0  0  0  0  0  0
   43.6642    8.6137   11.9693 H   0  0  0  0  0  0  0  0  0  0  0  0
   50.1464   10.8278   12.1348 H   0  0  0  0  0  0  0  0  0  0  0  0
   51.3555    9.8184   14.2303 H   0  0  0  0  0  0  0  0  0  0  0  0
   49.7639    9.2610   14.6887 H   0  0  0  0  0  0  0  0  0  0  0  0
   48.3086    5.3483   13.6294 H   0  0  0  0  0  0  0  0  0  0  0  0
   50.1340   11.1235   15.9141 H   0  0  0  0  0  0  0  0  0  0  0  0
   48.7508   11.3319   14.8585 H   0  0  0  0  0  0  0  0  0  0  0  0
   51.3923    8.7715   12.5553 H   0  0  0  0  0  0  0  0  0  0  0  0
   52.0448   13.7970   14.3003 H   0  0  0  0  0  0  0  0  0  0  0  0
   52.3949   12.0822   14.1345 H   0  0  0  0  0  0  0  0  0  0  0  0
   49.7875   13.0580   12.5022 H   0  0  0  0  0  0  0  0  0  0  0  0
   48.6020   13.4242   13.7777 H   0  0  0  0  0  0  0  0  0  0  0  0
   51.9019   11.7413   16.5829 H   0  0  0  0  0  0  0  0  0  0  0  0
   51.5184   13.4488   16.7813 H   0  0  0  0  0  0  0  0  0  0  0  0
   51.1362   14.9602   13.0268 H   0  0  0  0  0  0  0  0  0  0  0  0
   49.4171   15.3445   12.7802 H   0  0  0  0  0  0  0  0  0  0  0  0
   53.8564   14.0460   16.1505 H   0  0  0  0  0  0  0  0  0  0  0  0
   53.7135   12.8813   17.4959 H   0  0  0  0  0  0  0  0  0  0  0  0
   50.7333   15.3082   15.5564 H   0  0  0  0  0  0  0  0  0  0  0  0
   50.3481   16.6709   14.5102 H   0  0  0  0  0  0  0  0  0  0  0  0
   55.3781   11.8356   16.2026 H   0  0  0  0  0  0  0  0  0  0  0  0
   54.5452   12.2038   14.6442 H   0  0  0  0  0  0  0  0  0  0  0  0
   53.8493   11.0032   15.7801 H   0  0  0  0  0  0  0  0  0  0  0  0
   48.5018   16.5618   15.9376 H   0  0  0  0  0  0  0  0  0  0  0  0
   47.9259   15.8168   14.3940 H   0  0  0  0  0  0  0  0  0  0  0  0
   48.3829   14.7370   15.7677 H   0  0  0  0  0  0  0  0  0  0  0  0
  3  2  2  0
  4  3  1  0
  5  2  1  0
  6  5  2  0
  7 11  1  0
  8  6  1  0
  9  2  1  0
 10  4  1  0
 11  9  2  0
 12 15  1  0
 13  5  1  0
 14  3  1  0
 15 14  2  0
 16  6  1  0
 17 16  1  0
 18 11  1  0
 19  7  1  0
 20  7  1  0
 21  7  1  0
 22 10  1  0
 23 17  1  0
 24 23  1  0
 25 15  1  0
 26 16  1  0
 27 24  1  0
 28 24  1  0
 29 27  1  0
 30 28  1  0
 31 29  1  0
 32 30  1  0
 33 31  1  0
 34 32  1  0
 18 13  2  0
  8  4  2  0
 10 12  2  0
  1 35  1  0
  8 36  1  0
  9 37  1  0
 12 38  1  0
 13 39  1  0
 14 40  1  0
 16 41  1  1
 17 42  1  0
 17 43  1  0
 18 44  1  0
 23 45  1  0
 23 46  1  0
 26 47  1  0
 27 48  1  0
 27 49  1  0
 28 50  1  0
 28 51  1  0
 29 52  1  0
 29 53  1  0
 30 54  1  0
 30 55  1  0
 31 56  1  0
 31 57  1  0
 32 58  1  0
 32 59  1  0
 33 60  1  0
 33 61  1  0
 33 62  1  0
 34 63  1  0
 34 64  1  0
 34 65  1  0
M  END
> <Uni-Dock RESULT> 
ENERGY=   -4.627  LOWER_BOUND=    2.216  UPPER_BOUND=    2.696
INTER + INTRA:          -4.627
INTER:                  -4.627
INTRA:                   0.000
UNBOUND:                 0.000

$$$$

     RDKit          3D

 65 66  0  0  0  0  0  0  0  0999 V2000
   49.2263    8.5573   14.1201 Cl  0  0  0  0  0  0  0  0  0  0  0  0
   47.5885   10.1405   11.8975 C   0  0  0  0  0  0  0  0  0  0  0  0
   48.7529   10.7905   11.6281 C   0  0  0  0  0  0  0  0  0  0  0  0
   49.9341   10.1877   12.0020 C   0  0  0  0  0  0  0  0  0  0  0  0
   47.5670    8.9012   12.5320 C   0  0  0  0  0  0  0  0  0  0  0  0
   48.7601    8.2665   12.9236 C   0  0  0  0  0  0  0  0  0  0  0  0
   43.8820   10.7762   11.3578 C   0  0  0  0  0  0  0  0  0  0  0  0
   49.9100    8.9616   12.6299 C   0  0  0  0  0  0  0  0  0  0  0  0
   46.3994   10.7652   11.5087 C   0  0  0  0  0  0  0  0  0  0  0  0
   51.1719   10.7977   11.7567 C   0  0  0  0  0  0  0  0  0  0  0  0
   45.1642   10.1402   11.7586 C   0  0  0  0  0  0  0  0  0  0  0  0
   51.2594   12.0203   11.1342 C   0  0  0  0  0  0  0  0  0  0  0  0
   46.3412    8.3103   12.7650 C   0  0  0  0  0  0  0  0  0  0  0  0
   48.8508   12.0151   11.0048 C   0  0  0  0  0  0  0  0  0  0  0  0
   50.0865   12.6278   10.7578 C   0  0  0  0  0  0  0  0  0  0  0  0
   48.7082    6.9536   13.5873 C   0  0  1  0  0  0  0  0  0  0  0  0
   48.4620    6.9745   15.0508 C   0  0  0  0  0  0  0  0  0  0  0  0
   45.1386    8.9177   12.3849 C   0  0  0  0  0  0  0  0  0  0  0  0
   44.1466   12.1090   11.0300 F   0  0  0  0  0  0  0  0  0  0  0  0
   43.3577   10.1921   10.2239 F   0  0  0  0  0  0  0  0  0  0  0  0
   42.9491   10.7437   12.3714 F   0  0  0  0  0  0  0  0  0  0  0  0
   52.6750   10.0310   12.2294 Cl  0  0  0  0  0  0  0  0  0  0  0  0
   49.4031    7.6072   15.9739 C   0  0  0  0  0  0  0  0  0  0  0  0
   50.6982    7.1370   16.2106 N   0  0  0  0  0  0  0  0  0  0  0  0
   50.1406   14.1870    9.9596 Cl  0  0  0  0  0  0  0  0  0  0  0  0
   47.9618    5.9873   12.9094 O   0  0  0  0  0  0  0  0  0  0  0  0
   50.7798    5.8699   16.8726 C   0  0  0  0  0  0  0  0  0  0  0  0
   51.7868    7.5494   15.4328 C   0  0  0  0  0  0  0  0  0  0  0  0
   50.2734    6.0027   18.2865 C   0  0  0  0  0  0  0  0  0  0  0  0
   53.1549    7.1469   15.9447 C   0  0  0  0  0  0  0  0  0  0  0  0
   50.3652    4.6772   19.0295 C   0  0  0  0  0  0  0  0  0  0  0  0
   53.4960    7.6750   17.2955 C   0  0  0  0  0  0  0  0  0  0  0  0
   49.5447    3.6373   18.3370 C   0  0  0  0  0  0  0  0  0  0  0  0
   53.4764    9.1992   17.3254 C   0  0  0  0  0  0  0  0  0  0  0  0
   49.8425    7.8327   15.1130 H   0  0  0  0  0  0  0  0  0  0  0  0
   50.8663    8.5411   12.8858 H   0  0  0  0  0  0  0  0  0  0  0  0
   46.3422   11.6985   11.0264 H   0  0  0  0  0  0  0  0  0  0  0  0
   52.1889   12.5303   10.9232 H   0  0  0  0  0  0  0  0  0  0  0  0
   46.2272    7.3563   13.2459 H   0  0  0  0  0  0  0  0  0  0  0  0
   47.9982   12.5431   10.6884 H   0  0  0  0  0  0  0  0  0  0  0  0
   49.7624    6.5376   13.4761 H   0  0  0  0  0  0  0  0  0  0  0  0
   48.0992    5.9598   15.4182 H   0  0  0  0  0  0  0  0  0  0  0  0
   47.4978    7.5832   15.1795 H   0  0  0  0  0  0  0  0  0  0  0  0
   44.1767    8.4412   12.5751 H   0  0  0  0  0  0  0  0  0  0  0  0
   48.8688    7.6983   16.9725 H   0  0  0  0  0  0  0  0  0  0  0  0
   49.4560    8.7106   15.6681 H   0  0  0  0  0  0  0  0  0  0  0  0
   47.6244    5.3663   13.5946 H   0  0  0  0  0  0  0  0  0  0  0  0
   51.8243    5.5384   16.9199 H   0  0  0  0  0  0  0  0  0  0  0  0
   50.2324    5.0630   16.3453 H   0  0  0  0  0  0  0  0  0  0  0  0
   51.7815    7.1097   14.3892 H   0  0  0  0  0  0  0  0  0  0  0  0
   51.7850    8.6409   15.2957 H   0  0  0  0  0  0  0  0  0  0  0  0
   49.1693    6.2482   18.2996 H   0  0  0  0  0  0  0  0  0  0  0  0
   50.7456    6.7648   18.8912 H   0  0  0  0  0  0  0  0  0  0  0  0
   53.3647    6.0848   15.8573 H   0  0  0  0  0  0  0  0  0  0  0  0
   53.8823    7.6689   15.2357 H   0  0  0  0  0  0  0  0  0  0  0  0
   51.4054    4.3810   19.2116 H   0  0  0  0  0  0  0  0  0  0  0  0
   49.8877    4.8577   20.0217 H   0  0  0  0  0  0  0  0  0  0  0  0
   52.9265    7.2455   18.1251 H   0  0  0  0  0  0  0  0  0  0  0  0
   54.5626    7.3722   17.4870 H   0  0  0  0  0  0  0  0  0  0  0  0
   49.2234    2.8282   19.0334 H   0  0  0  0  0  0  0  0  0  0  0  0
   50.0943    3.1742   17.4907 H   0  0  0  0  0  0  0  0  0  0  0  0
   48.6320    4.1129   17.9341 H   0  0  0  0  0  0  0  0  0  0  0  0
   54.0968    9.5528   18.1842 H   0  0  0  0  0  0  0  0  0  0  0  0
   53.8949    9.5984   16.3880 H   0  0  0  0  0  0  0  0  0  0  0  0
   52.4224    9.5169   17.4306 H   0  0  0  0  0  0  0  0  0  0  0  0
  3  2  2  0
  4  3  1  0
  5  2  1  0
  6  5  2  0
  7 11  1  0
  8  6  1  0
  9  2  1  0
 10  4  1  0
 11  9  2  0
 12 15  1  0
 13  5  1  0
 14  3  1  0
 15 14  2  0
 16  6  1  0
 17 16  1  0
 18 11  1  0
 19  7  1  0
 20  7  1  0
 21  7  1  0
 22 10  1  0
 23 17  1  0
 24 23  1  0
 25 15  1  0
 26 16  1  0
 27 24  1  0
 28 24  1  0
 29 27  1  0
 30 28  1  0
 31 29  1  0
 32 30  1  0
 33 31  1  0
 34 32  1  0
 18 13  2  0
  8  4  2  0
 10 12  2  0
  1 35  1  0
  8 36  1  0
  9 37  1  0
 12 38  1  0
 13 39  1  0
 14 40  1  0
 16 41  1  1
 17 42  1  0
 17 43  1  0
 18 44  1  0
 23 45  1  0
 23 46  1  0
 26 47  1  0
 27 48  1  0
 27 49  1  0
 28 50  1  0
 28 51  1  0
 29 52  1  0
 29 53  1  0
 30 54  1  0
 30 55  1  0
 31 56  1  0
 31 57  1  0
 32 58  1  0
 32 59  1  0
 33 60  1  0
 33 61  1  0
 33 62  1  0
 34 63  1  0
 34 64  1  0
 34 65  1  0
M  END
> <Uni-Dock RESULT> 
ENERGY=   -4.411  LOWER_BOUND=    3.660  UPPER_BOUND=    5.064
INTER + INTRA:          -4.411
INTER:                  -4.411
INTRA:                   0.000
UNBOUND:                 0.000

$$$$

     RDKit          3D

 65 66  0  0  0  0  0  0  0  0999 V2000
   49.0399   10.1871   16.8647 Cl  0  0  0  0  0  0  0  0  0  0  0  0
   48.5291    7.4857   18.4678 C   0  0  0  0  0  0  0  0  0  0  0  0
   47.9927    8.2688   19.4424 C   0  0  0  0  0  0  0  0  0  0  0  0
   47.5428    9.5233   19.0926 C   0  0  0  0  0  0  0  0  0  0  0  0
   48.6310    7.9186   17.1484 C   0  0  0  0  0  0  0  0  0  0  0  0
   48.1791    9.1954   16.7675 C   0  0  0  0  0  0  0  0  0  0  0  0
   50.0260    4.0015   18.2364 C   0  0  0  0  0  0  0  0  0  0  0  0
   47.6450    9.9493   17.7864 C   0  0  0  0  0  0  0  0  0  0  0  0
   48.9780    6.2146   18.8398 C   0  0  0  0  0  0  0  0  0  0  0  0
   46.9783   10.3851   20.0428 C   0  0  0  0  0  0  0  0  0  0  0  0
   49.5399    5.3588   17.8750 C   0  0  0  0  0  0  0  0  0  0  0  0
   46.8499   10.0159   21.3609 C   0  0  0  0  0  0  0  0  0  0  0  0
   49.1865    7.0587   16.2221 C   0  0  0  0  0  0  0  0  0  0  0  0
   47.8594    7.9079   20.7652 C   0  0  0  0  0  0  0  0  0  0  0  0
   47.2954    8.7668   21.7178 C   0  0  0  0  0  0  0  0  0  0  0  0
   48.2936    9.6251   15.3641 C   0  0  1  0  0  0  0  0  0  0  0  0
   49.6099   10.1784   14.9593 C   0  0  0  0  0  0  0  0  0  0  0  0
   49.6427    5.7824   16.5722 C   0  0  0  0  0  0  0  0  0  0  0  0
   50.0940    3.9257   19.6304 F   0  0  0  0  0  0  0  0  0  0  0  0
   49.1425    3.0217   17.8348 F   0  0  0  0  0  0  0  0  0  0  0  0
   51.2751    3.7433   17.7150 F   0  0  0  0  0  0  0  0  0  0  0  0
   46.4035   11.9799   19.5989 Cl  0  0  0  0  0  0  0  0  0  0  0  0
   50.1448   11.3967   15.5659 C   0  0  0  0  0  0  0  0  0  0  0  0
   49.5757   12.6632   15.4032 N   0  0  0  0  0  0  0  0  0  0  0  0
   47.1548    8.2451   23.3849 Cl  0  0  0  0  0  0  0  0  0  0  0  0
   47.7540    8.7321   14.4358 O   0  0  0  0  0  0  0  0  0  0  0  0
   49.6426   13.2005   14.0776 C   0  0  0  0  0  0  0  0  0  0  0  0
   48.5775   13.1397   16.2616 C   0  0  0  0  0  0  0  0  0  0  0  0
   51.0776   13.4967   13.7222 C   0  0  0  0  0  0  0  0  0  0  0  0
   48.2226   14.6052   16.1132 C   0  0  0  0  0  0  0  0  0  0  0  0
   51.1859   14.0906   12.3247 C   0  0  0  0  0  0  0  0  0  0  0  0
   49.3490   15.5483   16.3616 C   0  0  0  0  0  0  0  0  0  0  0  0
   50.6434   13.1345   11.3120 C   0  0  0  0  0  0  0  0  0  0  0  0
   49.9067   15.3999   17.7727 C   0  0  0  0  0  0  0  0  0  0  0  0
   49.3156   11.2977   16.1023 H   0  0  0  0  0  0  0  0  0  0  0  0
   47.2659   10.9340   17.5778 H   0  0  0  0  0  0  0  0  0  0  0  0
   48.9316    5.8240   19.8156 H   0  0  0  0  0  0  0  0  0  0  0  0
   46.4219   10.6441   22.1295 H   0  0  0  0  0  0  0  0  0  0  0  0
   49.3040    7.3054   15.1830 H   0  0  0  0  0  0  0  0  0  0  0  0
   48.1780    6.9692   21.1159 H   0  0  0  0  0  0  0  0  0  0  0  0
   47.5708   10.5006   15.2755 H   0  0  0  0  0  0  0  0  0  0  0  0
   49.7292   10.1610   13.8271 H   0  0  0  0  0  0  0  0  0  0  0  0
   50.3715    9.3697   15.2467 H   0  0  0  0  0  0  0  0  0  0  0  0
   50.0802    5.1127   15.8315 H   0  0  0  0  0  0  0  0  0  0  0  0
   51.2393   11.4564   15.2667 H   0  0  0  0  0  0  0  0  0  0  0  0
   50.2500   11.1750   16.6855 H   0  0  0  0  0  0  0  0  0  0  0  0
   48.2563    8.8641   13.5996 H   0  0  0  0  0  0  0  0  0  0  0  0
   49.0828   14.1424   14.0264 H   0  0  0  0  0  0  0  0  0  0  0  0
   49.1885   12.5395   13.3124 H   0  0  0  0  0  0  0  0  0  0  0  0
   47.5768   12.6329   16.1068 H   0  0  0  0  0  0  0  0  0  0  0  0
   48.8418   12.9609   17.3144 H   0  0  0  0  0  0  0  0  0  0  0  0
   51.6848   12.5442   13.6628 H   0  0  0  0  0  0  0  0  0  0  0  0
   51.6144   14.1388   14.4070 H   0  0  0  0  0  0  0  0  0  0  0  0
   47.6887   14.8402   15.1969 H   0  0  0  0  0  0  0  0  0  0  0  0
   47.4859   14.8010   16.9635 H   0  0  0  0  0  0  0  0  0  0  0  0
   50.7502   15.0959   12.2720 H   0  0  0  0  0  0  0  0  0  0  0  0
   52.2795   14.1866   12.1253 H   0  0  0  0  0  0  0  0  0  0  0  0
   50.1427   15.5405   15.6087 H   0  0  0  0  0  0  0  0  0  0  0  0
   48.9066   16.5814   16.3073 H   0  0  0  0  0  0  0  0  0  0  0  0
   51.0827   13.3041   10.3015 H   0  0  0  0  0  0  0  0  0  0  0  0
   49.5382   13.2031   11.2302 H   0  0  0  0  0  0  0  0  0  0  0  0
   50.9012   12.1047   11.6196 H   0  0  0  0  0  0  0  0  0  0  0  0
   50.4417   16.3398   18.0517 H   0  0  0  0  0  0  0  0  0  0  0  0
   49.0844   15.2265   18.4849 H   0  0  0  0  0  0  0  0  0  0  0  0
   50.5906   14.5309   17.7711 H   0  0  0  0  0  0  0  0  0  0  0  0
  3  2  2  0
  4  3  1  0
  5  2  1  0
  6  5  2  0
  7 11  1  0
  8  6  1  0
  9  2  1  0
 10  4  1  0
 11  9  2  0
 12 15  1  0
 13  5  1  0
 14  3  1  0
 15 14  2  0
 16  6  1  0
 17 16  1  0
 18 11  1  0
 19  7  1  0
 20  7  1  0
 21  7  1  0
 22 10  1  0
 23 17  1  0
 24 23  1  0
 25 15  1  0
 26 16  1  0
 27 24  1  0
 28 24  1  0
 29 27  1  0
 30 28  1  0
 31 29  1  0
 32 30  1  0
 33 31  1  0
 34 32  1  0
 18 13  2  0
  8  4  2  0
 10 12  2  0
  1 35  1  0
  8 36  1  0
  9 37  1  0
 12 38  1  0
 13 39  1  0
 14 40  1  0
 16 41  1  1
 17 42  1  0
 17 43  1  0
 18 44  1  0
 23 45  1  0
 23 46  1  0
 26 47  1  0
 27 48  1  0
 27 49  1  0
 28 50  1  0
 28 51  1  0
 29 52  1  0
 29 53  1  0
 30 54  1  0
 30 55  1  0
 31 56  1  0
 31 57  1  0
 32 58  1  0
 32 59  1  0
 33 60  1  0
 33 61  1  0
 33 62  1  0
 34 63  1  0
 34 64  1  0
 34 65  1  0
M  END
> <Uni-Dock RESULT> 
ENERGY=   -4.373  LOWER_BOUND=    4.928  UPPER_BOUND=    7.146
INTER + INTRA:          -4.373
INTER:                  -4.373
INTRA:                   0.000
UNBOUND:                 0.000

$$$$
