
     RDKit          3D

 65 66  0  0  0  0  0  0  0  0999 V2000
   48.5375    9.9120   14.6356 Cl  0  0  0  0  0  0  0  0  0  0  0  0
   45.2521    7.6581   12.1634 C   0  0  0  0  0  0  0  0  0  0  0  0
   45.0856    9.0129   11.8586 C   0  0  0  0  0  0  0  0  0  0  0  0
   46.0876    9.9137   12.1493 C   0  0  0  0  0  0  0  0  0  0  0  0
   46.4391    7.2535   12.7594 C   0  0  0  0  0  0  0  0  0  0  0  0
   47.4638    8.1332   13.0637 C   0  0  0  0  0  0  0  0  0  0  0  0
   43.3337    4.4040   11.8492 C   0  0  0  0  0  0  0  0  0  0  0  0
   47.2333    9.4602   12.7346 C   0  0  0  0  0  0  0  0  0  0  0  0
   44.2467    6.7564   11.8705 C   0  0  0  0  0  0  0  0  0  0  0  0
   45.9220   11.2530   11.8503 C   0  0  0  0  0  0  0  0  0  0  0  0
   44.3969    5.3973   12.1688 C   0  0  0  0  0  0  0  0  0  0  0  0
   44.7679   11.7248   11.2622 C   0  0  0  0  0  0  0  0  0  0  0  0
   46.5658    5.9038   13.0480 C   0  0  0  0  0  0  0  0  0  0  0  0
   43.9325    9.4707   11.2749 C   0  0  0  0  0  0  0  0  0  0  0  0
   43.7634   10.8298   10.9712 C   0  0  0  0  0  0  0  0  0  0  0  0
   48.7398    7.7212   13.6866 C   0  0  1  0  0  0  0  0  0  0  0  0
   48.6096    7.7537   15.1868 C   0  0  0  0  0  0  0  0  0  0  0  0
   45.5702    4.9884   12.7611 C   0  0  0  0  0  0  0  0  0  0  0  0
   43.2642    3.3802   12.7874 F   0  0  0  0  0  0  0  0  0  0  0  0
   42.0925    4.9947   11.7796 F   0  0  0  0  0  0  0  0  0  0  0  0
   43.5961    3.7606   10.6302 F   0  0  0  0  0  0  0  0  0  0  0  0
   47.1694   12.4317   12.2018 Cl  0  0  0  0  0  0  0  0  0  0  0  0
   48.3002    9.1421   15.6877 C   0  0  0  0  0  0  0  0  0  0  0  0
   49.4047   10.0880   15.3436 N   0  0  0  0  0  0  0  0  0  0  0  0
   42.2689   11.4008   10.2208 Cl  0  0  0  0  0  0  0  0  0  0  0  0
   49.3083    6.5796   13.2050 O   0  0  0  0  0  0  0  0  0  0  0  0
   48.7895   11.3619   15.7704 C   0  0  0  0  0  0  0  0  0  0  0  0
   50.5044    9.8258   16.2647 C   0  0  0  0  0  0  0  0  0  0  0  0
   49.6793   12.5359   15.6959 C   0  0  0  0  0  0  0  0  0  0  0  0
   51.8437   10.2696   15.7721 C   0  0  0  0  0  0  0  0  0  0  0  0
   48.8855   13.7957   16.1309 C   0  0  0  0  0  0  0  0  0  0  0  0
   52.9474   10.0370   16.7642 C   0  0  0  0  0  0  0  0  0  0  0  0
   49.8041   15.0010   16.0562 C   0  0  0  0  0  0  0  0  0  0  0  0
   52.7862   10.7797   18.0381 C   0  0  0  0  0  0  0  0  0  0  0  0
   47.5949    9.2232   13.9256 H   0  0  0  0  0  0  0  0  0  0  0  0
   48.0018   10.2021   12.9448 H   0  0  0  0  0  0  0  0  0  0  0  0
   43.3111    7.0156   11.4088 H   0  0  0  0  0  0  0  0  0  0  0  0
   44.6224   12.7650   11.0235 H   0  0  0  0  0  0  0  0  0  0  0  0
   47.4447    5.5143   13.5205 H   0  0  0  0  0  0  0  0  0  0  0  0
   43.0931    8.8490   11.0133 H   0  0  0  0  0  0  0  0  0  0  0  0
   49.5124    8.5414   13.4659 H   0  0  0  0  0  0  0  0  0  0  0  0
   47.7312    7.1277   15.5207 H   0  0  0  0  0  0  0  0  0  0  0  0
   49.5392    7.3962   15.6116 H   0  0  0  0  0  0  0  0  0  0  0  0
   45.6692    3.9203   12.9848 H   0  0  0  0  0  0  0  0  0  0  0  0
   48.2106    9.0914   16.7845 H   0  0  0  0  0  0  0  0  0  0  0  0
   47.3524    9.4650   15.2089 H   0  0  0  0  0  0  0  0  0  0  0  0
   50.1249    6.6752   12.6972 H   0  0  0  0  0  0  0  0  0  0  0  0
   47.9213   11.5008   15.0722 H   0  0  0  0  0  0  0  0  0  0  0  0
   48.4210   11.1813   16.8100 H   0  0  0  0  0  0  0  0  0  0  0  0
   50.5733    8.7665   16.5803 H   0  0  0  0  0  0  0  0  0  0  0  0
   50.2684   10.3830   17.2007 H   0  0  0  0  0  0  0  0  0  0  0  0
   50.1630   12.6939   14.7464 H   0  0  0  0  0  0  0  0  0  0  0  0
   50.4652   12.4376   16.5084 H   0  0  0  0  0  0  0  0  0  0  0  0
   52.1048    9.5504   14.9048 H   0  0  0  0  0  0  0  0  0  0  0  0
   51.9335   11.2700   15.3514 H   0  0  0  0  0  0  0  0  0  0  0  0
   48.0277   13.9499   15.4606 H   0  0  0  0  0  0  0  0  0  0  0  0
   48.5925   13.6102   17.1873 H   0  0  0  0  0  0  0  0  0  0  0  0
   53.9183   10.2815   16.2644 H   0  0  0  0  0  0  0  0  0  0  0  0
   52.9779    8.9464   16.9892 H   0  0  0  0  0  0  0  0  0  0  0  0
   49.2566   15.9301   15.7499 H   0  0  0  0  0  0  0  0  0  0  0  0
   50.1688   15.2241   17.1014 H   0  0  0  0  0  0  0  0  0  0  0  0
   50.6538   14.8612   15.3758 H   0  0  0  0  0  0  0  0  0  0  0  0
   53.4211   10.2850   18.8133 H   0  0  0  0  0  0  0  0  0  0  0  0
   53.2142   11.8116   17.8808 H   0  0  0  0  0  0  0  0  0  0  0  0
   51.7573   10.8363   18.3641 H   0  0  0  0  0  0  0  0  0  0  0  0
  3  2  2  0
  4  3  1  0
  5  2  1  0
  6  5  2  0
  7 11  1  0
  8  6  1  0
  9  2  1  0
 10  4  1  0
 11  9  2  0
 12 15  1  0
 13  5  1  0
 14  3  1  0
 15 14  2  0
 16  6  1  0
 17 16  1  0
 18 11  1  0
 19  7  1  0
 20  7  1  0
 21  7  1  0
 22 10  1  0
 23 17  1  0
 24 23  1  0
 25 15  1  0
 26 16  1  0
 27 24  1  0
 28 24  1  0
 29 27  1  0
 30 28  1  0
 31 29  1  0
 32 30  1  0
 33 31  1  0
 34 32  1  0
 18 13  2  0
  8  4  2  0
 10 12  2  0
  1 35  1  0
  8 36  1  0
  9 37  1  0
 12 38  1  0
 13 39  1  0
 14 40  1  0
 16 41  1  1
 17 42  1  0
 17 43  1  0
 18 44  1  0
 23 45  1  0
 23 46  1  0
 26 47  1  0
 27 48  1  0
 27 49  1  0
 28 50  1  0
 28 51  1  0
 29 52  1  0
 29 53  1  0
 30 54  1  0
 30 55  1  0
 31 56  1  0
 31 57  1  0
 32 58  1  0
 32 59  1  0
 33 60  1  0
 33 61  1  0
 33 62  1  0
 34 63  1  0
 34 64  1  0
 34 65  1  0
M  END
> <Uni-Dock RESULT> 
ENERGY=   -5.866  LOWER_BOUND=    0.000  UPPER_BOUND=    0.000
INTER + INTRA:          -5.866
INTER:                  -5.866
INTRA:                   0.000
UNBOUND:                 0.000

$$$$

     RDKit          3D

 65 66  0  0  0  0  0  0  0  0999 V2000
   49.9885   10.3270   11.7131 Cl  0  0  0  0  0  0  0  0  0  0  0  0
   45.3784    9.5599   12.0935 C   0  0  0  0  0  0  0  0  0  0  0  0
   45.9904    8.3726   12.5078 C   0  0  0  0  0  0  0  0  0  0  0  0
   47.3293    8.3643   12.8357 C   0  0  0  0  0  0  0  0  0  0  0  0
   46.1484   10.7132   12.0226 C   0  0  0  0  0  0  0  0  0  0  0  0
   47.4946   10.7375   12.3450 C   0  0  0  0  0  0  0  0  0  0  0  0
   41.9589   10.7811   11.0055 C   0  0  0  0  0  0  0  0  0  0  0  0
   48.0373    9.5271   12.7483 C   0  0  0  0  0  0  0  0  0  0  0  0
   44.0359    9.5664   11.7660 C   0  0  0  0  0  0  0  0  0  0  0  0
   47.9346    7.1903   13.2428 C   0  0  0  0  0  0  0  0  0  0  0  0
   43.4079   10.7458   11.3496 C   0  0  0  0  0  0  0  0  0  0  0  0
   47.2314    6.0079   13.3319 C   0  0  0  0  0  0  0  0  0  0  0  0
   45.5069   11.8690   11.6061 C   0  0  0  0  0  0  0  0  0  0  0  0
   45.2811    7.2022   12.5912 C   0  0  0  0  0  0  0  0  0  0  0  0
   45.8945    6.0101   13.0041 C   0  0  0  0  0  0  0  0  0  0  0  0
   48.3290   11.9567   12.2883 C   0  0  1  0  0  0  0  0  0  0  0  0
   48.9175   12.1090   10.9102 C   0  0  0  0  0  0  0  0  0  0  0  0
   44.1648   11.8930   11.2753 C   0  0  0  0  0  0  0  0  0  0  0  0
   41.6782   11.6781    9.9810 F   0  0  0  0  0  0  0  0  0  0  0  0
   41.4997    9.5430   10.6173 F   0  0  0  0  0  0  0  0  0  0  0  0
   41.1937   11.2247   12.0948 F   0  0  0  0  0  0  0  0  0  0  0  0
   49.6328    7.1347   13.6693 Cl  0  0  0  0  0  0  0  0  0  0  0  0
   49.8087   10.9454   10.5550 C   0  0  0  0  0  0  0  0  0  0  0  0
   50.9661   10.8577   11.4963 N   0  0  0  0  0  0  0  0  0  0  0  0
   44.9639    4.5113   13.1033 Cl  0  0  0  0  0  0  0  0  0  0  0  0
   47.7684   13.0980   12.7800 O   0  0  0  0  0  0  0  0  0  0  0  0
   51.5559    9.5771   11.0539 C   0  0  0  0  0  0  0  0  0  0  0  0
   51.9107   11.9039   11.1226 C   0  0  0  0  0  0  0  0  0  0  0  0
   52.8354    9.2279   11.6993 C   0  0  0  0  0  0  0  0  0  0  0  0
   52.8391   12.3195   12.2174 C   0  0  0  0  0  0  0  0  0  0  0  0
   53.3048    7.8477   11.1689 C   0  0  0  0  0  0  0  0  0  0  0  0
   53.8358   13.3579   11.7876 C   0  0  0  0  0  0  0  0  0  0  0  0
   54.6224    7.4926   11.8321 C   0  0  0  0  0  0  0  0  0  0  0  0
   54.7525   12.9116   10.7102 C   0  0  0  0  0  0  0  0  0  0  0  0
   48.6390   10.1388   11.8161 H   0  0  0  0  0  0  0  0  0  0  0  0
   49.0906    9.4797   13.0192 H   0  0  0  0  0  0  0  0  0  0  0  0
   43.3949    8.7043   11.8051 H   0  0  0  0  0  0  0  0  0  0  0  0
   47.6879    5.0844   13.6464 H   0  0  0  0  0  0  0  0  0  0  0  0
   46.0341   12.7967   11.5115 H   0  0  0  0  0  0  0  0  0  0  0  0
   44.2352    7.1048   12.3540 H   0  0  0  0  0  0  0  0  0  0  0  0
   49.2469   11.7782   12.9545 H   0  0  0  0  0  0  0  0  0  0  0  0
   48.1027   12.0931   10.1288 H   0  0  0  0  0  0  0  0  0  0  0  0
   49.4768   13.0359   10.8853 H   0  0  0  0  0  0  0  0  0  0  0  0
   43.6542   12.8061   10.9492 H   0  0  0  0  0  0  0  0  0  0  0  0
   50.1958   11.1169    9.5380 H   0  0  0  0  0  0  0  0  0  0  0  0
   49.1925   10.0242   10.6141 H   0  0  0  0  0  0  0  0  0  0  0  0
   48.1344   13.4488   13.6027 H   0  0  0  0  0  0  0  0  0  0  0  0
   50.7800    8.8079   11.3122 H   0  0  0  0  0  0  0  0  0  0  0  0
   51.6566    9.6630    9.9441 H   0  0  0  0  0  0  0  0  0  0  0  0
   51.4262   12.8073   10.7034 H   0  0  0  0  0  0  0  0  0  0  0  0
   52.5156   11.4936   10.2813 H   0  0  0  0  0  0  0  0  0  0  0  0
   52.8339    9.2468   12.7763 H   0  0  0  0  0  0  0  0  0  0  0  0
   53.6335    9.9344   11.3102 H   0  0  0  0  0  0  0  0  0  0  0  0
   52.1783   12.8806   12.9829 H   0  0  0  0  0  0  0  0  0  0  0  0
   53.3432   11.5421   12.7897 H   0  0  0  0  0  0  0  0  0  0  0  0
   52.5572    7.0782   11.4097 H   0  0  0  0  0  0  0  0  0  0  0  0
   53.4583    7.9875   10.0767 H   0  0  0  0  0  0  0  0  0  0  0  0
   54.3982   13.6934   12.6948 H   0  0  0  0  0  0  0  0  0  0  0  0
   53.2675   14.2455   11.4265 H   0  0  0  0  0  0  0  0  0  0  0  0
   54.7204    6.3904   12.0120 H   0  0  0  0  0  0  0  0  0  0  0  0
   55.4521    7.7312   11.1042 H   0  0  0  0  0  0  0  0  0  0  0  0
   54.7866    8.0135   12.7841 H   0  0  0  0  0  0  0  0  0  0  0  0
   55.1877   13.8187   10.2240 H   0  0  0  0  0  0  0  0  0  0  0  0
   55.6089   12.3672   11.2031 H   0  0  0  0  0  0  0  0  0  0  0  0
   54.2663   12.2809    9.9794 H   0  0  0  0  0  0  0  0  0  0  0  0
  3  2  2  0
  4  3  1  0
  5  2  1  0
  6  5  2  0
  7 11  1  0
  8  6  1  0
  9  2  1  0
 10  4  1  0
 11  9  2  0
 12 15  1  0
 13  5  1  0
 14  3  1  0
 15 14  2  0
 16  6  1  0
 17 16  1  0
 18 11  1  0
 19  7  1  0
 20  7  1  0
 21  7  1  0
 22 10  1  0
 23 17  1  0
 24 23  1  0
 25 15  1  0
 26 16  1  0
 27 24  1  0
 28 24  1  0
 29 27  1  0
 30 28  1  0
 31 29  1  0
 32 30  1  0
 33 31  1  0
 34 32  1  0
 18 13  2  0
  8  4  2  0
 10 12  2  0
  1 35  1  0
  8 36  1  0
  9 37  1  0
 12 38  1  0
 13 39  1  0
 14 40  1  0
 16 41  1  1
 17 42  1  0
 17 43  1  0
 18 44  1  0
 23 45  1  0
 23 46  1  0
 26 47  1  0
 27 48  1  0
 27 49  1  0
 28 50  1  0
 28 51  1  0
 29 52  1  0
 29 53  1  0
 30 54  1  0
 30 55  1  0
 31 56  1  0
 31 57  1  0
 32 58  1  0
 32 59  1  0
 33 60  1  0
 33 61  1  0
 33 62  1  0
 34 63  1  0
 34 64  1  0
 34 65  1  0
M  END
> <Uni-Dock RESULT> 
ENERGY=   -5.115  LOWER_BOUND=    3.790  UPPER_BOUND=    5.771
INTER + INTRA:          -5.115
INTER:                  -5.115
INTRA:                   0.000
UNBOUND:                 0.000

$$$$

     RDKit          3D

 65 66  0  0  0  0  0  0  0  0999 V2000
   49.2926   11.1778   18.0709 Cl  0  0  0  0  0  0  0  0  0  0  0  0
   47.9144    6.8202   19.1187 C   0  0  0  0  0  0  0  0  0  0  0  0
   47.7213    7.5645   20.2870 C   0  0  0  0  0  0  0  0  0  0  0  0
   47.7091    8.9419   20.2335 C   0  0  0  0  0  0  0  0  0  0  0  0
   48.0916    7.5000   17.9211 C   0  0  0  0  0  0  0  0  0  0  0  0
   48.0845    8.8817   17.8344 C   0  0  0  0  0  0  0  0  0  0  0  0
   48.1186    3.1901   18.0469 C   0  0  0  0  0  0  0  0  0  0  0  0
   47.8876    9.5571   19.0292 C   0  0  0  0  0  0  0  0  0  0  0  0
   47.9254    5.4395   19.1743 C   0  0  0  0  0  0  0  0  0  0  0  0
   47.5207    9.6774   21.3884 C   0  0  0  0  0  0  0  0  0  0  0  0
   48.1174    4.6795   18.0149 C   0  0  0  0  0  0  0  0  0  0  0  0
   47.3427    9.0681   22.6122 C   0  0  0  0  0  0  0  0  0  0  0  0
   48.2820    6.7279   16.7859 C   0  0  0  0  0  0  0  0  0  0  0  0
   47.5468    6.9474   21.4988 C   0  0  0  0  0  0  0  0  0  0  0  0
   47.3556    7.6930   22.6716 C   0  0  0  0  0  0  0  0  0  0  0  0
   48.2588    9.6243   16.5679 C   0  0  1  0  0  0  0  0  0  0  0  0
   49.7236    9.8707   16.3179 C   0  0  0  0  0  0  0  0  0  0  0  0
   48.2953    5.3460   16.8237 C   0  0  0  0  0  0  0  0  0  0  0  0
   48.9974    2.6398   17.1207 F   0  0  0  0  0  0  0  0  0  0  0  0
   48.4636    2.7101   19.2899 F   0  0  0  0  0  0  0  0  0  0  0  0
   46.8592    2.6783   17.6993 F   0  0  0  0  0  0  0  0  0  0  0  0
   47.4975   11.4289   21.3661 Cl  0  0  0  0  0  0  0  0  0  0  0  0
   50.3406   10.7073   17.4105 C   0  0  0  0  0  0  0  0  0  0  0  0
   49.6956   12.0537   17.4753 N   0  0  0  0  0  0  0  0  0  0  0  0
   47.1344    6.8793   24.2246 Cl  0  0  0  0  0  0  0  0  0  0  0  0
   47.5860    9.1416   15.4849 O   0  0  0  0  0  0  0  0  0  0  0  0
   50.3354   12.5825   18.6978 C   0  0  0  0  0  0  0  0  0  0  0  0
   50.2132   12.8379   16.3601 C   0  0  0  0  0  0  0  0  0  0  0  0
   50.0211   13.9910   19.0026 C   0  0  0  0  0  0  0  0  0  0  0  0
   49.3370   13.9746   15.9433 C   0  0  0  0  0  0  0  0  0  0  0  0
   50.7247   14.3870   20.3272 C   0  0  0  0  0  0  0  0  0  0  0  0
   49.9216   14.7968   14.8304 C   0  0  0  0  0  0  0  0  0  0  0  0
   50.4022   15.8369   20.6364 C   0  0  0  0  0  0  0  0  0  0  0  0
   51.2043   15.4587   15.1725 C   0  0  0  0  0  0  0  0  0  0  0  0
   48.8952    9.8986   18.3409 H   0  0  0  0  0  0  0  0  0  0  0  0
   47.8678   10.6455   19.0284 H   0  0  0  0  0  0  0  0  0  0  0  0
   47.7915    4.8646   20.0727 H   0  0  0  0  0  0  0  0  0  0  0  0
   47.1956    9.6263   23.5216 H   0  0  0  0  0  0  0  0  0  0  0  0
   48.4399    7.1764   15.8260 H   0  0  0  0  0  0  0  0  0  0  0  0
   47.5440    5.8805   21.6450 H   0  0  0  0  0  0  0  0  0  0  0  0
   47.8316   10.6786   16.7242 H   0  0  0  0  0  0  0  0  0  0  0  0
   50.2976    8.8988   16.3441 H   0  0  0  0  0  0  0  0  0  0  0  0
   49.8212   10.3665   15.3602 H   0  0  0  0  0  0  0  0  0  0  0  0
   48.4420    4.7331   15.9273 H   0  0  0  0  0  0  0  0  0  0  0  0
   51.4073   10.8404   17.1697 H   0  0  0  0  0  0  0  0  0  0  0  0
   50.1964   10.1637   18.3673 H   0  0  0  0  0  0  0  0  0  0  0  0
   46.8495    9.6717   15.1525 H   0  0  0  0  0  0  0  0  0  0  0  0
   49.9521   11.9230   19.5216 H   0  0  0  0  0  0  0  0  0  0  0  0
   51.4318   12.4198   18.5545 H   0  0  0  0  0  0  0  0  0  0  0  0
   50.4568   12.2293   15.4675 H   0  0  0  0  0  0  0  0  0  0  0  0
   51.1931   13.2498   16.6952 H   0  0  0  0  0  0  0  0  0  0  0  0
   48.9730   14.2378   19.0340 H   0  0  0  0  0  0  0  0  0  0  0  0
   50.5401   14.6447   18.2339 H   0  0  0  0  0  0  0  0  0  0  0  0
   48.4092   13.4841   15.4575 H   0  0  0  0  0  0  0  0  0  0  0  0
   48.9418   14.6320   16.7163 H   0  0  0  0  0  0  0  0  0  0  0  0
   50.3650   13.7510   21.1488 H   0  0  0  0  0  0  0  0  0  0  0  0
   51.8130   14.2773   20.1280 H   0  0  0  0  0  0  0  0  0  0  0  0
   49.1488   15.5381   14.5058 H   0  0  0  0  0  0  0  0  0  0  0  0
   50.0906   14.1209   13.9611 H   0  0  0  0  0  0  0  0  0  0  0  0
   50.3144   16.0236   21.7383 H   0  0  0  0  0  0  0  0  0  0  0  0
   51.2852   16.4642   20.3168 H   0  0  0  0  0  0  0  0  0  0  0  0
   49.4840   16.1931   20.1520 H   0  0  0  0  0  0  0  0  0  0  0  0
   51.7230   15.7283   14.2202 H   0  0  0  0  0  0  0  0  0  0  0  0
   50.9529   16.4297   15.6892 H   0  0  0  0  0  0  0  0  0  0  0  0
   51.8403   14.8458   15.7954 H   0  0  0  0  0  0  0  0  0  0  0  0
  3  2  2  0
  4  3  1  0
  5  2  1  0
  6  5  2  0
  7 11  1  0
  8  6  1  0
  9  2  1  0
 10  4  1  0
 11  9  2  0
 12 15  1  0
 13  5  1  0
 14  3  1  0
 15 14  2  0
 16  6  1  0
 17 16  1  0
 18 11  1  0
 19  7  1  0
 20  7  1  0
 21  7  1  0
 22 10  1  0
 23 17  1  0
 24 23  1  0
 25 15  1  0
 26 16  1  0
 27 24  1  0
 28 24  1  0
 29 27  1  0
 30 28  1  0
 31 29  1  0
 32 30  1  0
 33 31  1  0
 34 32  1  0
 18 13  2  0
  8  4  2  0
 10 12  2  0
  1 35  1  0
  8 36  1  0
  9 37  1  0
 12 38  1  0
 13 39  1  0
 14 40  1  0
 16 41  1  1
 17 42  1  0
 17 43  1  0
 18 44  1  0
 23 45  1  0
 23 46  1  0
 26 47  1  0
 27 48  1  0
 27 49  1  0
 28 50  1  0
 28 51  1  0
 29 52  1  0
 29 53  1  0
 30 54  1  0
 30 55  1  0
 31 56  1  0
 31 57  1  0
 32 58  1  0
 32 59  1  0
 33 60  1  0
 33 61  1  0
 33 62  1  0
 34 63  1  0
 34 64  1  0
 34 65  1  0
M  END
> <Uni-Dock RESULT> 
ENERGY=   -5.057  LOWER_BOUND=    5.074  UPPER_BOUND=    7.308
INTER + INTRA:          -5.057
INTER:                  -5.057
INTRA:                   0.000
UNBOUND:                 0.000

$$$$

     RDKit          3D

 65 66  0  0  0  0  0  0  0  0999 V2000
   50.2419    9.2432   15.1583 Cl  0  0  0  0  0  0  0  0  0  0  0  0
   47.9857    8.3752   19.1760 C   0  0  0  0  0  0  0  0  0  0  0  0
   47.8582    9.7520   18.9655 C   0  0  0  0  0  0  0  0  0  0  0  0
   48.1137   10.2862   17.7208 C   0  0  0  0  0  0  0  0  0  0  0  0
   48.3723    7.5743   18.1096 C   0  0  0  0  0  0  0  0  0  0  0  0
   48.6359    8.0803   16.8482 C   0  0  0  0  0  0  0  0  0  0  0  0
   47.5649    5.8651   21.9849 C   0  0  0  0  0  0  0  0  0  0  0  0
   48.4897    9.4520   16.7091 C   0  0  0  0  0  0  0  0  0  0  0  0
   47.7284    7.8414   20.4243 C   0  0  0  0  0  0  0  0  0  0  0  0
   47.9900   11.6472   17.5134 C   0  0  0  0  0  0  0  0  0  0  0  0
   47.8511    6.4659   20.6522 C   0  0  0  0  0  0  0  0  0  0  0  0
   47.6144   12.5015   18.5281 C   0  0  0  0  0  0  0  0  0  0  0  0
   48.4896    6.2158   18.3580 C   0  0  0  0  0  0  0  0  0  0  0  0
   47.4852   10.5921   19.9828 C   0  0  0  0  0  0  0  0  0  0  0  0
   47.3596   11.9735   19.7735 C   0  0  0  0  0  0  0  0  0  0  0  0
   49.0365    7.2437   15.6969 C   0  0  1  0  0  0  0  0  0  0  0  0
   50.5350    7.0942   15.6713 C   0  0  0  0  0  0  0  0  0  0  0  0
   48.2354    5.6654   19.6005 C   0  0  0  0  0  0  0  0  0  0  0  0
   48.3842    4.7768   22.2637 F   0  0  0  0  0  0  0  0  0  0  0  0
   47.7246    6.7817   22.9992 F   0  0  0  0  0  0  0  0  0  0  0  0
   46.2580    5.3572   22.0377 F   0  0  0  0  0  0  0  0  0  0  0  0
   48.3042   12.3682   15.9481 Cl  0  0  0  0  0  0  0  0  0  0  0  0
   51.2236    8.4264   15.5117 C   0  0  0  0  0  0  0  0  0  0  0  0
   50.8454    9.0665   14.2154 N   0  0  0  0  0  0  0  0  0  0  0  0
   46.8797   13.0404   21.0979 Cl  0  0  0  0  0  0  0  0  0  0  0  0
   48.3603    6.0710   15.5357 O   0  0  0  0  0  0  0  0  0  0  0  0
   51.4884   10.3858   14.3874 C   0  0  0  0  0  0  0  0  0  0  0  0
   51.5796    8.3783   13.1600 C   0  0  0  0  0  0  0  0  0  0  0  0
   51.4292   11.2635   13.2034 C   0  0  0  0  0  0  0  0  0  0  0  0
   50.9682    8.4977   11.8016 C   0  0  0  0  0  0  0  0  0  0  0  0
   52.1021   12.6180   13.5485 C   0  0  0  0  0  0  0  0  0  0  0  0
   51.7751    7.8263   10.7271 C   0  0  0  0  0  0  0  0  0  0  0  0
   52.0425   13.5173   12.3281 C   0  0  0  0  0  0  0  0  0  0  0  0
   53.1339    8.3923   10.5438 C   0  0  0  0  0  0  0  0  0  0  0  0
   49.5892    8.9542   16.3234 H   0  0  0  0  0  0  0  0  0  0  0  0
   48.6788    9.9120   15.7407 H   0  0  0  0  0  0  0  0  0  0  0  0
   47.4249    8.4147   21.2816 H   0  0  0  0  0  0  0  0  0  0  0  0
   47.5142   13.5642   18.3837 H   0  0  0  0  0  0  0  0  0  0  0  0
   48.7965    5.5330   17.5919 H   0  0  0  0  0  0  0  0  0  0  0  0
   47.2682   10.2734   20.9882 H   0  0  0  0  0  0  0  0  0  0  0  0
   48.8092    7.8391   14.7418 H   0  0  0  0  0  0  0  0  0  0  0  0
   50.9092    6.6962   16.6594 H   0  0  0  0  0  0  0  0  0  0  0  0
   50.7919    6.4344   14.8520 H   0  0  0  0  0  0  0  0  0  0  0  0
   48.3238    4.5913   19.7987 H   0  0  0  0  0  0  0  0  0  0  0  0
   52.3102    8.2447   15.5095 H   0  0  0  0  0  0  0  0  0  0  0  0
   50.9121    9.0661   16.3635 H   0  0  0  0  0  0  0  0  0  0  0  0
   47.7638    6.0076   14.7781 H   0  0  0  0  0  0  0  0  0  0  0  0
   50.9298   10.8604   15.2378 H   0  0  0  0  0  0  0  0  0  0  0  0
   52.5406   10.1669   14.6939 H   0  0  0  0  0  0  0  0  0  0  0  0
   51.7634    7.3076   13.3758 H   0  0  0  0  0  0  0  0  0  0  0  0
   52.5945    8.8378   13.1339 H   0  0  0  0  0  0  0  0  0  0  0  0
   50.4481   11.4159   12.7854 H   0  0  0  0  0  0  0  0  0  0  0  0
   52.1157   10.8339   12.4086 H   0  0  0  0  0  0  0  0  0  0  0  0
   49.9996    7.8674   11.8450 H   0  0  0  0  0  0  0  0  0  0  0  0
   50.6536    9.4834   11.4620 H   0  0  0  0  0  0  0  0  0  0  0  0
   51.5712   13.1000   14.3821 H   0  0  0  0  0  0  0  0  0  0  0  0
   53.1604   12.3708   13.7832 H   0  0  0  0  0  0  0  0  0  0  0  0
   51.1829    7.8601    9.7783 H   0  0  0  0  0  0  0  0  0  0  0  0
   51.8713    6.7497   10.9969 H   0  0  0  0  0  0  0  0  0  0  0  0
   51.9160   14.5962   12.6051 H   0  0  0  0  0  0  0  0  0  0  0  0
   53.0492   13.4767   11.8181 H   0  0  0  0  0  0  0  0  0  0  0  0
   51.2453   13.2462   11.6241 H   0  0  0  0  0  0  0  0  0  0  0  0
   53.7593    7.6339   10.0125 H   0  0  0  0  0  0  0  0  0  0  0  0
   53.0379    9.2757    9.8486 H   0  0  0  0  0  0  0  0  0  0  0  0
   53.5961    8.6855   11.4757 H   0  0  0  0  0  0  0  0  0  0  0  0
  3  2  2  0
  4  3  1  0
  5  2  1  0
  6  5  2  0
  7 11  1  0
  8  6  1  0
  9  2  1  0
 10  4  1  0
 11  9  2  0
 12 15  1  0
 13  5  1  0
 14  3  1  0
 15 14  2  0
 16  6  1  0
 17 16  1  0
 18 11  1  0
 19  7  1  0
 20  7  1  0
 21  7  1  0
 22 10  1  0
 23 17  1  0
 24 23  1  0
 25 15  1  0
 26 16  1  0
 27 24  1  0
 28 24  1  0
 29 27  1  0
 30 28  1  0
 31 29  1  0
 32 30  1  0
 33 31  1  0
 34 32  1  0
 18 13  2  0
  8  4  2  0
 10 12  2  0
  1 35  1  0
  8 36  1  0
  9 37  1  0
 12 38  1  0
 13 39  1  0
 14 40  1  0
 16 41  1  1
 17 42  1  0
 17 43  1  0
 18 44  1  0
 23 45  1  0
 23 46  1  0
 26 47  1  0
 27 48  1  0
 27 49  1  0
 28 50  1  0
 28 51  1  0
 29 52  1  0
 29 53  1  0
 30 54  1  0
 30 55  1  0
 31 56  1  0
 31 57  1  0
 32 58  1  0
 32 59  1  0
 33 60  1  0
 33 61  1  0
 33 62  1  0
 34 63  1  0
 34 64  1  0
 34 65  1  0
M  END
> <Uni-Dock RESULT> 
ENERGY=   -5.038  LOWER_BOUND=    5.465  UPPER_BOUND=    7.036
INTER + INTRA:          -5.038
INTER:                  -5.038
INTRA:                   0.000
UNBOUND:                 0.000

$$$$

     RDKit          3D

 65 66  0  0  0  0  0  0  0  0999 V2000
   49.2349   11.2225   18.0188 Cl  0  0  0  0  0  0  0  0  0  0  0  0
   47.8969    6.8658   19.1209 C   0  0  0  0  0  0  0  0  0  0  0  0
   47.6945    7.6233   20.2791 C   0  0  0  0  0  0  0  0  0  0  0  0
   47.6692    8.9996   20.2076 C   0  0  0  0  0  0  0  0  0  0  0  0
   48.0696    7.5316   17.9148 C   0  0  0  0  0  0  0  0  0  0  0  0
   48.0493    8.9119   17.8102 C   0  0  0  0  0  0  0  0  0  0  0  0
   48.1379    3.2242   18.0966 C   0  0  0  0  0  0  0  0  0  0  0  0
   47.8439    9.6009   18.9957 C   0  0  0  0  0  0  0  0  0  0  0  0
   47.9211    5.4860   19.1944 C   0  0  0  0  0  0  0  0  0  0  0  0
   47.4716    9.7482   21.3526 C   0  0  0  0  0  0  0  0  0  0  0  0
   48.1225    4.7129   18.0452 C   0  0  0  0  0  0  0  0  0  0  0  0
   47.2974    9.1532   22.5840 C   0  0  0  0  0  0  0  0  0  0  0  0
   48.2695    6.7468   16.7900 C   0  0  0  0  0  0  0  0  0  0  0  0
   47.5238    7.0202   21.4985 C   0  0  0  0  0  0  0  0  0  0  0  0
   47.3234    7.7791   22.6612 C   0  0  0  0  0  0  0  0  0  0  0  0
   48.2188    9.6397   16.5344 C   0  0  1  0  0  0  0  0  0  0  0  0
   49.6815    9.8970   16.2837 C   0  0  0  0  0  0  0  0  0  0  0  0
   48.2960    5.3656   16.8458 C   0  0  0  0  0  0  0  0  0  0  0  0
   49.0237    2.6704   17.1790 F   0  0  0  0  0  0  0  0  0  0  0  0
   48.4853    2.7637   19.3463 F   0  0  0  0  0  0  0  0  0  0  0  0
   46.8842    2.6958   17.7537 F   0  0  0  0  0  0  0  0  0  0  0  0
   47.4316   11.4990   21.3076 Cl  0  0  0  0  0  0  0  0  0  0  0  0
   50.2885   10.7536   17.3663 C   0  0  0  0  0  0  0  0  0  0  0  0
   49.6304   12.0944   17.4125 N   0  0  0  0  0  0  0  0  0  0  0  0
   47.1074    6.9835   24.2242 Cl  0  0  0  0  0  0  0  0  0  0  0  0
   47.5525    9.1365   15.4567 O   0  0  0  0  0  0  0  0  0  0  0  0
   50.2630   12.6452   18.6291 C   0  0  0  0  0  0  0  0  0  0  0  0
   50.1424   12.8691   16.2881 C   0  0  0  0  0  0  0  0  0  0  0  0
   49.9345   14.0545   18.9151 C   0  0  0  0  0  0  0  0  0  0  0  0
   49.2561   13.9917   15.8552 C   0  0  0  0  0  0  0  0  0  0  0  0
   50.6319   14.4743   20.2356 C   0  0  0  0  0  0  0  0  0  0  0  0
   49.8347   14.8051   14.7326 C   0  0  0  0  0  0  0  0  0  0  0  0
   50.2949   15.9250   20.5254 C   0  0  0  0  0  0  0  0  0  0  0  0
   51.1103   15.4837   15.0682 C   0  0  0  0  0  0  0  0  0  0  0  0
   48.8493    9.9432   18.3048 H   0  0  0  0  0  0  0  0  0  0  0  0
   47.8136   10.6889   18.9808 H   0  0  0  0  0  0  0  0  0  0  0  0
   47.7912    4.9216   20.1000 H   0  0  0  0  0  0  0  0  0  0  0  0
   47.1433    9.7216   23.4858 H   0  0  0  0  0  0  0  0  0  0  0  0
   48.4248    7.1843   15.8247 H   0  0  0  0  0  0  0  0  0  0  0  0
   47.5311    5.9554   21.6586 H   0  0  0  0  0  0  0  0  0  0  0  0
   47.7812   10.6917   16.6763 H   0  0  0  0  0  0  0  0  0  0  0  0
   50.2649    8.9311   16.3234 H   0  0  0  0  0  0  0  0  0  0  0  0
   49.7760   10.3812   15.3198 H   0  0  0  0  0  0  0  0  0  0  0  0
   48.4502    4.7426   15.9577 H   0  0  0  0  0  0  0  0  0  0  0  0
   51.3543   10.8939   17.1256 H   0  0  0  0  0  0  0  0  0  0  0  0
   50.1479   10.2211   18.3299 H   0  0  0  0  0  0  0  0  0  0  0  0
   46.8116    9.6551   15.1162 H   0  0  0  0  0  0  0  0  0  0  0  0
   49.8846   11.9927   19.4608 H   0  0  0  0  0  0  0  0  0  0  0  0
   51.3612   12.4913   18.4898 H   0  0  0  0  0  0  0  0  0  0  0  0
   50.3935   12.2513   15.4039 H   0  0  0  0  0  0  0  0  0  0  0  0
   51.1177   13.2947   16.6195 H   0  0  0  0  0  0  0  0  0  0  0  0
   48.8841   14.2915   18.9416 H   0  0  0  0  0  0  0  0  0  0  0  0
   50.4486   14.7031   18.1388 H   0  0  0  0  0  0  0  0  0  0  0  0
   48.3339   13.4861   15.3743 H   0  0  0  0  0  0  0  0  0  0  0  0
   48.8532   14.6553   16.6189 H   0  0  0  0  0  0  0  0  0  0  0  0
   50.2770   13.8456   21.0648 H   0  0  0  0  0  0  0  0  0  0  0  0
   51.7216   14.3726   20.0396 H   0  0  0  0  0  0  0  0  0  0  0  0
   49.0554   15.5346   14.3972 H   0  0  0  0  0  0  0  0  0  0  0  0
   50.0117   14.1196   13.8725 H   0  0  0  0  0  0  0  0  0  0  0  0
   50.2034   16.1251   21.6247 H   0  0  0  0  0  0  0  0  0  0  0  0
   51.1724   16.5565   20.1992 H   0  0  0  0  0  0  0  0  0  0  0  0
   49.3743   16.2660   20.0349 H   0  0  0  0  0  0  0  0  0  0  0  0
   51.6281   15.7459   14.1133 H   0  0  0  0  0  0  0  0  0  0  0  0
   50.8487   16.4588   15.5718 H   0  0  0  0  0  0  0  0  0  0  0  0
   51.7511   14.8851   15.7000 H   0  0  0  0  0  0  0  0  0  0  0  0
  3  2  2  0
  4  3  1  0
  5  2  1  0
  6  5  2  0
  7 11  1  0
  8  6  1  0
  9  2  1  0
 10  4  1  0
 11  9  2  0
 12 15  1  0
 13  5  1  0
 14  3  1  0
 15 14  2  0
 16  6  1  0
 17 16  1  0
 18 11  1  0
 19  7  1  0
 20  7  1  0
 21  7  1  0
 22 10  1  0
 23 17  1  0
 24 23  1  0
 25 15  1  0
 26 16  1  0
 27 24  1  0
 28 24  1  0
 29 27  1  0
 30 28  1  0
 31 29  1  0
 32 30  1  0
 33 31  1  0
 34 32  1  0
 18 13  2  0
  8  4  2  0
 10 12  2  0
  1 35  1  0
  8 36  1  0
  9 37  1  0
 12 38  1  0
 13 39  1  0
 14 40  1  0
 16 41  1  1
 17 42  1  0
 17 43  1  0
 18 44  1  0
 23 45  1  0
 23 46  1  0
 26 47  1  0
 27 48  1  0
 27 49  1  0
 28 50  1  0
 28 51  1  0
 29 52  1  0
 29 53  1  0
 30 54  1  0
 30 55  1  0
 31 56  1  0
 31 57  1  0
 32 58  1  0
 32 59  1  0
 33 60  1  0
 33 61  1  0
 33 62  1  0
 34 63  1  0
 34 64  1  0
 34 65  1  0
M  END
> <Uni-Dock RESULT> 
ENERGY=   -5.037  LOWER_BOUND=    5.062  UPPER_BOUND=    7.298
INTER + INTRA:          -5.037
INTER:                  -5.037
INTRA:                   0.000
UNBOUND:                 0.000

$$$$

     RDKit          3D

 65 66  0  0  0  0  0  0  0  0999 V2000
   44.8082   11.6819   10.0096 Cl  0  0  0  0  0  0  0  0  0  0  0  0
   45.2171    7.5107   12.1118 C   0  0  0  0  0  0  0  0  0  0  0  0
   46.3692    8.2213   12.4638 C   0  0  0  0  0  0  0  0  0  0  0  0
   46.4155    9.5884   12.2938 C   0  0  0  0  0  0  0  0  0  0  0  0
   44.1375    8.2129   11.5929 C   0  0  0  0  0  0  0  0  0  0  0  0
   44.1529    9.5851   11.4101 C   0  0  0  0  0  0  0  0  0  0  0  0
   43.9497    3.9384   12.1267 C   0  0  0  0  0  0  0  0  0  0  0  0
   45.3250   10.2269   11.7801 C   0  0  0  0  0  0  0  0  0  0  0  0
   45.1723    6.1403   12.2838 C   0  0  0  0  0  0  0  0  0  0  0  0
   47.5550   10.2903   12.6393 C   0  0  0  0  0  0  0  0  0  0  0  0
   44.0275    5.4139   11.9368 C   0  0  0  0  0  0  0  0  0  0  0  0
   48.6651    9.6568   13.1560 C   0  0  0  0  0  0  0  0  0  0  0  0
   43.0151    7.4737   11.2542 C   0  0  0  0  0  0  0  0  0  0  0  0
   47.4678    7.5801   12.9755 C   0  0  0  0  0  0  0  0  0  0  0  0
   48.6248    8.2915   13.3264 C   0  0  0  0  0  0  0  0  0  0  0  0
   43.0102   10.3529   10.8711 C   0  0  1  0  0  0  0  0  0  0  0  0
   43.0955   10.4081    9.3683 C   0  0  0  0  0  0  0  0  0  0  0  0
   42.9534    6.1026   11.4203 C   0  0  0  0  0  0  0  0  0  0  0  0
   43.1932    3.3153   11.1404 F   0  0  0  0  0  0  0  0  0  0  0  0
   45.1989    3.3606   12.1256 F   0  0  0  0  0  0  0  0  0  0  0  0
   43.3062    3.6193   13.3320 F   0  0  0  0  0  0  0  0  0  0  0  0
   47.6568   12.0278   12.4406 Cl  0  0  0  0  0  0  0  0  0  0  0  0
   44.3525   11.1029    8.9083 C   0  0  0  0  0  0  0  0  0  0  0  0
   44.3776   12.5204    9.3804 N   0  0  0  0  0  0  0  0  0  0  0  0
   50.0314    7.4469   13.9826 Cl  0  0  0  0  0  0  0  0  0  0  0  0
   41.7767   10.0156   11.3435 O   0  0  0  0  0  0  0  0  0  0  0  0
   45.7435   12.9017    8.9650 C   0  0  0  0  0  0  0  0  0  0  0  0
   43.4582   13.2759    8.5374 C   0  0  0  0  0  0  0  0  0  0  0  0
   46.0771   14.3248    9.1623 C   0  0  0  0  0  0  0  0  0  0  0  0
   42.9496   14.5390    9.1531 C   0  0  0  0  0  0  0  0  0  0  0  0
   47.5462   14.5614    8.7240 C   0  0  0  0  0  0  0  0  0  0  0  0
   42.0494   15.3227    8.2411 C   0  0  0  0  0  0  0  0  0  0  0  0
   47.8855   16.0264    8.9251 C   0  0  0  0  0  0  0  0  0  0  0  0
   42.7036   15.7874    6.9935 C   0  0  0  0  0  0  0  0  0  0  0  0
   44.8932   10.4582   10.6115 H   0  0  0  0  0  0  0  0  0  0  0  0
   45.3999   11.3067   11.6646 H   0  0  0  0  0  0  0  0  0  0  0  0
   45.9772    5.5494   12.6821 H   0  0  0  0  0  0  0  0  0  0  0  0
   49.5609   10.1886   13.4296 H   0  0  0  0  0  0  0  0  0  0  0  0
   42.1461    7.9390   10.8349 H   0  0  0  0  0  0  0  0  0  0  0  0
   47.5314    6.5182   13.1421 H   0  0  0  0  0  0  0  0  0  0  0  0
   43.1492   11.4476   11.1887 H   0  0  0  0  0  0  0  0  0  0  0  0
   43.1716    9.3668    8.9385 H   0  0  0  0  0  0  0  0  0  0  0  0
   42.2194   10.9283    9.0019 H   0  0  0  0  0  0  0  0  0  0  0  0
   42.0660    5.5162   11.1568 H   0  0  0  0  0  0  0  0  0  0  0  0
   44.3540   11.0999    7.8066 H   0  0  0  0  0  0  0  0  0  0  0  0
   45.2144   10.5418    9.3255 H   0  0  0  0  0  0  0  0  0  0  0  0
   41.3354   10.6555   11.9175 H   0  0  0  0  0  0  0  0  0  0  0  0
   46.4165   12.2644    9.5986 H   0  0  0  0  0  0  0  0  0  0  0  0
   45.8246   12.5975    7.8926 H   0  0  0  0  0  0  0  0  0  0  0  0
   42.5955   12.6802    8.1804 H   0  0  0  0  0  0  0  0  0  0  0  0
   44.0230   13.5347    7.6121 H   0  0  0  0  0  0  0  0  0  0  0  0
   45.9034   14.7107   10.1529 H   0  0  0  0  0  0  0  0  0  0  0  0
   45.4861   14.9353    8.4102 H   0  0  0  0  0  0  0  0  0  0  0  0
   42.2433   14.2019   10.0046 H   0  0  0  0  0  0  0  0  0  0  0  0
   43.6672   15.2089    9.6245 H   0  0  0  0  0  0  0  0  0  0  0  0
   48.2239   13.9442    9.3313 H   0  0  0  0  0  0  0  0  0  0  0  0
   47.5750   14.3132    7.6406 H   0  0  0  0  0  0  0  0  0  0  0  0
   41.6236   16.1763    8.8259 H   0  0  0  0  0  0  0  0  0  0  0  0
   41.1886   14.6697    7.9698 H   0  0  0  0  0  0  0  0  0  0  0  0
   48.9544   16.1738    9.2294 H   0  0  0  0  0  0  0  0  0  0  0  0
   47.8075   16.5410    7.9229 H   0  0  0  0  0  0  0  0  0  0  0  0
   47.2447   16.5259    9.6629 H   0  0  0  0  0  0  0  0  0  0  0  0
   41.9054   16.0260    6.2487 H   0  0  0  0  0  0  0  0  0  0  0  0
   43.2249   16.7595    7.2305 H   0  0  0  0  0  0  0  0  0  0  0  0
   43.4005   15.0662    6.5907 H   0  0  0  0  0  0  0  0  0  0  0  0
  3  2  2  0
  4  3  1  0
  5  2  1  0
  6  5  2  0
  7 11  1  0
  8  6  1  0
  9  2  1  0
 10  4  1  0
 11  9  2  0
 12 15  1  0
 13  5  1  0
 14  3  1  0
 15 14  2  0
 16  6  1  0
 17 16  1  0
 18 11  1  0
 19  7  1  0
 20  7  1  0
 21  7  1  0
 22 10  1  0
 23 17  1  0
 24 23  1  0
 25 15  1  0
 26 16  1  0
 27 24  1  0
 28 24  1  0
 29 27  1  0
 30 28  1  0
 31 29  1  0
 32 30  1  0
 33 31  1  0
 34 32  1  0
 18 13  2  0
  8  4  2  0
 10 12  2  0
  1 35  1  0
  8 36  1  0
  9 37  1  0
 12 38  1  0
 13 39  1  0
 14 40  1  0
 16 41  1  1
 17 42  1  0
 17 43  1  0
 18 44  1  0
 23 45  1  0
 23 46  1  0
 26 47  1  0
 27 48  1  0
 27 49  1  0
 28 50  1  0
 28 51  1  0
 29 52  1  0
 29 53  1  0
 30 54  1  0
 30 55  1  0
 31 56  1  0
 31 57  1  0
 32 58  1  0
 32 59  1  0
 33 60  1  0
 33 61  1  0
 33 62  1  0
 34 63  1  0
 34 64  1  0
 34 65  1  0
M  END
> <Uni-Dock RESULT> 
ENERGY=   -4.997  LOWER_BOUND=    3.342  UPPER_BOUND=    6.814
INTER + INTRA:          -4.997
INTER:                  -4.997
INTRA:                   0.000
UNBOUND:                 0.000

$$$$

     RDKit          3D

 65 66  0  0  0  0  0  0  0  0999 V2000
   46.4921    8.9680   12.1456 Cl  0  0  0  0  0  0  0  0  0  0  0  0
   46.9273    4.8337   14.3145 C   0  0  0  0  0  0  0  0  0  0  0  0
   46.0628    4.6028   13.2397 C   0  0  0  0  0  0  0  0  0  0  0  0
   45.9836    5.5153   12.2095 C   0  0  0  0  0  0  0  0  0  0  0  0
   47.6919    5.9928   14.3134 C   0  0  0  0  0  0  0  0  0  0  0  0
   47.6352    6.9280   13.2943 C   0  0  0  0  0  0  0  0  0  0  0  0
   47.9789    3.1530   17.5452 C   0  0  0  0  0  0  0  0  0  0  0  0
   46.7586    6.6368   12.2603 C   0  0  0  0  0  0  0  0  0  0  0  0
   47.0059    3.9174   15.3460 C   0  0  0  0  0  0  0  0  0  0  0  0
   45.1274    5.2882   11.1486 C   0  0  0  0  0  0  0  0  0  0  0  0
   47.8658    4.1330   16.4290 C   0  0  0  0  0  0  0  0  0  0  0  0
   44.3363    4.1609   11.0869 C   0  0  0  0  0  0  0  0  0  0  0  0
   48.5349    6.1871   15.3963 C   0  0  0  0  0  0  0  0  0  0  0  0
   45.2796    3.4785   13.1900 C   0  0  0  0  0  0  0  0  0  0  0  0
   44.4102    3.2472   12.1137 C   0  0  0  0  0  0  0  0  0  0  0  0
   48.4495    8.1618   13.2679 C   0  0  1  0  0  0  0  0  0  0  0  0
   47.7202    9.2703   13.9806 C   0  0  0  0  0  0  0  0  0  0  0  0
   48.6260    5.2804   16.4360 C   0  0  0  0  0  0  0  0  0  0  0  0
   48.2138    3.7679   18.7699 F   0  0  0  0  0  0  0  0  0  0  0  0
   46.8388    2.3920   17.6692 F   0  0  0  0  0  0  0  0  0  0  0  0
   49.0740    2.2969   17.3541 F   0  0  0  0  0  0  0  0  0  0  0  0
   44.9957    6.4206    9.8184 Cl  0  0  0  0  0  0  0  0  0  0  0  0
   46.4074    9.5917   13.3116 C   0  0  0  0  0  0  0  0  0  0  0  0
   46.6282   10.0687   11.9128 N   0  0  0  0  0  0  0  0  0  0  0  0
   43.4072    1.7930   12.0687 Cl  0  0  0  0  0  0  0  0  0  0  0  0
   49.7561    8.0333   13.6349 O   0  0  0  0  0  0  0  0  0  0  0  0
   45.2284   10.1363   11.4443 C   0  0  0  0  0  0  0  0  0  0  0  0
   47.1089   11.4432   11.9929 C   0  0  0  0  0  0  0  0  0  0  0  0
   45.0521   10.7145   10.0988 C   0  0  0  0  0  0  0  0  0  0  0  0
   47.8684   11.9044   10.7914 C   0  0  0  0  0  0  0  0  0  0  0  0
   43.5455   10.6789    9.7308 C   0  0  0  0  0  0  0  0  0  0  0  0
   48.3025   13.3397   10.8792 C   0  0  0  0  0  0  0  0  0  0  0  0
   43.3669   11.2770    8.3479 C   0  0  0  0  0  0  0  0  0  0  0  0
   47.1833   14.3089   10.9714 C   0  0  0  0  0  0  0  0  0  0  0  0
   46.6448    7.7778   12.7992 H   0  0  0  0  0  0  0  0  0  0  0  0
   46.6698    7.3306   11.4262 H   0  0  0  0  0  0  0  0  0  0  0  0
   46.4390    3.0054   15.3954 H   0  0  0  0  0  0  0  0  0  0  0  0
   43.6633    3.9692   10.2680 H   0  0  0  0  0  0  0  0  0  0  0  0
   49.1468    7.0626   15.4771 H   0  0  0  0  0  0  0  0  0  0  0  0
   45.2665    2.7107   13.9449 H   0  0  0  0  0  0  0  0  0  0  0  0
   48.4919    8.5243   12.1792 H   0  0  0  0  0  0  0  0  0  0  0  0
   47.4369    8.9489   15.0252 H   0  0  0  0  0  0  0  0  0  0  0  0
   48.3631   10.1415   13.9914 H   0  0  0  0  0  0  0  0  0  0  0  0
   49.2942    5.4297   17.2916 H   0  0  0  0  0  0  0  0  0  0  0  0
   45.9265   10.3994   13.8860 H   0  0  0  0  0  0  0  0  0  0  0  0
   45.7982    8.6639   13.3114 H   0  0  0  0  0  0  0  0  0  0  0  0
   50.4202    8.1364   12.9405 H   0  0  0  0  0  0  0  0  0  0  0  0
   44.8814    9.0686   11.4452 H   0  0  0  0  0  0  0  0  0  0  0  0
   44.6806   10.7187   12.2252 H   0  0  0  0  0  0  0  0  0  0  0  0
   47.7140   11.6475   12.8977 H   0  0  0  0  0  0  0  0  0  0  0  0
   46.2049   12.0846   12.1089 H   0  0  0  0  0  0  0  0  0  0  0  0
   45.6498   10.2714    9.3197 H   0  0  0  0  0  0  0  0  0  0  0  0
   45.2729   11.8259   10.1585 H   0  0  0  0  0  0  0  0  0  0  0  0
   48.8655   11.3191   10.8160 H   0  0  0  0  0  0  0  0  0  0  0  0
   47.4456   11.7087    9.8070 H   0  0  0  0  0  0  0  0  0  0  0  0
   43.1835    9.6407    9.7278 H   0  0  0  0  0  0  0  0  0  0  0  0
   43.0415   11.3200   10.4865 H   0  0  0  0  0  0  0  0  0  0  0  0
   48.9631   13.5551   10.0021 H   0  0  0  0  0  0  0  0  0  0  0  0
   48.9417   13.4466   11.7853 H   0  0  0  0  0  0  0  0  0  0  0  0
   42.5413   10.7784    7.7763 H   0  0  0  0  0  0  0  0  0  0  0  0
   43.0147   12.3425    8.4739 H   0  0  0  0  0  0  0  0  0  0  0  0
   44.2780   11.2445    7.7369 H   0  0  0  0  0  0  0  0  0  0  0  0
   47.5839   15.2665   11.3851 H   0  0  0  0  0  0  0  0  0  0  0  0
   46.8433   14.5293    9.9186 H   0  0  0  0  0  0  0  0  0  0  0  0
   46.3615   13.9457   11.5722 H   0  0  0  0  0  0  0  0  0  0  0  0
  3  2  2  0
  4  3  1  0
  5  2  1  0
  6  5  2  0
  7 11  1  0
  8  6  1  0
  9  2  1  0
 10  4  1  0
 11  9  2  0
 12 15  1  0
 13  5  1  0
 14  3  1  0
 15 14  2  0
 16  6  1  0
 17 16  1  0
 18 11  1  0
 19  7  1  0
 20  7  1  0
 21  7  1  0
 22 10  1  0
 23 17  1  0
 24 23  1  0
 25 15  1  0
 26 16  1  0
 27 24  1  0
 28 24  1  0
 29 27  1  0
 30 28  1  0
 31 29  1  0
 32 30  1  0
 33 31  1  0
 34 32  1  0
 18 13  2  0
  8  4  2  0
 10 12  2  0
  1 35  1  0
  8 36  1  0
  9 37  1  0
 12 38  1  0
 13 39  1  0
 14 40  1  0
 16 41  1  1
 17 42  1  0
 17 43  1  0
 18 44  1  0
 23 45  1  0
 23 46  1  0
 26 47  1  0
 27 48  1  0
 27 49  1  0
 28 50  1  0
 28 51  1  0
 29 52  1  0
 29 53  1  0
 30 54  1  0
 30 55  1  0
 31 56  1  0
 31 57  1  0
 32 58  1  0
 32 59  1  0
 33 60  1  0
 33 61  1  0
 33 62  1  0
 34 63  1  0
 34 64  1  0
 34 65  1  0
M  END
> <Uni-Dock RESULT> 
ENERGY=   -4.742  LOWER_BOUND=    3.703  UPPER_BOUND=    6.248
INTER + INTRA:          -4.742
INTER:                  -4.742
INTRA:                   0.000
UNBOUND:                 0.000

$$$$

     RDKit          3D

 65 66  0  0  0  0  0  0  0  0999 V2000
   48.1485   13.1142   13.2587 Cl  0  0  0  0  0  0  0  0  0  0  0  0
   45.8149    9.1723   12.2579 C   0  0  0  0  0  0  0  0  0  0  0  0
   45.0213   10.2124   11.7635 C   0  0  0  0  0  0  0  0  0  0  0  0
   45.5598   11.4697   11.5921 C   0  0  0  0  0  0  0  0  0  0  0  0
   47.1418    9.4401   12.5671 C   0  0  0  0  0  0  0  0  0  0  0  0
   47.7119   10.6914   12.4062 C   0  0  0  0  0  0  0  0  0  0  0  0
   45.4968    5.4903   13.1002 C   0  0  0  0  0  0  0  0  0  0  0  0
   46.8698   11.6757   11.9118 C   0  0  0  0  0  0  0  0  0  0  0  0
   45.2735    7.9124   12.4282 C   0  0  0  0  0  0  0  0  0  0  0  0
   44.7747   12.4981   11.1059 C   0  0  0  0  0  0  0  0  0  0  0  0
   46.0536    6.8604   12.9218 C   0  0  0  0  0  0  0  0  0  0  0  0
   43.4486   12.3041   10.7825 C   0  0  0  0  0  0  0  0  0  0  0  0
   47.8954    8.3847   13.0562 C   0  0  0  0  0  0  0  0  0  0  0  0
   43.7031   10.0078   11.4467 C   0  0  0  0  0  0  0  0  0  0  0  0
   42.9054   11.0510   10.9532 C   0  0  0  0  0  0  0  0  0  0  0  0
   49.1251   10.9943   12.7175 C   0  0  1  0  0  0  0  0  0  0  0  0
   49.2537   11.4025   14.1616 C   0  0  0  0  0  0  0  0  0  0  0  0
   47.3696    7.1182   13.2321 C   0  0  0  0  0  0  0  0  0  0  0  0
   46.0459    4.8324   14.1951 F   0  0  0  0  0  0  0  0  0  0  0  0
   44.1308    5.5160   13.2674 F   0  0  0  0  0  0  0  0  0  0  0  0
   45.8011    4.6761   11.9987 F   0  0  0  0  0  0  0  0  0  0  0  0
   45.4181   14.1106   10.8720 Cl  0  0  0  0  0  0  0  0  0  0  0  0
   48.4577   12.6481   14.4599 C   0  0  0  0  0  0  0  0  0  0  0  0
   48.9578   13.8024   13.6534 N   0  0  0  0  0  0  0  0  0  0  0  0
   41.2078   10.7680   10.5524 Cl  0  0  0  0  0  0  0  0  0  0  0  0
   50.0448   10.0700   12.3195 O   0  0  0  0  0  0  0  0  0  0  0  0
   47.9295   14.8095   13.9879 C   0  0  0  0  0  0  0  0  0  0  0  0
   50.2010   14.2551   14.2666 C   0  0  0  0  0  0  0  0  0  0  0  0
   48.1864   16.1596   13.4522 C   0  0  0  0  0  0  0  0  0  0  0  0
   51.1030   15.0152   13.3489 C   0  0  0  0  0  0  0  0  0  0  0  0
   47.0082   17.0885   13.8465 C   0  0  0  0  0  0  0  0  0  0  0  0
   52.3489   15.5158   14.0223 C   0  0  0  0  0  0  0  0  0  0  0  0
   47.2767   18.4770   13.2969 C   0  0  0  0  0  0  0  0  0  0  0  0
   52.0997   16.4715   15.1290 C   0  0  0  0  0  0  0  0  0  0  0  0
   47.4973   11.9460   12.9788 H   0  0  0  0  0  0  0  0  0  0  0  0
   47.2582   12.6811   11.7588 H   0  0  0  0  0  0  0  0  0  0  0  0
   44.2553    7.6511   12.2033 H   0  0  0  0  0  0  0  0  0  0  0  0
   42.8229   13.0946   10.4033 H   0  0  0  0  0  0  0  0  0  0  0  0
   48.9227    8.5129   13.3313 H   0  0  0  0  0  0  0  0  0  0  0  0
   43.1905    9.0663   11.5483 H   0  0  0  0  0  0  0  0  0  0  0  0
   49.4089   11.9468   12.1425 H   0  0  0  0  0  0  0  0  0  0  0  0
   48.8111   10.6127   14.8362 H   0  0  0  0  0  0  0  0  0  0  0  0
   50.3036   11.5644   14.3718 H   0  0  0  0  0  0  0  0  0  0  0  0
   47.9641    6.2811   13.6152 H   0  0  0  0  0  0  0  0  0  0  0  0
   48.5893   12.8831   15.5281 H   0  0  0  0  0  0  0  0  0  0  0  0
   47.3978   12.4332   14.2104 H   0  0  0  0  0  0  0  0  0  0  0  0
   50.6359   10.3203   11.5971 H   0  0  0  0  0  0  0  0  0  0  0  0
   46.9828   14.4006   13.5439 H   0  0  0  0  0  0  0  0  0  0  0  0
   47.8623   14.8076   15.1035 H   0  0  0  0  0  0  0  0  0  0  0  0
   50.7808   13.4406   14.7430 H   0  0  0  0  0  0  0  0  0  0  0  0
   49.9091   14.9225   15.1100 H   0  0  0  0  0  0  0  0  0  0  0  0
   48.3806   16.2113   12.3939 H   0  0  0  0  0  0  0  0  0  0  0  0
   49.0623   16.6055   14.0192 H   0  0  0  0  0  0  0  0  0  0  0  0
   51.4998   14.2345   12.5935 H   0  0  0  0  0  0  0  0  0  0  0  0
   50.6709   15.8084   12.7406 H   0  0  0  0  0  0  0  0  0  0  0  0
   46.0688   16.7049   13.4230 H   0  0  0  0  0  0  0  0  0  0  0  0
   47.0126   17.1159   14.9579 H   0  0  0  0  0  0  0  0  0  0  0  0
   53.0121   15.9580   13.2371 H   0  0  0  0  0  0  0  0  0  0  0  0
   52.8930   14.6332   14.4298 H   0  0  0  0  0  0  0  0  0  0  0  0
   46.3334   18.9971   12.9860 H   0  0  0  0  0  0  0  0  0  0  0  0
   47.6800   19.1113   14.1396 H   0  0  0  0  0  0  0  0  0  0  0  0
   47.9706   18.4836   12.4466 H   0  0  0  0  0  0  0  0  0  0  0  0
   53.0099   16.5008   15.7767 H   0  0  0  0  0  0  0  0  0  0  0  0
   51.9973   17.4968   14.6697 H   0  0  0  0  0  0  0  0  0  0  0  0
   51.2234   16.2220   15.7103 H   0  0  0  0  0  0  0  0  0  0  0  0
  3  2  2  0
  4  3  1  0
  5  2  1  0
  6  5  2  0
  7 11  1  0
  8  6  1  0
  9  2  1  0
 10  4  1  0
 11  9  2  0
 12 15  1  0
 13  5  1  0
 14  3  1  0
 15 14  2  0
 16  6  1  0
 17 16  1  0
 18 11  1  0
 19  7  1  0
 20  7  1  0
 21  7  1  0
 22 10  1  0
 23 17  1  0
 24 23  1  0
 25 15  1  0
 26 16  1  0
 27 24  1  0
 28 24  1  0
 29 27  1  0
 30 28  1  0
 31 29  1  0
 32 30  1  0
 33 31  1  0
 34 32  1  0
 18 13  2  0
  8  4  2  0
 10 12  2  0
  1 35  1  0
  8 36  1  0
  9 37  1  0
 12 38  1  0
 13 39  1  0
 14 40  1  0
 16 41  1  1
 17 42  1  0
 17 43  1  0
 18 44  1  0
 23 45  1  0
 23 46  1  0
 26 47  1  0
 27 48  1  0
 27 49  1  0
 28 50  1  0
 28 51  1  0
 29 52  1  0
 29 53  1  0
 30 54  1  0
 30 55  1  0
 31 56  1  0
 31 57  1  0
 32 58  1  0
 32 59  1  0
 33 60  1  0
 33 61  1  0
 33 62  1  0
 34 63  1  0
 34 64  1  0
 34 65  1  0
M  END
> <Uni-Dock RESULT> 
ENERGY=   -4.622  LOWER_BOUND=    2.319  UPPER_BOUND=    3.411
INTER + INTRA:          -4.622
INTER:                  -4.622
INTRA:                   0.000
UNBOUND:                 0.000

$$$$

     RDKit          3D

 65 66  0  0  0  0  0  0  0  0999 V2000
   43.8150   11.4829   10.8177 Cl  0  0  0  0  0  0  0  0  0  0  0  0
   48.4103   10.8485   11.5006 C   0  0  0  0  0  0  0  0  0  0  0  0
   48.2499   12.2217   11.2890 C   0  0  0  0  0  0  0  0  0  0  0  0
   46.9995   12.7935   11.3877 C   0  0  0  0  0  0  0  0  0  0  0  0
   47.2890   10.0894   11.8078 C   0  0  0  0  0  0  0  0  0  0  0  0
   46.0206   10.6337   11.9141 C   0  0  0  0  0  0  0  0  0  0  0  0
   51.1872    8.2685   11.5248 C   0  0  0  0  0  0  0  0  0  0  0  0
   45.9330   11.9997   11.6928 C   0  0  0  0  0  0  0  0  0  0  0  0
   49.6647   10.2772   11.4021 C   0  0  0  0  0  0  0  0  0  0  0  0
   46.8406   14.1501   11.1761 C   0  0  0  0  0  0  0  0  0  0  0  0
   49.8430    8.9048   11.6108 C   0  0  0  0  0  0  0  0  0  0  0  0
   47.9095   14.9628   10.8635 C   0  0  0  0  0  0  0  0  0  0  0  0
   47.4881    8.7325   12.0085 C   0  0  0  0  0  0  0  0  0  0  0  0
   49.3203   13.0197   10.9772 C   0  0  0  0  0  0  0  0  0  0  0  0
   49.1600   14.3967   10.7622 C   0  0  0  0  0  0  0  0  0  0  0  0
   44.8163    9.8456   12.2522 C   0  0  1  0  0  0  0  0  0  0  0  0
   44.1971    9.2943   10.9947 C   0  0  0  0  0  0  0  0  0  0  0  0
   48.7360    8.1451   11.9143 C   0  0  0  0  0  0  0  0  0  0  0  0
   51.1306    6.9742   11.0200 F   0  0  0  0  0  0  0  0  0  0  0  0
   52.0413    8.9939   10.7255 F   0  0  0  0  0  0  0  0  0  0  0  0
   51.7636    8.1359   12.7971 F   0  0  0  0  0  0  0  0  0  0  0  0
   45.2704   14.9182   11.2919 Cl  0  0  0  0  0  0  0  0  0  0  0  0
   43.7584   10.3956   10.0625 C   0  0  0  0  0  0  0  0  0  0  0  0
   42.7122   11.2479   10.7043 N   0  0  0  0  0  0  0  0  0  0  0  0
   50.5517   15.4085   10.3592 Cl  0  0  0  0  0  0  0  0  0  0  0  0
   44.9537    8.9271   13.2502 O   0  0  0  0  0  0  0  0  0  0  0  0
   42.5958   12.3145    9.6882 C   0  0  0  0  0  0  0  0  0  0  0  0
   41.4608   10.4999   10.6701 C   0  0  0  0  0  0  0  0  0  0  0  0
   41.5221   13.2945    9.9380 C   0  0  0  0  0  0  0  0  0  0  0  0
   40.4574   10.9251   11.6928 C   0  0  0  0  0  0  0  0  0  0  0  0
   41.5523   14.3682    8.8187 C   0  0  0  0  0  0  0  0  0  0  0  0
   39.1593   10.1752   11.5973 C   0  0  0  0  0  0  0  0  0  0  0  0
   40.4450   15.3728    9.0765 C   0  0  0  0  0  0  0  0  0  0  0  0
   38.4417   10.3629   10.3127 C   0  0  0  0  0  0  0  0  0  0  0  0
   45.1475   11.2629   11.0253 H   0  0  0  0  0  0  0  0  0  0  0  0
   44.9636   12.4896   11.7650 H   0  0  0  0  0  0  0  0  0  0  0  0
   50.5642   10.8181   11.1694 H   0  0  0  0  0  0  0  0  0  0  0  0
   47.8029   16.0213   10.6948 H   0  0  0  0  0  0  0  0  0  0  0  0
   46.6723    8.0764   12.2351 H   0  0  0  0  0  0  0  0  0  0  0  0
   50.3330   12.6687   10.8738 H   0  0  0  0  0  0  0  0  0  0  0  0
   44.0232   10.5778   12.6438 H   0  0  0  0  0  0  0  0  0  0  0  0
   44.9592    8.7071   10.4038 H   0  0  0  0  0  0  0  0  0  0  0  0
   43.3522    8.6796   11.2789 H   0  0  0  0  0  0  0  0  0  0  0  0
   48.8968    7.0733   12.0760 H   0  0  0  0  0  0  0  0  0  0  0  0
   43.3255    9.9242    9.1658 H   0  0  0  0  0  0  0  0  0  0  0  0
   44.6552   11.0027    9.8195 H   0  0  0  0  0  0  0  0  0  0  0  0
   44.4977    9.1101   14.0823 H   0  0  0  0  0  0  0  0  0  0  0  0
   43.5921   12.8316    9.7104 H   0  0  0  0  0  0  0  0  0  0  0  0
   42.4602   11.7842    8.7138 H   0  0  0  0  0  0  0  0  0  0  0  0
   41.5995    9.4034   10.7405 H   0  0  0  0  0  0  0  0  0  0  0  0
   41.0259   10.6636    9.6571 H   0  0  0  0  0  0  0  0  0  0  0  0
   41.5281   13.7533   10.9126 H   0  0  0  0  0  0  0  0  0  0  0  0
   40.5253   12.7793    9.7692 H   0  0  0  0  0  0  0  0  0  0  0  0
   40.8919   10.5837   12.7087 H   0  0  0  0  0  0  0  0  0  0  0  0
   40.2584   11.9894   11.8094 H   0  0  0  0  0  0  0  0  0  0  0  0
   42.5218   14.8867    8.8209 H   0  0  0  0  0  0  0  0  0  0  0  0
   41.3486   13.8169    7.8749 H   0  0  0  0  0  0  0  0  0  0  0  0
   38.5250   10.4701   12.4708 H   0  0  0  0  0  0  0  0  0  0  0  0
   39.3827    9.0914   11.7254 H   0  0  0  0  0  0  0  0  0  0  0  0
   40.7351   16.4096    8.7639 H   0  0  0  0  0  0  0  0  0  0  0  0
   39.5764   15.1116    8.4038 H   0  0  0  0  0  0  0  0  0  0  0  0
   40.1210   15.4066   10.1246 H   0  0  0  0  0  0  0  0  0  0  0  0
   37.7152    9.5224   10.1926 H   0  0  0  0  0  0  0  0  0  0  0  0
   37.8308   11.3069   10.4049 H   0  0  0  0  0  0  0  0  0  0  0  0
   39.1080   10.4181    9.4635 H   0  0  0  0  0  0  0  0  0  0  0  0
  3  2  2  0
  4  3  1  0
  5  2  1  0
  6  5  2  0
  7 11  1  0
  8  6  1  0
  9  2  1  0
 10  4  1  0
 11  9  2  0
 12 15  1  0
 13  5  1  0
 14  3  1  0
 15 14  2  0
 16  6  1  0
 17 16  1  0
 18 11  1  0
 19  7  1  0
 20  7  1  0
 21  7  1  0
 22 10  1  0
 23 17  1  0
 24 23  1  0
 25 15  1  0
 26 16  1  0
 27 24  1  0
 28 24  1  0
 29 27  1  0
 30 28  1  0
 31 29  1  0
 32 30  1  0
 33 31  1  0
 34 32  1  0
 18 13  2  0
  8  4  2  0
 10 12  2  0
  1 35  1  0
  8 36  1  0
  9 37  1  0
 12 38  1  0
 13 39  1  0
 14 40  1  0
 16 41  1  1
 17 42  1  0
 17 43  1  0
 18 44  1  0
 23 45  1  0
 23 46  1  0
 26 47  1  0
 27 48  1  0
 27 49  1  0
 28 50  1  0
 28 51  1  0
 29 52  1  0
 29 53  1  0
 30 54  1  0
 30 55  1  0
 31 56  1  0
 31 57  1  0
 32 58  1  0
 32 59  1  0
 33 60  1  0
 33 61  1  0
 33 62  1  0
 34 63  1  0
 34 64  1  0
 34 65  1  0
M  END
> <Uni-Dock RESULT> 
ENERGY=   -4.594  LOWER_BOUND=    4.615  UPPER_BOUND=    7.998
INTER + INTRA:          -4.594
INTER:                  -4.594
INTRA:                   0.000
UNBOUND:                 0.000

$$$$
