
     RDKit          3D

 65 66  0  0  0  0  0  0  0  0999 V2000
   48.1183    7.8747   13.8178 Cl  0  0  0  0  0  0  0  0  0  0  0  0
   45.1550    7.5072   12.0755 C   0  0  0  0  0  0  0  0  0  0  0  0
   44.9407    8.8303   11.7543 C   0  0  0  0  0  0  0  0  0  0  0  0
   45.8960    9.7810   12.0820 C   0  0  0  0  0  0  0  0  0  0  0  0
   46.3264    7.1336   12.7251 C   0  0  0  0  0  0  0  0  0  0  0  0
   47.3053    8.0745   13.0650 C   0  0  0  0  0  0  0  0  0  0  0  0
   43.4069    4.1714   11.7504 C   0  0  0  0  0  0  0  0  0  0  0  0
   47.0365    9.3921   12.7180 C   0  0  0  0  0  0  0  0  0  0  0  0
   44.2079    6.5595   11.7570 C   0  0  0  0  0  0  0  0  0  0  0  0
   45.7178   11.1146   11.7783 C   0  0  0  0  0  0  0  0  0  0  0  0
   44.4050    5.2209   12.0784 C   0  0  0  0  0  0  0  0  0  0  0  0
   44.5783   11.5408   11.1371 C   0  0  0  0  0  0  0  0  0  0  0  0
   46.4920    5.7940   13.0308 C   0  0  0  0  0  0  0  0  0  0  0  0
   43.8106    9.2583   11.1172 C   0  0  0  0  0  0  0  0  0  0  0  0
   43.6240   10.6081   10.8069 C   0  0  0  0  0  0  0  0  0  0  0  0
   48.5435    7.6425   13.7374 C   0  0  1  0  0  0  0  0  0  0  0  0
   48.3967    7.4857   15.2389 C   0  0  0  0  0  0  0  0  0  0  0  0
   45.5513    4.8302   12.7189 C   0  0  0  0  0  0  0  0  0  0  0  0
   43.6604    3.7647   10.4566 F   0  0  0  0  0  0  0  0  0  0  0  0
   42.1589    4.7225   11.8775 F   0  0  0  0  0  0  0  0  0  0  0  0
   43.4998    3.1113   12.6328 F   0  0  0  0  0  0  0  0  0  0  0  0
   46.9355   12.3286   12.1985 Cl  0  0  0  0  0  0  0  0  0  0  0  0
   49.6871    7.0235   15.8164 C   0  0  0  0  0  0  0  0  0  0  0  0
   50.7764    7.9303   15.5867 N   0  0  0  0  0  0  0  0  0  0  0  0
   42.1570   11.1342    9.9871 Cl  0  0  0  0  0  0  0  0  0  0  0  0
   49.2326    6.6262   13.1210 O   0  0  0  0  0  0  0  0  0  0  0  0
   50.6293    9.1146   16.3322 C   0  0  0  0  0  0  0  0  0  0  0  0
   51.9922    7.1996   15.6939 C   0  0  0  0  0  0  0  0  0  0  0  0
   51.7248   10.1189   16.2663 C   0  0  0  0  0  0  0  0  0  0  0  0
   52.3197    6.7113   17.0886 C   0  0  0  0  0  0  0  0  0  0  0  0
   52.0273   10.6816   14.9249 C   0  0  0  0  0  0  0  0  0  0  0  0
   53.6166    5.9183   17.0923 C   0  0  0  0  0  0  0  0  0  0  0  0
   50.8539   11.4047   14.3050 C   0  0  0  0  0  0  0  0  0  0  0  0
   54.7700    6.7480   16.5935 C   0  0  0  0  0  0  0  0  0  0  0  0
   49.2793    8.1689   14.4769 H   0  0  0  0  0  0  0  0  0  0  0  0
   47.7951   10.1341   12.9800 H   0  0  0  0  0  0  0  0  0  0  0  0
   43.2797    6.7756   11.2535 H   0  0  0  0  0  0  0  0  0  0  0  0
   44.3814   12.5717   10.8734 H   0  0  0  0  0  0  0  0  0  0  0  0
   47.3768    5.4238   13.5475 H   0  0  0  0  0  0  0  0  0  0  0  0
   43.0247    8.6043   10.8264 H   0  0  0  0  0  0  0  0  0  0  0  0
   49.2388    8.5422   13.6396 H   0  0  0  0  0  0  0  0  0  0  0  0
   48.1173    8.4537   15.6955 H   0  0  0  0  0  0  0  0  0  0  0  0
   47.5670    6.7961   15.5040 H   0  0  0  0  0  0  0  0  0  0  0  0
   45.7197    3.7837   12.9778 H   0  0  0  0  0  0  0  0  0  0  0  0
   49.9423    5.9744   15.5347 H   0  0  0  0  0  0  0  0  0  0  0  0
   49.5224    6.9684   16.9355 H   0  0  0  0  0  0  0  0  0  0  0  0
   49.6802    6.9645   12.3088 H   0  0  0  0  0  0  0  0  0  0  0  0
   49.7090    9.6404   15.9307 H   0  0  0  0  0  0  0  0  0  0  0  0
   50.3471    8.9008   17.3987 H   0  0  0  0  0  0  0  0  0  0  0  0
   52.8620    7.7031   15.2238 H   0  0  0  0  0  0  0  0  0  0  0  0
   51.8599    6.2641   15.0746 H   0  0  0  0  0  0  0  0  0  0  0  0
   51.4101   10.9757   16.9282 H   0  0  0  0  0  0  0  0  0  0  0  0
   52.6772    9.7767   16.7151 H   0  0  0  0  0  0  0  0  0  0  0  0
   51.5484    6.0109   17.4706 H   0  0  0  0  0  0  0  0  0  0  0  0
   52.3574    7.5543   17.8145 H   0  0  0  0  0  0  0  0  0  0  0  0
   52.3555    9.8979   14.2190 H   0  0  0  0  0  0  0  0  0  0  0  0
   52.8452   11.4514   14.9724 H   0  0  0  0  0  0  0  0  0  0  0  0
   53.4676    5.1193   16.3044 H   0  0  0  0  0  0  0  0  0  0  0  0
   53.7955    5.4034   18.0296 H   0  0  0  0  0  0  0  0  0  0  0  0
   51.1760   11.8870   13.3600 H   0  0  0  0  0  0  0  0  0  0  0  0
   50.0461   10.6841   14.2031 H   0  0  0  0  0  0  0  0  0  0  0  0
   50.4905   12.2158   14.9834 H   0  0  0  0  0  0  0  0  0  0  0  0
   55.7451    6.3491   16.8902 H   0  0  0  0  0  0  0  0  0  0  0  0
   54.6202    7.7992   16.9163 H   0  0  0  0  0  0  0  0  0  0  0  0
   54.7512    6.7887   15.4629 H   0  0  0  0  0  0  0  0  0  0  0  0
  3  2  2  0
  4  3  1  0
  5  2  1  0
  6  5  2  0
  7 11  1  0
  8  6  1  0
  9  2  1  0
 10  4  1  0
 11  9  2  0
 12 15  1  0
 13  5  1  0
 14  3  1  0
 15 14  2  0
 16  6  1  0
 17 16  1  0
 18 11  1  0
 19  7  1  0
 20  7  1  0
 21  7  1  0
 22 10  1  0
 23 17  1  0
 24 23  1  0
 25 15  1  0
 26 16  1  0
 27 24  1  0
 28 24  1  0
 29 27  1  0
 30 28  1  0
 31 29  1  0
 32 30  1  0
 33 31  1  0
 34 32  1  0
 18 13  2  0
  8  4  2  0
 10 12  2  0
  1 35  1  0
  8 36  1  0
  9 37  1  0
 12 38  1  0
 13 39  1  0
 14 40  1  0
 16 41  1  6
 17 42  1  0
 17 43  1  0
 18 44  1  0
 23 45  1  0
 23 46  1  0
 26 47  1  0
 27 48  1  0
 27 49  1  0
 28 50  1  0
 28 51  1  0
 29 52  1  0
 29 53  1  0
 30 54  1  0
 30 55  1  0
 31 56  1  0
 31 57  1  0
 32 58  1  0
 32 59  1  0
 33 60  1  0
 33 61  1  0
 33 62  1  0
 34 63  1  0
 34 64  1  0
 34 65  1  0
M  END
> <Uni-Dock RESULT> 
ENERGY=   -6.031  LOWER_BOUND=    0.000  UPPER_BOUND=    0.000
INTER + INTRA:          -6.031
INTER:                  -6.031
INTRA:                   0.000
UNBOUND:                 0.000

$$$$

     RDKit          3D

 65 66  0  0  0  0  0  0  0  0999 V2000
   48.4179    9.3718   16.8217 Cl  0  0  0  0  0  0  0  0  0  0  0  0
   47.9327    6.6952   18.9553 C   0  0  0  0  0  0  0  0  0  0  0  0
   47.7376    7.3980   20.1247 C   0  0  0  0  0  0  0  0  0  0  0  0
   47.6903    8.7840   20.0944 C   0  0  0  0  0  0  0  0  0  0  0  0
   48.0805    7.3788   17.7534 C   0  0  0  0  0  0  0  0  0  0  0  0
   48.0354    8.7766   17.6975 C   0  0  0  0  0  0  0  0  0  0  0  0
   48.2490    3.1106   17.7980 C   0  0  0  0  0  0  0  0  0  0  0  0
   47.8372    9.4327   18.9053 C   0  0  0  0  0  0  0  0  0  0  0  0
   47.9855    5.3192   18.9798 C   0  0  0  0  0  0  0  0  0  0  0  0
   47.4978    9.5227   21.2432 C   0  0  0  0  0  0  0  0  0  0  0  0
   48.1871    4.5942   17.8104 C   0  0  0  0  0  0  0  0  0  0  0  0
   47.3464    8.8994   22.4597 C   0  0  0  0  0  0  0  0  0  0  0  0
   48.2798    6.6280   16.6078 C   0  0  0  0  0  0  0  0  0  0  0  0
   47.5864    6.7833   21.3352 C   0  0  0  0  0  0  0  0  0  0  0  0
   47.3912    7.5261   22.5028 C   0  0  0  0  0  0  0  0  0  0  0  0
   48.1779    9.4694   16.4045 C   0  0  1  0  0  0  0  0  0  0  0  0
   49.6193    9.6553   15.9703 C   0  0  0  0  0  0  0  0  0  0  0  0
   48.3359    5.2467   16.6150 C   0  0  0  0  0  0  0  0  0  0  0  0
   46.9504    2.6540   17.7045 F   0  0  0  0  0  0  0  0  0  0  0  0
   48.8509    2.7043   18.9600 F   0  0  0  0  0  0  0  0  0  0  0  0
   49.0131    2.6589   16.7382 F   0  0  0  0  0  0  0  0  0  0  0  0
   47.4398   11.2913   21.2054 Cl  0  0  0  0  0  0  0  0  0  0  0  0
   49.6537   10.3366   14.6486 C   0  0  0  0  0  0  0  0  0  0  0  0
   49.0395   11.6343   14.6555 N   0  0  0  0  0  0  0  0  0  0  0  0
   47.2012    6.7093   24.0512 Cl  0  0  0  0  0  0  0  0  0  0  0  0
   47.3300    9.0507   15.4078 O   0  0  0  0  0  0  0  0  0  0  0  0
   49.8025   12.5637   15.3864 C   0  0  0  0  0  0  0  0  0  0  0  0
   48.6636   11.9545   13.3214 C   0  0  0  0  0  0  0  0  0  0  0  0
   49.3387   13.9769   15.4132 C   0  0  0  0  0  0  0  0  0  0  0  0
   49.8203   12.1939   12.3751 C   0  0  0  0  0  0  0  0  0  0  0  0
   47.9920   14.2209   15.9915 C   0  0  0  0  0  0  0  0  0  0  0  0
   49.3170   12.4969   10.9731 C   0  0  0  0  0  0  0  0  0  0  0  0
   47.8778   13.7892   17.4353 C   0  0  0  0  0  0  0  0  0  0  0  0
   48.4284   13.7126   10.9585 C   0  0  0  0  0  0  0  0  0  0  0  0
   48.5886   10.5198   16.0993 H   0  0  0  0  0  0  0  0  0  0  0  0
   47.8010   10.5246   18.8715 H   0  0  0  0  0  0  0  0  0  0  0  0
   47.8775    4.7245   19.8723 H   0  0  0  0  0  0  0  0  0  0  0  0
   47.1932    9.4237   23.3938 H   0  0  0  0  0  0  0  0  0  0  0  0
   48.4141    7.0893   15.6301 H   0  0  0  0  0  0  0  0  0  0  0  0
   47.6077    5.7276   21.4573 H   0  0  0  0  0  0  0  0  0  0  0  0
   47.8358   10.5357   16.6238 H   0  0  0  0  0  0  0  0  0  0  0  0
   50.1625   10.2695   16.7129 H   0  0  0  0  0  0  0  0  0  0  0  0
   50.1705    8.6912   15.9408 H   0  0  0  0  0  0  0  0  0  0  0  0
   48.4951    4.6913   15.6894 H   0  0  0  0  0  0  0  0  0  0  0  0
   49.2802    9.6952   13.8154 H   0  0  0  0  0  0  0  0  0  0  0  0
   50.7500   10.4819   14.4047 H   0  0  0  0  0  0  0  0  0  0  0  0
   46.4137    9.3718   15.5856 H   0  0  0  0  0  0  0  0  0  0  0  0
   49.7905   12.2182   16.4659 H   0  0  0  0  0  0  0  0  0  0  0  0
   50.8926   12.5060   15.1198 H   0  0  0  0  0  0  0  0  0  0  0  0
   47.9049   12.7608   13.2495 H   0  0  0  0  0  0  0  0  0  0  0  0
   48.1276   11.0479   12.9128 H   0  0  0  0  0  0  0  0  0  0  0  0
   50.0835   14.5435   16.0423 H   0  0  0  0  0  0  0  0  0  0  0  0
   49.3850   14.4848   14.4307 H   0  0  0  0  0  0  0  0  0  0  0  0
   50.4571   11.2914   12.2677 H   0  0  0  0  0  0  0  0  0  0  0  0
   50.4896   13.0008   12.7492 H   0  0  0  0  0  0  0  0  0  0  0  0
   47.2026   13.7032   15.4180 H   0  0  0  0  0  0  0  0  0  0  0  0
   47.7355   15.3155   15.9989 H   0  0  0  0  0  0  0  0  0  0  0  0
   48.6336   11.6309   10.7192 H   0  0  0  0  0  0  0  0  0  0  0  0
   50.1073   12.4994   10.2306 H   0  0  0  0  0  0  0  0  0  0  0  0
   46.8887   14.0937   17.8335 H   0  0  0  0  0  0  0  0  0  0  0  0
   48.0808   12.7217   17.4716 H   0  0  0  0  0  0  0  0  0  0  0  0
   48.6556   14.2957   18.0586 H   0  0  0  0  0  0  0  0  0  0  0  0
   48.3245   14.1559    9.9632 H   0  0  0  0  0  0  0  0  0  0  0  0
   48.7998   14.4359   11.7138 H   0  0  0  0  0  0  0  0  0  0  0  0
   47.3912   13.4326   11.3137 H   0  0  0  0  0  0  0  0  0  0  0  0
  3  2  2  0
  4  3  1  0
  5  2  1  0
  6  5  2  0
  7 11  1  0
  8  6  1  0
  9  2  1  0
 10  4  1  0
 11  9  2  0
 12 15  1  0
 13  5  1  0
 14  3  1  0
 15 14  2  0
 16  6  1  0
 17 16  1  0
 18 11  1  0
 19  7  1  0
 20  7  1  0
 21  7  1  0
 22 10  1  0
 23 17  1  0
 24 23  1  0
 25 15  1  0
 26 16  1  0
 27 24  1  0
 28 24  1  0
 29 27  1  0
 30 28  1  0
 31 29  1  0
 32 30  1  0
 33 31  1  0
 34 32  1  0
 18 13  2  0
  8  4  2  0
 10 12  2  0
  1 35  1  0
  8 36  1  0
  9 37  1  0
 12 38  1  0
 13 39  1  0
 14 40  1  0
 16 41  1  6
 17 42  1  0
 17 43  1  0
 18 44  1  0
 23 45  1  0
 23 46  1  0
 26 47  1  0
 27 48  1  0
 27 49  1  0
 28 50  1  0
 28 51  1  0
 29 52  1  0
 29 53  1  0
 30 54  1  0
 30 55  1  0
 31 56  1  0
 31 57  1  0
 32 58  1  0
 32 59  1  0
 33 60  1  0
 33 61  1  0
 33 62  1  0
 34 63  1  0
 34 64  1  0
 34 65  1  0
M  END
> <Uni-Dock RESULT> 
ENERGY=   -5.572  LOWER_BOUND=    4.935  UPPER_BOUND=    7.765
INTER + INTRA:          -5.572
INTER:                  -5.572
INTRA:                   0.000
UNBOUND:                 0.000

$$$$

     RDKit          3D

 65 66  0  0  0  0  0  0  0  0999 V2000
   44.1468   10.2819   10.8936 Cl  0  0  0  0  0  0  0  0  0  0  0  0
   45.4377    7.4745   12.4441 C   0  0  0  0  0  0  0  0  0  0  0  0
   46.5989    8.0289   12.9381 C   0  0  0  0  0  0  0  0  0  0  0  0
   46.8311    9.3879   12.7860 C   0  0  0  0  0  0  0  0  0  0  0  0
   44.5068    8.2799   11.7974 C   0  0  0  0  0  0  0  0  0  0  0  0
   44.7182    9.6537   11.6329 C   0  0  0  0  0  0  0  0  0  0  0  0
   43.7541    4.0971   12.2275 C   0  0  0  0  0  0  0  0  0  0  0  0
   45.9047   10.1579   12.1493 C   0  0  0  0  0  0  0  0  0  0  0  0
   45.2040    6.1249   12.5878 C   0  0  0  0  0  0  0  0  0  0  0  0
   47.9811    9.9795   13.2656 C   0  0  0  0  0  0  0  0  0  0  0  0
   44.0405    5.5477   12.0907 C   0  0  0  0  0  0  0  0  0  0  0  0
   48.9364    9.2312   13.9126 C   0  0  0  0  0  0  0  0  0  0  0  0
   43.3595    7.6748   11.3144 C   0  0  0  0  0  0  0  0  0  0  0  0
   47.5505    7.2897   13.5817 C   0  0  0  0  0  0  0  0  0  0  0  0
   48.7178    7.8831   14.0697 C   0  0  0  0  0  0  0  0  0  0  0  0
   43.7030   10.4820   10.9582 C   0  0  1  0  0  0  0  0  0  0  0  0
   43.7971   10.4458    9.4448 C   0  0  0  0  0  0  0  0  0  0  0  0
   43.1097    6.3219   11.4496 C   0  0  0  0  0  0  0  0  0  0  0  0
   43.1626    3.9178   13.4610 F   0  0  0  0  0  0  0  0  0  0  0  0
   44.9421    3.4218   12.1275 F   0  0  0  0  0  0  0  0  0  0  0  0
   42.9257    3.6612   11.2101 F   0  0  0  0  0  0  0  0  0  0  0  0
   48.2789   11.7133   13.0697 Cl  0  0  0  0  0  0  0  0  0  0  0  0
   42.7185   11.2879    8.8618 C   0  0  0  0  0  0  0  0  0  0  0  0
   42.7869   12.6655    9.2607 N   0  0  0  0  0  0  0  0  0  0  0  0
   49.9300    6.9074   14.8940 Cl  0  0  0  0  0  0  0  0  0  0  0  0
   42.4258   10.3805   11.4542 O   0  0  0  0  0  0  0  0  0  0  0  0
   43.8921   13.3169    8.6826 C   0  0  0  0  0  0  0  0  0  0  0  0
   41.4942   13.2379    9.1025 C   0  0  0  0  0  0  0  0  0  0  0  0
   44.0498   14.7748    8.9333 C   0  0  0  0  0  0  0  0  0  0  0  0
   41.0335   13.3811    7.6679 C   0  0  0  0  0  0  0  0  0  0  0  0
   44.2048   15.1898   10.3515 C   0  0  0  0  0  0  0  0  0  0  0  0
   39.6339   13.9712    7.6066 C   0  0  0  0  0  0  0  0  0  0  0  0
   45.4207   14.5881   11.0176 C   0  0  0  0  0  0  0  0  0  0  0  0
   39.5786   15.3250    8.2635 C   0  0  0  0  0  0  0  0  0  0  0  0
   43.7597   11.4658   10.3305 H   0  0  0  0  0  0  0  0  0  0  0  0
   46.0788   11.2298   12.0251 H   0  0  0  0  0  0  0  0  0  0  0  0
   45.8785    5.4418   13.0780 H   0  0  0  0  0  0  0  0  0  0  0  0
   49.8574    9.6375   14.3096 H   0  0  0  0  0  0  0  0  0  0  0  0
   42.5878    8.2354   10.7879 H   0  0  0  0  0  0  0  0  0  0  0  0
   47.4607    6.2433   13.7456 H   0  0  0  0  0  0  0  0  0  0  0  0
   44.0090   11.5524   11.2093 H   0  0  0  0  0  0  0  0  0  0  0  0
   44.7805   10.8320    9.1169 H   0  0  0  0  0  0  0  0  0  0  0  0
   43.7539    9.4075    9.0519 H   0  0  0  0  0  0  0  0  0  0  0  0
   42.1923    5.8831   11.0540 H   0  0  0  0  0  0  0  0  0  0  0  0
   41.6998   10.8553    9.0044 H   0  0  0  0  0  0  0  0  0  0  0  0
   42.8709   11.2519    7.7403 H   0  0  0  0  0  0  0  0  0  0  0  0
   42.3622   10.8439   12.3234 H   0  0  0  0  0  0  0  0  0  0  0  0
   44.8200   12.8309    9.1155 H   0  0  0  0  0  0  0  0  0  0  0  0
   43.9812   13.0883    7.5860 H   0  0  0  0  0  0  0  0  0  0  0  0
   41.3459   14.1774    9.6737 H   0  0  0  0  0  0  0  0  0  0  0  0
   40.7645   12.5191    9.5790 H   0  0  0  0  0  0  0  0  0  0  0  0
   44.9828   15.0919    8.3853 H   0  0  0  0  0  0  0  0  0  0  0  0
   43.2549   15.3982    8.4806 H   0  0  0  0  0  0  0  0  0  0  0  0
   40.9578   12.3972    7.1603 H   0  0  0  0  0  0  0  0  0  0  0  0
   41.7539   13.9823    7.0691 H   0  0  0  0  0  0  0  0  0  0  0  0
   43.3187   14.9207   10.9538 H   0  0  0  0  0  0  0  0  0  0  0  0
   44.3473   16.3009   10.4458 H   0  0  0  0  0  0  0  0  0  0  0  0
   39.0087   13.2982    8.2683 H   0  0  0  0  0  0  0  0  0  0  0  0
   39.1983   13.9261    6.6147 H   0  0  0  0  0  0  0  0  0  0  0  0
   45.5349   15.0182   12.0332 H   0  0  0  0  0  0  0  0  0  0  0  0
   45.3070   13.5073   10.9845 H   0  0  0  0  0  0  0  0  0  0  0  0
   46.3469   14.8414   10.4449 H   0  0  0  0  0  0  0  0  0  0  0  0
   38.7111   15.9165    7.9544 H   0  0  0  0  0  0  0  0  0  0  0  0
   40.5406   15.8486    8.0850 H   0  0  0  0  0  0  0  0  0  0  0  0
   39.5215   15.2031    9.3871 H   0  0  0  0  0  0  0  0  0  0  0  0
  3  2  2  0
  4  3  1  0
  5  2  1  0
  6  5  2  0
  7 11  1  0
  8  6  1  0
  9  2  1  0
 10  4  1  0
 11  9  2  0
 12 15  1  0
 13  5  1  0
 14  3  1  0
 15 14  2  0
 16  6  1  0
 17 16  1  0
 18 11  1  0
 19  7  1  0
 20  7  1  0
 21  7  1  0
 22 10  1  0
 23 17  1  0
 24 23  1  0
 25 15  1  0
 26 16  1  0
 27 24  1  0
 28 24  1  0
 29 27  1  0
 30 28  1  0
 31 29  1  0
 32 30  1  0
 33 31  1  0
 34 32  1  0
 18 13  2  0
  8  4  2  0
 10 12  2  0
  1 35  1  0
  8 36  1  0
  9 37  1  0
 12 38  1  0
 13 39  1  0
 14 40  1  0
 16 41  1  6
 17 42  1  0
 17 43  1  0
 18 44  1  0
 23 45  1  0
 23 46  1  0
 26 47  1  0
 27 48  1  0
 27 49  1  0
 28 50  1  0
 28 51  1  0
 29 52  1  0
 29 53  1  0
 30 54  1  0
 30 55  1  0
 31 56  1  0
 31 57  1  0
 32 58  1  0
 32 59  1  0
 33 60  1  0
 33 61  1  0
 33 62  1  0
 34 63  1  0
 34 64  1  0
 34 65  1  0
M  END
> <Uni-Dock RESULT> 
ENERGY=   -5.216  LOWER_BOUND=    3.427  UPPER_BOUND=    8.243
INTER + INTRA:          -5.216
INTER:                  -5.216
INTRA:                   0.000
UNBOUND:                 0.000

$$$$

     RDKit          3D

 65 66  0  0  0  0  0  0  0  0999 V2000
   48.4956    8.1779   14.2158 Cl  0  0  0  0  0  0  0  0  0  0  0  0
   45.5931    7.6584   12.4111 C   0  0  0  0  0  0  0  0  0  0  0  0
   45.4930    6.2932   12.5724 C   0  0  0  0  0  0  0  0  0  0  0  0
   46.3973    5.6290   13.3879 C   0  0  0  0  0  0  0  0  0  0  0  0
   46.5984    8.3609   13.0663 C   0  0  0  0  0  0  0  0  0  0  0  0
   47.5217    7.7130   13.8951 C   0  0  0  0  0  0  0  0  0  0  0  0
   43.8467   10.4488   10.5530 C   0  0  0  0  0  0  0  0  0  0  0  0
   47.3740    6.3378   14.0204 C   0  0  0  0  0  0  0  0  0  0  0  0
   44.7011    8.3226   11.5988 C   0  0  0  0  0  0  0  0  0  0  0  0
   46.3306    4.2639   13.5739 C   0  0  0  0  0  0  0  0  0  0  0  0
   44.7906    9.6989   11.4201 C   0  0  0  0  0  0  0  0  0  0  0  0
   45.3575    3.5187   12.9502 C   0  0  0  0  0  0  0  0  0  0  0  0
   46.6601    9.7292   12.8675 C   0  0  0  0  0  0  0  0  0  0  0  0
   44.5281    5.5489   11.9552 C   0  0  0  0  0  0  0  0  0  0  0  0
   44.4552    4.1655   12.1394 C   0  0  0  0  0  0  0  0  0  0  0  0
   48.5642    8.4898   14.5889 C   0  0  1  0  0  0  0  0  0  0  0  0
   49.7788    8.7814   13.7283 C   0  0  0  0  0  0  0  0  0  0  0  0
   45.7734   10.4112   12.0553 C   0  0  0  0  0  0  0  0  0  0  0  0
   42.7436   10.7504   11.3248 F   0  0  0  0  0  0  0  0  0  0  0  0
   43.5230    9.6468    9.4903 F   0  0  0  0  0  0  0  0  0  0  0  0
   44.4382   11.5969   10.0597 F   0  0  0  0  0  0  0  0  0  0  0  0
   47.4857    3.4155   14.6125 Cl  0  0  0  0  0  0  0  0  0  0  0  0
   50.7552    9.5884   14.5079 C   0  0  0  0  0  0  0  0  0  0  0  0
   51.2222    8.9327   15.6967 N   0  0  0  0  0  0  0  0  0  0  0  0
   43.2028    3.2286   11.3304 Cl  0  0  0  0  0  0  0  0  0  0  0  0
   48.1179    9.5581   15.3287 O   0  0  0  0  0  0  0  0  0  0  0  0
   52.0549    7.8402   15.3917 C   0  0  0  0  0  0  0  0  0  0  0  0
   51.6991    9.9282   16.5942 C   0  0  0  0  0  0  0  0  0  0  0  0
   52.6880    7.1106   16.5230 C   0  0  0  0  0  0  0  0  0  0  0  0
   52.9602   10.6357   16.1471 C   0  0  0  0  0  0  0  0  0  0  0  0
   51.7662    6.4805   17.5031 C   0  0  0  0  0  0  0  0  0  0  0  0
   53.3695   11.6978   17.1547 C   0  0  0  0  0  0  0  0  0  0  0  0
   50.8585    5.4429   16.8838 C   0  0  0  0  0  0  0  0  0  0  0  0
   53.6137   11.1003   18.5151 C   0  0  0  0  0  0  0  0  0  0  0  0
   49.6434    8.2335   14.9562 H   0  0  0  0  0  0  0  0  0  0  0  0
   48.0908    5.8230   14.6653 H   0  0  0  0  0  0  0  0  0  0  0  0
   43.8977    7.8444   11.0625 H   0  0  0  0  0  0  0  0  0  0  0  0
   45.2546    2.4467   13.0563 H   0  0  0  0  0  0  0  0  0  0  0  0
   47.4240   10.3480   13.3371 H   0  0  0  0  0  0  0  0  0  0  0  0
   43.7922    5.9689   11.3133 H   0  0  0  0  0  0  0  0  0  0  0  0
   48.9717    7.7668   15.3722 H   0  0  0  0  0  0  0  0  0  0  0  0
   50.2558    7.8345   13.4128 H   0  0  0  0  0  0  0  0  0  0  0  0
   49.5020    9.2901   12.7803 H   0  0  0  0  0  0  0  0  0  0  0  0
   45.8563   11.4913   11.9244 H   0  0  0  0  0  0  0  0  0  0  0  0
   50.4034   10.6283   14.7076 H   0  0  0  0  0  0  0  0  0  0  0  0
   51.6488    9.7333   13.8275 H   0  0  0  0  0  0  0  0  0  0  0  0
   47.6757    9.2391   16.1514 H   0  0  0  0  0  0  0  0  0  0  0  0
   51.4083    7.0762   14.8597 H   0  0  0  0  0  0  0  0  0  0  0  0
   52.8179    8.1058   14.6107 H   0  0  0  0  0  0  0  0  0  0  0  0
   51.7759    9.5849   17.6465 H   0  0  0  0  0  0  0  0  0  0  0  0
   50.9055   10.7312   16.6338 H   0  0  0  0  0  0  0  0  0  0  0  0
   53.3058    6.2869   16.0634 H   0  0  0  0  0  0  0  0  0  0  0  0
   53.4281    7.7099   17.0875 H   0  0  0  0  0  0  0  0  0  0  0  0
   52.8089   11.1816   15.1929 H   0  0  0  0  0  0  0  0  0  0  0  0
   53.7861    9.9129   15.9613 H   0  0  0  0  0  0  0  0  0  0  0  0
   51.1312    7.2315   18.0061 H   0  0  0  0  0  0  0  0  0  0  0  0
   52.3276    5.9276   18.3050 H   0  0  0  0  0  0  0  0  0  0  0  0
   52.4496   12.3456   17.2796 H   0  0  0  0  0  0  0  0  0  0  0  0
   54.1600   12.3446   16.7908 H   0  0  0  0  0  0  0  0  0  0  0  0
   50.2750    4.9407   17.6818 H   0  0  0  0  0  0  0  0  0  0  0  0
   50.2643    5.9442   16.1238 H   0  0  0  0  0  0  0  0  0  0  0  0
   51.4597    4.6543   16.3674 H   0  0  0  0  0  0  0  0  0  0  0  0
   54.2191   11.7420   19.1630 H   0  0  0  0  0  0  0  0  0  0  0  0
   54.0482   10.0871   18.3878 H   0  0  0  0  0  0  0  0  0  0  0  0
   52.6262   10.9262   19.0394 H   0  0  0  0  0  0  0  0  0  0  0  0
  3  2  2  0
  4  3  1  0
  5  2  1  0
  6  5  2  0
  7 11  1  0
  8  6  1  0
  9  2  1  0
 10  4  1  0
 11  9  2  0
 12 15  1  0
 13  5  1  0
 14  3  1  0
 15 14  2  0
 16  6  1  0
 17 16  1  0
 18 11  1  0
 19  7  1  0
 20  7  1  0
 21  7  1  0
 22 10  1  0
 23 17  1  0
 24 23  1  0
 25 15  1  0
 26 16  1  0
 27 24  1  0
 28 24  1  0
 29 27  1  0
 30 28  1  0
 31 29  1  0
 32 30  1  0
 33 31  1  0
 34 32  1  0
 18 13  2  0
  8  4  2  0
 10 12  2  0
  1 35  1  0
  8 36  1  0
  9 37  1  0
 12 38  1  0
 13 39  1  0
 14 40  1  0
 16 41  1  6
 17 42  1  0
 17 43  1  0
 18 44  1  0
 23 45  1  0
 23 46  1  0
 26 47  1  0
 27 48  1  0
 27 49  1  0
 28 50  1  0
 28 51  1  0
 29 52  1  0
 29 53  1  0
 30 54  1  0
 30 55  1  0
 31 56  1  0
 31 57  1  0
 32 58  1  0
 32 59  1  0
 33 60  1  0
 33 61  1  0
 33 62  1  0
 34 63  1  0
 34 64  1  0
 34 65  1  0
M  END
> <Uni-Dock RESULT> 
ENERGY=   -5.168  LOWER_BOUND=    2.765  UPPER_BOUND=    4.970
INTER + INTRA:          -5.168
INTER:                  -5.168
INTRA:                   0.000
UNBOUND:                 0.000

$$$$

     RDKit          3D

 65 66  0  0  0  0  0  0  0  0999 V2000
   48.4987    8.1895   14.2068 Cl  0  0  0  0  0  0  0  0  0  0  0  0
   45.5905    7.6727   12.4104 C   0  0  0  0  0  0  0  0  0  0  0  0
   45.4881    6.3081   12.5743 C   0  0  0  0  0  0  0  0  0  0  0  0
   46.3931    5.6434   13.3886 C   0  0  0  0  0  0  0  0  0  0  0  0
   46.5990    8.3744   13.0618 C   0  0  0  0  0  0  0  0  0  0  0  0
   47.5230    7.7260   13.8893 C   0  0  0  0  0  0  0  0  0  0  0  0
   43.8451   10.4635   10.5519 C   0  0  0  0  0  0  0  0  0  0  0  0
   47.3729    6.3514   14.0174 C   0  0  0  0  0  0  0  0  0  0  0  0
   44.6978    8.3374   11.5992 C   0  0  0  0  0  0  0  0  0  0  0  0
   46.3242    4.2788   13.5771 C   0  0  0  0  0  0  0  0  0  0  0  0
   44.7896    9.7132   11.4180 C   0  0  0  0  0  0  0  0  0  0  0  0
   45.3480    3.5345   12.9572 C   0  0  0  0  0  0  0  0  0  0  0  0
   46.6629    9.7422   12.8605 C   0  0  0  0  0  0  0  0  0  0  0  0
   44.5201    5.5646   11.9608 C   0  0  0  0  0  0  0  0  0  0  0  0
   44.4449    4.1817   12.1476 C   0  0  0  0  0  0  0  0  0  0  0  0
   48.5689    8.5019   14.5792 C   0  0  1  0  0  0  0  0  0  0  0  0
   49.7818    8.7896   13.7150 C   0  0  0  0  0  0  0  0  0  0  0  0
   45.7755   10.4246   12.0493 C   0  0  0  0  0  0  0  0  0  0  0  0
   42.7445   10.7687   11.3260 F   0  0  0  0  0  0  0  0  0  0  0  0
   43.5170    9.6604    9.4914 F   0  0  0  0  0  0  0  0  0  0  0  0
   44.4377   11.6096   10.0552 F   0  0  0  0  0  0  0  0  0  0  0  0
   47.4802    3.4298   14.6143 Cl  0  0  0  0  0  0  0  0  0  0  0  0
   50.7619    9.5959   14.4907 C   0  0  0  0  0  0  0  0  0  0  0  0
   51.2306    8.9414   15.6795 N   0  0  0  0  0  0  0  0  0  0  0  0
   43.1885    3.2460   11.3434 Cl  0  0  0  0  0  0  0  0  0  0  0  0
   48.1267    9.5724   15.3182 O   0  0  0  0  0  0  0  0  0  0  0  0
   52.0603    7.8466   15.3742 C   0  0  0  0  0  0  0  0  0  0  0  0
   51.7118    9.9374   16.5740 C   0  0  0  0  0  0  0  0  0  0  0  0
   52.6948    7.1177   16.5052 C   0  0  0  0  0  0  0  0  0  0  0  0
   52.9732   10.6415   16.1225 C   0  0  0  0  0  0  0  0  0  0  0  0
   51.7742    6.4911   17.4887 C   0  0  0  0  0  0  0  0  0  0  0  0
   53.3872   11.7046   17.1272 C   0  0  0  0  0  0  0  0  0  0  0  0
   50.8629    5.4543   16.8735 C   0  0  0  0  0  0  0  0  0  0  0  0
   53.6336   11.1089   18.4881 C   0  0  0  0  0  0  0  0  0  0  0  0
   49.6485    8.2441   14.9442 H   0  0  0  0  0  0  0  0  0  0  0  0
   48.0903    5.8363   14.6613 H   0  0  0  0  0  0  0  0  0  0  0  0
   43.8921    7.8599   11.0658 H   0  0  0  0  0  0  0  0  0  0  0  0
   45.2432    2.4629   13.0654 H   0  0  0  0  0  0  0  0  0  0  0  0
   47.4292   10.3603   13.3271 H   0  0  0  0  0  0  0  0  0  0  0  0
   43.7835    5.9851   11.3201 H   0  0  0  0  0  0  0  0  0  0  0  0
   48.9769    7.7794   15.3626 H   0  0  0  0  0  0  0  0  0  0  0  0
   50.2561    7.8412   13.3999 H   0  0  0  0  0  0  0  0  0  0  0  0
   49.5036    9.2972   12.7668 H   0  0  0  0  0  0  0  0  0  0  0  0
   45.8603   11.5043   11.9164 H   0  0  0  0  0  0  0  0  0  0  0  0
   50.4127   10.6369   14.6895 H   0  0  0  0  0  0  0  0  0  0  0  0
   51.6540    9.7378   13.8078 H   0  0  0  0  0  0  0  0  0  0  0  0
   47.6858    9.2557   16.1427 H   0  0  0  0  0  0  0  0  0  0  0  0
   51.4108    7.0830   14.8452 H   0  0  0  0  0  0  0  0  0  0  0  0
   52.8219    8.1094   14.5908 H   0  0  0  0  0  0  0  0  0  0  0  0
   51.7905    9.5957   17.6267 H   0  0  0  0  0  0  0  0  0  0  0  0
   50.9199   10.7421   16.6143 H   0  0  0  0  0  0  0  0  0  0  0  0
   53.3097    6.2920   16.0454 H   0  0  0  0  0  0  0  0  0  0  0  0
   53.4376    7.7164   17.0667 H   0  0  0  0  0  0  0  0  0  0  0  0
   52.8206   11.1862   15.1678 H   0  0  0  0  0  0  0  0  0  0  0  0
   53.7971    9.9168   15.9358 H   0  0  0  0  0  0  0  0  0  0  0  0
   51.1420    7.2443   17.9920 H   0  0  0  0  0  0  0  0  0  0  0  0
   52.3366    5.9385   18.2901 H   0  0  0  0  0  0  0  0  0  0  0  0
   52.4689   12.3545   17.2533 H   0  0  0  0  0  0  0  0  0  0  0  0
   54.1781   12.3491   16.7602 H   0  0  0  0  0  0  0  0  0  0  0  0
   50.2804    4.9547   17.6738 H   0  0  0  0  0  0  0  0  0  0  0  0
   50.2677    5.9555   16.1141 H   0  0  0  0  0  0  0  0  0  0  0  0
   51.4612    4.6636   16.3569 H   0  0  0  0  0  0  0  0  0  0  0  0
   54.2420   11.7505   19.1332 H   0  0  0  0  0  0  0  0  0  0  0  0
   54.0657   10.0946   18.3614 H   0  0  0  0  0  0  0  0  0  0  0  0
   52.6471   10.9377   19.0151 H   0  0  0  0  0  0  0  0  0  0  0  0
  3  2  2  0
  4  3  1  0
  5  2  1  0
  6  5  2  0
  7 11  1  0
  8  6  1  0
  9  2  1  0
 10  4  1  0
 11  9  2  0
 12 15  1  0
 13  5  1  0
 14  3  1  0
 15 14  2  0
 16  6  1  0
 17 16  1  0
 18 11  1  0
 19  7  1  0
 20  7  1  0
 21  7  1  0
 22 10  1  0
 23 17  1  0
 24 23  1  0
 25 15  1  0
 26 16  1  0
 27 24  1  0
 28 24  1  0
 29 27  1  0
 30 28  1  0
 31 29  1  0
 32 30  1  0
 33 31  1  0
 34 32  1  0
 18 13  2  0
  8  4  2  0
 10 12  2  0
  1 35  1  0
  8 36  1  0
  9 37  1  0
 12 38  1  0
 13 39  1  0
 14 40  1  0
 16 41  1  6
 17 42  1  0
 17 43  1  0
 18 44  1  0
 23 45  1  0
 23 46  1  0
 26 47  1  0
 27 48  1  0
 27 49  1  0
 28 50  1  0
 28 51  1  0
 29 52  1  0
 29 53  1  0
 30 54  1  0
 30 55  1  0
 31 56  1  0
 31 57  1  0
 32 58  1  0
 32 59  1  0
 33 60  1  0
 33 61  1  0
 33 62  1  0
 34 63  1  0
 34 64  1  0
 34 65  1  0
M  END
> <Uni-Dock RESULT> 
ENERGY=   -5.167  LOWER_BOUND=    2.765  UPPER_BOUND=    4.969
INTER + INTRA:          -5.167
INTER:                  -5.167
INTRA:                   0.000
UNBOUND:                 0.000

$$$$

     RDKit          3D

 65 66  0  0  0  0  0  0  0  0999 V2000
   49.7327    7.5465   15.3478 Cl  0  0  0  0  0  0  0  0  0  0  0  0
   47.2534    8.3635   13.0812 C   0  0  0  0  0  0  0  0  0  0  0  0
   46.6933    7.1132   12.9306 C   0  0  0  0  0  0  0  0  0  0  0  0
   47.1507    6.0570   13.7046 C   0  0  0  0  0  0  0  0  0  0  0  0
   48.2722    8.5585   14.0073 C   0  0  0  0  0  0  0  0  0  0  0  0
   48.7496    7.5086   14.8003 C   0  0  0  0  0  0  0  0  0  0  0  0
   46.9080   11.8391   11.6357 C   0  0  0  0  0  0  0  0  0  0  0  0
   48.1497    6.2714   14.6060 C   0  0  0  0  0  0  0  0  0  0  0  0
   46.8067    9.4150   12.3120 C   0  0  0  0  0  0  0  0  0  0  0  0
   46.6164    4.7912   13.5825 C   0  0  0  0  0  0  0  0  0  0  0  0
   47.3641   10.6819   12.4468 C   0  0  0  0  0  0  0  0  0  0  0  0
   45.6074    4.5406   12.6823 C   0  0  0  0  0  0  0  0  0  0  0  0
   48.8055    9.8310   14.1169 C   0  0  0  0  0  0  0  0  0  0  0  0
   45.6908    6.8596   12.0380 C   0  0  0  0  0  0  0  0  0  0  0  0
   45.1453    5.5793   11.9094 C   0  0  0  0  0  0  0  0  0  0  0  0
   49.8185    7.7533   15.7849 C   0  0  1  0  0  0  0  0  0  0  0  0
   51.2125    7.7274   15.1876 C   0  0  0  0  0  0  0  0  0  0  0  0
   48.3693   10.8970   13.3524 C   0  0  0  0  0  0  0  0  0  0  0  0
   45.8240   12.3874   12.2899 F   0  0  0  0  0  0  0  0  0  0  0  0
   46.5723   11.3750   10.3909 F   0  0  0  0  0  0  0  0  0  0  0  0
   47.9223   12.7670   11.4886 F   0  0  0  0  0  0  0  0  0  0  0  0
   47.2014    3.4425   14.5683 Cl  0  0  0  0  0  0  0  0  0  0  0  0
   52.2121    8.0100   16.2521 C   0  0  0  0  0  0  0  0  0  0  0  0
   52.1908    7.0582   17.3269 N   0  0  0  0  0  0  0  0  0  0  0  0
   43.8550    5.2783   10.7496 Cl  0  0  0  0  0  0  0  0  0  0  0  0
   49.5929    8.7836   16.6654 O   0  0  0  0  0  0  0  0  0  0  0  0
   52.6766    5.8032   16.9160 C   0  0  0  0  0  0  0  0  0  0  0  0
   52.7637    7.6724   18.4750 C   0  0  0  0  0  0  0  0  0  0  0  0
   52.7973    4.7335   17.9428 C   0  0  0  0  0  0  0  0  0  0  0  0
   54.2479    7.9509   18.3730 C   0  0  0  0  0  0  0  0  0  0  0  0
   51.5417    4.3256   18.6246 C   0  0  0  0  0  0  0  0  0  0  0  0
   54.7569    8.6337   19.6322 C   0  0  0  0  0  0  0  0  0  0  0  0
   50.4994    3.7813   17.6753 C   0  0  0  0  0  0  0  0  0  0  0  0
   54.5124    7.7877   20.8537 C   0  0  0  0  0  0  0  0  0  0  0  0
   50.6599    7.0810   16.2379 H   0  0  0  0  0  0  0  0  0  0  0  0
   48.5164    5.4452   15.2205 H   0  0  0  0  0  0  0  0  0  0  0  0
   46.0216    9.3379   11.5776 H   0  0  0  0  0  0  0  0  0  0  0  0
   45.1493    3.5704   12.5408 H   0  0  0  0  0  0  0  0  0  0  0  0
   49.6124   10.0620   14.8115 H   0  0  0  0  0  0  0  0  0  0  0  0
   45.2758    7.6045   11.4033 H   0  0  0  0  0  0  0  0  0  0  0  0
   49.8041    6.8223   16.4447 H   0  0  0  0  0  0  0  0  0  0  0  0
   51.4177    6.7334   14.7475 H   0  0  0  0  0  0  0  0  0  0  0  0
   51.3136    8.4397   14.3411 H   0  0  0  0  0  0  0  0  0  0  0  0
   48.8166   11.8854   13.4690 H   0  0  0  0  0  0  0  0  0  0  0  0
   52.1762    9.0635   16.6180 H   0  0  0  0  0  0  0  0  0  0  0  0
   53.2254    7.9338   15.7522 H   0  0  0  0  0  0  0  0  0  0  0  0
   48.9126    8.5185   17.3297 H   0  0  0  0  0  0  0  0  0  0  0  0
   51.9448    5.4063   16.1467 H   0  0  0  0  0  0  0  0  0  0  0  0
   53.6281    5.8998   16.3262 H   0  0  0  0  0  0  0  0  0  0  0  0
   52.5087    7.1673   19.4293 H   0  0  0  0  0  0  0  0  0  0  0  0
   52.2767    8.6870   18.5728 H   0  0  0  0  0  0  0  0  0  0  0  0
   53.2016    3.8260   17.4097 H   0  0  0  0  0  0  0  0  0  0  0  0
   53.5564    4.9403   18.7215 H   0  0  0  0  0  0  0  0  0  0  0  0
   54.4783    8.6545   17.5463 H   0  0  0  0  0  0  0  0  0  0  0  0
   54.8206    7.0215   18.1556 H   0  0  0  0  0  0  0  0  0  0  0  0
   51.0894    5.1654   19.1816 H   0  0  0  0  0  0  0  0  0  0  0  0
   51.7201    3.4948   19.3607 H   0  0  0  0  0  0  0  0  0  0  0  0
   54.0860    9.5363   19.7614 H   0  0  0  0  0  0  0  0  0  0  0  0
   55.7692    9.0088   19.5310 H   0  0  0  0  0  0  0  0  0  0  0  0
   49.6352    3.4005   18.2563 H   0  0  0  0  0  0  0  0  0  0  0  0
   50.2656    4.5696   16.9639 H   0  0  0  0  0  0  0  0  0  0  0  0
   50.9113    2.9207   17.0924 H   0  0  0  0  0  0  0  0  0  0  0  0
   55.1433    8.0682   21.7030 H   0  0  0  0  0  0  0  0  0  0  0  0
   54.6184    6.7187   20.5752 H   0  0  0  0  0  0  0  0  0  0  0  0
   53.4352    7.8938   21.1833 H   0  0  0  0  0  0  0  0  0  0  0  0
  3  2  2  0
  4  3  1  0
  5  2  1  0
  6  5  2  0
  7 11  1  0
  8  6  1  0
  9  2  1  0
 10  4  1  0
 11  9  2  0
 12 15  1  0
 13  5  1  0
 14  3  1  0
 15 14  2  0
 16  6  1  0
 17 16  1  0
 18 11  1  0
 19  7  1  0
 20  7  1  0
 21  7  1  0
 22 10  1  0
 23 17  1  0
 24 23  1  0
 25 15  1  0
 26 16  1  0
 27 24  1  0
 28 24  1  0
 29 27  1  0
 30 28  1  0
 31 29  1  0
 32 30  1  0
 33 31  1  0
 34 32  1  0
 18 13  2  0
  8  4  2  0
 10 12  2  0
  1 35  1  0
  8 36  1  0
  9 37  1  0
 12 38  1  0
 13 39  1  0
 14 40  1  0
 16 41  1  6
 17 42  1  0
 17 43  1  0
 18 44  1  0
 23 45  1  0
 23 46  1  0
 26 47  1  0
 27 48  1  0
 27 49  1  0
 28 50  1  0
 28 51  1  0
 29 52  1  0
 29 53  1  0
 30 54  1  0
 30 55  1  0
 31 56  1  0
 31 57  1  0
 32 58  1  0
 32 59  1  0
 33 60  1  0
 33 61  1  0
 33 62  1  0
 34 63  1  0
 34 64  1  0
 34 65  1  0
M  END
> <Uni-Dock RESULT> 
ENERGY=   -4.922  LOWER_BOUND=    3.461  UPPER_BOUND=    5.542
INTER + INTRA:          -4.922
INTER:                  -4.922
INTRA:                   0.000
UNBOUND:                 0.000

$$$$

     RDKit          3D

 65 66  0  0  0  0  0  0  0  0999 V2000
   48.4925    8.3149   14.3648 Cl  0  0  0  0  0  0  0  0  0  0  0  0
   47.2251    5.1218   14.7510 C   0  0  0  0  0  0  0  0  0  0  0  0
   46.3434    5.1217   13.6916 C   0  0  0  0  0  0  0  0  0  0  0  0
   46.3023    6.2087   12.8310 C   0  0  0  0  0  0  0  0  0  0  0  0
   48.0675    6.2100   14.9503 C   0  0  0  0  0  0  0  0  0  0  0  0
   48.0452    7.3176   14.0949 C   0  0  0  0  0  0  0  0  0  0  0  0
   48.2202    2.8923   17.6369 C   0  0  0  0  0  0  0  0  0  0  0  0
   47.1373    7.2638   13.0454 C   0  0  0  0  0  0  0  0  0  0  0  0
   47.2670    4.0474   15.6117 C   0  0  0  0  0  0  0  0  0  0  0  0
   45.4334    6.2465   11.7605 C   0  0  0  0  0  0  0  0  0  0  0  0
   48.1465    4.0329   16.6888 C   0  0  0  0  0  0  0  0  0  0  0  0
   44.5772    5.1984   11.5159 C   0  0  0  0  0  0  0  0  0  0  0  0
   48.9307    6.1645   16.0312 C   0  0  0  0  0  0  0  0  0  0  0  0
   45.4913    4.0829   13.4446 C   0  0  0  0  0  0  0  0  0  0  0  0
   44.6085    4.1152   12.3617 C   0  0  0  0  0  0  0  0  0  0  0  0
   48.9638    8.4469   14.3241 C   0  0  1  0  0  0  0  0  0  0  0  0
   48.4649    9.4354   15.3608 C   0  0  0  0  0  0  0  0  0  0  0  0
   48.9851    5.0944   16.9049 C   0  0  0  0  0  0  0  0  0  0  0  0
   49.0821    1.9661   17.0865 F   0  0  0  0  0  0  0  0  0  0  0  0
   46.9555    2.3870   17.7873 F   0  0  0  0  0  0  0  0  0  0  0  0
   48.6653    3.3113   18.8769 F   0  0  0  0  0  0  0  0  0  0  0  0
   45.3789    7.6344   10.6634 Cl  0  0  0  0  0  0  0  0  0  0  0  0
   49.4705   10.5170   15.5372 C   0  0  0  0  0  0  0  0  0  0  0  0
   49.7349   11.2565   14.3353 N   0  0  0  0  0  0  0  0  0  0  0  0
   43.5187    2.7639   12.0664 Cl  0  0  0  0  0  0  0  0  0  0  0  0
   50.2932    8.1195   14.4396 O   0  0  0  0  0  0  0  0  0  0  0  0
   48.6362   12.0547   13.9669 C   0  0  0  0  0  0  0  0  0  0  0  0
   51.0136   11.8670   14.4621 C   0  0  0  0  0  0  0  0  0  0  0  0
   48.7893   12.9475   12.7868 C   0  0  0  0  0  0  0  0  0  0  0  0
   51.0918   12.9697   15.4959 C   0  0  0  0  0  0  0  0  0  0  0  0
   49.0874   12.2858   11.4903 C   0  0  0  0  0  0  0  0  0  0  0  0
   52.5007   13.5347   15.5772 C   0  0  0  0  0  0  0  0  0  0  0  0
   48.0124   11.3161   11.0566 C   0  0  0  0  0  0  0  0  0  0  0  0
   52.9477   14.0906   14.2510 C   0  0  0  0  0  0  0  0  0  0  0  0
   48.9018    9.5902   14.0914 H   0  0  0  0  0  0  0  0  0  0  0  0
   47.1122    8.1247   12.3723 H   0  0  0  0  0  0  0  0  0  0  0  0
   46.6464    3.1712   15.5178 H   0  0  0  0  0  0  0  0  0  0  0  0
   43.8738    5.1703   10.6941 H   0  0  0  0  0  0  0  0  0  0  0  0
   49.6142    6.9813   16.2603 H   0  0  0  0  0  0  0  0  0  0  0  0
   45.4510    3.2086   14.0477 H   0  0  0  0  0  0  0  0  0  0  0  0
   48.9134    9.0450   13.3535 H   0  0  0  0  0  0  0  0  0  0  0  0
   47.5057    9.8775   15.0321 H   0  0  0  0  0  0  0  0  0  0  0  0
   48.2331    8.9397   16.3277 H   0  0  0  0  0  0  0  0  0  0  0  0
   49.6802    5.0974   17.7460 H   0  0  0  0  0  0  0  0  0  0  0  0
   50.4063   10.1681   16.0348 H   0  0  0  0  0  0  0  0  0  0  0  0
   49.0208   11.2374   16.2863 H   0  0  0  0  0  0  0  0  0  0  0  0
   50.6604    7.8779   13.5557 H   0  0  0  0  0  0  0  0  0  0  0  0
   47.7914   11.3457   13.7055 H   0  0  0  0  0  0  0  0  0  0  0  0
   48.2221   12.6207   14.8449 H   0  0  0  0  0  0  0  0  0  0  0  0
   51.4590   12.1820   13.4960 H   0  0  0  0  0  0  0  0  0  0  0  0
   51.7176   11.0638   14.8301 H   0  0  0  0  0  0  0  0  0  0  0  0
   47.8080   13.4906   12.6704 H   0  0  0  0  0  0  0  0  0  0  0  0
   49.5247   13.7622   12.9309 H   0  0  0  0  0  0  0  0  0  0  0  0
   50.8691   12.5935   16.5159 H   0  0  0  0  0  0  0  0  0  0  0  0
   50.3450   13.7697   15.2924 H   0  0  0  0  0  0  0  0  0  0  0  0
   50.0463   11.7385   11.5235 H   0  0  0  0  0  0  0  0  0  0  0  0
   49.1571   13.0302   10.6507 H   0  0  0  0  0  0  0  0  0  0  0  0
   53.1622   12.6335   15.7555 H   0  0  0  0  0  0  0  0  0  0  0  0
   52.6427   14.1987   16.4225 H   0  0  0  0  0  0  0  0  0  0  0  0
   48.2445   10.9398   10.0397 H   0  0  0  0  0  0  0  0  0  0  0  0
   47.9367   10.5510   11.8253 H   0  0  0  0  0  0  0  0  0  0  0  0
   47.0207   11.8293   11.0012 H   0  0  0  0  0  0  0  0  0  0  0  0
   53.7852   14.7897   14.3393 H   0  0  0  0  0  0  0  0  0  0  0  0
   52.0708   14.5344   13.7355 H   0  0  0  0  0  0  0  0  0  0  0  0
   53.2818   13.2465   13.5754 H   0  0  0  0  0  0  0  0  0  0  0  0
  3  2  2  0
  4  3  1  0
  5  2  1  0
  6  5  2  0
  7 11  1  0
  8  6  1  0
  9  2  1  0
 10  4  1  0
 11  9  2  0
 12 15  1  0
 13  5  1  0
 14  3  1  0
 15 14  2  0
 16  6  1  0
 17 16  1  0
 18 11  1  0
 19  7  1  0
 20  7  1  0
 21  7  1  0
 22 10  1  0
 23 17  1  0
 24 23  1  0
 25 15  1  0
 26 16  1  0
 27 24  1  0
 28 24  1  0
 29 27  1  0
 30 28  1  0
 31 29  1  0
 32 30  1  0
 33 31  1  0
 34 32  1  0
 18 13  2  0
  8  4  2  0
 10 12  2  0
  1 35  1  0
  8 36  1  0
  9 37  1  0
 12 38  1  0
 13 39  1  0
 14 40  1  0
 16 41  1  6
 17 42  1  0
 17 43  1  0
 18 44  1  0
 23 45  1  0
 23 46  1  0
 26 47  1  0
 27 48  1  0
 27 49  1  0
 28 50  1  0
 28 51  1  0
 29 52  1  0
 29 53  1  0
 30 54  1  0
 30 55  1  0
 31 56  1  0
 31 57  1  0
 32 58  1  0
 32 59  1  0
 33 60  1  0
 33 61  1  0
 33 62  1  0
 34 63  1  0
 34 64  1  0
 34 65  1  0
M  END
> <Uni-Dock RESULT> 
ENERGY=   -4.916  LOWER_BOUND=    3.466  UPPER_BOUND=    5.443
INTER + INTRA:          -4.916
INTER:                  -4.916
INTRA:                   0.000
UNBOUND:                 0.000

$$$$

     RDKit          3D

 65 66  0  0  0  0  0  0  0  0999 V2000
   48.1302   11.5086   11.4305 Cl  0  0  0  0  0  0  0  0  0  0  0  0
   45.3004    9.5940   11.9581 C   0  0  0  0  0  0  0  0  0  0  0  0
   45.9152    8.4177   12.3294 C   0  0  0  0  0  0  0  0  0  0  0  0
   47.2945    8.3772   12.4702 C   0  0  0  0  0  0  0  0  0  0  0  0
   46.0655   10.7320   11.7275 C   0  0  0  0  0  0  0  0  0  0  0  0
   47.4584   10.7160   11.8642 C   0  0  0  0  0  0  0  0  0  0  0  0
   41.8222   10.9023   11.2658 C   0  0  0  0  0  0  0  0  0  0  0  0
   48.0240    9.5045   12.2396 C   0  0  0  0  0  0  0  0  0  0  0  0
   43.9317    9.6390   11.8119 C   0  0  0  0  0  0  0  0  0  0  0  0
   47.9464    7.2190   12.8392 C   0  0  0  0  0  0  0  0  0  0  0  0
   43.2952   10.8159   11.4326 C   0  0  0  0  0  0  0  0  0  0  0  0
   47.2402    6.0637   13.0793 C   0  0  0  0  0  0  0  0  0  0  0  0
   45.4017   11.8868   11.3514 C   0  0  0  0  0  0  0  0  0  0  0  0
   45.2178    7.2677   12.5691 C   0  0  0  0  0  0  0  0  0  0  0  0
   45.8725    6.0910   12.9432 C   0  0  0  0  0  0  0  0  0  0  0  0
   48.2380   11.9445   11.6295 C   0  0  1  0  0  0  0  0  0  0  0  0
   48.5420   12.2010   10.1658 C   0  0  0  0  0  0  0  0  0  0  0  0
   44.0291   11.9490   11.1996 C   0  0  0  0  0  0  0  0  0  0  0  0
   41.2907   11.1679   12.5110 F   0  0  0  0  0  0  0  0  0  0  0  0
   41.3834    9.7034   10.7681 F   0  0  0  0  0  0  0  0  0  0  0  0
   41.4870   11.8915   10.3600 F   0  0  0  0  0  0  0  0  0  0  0  0
   49.7067    7.1662   13.0168 Cl  0  0  0  0  0  0  0  0  0  0  0  0
   49.3051   13.4708   10.0342 C   0  0  0  0  0  0  0  0  0  0  0  0
   50.5582   13.4628   10.7351 N   0  0  0  0  0  0  0  0  0  0  0  0
   44.9504    4.6213   13.2444 Cl  0  0  0  0  0  0  0  0  0  0  0  0
   47.8292   13.0526   12.3313 O   0  0  0  0  0  0  0  0  0  0  0  0
   51.4868   12.6000   10.1241 C   0  0  0  0  0  0  0  0  0  0  0  0
   50.9363   14.8115   10.9836 C   0  0  0  0  0  0  0  0  0  0  0  0
   52.8633   12.5488   10.6861 C   0  0  0  0  0  0  0  0  0  0  0  0
   51.3073   15.6055    9.7497 C   0  0  0  0  0  0  0  0  0  0  0  0
   52.9846   12.1150   12.1020 C   0  0  0  0  0  0  0  0  0  0  0  0
   51.6644   17.0369   10.1159 C   0  0  0  0  0  0  0  0  0  0  0  0
   52.4574   10.7195   12.3436 C   0  0  0  0  0  0  0  0  0  0  0  0
   52.8196   17.0859   11.0806 C   0  0  0  0  0  0  0  0  0  0  0  0
   49.3294   12.1430   11.2626 H   0  0  0  0  0  0  0  0  0  0  0  0
   49.1114    9.4823   12.3483 H   0  0  0  0  0  0  0  0  0  0  0  0
   43.2768    8.7986   11.9753 H   0  0  0  0  0  0  0  0  0  0  0  0
   47.6945    5.1257   13.3706 H   0  0  0  0  0  0  0  0  0  0  0  0
   45.9307   12.8162   11.1432 H   0  0  0  0  0  0  0  0  0  0  0  0
   44.1601    7.2020   12.4874 H   0  0  0  0  0  0  0  0  0  0  0  0
   49.2647   11.7075   12.0677 H   0  0  0  0  0  0  0  0  0  0  0  0
   49.1420   11.3689    9.7519 H   0  0  0  0  0  0  0  0  0  0  0  0
   47.6186   12.2203    9.5484 H   0  0  0  0  0  0  0  0  0  0  0  0
   43.5437   12.8795   10.9010 H   0  0  0  0  0  0  0  0  0  0  0  0
   48.6944   14.3750   10.2680 H   0  0  0  0  0  0  0  0  0  0  0  0
   49.5348   13.5800    8.9307 H   0  0  0  0  0  0  0  0  0  0  0  0
   48.0797   12.9629   13.2819 H   0  0  0  0  0  0  0  0  0  0  0  0
   51.0747   11.5495   10.2304 H   0  0  0  0  0  0  0  0  0  0  0  0
   51.5154   12.7435    9.0100 H   0  0  0  0  0  0  0  0  0  0  0  0
   51.6956   14.9250   11.7846 H   0  0  0  0  0  0  0  0  0  0  0  0
   50.0246   15.3275   11.4065 H   0  0  0  0  0  0  0  0  0  0  0  0
   53.4358   11.8090   10.0566 H   0  0  0  0  0  0  0  0  0  0  0  0
   53.4333   13.4904   10.5679 H   0  0  0  0  0  0  0  0  0  0  0  0
   50.4556   15.6889    9.0432 H   0  0  0  0  0  0  0  0  0  0  0  0
   52.1302   15.1140    9.1838 H   0  0  0  0  0  0  0  0  0  0  0  0
   52.4544   12.8022   12.7853 H   0  0  0  0  0  0  0  0  0  0  0  0
   54.0580   12.0770   12.4340 H   0  0  0  0  0  0  0  0  0  0  0  0
   50.7741   17.4140   10.7048 H   0  0  0  0  0  0  0  0  0  0  0  0
   51.7634   17.6833    9.2510 H   0  0  0  0  0  0  0  0  0  0  0  0
   52.6729   10.4204   13.3894 H   0  0  0  0  0  0  0  0  0  0  0  0
   51.4048   10.7189   12.0713 H   0  0  0  0  0  0  0  0  0  0  0  0
   52.9725    9.9849   11.6765 H   0  0  0  0  0  0  0  0  0  0  0  0
   53.3166   18.0608   11.1054 H   0  0  0  0  0  0  0  0  0  0  0  0
   53.5166   16.2548   10.8462 H   0  0  0  0  0  0  0  0  0  0  0  0
   52.4526   16.8669   12.1284 H   0  0  0  0  0  0  0  0  0  0  0  0
  3  2  2  0
  4  3  1  0
  5  2  1  0
  6  5  2  0
  7 11  1  0
  8  6  1  0
  9  2  1  0
 10  4  1  0
 11  9  2  0
 12 15  1  0
 13  5  1  0
 14  3  1  0
 15 14  2  0
 16  6  1  0
 17 16  1  0
 18 11  1  0
 19  7  1  0
 20  7  1  0
 21  7  1  0
 22 10  1  0
 23 17  1  0
 24 23  1  0
 25 15  1  0
 26 16  1  0
 27 24  1  0
 28 24  1  0
 29 27  1  0
 30 28  1  0
 31 29  1  0
 32 30  1  0
 33 31  1  0
 34 32  1  0
 18 13  2  0
  8  4  2  0
 10 12  2  0
  1 35  1  0
  8 36  1  0
  9 37  1  0
 12 38  1  0
 13 39  1  0
 14 40  1  0
 16 41  1  6
 17 42  1  0
 17 43  1  0
 18 44  1  0
 23 45  1  0
 23 46  1  0
 26 47  1  0
 27 48  1  0
 27 49  1  0
 28 50  1  0
 28 51  1  0
 29 52  1  0
 29 53  1  0
 30 54  1  0
 30 55  1  0
 31 56  1  0
 31 57  1  0
 32 58  1  0
 32 59  1  0
 33 60  1  0
 33 61  1  0
 33 62  1  0
 34 63  1  0
 34 64  1  0
 34 65  1  0
M  END
> <Uni-Dock RESULT> 
ENERGY=   -4.886  LOWER_BOUND=    3.898  UPPER_BOUND=    6.636
INTER + INTRA:          -4.886
INTER:                  -4.886
INTRA:                   0.000
UNBOUND:                 0.000

$$$$

     RDKit          3D

 65 66  0  0  0  0  0  0  0  0999 V2000
   49.0130    7.9989   12.9794 Cl  0  0  0  0  0  0  0  0  0  0  0  0
   46.9307    5.3946   13.8923 C   0  0  0  0  0  0  0  0  0  0  0  0
   47.4887    5.1064   15.1191 C   0  0  0  0  0  0  0  0  0  0  0  0
   48.5117    5.9021   15.6134 C   0  0  0  0  0  0  0  0  0  0  0  0
   47.3955    6.4804   13.1583 C   0  0  0  0  0  0  0  0  0  0  0  0
   48.4257    7.2984   13.6366 C   0  0  0  0  0  0  0  0  0  0  0  0
   44.2537    4.0498   11.5871 C   0  0  0  0  0  0  0  0  0  0  0  0
   48.9510    6.9611   14.8771 C   0  0  0  0  0  0  0  0  0  0  0  0
   45.9181    4.6051   13.3942 C   0  0  0  0  0  0  0  0  0  0  0  0
   49.0962    5.6456   16.8361 C   0  0  0  0  0  0  0  0  0  0  0  0
   45.3472    4.8780   12.1558 C   0  0  0  0  0  0  0  0  0  0  0  0
   48.6768    4.5847   17.6042 C   0  0  0  0  0  0  0  0  0  0  0  0
   46.8065    6.7247   11.9300 C   0  0  0  0  0  0  0  0  0  0  0  0
   47.0753    4.0540   15.8857 C   0  0  0  0  0  0  0  0  0  0  0  0
   47.6635    3.7886   17.1253 C   0  0  0  0  0  0  0  0  0  0  0  0
   48.8828    8.4519   12.8415 C   0  0  1  0  0  0  0  0  0  0  0  0
   49.8854    8.0876   11.7631 C   0  0  0  0  0  0  0  0  0  0  0  0
   45.7898    5.9421   11.4152 C   0  0  0  0  0  0  0  0  0  0  0  0
   43.0695    4.5409   12.0970 F   0  0  0  0  0  0  0  0  0  0  0  0
   44.4712    2.7498   11.9618 F   0  0  0  0  0  0  0  0  0  0  0  0
   44.2620    4.1053   10.2057 F   0  0  0  0  0  0  0  0  0  0  0  0
   50.4032    6.6593   17.4662 Cl  0  0  0  0  0  0  0  0  0  0  0  0
   50.2617    9.3102   11.0042 C   0  0  0  0  0  0  0  0  0  0  0  0
   50.8621   10.3291   11.8182 N   0  0  0  0  0  0  0  0  0  0  0  0
   47.1136    2.4242   18.0932 Cl  0  0  0  0  0  0  0  0  0  0  0  0
   47.9009    9.3240   12.4380 O   0  0  0  0  0  0  0  0  0  0  0  0
   52.1464    9.9534   12.2534 C   0  0  0  0  0  0  0  0  0  0  0  0
   50.7009   11.5781   11.1565 C   0  0  0  0  0  0  0  0  0  0  0  0
   52.9328   10.9434   13.0372 C   0  0  0  0  0  0  0  0  0  0  0  0
   51.4995   11.7288    9.8797 C   0  0  0  0  0  0  0  0  0  0  0  0
   52.3362   11.3964   14.3204 C   0  0  0  0  0  0  0  0  0  0  0  0
   51.2359   13.0796    9.2342 C   0  0  0  0  0  0  0  0  0  0  0  0
   52.1148   10.2702   15.3035 C   0  0  0  0  0  0  0  0  0  0  0  0
   51.5969   14.2112   10.1598 C   0  0  0  0  0  0  0  0  0  0  0  0
   49.9063    9.0084   12.7521 H   0  0  0  0  0  0  0  0  0  0  0  0
   49.7563    7.5940   15.2586 H   0  0  0  0  0  0  0  0  0  0  0  0
   45.5075    3.7508   13.9073 H   0  0  0  0  0  0  0  0  0  0  0  0
   49.0961    4.3329   18.5695 H   0  0  0  0  0  0  0  0  0  0  0  0
   47.1214    7.5494   11.2914 H   0  0  0  0  0  0  0  0  0  0  0  0
   46.2991    3.3902   15.5911 H   0  0  0  0  0  0  0  0  0  0  0  0
   49.5061    9.0636   13.5760 H   0  0  0  0  0  0  0  0  0  0  0  0
   50.7914    7.6479   12.2210 H   0  0  0  0  0  0  0  0  0  0  0  0
   49.4966    7.2972   11.0861 H   0  0  0  0  0  0  0  0  0  0  0  0
   45.3518    6.1683   10.4417 H   0  0  0  0  0  0  0  0  0  0  0  0
   49.4314    9.7065   10.3728 H   0  0  0  0  0  0  0  0  0  0  0  0
   51.0380    8.9783   10.2494 H   0  0  0  0  0  0  0  0  0  0  0  0
   47.5862    9.8584   13.2060 H   0  0  0  0  0  0  0  0  0  0  0  0
   52.0102    9.0608   12.9386 H   0  0  0  0  0  0  0  0  0  0  0  0
   52.7612    9.5296   11.4137 H   0  0  0  0  0  0  0  0  0  0  0  0
   50.8250   12.4580   11.8209 H   0  0  0  0  0  0  0  0  0  0  0  0
   49.6183   11.6355   10.8388 H   0  0  0  0  0  0  0  0  0  0  0  0
   53.9162   10.4476   13.2792 H   0  0  0  0  0  0  0  0  0  0  0  0
   53.2267   11.8423   12.4618 H   0  0  0  0  0  0  0  0  0  0  0  0
   51.2023   10.9785    9.1179 H   0  0  0  0  0  0  0  0  0  0  0  0
   52.5864   11.5706   10.0605 H   0  0  0  0  0  0  0  0  0  0  0  0
   51.3686   11.9053   14.1623 H   0  0  0  0  0  0  0  0  0  0  0  0
   53.0088   12.1185   14.8589 H   0  0  0  0  0  0  0  0  0  0  0  0
   50.1100   13.1337    9.1297 H   0  0  0  0  0  0  0  0  0  0  0  0
   51.6467   13.1584    8.2339 H   0  0  0  0  0  0  0  0  0  0  0  0
   51.7688   10.6882   16.2705 H   0  0  0  0  0  0  0  0  0  0  0  0
   51.4344    9.5619   14.8374 H   0  0  0  0  0  0  0  0  0  0  0  0
   53.0727    9.7284   15.5011 H   0  0  0  0  0  0  0  0  0  0  0  0
   51.7446   15.1618    9.6377 H   0  0  0  0  0  0  0  0  0  0  0  0
   52.4785   13.9118   10.7636 H   0  0  0  0  0  0  0  0  0  0  0  0
   50.7693   14.3659   10.9158 H   0  0  0  0  0  0  0  0  0  0  0  0
  3  2  2  0
  4  3  1  0
  5  2  1  0
  6  5  2  0
  7 11  1  0
  8  6  1  0
  9  2  1  0
 10  4  1  0
 11  9  2  0
 12 15  1  0
 13  5  1  0
 14  3  1  0
 15 14  2  0
 16  6  1  0
 17 16  1  0
 18 11  1  0
 19  7  1  0
 20  7  1  0
 21  7  1  0
 22 10  1  0
 23 17  1  0
 24 23  1  0
 25 15  1  0
 26 16  1  0
 27 24  1  0
 28 24  1  0
 29 27  1  0
 30 28  1  0
 31 29  1  0
 32 30  1  0
 33 31  1  0
 34 32  1  0
 18 13  2  0
  8  4  2  0
 10 12  2  0
  1 35  1  0
  8 36  1  0
  9 37  1  0
 12 38  1  0
 13 39  1  0
 14 40  1  0
 16 41  1  6
 17 42  1  0
 17 43  1  0
 18 44  1  0
 23 45  1  0
 23 46  1  0
 26 47  1  0
 27 48  1  0
 27 49  1  0
 28 50  1  0
 28 51  1  0
 29 52  1  0
 29 53  1  0
 30 54  1  0
 30 55  1  0
 31 56  1  0
 31 57  1  0
 32 58  1  0
 32 59  1  0
 33 60  1  0
 33 61  1  0
 33 62  1  0
 34 63  1  0
 34 64  1  0
 34 65  1  0
M  END
> <Uni-Dock RESULT> 
ENERGY=   -4.831  LOWER_BOUND=    3.070  UPPER_BOUND=    5.854
INTER + INTRA:          -4.831
INTER:                  -4.831
INTRA:                   0.000
UNBOUND:                 0.000

$$$$
