
     RDKit          3D

 65 66  0  0  0  0  0  0  0  0999 V2000
   47.7936    9.2685   14.2374 Cl  0  0  0  0  0  0  0  0  0  0  0  0
   45.6946    7.6611   12.4511 C   0  0  0  0  0  0  0  0  0  0  0  0
   45.5376    6.3004   12.5980 C   0  0  0  0  0  0  0  0  0  0  0  0
   46.4612    5.5856   13.3315 C   0  0  0  0  0  0  0  0  0  0  0  0
   46.7853    8.2811   13.0492 C   0  0  0  0  0  0  0  0  0  0  0  0
   47.7218    7.5889   13.7871 C   0  0  0  0  0  0  0  0  0  0  0  0
   43.9897   10.5734   10.7958 C   0  0  0  0  0  0  0  0  0  0  0  0
   47.5228    6.2230   13.9075 C   0  0  0  0  0  0  0  0  0  0  0  0
   44.7873    8.3968   11.7217 C   0  0  0  0  0  0  0  0  0  0  0  0
   46.3699    4.2140   13.5232 C   0  0  0  0  0  0  0  0  0  0  0  0
   44.9553    9.7763   11.5760 C   0  0  0  0  0  0  0  0  0  0  0  0
   45.2986    3.5714   12.9420 C   0  0  0  0  0  0  0  0  0  0  0  0
   46.9295    9.6551   12.8891 C   0  0  0  0  0  0  0  0  0  0  0  0
   44.4745    5.6434   12.0245 C   0  0  0  0  0  0  0  0  0  0  0  0
   44.3602    4.2594   12.2035 C   0  0  0  0  0  0  0  0  0  0  0  0
   48.8963    8.2724   14.4311 C   0  0  1  0  0  0  0  0  0  0  0  0
   48.5638    8.6418   15.8469 C   0  0  0  0  0  0  0  0  0  0  0  0
   46.0279   10.4031   12.1611 C   0  0  0  0  0  0  0  0  0  0  0  0
   42.9048   11.0060   11.5331 F   0  0  0  0  0  0  0  0  0  0  0  0
   44.5840   11.6720   10.2053 F   0  0  0  0  0  0  0  0  0  0  0  0
   43.4628    9.7803    9.7683 F   0  0  0  0  0  0  0  0  0  0  0  0
   47.5398    3.3271   14.4488 Cl  0  0  0  0  0  0  0  0  0  0  0  0
   49.5456    9.3062   16.6771 C   0  0  0  0  0  0  0  0  0  0  0  0
   50.0648   10.6241   16.3824 N   0  0  0  0  0  0  0  0  0  0  0  0
   43.0019    3.3936   11.4761 Cl  0  0  0  0  0  0  0  0  0  0  0  0
   49.8653    7.2400   14.5356 O   0  0  0  0  0  0  0  0  0  0  0  0
   50.8898   10.6433   15.2176 C   0  0  0  0  0  0  0  0  0  0  0  0
   48.9121   11.5294   16.2465 C   0  0  0  0  0  0  0  0  0  0  0  0
   51.9948   11.6425   15.1368 C   0  0  0  0  0  0  0  0  0  0  0  0
   48.2029   11.6857   17.5637 C   0  0  0  0  0  0  0  0  0  0  0  0
   51.6549   13.0872   15.1979 C   0  0  0  0  0  0  0  0  0  0  0  0
   49.0091   12.2464   18.6761 C   0  0  0  0  0  0  0  0  0  0  0  0
   52.9255   13.9461   15.0458 C   0  0  0  0  0  0  0  0  0  0  0  0
   49.5141   13.6354   18.4032 C   0  0  0  0  0  0  0  0  0  0  0  0
   48.6051   10.0839   15.0010 H   0  0  0  0  0  0  0  0  0  0  0  0
   48.2750    5.6894   14.4959 H   0  0  0  0  0  0  0  0  0  0  0  0
   43.9209    7.9889   11.2312 H   0  0  0  0  0  0  0  0  0  0  0  0
   45.1554    2.4932   13.0459 H   0  0  0  0  0  0  0  0  0  0  0  0
   47.7575   10.2081   13.3283 H   0  0  0  0  0  0  0  0  0  0  0  0
   43.7205    6.1044   11.4481 H   0  0  0  0  0  0  0  0  0  0  0  0
   49.3393    9.0136   13.7981 H   0  0  0  0  0  0  0  0  0  0  0  0
   48.3644    7.6255   16.3423 H   0  0  0  0  0  0  0  0  0  0  0  0
   47.5237    9.0897   15.9079 H   0  0  0  0  0  0  0  0  0  0  0  0
   46.1277   11.4807   12.0270 H   0  0  0  0  0  0  0  0  0  0  0  0
   50.4572    8.6372   16.7444 H   0  0  0  0  0  0  0  0  0  0  0  0
   49.1725    9.3005   17.7439 H   0  0  0  0  0  0  0  0  0  0  0  0
   49.8855    6.8200   13.6296 H   0  0  0  0  0  0  0  0  0  0  0  0
   51.3189    9.6675   14.9533 H   0  0  0  0  0  0  0  0  0  0  0  0
   50.1794   10.9847   14.3690 H   0  0  0  0  0  0  0  0  0  0  0  0
   49.2594   12.4902   15.9041 H   0  0  0  0  0  0  0  0  0  0  0  0
   48.2105   11.1481   15.4751 H   0  0  0  0  0  0  0  0  0  0  0  0
   52.8100   11.4057   15.8832 H   0  0  0  0  0  0  0  0  0  0  0  0
   52.5409   11.4981   14.1406 H   0  0  0  0  0  0  0  0  0  0  0  0
   47.3093   12.3760   17.4530 H   0  0  0  0  0  0  0  0  0  0  0  0
   47.7533   10.7171   17.9106 H   0  0  0  0  0  0  0  0  0  0  0  0
   51.3241   13.3062   16.2509 H   0  0  0  0  0  0  0  0  0  0  0  0
   50.8789   13.4169   14.5023 H   0  0  0  0  0  0  0  0  0  0  0  0
   49.8425   11.5802   18.9929 H   0  0  0  0  0  0  0  0  0  0  0  0
   48.3365   12.3189   19.5820 H   0  0  0  0  0  0  0  0  0  0  0  0
   53.0091   14.1713   13.9691 H   0  0  0  0  0  0  0  0  0  0  0  0
   52.7928   14.9110   15.5742 H   0  0  0  0  0  0  0  0  0  0  0  0
   53.8104   13.4401   15.4435 H   0  0  0  0  0  0  0  0  0  0  0  0
   49.1239   14.3746   19.1373 H   0  0  0  0  0  0  0  0  0  0  0  0
   49.2876   13.9634   17.3578 H   0  0  0  0  0  0  0  0  0  0  0  0
   50.6328   13.6363   18.5252 H   0  0  0  0  0  0  0  0  0  0  0  0
  3  2  2  0
  4  3  1  0
  5  2  1  0
  6  5  2  0
  7 11  1  0
  8  6  1  0
  9  2  1  0
 10  4  1  0
 11  9  2  0
 12 15  1  0
 13  5  1  0
 14  3  1  0
 15 14  2  0
 16  6  1  0
 17 16  1  0
 18 11  1  0
 19  7  1  0
 20  7  1  0
 21  7  1  0
 22 10  1  0
 23 17  1  0
 24 23  1  0
 25 15  1  0
 26 16  1  0
 27 24  1  0
 28 24  1  0
 29 27  1  0
 30 28  1  0
 31 29  1  0
 32 30  1  0
 33 31  1  0
 34 32  1  0
 18 13  2  0
  8  4  2  0
 10 12  2  0
  1 35  1  0
  8 36  1  0
  9 37  1  0
 12 38  1  0
 13 39  1  0
 14 40  1  0
 16 41  1  1
 17 42  1  0
 17 43  1  0
 18 44  1  0
 23 45  1  0
 23 46  1  0
 26 47  1  0
 27 48  1  0
 27 49  1  0
 28 50  1  0
 28 51  1  0
 29 52  1  0
 29 53  1  0
 30 54  1  0
 30 55  1  0
 31 56  1  0
 31 57  1  0
 32 58  1  0
 32 59  1  0
 33 60  1  0
 33 61  1  0
 33 62  1  0
 34 63  1  0
 34 64  1  0
 34 65  1  0
M  END
> <Uni-Dock RESULT> 
ENERGY=   -5.686  LOWER_BOUND=    0.000  UPPER_BOUND=    0.000
INTER + INTRA:          -5.686
INTER:                  -5.686
INTRA:                   0.000
UNBOUND:                 0.000

$$$$

     RDKit          3D

 65 66  0  0  0  0  0  0  0  0999 V2000
   48.3581    5.7523   15.6989 Cl  0  0  0  0  0  0  0  0  0  0  0  0
   47.1076    7.5094   13.3475 C   0  0  0  0  0  0  0  0  0  0  0  0
   45.8985    7.1724   12.7800 C   0  0  0  0  0  0  0  0  0  0  0  0
   45.3452    5.9370   13.0441 C   0  0  0  0  0  0  0  0  0  0  0  0
   47.7416    6.5907   14.1757 C   0  0  0  0  0  0  0  0  0  0  0  0
   47.2093    5.3500   14.4550 C   0  0  0  0  0  0  0  0  0  0  0  0
   49.5337   10.3795   13.4135 C   0  0  0  0  0  0  0  0  0  0  0  0
   45.9921    5.0554   13.8622 C   0  0  0  0  0  0  0  0  0  0  0  0
   47.6818    8.7359   13.0976 C   0  0  0  0  0  0  0  0  0  0  0  0
   44.1318    5.5269   12.5095 C   0  0  0  0  0  0  0  0  0  0  0  0
   48.9096    9.0687   13.6757 C   0  0  0  0  0  0  0  0  0  0  0  0
   43.4795    6.4168   11.6842 C   0  0  0  0  0  0  0  0  0  0  0  0
   48.9626    6.9466   14.7386 C   0  0  0  0  0  0  0  0  0  0  0  0
   45.2342    8.0485   11.9541 C   0  0  0  0  0  0  0  0  0  0  0  0
   44.0080    7.6580   11.4023 C   0  0  0  0  0  0  0  0  0  0  0  0
   47.9046    4.3660   15.3549 C   0  0  1  0  0  0  0  0  0  0  0  0
   47.4041    4.5126   16.7618 C   0  0  0  0  0  0  0  0  0  0  0  0
   49.5481    8.1716   14.4961 C   0  0  0  0  0  0  0  0  0  0  0  0
   49.1100   11.3761   14.2709 F   0  0  0  0  0  0  0  0  0  0  0  0
   50.9128   10.3149   13.4647 F   0  0  0  0  0  0  0  0  0  0  0  0
   49.1826   10.8068   12.1264 F   0  0  0  0  0  0  0  0  0  0  0  0
   43.4474    3.9689   12.8504 Cl  0  0  0  0  0  0  0  0  0  0  0  0
   47.9220    3.6627   17.8125 C   0  0  0  0  0  0  0  0  0  0  0  0
   49.3071    3.6811   18.2301 N   0  0  0  0  0  0  0  0  0  0  0  0
   43.1359    8.7674   10.3381 Cl  0  0  0  0  0  0  0  0  0  0  0  0
   47.4124    3.1088   14.9157 O   0  0  0  0  0  0  0  0  0  0  0  0
   50.1892    3.1597   17.2362 C   0  0  0  0  0  0  0  0  0  0  0  0
   49.6421    5.0717   18.5778 C   0  0  0  0  0  0  0  0  0  0  0  0
   51.4482    2.4895   17.6738 C   0  0  0  0  0  0  0  0  0  0  0  0
   48.8727    5.5143   19.7921 C   0  0  0  0  0  0  0  0  0  0  0  0
   52.4337    3.2708   18.4641 C   0  0  0  0  0  0  0  0  0  0  0  0
   49.1079    4.7355   21.0330 C   0  0  0  0  0  0  0  0  0  0  0  0
   53.6792    2.4155   18.7685 C   0  0  0  0  0  0  0  0  0  0  0  0
   50.5337    4.7862   21.5057 C   0  0  0  0  0  0  0  0  0  0  0  0
   48.9611    5.1229   16.7698 H   0  0  0  0  0  0  0  0  0  0  0  0
   45.5843    4.0671   14.0943 H   0  0  0  0  0  0  0  0  0  0  0  0
   47.2525    9.4968   12.4697 H   0  0  0  0  0  0  0  0  0  0  0  0
   42.5200    6.1696   11.2240 H   0  0  0  0  0  0  0  0  0  0  0  0
   49.5162    6.2795   15.3965 H   0  0  0  0  0  0  0  0  0  0  0  0
   45.5781    9.0118   11.6953 H   0  0  0  0  0  0  0  0  0  0  0  0
   48.9615    4.3305   15.1875 H   0  0  0  0  0  0  0  0  0  0  0  0
   46.2880    4.2596   16.6699 H   0  0  0  0  0  0  0  0  0  0  0  0
   47.3274    5.6080   17.0452 H   0  0  0  0  0  0  0  0  0  0  0  0
   50.5045    8.4646   14.9303 H   0  0  0  0  0  0  0  0  0  0  0  0
   47.7133    2.5866   17.5270 H   0  0  0  0  0  0  0  0  0  0  0  0
   47.2721    3.7917   18.7279 H   0  0  0  0  0  0  0  0  0  0  0  0
   47.5124    3.1315   13.9222 H   0  0  0  0  0  0  0  0  0  0  0  0
   49.7056    2.4925   16.5100 H   0  0  0  0  0  0  0  0  0  0  0  0
   50.5828    4.0974   16.6821 H   0  0  0  0  0  0  0  0  0  0  0  0
   50.6997    5.1394   18.7726 H   0  0  0  0  0  0  0  0  0  0  0  0
   49.4297    5.7457   17.7214 H   0  0  0  0  0  0  0  0  0  0  0  0
   51.2261    1.5103   18.1930 H   0  0  0  0  0  0  0  0  0  0  0  0
   52.0131    2.1370   16.7421 H   0  0  0  0  0  0  0  0  0  0  0  0
   49.1257    6.5896   20.0510 H   0  0  0  0  0  0  0  0  0  0  0  0
   47.7672    5.5375   19.5973 H   0  0  0  0  0  0  0  0  0  0  0  0
   51.9848    3.4383   19.4823 H   0  0  0  0  0  0  0  0  0  0  0  0
   52.7209    4.2347   18.0359 H   0  0  0  0  0  0  0  0  0  0  0  0
   48.7539    3.6826   20.9636 H   0  0  0  0  0  0  0  0  0  0  0  0
   48.4793    5.1987   21.8507 H   0  0  0  0  0  0  0  0  0  0  0  0
   54.3956    2.6283   17.9572 H   0  0  0  0  0  0  0  0  0  0  0  0
   54.1451    2.7531   19.7156 H   0  0  0  0  0  0  0  0  0  0  0  0
   53.4342    1.3522   18.8504 H   0  0  0  0  0  0  0  0  0  0  0  0
   50.6241    5.2451   22.5151 H   0  0  0  0  0  0  0  0  0  0  0  0
   51.1967    5.3129   20.7744 H   0  0  0  0  0  0  0  0  0  0  0  0
   50.9110    3.7311   21.6084 H   0  0  0  0  0  0  0  0  0  0  0  0
  3  2  2  0
  4  3  1  0
  5  2  1  0
  6  5  2  0
  7 11  1  0
  8  6  1  0
  9  2  1  0
 10  4  1  0
 11  9  2  0
 12 15  1  0
 13  5  1  0
 14  3  1  0
 15 14  2  0
 16  6  1  0
 17 16  1  0
 18 11  1  0
 19  7  1  0
 20  7  1  0
 21  7  1  0
 22 10  1  0
 23 17  1  0
 24 23  1  0
 25 15  1  0
 26 16  1  0
 27 24  1  0
 28 24  1  0
 29 27  1  0
 30 28  1  0
 31 29  1  0
 32 30  1  0
 33 31  1  0
 34 32  1  0
 18 13  2  0
  8  4  2  0
 10 12  2  0
  1 35  1  0
  8 36  1  0
  9 37  1  0
 12 38  1  0
 13 39  1  0
 14 40  1  0
 16 41  1  1
 17 42  1  0
 17 43  1  0
 18 44  1  0
 23 45  1  0
 23 46  1  0
 26 47  1  0
 27 48  1  0
 27 49  1  0
 28 50  1  0
 28 51  1  0
 29 52  1  0
 29 53  1  0
 30 54  1  0
 30 55  1  0
 31 56  1  0
 31 57  1  0
 32 58  1  0
 32 59  1  0
 33 60  1  0
 33 61  1  0
 33 62  1  0
 34 63  1  0
 34 64  1  0
 34 65  1  0
M  END
> <Uni-Dock RESULT> 
ENERGY=   -5.592  LOWER_BOUND=    4.218  UPPER_BOUND=    5.851
INTER + INTRA:          -5.592
INTER:                  -5.592
INTRA:                   0.000
UNBOUND:                 0.000

$$$$

     RDKit          3D

 65 66  0  0  0  0  0  0  0  0999 V2000
   48.4296    8.8736   12.3063 Cl  0  0  0  0  0  0  0  0  0  0  0  0
   45.2513    8.7607   12.0497 C   0  0  0  0  0  0  0  0  0  0  0  0
   44.5409    9.8462   11.5866 C   0  0  0  0  0  0  0  0  0  0  0  0
   45.1672   11.0698   11.4742 C   0  0  0  0  0  0  0  0  0  0  0  0
   46.5877    8.9278   12.3932 C   0  0  0  0  0  0  0  0  0  0  0  0
   47.2361   10.1401   12.2898 C   0  0  0  0  0  0  0  0  0  0  0  0
   44.7385    5.1099   12.7824 C   0  0  0  0  0  0  0  0  0  0  0  0
   46.4818   11.2029   11.8195 C   0  0  0  0  0  0  0  0  0  0  0  0
   44.6481    7.5288   12.1730 C   0  0  0  0  0  0  0  0  0  0  0  0
   44.5176   12.2076   11.0161 C   0  0  0  0  0  0  0  0  0  0  0  0
   45.3756    6.4335   12.6455 C   0  0  0  0  0  0  0  0  0  0  0  0
   43.1913   12.0728   10.6677 C   0  0  0  0  0  0  0  0  0  0  0  0
   47.2893    7.8218   12.8608 C   0  0  0  0  0  0  0  0  0  0  0  0
   43.2167    9.7293   11.2347 C   0  0  0  0  0  0  0  0  0  0  0  0
   42.5392   10.8629   10.7696 C   0  0  0  0  0  0  0  0  0  0  0  0
   48.6833   10.3069   12.6627 C   0  0  1  0  0  0  0  0  0  0  0  0
   49.5503   10.1337   11.4504 C   0  0  0  0  0  0  0  0  0  0  0  0
   46.6967    6.5829   12.9889 C   0  0  0  0  0  0  0  0  0  0  0  0
   44.7753    4.3552   11.6262 F   0  0  0  0  0  0  0  0  0  0  0  0
   45.2983    4.3701   13.8062 F   0  0  0  0  0  0  0  0  0  0  0  0
   43.3814    5.2818   13.0844 F   0  0  0  0  0  0  0  0  0  0  0  0
   45.3184   13.7413   10.8799 Cl  0  0  0  0  0  0  0  0  0  0  0  0
   50.9882   10.2583   11.5581 C   0  0  0  0  0  0  0  0  0  0  0  0
   51.7997    9.3611   12.3516 N   0  0  0  0  0  0  0  0  0  0  0  0
   40.8370   10.7365   10.3111 Cl  0  0  0  0  0  0  0  0  0  0  0  0
   48.7840   11.6832   12.9965 O   0  0  0  0  0  0  0  0  0  0  0  0
   51.5809    9.5151   13.7538 C   0  0  0  0  0  0  0  0  0  0  0  0
   51.5048    7.9904   11.9032 C   0  0  0  0  0  0  0  0  0  0  0  0
   52.7051    9.2277   14.6917 C   0  0  0  0  0  0  0  0  0  0  0  0
   51.9774    7.7819   10.4905 C   0  0  0  0  0  0  0  0  0  0  0  0
   53.2931    7.8637   14.7023 C   0  0  0  0  0  0  0  0  0  0  0  0
   53.4310    7.9640   10.2553 C   0  0  0  0  0  0  0  0  0  0  0  0
   54.3984    7.7624   15.7717 C   0  0  0  0  0  0  0  0  0  0  0  0
   54.2846    7.0050   11.0367 C   0  0  0  0  0  0  0  0  0  0  0  0
   49.8043    8.7712   12.3864 H   0  0  0  0  0  0  0  0  0  0  0  0
   47.0115   12.1571   11.7440 H   0  0  0  0  0  0  0  0  0  0  0  0
   43.6211    7.3223   11.9275 H   0  0  0  0  0  0  0  0  0  0  0  0
   42.6096   12.9207   10.2985 H   0  0  0  0  0  0  0  0  0  0  0  0
   48.3375    7.8769   13.1482 H   0  0  0  0  0  0  0  0  0  0  0  0
   42.6555    8.8373   11.2866 H   0  0  0  0  0  0  0  0  0  0  0  0
   48.9415    9.7789   13.5576 H   0  0  0  0  0  0  0  0  0  0  0  0
   49.2085   10.9856   10.7607 H   0  0  0  0  0  0  0  0  0  0  0  0
   49.2053    9.2439   10.8377 H   0  0  0  0  0  0  0  0  0  0  0  0
   47.2339    5.7069   13.3538 H   0  0  0  0  0  0  0  0  0  0  0  0
   51.2211   11.2946   11.9520 H   0  0  0  0  0  0  0  0  0  0  0  0
   51.4211   10.3021   10.5152 H   0  0  0  0  0  0  0  0  0  0  0  0
   48.0197   11.8489   13.6178 H   0  0  0  0  0  0  0  0  0  0  0  0
   51.1645   10.4901   14.0405 H   0  0  0  0  0  0  0  0  0  0  0  0
   50.8157    8.6866   14.0171 H   0  0  0  0  0  0  0  0  0  0  0  0
   51.9995    7.2930   12.5589 H   0  0  0  0  0  0  0  0  0  0  0  0
   50.4163    7.7852   11.9787 H   0  0  0  0  0  0  0  0  0  0  0  0
   53.5238   10.0005   14.5910 H   0  0  0  0  0  0  0  0  0  0  0  0
   52.3399    9.4122   15.7614 H   0  0  0  0  0  0  0  0  0  0  0  0
   51.7394    6.7277   10.1449 H   0  0  0  0  0  0  0  0  0  0  0  0
   51.4208    8.4346    9.7661 H   0  0  0  0  0  0  0  0  0  0  0  0
   53.8596    7.7389   13.7381 H   0  0  0  0  0  0  0  0  0  0  0  0
   52.5772    7.0444   14.8064 H   0  0  0  0  0  0  0  0  0  0  0  0
   53.7727    9.0117   10.4117 H   0  0  0  0  0  0  0  0  0  0  0  0
   53.6284    7.7556    9.1617 H   0  0  0  0  0  0  0  0  0  0  0  0
   53.9023    7.3861   16.6822 H   0  0  0  0  0  0  0  0  0  0  0  0
   55.1473    7.0040   15.4679 H   0  0  0  0  0  0  0  0  0  0  0  0
   54.9038    8.7201   15.9286 H   0  0  0  0  0  0  0  0  0  0  0  0
   54.8902    6.3479   10.3741 H   0  0  0  0  0  0  0  0  0  0  0  0
   53.6776    6.3918   11.7489 H   0  0  0  0  0  0  0  0  0  0  0  0
   55.0223    7.6001   11.6433 H   0  0  0  0  0  0  0  0  0  0  0  0
  3  2  2  0
  4  3  1  0
  5  2  1  0
  6  5  2  0
  7 11  1  0
  8  6  1  0
  9  2  1  0
 10  4  1  0
 11  9  2  0
 12 15  1  0
 13  5  1  0
 14  3  1  0
 15 14  2  0
 16  6  1  0
 17 16  1  0
 18 11  1  0
 19  7  1  0
 20  7  1  0
 21  7  1  0
 22 10  1  0
 23 17  1  0
 24 23  1  0
 25 15  1  0
 26 16  1  0
 27 24  1  0
 28 24  1  0
 29 27  1  0
 30 28  1  0
 31 29  1  0
 32 30  1  0
 33 31  1  0
 34 32  1  0
 18 13  2  0
  8  4  2  0
 10 12  2  0
  1 35  1  0
  8 36  1  0
  9 37  1  0
 12 38  1  0
 13 39  1  0
 14 40  1  0
 16 41  1  1
 17 42  1  0
 17 43  1  0
 18 44  1  0
 23 45  1  0
 23 46  1  0
 26 47  1  0
 27 48  1  0
 27 49  1  0
 28 50  1  0
 28 51  1  0
 29 52  1  0
 29 53  1  0
 30 54  1  0
 30 55  1  0
 31 56  1  0
 31 57  1  0
 32 58  1  0
 32 59  1  0
 33 60  1  0
 33 61  1  0
 33 62  1  0
 34 63  1  0
 34 64  1  0
 34 65  1  0
M  END
> <Uni-Dock RESULT> 
ENERGY=   -5.479  LOWER_BOUND=    3.752  UPPER_BOUND=    6.064
INTER + INTRA:          -5.479
INTER:                  -5.479
INTRA:                   0.000
UNBOUND:                 0.000

$$$$

     RDKit          3D

 65 66  0  0  0  0  0  0  0  0999 V2000
   44.9436   10.8265   10.7115 Cl  0  0  0  0  0  0  0  0  0  0  0  0
   46.4249    8.6425   12.5050 C   0  0  0  0  0  0  0  0  0  0  0  0
   45.9234    7.3647   12.6200 C   0  0  0  0  0  0  0  0  0  0  0  0
   44.6476    7.0930   12.1721 C   0  0  0  0  0  0  0  0  0  0  0  0
   45.6279    9.6297   11.9373 C   0  0  0  0  0  0  0  0  0  0  0  0
   44.3501    9.3833   11.4822 C   0  0  0  0  0  0  0  0  0  0  0  0
   49.5538   10.5680   13.2991 C   0  0  0  0  0  0  0  0  0  0  0  0
   43.8883    8.0841   11.6186 C   0  0  0  0  0  0  0  0  0  0  0  0
   47.6950    8.9397   12.9467 C   0  0  0  0  0  0  0  0  0  0  0  0
   44.0747    5.8315   12.2542 C   0  0  0  0  0  0  0  0  0  0  0  0
   48.1950   10.2390   12.8280 C   0  0  0  0  0  0  0  0  0  0  0  0
   44.8413    4.8319   12.8126 C   0  0  0  0  0  0  0  0  0  0  0  0
   46.1493   10.9146   11.8307 C   0  0  0  0  0  0  0  0  0  0  0  0
   46.6748    6.3555   13.1748 C   0  0  0  0  0  0  0  0  0  0  0  0
   46.1190    5.0737   13.2689 C   0  0  0  0  0  0  0  0  0  0  0  0
   43.4989   10.4601   10.8678 C   0  0  1  0  0  0  0  0  0  0  0  0
   43.6579   10.4531    9.3758 C   0  0  0  0  0  0  0  0  0  0  0  0
   47.4195   11.2250   12.2694 C   0  0  0  0  0  0  0  0  0  0  0  0
   50.5373   10.3398   12.3565 F   0  0  0  0  0  0  0  0  0  0  0  0
   49.6503   11.8791   13.7239 F   0  0  0  0  0  0  0  0  0  0  0  0
   49.8725    9.7501   14.3909 F   0  0  0  0  0  0  0  0  0  0  0  0
   42.4678    5.5040   11.6865 Cl  0  0  0  0  0  0  0  0  0  0  0  0
   42.9271   11.3990    8.5599 C   0  0  0  0  0  0  0  0  0  0  0  0
   43.1251   12.8297    8.6434 N   0  0  0  0  0  0  0  0  0  0  0  0
   47.0662    3.7607   13.9780 Cl  0  0  0  0  0  0  0  0  0  0  0  0
   42.1730   10.0091   11.1010 O   0  0  0  0  0  0  0  0  0  0  0  0
   42.6587   13.3795    9.8754 C   0  0  0  0  0  0  0  0  0  0  0  0
   44.5607   13.0863    8.4431 C   0  0  0  0  0  0  0  0  0  0  0  0
   42.1601   14.7856    9.8912 C   0  0  0  0  0  0  0  0  0  0  0  0
   44.9729   12.7263    7.0421 C   0  0  0  0  0  0  0  0  0  0  0  0
   43.0881   15.8751    9.4936 C   0  0  0  0  0  0  0  0  0  0  0  0
   44.2898   13.4644    5.9510 C   0  0  0  0  0  0  0  0  0  0  0  0
   42.3976   17.2464    9.6284 C   0  0  0  0  0  0  0  0  0  0  0  0
   44.5273   14.9477    5.9970 C   0  0  0  0  0  0  0  0  0  0  0  0
   44.4423   11.8310    9.9077 H   0  0  0  0  0  0  0  0  0  0  0  0
   42.8728    7.9062   11.2527 H   0  0  0  0  0  0  0  0  0  0  0  0
   48.3690    8.2311   13.3952 H   0  0  0  0  0  0  0  0  0  0  0  0
   44.4629    3.8119   12.9135 H   0  0  0  0  0  0  0  0  0  0  0  0
   45.5840   11.7375   11.3974 H   0  0  0  0  0  0  0  0  0  0  0  0
   47.6569    6.4678   13.5437 H   0  0  0  0  0  0  0  0  0  0  0  0
   43.5763   11.3929   11.3875 H   0  0  0  0  0  0  0  0  0  0  0  0
   43.2744    9.4130    9.0769 H   0  0  0  0  0  0  0  0  0  0  0  0
   44.7502   10.3409    9.0921 H   0  0  0  0  0  0  0  0  0  0  0  0
   47.8417   12.2275   12.1923 H   0  0  0  0  0  0  0  0  0  0  0  0
   41.8211   11.2419    8.7477 H   0  0  0  0  0  0  0  0  0  0  0  0
   43.0268   11.0879    7.4780 H   0  0  0  0  0  0  0  0  0  0  0  0
   42.1569    9.7620   12.0687 H   0  0  0  0  0  0  0  0  0  0  0  0
   41.9047   12.7654   10.3860 H   0  0  0  0  0  0  0  0  0  0  0  0
   43.6062   13.4411   10.5386 H   0  0  0  0  0  0  0  0  0  0  0  0
   44.7588   14.1300    8.6237 H   0  0  0  0  0  0  0  0  0  0  0  0
   45.1618   12.5132    9.1799 H   0  0  0  0  0  0  0  0  0  0  0  0
   41.1894   14.8772    9.3193 H   0  0  0  0  0  0  0  0  0  0  0  0
   41.8281   15.0398   10.9574 H   0  0  0  0  0  0  0  0  0  0  0  0
   46.0818   12.9158    6.8944 H   0  0  0  0  0  0  0  0  0  0  0  0
   44.8594   11.6266    6.8456 H   0  0  0  0  0  0  0  0  0  0  0  0
   43.2542   15.7816    8.3846 H   0  0  0  0  0  0  0  0  0  0  0  0
   44.0556   15.8769   10.0022 H   0  0  0  0  0  0  0  0  0  0  0  0
   43.2011   13.2423    5.8862 H   0  0  0  0  0  0  0  0  0  0  0  0
   44.7185   13.0982    4.9710 H   0  0  0  0  0  0  0  0  0  0  0  0
   42.6499   17.6121   10.6380 H   0  0  0  0  0  0  0  0  0  0  0  0
   42.8337   17.9602    8.9016 H   0  0  0  0  0  0  0  0  0  0  0  0
   41.3188   17.1787    9.4587 H   0  0  0  0  0  0  0  0  0  0  0  0
   45.0438   15.3176    5.0837 H   0  0  0  0  0  0  0  0  0  0  0  0
   45.0889   15.2516    6.9157 H   0  0  0  0  0  0  0  0  0  0  0  0
   43.5289   15.4661    6.0215 H   0  0  0  0  0  0  0  0  0  0  0  0
  3  2  2  0
  4  3  1  0
  5  2  1  0
  6  5  2  0
  7 11  1  0
  8  6  1  0
  9  2  1  0
 10  4  1  0
 11  9  2  0
 12 15  1  0
 13  5  1  0
 14  3  1  0
 15 14  2  0
 16  6  1  0
 17 16  1  0
 18 11  1  0
 19  7  1  0
 20  7  1  0
 21  7  1  0
 22 10  1  0
 23 17  1  0
 24 23  1  0
 25 15  1  0
 26 16  1  0
 27 24  1  0
 28 24  1  0
 29 27  1  0
 30 28  1  0
 31 29  1  0
 32 30  1  0
 33 31  1  0
 34 32  1  0
 18 13  2  0
  8  4  2  0
 10 12  2  0
  1 35  1  0
  8 36  1  0
  9 37  1  0
 12 38  1  0
 13 39  1  0
 14 40  1  0
 16 41  1  1
 17 42  1  0
 17 43  1  0
 18 44  1  0
 23 45  1  0
 23 46  1  0
 26 47  1  0
 27 48  1  0
 27 49  1  0
 28 50  1  0
 28 51  1  0
 29 52  1  0
 29 53  1  0
 30 54  1  0
 30 55  1  0
 31 56  1  0
 31 57  1  0
 32 58  1  0
 32 59  1  0
 33 60  1  0
 33 61  1  0
 33 62  1  0
 34 63  1  0
 34 64  1  0
 34 65  1  0
M  END
> <Uni-Dock RESULT> 
ENERGY=   -5.334  LOWER_BOUND=    4.180  UPPER_BOUND=    7.442
INTER + INTRA:          -5.334
INTER:                  -5.334
INTRA:                   0.000
UNBOUND:                 0.000

$$$$

     RDKit          3D

 65 66  0  0  0  0  0  0  0  0999 V2000
   47.3886    8.7756   12.3865 Cl  0  0  0  0  0  0  0  0  0  0  0  0
   46.9534    5.8624   13.6128 C   0  0  0  0  0  0  0  0  0  0  0  0
   47.5371    5.5045   14.8082 C   0  0  0  0  0  0  0  0  0  0  0  0
   48.5161    6.3085   15.3533 C   0  0  0  0  0  0  0  0  0  0  0  0
   47.3684    7.0305   12.9843 C   0  0  0  0  0  0  0  0  0  0  0  0
   48.3446    7.8506   13.5087 C   0  0  0  0  0  0  0  0  0  0  0  0
   44.3420    4.6080   11.2179 C   0  0  0  0  0  0  0  0  0  0  0  0
   48.9029    7.4506   14.7120 C   0  0  0  0  0  0  0  0  0  0  0  0
   45.9752    5.0753   13.0469 C   0  0  0  0  0  0  0  0  0  0  0  0
   49.1493    6.0139   16.5526 C   0  0  0  0  0  0  0  0  0  0  0  0
   45.3899    5.4447   11.8331 C   0  0  0  0  0  0  0  0  0  0  0  0
   48.7587    4.8615   17.1993 C   0  0  0  0  0  0  0  0  0  0  0  0
   46.7698    7.3756   11.7773 C   0  0  0  0  0  0  0  0  0  0  0  0
   47.1592    4.3580   15.4665 C   0  0  0  0  0  0  0  0  0  0  0  0
   47.7833    4.0387   16.6786 C   0  0  0  0  0  0  0  0  0  0  0  0
   48.7830    9.1133   12.8195 C   0  0  1  0  0  0  0  0  0  0  0  0
   48.0058   10.2836   13.3465 C   0  0  0  0  0  0  0  0  0  0  0  0
   45.7893    6.5959   11.2001 C   0  0  0  0  0  0  0  0  0  0  0  0
   43.0681    4.8964   11.6671 F   0  0  0  0  0  0  0  0  0  0  0  0
   44.3512    4.6986    9.8394 F   0  0  0  0  0  0  0  0  0  0  0  0
   44.5706    3.2665   11.5504 F   0  0  0  0  0  0  0  0  0  0  0  0
   50.3801    7.0349   17.2269 Cl  0  0  0  0  0  0  0  0  0  0  0  0
   48.2582   11.6151   12.8387 C   0  0  0  0  0  0  0  0  0  0  0  0
   48.0230   11.9910   11.4615 N   0  0  0  0  0  0  0  0  0  0  0  0
   47.3137    2.5703   17.5429 Cl  0  0  0  0  0  0  0  0  0  0  0  0
   50.1082    9.3063   13.2909 O   0  0  0  0  0  0  0  0  0  0  0  0
   48.9325   11.3651   10.5566 C   0  0  0  0  0  0  0  0  0  0  0  0
   46.6252   11.6532   11.1471 C   0  0  0  0  0  0  0  0  0  0  0  0
   49.2991   12.0787    9.2987 C   0  0  0  0  0  0  0  0  0  0  0  0
   45.6808   12.5121   11.9426 C   0  0  0  0  0  0  0  0  0  0  0  0
   48.2222   12.4238    8.3356 C   0  0  0  0  0  0  0  0  0  0  0  0
   45.7866   13.9756   11.7216 C   0  0  0  0  0  0  0  0  0  0  0  0
   48.8150   13.1058    7.0870 C   0  0  0  0  0  0  0  0  0  0  0  0
   45.4964   14.3856   10.3050 C   0  0  0  0  0  0  0  0  0  0  0  0
   47.4352   10.0230   11.7962 H   0  0  0  0  0  0  0  0  0  0  0  0
   49.6758    8.1125   15.1137 H   0  0  0  0  0  0  0  0  0  0  0  0
   45.6026    4.1602   13.4728 H   0  0  0  0  0  0  0  0  0  0  0  0
   49.2087    4.5593   18.1479 H   0  0  0  0  0  0  0  0  0  0  0  0
   47.0433    8.2749   11.2287 H   0  0  0  0  0  0  0  0  0  0  0  0
   46.4220    3.6833   15.1280 H   0  0  0  0  0  0  0  0  0  0  0  0
   48.8741    8.9935   11.7595 H   0  0  0  0  0  0  0  0  0  0  0  0
   48.2918   10.3082   14.4581 H   0  0  0  0  0  0  0  0  0  0  0  0
   46.9062   10.0222   13.4396 H   0  0  0  0  0  0  0  0  0  0  0  0
   45.3110    6.8537   10.2547 H   0  0  0  0  0  0  0  0  0  0  0  0
   49.3468   11.8625   13.0312 H   0  0  0  0  0  0  0  0  0  0  0  0
   47.7285   12.3574   13.5061 H   0  0  0  0  0  0  0  0  0  0  0  0
   50.5498    8.4181   13.1733 H   0  0  0  0  0  0  0  0  0  0  0  0
   49.8696   11.0289   11.0202 H   0  0  0  0  0  0  0  0  0  0  0  0
   48.3548   10.4418   10.1627 H   0  0  0  0  0  0  0  0  0  0  0  0
   46.4561   11.8056   10.0940 H   0  0  0  0  0  0  0  0  0  0  0  0
   46.4323   10.5791   11.3512 H   0  0  0  0  0  0  0  0  0  0  0  0
   49.9267   12.9924    9.5200 H   0  0  0  0  0  0  0  0  0  0  0  0
   50.0356   11.4254    8.7136 H   0  0  0  0  0  0  0  0  0  0  0  0
   44.6046   12.2421   11.7053 H   0  0  0  0  0  0  0  0  0  0  0  0
   45.7704   12.3169   13.0447 H   0  0  0  0  0  0  0  0  0  0  0  0
   47.6070   13.2412    8.8042 H   0  0  0  0  0  0  0  0  0  0  0  0
   47.5646   11.5985    8.0507 H   0  0  0  0  0  0  0  0  0  0  0  0
   46.7563   14.4017   12.0634 H   0  0  0  0  0  0  0  0  0  0  0  0
   45.0065   14.4757   12.3694 H   0  0  0  0  0  0  0  0  0  0  0  0
   48.9927   12.2969    6.3584 H   0  0  0  0  0  0  0  0  0  0  0  0
   48.0665   13.7909    6.6416 H   0  0  0  0  0  0  0  0  0  0  0  0
   49.7214   13.6718    7.3224 H   0  0  0  0  0  0  0  0  0  0  0  0
   44.6182   15.0651   10.2373 H   0  0  0  0  0  0  0  0  0  0  0  0
   45.3603   13.5004    9.6345 H   0  0  0  0  0  0  0  0  0  0  0  0
   46.3751   14.9730    9.9188 H   0  0  0  0  0  0  0  0  0  0  0  0
  3  2  2  0
  4  3  1  0
  5  2  1  0
  6  5  2  0
  7 11  1  0
  8  6  1  0
  9  2  1  0
 10  4  1  0
 11  9  2  0
 12 15  1  0
 13  5  1  0
 14  3  1  0
 15 14  2  0
 16  6  1  0
 17 16  1  0
 18 11  1  0
 19  7  1  0
 20  7  1  0
 21  7  1  0
 22 10  1  0
 23 17  1  0
 24 23  1  0
 25 15  1  0
 26 16  1  0
 27 24  1  0
 28 24  1  0
 29 27  1  0
 30 28  1  0
 31 29  1  0
 32 30  1  0
 33 31  1  0
 34 32  1  0
 18 13  2  0
  8  4  2  0
 10 12  2  0
  1 35  1  0
  8 36  1  0
  9 37  1  0
 12 38  1  0
 13 39  1  0
 14 40  1  0
 16 41  1  1
 17 42  1  0
 17 43  1  0
 18 44  1  0
 23 45  1  0
 23 46  1  0
 26 47  1  0
 27 48  1  0
 27 49  1  0
 28 50  1  0
 28 51  1  0
 29 52  1  0
 29 53  1  0
 30 54  1  0
 30 55  1  0
 31 56  1  0
 31 57  1  0
 32 58  1  0
 32 59  1  0
 33 60  1  0
 33 61  1  0
 33 62  1  0
 34 63  1  0
 34 64  1  0
 34 65  1  0
M  END
> <Uni-Dock RESULT> 
ENERGY=   -5.289  LOWER_BOUND=    3.607  UPPER_BOUND=    5.261
INTER + INTRA:          -5.289
INTER:                  -5.289
INTRA:                   0.000
UNBOUND:                 0.000

$$$$

     RDKit          3D

 65 66  0  0  0  0  0  0  0  0999 V2000
   46.8595   12.2945   12.1123 Cl  0  0  0  0  0  0  0  0  0  0  0  0
   45.2820    9.5239   11.9878 C   0  0  0  0  0  0  0  0  0  0  0  0
   45.8936    8.3455   12.3551 C   0  0  0  0  0  0  0  0  0  0  0  0
   47.2609    8.3170   12.5332 C   0  0  0  0  0  0  0  0  0  0  0  0
   46.0630   10.6591   11.8054 C   0  0  0  0  0  0  0  0  0  0  0  0
   47.4308   10.6562   11.9772 C   0  0  0  0  0  0  0  0  0  0  0  0
   41.8469   10.8449   11.2241 C   0  0  0  0  0  0  0  0  0  0  0  0
   48.0018    9.4490   12.3466 C   0  0  0  0  0  0  0  0  0  0  0  0
   43.9185    9.5778   11.8017 C   0  0  0  0  0  0  0  0  0  0  0  0
   47.9471    7.1684   12.9025 C   0  0  0  0  0  0  0  0  0  0  0  0
   43.3066   10.7768   11.4271 C   0  0  0  0  0  0  0  0  0  0  0  0
   47.1992    6.0266   13.0907 C   0  0  0  0  0  0  0  0  0  0  0  0
   45.4293   11.8398   11.4327 C   0  0  0  0  0  0  0  0  0  0  0  0
   45.1623    7.1969   12.5469 C   0  0  0  0  0  0  0  0  0  0  0  0
   45.8317    6.0250   12.9199 C   0  0  0  0  0  0  0  0  0  0  0  0
   48.2641   11.8923   11.7789 C   0  0  1  0  0  0  0  0  0  0  0  0
   48.4503   12.6026   13.0874 C   0  0  0  0  0  0  0  0  0  0  0  0
   44.0648   11.9068   11.2431 C   0  0  0  0  0  0  0  0  0  0  0  0
   41.1381   11.1009   12.3816 F   0  0  0  0  0  0  0  0  0  0  0  0
   41.4999   11.7918   10.2798 F   0  0  0  0  0  0  0  0  0  0  0  0
   41.3887    9.6048   10.7608 F   0  0  0  0  0  0  0  0  0  0  0  0
   49.6684    7.1469   13.1229 Cl  0  0  0  0  0  0  0  0  0  0  0  0
   49.2287   13.8211   13.1516 C   0  0  0  0  0  0  0  0  0  0  0  0
   48.8469   15.0371   12.4669 N   0  0  0  0  0  0  0  0  0  0  0  0
   44.9125    4.5366   13.1724 Cl  0  0  0  0  0  0  0  0  0  0  0  0
   49.5465   11.3793   11.4502 O   0  0  0  0  0  0  0  0  0  0  0  0
   48.9517   14.9264   11.0476 C   0  0  0  0  0  0  0  0  0  0  0  0
   47.4743   15.3641   12.8863 C   0  0  0  0  0  0  0  0  0  0  0  0
   49.2615   16.1504   10.2529 C   0  0  0  0  0  0  0  0  0  0  0  0
   47.4375   15.7221   14.3468 C   0  0  0  0  0  0  0  0  0  0  0  0
   48.3244   17.3009   10.3221 C   0  0  0  0  0  0  0  0  0  0  0  0
   48.2573   16.8904   14.7529 C   0  0  0  0  0  0  0  0  0  0  0  0
   48.7968   18.4365    9.3933 C   0  0  0  0  0  0  0  0  0  0  0  0
   47.8395   18.1707   14.0858 C   0  0  0  0  0  0  0  0  0  0  0  0
   47.4063   13.5595   12.1979 H   0  0  0  0  0  0  0  0  0  0  0  0
   49.0877    9.4644   12.4785 H   0  0  0  0  0  0  0  0  0  0  0  0
   43.2501    8.7437   11.9240 H   0  0  0  0  0  0  0  0  0  0  0  0
   47.6642    5.0818   13.3819 H   0  0  0  0  0  0  0  0  0  0  0  0
   45.9755   12.7673   11.2724 H   0  0  0  0  0  0  0  0  0  0  0  0
   44.1159    7.1224   12.4345 H   0  0  0  0  0  0  0  0  0  0  0  0
   47.9593   12.4616   10.9250 H   0  0  0  0  0  0  0  0  0  0  0  0
   49.0136   11.8320   13.7254 H   0  0  0  0  0  0  0  0  0  0  0  0
   47.4726   12.6448   13.6605 H   0  0  0  0  0  0  0  0  0  0  0  0
   43.5542   12.8250   10.9512 H   0  0  0  0  0  0  0  0  0  0  0  0
   50.2737   13.5886   12.7813 H   0  0  0  0  0  0  0  0  0  0  0  0
   49.4156   14.0676   14.2385 H   0  0  0  0  0  0  0  0  0  0  0  0
   49.3717   10.6982   10.7408 H   0  0  0  0  0  0  0  0  0  0  0  0
   49.6379   14.1395   10.7066 H   0  0  0  0  0  0  0  0  0  0  0  0
   47.8779   14.6661   10.7005 H   0  0  0  0  0  0  0  0  0  0  0  0
   47.1167   16.1939   12.2993 H   0  0  0  0  0  0  0  0  0  0  0  0
   46.7945   14.5102   12.6826 H   0  0  0  0  0  0  0  0  0  0  0  0
   50.3186   16.5013   10.4455 H   0  0  0  0  0  0  0  0  0  0  0  0
   49.3095   15.8606    9.1460 H   0  0  0  0  0  0  0  0  0  0  0  0
   46.3767   15.9637   14.6687 H   0  0  0  0  0  0  0  0  0  0  0  0
   47.7236   14.8511   14.9950 H   0  0  0  0  0  0  0  0  0  0  0  0
   48.4273   17.7516   11.3480 H   0  0  0  0  0  0  0  0  0  0  0  0
   47.2736   17.0624   10.1388 H   0  0  0  0  0  0  0  0  0  0  0  0
   49.3508   16.7223   14.6313 H   0  0  0  0  0  0  0  0  0  0  0  0
   48.1096   17.0411   15.8636 H   0  0  0  0  0  0  0  0  0  0  0  0
   48.2796   18.2740    8.4326 H   0  0  0  0  0  0  0  0  0  0  0  0
   48.4550   19.4133    9.7896 H   0  0  0  0  0  0  0  0  0  0  0  0
   49.8861   18.4542    9.2913 H   0  0  0  0  0  0  0  0  0  0  0  0
   47.5036   18.9355   14.8206 H   0  0  0  0  0  0  0  0  0  0  0  0
   47.0515   17.9988   13.3103 H   0  0  0  0  0  0  0  0  0  0  0  0
   48.7367   18.6098   13.5676 H   0  0  0  0  0  0  0  0  0  0  0  0
  3  2  2  0
  4  3  1  0
  5  2  1  0
  6  5  2  0
  7 11  1  0
  8  6  1  0
  9  2  1  0
 10  4  1  0
 11  9  2  0
 12 15  1  0
 13  5  1  0
 14  3  1  0
 15 14  2  0
 16  6  1  0
 17 16  1  0
 18 11  1  0
 19  7  1  0
 20  7  1  0
 21  7  1  0
 22 10  1  0
 23 17  1  0
 24 23  1  0
 25 15  1  0
 26 16  1  0
 27 24  1  0
 28 24  1  0
 29 27  1  0
 30 28  1  0
 31 29  1  0
 32 30  1  0
 33 31  1  0
 34 32  1  0
 18 13  2  0
  8  4  2  0
 10 12  2  0
  1 35  1  0
  8 36  1  0
  9 37  1  0
 12 38  1  0
 13 39  1  0
 14 40  1  0
 16 41  1  1
 17 42  1  0
 17 43  1  0
 18 44  1  0
 23 45  1  0
 23 46  1  0
 26 47  1  0
 27 48  1  0
 27 49  1  0
 28 50  1  0
 28 51  1  0
 29 52  1  0
 29 53  1  0
 30 54  1  0
 30 55  1  0
 31 56  1  0
 31 57  1  0
 32 58  1  0
 32 59  1  0
 33 60  1  0
 33 61  1  0
 33 62  1  0
 34 63  1  0
 34 64  1  0
 34 65  1  0
M  END
> <Uni-Dock RESULT> 
ENERGY=   -5.157  LOWER_BOUND=    3.691  UPPER_BOUND=    4.396
INTER + INTRA:          -5.157
INTER:                  -5.157
INTRA:                   0.000
UNBOUND:                 0.000

$$$$

     RDKit          3D

 65 66  0  0  0  0  0  0  0  0999 V2000
   49.3614    9.0559   16.1297 Cl  0  0  0  0  0  0  0  0  0  0  0  0
   48.0134    8.3145   18.9249 C   0  0  0  0  0  0  0  0  0  0  0  0
   48.1283    7.0463   19.4505 C   0  0  0  0  0  0  0  0  0  0  0  0
   48.6046    6.0234   18.6576 C   0  0  0  0  0  0  0  0  0  0  0  0
   48.3824    8.5309   17.6025 C   0  0  0  0  0  0  0  0  0  0  0  0
   48.8611    7.5254   16.7899 C   0  0  0  0  0  0  0  0  0  0  0  0
   46.9145   11.7536   19.9705 C   0  0  0  0  0  0  0  0  0  0  0  0
   48.9594    6.2670   17.3615 C   0  0  0  0  0  0  0  0  0  0  0  0
   47.5385    9.3524   19.6956 C   0  0  0  0  0  0  0  0  0  0  0  0
   48.7482    4.7213   19.1161 C   0  0  0  0  0  0  0  0  0  0  0  0
   47.4231   10.6352   19.1538 C   0  0  0  0  0  0  0  0  0  0  0  0
   48.3902    4.4759   20.4239 C   0  0  0  0  0  0  0  0  0  0  0  0
   48.2580    9.8169   17.0876 C   0  0  0  0  0  0  0  0  0  0  0  0
   47.7755    6.7841   20.7534 C   0  0  0  0  0  0  0  0  0  0  0  0
   47.9112    5.4781   21.2397 C   0  0  0  0  0  0  0  0  0  0  0  0
   49.2592    7.7735   15.3611 C   0  0  1  0  0  0  0  0  0  0  0  0
   50.7289    8.0642   15.2795 C   0  0  0  0  0  0  0  0  0  0  0  0
   47.7838   10.8647   17.8489 C   0  0  0  0  0  0  0  0  0  0  0  0
   47.8935   12.3919   20.7067 F   0  0  0  0  0  0  0  0  0  0  0  0
   46.2583   12.6970   19.2037 F   0  0  0  0  0  0  0  0  0  0  0  0
   45.9941   11.2599   20.9041 F   0  0  0  0  0  0  0  0  0  0  0  0
   49.3488    3.4435   18.1069 Cl  0  0  0  0  0  0  0  0  0  0  0  0
   51.3503    8.3282   13.9994 C   0  0  0  0  0  0  0  0  0  0  0  0
   51.0089    9.4693   13.1781 N   0  0  0  0  0  0  0  0  0  0  0  0
   47.4643    5.1174   22.9112 Cl  0  0  0  0  0  0  0  0  0  0  0  0
   49.0980    6.5041   14.7460 O   0  0  0  0  0  0  0  0  0  0  0  0
   49.6922    9.3821   12.6337 C   0  0  0  0  0  0  0  0  0  0  0  0
   51.1744   10.6731   14.0090 C   0  0  0  0  0  0  0  0  0  0  0  0
   49.4143   10.0302   11.3190 C   0  0  0  0  0  0  0  0  0  0  0  0
   52.6220   10.8781   14.3624 C   0  0  0  0  0  0  0  0  0  0  0  0
   49.6161   11.4963   11.1906 C   0  0  0  0  0  0  0  0  0  0  0  0
   53.5523   11.0621   13.2211 C   0  0  0  0  0  0  0  0  0  0  0  0
   49.2256   11.9717    9.7775 C   0  0  0  0  0  0  0  0  0  0  0  0
   53.2387   12.2726   12.3874 C   0  0  0  0  0  0  0  0  0  0  0  0
   49.9626    9.5194   14.9763 H   0  0  0  0  0  0  0  0  0  0  0  0
   49.3407    5.4811   16.7029 H   0  0  0  0  0  0  0  0  0  0  0  0
   47.2343    9.2627   20.7237 H   0  0  0  0  0  0  0  0  0  0  0  0
   48.4734    3.4778   20.8603 H   0  0  0  0  0  0  0  0  0  0  0  0
   48.5275   10.0612   16.0619 H   0  0  0  0  0  0  0  0  0  0  0  0
   47.4029    7.5001   21.4330 H   0  0  0  0  0  0  0  0  0  0  0  0
   48.5786    8.4238   14.8511 H   0  0  0  0  0  0  0  0  0  0  0  0
   51.2087    7.0979   15.6722 H   0  0  0  0  0  0  0  0  0  0  0  0
   51.0401    8.7786   16.1036 H   0  0  0  0  0  0  0  0  0  0  0  0
   47.6809   11.8779   17.4591 H   0  0  0  0  0  0  0  0  0  0  0  0
   51.1825    7.4254   13.3361 H   0  0  0  0  0  0  0  0  0  0  0  0
   52.4718    8.3113   14.1375 H   0  0  0  0  0  0  0  0  0  0  0  0
   48.1917    6.1977   15.0330 H   0  0  0  0  0  0  0  0  0  0  0  0
   49.2943    8.3598   12.5785 H   0  0  0  0  0  0  0  0  0  0  0  0
   49.0392   10.0015   13.3626 H   0  0  0  0  0  0  0  0  0  0  0  0
   50.8083   11.5279   13.4646 H   0  0  0  0  0  0  0  0  0  0  0  0
   50.5613   10.5930   14.9311 H   0  0  0  0  0  0  0  0  0  0  0  0
   49.9493    9.4920   10.4812 H   0  0  0  0  0  0  0  0  0  0  0  0
   48.3162    9.8475   11.0504 H   0  0  0  0  0  0  0  0  0  0  0  0
   52.7445   11.8009   15.0111 H   0  0  0  0  0  0  0  0  0  0  0  0
   53.0148   10.0444   15.0037 H   0  0  0  0  0  0  0  0  0  0  0  0
   50.7253   11.6830   11.2245 H   0  0  0  0  0  0  0  0  0  0  0  0
   49.1262   12.1064   11.9538 H   0  0  0  0  0  0  0  0  0  0  0  0
   53.6449   10.1567   12.5805 H   0  0  0  0  0  0  0  0  0  0  0  0
   54.5873   11.2220   13.6472 H   0  0  0  0  0  0  0  0  0  0  0  0
   48.1689   12.2808    9.8457 H   0  0  0  0  0  0  0  0  0  0  0  0
   49.8144   12.8707    9.5070 H   0  0  0  0  0  0  0  0  0  0  0  0
   49.3931   11.1955    9.0247 H   0  0  0  0  0  0  0  0  0  0  0  0
   54.0744   13.0068   12.3840 H   0  0  0  0  0  0  0  0  0  0  0  0
   52.2859   12.7640   12.7079 H   0  0  0  0  0  0  0  0  0  0  0  0
   53.1091   11.9435   11.3191 H   0  0  0  0  0  0  0  0  0  0  0  0
  3  2  2  0
  4  3  1  0
  5  2  1  0
  6  5  2  0
  7 11  1  0
  8  6  1  0
  9  2  1  0
 10  4  1  0
 11  9  2  0
 12 15  1  0
 13  5  1  0
 14  3  1  0
 15 14  2  0
 16  6  1  0
 17 16  1  0
 18 11  1  0
 19  7  1  0
 20  7  1  0
 21  7  1  0
 22 10  1  0
 23 17  1  0
 24 23  1  0
 25 15  1  0
 26 16  1  0
 27 24  1  0
 28 24  1  0
 29 27  1  0
 30 28  1  0
 31 29  1  0
 32 30  1  0
 33 31  1  0
 34 32  1  0
 18 13  2  0
  8  4  2  0
 10 12  2  0
  1 35  1  0
  8 36  1  0
  9 37  1  0
 12 38  1  0
 13 39  1  0
 14 40  1  0
 16 41  1  1
 17 42  1  0
 17 43  1  0
 18 44  1  0
 23 45  1  0
 23 46  1  0
 26 47  1  0
 27 48  1  0
 27 49  1  0
 28 50  1  0
 28 51  1  0
 29 52  1  0
 29 53  1  0
 30 54  1  0
 30 55  1  0
 31 56  1  0
 31 57  1  0
 32 58  1  0
 32 59  1  0
 33 60  1  0
 33 61  1  0
 33 62  1  0
 34 63  1  0
 34 64  1  0
 34 65  1  0
M  END
> <Uni-Dock RESULT> 
ENERGY=   -5.076  LOWER_BOUND=    4.705  UPPER_BOUND=    6.728
INTER + INTRA:          -5.076
INTER:                  -5.076
INTRA:                   0.000
UNBOUND:                 0.000

$$$$

     RDKit          3D

 65 66  0  0  0  0  0  0  0  0999 V2000
   49.0548    9.5175   16.5586 Cl  0  0  0  0  0  0  0  0  0  0  0  0
   47.9192    9.2657   19.5297 C   0  0  0  0  0  0  0  0  0  0  0  0
   47.8659    8.0443   20.1646 C   0  0  0  0  0  0  0  0  0  0  0  0
   48.0613    6.8906   19.4347 C   0  0  0  0  0  0  0  0  0  0  0  0
   48.1700    9.3034   18.1631 C   0  0  0  0  0  0  0  0  0  0  0  0
   48.3685    8.1647   17.4118 C   0  0  0  0  0  0  0  0  0  0  0  0
   47.5716   12.9216   20.3307 C   0  0  0  0  0  0  0  0  0  0  0  0
   48.3058    6.9597   18.0928 C   0  0  0  0  0  0  0  0  0  0  0  0
   47.7253   10.4320   20.2359 C   0  0  0  0  0  0  0  0  0  0  0  0
   48.0224    5.6253   20.0038 C   0  0  0  0  0  0  0  0  0  0  0  0
   47.7790   11.6664   19.5836 C   0  0  0  0  0  0  0  0  0  0  0  0
   47.7758    5.5560   21.3577 C   0  0  0  0  0  0  0  0  0  0  0  0
   48.2184   10.5448   17.5379 C   0  0  0  0  0  0  0  0  0  0  0  0
   47.6207    7.9572   21.5148 C   0  0  0  0  0  0  0  0  0  0  0  0
   47.5766    6.6918   22.1125 C   0  0  0  0  0  0  0  0  0  0  0  0
   48.6413    8.2196   15.9339 C   0  0  1  0  0  0  0  0  0  0  0  0
   50.1207    8.2234   15.6835 C   0  0  0  0  0  0  0  0  0  0  0  0
   48.0258   11.7200   18.2338 C   0  0  0  0  0  0  0  0  0  0  0  0
   48.7246   13.4225   20.9030 F   0  0  0  0  0  0  0  0  0  0  0  0
   47.0111   13.9068   19.5408 F   0  0  0  0  0  0  0  0  0  0  0  0
   46.6890   12.6843   21.3924 F   0  0  0  0  0  0  0  0  0  0  0  0
   48.2700    4.1816   19.0729 Cl  0  0  0  0  0  0  0  0  0  0  0  0
   50.6313    8.2640   14.3299 C   0  0  0  0  0  0  0  0  0  0  0  0
   50.4075    9.3797   13.4364 N   0  0  0  0  0  0  0  0  0  0  0  0
   47.2634    6.5551   23.8466 Cl  0  0  0  0  0  0  0  0  0  0  0  0
   48.1897    6.9576   15.4656 O   0  0  0  0  0  0  0  0  0  0  0  0
   49.0435    9.4966   13.0320 C   0  0  0  0  0  0  0  0  0  0  0  0
   50.8759   10.5937   14.1246 C   0  0  0  0  0  0  0  0  0  0  0  0
   48.7391   10.0784   11.6923 C   0  0  0  0  0  0  0  0  0  0  0  0
   52.3673   10.5525   14.3156 C   0  0  0  0  0  0  0  0  0  0  0  0
   49.1818   11.4660   11.4010 C   0  0  0  0  0  0  0  0  0  0  0  0
   53.1814   10.4681   13.0779 C   0  0  0  0  0  0  0  0  0  0  0  0
   48.7255   11.8919    9.9917 C   0  0  0  0  0  0  0  0  0  0  0  0
   52.9956   11.6455   12.1625 C   0  0  0  0  0  0  0  0  0  0  0  0
   49.5953    9.7672   15.3128 H   0  0  0  0  0  0  0  0  0  0  0  0
   48.4654    6.0665   17.4817 H   0  0  0  0  0  0  0  0  0  0  0  0
   47.5275   10.4828   21.2922 H   0  0  0  0  0  0  0  0  0  0  0  0
   47.7292    4.5979   21.8806 H   0  0  0  0  0  0  0  0  0  0  0  0
   48.4100   10.6521   16.4720 H   0  0  0  0  0  0  0  0  0  0  0  0
   47.4596    8.7819   22.1529 H   0  0  0  0  0  0  0  0  0  0  0  0
   48.0338    8.9427   15.4297 H   0  0  0  0  0  0  0  0  0  0  0  0
   50.4627    7.2189   16.1220 H   0  0  0  0  0  0  0  0  0  0  0  0
   50.6440    8.9305   16.3993 H   0  0  0  0  0  0  0  0  0  0  0  0
   48.0610   12.7002   17.7575 H   0  0  0  0  0  0  0  0  0  0  0  0
   50.2328    7.3585   13.7783 H   0  0  0  0  0  0  0  0  0  0  0  0
   51.7403    8.0491   14.3609 H   0  0  0  0  0  0  0  0  0  0  0  0
   47.2815    6.8496   15.8670 H   0  0  0  0  0  0  0  0  0  0  0  0
   48.4671    8.5655   13.1165 H   0  0  0  0  0  0  0  0  0  0  0  0
   48.5966   10.2831   13.7553 H   0  0  0  0  0  0  0  0  0  0  0  0
   50.6083   11.4557   13.5360 H   0  0  0  0  0  0  0  0  0  0  0  0
   50.3658   10.7032   15.1046 H   0  0  0  0  0  0  0  0  0  0  0  0
   49.0727    9.3848   10.8645 H   0  0  0  0  0  0  0  0  0  0  0  0
   47.6028   10.0830   11.5496 H   0  0  0  0  0  0  0  0  0  0  0  0
   52.7234   11.4849   14.8552 H   0  0  0  0  0  0  0  0  0  0  0  0
   52.6757    9.7138   14.9955 H   0  0  0  0  0  0  0  0  0  0  0  0
   50.3031   11.4446   11.3098 H   0  0  0  0  0  0  0  0  0  0  0  0
   48.8965   12.2157   12.1435 H   0  0  0  0  0  0  0  0  0  0  0  0
   53.0396    9.5132   12.5240 H   0  0  0  0  0  0  0  0  0  0  0  0
   54.2695   10.4655   13.3849 H   0  0  0  0  0  0  0  0  0  0  0  0
   47.7547   12.3972   10.1300 H   0  0  0  0  0  0  0  0  0  0  0  0
   49.4301   12.6408    9.5785 H   0  0  0  0  0  0  0  0  0  0  0  0
   48.6672   11.0407    9.3068 H   0  0  0  0  0  0  0  0  0  0  0  0
   53.9425   12.2082   12.0065 H   0  0  0  0  0  0  0  0  0  0  0  0
   52.1871   12.3300   12.5226 H   0  0  0  0  0  0  0  0  0  0  0  0
   52.6906   11.2624   11.1493 H   0  0  0  0  0  0  0  0  0  0  0  0
  3  2  2  0
  4  3  1  0
  5  2  1  0
  6  5  2  0
  7 11  1  0
  8  6  1  0
  9  2  1  0
 10  4  1  0
 11  9  2  0
 12 15  1  0
 13  5  1  0
 14  3  1  0
 15 14  2  0
 16  6  1  0
 17 16  1  0
 18 11  1  0
 19  7  1  0
 20  7  1  0
 21  7  1  0
 22 10  1  0
 23 17  1  0
 24 23  1  0
 25 15  1  0
 26 16  1  0
 27 24  1  0
 28 24  1  0
 29 27  1  0
 30 28  1  0
 31 29  1  0
 32 30  1  0
 33 31  1  0
 34 32  1  0
 18 13  2  0
  8  4  2  0
 10 12  2  0
  1 35  1  0
  8 36  1  0
  9 37  1  0
 12 38  1  0
 13 39  1  0
 14 40  1  0
 16 41  1  1
 17 42  1  0
 17 43  1  0
 18 44  1  0
 23 45  1  0
 23 46  1  0
 26 47  1  0
 27 48  1  0
 27 49  1  0
 28 50  1  0
 28 51  1  0
 29 52  1  0
 29 53  1  0
 30 54  1  0
 30 55  1  0
 31 56  1  0
 31 57  1  0
 32 58  1  0
 32 59  1  0
 33 60  1  0
 33 61  1  0
 33 62  1  0
 34 63  1  0
 34 64  1  0
 34 65  1  0
M  END
> <Uni-Dock RESULT> 
ENERGY=   -5.004  LOWER_BOUND=    4.795  UPPER_BOUND=    7.232
INTER + INTRA:          -5.004
INTER:                  -5.004
INTRA:                   0.000
UNBOUND:                 0.000

$$$$
