
     RDKit          3D

 56 27  0  0  0  0  0  0  0  0999 V2000
   46.8108    0.6016    7.7632 Mg  0  0  0  0  0 15  0  0  0  0  0  0
   46.8434    0.6372    7.7486 C   0  0  0  0  0  0  0  0  0  0  0  0
   45.9682    1.3850    8.5083 O   0  0  0  0  0  0  0  0  0  0  0  0
   46.5870   -0.7248    7.6314 O   0  0  0  0  0  0  0  0  0  0  0  0
   47.8446    1.1091    7.1646 O   0  0  0  0  0  0  0  0  0  0  0  0
   46.8354    0.1073    7.7404 O   0  0  0  0  0  0  0  0  0  0  0  0
   46.8356    0.1045    7.7403 O   0  0  0  0  0  0  0  0  0  0  0  0
   46.8356    0.1036    7.7402 O   0  0  0  0  0  0  0  0  0  0  0  0
   46.8108    0.6016    7.7632 Mg  0  0  0  0  0 15  0  0  0  0  0  0
   46.8108    0.6016    7.7632 Mg  0  0  0  0  0 15  0  0  0  0  0  0
   47.1035    0.6322    7.5033 O   0  0  0  0  0  0  0  0  0  0  0  0
   46.8353    0.1104    7.7405 O   0  0  0  0  0  0  0  0  0  0  0  0
   46.8356    0.1047    7.7403 O   0  0  0  0  0  0  0  0  0  0  0  0
   46.8355    0.1053    7.7403 O   0  0  0  0  0  0  0  0  0  0  0  0
   46.8355    0.1053    7.7403 O   0  0  0  0  0  0  0  0  0  0  0  0
   46.8352    0.1122    7.7406 O   0  0  0  0  0  0  0  0  0  0  0  0
   46.8355    0.1067    7.7404 O   0  0  0  0  0  0  0  0  0  0  0  0
   46.8355    0.1054    7.7403 O   0  0  0  0  0  0  0  0  0  0  0  0
   46.8352    0.1116    7.7406 O   0  0  0  0  0  0  0  0  0  0  0  0
   46.8353    0.1093    7.7405 O   0  0  0  0  0  0  0  0  0  0  0  0
   46.8354    0.1072    7.7404 O   0  0  0  0  0  0  0  0  0  0  0  0
   46.8353    0.1090    7.7405 O   0  0  0  0  0  0  0  0  0  0  0  0
   46.8355    0.1065    7.7404 O   0  0  0  0  0  0  0  0  0  0  0  0
   46.8356    0.1046    7.7403 O   0  0  0  0  0  0  0  0  0  0  0  0
   47.1053    0.6349    7.5017 O   0  0  0  0  0  0  0  0  0  0  0  0
   47.0923    0.6281    7.5132 O   0  0  0  0  0  0  0  0  0  0  0  0
   47.0954    0.6289    7.5105 O   0  0  0  0  0  0  0  0  0  0  0  0
   46.8108    0.6016    7.7632 Al  0  0  0  0  0 15  0  0  0  0  0  0
   46.8108    0.6016    7.7632 Al  0  0  0  0  0 15  0  0  0  0  0  0
   46.8108    0.6016    7.7632 Mg  0  0  0  0  0 15  0  0  0  0  0  0
   46.8108    0.6016    7.7632 Mg  0  0  0  0  0 15  0  0  0  0  0  0
   46.8108    0.6016    7.7632 Mg  0  0  0  0  0 15  0  0  0  0  0  0
   46.7862    1.0959    7.7861 H   0  0  0  0  0  0  0  0  0  0  0  0
   46.7861    1.0986    7.7862 H   0  0  0  0  0  0  0  0  0  0  0  0
   46.7860    1.0995    7.7863 H   0  0  0  0  0  0  0  0  0  0  0  0
   46.6239    1.3773    7.9308 H   0  0  0  0  0  0  0  0  0  0  0  0
   46.7050   -0.2047    7.8557 H   0  0  0  0  0  0  0  0  0  0  0  0
   46.7864    1.0928    7.7859 H   0  0  0  0  0  0  0  0  0  0  0  0
   46.7861    1.0984    7.7862 H   0  0  0  0  0  0  0  0  0  0  0  0
   46.7861    1.0978    7.7862 H   0  0  0  0  0  0  0  0  0  0  0  0
   46.7861    1.0978    7.7862 H   0  0  0  0  0  0  0  0  0  0  0  0
   46.7865    1.0910    7.7859 H   0  0  0  0  0  0  0  0  0  0  0  0
   46.7862    1.0965    7.7861 H   0  0  0  0  0  0  0  0  0  0  0  0
   46.7861    1.0977    7.7862 H   0  0  0  0  0  0  0  0  0  0  0  0
   46.7864    1.0916    7.7859 H   0  0  0  0  0  0  0  0  0  0  0  0
   46.7863    1.0939    7.7860 H   0  0  0  0  0  0  0  0  0  0  0  0
   46.7862    1.0960    7.7861 H   0  0  0  0  0  0  0  0  0  0  0  0
   46.7863    1.0942    7.7860 H   0  0  0  0  0  0  0  0  0  0  0  0
   46.7862    1.0967    7.7861 H   0  0  0  0  0  0  0  0  0  0  0  0
   46.7861    1.0985    7.7862 H   0  0  0  0  0  0  0  0  0  0  0  0
   46.6224    1.3752    7.9322 H   0  0  0  0  0  0  0  0  0  0  0  0
   46.7048   -0.2053    7.8558 H   0  0  0  0  0  0  0  0  0  0  0  0
   46.7109   -0.2263    7.8504 H   0  0  0  0  0  0  0  0  0  0  0  0
   46.6293    1.4030    7.9261 H   0  0  0  0  0  0  0  0  0  0  0  0
   46.6277    1.3987    7.9275 H   0  0  0  0  0  0  0  0  0  0  0  0
   46.7093   -0.2228    7.8518 H   0  0  0  0  0  0  0  0  0  0  0  0
  3  2  1  0
  4  2  1  0
  5  2  2  0
  6 33  1  0
  7 34  1  0
  8 35  1  0
 11 36  1  0
 11 37  1  0
 12 38  1  0
 13 39  1  0
 14 40  1  0
 15 41  1  0
 16 42  1  0
 17 43  1  0
 18 44  1  0
 19 45  1  0
 20 46  1  0
 21 47  1  0
 22 48  1  0
 23 49  1  0
 24 50  1  0
 25 51  1  0
 25 52  1  0
 26 53  1  0
 26 54  1  0
 27 55  1  0
 27 56  1  0
M  CHG  8   1   2   3  -1   4  -1   6  -1   7  -1   8  -1   9   2  10   2
M  CHG  8  12  -1  13  -1  14  -1  15  -1  16  -1  17  -1  18  -1  19  -1
M  CHG  8  20  -1  21  -1  22  -1  23  -1  24  -1  28   3  29   3  30   2
M  CHG  2  31   2  32   2
M  END
> <Uni-Dock RESULT> 
ENERGY=  -16.289  LOWER_BOUND=    0.000  UPPER_BOUND=    0.000
INTER + INTRA:         -16.289
INTER:                 -16.289
INTRA:                   0.000
UNBOUND:                 0.000

$$$$

     RDKit          3D

 56 27  0  0  0  0  0  0  0  0999 V2000
   38.6355    3.8668    5.6004 Mg  0  0  0  0  0 15  0  0  0  0  0  0
   38.6000    3.8434    5.6274 C   0  0  0  0  0  0  0  0  0  0  0  0
   37.8467    4.8059    4.9883 O   0  0  0  0  0  0  0  0  0  0  0  0
   39.9646    3.8165    5.3602 O   0  0  0  0  0  0  0  0  0  0  0  0
   38.1307    3.0015    6.4257 O   0  0  0  0  0  0  0  0  0  0  0  0
   39.1037    3.7410    5.4983 O   0  0  0  0  0  0  0  0  0  0  0  0
   39.1063    3.7403    5.4977 O   0  0  0  0  0  0  0  0  0  0  0  0
   39.1072    3.7401    5.4975 O   0  0  0  0  0  0  0  0  0  0  0  0
   38.6355    3.8668    5.6004 Mg  0  0  0  0  0 15  0  0  0  0  0  0
   38.6355    3.8668    5.6004 Mg  0  0  0  0  0 15  0  0  0  0  0  0
   38.6242    3.6039    5.8918 O   0  0  0  0  0  0  0  0  0  0  0  0
   39.1007    3.7418    5.4989 O   0  0  0  0  0  0  0  0  0  0  0  0
   39.1061    3.7404    5.4977 O   0  0  0  0  0  0  0  0  0  0  0  0
   39.1056    3.7405    5.4979 O   0  0  0  0  0  0  0  0  0  0  0  0
   39.1056    3.7405    5.4979 O   0  0  0  0  0  0  0  0  0  0  0  0
   39.0990    3.7423    5.4993 O   0  0  0  0  0  0  0  0  0  0  0  0
   39.1042    3.7409    5.4982 O   0  0  0  0  0  0  0  0  0  0  0  0
   39.1055    3.7405    5.4979 O   0  0  0  0  0  0  0  0  0  0  0  0
   39.0996    3.7421    5.4992 O   0  0  0  0  0  0  0  0  0  0  0  0
   39.1018    3.7415    5.4987 O   0  0  0  0  0  0  0  0  0  0  0  0
   39.1038    3.7410    5.4983 O   0  0  0  0  0  0  0  0  0  0  0  0
   39.1021    3.7415    5.4986 O   0  0  0  0  0  0  0  0  0  0  0  0
   39.1044    3.7408    5.4981 O   0  0  0  0  0  0  0  0  0  0  0  0
   39.1062    3.7403    5.4977 O   0  0  0  0  0  0  0  0  0  0  0  0
   38.6218    3.6028    5.8942 O   0  0  0  0  0  0  0  0  0  0  0  0
   38.6274    3.6134    5.8799 O   0  0  0  0  0  0  0  0  0  0  0  0
   38.6268    3.6107    5.8831 O   0  0  0  0  0  0  0  0  0  0  0  0
   38.6355    3.8668    5.6004 Al  0  0  0  0  0 15  0  0  0  0  0  0
   38.6355    3.8668    5.6004 Al  0  0  0  0  0 15  0  0  0  0  0  0
   38.6355    3.8668    5.6004 Mg  0  0  0  0  0 15  0  0  0  0  0  0
   38.6355    3.8668    5.6004 Mg  0  0  0  0  0 15  0  0  0  0  0  0
   38.6355    3.8668    5.6004 Mg  0  0  0  0  0 15  0  0  0  0  0  0
   38.1674    3.9926    5.7025 H   0  0  0  0  0  0  0  0  0  0  0  0
   38.1647    3.9934    5.7031 H   0  0  0  0  0  0  0  0  0  0  0  0
   38.1639    3.9936    5.7033 H   0  0  0  0  0  0  0  0  0  0  0  0
   37.8919    4.2007    5.6169 H   0  0  0  0  0  0  0  0  0  0  0  0
   39.3904    3.7959    5.2924 H   0  0  0  0  0  0  0  0  0  0  0  0
   38.1703    3.9919    5.7019 H   0  0  0  0  0  0  0  0  0  0  0  0
   38.1649    3.9933    5.7030 H   0  0  0  0  0  0  0  0  0  0  0  0
   38.1655    3.9932    5.7029 H   0  0  0  0  0  0  0  0  0  0  0  0
   38.1655    3.9932    5.7029 H   0  0  0  0  0  0  0  0  0  0  0  0
   38.1720    3.9914    5.7015 H   0  0  0  0  0  0  0  0  0  0  0  0
   38.1668    3.9928    5.7026 H   0  0  0  0  0  0  0  0  0  0  0  0
   38.1656    3.9931    5.7029 H   0  0  0  0  0  0  0  0  0  0  0  0
   38.1714    3.9916    5.7016 H   0  0  0  0  0  0  0  0  0  0  0  0
   38.1693    3.9921    5.7021 H   0  0  0  0  0  0  0  0  0  0  0  0
   38.1673    3.9927    5.7025 H   0  0  0  0  0  0  0  0  0  0  0  0
   38.1690    3.9922    5.7022 H   0  0  0  0  0  0  0  0  0  0  0  0
   38.1666    3.9929    5.7027 H   0  0  0  0  0  0  0  0  0  0  0  0
   38.1648    3.9933    5.7031 H   0  0  0  0  0  0  0  0  0  0  0  0
   37.8938    4.2017    5.6149 H   0  0  0  0  0  0  0  0  0  0  0  0
   39.3910    3.7960    5.2920 H   0  0  0  0  0  0  0  0  0  0  0  0
   39.4112    3.7860    5.2926 H   0  0  0  0  0  0  0  0  0  0  0  0
   37.8679    4.2011    5.6287 H   0  0  0  0  0  0  0  0  0  0  0  0
   37.8720    4.2017    5.6261 H   0  0  0  0  0  0  0  0  0  0  0  0
   39.4078    3.7882    5.2919 H   0  0  0  0  0  0  0  0  0  0  0  0
  3  2  1  0
  4  2  1  0
  5  2  2  0
  6 33  1  0
  7 34  1  0
  8 35  1  0
 11 36  1  0
 11 37  1  0
 12 38  1  0
 13 39  1  0
 14 40  1  0
 15 41  1  0
 16 42  1  0
 17 43  1  0
 18 44  1  0
 19 45  1  0
 20 46  1  0
 21 47  1  0
 22 48  1  0
 23 49  1  0
 24 50  1  0
 25 51  1  0
 25 52  1  0
 26 53  1  0
 26 54  1  0
 27 55  1  0
 27 56  1  0
M  CHG  8   1   2   3  -1   4  -1   6  -1   7  -1   8  -1   9   2  10   2
M  CHG  8  12  -1  13  -1  14  -1  15  -1  16  -1  17  -1  18  -1  19  -1
M  CHG  8  20  -1  21  -1  22  -1  23  -1  24  -1  28   3  29   3  30   2
M  CHG  2  31   2  32   2
M  END
> <Uni-Dock RESULT> 
ENERGY=  -14.727  LOWER_BOUND=    8.410  UPPER_BOUND=    8.979
INTER + INTRA:         -14.727
INTER:                 -14.727
INTRA:                   0.000
UNBOUND:                 0.000

$$$$

     RDKit          3D

 56 27  0  0  0  0  0  0  0  0999 V2000
   46.9601    0.6286    7.5755 Mg  0  0  0  0  0 15  0  0  0  0  0  0
   46.9258    0.6410    7.6102 C   0  0  0  0  0  0  0  0  0  0  0  0
   46.7247   -0.7207    7.5223 O   0  0  0  0  0  0  0  0  0  0  0  0
   47.9102    1.1965    6.8000 O   0  0  0  0  0  0  0  0  0  0  0  0
   46.2797    1.3975    8.3696 O   0  0  0  0  0  0  0  0  0  0  0  0
   47.3389    0.8849    7.3852 O   0  0  0  0  0  0  0  0  0  0  0  0
   47.3411    0.8864    7.3842 O   0  0  0  0  0  0  0  0  0  0  0  0
   47.3418    0.8869    7.3838 O   0  0  0  0  0  0  0  0  0  0  0  0
   46.9601    0.6286    7.5755 Mg  0  0  0  0  0 15  0  0  0  0  0  0
   46.9601    0.6286    7.5755 Mg  0  0  0  0  0 15  0  0  0  0  0  0
   46.8020    0.9591    7.7165 O   0  0  0  0  0  0  0  0  0  0  0  0
   47.3366    0.8833    7.3864 O   0  0  0  0  0  0  0  0  0  0  0  0
   47.3409    0.8863    7.3842 O   0  0  0  0  0  0  0  0  0  0  0  0
   47.3405    0.8860    7.3845 O   0  0  0  0  0  0  0  0  0  0  0  0
   47.3405    0.8860    7.3845 O   0  0  0  0  0  0  0  0  0  0  0  0
   47.3352    0.8824    7.3871 O   0  0  0  0  0  0  0  0  0  0  0  0
   47.3394    0.8853    7.3850 O   0  0  0  0  0  0  0  0  0  0  0  0
   47.3404    0.8859    7.3845 O   0  0  0  0  0  0  0  0  0  0  0  0
   47.3356    0.8827    7.3869 O   0  0  0  0  0  0  0  0  0  0  0  0
   47.3374    0.8839    7.3860 O   0  0  0  0  0  0  0  0  0  0  0  0
   47.3390    0.8850    7.3852 O   0  0  0  0  0  0  0  0  0  0  0  0
   47.3376    0.8841    7.3859 O   0  0  0  0  0  0  0  0  0  0  0  0
   47.3395    0.8854    7.3849 O   0  0  0  0  0  0  0  0  0  0  0  0
   47.3410    0.8863    7.3842 O   0  0  0  0  0  0  0  0  0  0  0  0
   46.7990    0.9601    7.7183 O   0  0  0  0  0  0  0  0  0  0  0  0
   46.8103    0.9479    7.7099 O   0  0  0  0  0  0  0  0  0  0  0  0
   46.8082    0.9511    7.7116 O   0  0  0  0  0  0  0  0  0  0  0  0
   46.9601    0.6286    7.5755 Al  0  0  0  0  0 15  0  0  0  0  0  0
   46.9601    0.6286    7.5755 Al  0  0  0  0  0 15  0  0  0  0  0  0
   46.9601    0.6286    7.5755 Mg  0  0  0  0  0 15  0  0  0  0  0  0
   46.9601    0.6286    7.5755 Mg  0  0  0  0  0 15  0  0  0  0  0  0
   46.9601    0.6286    7.5755 Mg  0  0  0  0  0 15  0  0  0  0  0  0
   46.5813    0.3722    7.7658 H   0  0  0  0  0  0  0  0  0  0  0  0
   46.5792    0.3708    7.7669 H   0  0  0  0  0  0  0  0  0  0  0  0
   46.5785    0.3703    7.7672 H   0  0  0  0  0  0  0  0  0  0  0  0
   46.4336    0.0516    7.8091 H   0  0  0  0  0  0  0  0  0  0  0  0
   47.6449    0.8749    7.2010 H   0  0  0  0  0  0  0  0  0  0  0  0
   46.5837    0.3738    7.7646 H   0  0  0  0  0  0  0  0  0  0  0  0
   46.5793    0.3709    7.7668 H   0  0  0  0  0  0  0  0  0  0  0  0
   46.5798    0.3712    7.7666 H   0  0  0  0  0  0  0  0  0  0  0  0
   46.5798    0.3712    7.7666 H   0  0  0  0  0  0  0  0  0  0  0  0
   46.5851    0.3748    7.7639 H   0  0  0  0  0  0  0  0  0  0  0  0
   46.5809    0.3719    7.7661 H   0  0  0  0  0  0  0  0  0  0  0  0
   46.5799    0.3712    7.7666 H   0  0  0  0  0  0  0  0  0  0  0  0
   46.5846    0.3744    7.7642 H   0  0  0  0  0  0  0  0  0  0  0  0
   46.5829    0.3732    7.7651 H   0  0  0  0  0  0  0  0  0  0  0  0
   46.5813    0.3722    7.7659 H   0  0  0  0  0  0  0  0  0  0  0  0
   46.5826    0.3731    7.7652 H   0  0  0  0  0  0  0  0  0  0  0  0
   46.5807    0.3718    7.7661 H   0  0  0  0  0  0  0  0  0  0  0  0
   46.5793    0.3708    7.7669 H   0  0  0  0  0  0  0  0  0  0  0  0
   46.4359    0.0507    7.8076 H   0  0  0  0  0  0  0  0  0  0  0  0
   47.6455    0.8749    7.2007 H   0  0  0  0  0  0  0  0  0  0  0  0
   47.6593    0.8917    7.1948 H   0  0  0  0  0  0  0  0  0  0  0  0
   46.4108    0.0461    7.8219 H   0  0  0  0  0  0  0  0  0  0  0  0
   46.4149    0.0463    7.8194 H   0  0  0  0  0  0  0  0  0  0  0  0
   47.6572    0.8883    7.1955 H   0  0  0  0  0  0  0  0  0  0  0  0
  3  2  1  0
  4  2  1  0
  5  2  2  0
  6 33  1  0
  7 34  1  0
  8 35  1  0
 11 36  1  0
 11 37  1  0
 12 38  1  0
 13 39  1  0
 14 40  1  0
 15 41  1  0
 16 42  1  0
 17 43  1  0
 18 44  1  0
 19 45  1  0
 20 46  1  0
 21 47  1  0
 22 48  1  0
 23 49  1  0
 24 50  1  0
 25 51  1  0
 25 52  1  0
 26 53  1  0
 26 54  1  0
 27 55  1  0
 27 56  1  0
M  CHG  8   1   2   3  -1   4  -1   6  -1   7  -1   8  -1   9   2  10   2
M  CHG  8  12  -1  13  -1  14  -1  15  -1  16  -1  17  -1  18  -1  19  -1
M  CHG  8  20  -1  21  -1  22  -1  23  -1  24  -1  28   3  29   3  30   2
M  CHG  2  31   2  32   2
M  END
> <Uni-Dock RESULT> 
ENERGY=  -14.294  LOWER_BOUND=    0.629  UPPER_BOUND=    1.020
INTER + INTRA:         -14.294
INTER:                 -14.294
INTRA:                   0.000
UNBOUND:                 0.000

$$$$

     RDKit          3D

 56 27  0  0  0  0  0  0  0  0999 V2000
   47.5107    1.4101    6.9920 Mg  0  0  0  0  0 15  0  0  0  0  0  0
   47.4814    1.3736    7.0106 C   0  0  0  0  0  0  0  0  0  0  0  0
   46.5862    2.0336    6.1950 O   0  0  0  0  0  0  0  0  0  0  0  0
   48.7812    1.8654    7.0647 O   0  0  0  0  0  0  0  0  0  0  0  0
   47.1940    0.3677    7.6977 O   0  0  0  0  0  0  0  0  0  0  0  0
   48.0022    1.4713    7.0029 O   0  0  0  0  0  0  0  0  0  0  0  0
   48.0050    1.4716    7.0030 O   0  0  0  0  0  0  0  0  0  0  0  0
   48.0059    1.4717    7.0030 O   0  0  0  0  0  0  0  0  0  0  0  0
   47.5107    1.4101    6.9920 Mg  0  0  0  0  0 15  0  0  0  0  0  0
   47.5107    1.4101    6.9920 Mg  0  0  0  0  0 15  0  0  0  0  0  0
   47.5336    1.1427    7.2786 O   0  0  0  0  0  0  0  0  0  0  0  0
   47.9991    1.4709    7.0028 O   0  0  0  0  0  0  0  0  0  0  0  0
   48.0048    1.4716    7.0030 O   0  0  0  0  0  0  0  0  0  0  0  0
   48.0042    1.4715    7.0030 O   0  0  0  0  0  0  0  0  0  0  0  0
   48.0042    1.4715    7.0030 O   0  0  0  0  0  0  0  0  0  0  0  0
   47.9973    1.4706    7.0028 O   0  0  0  0  0  0  0  0  0  0  0  0
   48.0028    1.4713    7.0029 O   0  0  0  0  0  0  0  0  0  0  0  0
   48.0041    1.4715    7.0030 O   0  0  0  0  0  0  0  0  0  0  0  0
   47.9979    1.4707    7.0028 O   0  0  0  0  0  0  0  0  0  0  0  0
   48.0002    1.4710    7.0029 O   0  0  0  0  0  0  0  0  0  0  0  0
   48.0023    1.4713    7.0029 O   0  0  0  0  0  0  0  0  0  0  0  0
   48.0005    1.4710    7.0029 O   0  0  0  0  0  0  0  0  0  0  0  0
   48.0030    1.4714    7.0029 O   0  0  0  0  0  0  0  0  0  0  0  0
   48.0049    1.4716    7.0030 O   0  0  0  0  0  0  0  0  0  0  0  0
   47.5313    1.1406    7.2804 O   0  0  0  0  0  0  0  0  0  0  0  0
   47.5356    1.1534    7.2675 O   0  0  0  0  0  0  0  0  0  0  0  0
   47.5353    1.1505    7.2706 O   0  0  0  0  0  0  0  0  0  0  0  0
   47.5107    1.4101    6.9920 Al  0  0  0  0  0 15  0  0  0  0  0  0
   47.5107    1.4101    6.9920 Al  0  0  0  0  0 15  0  0  0  0  0  0
   47.5107    1.4101    6.9920 Mg  0  0  0  0  0 15  0  0  0  0  0  0
   47.5107    1.4101    6.9920 Mg  0  0  0  0  0 15  0  0  0  0  0  0
   47.5107    1.4101    6.9920 Mg  0  0  0  0  0 15  0  0  0  0  0  0
   47.0192    1.3489    6.9811 H   0  0  0  0  0  0  0  0  0  0  0  0
   47.0165    1.3486    6.9810 H   0  0  0  0  0  0  0  0  0  0  0  0
   47.0156    1.3484    6.9810 H   0  0  0  0  0  0  0  0  0  0  0  0
   46.7125    1.4470    6.8301 H   0  0  0  0  0  0  0  0  0  0  0  0
   48.2860    1.6407    6.8673 H   0  0  0  0  0  0  0  0  0  0  0  0
   47.0223    1.3493    6.9811 H   0  0  0  0  0  0  0  0  0  0  0  0
   47.0167    1.3486    6.9810 H   0  0  0  0  0  0  0  0  0  0  0  0
   47.0172    1.3487    6.9810 H   0  0  0  0  0  0  0  0  0  0  0  0
   47.0172    1.3487    6.9810 H   0  0  0  0  0  0  0  0  0  0  0  0
   47.0241    1.3495    6.9812 H   0  0  0  0  0  0  0  0  0  0  0  0
   47.0186    1.3488    6.9811 H   0  0  0  0  0  0  0  0  0  0  0  0
   47.0173    1.3487    6.9810 H   0  0  0  0  0  0  0  0  0  0  0  0
   47.0235    1.3494    6.9812 H   0  0  0  0  0  0  0  0  0  0  0  0
   47.0212    1.3492    6.9811 H   0  0  0  0  0  0  0  0  0  0  0  0
   47.0191    1.3489    6.9811 H   0  0  0  0  0  0  0  0  0  0  0  0
   47.0209    1.3491    6.9811 H   0  0  0  0  0  0  0  0  0  0  0  0
   47.0184    1.3488    6.9811 H   0  0  0  0  0  0  0  0  0  0  0  0
   47.0166    1.3486    6.9810 H   0  0  0  0  0  0  0  0  0  0  0  0
   46.7143    1.4487    6.8285 H   0  0  0  0  0  0  0  0  0  0  0  0
   48.2866    1.6409    6.8671 H   0  0  0  0  0  0  0  0  0  0  0  0
   48.3084    1.6390    6.8724 H   0  0  0  0  0  0  0  0  0  0  0  0
   46.6881    1.4378    6.8360 H   0  0  0  0  0  0  0  0  0  0  0  0
   46.6921    1.4399    6.8344 H   0  0  0  0  0  0  0  0  0  0  0  0
   48.3047    1.6399    6.8710 H   0  0  0  0  0  0  0  0  0  0  0  0
  3  2  1  0
  4  2  1  0
  5  2  2  0
  6 33  1  0
  7 34  1  0
  8 35  1  0
 11 36  1  0
 11 37  1  0
 12 38  1  0
 13 39  1  0
 14 40  1  0
 15 41  1  0
 16 42  1  0
 17 43  1  0
 18 44  1  0
 19 45  1  0
 20 46  1  0
 21 47  1  0
 22 48  1  0
 23 49  1  0
 24 50  1  0
 25 51  1  0
 25 52  1  0
 26 53  1  0
 26 54  1  0
 27 55  1  0
 27 56  1  0
M  CHG  8   1   2   3  -1   4  -1   6  -1   7  -1   8  -1   9   2  10   2
M  CHG  8  12  -1  13  -1  14  -1  15  -1  16  -1  17  -1  18  -1  19  -1
M  CHG  8  20  -1  21  -1  22  -1  23  -1  24  -1  28   3  29   3  30   2
M  CHG  2  31   2  32   2
M  END
> <Uni-Dock RESULT> 
ENERGY=  -13.729  LOWER_BOUND=    0.864  UPPER_BOUND=    1.741
INTER + INTRA:         -13.729
INTER:                 -13.729
INTRA:                   0.000
UNBOUND:                 0.000

$$$$
