
     RDKit          3D

 56 27  0  0  0  0  0  0  0  0999 V2000
   47.0240    0.6242    7.6604 Mg  0  0  0  0  0 15  0  0  0  0  0  0
   47.0160    0.6301    7.6682 C   0  0  0  0  0  0  0  0  0  0  0  0
   48.0041    1.4093    7.0961 O   0  0  0  0  0  0  0  0  0  0  0  0
   46.8703   -0.7250    7.4399 O   0  0  0  0  0  0  0  0  0  0  0  0
   46.2056    1.1823    8.4375 O   0  0  0  0  0  0  0  0  0  0  0  0
   46.8064    0.1785    7.7192 O   0  0  0  0  0  0  0  0  0  0  0  0
   46.8100    0.1858    7.7182 O   0  0  0  0  0  0  0  0  0  0  0  0
   46.8097    0.1853    7.7183 O   0  0  0  0  0  0  0  0  0  0  0  0
   47.0240    0.6242    7.6604 Mg  0  0  0  0  0 15  0  0  0  0  0  0
   47.0240    0.6242    7.6604 Mg  0  0  0  0  0 15  0  0  0  0  0  0
   46.7822    0.7789    7.8854 O   0  0  0  0  0  0  0  0  0  0  0  0
   46.8063    0.1783    7.7192 O   0  0  0  0  0  0  0  0  0  0  0  0
   46.8076    0.1808    7.7189 O   0  0  0  0  0  0  0  0  0  0  0  0
   46.8063    0.1783    7.7192 O   0  0  0  0  0  0  0  0  0  0  0  0
   46.8072    0.1801    7.7190 O   0  0  0  0  0  0  0  0  0  0  0  0
   46.8100    0.1858    7.7182 O   0  0  0  0  0  0  0  0  0  0  0  0
   46.8076    0.1808    7.7189 O   0  0  0  0  0  0  0  0  0  0  0  0
   46.8085    0.1827    7.7186 O   0  0  0  0  0  0  0  0  0  0  0  0
   46.8066    0.1790    7.7191 O   0  0  0  0  0  0  0  0  0  0  0  0
   46.8089    0.1835    7.7185 O   0  0  0  0  0  0  0  0  0  0  0  0
   46.8088    0.1833    7.7185 O   0  0  0  0  0  0  0  0  0  0  0  0
   46.8064    0.1784    7.7192 O   0  0  0  0  0  0  0  0  0  0  0  0
   46.8073    0.1804    7.7189 O   0  0  0  0  0  0  0  0  0  0  0  0
   46.8066    0.1789    7.7191 O   0  0  0  0  0  0  0  0  0  0  0  0
   46.7744    0.7791    7.8915 O   0  0  0  0  0  0  0  0  0  0  0  0
   46.7771    0.7800    7.8897 O   0  0  0  0  0  0  0  0  0  0  0  0
   46.7685    0.7882    7.8983 O   0  0  0  0  0  0  0  0  0  0  0  0
   47.0240    0.6242    7.6604 Al  0  0  0  0  0 15  0  0  0  0  0  0
   47.0240    0.6242    7.6604 Al  0  0  0  0  0 15  0  0  0  0  0  0
   47.0240    0.6242    7.6604 Mg  0  0  0  0  0 15  0  0  0  0  0  0
   47.0240    0.6242    7.6604 Mg  0  0  0  0  0 15  0  0  0  0  0  0
   47.0240    0.6242    7.6604 Mg  0  0  0  0  0 15  0  0  0  0  0  0
   47.2415    1.0698    7.6016 H   0  0  0  0  0  0  0  0  0  0  0  0
   47.2380    1.0625    7.6026 H   0  0  0  0  0  0  0  0  0  0  0  0
   47.2382    1.0631    7.6025 H   0  0  0  0  0  0  0  0  0  0  0  0
   47.5059    1.2828    7.4494 H   0  0  0  0  0  0  0  0  0  0  0  0
   46.7837   -0.1891    7.6464 H   0  0  0  0  0  0  0  0  0  0  0  0
   47.2416    1.0700    7.6016 H   0  0  0  0  0  0  0  0  0  0  0  0
   47.2404    1.0675    7.6019 H   0  0  0  0  0  0  0  0  0  0  0  0
   47.2416    1.0700    7.6016 H   0  0  0  0  0  0  0  0  0  0  0  0
   47.2408    1.0682    7.6018 H   0  0  0  0  0  0  0  0  0  0  0  0
   47.2380    1.0625    7.6026 H   0  0  0  0  0  0  0  0  0  0  0  0
   47.2404    1.0675    7.6019 H   0  0  0  0  0  0  0  0  0  0  0  0
   47.2395    1.0656    7.6022 H   0  0  0  0  0  0  0  0  0  0  0  0
   47.2413    1.0694    7.6017 H   0  0  0  0  0  0  0  0  0  0  0  0
   47.2391    1.0648    7.6023 H   0  0  0  0  0  0  0  0  0  0  0  0
   47.2392    1.0650    7.6022 H   0  0  0  0  0  0  0  0  0  0  0  0
   47.2416    1.0699    7.6016 H   0  0  0  0  0  0  0  0  0  0  0  0
   47.2406    1.0680    7.6019 H   0  0  0  0  0  0  0  0  0  0  0  0
   47.2414    1.0695    7.6017 H   0  0  0  0  0  0  0  0  0  0  0  0
   47.5036    1.2721    7.4486 H   0  0  0  0  0  0  0  0  0  0  0  0
   46.7939   -0.1786    7.6411 H   0  0  0  0  0  0  0  0  0  0  0  0
   46.7888   -0.1857    7.6433 H   0  0  0  0  0  0  0  0  0  0  0  0
   47.5061    1.2784    7.4482 H   0  0  0  0  0  0  0  0  0  0  0  0
   46.8012   -0.1713    7.6372 H   0  0  0  0  0  0  0  0  0  0  0  0
   47.5022    1.2557    7.4457 H   0  0  0  0  0  0  0  0  0  0  0  0
  3  2  1  0
  4  2  1  0
  5  2  2  0
  6 33  1  0
  7 34  1  0
  8 35  1  0
 11 36  1  0
 11 37  1  0
 12 38  1  0
 13 39  1  0
 14 40  1  0
 15 41  1  0
 16 42  1  0
 17 43  1  0
 18 44  1  0
 19 45  1  0
 20 46  1  0
 21 47  1  0
 22 48  1  0
 23 49  1  0
 24 50  1  0
 25 51  1  0
 25 52  1  0
 26 53  1  0
 26 54  1  0
 27 55  1  0
 27 56  1  0
M  CHG  8   1   2   3  -1   4  -1   6  -1   7  -1   8  -1   9   2  10   2
M  CHG  8  12  -1  13  -1  14  -1  15  -1  16  -1  17  -1  18  -1  19  -1
M  CHG  8  20  -1  21  -1  22  -1  23  -1  24  -1  28   3  29   3  30   2
M  CHG  2  31   2  32   2
M  END
> <Uni-Dock RESULT> 
ENERGY=  -15.780  LOWER_BOUND=    0.000  UPPER_BOUND=    0.000
INTER + INTRA:         -15.780
INTER:                 -15.780
INTRA:                   0.000
UNBOUND:                 0.000

$$$$

     RDKit          3D

 56 27  0  0  0  0  0  0  0  0999 V2000
   46.8938    0.6597    7.7436 Mg  0  0  0  0  0 15  0  0  0  0  0  0
   46.8838    0.6632    7.7506 C   0  0  0  0  0  0  0  0  0  0  0  0
   47.7181    1.6799    7.3251 O   0  0  0  0  0  0  0  0  0  0  0  0
   47.0802   -0.6727    7.4566 O   0  0  0  0  0  0  0  0  0  0  0  0
   45.8929    0.9686    8.4421 O   0  0  0  0  0  0  0  0  0  0  0  0
   46.7805    0.1736    7.7603 O   0  0  0  0  0  0  0  0  0  0  0  0
   46.7823    0.1816    7.7601 O   0  0  0  0  0  0  0  0  0  0  0  0
   46.7822    0.1810    7.7601 O   0  0  0  0  0  0  0  0  0  0  0  0
   46.8938    0.6597    7.7436 Mg  0  0  0  0  0 15  0  0  0  0  0  0
   46.8938    0.6597    7.7436 Mg  0  0  0  0  0 15  0  0  0  0  0  0
   46.6009    0.7414    7.9451 O   0  0  0  0  0  0  0  0  0  0  0  0
   46.7804    0.1734    7.7603 O   0  0  0  0  0  0  0  0  0  0  0  0
   46.7810    0.1762    7.7602 O   0  0  0  0  0  0  0  0  0  0  0  0
   46.7804    0.1734    7.7603 O   0  0  0  0  0  0  0  0  0  0  0  0
   46.7809    0.1754    7.7603 O   0  0  0  0  0  0  0  0  0  0  0  0
   46.7823    0.1816    7.7601 O   0  0  0  0  0  0  0  0  0  0  0  0
   46.7810    0.1762    7.7602 O   0  0  0  0  0  0  0  0  0  0  0  0
   46.7815    0.1782    7.7602 O   0  0  0  0  0  0  0  0  0  0  0  0
   46.7806    0.1741    7.7603 O   0  0  0  0  0  0  0  0  0  0  0  0
   46.7817    0.1791    7.7601 O   0  0  0  0  0  0  0  0  0  0  0  0
   46.7817    0.1789    7.7601 O   0  0  0  0  0  0  0  0  0  0  0  0
   46.7804    0.1735    7.7603 O   0  0  0  0  0  0  0  0  0  0  0  0
   46.7809    0.1757    7.7603 O   0  0  0  0  0  0  0  0  0  0  0  0
   46.7805    0.1740    7.7603 O   0  0  0  0  0  0  0  0  0  0  0  0
   46.5927    0.7394    7.9502 O   0  0  0  0  0  0  0  0  0  0  0  0
   46.5952    0.7410    7.9487 O   0  0  0  0  0  0  0  0  0  0  0  0
   46.5842    0.7465    7.9566 O   0  0  0  0  0  0  0  0  0  0  0  0
   46.8938    0.6597    7.7436 Al  0  0  0  0  0 15  0  0  0  0  0  0
   46.8938    0.6597    7.7436 Al  0  0  0  0  0 15  0  0  0  0  0  0
   46.8938    0.6597    7.7436 Mg  0  0  0  0  0 15  0  0  0  0  0  0
   46.8938    0.6597    7.7436 Mg  0  0  0  0  0 15  0  0  0  0  0  0
   46.8938    0.6597    7.7436 Mg  0  0  0  0  0 15  0  0  0  0  0  0
   47.0071    1.1458    7.7268 H   0  0  0  0  0  0  0  0  0  0  0  0
   47.0052    1.1378    7.7271 H   0  0  0  0  0  0  0  0  0  0  0  0
   47.0053    1.1384    7.7271 H   0  0  0  0  0  0  0  0  0  0  0  0
   47.2292    1.4221    7.6140 H   0  0  0  0  0  0  0  0  0  0  0  0
   46.8511   -0.1843    7.6717 H   0  0  0  0  0  0  0  0  0  0  0  0
   47.0071    1.1460    7.7268 H   0  0  0  0  0  0  0  0  0  0  0  0
   47.0065    1.1433    7.7269 H   0  0  0  0  0  0  0  0  0  0  0  0
   47.0071    1.1460    7.7268 H   0  0  0  0  0  0  0  0  0  0  0  0
   47.0067    1.1441    7.7269 H   0  0  0  0  0  0  0  0  0  0  0  0
   47.0052    1.1378    7.7271 H   0  0  0  0  0  0  0  0  0  0  0  0
   47.0065    1.1433    7.7269 H   0  0  0  0  0  0  0  0  0  0  0  0
   47.0060    1.1412    7.7270 H   0  0  0  0  0  0  0  0  0  0  0  0
   47.0069    1.1453    7.7269 H   0  0  0  0  0  0  0  0  0  0  0  0
   47.0058    1.1404    7.7270 H   0  0  0  0  0  0  0  0  0  0  0  0
   47.0058    1.1406    7.7270 H   0  0  0  0  0  0  0  0  0  0  0  0
   47.0071    1.1459    7.7268 H   0  0  0  0  0  0  0  0  0  0  0  0
   47.0066    1.1438    7.7269 H   0  0  0  0  0  0  0  0  0  0  0  0
   47.0070    1.1454    7.7269 H   0  0  0  0  0  0  0  0  0  0  0  0
   47.2295    1.4113    7.6126 H   0  0  0  0  0  0  0  0  0  0  0  0
   46.8591   -0.1715    7.6680 H   0  0  0  0  0  0  0  0  0  0  0  0
   46.8556   -0.1797    7.6694 H   0  0  0  0  0  0  0  0  0  0  0  0
   47.2305    1.4179    7.6127 H   0  0  0  0  0  0  0  0  0  0  0  0
   46.8649   -0.1625    7.6653 H   0  0  0  0  0  0  0  0  0  0  0  0
   47.2322    1.3952    7.6089 H   0  0  0  0  0  0  0  0  0  0  0  0
  3  2  1  0
  4  2  1  0
  5  2  2  0
  6 33  1  0
  7 34  1  0
  8 35  1  0
 11 36  1  0
 11 37  1  0
 12 38  1  0
 13 39  1  0
 14 40  1  0
 15 41  1  0
 16 42  1  0
 17 43  1  0
 18 44  1  0
 19 45  1  0
 20 46  1  0
 21 47  1  0
 22 48  1  0
 23 49  1  0
 24 50  1  0
 25 51  1  0
 25 52  1  0
 26 53  1  0
 26 54  1  0
 27 55  1  0
 27 56  1  0
M  CHG  8   1   2   3  -1   4  -1   6  -1   7  -1   8  -1   9   2  10   2
M  CHG  8  12  -1  13  -1  14  -1  15  -1  16  -1  17  -1  18  -1  19  -1
M  CHG  8  20  -1  21  -1  22  -1  23  -1  24  -1  28   3  29   3  30   2
M  CHG  2  31   2  32   2
M  END
> <Uni-Dock RESULT> 
ENERGY=  -15.418  LOWER_BOUND=    0.159  UPPER_BOUND=    0.160
INTER + INTRA:         -15.418
INTER:                 -15.418
INTRA:                   0.000
UNBOUND:                 0.000

$$$$

     RDKit          3D

 56 27  0  0  0  0  0  0  0  0999 V2000
   47.5194    1.4772    7.2956 Mg  0  0  0  0  0 15  0  0  0  0  0  0
   47.5175    1.4648    7.2973 C   0  0  0  0  0  0  0  0  0  0  0  0
   46.5419    2.3088    7.7938 O   0  0  0  0  0  0  0  0  0  0  0  0
   48.6586    1.8982    6.6495 O   0  0  0  0  0  0  0  0  0  0  0  0
   47.3598    0.2370    7.4420 O   0  0  0  0  0  0  0  0  0  0  0  0
   47.9555    1.4135    7.0606 O   0  0  0  0  0  0  0  0  0  0  0  0
   47.9483    1.4146    7.0645 O   0  0  0  0  0  0  0  0  0  0  0  0
   47.9488    1.4145    7.0642 O   0  0  0  0  0  0  0  0  0  0  0  0
   47.5194    1.4772    7.2956 Mg  0  0  0  0  0 15  0  0  0  0  0  0
   47.5194    1.4772    7.2956 Mg  0  0  0  0  0 15  0  0  0  0  0  0
   47.4796    1.1165    7.3328 O   0  0  0  0  0  0  0  0  0  0  0  0
   47.9556    1.4135    7.0605 O   0  0  0  0  0  0  0  0  0  0  0  0
   47.9532    1.4139    7.0618 O   0  0  0  0  0  0  0  0  0  0  0  0
   47.9556    1.4135    7.0605 O   0  0  0  0  0  0  0  0  0  0  0  0
   47.9539    1.4138    7.0615 O   0  0  0  0  0  0  0  0  0  0  0  0
   47.9483    1.4146    7.0645 O   0  0  0  0  0  0  0  0  0  0  0  0
   47.9532    1.4139    7.0618 O   0  0  0  0  0  0  0  0  0  0  0  0
   47.9514    1.4141    7.0628 O   0  0  0  0  0  0  0  0  0  0  0  0
   47.9550    1.4136    7.0609 O   0  0  0  0  0  0  0  0  0  0  0  0
   47.9506    1.4142    7.0633 O   0  0  0  0  0  0  0  0  0  0  0  0
   47.9507    1.4142    7.0632 O   0  0  0  0  0  0  0  0  0  0  0  0
   47.9555    1.4135    7.0606 O   0  0  0  0  0  0  0  0  0  0  0  0
   47.9536    1.4138    7.0616 O   0  0  0  0  0  0  0  0  0  0  0  0
   47.9551    1.4136    7.0608 O   0  0  0  0  0  0  0  0  0  0  0  0
   47.4822    1.1071    7.3318 O   0  0  0  0  0  0  0  0  0  0  0  0
   47.4806    1.1099    7.3326 O   0  0  0  0  0  0  0  0  0  0  0  0
   47.4769    1.0959    7.3352 O   0  0  0  0  0  0  0  0  0  0  0  0
   47.5194    1.4772    7.2956 Al  0  0  0  0  0 15  0  0  0  0  0  0
   47.5194    1.4772    7.2956 Al  0  0  0  0  0 15  0  0  0  0  0  0
   47.5194    1.4772    7.2956 Mg  0  0  0  0  0 15  0  0  0  0  0  0
   47.5194    1.4772    7.2956 Mg  0  0  0  0  0 15  0  0  0  0  0  0
   47.5194    1.4772    7.2956 Mg  0  0  0  0  0 15  0  0  0  0  0  0
   47.0834    1.5409    7.5306 H   0  0  0  0  0  0  0  0  0  0  0  0
   47.0906    1.5398    7.5268 H   0  0  0  0  0  0  0  0  0  0  0  0
   47.0901    1.5399    7.5271 H   0  0  0  0  0  0  0  0  0  0  0  0
   46.8187    1.7648    7.6654 H   0  0  0  0  0  0  0  0  0  0  0  0
   48.2600    1.5501    6.8887 H   0  0  0  0  0  0  0  0  0  0  0  0
   47.0832    1.5409    7.5307 H   0  0  0  0  0  0  0  0  0  0  0  0
   47.0857    1.5405    7.5294 H   0  0  0  0  0  0  0  0  0  0  0  0
   47.0832    1.5409    7.5307 H   0  0  0  0  0  0  0  0  0  0  0  0
   47.0850    1.5407    7.5298 H   0  0  0  0  0  0  0  0  0  0  0  0
   47.0906    1.5398    7.5268 H   0  0  0  0  0  0  0  0  0  0  0  0
   47.0857    1.5405    7.5294 H   0  0  0  0  0  0  0  0  0  0  0  0
   47.0875    1.5403    7.5284 H   0  0  0  0  0  0  0  0  0  0  0  0
   47.0839    1.5408    7.5304 H   0  0  0  0  0  0  0  0  0  0  0  0
   47.0883    1.5402    7.5280 H   0  0  0  0  0  0  0  0  0  0  0  0
   47.0881    1.5402    7.5281 H   0  0  0  0  0  0  0  0  0  0  0  0
   47.0833    1.5409    7.5307 H   0  0  0  0  0  0  0  0  0  0  0  0
   47.0853    1.5406    7.5297 H   0  0  0  0  0  0  0  0  0  0  0  0
   47.0838    1.5408    7.5305 H   0  0  0  0  0  0  0  0  0  0  0  0
   46.8281    1.7668    7.6602 H   0  0  0  0  0  0  0  0  0  0  0  0
   48.2480    1.5577    6.8949 H   0  0  0  0  0  0  0  0  0  0  0  0
   48.2555    1.5547    6.8910 H   0  0  0  0  0  0  0  0  0  0  0  0
   46.8222    1.7670    7.6634 H   0  0  0  0  0  0  0  0  0  0  0  0
   48.2395    1.5633    6.8993 H   0  0  0  0  0  0  0  0  0  0  0  0
   46.8418    1.7724    7.6525 H   0  0  0  0  0  0  0  0  0  0  0  0
  3  2  1  0
  4  2  1  0
  5  2  2  0
  6 33  1  0
  7 34  1  0
  8 35  1  0
 11 36  1  0
 11 37  1  0
 12 38  1  0
 13 39  1  0
 14 40  1  0
 15 41  1  0
 16 42  1  0
 17 43  1  0
 18 44  1  0
 19 45  1  0
 20 46  1  0
 21 47  1  0
 22 48  1  0
 23 49  1  0
 24 50  1  0
 25 51  1  0
 25 52  1  0
 26 53  1  0
 26 54  1  0
 27 55  1  0
 27 56  1  0
M  CHG  8   1   2   3  -1   4  -1   6  -1   7  -1   8  -1   9   2  10   2
M  CHG  8  12  -1  13  -1  14  -1  15  -1  16  -1  17  -1  18  -1  19  -1
M  CHG  8  20  -1  21  -1  22  -1  23  -1  24  -1  28   3  29   3  30   2
M  CHG  2  31   2  32   2
M  END
> <Uni-Dock RESULT> 
ENERGY=  -14.079  LOWER_BOUND=    0.837  UPPER_BOUND=    1.612
INTER + INTRA:         -14.079
INTER:                 -14.079
INTRA:                   0.000
UNBOUND:                 0.000

$$$$

     RDKit          3D

 56 27  0  0  0  0  0  0  0  0999 V2000
   42.2880    5.5579   12.1066 Mg  0  0  0  0  0 15  0  0  0  0  0  0
   42.2891    5.5481   12.0987 C   0  0  0  0  0  0  0  0  0  0  0  0
   42.7778    5.3584   13.3777 O   0  0  0  0  0  0  0  0  0  0  0  0
   41.7126    6.7240   11.6574 O   0  0  0  0  0  0  0  0  0  0  0  0
   42.3726    4.6012   11.2926 O   0  0  0  0  0  0  0  0  0  0  0  0
   42.0702    5.8531   11.7678 O   0  0  0  0  0  0  0  0  0  0  0  0
   42.0738    5.8483   11.7733 O   0  0  0  0  0  0  0  0  0  0  0  0
   42.0735    5.8486   11.7729 O   0  0  0  0  0  0  0  0  0  0  0  0
   42.2880    5.5579   12.1066 Mg  0  0  0  0  0 15  0  0  0  0  0  0
   42.2880    5.5579   12.1066 Mg  0  0  0  0  0 15  0  0  0  0  0  0
   42.3076    5.2849   11.8655 O   0  0  0  0  0  0  0  0  0  0  0  0
   42.0701    5.8533   11.7676 O   0  0  0  0  0  0  0  0  0  0  0  0
   42.0713    5.8516   11.7695 O   0  0  0  0  0  0  0  0  0  0  0  0
   42.0701    5.8533   11.7676 O   0  0  0  0  0  0  0  0  0  0  0  0
   42.0710    5.8521   11.7690 O   0  0  0  0  0  0  0  0  0  0  0  0
   42.0738    5.8483   11.7733 O   0  0  0  0  0  0  0  0  0  0  0  0
   42.0713    5.8516   11.7695 O   0  0  0  0  0  0  0  0  0  0  0  0
   42.0723    5.8504   11.7710 O   0  0  0  0  0  0  0  0  0  0  0  0
   42.0704    5.8528   11.7681 O   0  0  0  0  0  0  0  0  0  0  0  0
   42.0727    5.8498   11.7716 O   0  0  0  0  0  0  0  0  0  0  0  0
   42.0726    5.8499   11.7714 O   0  0  0  0  0  0  0  0  0  0  0  0
   42.0702    5.8532   11.7677 O   0  0  0  0  0  0  0  0  0  0  0  0
   42.0711    5.8519   11.7692 O   0  0  0  0  0  0  0  0  0  0  0  0
   42.0704    5.8529   11.7680 O   0  0  0  0  0  0  0  0  0  0  0  0
   42.3062    5.2806   11.8567 O   0  0  0  0  0  0  0  0  0  0  0  0
   42.3071    5.2812   11.8599 O   0  0  0  0  0  0  0  0  0  0  0  0
   42.3089    5.2690   11.8520 O   0  0  0  0  0  0  0  0  0  0  0  0
   42.2880    5.5579   12.1066 Al  0  0  0  0  0 15  0  0  0  0  0  0
   42.2880    5.5579   12.1066 Al  0  0  0  0  0 15  0  0  0  0  0  0
   42.2880    5.5579   12.1066 Mg  0  0  0  0  0 15  0  0  0  0  0  0
   42.2880    5.5579   12.1066 Mg  0  0  0  0  0 15  0  0  0  0  0  0
   42.2880    5.5579   12.1066 Mg  0  0  0  0  0 15  0  0  0  0  0  0
   42.5058    5.2627   12.4454 H   0  0  0  0  0  0  0  0  0  0  0  0
   42.5022    5.2676   12.4399 H   0  0  0  0  0  0  0  0  0  0  0  0
   42.5025    5.2672   12.4403 H   0  0  0  0  0  0  0  0  0  0  0  0
   42.6382    5.2079   12.7887 H   0  0  0  0  0  0  0  0  0  0  0  0
   41.9183    6.1809   11.6655 H   0  0  0  0  0  0  0  0  0  0  0  0
   42.5059    5.2626   12.4456 H   0  0  0  0  0  0  0  0  0  0  0  0
   42.5047    5.2643   12.4437 H   0  0  0  0  0  0  0  0  0  0  0  0
   42.5059    5.2626   12.4456 H   0  0  0  0  0  0  0  0  0  0  0  0
   42.5050    5.2638   12.4442 H   0  0  0  0  0  0  0  0  0  0  0  0
   42.5022    5.2676   12.4399 H   0  0  0  0  0  0  0  0  0  0  0  0
   42.5047    5.2643   12.4437 H   0  0  0  0  0  0  0  0  0  0  0  0
   42.5038    5.2655   12.4423 H   0  0  0  0  0  0  0  0  0  0  0  0
   42.5056    5.2630   12.4451 H   0  0  0  0  0  0  0  0  0  0  0  0
   42.5034    5.2660   12.4416 H   0  0  0  0  0  0  0  0  0  0  0  0
   42.5035    5.2659   12.4418 H   0  0  0  0  0  0  0  0  0  0  0  0
   42.5059    5.2627   12.4455 H   0  0  0  0  0  0  0  0  0  0  0  0
   42.5049    5.2640   12.4440 H   0  0  0  0  0  0  0  0  0  0  0  0
   42.5056    5.2630   12.4452 H   0  0  0  0  0  0  0  0  0  0  0  0
   42.6336    5.2165   12.7839 H   0  0  0  0  0  0  0  0  0  0  0  0
   41.9243    6.1767   11.6792 H   0  0  0  0  0  0  0  0  0  0  0  0
   41.9205    6.1805   11.6719 H   0  0  0  0  0  0  0  0  0  0  0  0
   42.6365    5.2121   12.7881 H   0  0  0  0  0  0  0  0  0  0  0  0
   41.9285    6.1738   11.6890 H   0  0  0  0  0  0  0  0  0  0  0  0
   42.6267    5.2309   12.7789 H   0  0  0  0  0  0  0  0  0  0  0  0
  3  2  1  0
  4  2  1  0
  5  2  2  0
  6 33  1  0
  7 34  1  0
  8 35  1  0
 11 36  1  0
 11 37  1  0
 12 38  1  0
 13 39  1  0
 14 40  1  0
 15 41  1  0
 16 42  1  0
 17 43  1  0
 18 44  1  0
 19 45  1  0
 20 46  1  0
 21 47  1  0
 22 48  1  0
 23 49  1  0
 24 50  1  0
 25 51  1  0
 25 52  1  0
 26 53  1  0
 26 54  1  0
 27 55  1  0
 27 56  1  0
M  CHG  8   1   2   3  -1   4  -1   6  -1   7  -1   8  -1   9   2  10   2
M  CHG  8  12  -1  13  -1  14  -1  15  -1  16  -1  17  -1  18  -1  19  -1
M  CHG  8  20  -1  21  -1  22  -1  23  -1  24  -1  28   3  29   3  30   2
M  CHG  2  31   2  32   2
M  END
> <Uni-Dock RESULT> 
ENERGY=  -12.888  LOWER_BOUND=    7.437  UPPER_BOUND=    8.244
INTER + INTRA:         -12.888
INTER:                 -12.888
INTRA:                   0.000
UNBOUND:                 0.000

$$$$
