
     RDKit          3D

 56 27  0  0  0  0  0  0  0  0999 V2000
   38.8107    4.0301    5.4891 Mg  0  0  0  0  0 15  0  0  0  0  0  0
   38.8375    4.0206    5.4884 C   0  0  0  0  0  0  0  0  0  0  0  0
   38.2414    2.9678    6.1521 O   0  0  0  0  0  0  0  0  0  0  0  0
   38.0892    5.1101    5.0871 O   0  0  0  0  0  0  0  0  0  0  0  0
   40.0748    4.0221    5.2289 O   0  0  0  0  0  0  0  0  0  0  0  0
   38.7873    3.5919    5.7258 O   0  0  0  0  0  0  0  0  0  0  0  0
   38.7874    3.5923    5.7256 O   0  0  0  0  0  0  0  0  0  0  0  0
   38.7873    3.5915    5.7260 O   0  0  0  0  0  0  0  0  0  0  0  0
   38.8107    4.0301    5.4891 Mg  0  0  0  0  0 15  0  0  0  0  0  0
   38.8107    4.0301    5.4891 Mg  0  0  0  0  0 15  0  0  0  0  0  0
   39.1693    3.9883    5.4352 O   0  0  0  0  0  0  0  0  0  0  0  0
   38.7874    3.5937    5.7249 O   0  0  0  0  0  0  0  0  0  0  0  0
   38.7874    3.5930    5.7252 O   0  0  0  0  0  0  0  0  0  0  0  0
   38.7876    3.5959    5.7237 O   0  0  0  0  0  0  0  0  0  0  0  0
   38.7875    3.5942    5.7246 O   0  0  0  0  0  0  0  0  0  0  0  0
   38.7877    3.5978    5.7226 O   0  0  0  0  0  0  0  0  0  0  0  0
   38.7874    3.5925    5.7255 O   0  0  0  0  0  0  0  0  0  0  0  0
   38.7873    3.5918    5.7258 O   0  0  0  0  0  0  0  0  0  0  0  0
   38.7877    3.5981    5.7224 O   0  0  0  0  0  0  0  0  0  0  0  0
   38.7876    3.5966    5.7233 O   0  0  0  0  0  0  0  0  0  0  0  0
   38.7876    3.5971    5.7230 O   0  0  0  0  0  0  0  0  0  0  0  0
   38.7875    3.5945    5.7244 O   0  0  0  0  0  0  0  0  0  0  0  0
   38.7874    3.5928    5.7253 O   0  0  0  0  0  0  0  0  0  0  0  0
   38.7873    3.5907    5.7265 O   0  0  0  0  0  0  0  0  0  0  0  0
   39.1961    3.9865    5.4304 O   0  0  0  0  0  0  0  0  0  0  0  0
   39.1978    3.9851    5.4308 O   0  0  0  0  0  0  0  0  0  0  0  0
   39.1948    3.9869    5.4305 O   0  0  0  0  0  0  0  0  0  0  0  0
   38.8107    4.0301    5.4891 Al  0  0  0  0  0 15  0  0  0  0  0  0
   38.8107    4.0301    5.4891 Al  0  0  0  0  0 15  0  0  0  0  0  0
   38.8107    4.0301    5.4891 Mg  0  0  0  0  0 15  0  0  0  0  0  0
   38.8107    4.0301    5.4891 Mg  0  0  0  0  0 15  0  0  0  0  0  0
   38.8107    4.0301    5.4891 Mg  0  0  0  0  0 15  0  0  0  0  0  0
   38.8341    4.4683    5.2524 H   0  0  0  0  0  0  0  0  0  0  0  0
   38.8341    4.4679    5.2527 H   0  0  0  0  0  0  0  0  0  0  0  0
   38.8341    4.4688    5.2522 H   0  0  0  0  0  0  0  0  0  0  0  0
   38.6682    4.7761    5.1249 H   0  0  0  0  0  0  0  0  0  0  0  0
   38.5946    3.3261    5.9072 H   0  0  0  0  0  0  0  0  0  0  0  0
   38.8340    4.4666    5.2534 H   0  0  0  0  0  0  0  0  0  0  0  0
   38.8340    4.4673    5.2530 H   0  0  0  0  0  0  0  0  0  0  0  0
   38.8339    4.4644    5.2546 H   0  0  0  0  0  0  0  0  0  0  0  0
   38.8340    4.4661    5.2537 H   0  0  0  0  0  0  0  0  0  0  0  0
   38.8338    4.4625    5.2556 H   0  0  0  0  0  0  0  0  0  0  0  0
   38.8341    4.4677    5.2528 H   0  0  0  0  0  0  0  0  0  0  0  0
   38.8341    4.4684    5.2524 H   0  0  0  0  0  0  0  0  0  0  0  0
   38.8338    4.4621    5.2558 H   0  0  0  0  0  0  0  0  0  0  0  0
   38.8338    4.4637    5.2550 H   0  0  0  0  0  0  0  0  0  0  0  0
   38.8338    4.4632    5.2552 H   0  0  0  0  0  0  0  0  0  0  0  0
   38.8340    4.4658    5.2538 H   0  0  0  0  0  0  0  0  0  0  0  0
   38.8340    4.4675    5.2529 H   0  0  0  0  0  0  0  0  0  0  0  0
   38.8342    4.4696    5.2518 H   0  0  0  0  0  0  0  0  0  0  0  0
   38.5835    3.3534    5.8952 H   0  0  0  0  0  0  0  0  0  0  0  0
   38.6525    4.7505    5.1418 H   0  0  0  0  0  0  0  0  0  0  0  0
   38.6520    4.7499    5.1422 H   0  0  0  0  0  0  0  0  0  0  0  0
   38.5824    3.3555    5.8943 H   0  0  0  0  0  0  0  0  0  0  0  0
   38.5840    3.3485    5.8976 H   0  0  0  0  0  0  0  0  0  0  0  0
   38.6534    4.7550    5.1392 H   0  0  0  0  0  0  0  0  0  0  0  0
  3  2  1  0
  4  2  1  0
  5  2  2  0
  6 33  1  0
  7 34  1  0
  8 35  1  0
 11 36  1  0
 11 37  1  0
 12 38  1  0
 13 39  1  0
 14 40  1  0
 15 41  1  0
 16 42  1  0
 17 43  1  0
 18 44  1  0
 19 45  1  0
 20 46  1  0
 21 47  1  0
 22 48  1  0
 23 49  1  0
 24 50  1  0
 25 51  1  0
 25 52  1  0
 26 53  1  0
 26 54  1  0
 27 55  1  0
 27 56  1  0
M  CHG  8   1   2   3  -1   4  -1   6  -1   7  -1   8  -1   9   2  10   2
M  CHG  8  12  -1  13  -1  14  -1  15  -1  16  -1  17  -1  18  -1  19  -1
M  CHG  8  20  -1  21  -1  22  -1  23  -1  24  -1  28   3  29   3  30   2
M  CHG  2  31   2  32   2
M  END
> <Uni-Dock RESULT> 
ENERGY=  -16.323  LOWER_BOUND=    0.000  UPPER_BOUND=    0.000
INTER + INTRA:         -16.323
INTER:                 -16.323
INTRA:                   0.000
UNBOUND:                 0.000

$$$$

     RDKit          3D

 56 27  0  0  0  0  0  0  0  0999 V2000
   46.8104    0.6242    7.7951 Mg  0  0  0  0  0 15  0  0  0  0  0  0
   46.8333    0.6241    7.7783 C   0  0  0  0  0  0  0  0  0  0  0  0
   46.5423   -0.7247    7.7652 O   0  0  0  0  0  0  0  0  0  0  0  0
   46.0481    1.5037    8.4980 O   0  0  0  0  0  0  0  0  0  0  0  0
   47.8177    1.0937    7.1390 O   0  0  0  0  0  0  0  0  0  0  0  0
   46.8714    0.1433    7.6783 O   0  0  0  0  0  0  0  0  0  0  0  0
   46.8714    0.1438    7.6785 O   0  0  0  0  0  0  0  0  0  0  0  0
   46.8715    0.1428    7.6782 O   0  0  0  0  0  0  0  0  0  0  0  0
   46.8104    0.6242    7.7951 Mg  0  0  0  0  0 15  0  0  0  0  0  0
   46.8104    0.6242    7.7951 Mg  0  0  0  0  0 15  0  0  0  0  0  0
   47.1029    0.7154    7.5967 O   0  0  0  0  0  0  0  0  0  0  0  0
   46.8712    0.1453    7.6788 O   0  0  0  0  0  0  0  0  0  0  0  0
   46.8713    0.1445    7.6786 O   0  0  0  0  0  0  0  0  0  0  0  0
   46.8709    0.1477    7.6794 O   0  0  0  0  0  0  0  0  0  0  0  0
   46.8711    0.1458    7.6790 O   0  0  0  0  0  0  0  0  0  0  0  0
   46.8706    0.1498    7.6799 O   0  0  0  0  0  0  0  0  0  0  0  0
   46.8714    0.1440    7.6785 O   0  0  0  0  0  0  0  0  0  0  0  0
   46.8714    0.1432    7.6783 O   0  0  0  0  0  0  0  0  0  0  0  0
   46.8706    0.1502    7.6800 O   0  0  0  0  0  0  0  0  0  0  0  0
   46.8708    0.1484    7.6796 O   0  0  0  0  0  0  0  0  0  0  0  0
   46.8707    0.1490    7.6797 O   0  0  0  0  0  0  0  0  0  0  0  0
   46.8711    0.1461    7.6790 O   0  0  0  0  0  0  0  0  0  0  0  0
   46.8713    0.1443    7.6786 O   0  0  0  0  0  0  0  0  0  0  0  0
   46.8716    0.1420    7.6780 O   0  0  0  0  0  0  0  0  0  0  0  0
   47.1245    0.7237    7.5822 O   0  0  0  0  0  0  0  0  0  0  0  0
   47.1261    0.7228    7.5809 O   0  0  0  0  0  0  0  0  0  0  0  0
   47.1233    0.7235    7.5830 O   0  0  0  0  0  0  0  0  0  0  0  0
   46.8104    0.6242    7.7951 Al  0  0  0  0  0 15  0  0  0  0  0  0
   46.8104    0.6242    7.7951 Al  0  0  0  0  0 15  0  0  0  0  0  0
   46.8104    0.6242    7.7951 Mg  0  0  0  0  0 15  0  0  0  0  0  0
   46.8104    0.6242    7.7951 Mg  0  0  0  0  0 15  0  0  0  0  0  0
   46.8104    0.6242    7.7951 Mg  0  0  0  0  0 15  0  0  0  0  0  0
   46.7493    1.1051    7.9119 H   0  0  0  0  0  0  0  0  0  0  0  0
   46.7493    1.1046    7.9118 H   0  0  0  0  0  0  0  0  0  0  0  0
   46.7492    1.1055    7.9120 H   0  0  0  0  0  0  0  0  0  0  0  0
   46.5616    1.3734    8.0885 H   0  0  0  0  0  0  0  0  0  0  0  0
   46.7667   -0.2162    7.7002 H   0  0  0  0  0  0  0  0  0  0  0  0
   46.7495    1.1031    7.9114 H   0  0  0  0  0  0  0  0  0  0  0  0
   46.7494    1.1039    7.9116 H   0  0  0  0  0  0  0  0  0  0  0  0
   46.7498    1.1007    7.9109 H   0  0  0  0  0  0  0  0  0  0  0  0
   46.7496    1.1026    7.9113 H   0  0  0  0  0  0  0  0  0  0  0  0
   46.7501    1.0986    7.9103 H   0  0  0  0  0  0  0  0  0  0  0  0
   46.7494    1.1044    7.9117 H   0  0  0  0  0  0  0  0  0  0  0  0
   46.7493    1.1052    7.9119 H   0  0  0  0  0  0  0  0  0  0  0  0
   46.7502    1.0982    7.9102 H   0  0  0  0  0  0  0  0  0  0  0  0
   46.7499    1.1000    7.9107 H   0  0  0  0  0  0  0  0  0  0  0  0
   46.7500    1.0994    7.9105 H   0  0  0  0  0  0  0  0  0  0  0  0
   46.7496    1.1023    7.9112 H   0  0  0  0  0  0  0  0  0  0  0  0
   46.7494    1.1041    7.9117 H   0  0  0  0  0  0  0  0  0  0  0  0
   46.7491    1.1064    7.9122 H   0  0  0  0  0  0  0  0  0  0  0  0
   46.7529   -0.1910    7.7140 H   0  0  0  0  0  0  0  0  0  0  0  0
   46.5537    1.3400    8.0892 H   0  0  0  0  0  0  0  0  0  0  0  0
   46.5534    1.3391    8.0893 H   0  0  0  0  0  0  0  0  0  0  0  0
   46.7516   -0.1892    7.7152 H   0  0  0  0  0  0  0  0  0  0  0  0
   46.7541   -0.1961    7.7123 H   0  0  0  0  0  0  0  0  0  0  0  0
   46.5537    1.3451    8.0900 H   0  0  0  0  0  0  0  0  0  0  0  0
  3  2  1  0
  4  2  1  0
  5  2  2  0
  6 33  1  0
  7 34  1  0
  8 35  1  0
 11 36  1  0
 11 37  1  0
 12 38  1  0
 13 39  1  0
 14 40  1  0
 15 41  1  0
 16 42  1  0
 17 43  1  0
 18 44  1  0
 19 45  1  0
 20 46  1  0
 21 47  1  0
 22 48  1  0
 23 49  1  0
 24 50  1  0
 25 51  1  0
 25 52  1  0
 26 53  1  0
 26 54  1  0
 27 55  1  0
 27 56  1  0
M  CHG  8   1   2   3  -1   4  -1   6  -1   7  -1   8  -1   9   2  10   2
M  CHG  8  12  -1  13  -1  14  -1  15  -1  16  -1  17  -1  18  -1  19  -1
M  CHG  8  20  -1  21  -1  22  -1  23  -1  24  -1  28   3  29   3  30   2
M  CHG  2  31   2  32   2
M  END
> <Uni-Dock RESULT> 
ENERGY=  -15.977  LOWER_BOUND=    8.410  UPPER_BOUND=    8.984
INTER + INTRA:         -15.977
INTER:                 -15.977
INTRA:                   0.000
UNBOUND:                 0.000

$$$$

     RDKit          3D

 56 27  0  0  0  0  0  0  0  0999 V2000
   46.9254    0.6437    7.7543 Mg  0  0  0  0  0 15  0  0  0  0  0  0
   46.9014    0.6425    7.7695 C   0  0  0  0  0  0  0  0  0  0  0  0
   47.0324   -0.6926    7.4460 O   0  0  0  0  0  0  0  0  0  0  0  0
   47.8350    1.5637    7.3360 O   0  0  0  0  0  0  0  0  0  0  0  0
   45.9328    1.0613    8.4657 O   0  0  0  0  0  0  0  0  0  0  0  0
   46.8005    0.1613    7.7401 O   0  0  0  0  0  0  0  0  0  0  0  0
   46.8006    0.1617    7.7401 O   0  0  0  0  0  0  0  0  0  0  0  0
   46.8003    0.1608    7.7400 O   0  0  0  0  0  0  0  0  0  0  0  0
   46.9254    0.6437    7.7543 Mg  0  0  0  0  0 15  0  0  0  0  0  0
   46.9254    0.6437    7.7543 Mg  0  0  0  0  0 15  0  0  0  0  0  0
   46.6314    0.7197    7.9569 O   0  0  0  0  0  0  0  0  0  0  0  0
   46.8010    0.1632    7.7401 O   0  0  0  0  0  0  0  0  0  0  0  0
   46.8008    0.1624    7.7401 O   0  0  0  0  0  0  0  0  0  0  0  0
   46.8016    0.1656    7.7402 O   0  0  0  0  0  0  0  0  0  0  0  0
   46.8011    0.1638    7.7401 O   0  0  0  0  0  0  0  0  0  0  0  0
   46.8021    0.1677    7.7403 O   0  0  0  0  0  0  0  0  0  0  0  0
   46.8006    0.1619    7.7401 O   0  0  0  0  0  0  0  0  0  0  0  0
   46.8004    0.1612    7.7401 O   0  0  0  0  0  0  0  0  0  0  0  0
   46.8022    0.1681    7.7403 O   0  0  0  0  0  0  0  0  0  0  0  0
   46.8018    0.1664    7.7402 O   0  0  0  0  0  0  0  0  0  0  0  0
   46.8019    0.1670    7.7402 O   0  0  0  0  0  0  0  0  0  0  0  0
   46.8012    0.1641    7.7401 O   0  0  0  0  0  0  0  0  0  0  0  0
   46.8007    0.1622    7.7401 O   0  0  0  0  0  0  0  0  0  0  0  0
   46.8001    0.1599    7.7400 O   0  0  0  0  0  0  0  0  0  0  0  0
   46.6098    0.7269    7.9720 O   0  0  0  0  0  0  0  0  0  0  0  0
   46.6080    0.7259    7.9730 O   0  0  0  0  0  0  0  0  0  0  0  0
   46.6110    0.7268    7.9712 O   0  0  0  0  0  0  0  0  0  0  0  0
   46.9254    0.6437    7.7543 Al  0  0  0  0  0 15  0  0  0  0  0  0
   46.9254    0.6437    7.7543 Al  0  0  0  0  0 15  0  0  0  0  0  0
   46.9254    0.6437    7.7543 Mg  0  0  0  0  0 15  0  0  0  0  0  0
   46.9254    0.6437    7.7543 Mg  0  0  0  0  0 15  0  0  0  0  0  0
   46.9254    0.6437    7.7543 Mg  0  0  0  0  0 15  0  0  0  0  0  0
   47.0503    1.1262    7.7685 H   0  0  0  0  0  0  0  0  0  0  0  0
   47.0502    1.1257    7.7685 H   0  0  0  0  0  0  0  0  0  0  0  0
   47.0505    1.1267    7.7686 H   0  0  0  0  0  0  0  0  0  0  0  0
   47.2806    1.4034    7.6755 H   0  0  0  0  0  0  0  0  0  0  0  0
   46.8643   -0.1918    7.6305 H   0  0  0  0  0  0  0  0  0  0  0  0
   47.0498    1.1243    7.7685 H   0  0  0  0  0  0  0  0  0  0  0  0
   47.0500    1.1251    7.7685 H   0  0  0  0  0  0  0  0  0  0  0  0
   47.0492    1.1219    7.7684 H   0  0  0  0  0  0  0  0  0  0  0  0
   47.0497    1.1237    7.7685 H   0  0  0  0  0  0  0  0  0  0  0  0
   47.0487    1.1197    7.7684 H   0  0  0  0  0  0  0  0  0  0  0  0
   47.0502    1.1256    7.7685 H   0  0  0  0  0  0  0  0  0  0  0  0
   47.0504    1.1263    7.7685 H   0  0  0  0  0  0  0  0  0  0  0  0
   47.0486    1.1194    7.7683 H   0  0  0  0  0  0  0  0  0  0  0  0
   47.0490    1.1211    7.7684 H   0  0  0  0  0  0  0  0  0  0  0  0
   47.0489    1.1205    7.7684 H   0  0  0  0  0  0  0  0  0  0  0  0
   47.0496    1.1234    7.7685 H   0  0  0  0  0  0  0  0  0  0  0  0
   47.0501    1.1253    7.7685 H   0  0  0  0  0  0  0  0  0  0  0  0
   47.0507    1.1276    7.7686 H   0  0  0  0  0  0  0  0  0  0  0  0
   46.8818   -0.1660    7.6243 H   0  0  0  0  0  0  0  0  0  0  0  0
   47.2845    1.3704    7.6666 H   0  0  0  0  0  0  0  0  0  0  0  0
   47.2847    1.3695    7.6663 H   0  0  0  0  0  0  0  0  0  0  0  0
   46.8834   -0.1641    7.6237 H   0  0  0  0  0  0  0  0  0  0  0  0
   46.8799   -0.1711    7.6245 H   0  0  0  0  0  0  0  0  0  0  0  0
   47.2852    1.3755    7.6671 H   0  0  0  0  0  0  0  0  0  0  0  0
  3  2  1  0
  4  2  1  0
  5  2  2  0
  6 33  1  0
  7 34  1  0
  8 35  1  0
 11 36  1  0
 11 37  1  0
 12 38  1  0
 13 39  1  0
 14 40  1  0
 15 41  1  0
 16 42  1  0
 17 43  1  0
 18 44  1  0
 19 45  1  0
 20 46  1  0
 21 47  1  0
 22 48  1  0
 23 49  1  0
 24 50  1  0
 25 51  1  0
 25 52  1  0
 26 53  1  0
 26 54  1  0
 27 55  1  0
 27 56  1  0
M  CHG  8   1   2   3  -1   4  -1   6  -1   7  -1   8  -1   9   2  10   2
M  CHG  8  12  -1  13  -1  14  -1  15  -1  16  -1  17  -1  18  -1  19  -1
M  CHG  8  20  -1  21  -1  22  -1  23  -1  24  -1  28   3  29   3  30   2
M  CHG  2  31   2  32   2
M  END
> <Uni-Dock RESULT> 
ENERGY=  -15.576  LOWER_BOUND=    8.383  UPPER_BOUND=    8.961
INTER + INTRA:         -15.576
INTER:                 -15.576
INTRA:                   0.000
UNBOUND:                 0.000

$$$$

     RDKit          3D

 56 27  0  0  0  0  0  0  0  0999 V2000
   46.7650    0.5601    7.7708 Mg  0  0  0  0  0 15  0  0  0  0  0  0
   46.7713    0.5335    7.7630 C   0  0  0  0  0  0  0  0  0  0  0  0
   47.7816    1.2049    7.1052 O   0  0  0  0  0  0  0  0  0  0  0  0
   45.8485    1.2257    8.5229 O   0  0  0  0  0  0  0  0  0  0  0  0
   46.6586   -0.7237    7.6921 O   0  0  0  0  0  0  0  0  0  0  0  0
   47.1642    0.6133    7.4769 O   0  0  0  0  0  0  0  0  0  0  0  0
   47.1638    0.6132    7.4772 O   0  0  0  0  0  0  0  0  0  0  0  0
   47.1646    0.6133    7.4766 O   0  0  0  0  0  0  0  0  0  0  0  0
   46.7650    0.5601    7.7708 Mg  0  0  0  0  0 15  0  0  0  0  0  0
   46.7650    0.5601    7.7708 Mg  0  0  0  0  0 15  0  0  0  0  0  0
   46.7708    0.1983    7.7228 O   0  0  0  0  0  0  0  0  0  0  0  0
   47.1626    0.6130    7.4781 O   0  0  0  0  0  0  0  0  0  0  0  0
   47.1633    0.6131    7.4776 O   0  0  0  0  0  0  0  0  0  0  0  0
   47.1606    0.6128    7.4795 O   0  0  0  0  0  0  0  0  0  0  0  0
   47.1621    0.6130    7.4784 O   0  0  0  0  0  0  0  0  0  0  0  0
   47.1589    0.6125    7.4808 O   0  0  0  0  0  0  0  0  0  0  0  0
   47.1637    0.6132    7.4773 O   0  0  0  0  0  0  0  0  0  0  0  0
   47.1643    0.6133    7.4768 O   0  0  0  0  0  0  0  0  0  0  0  0
   47.1585    0.6125    7.4811 O   0  0  0  0  0  0  0  0  0  0  0  0
   47.1600    0.6127    7.4800 O   0  0  0  0  0  0  0  0  0  0  0  0
   47.1595    0.6126    7.4804 O   0  0  0  0  0  0  0  0  0  0  0  0
   47.1619    0.6129    7.4786 O   0  0  0  0  0  0  0  0  0  0  0  0
   47.1634    0.6131    7.4775 O   0  0  0  0  0  0  0  0  0  0  0  0
   47.1653    0.6134    7.4761 O   0  0  0  0  0  0  0  0  0  0  0  0
   46.7700    0.1711    7.7201 O   0  0  0  0  0  0  0  0  0  0  0  0
   46.7712    0.1695    7.7190 O   0  0  0  0  0  0  0  0  0  0  0  0
   46.7698    0.1725    7.7204 O   0  0  0  0  0  0  0  0  0  0  0  0
   46.7650    0.5601    7.7708 Al  0  0  0  0  0 15  0  0  0  0  0  0
   46.7650    0.5601    7.7708 Al  0  0  0  0  0 15  0  0  0  0  0  0
   46.7650    0.5601    7.7708 Mg  0  0  0  0  0 15  0  0  0  0  0  0
   46.7650    0.5601    7.7708 Mg  0  0  0  0  0 15  0  0  0  0  0  0
   46.7650    0.5601    7.7708 Mg  0  0  0  0  0 15  0  0  0  0  0  0
   46.3657    0.5069    8.0647 H   0  0  0  0  0  0  0  0  0  0  0  0
   46.3661    0.5070    8.0644 H   0  0  0  0  0  0  0  0  0  0  0  0
   46.3653    0.5069    8.0650 H   0  0  0  0  0  0  0  0  0  0  0  0
   46.1017    0.6549    8.2811 H   0  0  0  0  0  0  0  0  0  0  0  0
   47.4224    0.8270    7.3085 H   0  0  0  0  0  0  0  0  0  0  0  0
   46.3673    0.5071    8.0635 H   0  0  0  0  0  0  0  0  0  0  0  0
   46.3667    0.5070    8.0640 H   0  0  0  0  0  0  0  0  0  0  0  0
   46.3693    0.5074    8.0620 H   0  0  0  0  0  0  0  0  0  0  0  0
   46.3678    0.5072    8.0631 H   0  0  0  0  0  0  0  0  0  0  0  0
   46.3711    0.5076    8.0607 H   0  0  0  0  0  0  0  0  0  0  0  0
   46.3663    0.5070    8.0643 H   0  0  0  0  0  0  0  0  0  0  0  0
   46.3656    0.5069    8.0647 H   0  0  0  0  0  0  0  0  0  0  0  0
   46.3714    0.5077    8.0605 H   0  0  0  0  0  0  0  0  0  0  0  0
   46.3700    0.5075    8.0616 H   0  0  0  0  0  0  0  0  0  0  0  0
   46.3705    0.5075    8.0612 H   0  0  0  0  0  0  0  0  0  0  0  0
   46.3680    0.5072    8.0630 H   0  0  0  0  0  0  0  0  0  0  0  0
   46.3665    0.5070    8.0641 H   0  0  0  0  0  0  0  0  0  0  0  0
   46.3646    0.5068    8.0655 H   0  0  0  0  0  0  0  0  0  0  0  0
   47.3987    0.8365    7.3275 H   0  0  0  0  0  0  0  0  0  0  0  0
   46.1263    0.6726    8.2648 H   0  0  0  0  0  0  0  0  0  0  0  0
   46.1269    0.6732    8.2644 H   0  0  0  0  0  0  0  0  0  0  0  0
   47.3969    0.8376    7.3289 H   0  0  0  0  0  0  0  0  0  0  0  0
   47.4030    0.8364    7.3242 H   0  0  0  0  0  0  0  0  0  0  0  0
   46.1221    0.6714    8.2677 H   0  0  0  0  0  0  0  0  0  0  0  0
  3  2  1  0
  4  2  1  0
  5  2  2  0
  6 33  1  0
  7 34  1  0
  8 35  1  0
 11 36  1  0
 11 37  1  0
 12 38  1  0
 13 39  1  0
 14 40  1  0
 15 41  1  0
 16 42  1  0
 17 43  1  0
 18 44  1  0
 19 45  1  0
 20 46  1  0
 21 47  1  0
 22 48  1  0
 23 49  1  0
 24 50  1  0
 25 51  1  0
 25 52  1  0
 26 53  1  0
 26 54  1  0
 27 55  1  0
 27 56  1  0
M  CHG  8   1   2   3  -1   4  -1   6  -1   7  -1   8  -1   9   2  10   2
M  CHG  8  12  -1  13  -1  14  -1  15  -1  16  -1  17  -1  18  -1  19  -1
M  CHG  8  20  -1  21  -1  22  -1  23  -1  24  -1  28   3  29   3  30   2
M  CHG  2  31   2  32   2
M  END
> <Uni-Dock RESULT> 
ENERGY=  -15.259  LOWER_BOUND=    8.391  UPPER_BOUND=    9.016
INTER + INTRA:         -15.259
INTER:                 -15.259
INTRA:                   0.000
UNBOUND:                 0.000

$$$$
