
     RDKit          3D

 56 27  0  0  0  0  0  0  0  0999 V2000
   46.8253    0.6225    7.7935 Mg  0  0  0  0  0 15  0  0  0  0  0  0
   46.8603    0.6258    7.7683 C   0  0  0  0  0  0  0  0  0  0  0  0
   46.5557   -0.7249    7.7720 O   0  0  0  0  0  0  0  0  0  0  0  0
   46.0528    1.4684    8.4969 O   0  0  0  0  0  0  0  0  0  0  0  0
   47.8324    1.1206    7.1367 O   0  0  0  0  0  0  0  0  0  0  0  0
   46.8610    0.1428    7.6878 O   0  0  0  0  0  0  0  0  0  0  0  0
   46.8611    0.1415    7.6875 O   0  0  0  0  0  0  0  0  0  0  0  0
   46.8613    0.1390    7.6870 O   0  0  0  0  0  0  0  0  0  0  0  0
   46.8253    0.6225    7.7935 Mg  0  0  0  0  0 15  0  0  0  0  0  0
   46.8253    0.6225    7.7935 Mg  0  0  0  0  0 15  0  0  0  0  0  0
   47.1315    0.6948    7.5767 O   0  0  0  0  0  0  0  0  0  0  0  0
   46.8614    0.1376    7.6867 O   0  0  0  0  0  0  0  0  0  0  0  0
   46.8615    0.1365    7.6864 O   0  0  0  0  0  0  0  0  0  0  0  0
   46.8614    0.1374    7.6866 O   0  0  0  0  0  0  0  0  0  0  0  0
   46.8615    0.1354    7.6862 O   0  0  0  0  0  0  0  0  0  0  0  0
   46.8615    0.1359    7.6863 O   0  0  0  0  0  0  0  0  0  0  0  0
   46.8614    0.1376    7.6867 O   0  0  0  0  0  0  0  0  0  0  0  0
   46.8614    0.1380    7.6868 O   0  0  0  0  0  0  0  0  0  0  0  0
   46.8613    0.1391    7.6870 O   0  0  0  0  0  0  0  0  0  0  0  0
   46.8613    0.1388    7.6869 O   0  0  0  0  0  0  0  0  0  0  0  0
   46.8615    0.1356    7.6862 O   0  0  0  0  0  0  0  0  0  0  0  0
   46.8610    0.1425    7.6878 O   0  0  0  0  0  0  0  0  0  0  0  0
   46.8614    0.1368    7.6865 O   0  0  0  0  0  0  0  0  0  0  0  0
   46.8614    0.1376    7.6867 O   0  0  0  0  0  0  0  0  0  0  0  0
   47.1250    0.6917    7.5810 O   0  0  0  0  0  0  0  0  0  0  0  0
   47.1191    0.6929    7.5856 O   0  0  0  0  0  0  0  0  0  0  0  0
   47.1216    0.6974    7.5845 O   0  0  0  0  0  0  0  0  0  0  0  0
   46.8253    0.6225    7.7935 Al  0  0  0  0  0 15  0  0  0  0  0  0
   46.8253    0.6225    7.7935 Al  0  0  0  0  0 15  0  0  0  0  0  0
   46.8253    0.6225    7.7935 Mg  0  0  0  0  0 15  0  0  0  0  0  0
   46.8253    0.6225    7.7935 Mg  0  0  0  0  0 15  0  0  0  0  0  0
   46.8253    0.6225    7.7935 Mg  0  0  0  0  0 15  0  0  0  0  0  0
   46.7896    1.1022    7.8991 H   0  0  0  0  0  0  0  0  0  0  0  0
   46.7895    1.1035    7.8994 H   0  0  0  0  0  0  0  0  0  0  0  0
   46.7893    1.1060    7.8999 H   0  0  0  0  0  0  0  0  0  0  0  0
   46.7310   -0.1981    7.7288 H   0  0  0  0  0  0  0  0  0  0  0  0
   46.6133    1.3708    8.0749 H   0  0  0  0  0  0  0  0  0  0  0  0
   46.7892    1.1074    7.9002 H   0  0  0  0  0  0  0  0  0  0  0  0
   46.7891    1.1086    7.9005 H   0  0  0  0  0  0  0  0  0  0  0  0
   46.7892    1.1076    7.9003 H   0  0  0  0  0  0  0  0  0  0  0  0
   46.7890    1.1096    7.9007 H   0  0  0  0  0  0  0  0  0  0  0  0
   46.7891    1.1091    7.9006 H   0  0  0  0  0  0  0  0  0  0  0  0
   46.7892    1.1074    7.9002 H   0  0  0  0  0  0  0  0  0  0  0  0
   46.7892    1.1070    7.9001 H   0  0  0  0  0  0  0  0  0  0  0  0
   46.7893    1.1059    7.8999 H   0  0  0  0  0  0  0  0  0  0  0  0
   46.7893    1.1062    7.9000 H   0  0  0  0  0  0  0  0  0  0  0  0
   46.7890    1.1094    7.9007 H   0  0  0  0  0  0  0  0  0  0  0  0
   46.7896    1.1025    7.8991 H   0  0  0  0  0  0  0  0  0  0  0  0
   46.7891    1.1083    7.9004 H   0  0  0  0  0  0  0  0  0  0  0  0
   46.7892    1.1074    7.9002 H   0  0  0  0  0  0  0  0  0  0  0  0
   46.7356   -0.2185    7.7220 H   0  0  0  0  0  0  0  0  0  0  0  0
   46.6154    1.3944    8.0772 H   0  0  0  0  0  0  0  0  0  0  0  0
   46.7386   -0.2129    7.7206 H   0  0  0  0  0  0  0  0  0  0  0  0
   46.6180    1.3875    8.0742 H   0  0  0  0  0  0  0  0  0  0  0  0
   46.7382   -0.2120    7.7211 H   0  0  0  0  0  0  0  0  0  0  0  0
   46.6160    1.3821    8.0748 H   0  0  0  0  0  0  0  0  0  0  0  0
  3  2  1  0
  4  2  1  0
  5  2  2  0
  6 33  1  0
  7 34  1  0
  8 35  1  0
 11 36  1  0
 11 37  1  0
 12 38  1  0
 13 39  1  0
 14 40  1  0
 15 41  1  0
 16 42  1  0
 17 43  1  0
 18 44  1  0
 19 45  1  0
 20 46  1  0
 21 47  1  0
 22 48  1  0
 23 49  1  0
 24 50  1  0
 25 51  1  0
 25 52  1  0
 26 53  1  0
 26 54  1  0
 27 55  1  0
 27 56  1  0
M  CHG  8   1   2   3  -1   4  -1   6  -1   7  -1   8  -1   9   2  10   2
M  CHG  8  12  -1  13  -1  14  -1  15  -1  16  -1  17  -1  18  -1  19  -1
M  CHG  8  20  -1  21  -1  22  -1  23  -1  24  -1  28   3  29   3  30   2
M  CHG  2  31   2  32   2
M  END
> <Uni-Dock RESULT> 
ENERGY=  -16.047  LOWER_BOUND=    0.000  UPPER_BOUND=    0.000
INTER + INTRA:         -16.047
INTER:                 -16.047
INTRA:                   0.000
UNBOUND:                 0.000

$$$$

     RDKit          3D

 56 27  0  0  0  0  0  0  0  0999 V2000
   46.7798    0.5691    7.7589 Mg  0  0  0  0  0 15  0  0  0  0  0  0
   46.7859    0.5274    7.7490 C   0  0  0  0  0  0  0  0  0  0  0  0
   47.8005    1.1967    7.0858 O   0  0  0  0  0  0  0  0  0  0  0  0
   45.9048    1.2745    8.4963 O   0  0  0  0  0  0  0  0  0  0  0  0
   46.6282   -0.7224    7.7043 O   0  0  0  0  0  0  0  0  0  0  0  0
   47.1770    0.6379    7.4759 O   0  0  0  0  0  0  0  0  0  0  0  0
   47.1780    0.6380    7.4751 O   0  0  0  0  0  0  0  0  0  0  0  0
   47.1801    0.6384    7.4736 O   0  0  0  0  0  0  0  0  0  0  0  0
   46.7798    0.5691    7.7589 Mg  0  0  0  0  0 15  0  0  0  0  0  0
   46.7798    0.5691    7.7589 Mg  0  0  0  0  0 15  0  0  0  0  0  0
   46.8005    0.1922    7.6992 O   0  0  0  0  0  0  0  0  0  0  0  0
   47.1812    0.6386    7.4728 O   0  0  0  0  0  0  0  0  0  0  0  0
   47.1822    0.6388    7.4721 O   0  0  0  0  0  0  0  0  0  0  0  0
   47.1814    0.6386    7.4727 O   0  0  0  0  0  0  0  0  0  0  0  0
   47.1831    0.6389    7.4715 O   0  0  0  0  0  0  0  0  0  0  0  0
   47.1827    0.6389    7.4718 O   0  0  0  0  0  0  0  0  0  0  0  0
   47.1812    0.6386    7.4728 O   0  0  0  0  0  0  0  0  0  0  0  0
   47.1809    0.6385    7.4731 O   0  0  0  0  0  0  0  0  0  0  0  0
   47.1800    0.6384    7.4737 O   0  0  0  0  0  0  0  0  0  0  0  0
   47.1803    0.6384    7.4735 O   0  0  0  0  0  0  0  0  0  0  0  0
   47.1829    0.6389    7.4716 O   0  0  0  0  0  0  0  0  0  0  0  0
   47.1772    0.6379    7.4757 O   0  0  0  0  0  0  0  0  0  0  0  0
   47.1820    0.6387    7.4723 O   0  0  0  0  0  0  0  0  0  0  0  0
   47.1812    0.6386    7.4728 O   0  0  0  0  0  0  0  0  0  0  0  0
   46.8013    0.2006    7.6996 O   0  0  0  0  0  0  0  0  0  0  0  0
   46.7988    0.2072    7.7022 O   0  0  0  0  0  0  0  0  0  0  0  0
   46.7959    0.2032    7.7039 O   0  0  0  0  0  0  0  0  0  0  0  0
   46.7798    0.5691    7.7589 Al  0  0  0  0  0 15  0  0  0  0  0  0
   46.7798    0.5691    7.7589 Al  0  0  0  0  0 15  0  0  0  0  0  0
   46.7798    0.5691    7.7589 Mg  0  0  0  0  0 15  0  0  0  0  0  0
   46.7798    0.5691    7.7589 Mg  0  0  0  0  0 15  0  0  0  0  0  0
   46.7798    0.5691    7.7589 Mg  0  0  0  0  0 15  0  0  0  0  0  0
   46.3827    0.5003    8.0419 H   0  0  0  0  0  0  0  0  0  0  0  0
   46.3816    0.5001    8.0427 H   0  0  0  0  0  0  0  0  0  0  0  0
   46.3795    0.4997    8.0442 H   0  0  0  0  0  0  0  0  0  0  0  0
   47.4190    0.8695    7.3258 H   0  0  0  0  0  0  0  0  0  0  0  0
   46.1200    0.6455    8.2517 H   0  0  0  0  0  0  0  0  0  0  0  0
   46.3784    0.4995    8.0450 H   0  0  0  0  0  0  0  0  0  0  0  0
   46.3774    0.4993    8.0456 H   0  0  0  0  0  0  0  0  0  0  0  0
   46.3783    0.4995    8.0451 H   0  0  0  0  0  0  0  0  0  0  0  0
   46.3766    0.4992    8.0463 H   0  0  0  0  0  0  0  0  0  0  0  0
   46.3770    0.4993    8.0460 H   0  0  0  0  0  0  0  0  0  0  0  0
   46.3784    0.4995    8.0450 H   0  0  0  0  0  0  0  0  0  0  0  0
   46.3787    0.4996    8.0447 H   0  0  0  0  0  0  0  0  0  0  0  0
   46.3796    0.4997    8.0441 H   0  0  0  0  0  0  0  0  0  0  0  0
   46.3794    0.4997    8.0443 H   0  0  0  0  0  0  0  0  0  0  0  0
   46.3767    0.4992    8.0462 H   0  0  0  0  0  0  0  0  0  0  0  0
   46.3824    0.5002    8.0421 H   0  0  0  0  0  0  0  0  0  0  0  0
   46.3777    0.4994    8.0455 H   0  0  0  0  0  0  0  0  0  0  0  0
   46.3784    0.4995    8.0450 H   0  0  0  0  0  0  0  0  0  0  0  0
   47.4367    0.8689    7.3127 H   0  0  0  0  0  0  0  0  0  0  0  0
   46.1015    0.6376    8.2643 H   0  0  0  0  0  0  0  0  0  0  0  0
   47.4330    0.8639    7.3148 H   0  0  0  0  0  0  0  0  0  0  0  0
   46.1077    0.6361    8.2596 H   0  0  0  0  0  0  0  0  0  0  0  0
   47.4321    0.8642    7.3155 H   0  0  0  0  0  0  0  0  0  0  0  0
   46.1115    0.6397    8.2572 H   0  0  0  0  0  0  0  0  0  0  0  0
  3  2  1  0
  4  2  1  0
  5  2  2  0
  6 33  1  0
  7 34  1  0
  8 35  1  0
 11 36  1  0
 11 37  1  0
 12 38  1  0
 13 39  1  0
 14 40  1  0
 15 41  1  0
 16 42  1  0
 17 43  1  0
 18 44  1  0
 19 45  1  0
 20 46  1  0
 21 47  1  0
 22 48  1  0
 23 49  1  0
 24 50  1  0
 25 51  1  0
 25 52  1  0
 26 53  1  0
 26 54  1  0
 27 55  1  0
 27 56  1  0
M  CHG  8   1   2   3  -1   4  -1   6  -1   7  -1   8  -1   9   2  10   2
M  CHG  8  12  -1  13  -1  14  -1  15  -1  16  -1  17  -1  18  -1  19  -1
M  CHG  8  20  -1  21  -1  22  -1  23  -1  24  -1  28   3  29   3  30   2
M  CHG  2  31   2  32   2
M  END
> <Uni-Dock RESULT> 
ENERGY=  -15.212  LOWER_BOUND=    0.116  UPPER_BOUND=    0.767
INTER + INTRA:         -15.212
INTER:                 -15.212
INTRA:                   0.000
UNBOUND:                 0.000

$$$$
