
     RDKit          3D

 56 27  0  0  0  0  0  0  0  0999 V2000
   38.7977    4.0305    5.4950 Mg  0  0  0  0  0 15  0  0  0  0  0  0
   38.8144    4.0391    5.4867 C   0  0  0  0  0  0  0  0  0  0  0  0
   38.2366    2.9662    6.1709 O   0  0  0  0  0  0  0  0  0  0  0  0
   38.0966    5.1467    5.0756 O   0  0  0  0  0  0  0  0  0  0  0  0
   40.0432    3.9701    5.2465 O   0  0  0  0  0  0  0  0  0  0  0  0
   38.7890    3.5958    5.7222 O   0  0  0  0  0  0  0  0  0  0  0  0
   38.7888    3.5877    5.7265 O   0  0  0  0  0  0  0  0  0  0  0  0
   38.7889    3.5915    5.7245 O   0  0  0  0  0  0  0  0  0  0  0  0
   38.7977    4.0305    5.4950 Mg  0  0  0  0  0 15  0  0  0  0  0  0
   38.7977    4.0305    5.4950 Mg  0  0  0  0  0 15  0  0  0  0  0  0
   39.1704    3.9967    5.4311 O   0  0  0  0  0  0  0  0  0  0  0  0
   38.7889    3.5942    5.7231 O   0  0  0  0  0  0  0  0  0  0  0  0
   38.7888    3.5906    5.7250 O   0  0  0  0  0  0  0  0  0  0  0  0
   38.7890    3.5960    5.7221 O   0  0  0  0  0  0  0  0  0  0  0  0
   38.7889    3.5919    5.7243 O   0  0  0  0  0  0  0  0  0  0  0  0
   38.7888    3.5888    5.7259 O   0  0  0  0  0  0  0  0  0  0  0  0
   38.7888    3.5877    5.7265 O   0  0  0  0  0  0  0  0  0  0  0  0
   38.7889    3.5912    5.7246 O   0  0  0  0  0  0  0  0  0  0  0  0
   38.7889    3.5920    5.7242 O   0  0  0  0  0  0  0  0  0  0  0  0
   38.7888    3.5884    5.7261 O   0  0  0  0  0  0  0  0  0  0  0  0
   38.7889    3.5910    5.7248 O   0  0  0  0  0  0  0  0  0  0  0  0
   38.7888    3.5892    5.7257 O   0  0  0  0  0  0  0  0  0  0  0  0
   38.7889    3.5908    5.7249 O   0  0  0  0  0  0  0  0  0  0  0  0
   38.7889    3.5942    5.7231 O   0  0  0  0  0  0  0  0  0  0  0  0
   39.1843    3.9938    5.4295 O   0  0  0  0  0  0  0  0  0  0  0  0
   39.1757    3.9936    5.4315 O   0  0  0  0  0  0  0  0  0  0  0  0
   39.1681    3.9936    5.4332 O   0  0  0  0  0  0  0  0  0  0  0  0
   38.7977    4.0305    5.4950 Al  0  0  0  0  0 15  0  0  0  0  0  0
   38.7977    4.0305    5.4950 Al  0  0  0  0  0 15  0  0  0  0  0  0
   38.7977    4.0305    5.4950 Mg  0  0  0  0  0 15  0  0  0  0  0  0
   38.7977    4.0305    5.4950 Mg  0  0  0  0  0 15  0  0  0  0  0  0
   38.7977    4.0305    5.4950 Mg  0  0  0  0  0 15  0  0  0  0  0  0
   38.8065    4.4652    5.2677 H   0  0  0  0  0  0  0  0  0  0  0  0
   38.8066    4.4734    5.2634 H   0  0  0  0  0  0  0  0  0  0  0  0
   38.8066    4.4696    5.2654 H   0  0  0  0  0  0  0  0  0  0  0  0
   38.6236    4.7679    5.1507 H   0  0  0  0  0  0  0  0  0  0  0  0
   38.5990    3.3270    5.9031 H   0  0  0  0  0  0  0  0  0  0  0  0
   38.8065    4.4669    5.2668 H   0  0  0  0  0  0  0  0  0  0  0  0
   38.8066    4.4705    5.2650 H   0  0  0  0  0  0  0  0  0  0  0  0
   38.8065    4.4651    5.2678 H   0  0  0  0  0  0  0  0  0  0  0  0
   38.8065    4.4692    5.2656 H   0  0  0  0  0  0  0  0  0  0  0  0
   38.8066    4.4722    5.2640 H   0  0  0  0  0  0  0  0  0  0  0  0
   38.8066    4.4734    5.2634 H   0  0  0  0  0  0  0  0  0  0  0  0
   38.8066    4.4698    5.2653 H   0  0  0  0  0  0  0  0  0  0  0  0
   38.8065    4.4690    5.2657 H   0  0  0  0  0  0  0  0  0  0  0  0
   38.8066    4.4727    5.2638 H   0  0  0  0  0  0  0  0  0  0  0  0
   38.8066    4.4701    5.2651 H   0  0  0  0  0  0  0  0  0  0  0  0
   38.8066    4.4719    5.2642 H   0  0  0  0  0  0  0  0  0  0  0  0
   38.8066    4.4703    5.2650 H   0  0  0  0  0  0  0  0  0  0  0  0
   38.8065    4.4668    5.2669 H   0  0  0  0  0  0  0  0  0  0  0  0
   38.6168    4.7506    5.1612 H   0  0  0  0  0  0  0  0  0  0  0  0
   38.5920    3.3472    5.8941 H   0  0  0  0  0  0  0  0  0  0  0  0
   38.6219    4.7638    5.1532 H   0  0  0  0  0  0  0  0  0  0  0  0
   38.5955    3.3342    5.9001 H   0  0  0  0  0  0  0  0  0  0  0  0
   38.6262    4.7679    5.1502 H   0  0  0  0  0  0  0  0  0  0  0  0
   38.5989    3.3302    5.9015 H   0  0  0  0  0  0  0  0  0  0  0  0
  3  2  1  0
  4  2  1  0
  5  2  2  0
  6 33  1  0
  7 34  1  0
  8 35  1  0
 11 36  1  0
 11 37  1  0
 12 38  1  0
 13 39  1  0
 14 40  1  0
 15 41  1  0
 16 42  1  0
 17 43  1  0
 18 44  1  0
 19 45  1  0
 20 46  1  0
 21 47  1  0
 22 48  1  0
 23 49  1  0
 24 50  1  0
 25 51  1  0
 25 52  1  0
 26 53  1  0
 26 54  1  0
 27 55  1  0
 27 56  1  0
M  CHG  8   1   2   3  -1   4  -1   6  -1   7  -1   8  -1   9   2  10   2
M  CHG  8  12  -1  13  -1  14  -1  15  -1  16  -1  17  -1  18  -1  19  -1
M  CHG  8  20  -1  21  -1  22  -1  23  -1  24  -1  28   3  29   3  30   2
M  CHG  2  31   2  32   2
M  END
> <Uni-Dock RESULT> 
ENERGY=  -16.313  LOWER_BOUND=    0.000  UPPER_BOUND=    0.000
INTER + INTRA:         -16.313
INTER:                 -16.313
INTRA:                   0.000
UNBOUND:                 0.000

$$$$

     RDKit          3D

 56 27  0  0  0  0  0  0  0  0999 V2000
   46.7982    0.6348    7.8039 Mg  0  0  0  0  0 15  0  0  0  0  0  0
   46.8097    0.6507    7.7980 C   0  0  0  0  0  0  0  0  0  0  0  0
   46.5614   -0.7241    7.7605 O   0  0  0  0  0  0  0  0  0  0  0  0
   46.0253    1.5403    8.5080 O   0  0  0  0  0  0  0  0  0  0  0  0
   47.7963    1.0724    7.1490 O   0  0  0  0  0  0  0  0  0  0  0  0
   46.8763    0.1682    7.6740 O   0  0  0  0  0  0  0  0  0  0  0  0
   46.8778    0.1595    7.6716 O   0  0  0  0  0  0  0  0  0  0  0  0
   46.8771    0.1636    7.6727 O   0  0  0  0  0  0  0  0  0  0  0  0
   46.7982    0.6348    7.8039 Mg  0  0  0  0  0 15  0  0  0  0  0  0
   46.7982    0.6348    7.8039 Mg  0  0  0  0  0 15  0  0  0  0  0  0
   47.1010    0.7477    7.6046 O   0  0  0  0  0  0  0  0  0  0  0  0
   46.8766    0.1664    7.6735 O   0  0  0  0  0  0  0  0  0  0  0  0
   46.8773    0.1626    7.6725 O   0  0  0  0  0  0  0  0  0  0  0  0
   46.8763    0.1684    7.6741 O   0  0  0  0  0  0  0  0  0  0  0  0
   46.8771    0.1640    7.6729 O   0  0  0  0  0  0  0  0  0  0  0  0
   46.8776    0.1607    7.6720 O   0  0  0  0  0  0  0  0  0  0  0  0
   46.8778    0.1595    7.6716 O   0  0  0  0  0  0  0  0  0  0  0  0
   46.8772    0.1633    7.6727 O   0  0  0  0  0  0  0  0  0  0  0  0
   46.8770    0.1642    7.6729 O   0  0  0  0  0  0  0  0  0  0  0  0
   46.8777    0.1603    7.6718 O   0  0  0  0  0  0  0  0  0  0  0  0
   46.8772    0.1630    7.6726 O   0  0  0  0  0  0  0  0  0  0  0  0
   46.8775    0.1611    7.6721 O   0  0  0  0  0  0  0  0  0  0  0  0
   46.8772    0.1628    7.6725 O   0  0  0  0  0  0  0  0  0  0  0  0
   46.8766    0.1665    7.6736 O   0  0  0  0  0  0  0  0  0  0  0  0
   47.1126    0.7501    7.5966 O   0  0  0  0  0  0  0  0  0  0  0  0
   47.1058    0.7464    7.6010 O   0  0  0  0  0  0  0  0  0  0  0  0
   47.0997    0.7434    7.6048 O   0  0  0  0  0  0  0  0  0  0  0  0
   46.7982    0.6348    7.8039 Al  0  0  0  0  0 15  0  0  0  0  0  0
   46.7982    0.6348    7.8039 Al  0  0  0  0  0 15  0  0  0  0  0  0
   46.7982    0.6348    7.8039 Mg  0  0  0  0  0 15  0  0  0  0  0  0
   46.7982    0.6348    7.8039 Mg  0  0  0  0  0 15  0  0  0  0  0  0
   46.7982    0.6348    7.8039 Mg  0  0  0  0  0 15  0  0  0  0  0  0
   46.7200    1.1015    7.9337 H   0  0  0  0  0  0  0  0  0  0  0  0
   46.7186    1.1102    7.9362 H   0  0  0  0  0  0  0  0  0  0  0  0
   46.7192    1.1061    7.9350 H   0  0  0  0  0  0  0  0  0  0  0  0
   46.5154    1.3509    8.1199 H   0  0  0  0  0  0  0  0  0  0  0  0
   46.7780   -0.1940    7.6872 H   0  0  0  0  0  0  0  0  0  0  0  0
   46.7197    1.1033    7.9342 H   0  0  0  0  0  0  0  0  0  0  0  0
   46.7191    1.1071    7.9353 H   0  0  0  0  0  0  0  0  0  0  0  0
   46.7201    1.1013    7.9337 H   0  0  0  0  0  0  0  0  0  0  0  0
   46.7193    1.1057    7.9349 H   0  0  0  0  0  0  0  0  0  0  0  0
   46.7188    1.1090    7.9358 H   0  0  0  0  0  0  0  0  0  0  0  0
   46.7186    1.1102    7.9362 H   0  0  0  0  0  0  0  0  0  0  0  0
   46.7192    1.1064    7.9351 H   0  0  0  0  0  0  0  0  0  0  0  0
   46.7193    1.1055    7.9349 H   0  0  0  0  0  0  0  0  0  0  0  0
   46.7187    1.1094    7.9359 H   0  0  0  0  0  0  0  0  0  0  0  0
   46.7191    1.1067    7.9352 H   0  0  0  0  0  0  0  0  0  0  0  0
   46.7188    1.1086    7.9357 H   0  0  0  0  0  0  0  0  0  0  0  0
   46.7191    1.1069    7.9352 H   0  0  0  0  0  0  0  0  0  0  0  0
   46.7197    1.1032    7.9342 H   0  0  0  0  0  0  0  0  0  0  0  0
   46.5134    1.3297    8.1180 H   0  0  0  0  0  0  0  0  0  0  0  0
   46.7685   -0.1753    7.6970 H   0  0  0  0  0  0  0  0  0  0  0  0
   46.5148    1.3459    8.1195 H   0  0  0  0  0  0  0  0  0  0  0  0
   46.7738   -0.1877    7.6912 H   0  0  0  0  0  0  0  0  0  0  0  0
   46.5175    1.3519    8.1186 H   0  0  0  0  0  0  0  0  0  0  0  0
   46.7773   -0.1907    7.6883 H   0  0  0  0  0  0  0  0  0  0  0  0
  3  2  1  0
  4  2  1  0
  5  2  2  0
  6 33  1  0
  7 34  1  0
  8 35  1  0
 11 36  1  0
 11 37  1  0
 12 38  1  0
 13 39  1  0
 14 40  1  0
 15 41  1  0
 16 42  1  0
 17 43  1  0
 18 44  1  0
 19 45  1  0
 20 46  1  0
 21 47  1  0
 22 48  1  0
 23 49  1  0
 24 50  1  0
 25 51  1  0
 25 52  1  0
 26 53  1  0
 26 54  1  0
 27 55  1  0
 27 56  1  0
M  CHG  8   1   2   3  -1   4  -1   6  -1   7  -1   8  -1   9   2  10   2
M  CHG  8  12  -1  13  -1  14  -1  15  -1  16  -1  17  -1  18  -1  19  -1
M  CHG  8  20  -1  21  -1  22  -1  23  -1  24  -1  28   3  29   3  30   2
M  CHG  2  31   2  32   2
M  END
> <Uni-Dock RESULT> 
ENERGY=  -15.902  LOWER_BOUND=    8.403  UPPER_BOUND=    8.981
INTER + INTRA:         -15.902
INTER:                 -15.902
INTRA:                   0.000
UNBOUND:                 0.000

$$$$

     RDKit          3D

 56 27  0  0  0  0  0  0  0  0999 V2000
   46.7614    0.5947    7.7898 Mg  0  0  0  0  0 15  0  0  0  0  0  0
   46.7518    0.5779    7.7965 C   0  0  0  0  0  0  0  0  0  0  0  0
   47.7822    1.1419    7.0393 O   0  0  0  0  0  0  0  0  0  0  0  0
   45.8403    1.3323    8.5112 O   0  0  0  0  0  0  0  0  0  0  0  0
   46.6716   -0.6734    7.8122 O   0  0  0  0  0  0  0  0  0  0  0  0
   47.1527    0.5941    7.4938 O   0  0  0  0  0  0  0  0  0  0  0  0
   47.1601    0.5941    7.4883 O   0  0  0  0  0  0  0  0  0  0  0  0
   47.1566    0.5941    7.4909 O   0  0  0  0  0  0  0  0  0  0  0  0
   46.7614    0.5947    7.7898 Mg  0  0  0  0  0 15  0  0  0  0  0  0
   46.7614    0.5947    7.7898 Mg  0  0  0  0  0 15  0  0  0  0  0  0
   46.7483    0.2153    7.7836 O   0  0  0  0  0  0  0  0  0  0  0  0
   47.1542    0.5941    7.4927 O   0  0  0  0  0  0  0  0  0  0  0  0
   47.1574    0.5941    7.4903 O   0  0  0  0  0  0  0  0  0  0  0  0
   47.1526    0.5941    7.4940 O   0  0  0  0  0  0  0  0  0  0  0  0
   47.1563    0.5941    7.4911 O   0  0  0  0  0  0  0  0  0  0  0  0
   47.1590    0.5941    7.4891 O   0  0  0  0  0  0  0  0  0  0  0  0
   47.1601    0.5941    7.4883 O   0  0  0  0  0  0  0  0  0  0  0  0
   47.1569    0.5941    7.4907 O   0  0  0  0  0  0  0  0  0  0  0  0
   47.1561    0.5941    7.4912 O   0  0  0  0  0  0  0  0  0  0  0  0
   47.1594    0.5941    7.4888 O   0  0  0  0  0  0  0  0  0  0  0  0
   47.1571    0.5941    7.4905 O   0  0  0  0  0  0  0  0  0  0  0  0
   47.1587    0.5941    7.4893 O   0  0  0  0  0  0  0  0  0  0  0  0
   47.1573    0.5941    7.4904 O   0  0  0  0  0  0  0  0  0  0  0  0
   47.1542    0.5941    7.4927 O   0  0  0  0  0  0  0  0  0  0  0  0
   46.7493    0.2011    7.7822 O   0  0  0  0  0  0  0  0  0  0  0  0
   46.7505    0.2099    7.7817 O   0  0  0  0  0  0  0  0  0  0  0  0
   46.7514    0.2176    7.7813 O   0  0  0  0  0  0  0  0  0  0  0  0
   46.7614    0.5947    7.7898 Al  0  0  0  0  0 15  0  0  0  0  0  0
   46.7614    0.5947    7.7898 Al  0  0  0  0  0 15  0  0  0  0  0  0
   46.7614    0.5947    7.7898 Mg  0  0  0  0  0 15  0  0  0  0  0  0
   46.7614    0.5947    7.7898 Mg  0  0  0  0  0 15  0  0  0  0  0  0
   46.7614    0.5947    7.7898 Mg  0  0  0  0  0 15  0  0  0  0  0  0
   46.3702    0.5952    8.0858 H   0  0  0  0  0  0  0  0  0  0  0  0
   46.3628    0.5952    8.0913 H   0  0  0  0  0  0  0  0  0  0  0  0
   46.3663    0.5952    8.0887 H   0  0  0  0  0  0  0  0  0  0  0  0
   46.1198    0.7876    8.2833 H   0  0  0  0  0  0  0  0  0  0  0  0
   47.4162    0.7813    7.3025 H   0  0  0  0  0  0  0  0  0  0  0  0
   46.3687    0.5952    8.0869 H   0  0  0  0  0  0  0  0  0  0  0  0
   46.3655    0.5952    8.0893 H   0  0  0  0  0  0  0  0  0  0  0  0
   46.3703    0.5952    8.0856 H   0  0  0  0  0  0  0  0  0  0  0  0
   46.3666    0.5952    8.0885 H   0  0  0  0  0  0  0  0  0  0  0  0
   46.3639    0.5952    8.0905 H   0  0  0  0  0  0  0  0  0  0  0  0
   46.3628    0.5952    8.0913 H   0  0  0  0  0  0  0  0  0  0  0  0
   46.3660    0.5952    8.0889 H   0  0  0  0  0  0  0  0  0  0  0  0
   46.3668    0.5952    8.0884 H   0  0  0  0  0  0  0  0  0  0  0  0
   46.3635    0.5952    8.0908 H   0  0  0  0  0  0  0  0  0  0  0  0
   46.3658    0.5952    8.0891 H   0  0  0  0  0  0  0  0  0  0  0  0
   46.3642    0.5952    8.0903 H   0  0  0  0  0  0  0  0  0  0  0  0
   46.3656    0.5952    8.0892 H   0  0  0  0  0  0  0  0  0  0  0  0
   46.3687    0.5952    8.0869 H   0  0  0  0  0  0  0  0  0  0  0  0
   46.1361    0.7941    8.2713 H   0  0  0  0  0  0  0  0  0  0  0  0
   47.3989    0.7888    7.3159 H   0  0  0  0  0  0  0  0  0  0  0  0
   46.1237    0.7893    8.2805 H   0  0  0  0  0  0  0  0  0  0  0  0
   47.4102    0.7850    7.3072 H   0  0  0  0  0  0  0  0  0  0  0  0
   46.1195    0.7850    8.2835 H   0  0  0  0  0  0  0  0  0  0  0  0
   47.4134    0.7815    7.3047 H   0  0  0  0  0  0  0  0  0  0  0  0
  3  2  1  0
  4  2  1  0
  5  2  2  0
  6 33  1  0
  7 34  1  0
  8 35  1  0
 11 36  1  0
 11 37  1  0
 12 38  1  0
 13 39  1  0
 14 40  1  0
 15 41  1  0
 16 42  1  0
 17 43  1  0
 18 44  1  0
 19 45  1  0
 20 46  1  0
 21 47  1  0
 22 48  1  0
 23 49  1  0
 24 50  1  0
 25 51  1  0
 25 52  1  0
 26 53  1  0
 26 54  1  0
 27 55  1  0
 27 56  1  0
M  CHG  8   1   2   3  -1   4  -1   6  -1   7  -1   8  -1   9   2  10   2
M  CHG  8  12  -1  13  -1  14  -1  15  -1  16  -1  17  -1  18  -1  19  -1
M  CHG  8  20  -1  21  -1  22  -1  23  -1  24  -1  28   3  29   3  30   2
M  CHG  2  31   2  32   2
M  END
> <Uni-Dock RESULT> 
ENERGY=  -15.176  LOWER_BOUND=    8.392  UPPER_BOUND=    9.015
INTER + INTRA:         -15.176
INTER:                 -15.176
INTRA:                   0.000
UNBOUND:                 0.000

$$$$

     RDKit          3D

 56 27  0  0  0  0  0  0  0  0999 V2000
   47.0657    0.5966    7.4756 Mg  0  0  0  0  0 15  0  0  0  0  0  0
   47.0497    0.5991    7.4882 C   0  0  0  0  0  0  0  0  0  0  0  0
   48.1583    1.1511    6.8406 O   0  0  0  0  0  0  0  0  0  0  0  0
   46.6770   -0.7249    7.3504 O   0  0  0  0  0  0  0  0  0  0  0  0
   46.3778    1.3610    8.2234 O   0  0  0  0  0  0  0  0  0  0  0  0
   47.3831    0.9496    7.3518 O   0  0  0  0  0  0  0  0  0  0  0  0
   47.3891    0.9562    7.3495 O   0  0  0  0  0  0  0  0  0  0  0  0
   47.3863    0.9531    7.3506 O   0  0  0  0  0  0  0  0  0  0  0  0
   47.0657    0.5966    7.4756 Mg  0  0  0  0  0 15  0  0  0  0  0  0
   47.0657    0.5966    7.4756 Mg  0  0  0  0  0 15  0  0  0  0  0  0
   46.8732    0.8383    7.6962 O   0  0  0  0  0  0  0  0  0  0  0  0
   47.3844    0.9509    7.3514 O   0  0  0  0  0  0  0  0  0  0  0  0
   47.3870    0.9538    7.3503 O   0  0  0  0  0  0  0  0  0  0  0  0
   47.3830    0.9494    7.3519 O   0  0  0  0  0  0  0  0  0  0  0  0
   47.3861    0.9528    7.3507 O   0  0  0  0  0  0  0  0  0  0  0  0
   47.3883    0.9552    7.3498 O   0  0  0  0  0  0  0  0  0  0  0  0
   47.3891    0.9562    7.3495 O   0  0  0  0  0  0  0  0  0  0  0  0
   47.3865    0.9533    7.3505 O   0  0  0  0  0  0  0  0  0  0  0  0
   47.3859    0.9526    7.3507 O   0  0  0  0  0  0  0  0  0  0  0  0
   47.3886    0.9556    7.3497 O   0  0  0  0  0  0  0  0  0  0  0  0
   47.3867    0.9535    7.3504 O   0  0  0  0  0  0  0  0  0  0  0  0
   47.3880    0.9549    7.3499 O   0  0  0  0  0  0  0  0  0  0  0  0
   47.3868    0.9537    7.3504 O   0  0  0  0  0  0  0  0  0  0  0  0
   47.3843    0.9508    7.3514 O   0  0  0  0  0  0  0  0  0  0  0  0
   46.8672    0.8487    7.7040 O   0  0  0  0  0  0  0  0  0  0  0  0
   46.8724    0.8439    7.6986 O   0  0  0  0  0  0  0  0  0  0  0  0
   46.8768    0.8395    7.6939 O   0  0  0  0  0  0  0  0  0  0  0  0
   47.0657    0.5966    7.4756 Al  0  0  0  0  0 15  0  0  0  0  0  0
   47.0657    0.5966    7.4756 Al  0  0  0  0  0 15  0  0  0  0  0  0
   47.0657    0.5966    7.4756 Mg  0  0  0  0  0 15  0  0  0  0  0  0
   47.0657    0.5966    7.4756 Mg  0  0  0  0  0 15  0  0  0  0  0  0
   47.0657    0.5966    7.4756 Mg  0  0  0  0  0 15  0  0  0  0  0  0
   46.7483    0.2436    7.5995 H   0  0  0  0  0  0  0  0  0  0  0  0
   46.7423    0.2370    7.6018 H   0  0  0  0  0  0  0  0  0  0  0  0
   46.7451    0.2401    7.6007 H   0  0  0  0  0  0  0  0  0  0  0  0
   46.6372   -0.1106    7.5692 H   0  0  0  0  0  0  0  0  0  0  0  0
   47.6868    1.0620    7.1615 H   0  0  0  0  0  0  0  0  0  0  0  0
   46.7471    0.2422    7.5999 H   0  0  0  0  0  0  0  0  0  0  0  0
   46.7445    0.2393    7.6009 H   0  0  0  0  0  0  0  0  0  0  0  0
   46.7484    0.2437    7.5994 H   0  0  0  0  0  0  0  0  0  0  0  0
   46.7454    0.2403    7.6006 H   0  0  0  0  0  0  0  0  0  0  0  0
   46.7432    0.2379    7.6015 H   0  0  0  0  0  0  0  0  0  0  0  0
   46.7423    0.2370    7.6018 H   0  0  0  0  0  0  0  0  0  0  0  0
   46.7449    0.2398    7.6008 H   0  0  0  0  0  0  0  0  0  0  0  0
   46.7455    0.2405    7.6005 H   0  0  0  0  0  0  0  0  0  0  0  0
   46.7429    0.2375    7.6016 H   0  0  0  0  0  0  0  0  0  0  0  0
   46.7447    0.2396    7.6008 H   0  0  0  0  0  0  0  0  0  0  0  0
   46.7434    0.2382    7.6014 H   0  0  0  0  0  0  0  0  0  0  0  0
   46.7446    0.2395    7.6009 H   0  0  0  0  0  0  0  0  0  0  0  0
   46.7471    0.2423    7.5999 H   0  0  0  0  0  0  0  0  0  0  0  0
   46.6536   -0.1003    7.5603 H   0  0  0  0  0  0  0  0  0  0  0  0
   47.6764    1.0413    7.1627 H   0  0  0  0  0  0  0  0  0  0  0  0
   46.6411   -0.1083    7.5670 H   0  0  0  0  0  0  0  0  0  0  0  0
   47.6837    1.0540    7.1613 H   0  0  0  0  0  0  0  0  0  0  0  0
   46.6357   -0.1092    7.5708 H   0  0  0  0  0  0  0  0  0  0  0  0
   47.6846    1.0593    7.1623 H   0  0  0  0  0  0  0  0  0  0  0  0
  3  2  1  0
  4  2  1  0
  5  2  2  0
  6 33  1  0
  7 34  1  0
  8 35  1  0
 11 36  1  0
 11 37  1  0
 12 38  1  0
 13 39  1  0
 14 40  1  0
 15 41  1  0
 16 42  1  0
 17 43  1  0
 18 44  1  0
 19 45  1  0
 20 46  1  0
 21 47  1  0
 22 48  1  0
 23 49  1  0
 24 50  1  0
 25 51  1  0
 25 52  1  0
 26 53  1  0
 26 54  1  0
 27 55  1  0
 27 56  1  0
M  CHG  8   1   2   3  -1   4  -1   6  -1   7  -1   8  -1   9   2  10   2
M  CHG  8  12  -1  13  -1  14  -1  15  -1  16  -1  17  -1  18  -1  19  -1
M  CHG  8  20  -1  21  -1  22  -1  23  -1  24  -1  28   3  29   3  30   2
M  CHG  2  31   2  32   2
M  END
> <Uni-Dock RESULT> 
ENERGY=  -14.159  LOWER_BOUND=    8.561  UPPER_BOUND=    9.119
INTER + INTRA:         -14.159
INTER:                 -14.159
INTRA:                   0.000
UNBOUND:                 0.000

$$$$

     RDKit          3D

 56 27  0  0  0  0  0  0  0  0999 V2000
   48.1080    2.1742    6.3466 Mg  0  0  0  0  0 15  0  0  0  0  0  0
   48.1049    2.1653    6.3648 C   0  0  0  0  0  0  0  0  0  0  0  0
   48.4531    2.0411    5.0170 O   0  0  0  0  0  0  0  0  0  0  0  0
   47.7788    3.3736    6.9519 O   0  0  0  0  0  0  0  0  0  0  0  0
   48.0952    1.1169    7.0527 O   0  0  0  0  0  0  0  0  0  0  0  0
   48.2429    1.9386    5.9380 O   0  0  0  0  0  0  0  0  0  0  0  0
   48.2454    1.9342    5.9303 O   0  0  0  0  0  0  0  0  0  0  0  0
   48.2442    1.9362    5.9339 O   0  0  0  0  0  0  0  0  0  0  0  0
   48.1080    2.1742    6.3466 Mg  0  0  0  0  0 15  0  0  0  0  0  0
   48.1080    2.1742    6.3466 Mg  0  0  0  0  0 15  0  0  0  0  0  0
   48.1074    1.8486    6.5418 O   0  0  0  0  0  0  0  0  0  0  0  0
   48.2434    1.9377    5.9364 O   0  0  0  0  0  0  0  0  0  0  0  0
   48.2445    1.9357    5.9331 O   0  0  0  0  0  0  0  0  0  0  0  0
   48.2428    1.9387    5.9381 O   0  0  0  0  0  0  0  0  0  0  0  0
   48.2441    1.9364    5.9342 O   0  0  0  0  0  0  0  0  0  0  0  0
   48.2450    1.9348    5.9314 O   0  0  0  0  0  0  0  0  0  0  0  0
   48.2454    1.9342    5.9303 O   0  0  0  0  0  0  0  0  0  0  0  0
   48.2443    1.9361    5.9337 O   0  0  0  0  0  0  0  0  0  0  0  0
   48.2440    1.9365    5.9344 O   0  0  0  0  0  0  0  0  0  0  0  0
   48.2452    1.9345    5.9310 O   0  0  0  0  0  0  0  0  0  0  0  0
   48.2444    1.9359    5.9334 O   0  0  0  0  0  0  0  0  0  0  0  0
   48.2449    1.9350    5.9317 O   0  0  0  0  0  0  0  0  0  0  0  0
   48.2444    1.9358    5.9332 O   0  0  0  0  0  0  0  0  0  0  0  0
   48.2433    1.9377    5.9365 O   0  0  0  0  0  0  0  0  0  0  0  0
   48.1079    1.8355    6.5475 O   0  0  0  0  0  0  0  0  0  0  0  0
   48.1082    1.8425    6.5421 O   0  0  0  0  0  0  0  0  0  0  0  0
   48.1084    1.8487    6.5375 O   0  0  0  0  0  0  0  0  0  0  0  0
   48.1080    2.1742    6.3466 Al  0  0  0  0  0 15  0  0  0  0  0  0
   48.1080    2.1742    6.3466 Al  0  0  0  0  0 15  0  0  0  0  0  0
   48.1080    2.1742    6.3466 Mg  0  0  0  0  0 15  0  0  0  0  0  0
   48.1080    2.1742    6.3466 Mg  0  0  0  0  0 15  0  0  0  0  0  0
   48.1080    2.1742    6.3466 Mg  0  0  0  0  0 15  0  0  0  0  0  0
   47.9732    2.4099    6.7552 H   0  0  0  0  0  0  0  0  0  0  0  0
   47.9706    2.4143    6.7629 H   0  0  0  0  0  0  0  0  0  0  0  0
   47.9718    2.4122    6.7593 H   0  0  0  0  0  0  0  0  0  0  0  0
   47.8849    2.7295    6.9249 H   0  0  0  0  0  0  0  0  0  0  0  0
   48.3317    1.9447    5.5731 H   0  0  0  0  0  0  0  0  0  0  0  0
   47.9726    2.4108    6.7568 H   0  0  0  0  0  0  0  0  0  0  0  0
   47.9715    2.4127    6.7601 H   0  0  0  0  0  0  0  0  0  0  0  0
   47.9732    2.4098    6.7551 H   0  0  0  0  0  0  0  0  0  0  0  0
   47.9719    2.4120    6.7590 H   0  0  0  0  0  0  0  0  0  0  0  0
   47.9710    2.4137    6.7618 H   0  0  0  0  0  0  0  0  0  0  0  0
   47.9706    2.4143    6.7629 H   0  0  0  0  0  0  0  0  0  0  0  0
   47.9717    2.4124    6.7596 H   0  0  0  0  0  0  0  0  0  0  0  0
   47.9720    2.4119    6.7588 H   0  0  0  0  0  0  0  0  0  0  0  0
   47.9708    2.4139    6.7622 H   0  0  0  0  0  0  0  0  0  0  0  0
   47.9716    2.4125    6.7598 H   0  0  0  0  0  0  0  0  0  0  0  0
   47.9711    2.4135    6.7615 H   0  0  0  0  0  0  0  0  0  0  0  0
   47.9716    2.4126    6.7600 H   0  0  0  0  0  0  0  0  0  0  0  0
   47.9727    2.4107    6.7567 H   0  0  0  0  0  0  0  0  0  0  0  0
   47.8904    2.7254    6.9047 H   0  0  0  0  0  0  0  0  0  0  0  0
   48.3257    1.9617    5.5876 H   0  0  0  0  0  0  0  0  0  0  0  0
   47.8862    2.7286    6.9201 H   0  0  0  0  0  0  0  0  0  0  0  0
   48.3296    1.9516    5.5777 H   0  0  0  0  0  0  0  0  0  0  0  0
   47.8848    2.7274    6.9265 H   0  0  0  0  0  0  0  0  0  0  0  0
   48.3307    1.9466    5.5760 H   0  0  0  0  0  0  0  0  0  0  0  0
  3  2  1  0
  4  2  1  0
  5  2  2  0
  6 33  1  0
  7 34  1  0
  8 35  1  0
 11 36  1  0
 11 37  1  0
 12 38  1  0
 13 39  1  0
 14 40  1  0
 15 41  1  0
 16 42  1  0
 17 43  1  0
 18 44  1  0
 19 45  1  0
 20 46  1  0
 21 47  1  0
 22 48  1  0
 23 49  1  0
 24 50  1  0
 25 51  1  0
 25 52  1  0
 26 53  1  0
 26 54  1  0
 27 55  1  0
 27 56  1  0
M  CHG  8   1   2   3  -1   4  -1   6  -1   7  -1   8  -1   9   2  10   2
M  CHG  8  12  -1  13  -1  14  -1  15  -1  16  -1  17  -1  18  -1  19  -1
M  CHG  8  20  -1  21  -1  22  -1  23  -1  24  -1  28   3  29   3  30   2
M  CHG  2  31   2  32   2
M  END
> <Uni-Dock RESULT> 
ENERGY=  -13.424  LOWER_BOUND=    9.182  UPPER_BOUND=    9.550
INTER + INTRA:         -13.424
INTER:                 -13.424
INTRA:                   0.000
UNBOUND:                 0.000

$$$$
