
     RDKit          3D

 56 27  0  0  0  0  0  0  0  0999 V2000
   47.0110    0.6350    7.6545 Mg  0  0  0  0  0 15  0  0  0  0  0  0
   46.9805    0.6462    7.6815 C   0  0  0  0  0  0  0  0  0  0  0  0
   47.9721    1.3043    6.9947 O   0  0  0  0  0  0  0  0  0  0  0  0
   46.8662   -0.7244    7.5185 O   0  0  0  0  0  0  0  0  0  0  0  0
   46.2251    1.3140    8.4235 O   0  0  0  0  0  0  0  0  0  0  0  0
   46.8116    0.1842    7.7241 O   0  0  0  0  0  0  0  0  0  0  0  0
   46.8114    0.1837    7.7242 O   0  0  0  0  0  0  0  0  0  0  0  0
   46.8113    0.1835    7.7242 O   0  0  0  0  0  0  0  0  0  0  0  0
   47.0110    0.6350    7.6545 Mg  0  0  0  0  0 15  0  0  0  0  0  0
   47.0110    0.6350    7.6545 Mg  0  0  0  0  0 15  0  0  0  0  0  0
   46.7622    0.7896    7.8915 O   0  0  0  0  0  0  0  0  0  0  0  0
   46.8126    0.1865    7.7238 O   0  0  0  0  0  0  0  0  0  0  0  0
   46.8119    0.1850    7.7240 O   0  0  0  0  0  0  0  0  0  0  0  0
   46.8122    0.1855    7.7239 O   0  0  0  0  0  0  0  0  0  0  0  0
   46.8122    0.1857    7.7239 O   0  0  0  0  0  0  0  0  0  0  0  0
   46.8140    0.1896    7.7233 O   0  0  0  0  0  0  0  0  0  0  0  0
   46.8131    0.1877    7.7236 O   0  0  0  0  0  0  0  0  0  0  0  0
   46.8146    0.1910    7.7231 O   0  0  0  0  0  0  0  0  0  0  0  0
   46.8141    0.1899    7.7233 O   0  0  0  0  0  0  0  0  0  0  0  0
   46.8130    0.1873    7.7236 O   0  0  0  0  0  0  0  0  0  0  0  0
   46.8121    0.1853    7.7240 O   0  0  0  0  0  0  0  0  0  0  0  0
   46.8112    0.1834    7.7242 O   0  0  0  0  0  0  0  0  0  0  0  0
   46.8145    0.1909    7.7231 O   0  0  0  0  0  0  0  0  0  0  0  0
   46.8110    0.1829    7.7243 O   0  0  0  0  0  0  0  0  0  0  0  0
   46.7621    0.7882    7.8913 O   0  0  0  0  0  0  0  0  0  0  0  0
   46.7625    0.7903    7.8914 O   0  0  0  0  0  0  0  0  0  0  0  0
   46.7521    0.7930    7.9005 O   0  0  0  0  0  0  0  0  0  0  0  0
   47.0110    0.6350    7.6545 Al  0  0  0  0  0 15  0  0  0  0  0  0
   47.0110    0.6350    7.6545 Al  0  0  0  0  0 15  0  0  0  0  0  0
   47.0110    0.6350    7.6545 Mg  0  0  0  0  0 15  0  0  0  0  0  0
   47.0110    0.6350    7.6545 Mg  0  0  0  0  0 15  0  0  0  0  0  0
   47.0110    0.6350    7.6545 Mg  0  0  0  0  0 15  0  0  0  0  0  0
   47.2104    1.0858    7.5850 H   0  0  0  0  0  0  0  0  0  0  0  0
   47.2106    1.0864    7.5849 H   0  0  0  0  0  0  0  0  0  0  0  0
   47.2107    1.0865    7.5848 H   0  0  0  0  0  0  0  0  0  0  0  0
   47.4628    1.2933    7.4208 H   0  0  0  0  0  0  0  0  0  0  0  0
   46.8079   -0.1777    7.6513 H   0  0  0  0  0  0  0  0  0  0  0  0
   47.2094    1.0836    7.5853 H   0  0  0  0  0  0  0  0  0  0  0  0
   47.2100    1.0851    7.5851 H   0  0  0  0  0  0  0  0  0  0  0  0
   47.2098    1.0846    7.5852 H   0  0  0  0  0  0  0  0  0  0  0  0
   47.2097    1.0844    7.5852 H   0  0  0  0  0  0  0  0  0  0  0  0
   47.2080    1.0805    7.5858 H   0  0  0  0  0  0  0  0  0  0  0  0
   47.2088    1.0824    7.5855 H   0  0  0  0  0  0  0  0  0  0  0  0
   47.2074    1.0790    7.5860 H   0  0  0  0  0  0  0  0  0  0  0  0
   47.2079    1.0802    7.5858 H   0  0  0  0  0  0  0  0  0  0  0  0
   47.2090    1.0827    7.5854 H   0  0  0  0  0  0  0  0  0  0  0  0
   47.2099    1.0847    7.5851 H   0  0  0  0  0  0  0  0  0  0  0  0
   47.2107    1.0866    7.5848 H   0  0  0  0  0  0  0  0  0  0  0  0
   47.2074    1.0792    7.5860 H   0  0  0  0  0  0  0  0  0  0  0  0
   47.2110    1.0872    7.5848 H   0  0  0  0  0  0  0  0  0  0  0  0
   46.8072   -0.1798    7.6515 H   0  0  0  0  0  0  0  0  0  0  0  0
   47.4636    1.2967    7.4209 H   0  0  0  0  0  0  0  0  0  0  0  0
   46.8076   -0.1781    7.6515 H   0  0  0  0  0  0  0  0  0  0  0  0
   47.4628    1.2929    7.4207 H   0  0  0  0  0  0  0  0  0  0  0  0
   47.4626    1.2808    7.4184 H   0  0  0  0  0  0  0  0  0  0  0  0
   46.8182   -0.1687    7.6448 H   0  0  0  0  0  0  0  0  0  0  0  0
  3  2  1  0
  4  2  1  0
  5  2  2  0
  6 33  1  0
  7 34  1  0
  8 35  1  0
 11 36  1  0
 11 37  1  0
 12 38  1  0
 13 39  1  0
 14 40  1  0
 15 41  1  0
 16 42  1  0
 17 43  1  0
 18 44  1  0
 19 45  1  0
 20 46  1  0
 21 47  1  0
 22 48  1  0
 23 49  1  0
 24 50  1  0
 25 51  1  0
 25 52  1  0
 26 53  1  0
 26 54  1  0
 27 55  1  0
 27 56  1  0
M  CHG  8   1   2   3  -1   4  -1   6  -1   7  -1   8  -1   9   2  10   2
M  CHG  8  12  -1  13  -1  14  -1  15  -1  16  -1  17  -1  18  -1  19  -1
M  CHG  8  20  -1  21  -1  22  -1  23  -1  24  -1  28   3  29   3  30   2
M  CHG  2  31   2  32   2
M  END
> <Uni-Dock RESULT> 
ENERGY=  -15.785  LOWER_BOUND=    0.000  UPPER_BOUND=    0.000
INTER + INTRA:         -15.785
INTER:                 -15.785
INTRA:                   0.000
UNBOUND:                 0.000

$$$$

     RDKit          3D

 56 27  0  0  0  0  0  0  0  0999 V2000
   46.7818    0.5808    7.7680 Mg  0  0  0  0  0 15  0  0  0  0  0  0
   46.7864    0.5403    7.7571 C   0  0  0  0  0  0  0  0  0  0  0  0
   45.9097    1.2546    8.5379 O   0  0  0  0  0  0  0  0  0  0  0  0
   47.8135    1.2239    7.1280 O   0  0  0  0  0  0  0  0  0  0  0  0
   46.6178   -0.6954    7.6491 O   0  0  0  0  0  0  0  0  0  0  0  0
   47.1808    0.6320    7.4747 O   0  0  0  0  0  0  0  0  0  0  0  0
   47.1813    0.6321    7.4744 O   0  0  0  0  0  0  0  0  0  0  0  0
   47.1815    0.6321    7.4743 O   0  0  0  0  0  0  0  0  0  0  0  0
   46.7818    0.5808    7.7680 Mg  0  0  0  0  0 15  0  0  0  0  0  0
   46.7818    0.5808    7.7680 Mg  0  0  0  0  0 15  0  0  0  0  0  0
   46.7758    0.2092    7.7072 O   0  0  0  0  0  0  0  0  0  0  0  0
   47.1788    0.6317    7.4762 O   0  0  0  0  0  0  0  0  0  0  0  0
   47.1802    0.6319    7.4752 O   0  0  0  0  0  0  0  0  0  0  0  0
   47.1797    0.6319    7.4756 O   0  0  0  0  0  0  0  0  0  0  0  0
   47.1795    0.6318    7.4757 O   0  0  0  0  0  0  0  0  0  0  0  0
   47.1761    0.6314    7.4782 O   0  0  0  0  0  0  0  0  0  0  0  0
   47.1778    0.6316    7.4770 O   0  0  0  0  0  0  0  0  0  0  0  0
   47.1748    0.6312    7.4791 O   0  0  0  0  0  0  0  0  0  0  0  0
   47.1758    0.6314    7.4784 O   0  0  0  0  0  0  0  0  0  0  0  0
   47.1781    0.6316    7.4767 O   0  0  0  0  0  0  0  0  0  0  0  0
   47.1799    0.6319    7.4754 O   0  0  0  0  0  0  0  0  0  0  0  0
   47.1815    0.6321    7.4742 O   0  0  0  0  0  0  0  0  0  0  0  0
   47.1750    0.6312    7.4790 O   0  0  0  0  0  0  0  0  0  0  0  0
   47.1820    0.6321    7.4738 O   0  0  0  0  0  0  0  0  0  0  0  0
   46.7769    0.2099    7.7066 O   0  0  0  0  0  0  0  0  0  0  0  0
   46.7752    0.2090    7.7077 O   0  0  0  0  0  0  0  0  0  0  0  0
   46.7776    0.1958    7.7035 O   0  0  0  0  0  0  0  0  0  0  0  0
   46.7818    0.5808    7.7680 Al  0  0  0  0  0 15  0  0  0  0  0  0
   46.7818    0.5808    7.7680 Al  0  0  0  0  0 15  0  0  0  0  0  0
   46.7818    0.5808    7.7680 Mg  0  0  0  0  0 15  0  0  0  0  0  0
   46.7818    0.5808    7.7680 Mg  0  0  0  0  0 15  0  0  0  0  0  0
   46.7818    0.5808    7.7680 Mg  0  0  0  0  0 15  0  0  0  0  0  0
   46.3829    0.5297    8.0613 H   0  0  0  0  0  0  0  0  0  0  0  0
   46.3824    0.5296    8.0616 H   0  0  0  0  0  0  0  0  0  0  0  0
   46.3822    0.5296    8.0617 H   0  0  0  0  0  0  0  0  0  0  0  0
   46.1330    0.6856    8.2780 H   0  0  0  0  0  0  0  0  0  0  0  0
   47.4367    0.8478    7.3188 H   0  0  0  0  0  0  0  0  0  0  0  0
   46.3849    0.5299    8.0598 H   0  0  0  0  0  0  0  0  0  0  0  0
   46.3835    0.5298    8.0608 H   0  0  0  0  0  0  0  0  0  0  0  0
   46.3840    0.5298    8.0604 H   0  0  0  0  0  0  0  0  0  0  0  0
   46.3841    0.5298    8.0603 H   0  0  0  0  0  0  0  0  0  0  0  0
   46.3876    0.5303    8.0578 H   0  0  0  0  0  0  0  0  0  0  0  0
   46.3859    0.5301    8.0590 H   0  0  0  0  0  0  0  0  0  0  0  0
   46.3889    0.5305    8.0568 H   0  0  0  0  0  0  0  0  0  0  0  0
   46.3878    0.5303    8.0576 H   0  0  0  0  0  0  0  0  0  0  0  0
   46.3856    0.5300    8.0593 H   0  0  0  0  0  0  0  0  0  0  0  0
   46.3838    0.5298    8.0606 H   0  0  0  0  0  0  0  0  0  0  0  0
   46.3821    0.5296    8.0618 H   0  0  0  0  0  0  0  0  0  0  0  0
   46.3887    0.5304    8.0570 H   0  0  0  0  0  0  0  0  0  0  0  0
   46.3817    0.5295    8.0622 H   0  0  0  0  0  0  0  0  0  0  0  0
   47.4384    0.8482    7.3176 H   0  0  0  0  0  0  0  0  0  0  0  0
   46.1303    0.6844    8.2798 H   0  0  0  0  0  0  0  0  0  0  0  0
   47.4371    0.8477    7.3185 H   0  0  0  0  0  0  0  0  0  0  0  0
   46.1332    0.6859    8.2778 H   0  0  0  0  0  0  0  0  0  0  0  0
   46.1418    0.6929    8.2726 H   0  0  0  0  0  0  0  0  0  0  0  0
   47.4261    0.8538    7.3279 H   0  0  0  0  0  0  0  0  0  0  0  0
  3  2  1  0
  4  2  1  0
  5  2  2  0
  6 33  1  0
  7 34  1  0
  8 35  1  0
 11 36  1  0
 11 37  1  0
 12 38  1  0
 13 39  1  0
 14 40  1  0
 15 41  1  0
 16 42  1  0
 17 43  1  0
 18 44  1  0
 19 45  1  0
 20 46  1  0
 21 47  1  0
 22 48  1  0
 23 49  1  0
 24 50  1  0
 25 51  1  0
 25 52  1  0
 26 53  1  0
 26 54  1  0
 27 55  1  0
 27 56  1  0
M  CHG  8   1   2   3  -1   4  -1   6  -1   7  -1   8  -1   9   2  10   2
M  CHG  8  12  -1  13  -1  14  -1  15  -1  16  -1  17  -1  18  -1  19  -1
M  CHG  8  20  -1  21  -1  22  -1  23  -1  24  -1  28   3  29   3  30   2
M  CHG  2  31   2  32   2
M  END
> <Uni-Dock RESULT> 
ENERGY=  -15.200  LOWER_BOUND=    0.460  UPPER_BOUND=    0.878
INTER + INTRA:         -15.200
INTER:                 -15.200
INTRA:                   0.000
UNBOUND:                 0.000

$$$$

     RDKit          3D

 56 27  0  0  0  0  0  0  0  0999 V2000
   42.3042    5.5235   12.0940 Mg  0  0  0  0  0 15  0  0  0  0  0  0
   42.3030    5.4979   12.0604 C   0  0  0  0  0  0  0  0  0  0  0  0
   42.7623    5.3999   13.3518 O   0  0  0  0  0  0  0  0  0  0  0  0
   41.7177    6.6873   11.6593 O   0  0  0  0  0  0  0  0  0  0  0  0
   42.4338    4.5087   11.3045 O   0  0  0  0  0  0  0  0  0  0  0  0
   42.0752    5.8337   11.7791 O   0  0  0  0  0  0  0  0  0  0  0  0
   42.0749    5.8340   11.7787 O   0  0  0  0  0  0  0  0  0  0  0  0
   42.0748    5.8342   11.7786 O   0  0  0  0  0  0  0  0  0  0  0  0
   42.3042    5.5235   12.0940 Mg  0  0  0  0  0 15  0  0  0  0  0  0
   42.3042    5.5235   12.0940 Mg  0  0  0  0  0 15  0  0  0  0  0  0
   42.3235    5.2568   11.8286 O   0  0  0  0  0  0  0  0  0  0  0  0
   42.0763    5.8321   11.7807 O   0  0  0  0  0  0  0  0  0  0  0  0
   42.0756    5.8332   11.7796 O   0  0  0  0  0  0  0  0  0  0  0  0
   42.0758    5.8328   11.7800 O   0  0  0  0  0  0  0  0  0  0  0  0
   42.0759    5.8327   11.7801 O   0  0  0  0  0  0  0  0  0  0  0  0
   42.0779    5.8300   11.7828 O   0  0  0  0  0  0  0  0  0  0  0  0
   42.0769    5.8313   11.7815 O   0  0  0  0  0  0  0  0  0  0  0  0
   42.0786    5.8290   11.7839 O   0  0  0  0  0  0  0  0  0  0  0  0
   42.0780    5.8298   11.7830 O   0  0  0  0  0  0  0  0  0  0  0  0
   42.0768    5.8315   11.7813 O   0  0  0  0  0  0  0  0  0  0  0  0
   42.0757    5.8329   11.7799 O   0  0  0  0  0  0  0  0  0  0  0  0
   42.0748    5.8342   11.7785 O   0  0  0  0  0  0  0  0  0  0  0  0
   42.0786    5.8291   11.7837 O   0  0  0  0  0  0  0  0  0  0  0  0
   42.0745    5.8346   11.7782 O   0  0  0  0  0  0  0  0  0  0  0  0
   42.3229    5.2580   11.8282 O   0  0  0  0  0  0  0  0  0  0  0  0
   42.3239    5.2562   11.8290 O   0  0  0  0  0  0  0  0  0  0  0  0
   42.3231    5.2486   11.8173 O   0  0  0  0  0  0  0  0  0  0  0  0
   42.3042    5.5235   12.0940 Al  0  0  0  0  0 15  0  0  0  0  0  0
   42.3042    5.5235   12.0940 Al  0  0  0  0  0 15  0  0  0  0  0  0
   42.3042    5.5235   12.0940 Mg  0  0  0  0  0 15  0  0  0  0  0  0
   42.3042    5.5235   12.0940 Mg  0  0  0  0  0 15  0  0  0  0  0  0
   42.3042    5.5235   12.0940 Mg  0  0  0  0  0 15  0  0  0  0  0  0
   42.5332    5.2133   12.4088 H   0  0  0  0  0  0  0  0  0  0  0  0
   42.5335    5.2129   12.4092 H   0  0  0  0  0  0  0  0  0  0  0  0
   42.5336    5.2128   12.4093 H   0  0  0  0  0  0  0  0  0  0  0  0
   42.6686    5.1517   12.7428 H   0  0  0  0  0  0  0  0  0  0  0  0
   41.9205    6.1618   11.7104 H   0  0  0  0  0  0  0  0  0  0  0  0
   42.5321    5.2148   12.4072 H   0  0  0  0  0  0  0  0  0  0  0  0
   42.5329    5.2138   12.4083 H   0  0  0  0  0  0  0  0  0  0  0  0
   42.5326    5.2141   12.4079 H   0  0  0  0  0  0  0  0  0  0  0  0
   42.5325    5.2143   12.4078 H   0  0  0  0  0  0  0  0  0  0  0  0
   42.5305    5.2169   12.4051 H   0  0  0  0  0  0  0  0  0  0  0  0
   42.5315    5.2156   12.4064 H   0  0  0  0  0  0  0  0  0  0  0  0
   42.5298    5.2179   12.4041 H   0  0  0  0  0  0  0  0  0  0  0  0
   42.5304    5.2171   12.4049 H   0  0  0  0  0  0  0  0  0  0  0  0
   42.5317    5.2154   12.4067 H   0  0  0  0  0  0  0  0  0  0  0  0
   42.5327    5.2140   12.4081 H   0  0  0  0  0  0  0  0  0  0  0  0
   42.5336    5.2127   12.4094 H   0  0  0  0  0  0  0  0  0  0  0  0
   42.5299    5.2178   12.4042 H   0  0  0  0  0  0  0  0  0  0  0  0
   42.5339    5.2123   12.4098 H   0  0  0  0  0  0  0  0  0  0  0  0
   41.9195    6.1633   11.7092 H   0  0  0  0  0  0  0  0  0  0  0  0
   42.6702    5.1490   12.7444 H   0  0  0  0  0  0  0  0  0  0  0  0
   41.9203    6.1620   11.7100 H   0  0  0  0  0  0  0  0  0  0  0  0
   42.6685    5.1521   12.7429 H   0  0  0  0  0  0  0  0  0  0  0  0
   42.6633    5.1630   12.7404 H   0  0  0  0  0  0  0  0  0  0  0  0
   41.9263    6.1588   11.7242 H   0  0  0  0  0  0  0  0  0  0  0  0
  3  2  1  0
  4  2  1  0
  5  2  2  0
  6 33  1  0
  7 34  1  0
  8 35  1  0
 11 36  1  0
 11 37  1  0
 12 38  1  0
 13 39  1  0
 14 40  1  0
 15 41  1  0
 16 42  1  0
 17 43  1  0
 18 44  1  0
 19 45  1  0
 20 46  1  0
 21 47  1  0
 22 48  1  0
 23 49  1  0
 24 50  1  0
 25 51  1  0
 25 52  1  0
 26 53  1  0
 26 54  1  0
 27 55  1  0
 27 56  1  0
M  CHG  8   1   2   3  -1   4  -1   6  -1   7  -1   8  -1   9   2  10   2
M  CHG  8  12  -1  13  -1  14  -1  15  -1  16  -1  17  -1  18  -1  19  -1
M  CHG  8  20  -1  21  -1  22  -1  23  -1  24  -1  28   3  29   3  30   2
M  CHG  2  31   2  32   2
M  END
> <Uni-Dock RESULT> 
ENERGY=  -12.938  LOWER_BOUND=    7.357  UPPER_BOUND=    8.214
INTER + INTRA:         -12.938
INTER:                 -12.938
INTRA:                   0.000
UNBOUND:                 0.000

$$$$
