
     RDKit          3D

 56 27  0  0  0  0  0  0  0  0999 V2000
   38.7805    4.0292    5.5053 Mg  0  0  0  0  0 15  0  0  0  0  0  0
   38.7827    4.0273    5.5057 C   0  0  0  0  0  0  0  0  0  0  0  0
   38.1253    5.1623    5.0920 O   0  0  0  0  0  0  0  0  0  0  0  0
   38.1962    2.9791    6.1662 O   0  0  0  0  0  0  0  0  0  0  0  0
   40.0179    3.9483    5.2571 O   0  0  0  0  0  0  0  0  0  0  0  0
   38.7930    3.5857    5.7254 O   0  0  0  0  0  0  0  0  0  0  0  0
   38.7929    3.5878    5.7244 O   0  0  0  0  0  0  0  0  0  0  0  0
   38.7929    3.5886    5.7240 O   0  0  0  0  0  0  0  0  0  0  0  0
   38.7805    4.0292    5.5053 Mg  0  0  0  0  0 15  0  0  0  0  0  0
   38.7805    4.0292    5.5053 Mg  0  0  0  0  0 15  0  0  0  0  0  0
   39.1759    4.0020    5.4216 O   0  0  0  0  0  0  0  0  0  0  0  0
   38.7929    3.5879    5.7243 O   0  0  0  0  0  0  0  0  0  0  0  0
   38.7931    3.5826    5.7270 O   0  0  0  0  0  0  0  0  0  0  0  0
   38.7931    3.5827    5.7269 O   0  0  0  0  0  0  0  0  0  0  0  0
   38.7931    3.5825    5.7270 O   0  0  0  0  0  0  0  0  0  0  0  0
   38.7929    3.5898    5.7234 O   0  0  0  0  0  0  0  0  0  0  0  0
   38.7931    3.5817    5.7274 O   0  0  0  0  0  0  0  0  0  0  0  0
   38.7931    3.5822    5.7272 O   0  0  0  0  0  0  0  0  0  0  0  0
   38.7930    3.5837    5.7264 O   0  0  0  0  0  0  0  0  0  0  0  0
   38.7929    3.5902    5.7232 O   0  0  0  0  0  0  0  0  0  0  0  0
   38.7929    3.5902    5.7232 O   0  0  0  0  0  0  0  0  0  0  0  0
   38.7930    3.5852    5.7256 O   0  0  0  0  0  0  0  0  0  0  0  0
   38.7929    3.5876    5.7245 O   0  0  0  0  0  0  0  0  0  0  0  0
   38.7931    3.5821    5.7272 O   0  0  0  0  0  0  0  0  0  0  0  0
   39.1504    4.0074    5.4252 O   0  0  0  0  0  0  0  0  0  0  0  0
   39.1435    4.0046    5.4283 O   0  0  0  0  0  0  0  0  0  0  0  0
   39.1735    4.0032    5.4216 O   0  0  0  0  0  0  0  0  0  0  0  0
   38.7805    4.0292    5.5053 Al  0  0  0  0  0 15  0  0  0  0  0  0
   38.7805    4.0292    5.5053 Al  0  0  0  0  0 15  0  0  0  0  0  0
   38.7805    4.0292    5.5053 Mg  0  0  0  0  0 15  0  0  0  0  0  0
   38.7805    4.0292    5.5053 Mg  0  0  0  0  0 15  0  0  0  0  0  0
   38.7805    4.0292    5.5053 Mg  0  0  0  0  0 15  0  0  0  0  0  0
   38.7681    4.4727    5.2852 H   0  0  0  0  0  0  0  0  0  0  0  0
   38.7681    4.4706    5.2862 H   0  0  0  0  0  0  0  0  0  0  0  0
   38.7682    4.4699    5.2866 H   0  0  0  0  0  0  0  0  0  0  0  0
   38.6037    3.3350    5.8982 H   0  0  0  0  0  0  0  0  0  0  0  0
   38.5620    4.7506    5.1960 H   0  0  0  0  0  0  0  0  0  0  0  0
   38.7681    4.4705    5.2863 H   0  0  0  0  0  0  0  0  0  0  0  0
   38.7680    4.4759    5.2836 H   0  0  0  0  0  0  0  0  0  0  0  0
   38.7680    4.4757    5.2837 H   0  0  0  0  0  0  0  0  0  0  0  0
   38.7680    4.4760    5.2836 H   0  0  0  0  0  0  0  0  0  0  0  0
   38.7682    4.4686    5.2872 H   0  0  0  0  0  0  0  0  0  0  0  0
   38.7680    4.4768    5.2832 H   0  0  0  0  0  0  0  0  0  0  0  0
   38.7680    4.4762    5.2834 H   0  0  0  0  0  0  0  0  0  0  0  0
   38.7680    4.4747    5.2842 H   0  0  0  0  0  0  0  0  0  0  0  0
   38.7682    4.4683    5.2874 H   0  0  0  0  0  0  0  0  0  0  0  0
   38.7682    4.4683    5.2874 H   0  0  0  0  0  0  0  0  0  0  0  0
   38.7681    4.4732    5.2849 H   0  0  0  0  0  0  0  0  0  0  0  0
   38.7681    4.4709    5.2861 H   0  0  0  0  0  0  0  0  0  0  0  0
   38.7680    4.4763    5.2834 H   0  0  0  0  0  0  0  0  0  0  0  0
   38.5728    4.7670    5.1851 H   0  0  0  0  0  0  0  0  0  0  0  0
   38.6184    3.3133    5.9055 H   0  0  0  0  0  0  0  0  0  0  0  0
   38.6207    3.3063    5.9084 H   0  0  0  0  0  0  0  0  0  0  0  0
   38.5774    4.7767    5.1791 H   0  0  0  0  0  0  0  0  0  0  0  0
   38.6054    3.3354    5.8976 H   0  0  0  0  0  0  0  0  0  0  0  0
   38.5627    4.7490    5.1967 H   0  0  0  0  0  0  0  0  0  0  0  0
  3  2  1  0
  4  2  1  0
  5  2  2  0
  6 33  1  0
  7 34  1  0
  8 35  1  0
 11 36  1  0
 11 37  1  0
 12 38  1  0
 13 39  1  0
 14 40  1  0
 15 41  1  0
 16 42  1  0
 17 43  1  0
 18 44  1  0
 19 45  1  0
 20 46  1  0
 21 47  1  0
 22 48  1  0
 23 49  1  0
 24 50  1  0
 25 51  1  0
 25 52  1  0
 26 53  1  0
 26 54  1  0
 27 55  1  0
 27 56  1  0
M  CHG  8   1   2   3  -1   4  -1   6  -1   7  -1   8  -1   9   2  10   2
M  CHG  8  12  -1  13  -1  14  -1  15  -1  16  -1  17  -1  18  -1  19  -1
M  CHG  8  20  -1  21  -1  22  -1  23  -1  24  -1  28   3  29   3  30   2
M  CHG  2  31   2  32   2
M  END
> <Uni-Dock RESULT> 
ENERGY=  -16.266  LOWER_BOUND=    0.000  UPPER_BOUND=    0.000
INTER + INTRA:         -16.266
INTER:                 -16.266
INTRA:                   0.000
UNBOUND:                 0.000

$$$$

     RDKit          3D

 56 27  0  0  0  0  0  0  0  0999 V2000
   47.0062    0.6133    7.6879 Mg  0  0  0  0  0 15  0  0  0  0  0  0
   47.0038    0.6123    7.6894 C   0  0  0  0  0  0  0  0  0  0  0  0
   47.9820    1.4665    7.2364 O   0  0  0  0  0  0  0  0  0  0  0  0
   46.9309   -0.7237    7.3913 O   0  0  0  0  0  0  0  0  0  0  0  0
   46.1081    1.0981    8.4347 O   0  0  0  0  0  0  0  0  0  0  0  0
   46.7933    0.1670    7.7171 O   0  0  0  0  0  0  0  0  0  0  0  0
   46.7943    0.1692    7.7169 O   0  0  0  0  0  0  0  0  0  0  0  0
   46.7946    0.1699    7.7169 O   0  0  0  0  0  0  0  0  0  0  0  0
   47.0062    0.6133    7.6879 Mg  0  0  0  0  0 15  0  0  0  0  0  0
   47.0062    0.6133    7.6879 Mg  0  0  0  0  0 15  0  0  0  0  0  0
   46.7214    0.7683    7.9306 O   0  0  0  0  0  0  0  0  0  0  0  0
   46.7943    0.1693    7.7169 O   0  0  0  0  0  0  0  0  0  0  0  0
   46.7918    0.1639    7.7173 O   0  0  0  0  0  0  0  0  0  0  0  0
   46.7918    0.1641    7.7173 O   0  0  0  0  0  0  0  0  0  0  0  0
   46.7917    0.1638    7.7173 O   0  0  0  0  0  0  0  0  0  0  0  0
   46.7952    0.1712    7.7168 O   0  0  0  0  0  0  0  0  0  0  0  0
   46.7913    0.1630    7.7173 O   0  0  0  0  0  0  0  0  0  0  0  0
   46.7916    0.1635    7.7173 O   0  0  0  0  0  0  0  0  0  0  0  0
   46.7923    0.1651    7.7172 O   0  0  0  0  0  0  0  0  0  0  0  0
   46.7954    0.1715    7.7168 O   0  0  0  0  0  0  0  0  0  0  0  0
   46.7954    0.1715    7.7168 O   0  0  0  0  0  0  0  0  0  0  0  0
   46.7930    0.1666    7.7171 O   0  0  0  0  0  0  0  0  0  0  0  0
   46.7942    0.1689    7.7170 O   0  0  0  0  0  0  0  0  0  0  0  0
   46.7915    0.1634    7.7173 O   0  0  0  0  0  0  0  0  0  0  0  0
   46.7414    0.7619    7.9147 O   0  0  0  0  0  0  0  0  0  0  0  0
   46.7448    0.7559    7.9106 O   0  0  0  0  0  0  0  0  0  0  0  0
   46.7235    0.7684    7.9291 O   0  0  0  0  0  0  0  0  0  0  0  0
   47.0062    0.6133    7.6879 Al  0  0  0  0  0 15  0  0  0  0  0  0
   47.0062    0.6133    7.6879 Al  0  0  0  0  0 15  0  0  0  0  0  0
   47.0062    0.6133    7.6879 Mg  0  0  0  0  0 15  0  0  0  0  0  0
   47.0062    0.6133    7.6879 Mg  0  0  0  0  0 15  0  0  0  0  0  0
   47.0062    0.6133    7.6879 Mg  0  0  0  0  0 15  0  0  0  0  0  0
   47.2192    1.0595    7.6588 H   0  0  0  0  0  0  0  0  0  0  0  0
   47.2181    1.0574    7.6589 H   0  0  0  0  0  0  0  0  0  0  0  0
   47.2178    1.0566    7.6590 H   0  0  0  0  0  0  0  0  0  0  0  0
   46.8081   -0.1759    7.6137 H   0  0  0  0  0  0  0  0  0  0  0  0
   47.4891    1.2475    7.5195 H   0  0  0  0  0  0  0  0  0  0  0  0
   47.2181    1.0573    7.6589 H   0  0  0  0  0  0  0  0  0  0  0  0
   47.2207    1.0627    7.6586 H   0  0  0  0  0  0  0  0  0  0  0  0
   47.2206    1.0625    7.6586 H   0  0  0  0  0  0  0  0  0  0  0  0
   47.2207    1.0628    7.6586 H   0  0  0  0  0  0  0  0  0  0  0  0
   47.2172    1.0554    7.6590 H   0  0  0  0  0  0  0  0  0  0  0  0
   47.2211    1.0636    7.6585 H   0  0  0  0  0  0  0  0  0  0  0  0
   47.2208    1.0630    7.6585 H   0  0  0  0  0  0  0  0  0  0  0  0
   47.2201    1.0615    7.6586 H   0  0  0  0  0  0  0  0  0  0  0  0
   47.2170    1.0550    7.6591 H   0  0  0  0  0  0  0  0  0  0  0  0
   47.2170    1.0550    7.6591 H   0  0  0  0  0  0  0  0  0  0  0  0
   47.2194    1.0600    7.6587 H   0  0  0  0  0  0  0  0  0  0  0  0
   47.2182    1.0576    7.6589 H   0  0  0  0  0  0  0  0  0  0  0  0
   47.2209    1.0631    7.6585 H   0  0  0  0  0  0  0  0  0  0  0  0
   47.4892    1.2692    7.5253 H   0  0  0  0  0  0  0  0  0  0  0  0
   46.7880   -0.1913    7.6237 H   0  0  0  0  0  0  0  0  0  0  0  0
   46.7832   -0.1973    7.6255 H   0  0  0  0  0  0  0  0  0  0  0  0
   47.4905    1.2812    7.5277 H   0  0  0  0  0  0  0  0  0  0  0  0
   46.8072   -0.1747    7.6147 H   0  0  0  0  0  0  0  0  0  0  0  0
   47.4879    1.2462    7.5200 H   0  0  0  0  0  0  0  0  0  0  0  0
  3  2  1  0
  4  2  1  0
  5  2  2  0
  6 33  1  0
  7 34  1  0
  8 35  1  0
 11 36  1  0
 11 37  1  0
 12 38  1  0
 13 39  1  0
 14 40  1  0
 15 41  1  0
 16 42  1  0
 17 43  1  0
 18 44  1  0
 19 45  1  0
 20 46  1  0
 21 47  1  0
 22 48  1  0
 23 49  1  0
 24 50  1  0
 25 51  1  0
 25 52  1  0
 26 53  1  0
 26 54  1  0
 27 55  1  0
 27 56  1  0
M  CHG  8   1   2   3  -1   4  -1   6  -1   7  -1   8  -1   9   2  10   2
M  CHG  8  12  -1  13  -1  14  -1  15  -1  16  -1  17  -1  18  -1  19  -1
M  CHG  8  20  -1  21  -1  22  -1  23  -1  24  -1  28   3  29   3  30   2
M  CHG  2  31   2  32   2
M  END
> <Uni-Dock RESULT> 
ENERGY=  -15.707  LOWER_BOUND=    8.497  UPPER_BOUND=    8.996
INTER + INTRA:         -15.707
INTER:                 -15.707
INTRA:                   0.000
UNBOUND:                 0.000

$$$$

     RDKit          3D

 56 27  0  0  0  0  0  0  0  0999 V2000
   46.9311    0.6392    7.7319 Mg  0  0  0  0  0 15  0  0  0  0  0  0
   46.9288    0.6379    7.7333 C   0  0  0  0  0  0  0  0  0  0  0  0
   47.7677    1.6411    7.3070 O   0  0  0  0  0  0  0  0  0  0  0  0
   47.0824   -0.6912    7.4352 O   0  0  0  0  0  0  0  0  0  0  0  0
   45.9454    0.9693    8.4521 O   0  0  0  0  0  0  0  0  0  0  0  0
   46.7927    0.1643    7.7556 O   0  0  0  0  0  0  0  0  0  0  0  0
   46.7934    0.1666    7.7555 O   0  0  0  0  0  0  0  0  0  0  0  0
   46.7936    0.1673    7.7555 O   0  0  0  0  0  0  0  0  0  0  0  0
   46.9311    0.6392    7.7319 Mg  0  0  0  0  0 15  0  0  0  0  0  0
   46.9311    0.6392    7.7319 Mg  0  0  0  0  0 15  0  0  0  0  0  0
   46.6181    0.7451    7.9661 O   0  0  0  0  0  0  0  0  0  0  0  0
   46.7934    0.1667    7.7555 O   0  0  0  0  0  0  0  0  0  0  0  0
   46.7918    0.1609    7.7558 O   0  0  0  0  0  0  0  0  0  0  0  0
   46.7918    0.1611    7.7558 O   0  0  0  0  0  0  0  0  0  0  0  0
   46.7917    0.1608    7.7558 O   0  0  0  0  0  0  0  0  0  0  0  0
   46.7940    0.1687    7.7554 O   0  0  0  0  0  0  0  0  0  0  0  0
   46.7915    0.1599    7.7558 O   0  0  0  0  0  0  0  0  0  0  0  0
   46.7916    0.1605    7.7558 O   0  0  0  0  0  0  0  0  0  0  0  0
   46.7921    0.1621    7.7557 O   0  0  0  0  0  0  0  0  0  0  0  0
   46.7941    0.1690    7.7554 O   0  0  0  0  0  0  0  0  0  0  0  0
   46.7941    0.1690    7.7554 O   0  0  0  0  0  0  0  0  0  0  0  0
   46.7926    0.1638    7.7557 O   0  0  0  0  0  0  0  0  0  0  0  0
   46.7933    0.1663    7.7555 O   0  0  0  0  0  0  0  0  0  0  0  0
   46.7916    0.1604    7.7558 O   0  0  0  0  0  0  0  0  0  0  0  0
   46.6393    0.7422    7.9509 O   0  0  0  0  0  0  0  0  0  0  0  0
   46.6439    0.7368    7.9469 O   0  0  0  0  0  0  0  0  0  0  0  0
   46.6203    0.7456    7.9647 O   0  0  0  0  0  0  0  0  0  0  0  0
   46.9311    0.6392    7.7319 Al  0  0  0  0  0 15  0  0  0  0  0  0
   46.9311    0.6392    7.7319 Al  0  0  0  0  0 15  0  0  0  0  0  0
   46.9311    0.6392    7.7319 Mg  0  0  0  0  0 15  0  0  0  0  0  0
   46.9311    0.6392    7.7319 Mg  0  0  0  0  0 15  0  0  0  0  0  0
   46.9311    0.6392    7.7319 Mg  0  0  0  0  0 15  0  0  0  0  0  0
   47.0695    1.1142    7.7082 H   0  0  0  0  0  0  0  0  0  0  0  0
   47.0688    1.1119    7.7083 H   0  0  0  0  0  0  0  0  0  0  0  0
   47.0686    1.1112    7.7083 H   0  0  0  0  0  0  0  0  0  0  0  0
   46.8660   -0.1714    7.6532 H   0  0  0  0  0  0  0  0  0  0  0  0
   47.3091    1.3440    7.5763 H   0  0  0  0  0  0  0  0  0  0  0  0
   47.0688    1.1118    7.7083 H   0  0  0  0  0  0  0  0  0  0  0  0
   47.0704    1.1176    7.7080 H   0  0  0  0  0  0  0  0  0  0  0  0
   47.0704    1.1174    7.7080 H   0  0  0  0  0  0  0  0  0  0  0  0
   47.0705    1.1177    7.7080 H   0  0  0  0  0  0  0  0  0  0  0  0
   47.0682    1.1098    7.7084 H   0  0  0  0  0  0  0  0  0  0  0  0
   47.0707    1.1185    7.7079 H   0  0  0  0  0  0  0  0  0  0  0  0
   47.0705    1.1180    7.7080 H   0  0  0  0  0  0  0  0  0  0  0  0
   47.0701    1.1163    7.7080 H   0  0  0  0  0  0  0  0  0  0  0  0
   47.0681    1.1094    7.7084 H   0  0  0  0  0  0  0  0  0  0  0  0
   47.0681    1.1094    7.7084 H   0  0  0  0  0  0  0  0  0  0  0  0
   47.0696    1.1147    7.7081 H   0  0  0  0  0  0  0  0  0  0  0  0
   47.0689    1.1122    7.7083 H   0  0  0  0  0  0  0  0  0  0  0  0
   47.0706    1.1181    7.7080 H   0  0  0  0  0  0  0  0  0  0  0  0
   47.3055    1.3654    7.5821 H   0  0  0  0  0  0  0  0  0  0  0  0
   46.8484   -0.1899    7.6627 H   0  0  0  0  0  0  0  0  0  0  0  0
   46.8446   -0.1966    7.6643 H   0  0  0  0  0  0  0  0  0  0  0  0
   47.3048    1.3775    7.5845 H   0  0  0  0  0  0  0  0  0  0  0  0
   46.8649   -0.1704    7.6542 H   0  0  0  0  0  0  0  0  0  0  0  0
   47.3081    1.3425    7.5768 H   0  0  0  0  0  0  0  0  0  0  0  0
  3  2  1  0
  4  2  1  0
  5  2  2  0
  6 33  1  0
  7 34  1  0
  8 35  1  0
 11 36  1  0
 11 37  1  0
 12 38  1  0
 13 39  1  0
 14 40  1  0
 15 41  1  0
 16 42  1  0
 17 43  1  0
 18 44  1  0
 19 45  1  0
 20 46  1  0
 21 47  1  0
 22 48  1  0
 23 49  1  0
 24 50  1  0
 25 51  1  0
 25 52  1  0
 26 53  1  0
 26 54  1  0
 27 55  1  0
 27 56  1  0
M  CHG  8   1   2   3  -1   4  -1   6  -1   7  -1   8  -1   9   2  10   2
M  CHG  8  12  -1  13  -1  14  -1  15  -1  16  -1  17  -1  18  -1  19  -1
M  CHG  8  20  -1  21  -1  22  -1  23  -1  24  -1  28   3  29   3  30   2
M  CHG  2  31   2  32   2
M  END
> <Uni-Dock RESULT> 
ENERGY=  -15.477  LOWER_BOUND=    8.411  UPPER_BOUND=    8.967
INTER + INTRA:         -15.477
INTER:                 -15.477
INTRA:                   0.000
UNBOUND:                 0.000

$$$$

     RDKit          3D

 56 27  0  0  0  0  0  0  0  0999 V2000
   47.8003    1.8422    7.0617 Mg  0  0  0  0  0 15  0  0  0  0  0  0
   47.8025    1.8404    7.0607 C   0  0  0  0  0  0  0  0  0  0  0  0
   47.0774    2.9811    7.3151 O   0  0  0  0  0  0  0  0  0  0  0  0
   47.4629    0.5841    7.4910 O   0  0  0  0  0  0  0  0  0  0  0  0
   48.8586    1.9632    6.3801 O   0  0  0  0  0  0  0  0  0  0  0  0
   47.8775    1.3544    7.0998 O   0  0  0  0  0  0  0  0  0  0  0  0
   47.8771    1.3568    7.0996 O   0  0  0  0  0  0  0  0  0  0  0  0
   47.8770    1.3576    7.0996 O   0  0  0  0  0  0  0  0  0  0  0  0
   47.8003    1.8422    7.0617 Mg  0  0  0  0  0 15  0  0  0  0  0  0
   47.8003    1.8422    7.0617 Mg  0  0  0  0  0 15  0  0  0  0  0  0
   48.1368    1.8810    6.8397 O   0  0  0  0  0  0  0  0  0  0  0  0
   47.8771    1.3569    7.0996 O   0  0  0  0  0  0  0  0  0  0  0  0
   47.8781    1.3510    7.1001 O   0  0  0  0  0  0  0  0  0  0  0  0
   47.8780    1.3512    7.1001 O   0  0  0  0  0  0  0  0  0  0  0  0
   47.8781    1.3509    7.1001 O   0  0  0  0  0  0  0  0  0  0  0  0
   47.8768    1.3589    7.0994 O   0  0  0  0  0  0  0  0  0  0  0  0
   47.8782    1.3500    7.1001 O   0  0  0  0  0  0  0  0  0  0  0  0
   47.8781    1.3506    7.1001 O   0  0  0  0  0  0  0  0  0  0  0  0
   47.8779    1.3523    7.1000 O   0  0  0  0  0  0  0  0  0  0  0  0
   47.8767    1.3593    7.0994 O   0  0  0  0  0  0  0  0  0  0  0  0
   47.8767    1.3593    7.0994 O   0  0  0  0  0  0  0  0  0  0  0  0
   47.8776    1.3539    7.0998 O   0  0  0  0  0  0  0  0  0  0  0  0
   47.8772    1.3565    7.0996 O   0  0  0  0  0  0  0  0  0  0  0  0
   47.8781    1.3505    7.1001 O   0  0  0  0  0  0  0  0  0  0  0  0
   48.1146    1.8825    6.8536 O   0  0  0  0  0  0  0  0  0  0  0  0
   48.1092    1.8782    6.8579 O   0  0  0  0  0  0  0  0  0  0  0  0
   48.1347    1.8819    6.8409 O   0  0  0  0  0  0  0  0  0  0  0  0
   47.8003    1.8422    7.0617 Al  0  0  0  0  0 15  0  0  0  0  0  0
   47.8003    1.8422    7.0617 Al  0  0  0  0  0 15  0  0  0  0  0  0
   47.8003    1.8422    7.0617 Mg  0  0  0  0  0 15  0  0  0  0  0  0
   47.8003    1.8422    7.0617 Mg  0  0  0  0  0 15  0  0  0  0  0  0
   47.8003    1.8422    7.0617 Mg  0  0  0  0  0 15  0  0  0  0  0  0
   47.7232    2.3299    7.0236 H   0  0  0  0  0  0  0  0  0  0  0  0
   47.7235    2.3276    7.0238 H   0  0  0  0  0  0  0  0  0  0  0  0
   47.7237    2.3268    7.0239 H   0  0  0  0  0  0  0  0  0  0  0  0
   47.7561    1.0445    7.2329 H   0  0  0  0  0  0  0  0  0  0  0  0
   47.5081    2.6010    7.1125 H   0  0  0  0  0  0  0  0  0  0  0  0
   47.7235    2.3275    7.0238 H   0  0  0  0  0  0  0  0  0  0  0  0
   47.7226    2.3334    7.0234 H   0  0  0  0  0  0  0  0  0  0  0  0
   47.7226    2.3332    7.0234 H   0  0  0  0  0  0  0  0  0  0  0  0
   47.7226    2.3335    7.0234 H   0  0  0  0  0  0  0  0  0  0  0  0
   47.7239    2.3254    7.0240 H   0  0  0  0  0  0  0  0  0  0  0  0
   47.7225    2.3344    7.0233 H   0  0  0  0  0  0  0  0  0  0  0  0
   47.7225    2.3338    7.0233 H   0  0  0  0  0  0  0  0  0  0  0  0
   47.7228    2.3321    7.0235 H   0  0  0  0  0  0  0  0  0  0  0  0
   47.7239    2.3250    7.0240 H   0  0  0  0  0  0  0  0  0  0  0  0
   47.7239    2.3250    7.0240 H   0  0  0  0  0  0  0  0  0  0  0  0
   47.7231    2.3304    7.0236 H   0  0  0  0  0  0  0  0  0  0  0  0
   47.7235    2.3279    7.0238 H   0  0  0  0  0  0  0  0  0  0  0  0
   47.7225    2.3339    7.0233 H   0  0  0  0  0  0  0  0  0  0  0  0
   47.5147    2.6210    7.1047 H   0  0  0  0  0  0  0  0  0  0  0  0
   47.7717    1.0230    7.2268 H   0  0  0  0  0  0  0  0  0  0  0  0
   47.7747    1.0158    7.2262 H   0  0  0  0  0  0  0  0  0  0  0  0
   47.5172    2.6325    7.1011 H   0  0  0  0  0  0  0  0  0  0  0  0
   47.7574    1.0453    7.2320 H   0  0  0  0  0  0  0  0  0  0  0  0
   47.5089    2.5994    7.1123 H   0  0  0  0  0  0  0  0  0  0  0  0
  3  2  1  0
  4  2  1  0
  5  2  2  0
  6 33  1  0
  7 34  1  0
  8 35  1  0
 11 36  1  0
 11 37  1  0
 12 38  1  0
 13 39  1  0
 14 40  1  0
 15 41  1  0
 16 42  1  0
 17 43  1  0
 18 44  1  0
 19 45  1  0
 20 46  1  0
 21 47  1  0
 22 48  1  0
 23 49  1  0
 24 50  1  0
 25 51  1  0
 25 52  1  0
 26 53  1  0
 26 54  1  0
 27 55  1  0
 27 56  1  0
M  CHG  8   1   2   3  -1   4  -1   6  -1   7  -1   8  -1   9   2  10   2
M  CHG  8  12  -1  13  -1  14  -1  15  -1  16  -1  17  -1  18  -1  19  -1
M  CHG  8  20  -1  21  -1  22  -1  23  -1  24  -1  28   3  29   3  30   2
M  CHG  2  31   2  32   2
M  END
> <Uni-Dock RESULT> 
ENERGY=  -13.908  LOWER_BOUND=    8.746  UPPER_BOUND=    9.423
INTER + INTRA:         -13.908
INTER:                 -13.908
INTRA:                   0.000
UNBOUND:                 0.000

$$$$
