
     RDKit          3D

 56 27  0  0  0  0  0  0  0  0999 V2000
   38.8082    4.0214    5.4766 Mg  0  0  0  0  0 15  0  0  0  0  0  0
   38.8288    4.0118    5.4791 C   0  0  0  0  0  0  0  0  0  0  0  0
   38.0334    5.0301    4.9806 O   0  0  0  0  0  0  0  0  0  0  0  0
   38.3059    2.9616    6.2173 O   0  0  0  0  0  0  0  0  0  0  0  0
   40.0646    4.0822    5.2293 O   0  0  0  0  0  0  0  0  0  0  0  0
   38.7819    3.5919    5.7235 O   0  0  0  0  0  0  0  0  0  0  0  0
   38.7820    3.5940    5.7223 O   0  0  0  0  0  0  0  0  0  0  0  0
   38.7819    3.5919    5.7235 O   0  0  0  0  0  0  0  0  0  0  0  0
   38.8082    4.0214    5.4766 Mg  0  0  0  0  0 15  0  0  0  0  0  0
   38.8082    4.0214    5.4766 Mg  0  0  0  0  0 15  0  0  0  0  0  0
   39.1947    3.9773    5.4396 O   0  0  0  0  0  0  0  0  0  0  0  0
   38.7820    3.5949    5.7218 O   0  0  0  0  0  0  0  0  0  0  0  0
   38.7819    3.5926    5.7231 O   0  0  0  0  0  0  0  0  0  0  0  0
   38.7820    3.5938    5.7224 O   0  0  0  0  0  0  0  0  0  0  0  0
   38.7819    3.5919    5.7235 O   0  0  0  0  0  0  0  0  0  0  0  0
   38.7817    3.5886    5.7254 O   0  0  0  0  0  0  0  0  0  0  0  0
   38.7822    3.5968    5.7207 O   0  0  0  0  0  0  0  0  0  0  0  0
   38.7817    3.5888    5.7253 O   0  0  0  0  0  0  0  0  0  0  0  0
   38.7821    3.5953    5.7216 O   0  0  0  0  0  0  0  0  0  0  0  0
   38.7817    3.5894    5.7249 O   0  0  0  0  0  0  0  0  0  0  0  0
   38.7821    3.5959    5.7212 O   0  0  0  0  0  0  0  0  0  0  0  0
   38.7821    3.5958    5.7213 O   0  0  0  0  0  0  0  0  0  0  0  0
   38.7820    3.5940    5.7223 O   0  0  0  0  0  0  0  0  0  0  0  0
   38.7820    3.5940    5.7223 O   0  0  0  0  0  0  0  0  0  0  0  0
   39.1734    3.9856    5.4383 O   0  0  0  0  0  0  0  0  0  0  0  0
   39.1958    3.9849    5.4351 O   0  0  0  0  0  0  0  0  0  0  0  0
   39.1927    3.9805    5.4381 O   0  0  0  0  0  0  0  0  0  0  0  0
   38.8082    4.0214    5.4766 Al  0  0  0  0  0 15  0  0  0  0  0  0
   38.8082    4.0214    5.4766 Al  0  0  0  0  0 15  0  0  0  0  0  0
   38.8082    4.0214    5.4766 Mg  0  0  0  0  0 15  0  0  0  0  0  0
   38.8082    4.0214    5.4766 Mg  0  0  0  0  0 15  0  0  0  0  0  0
   38.8082    4.0214    5.4766 Mg  0  0  0  0  0 15  0  0  0  0  0  0
   38.8345    4.4510    5.2297 H   0  0  0  0  0  0  0  0  0  0  0  0
   38.8343    4.4489    5.2309 H   0  0  0  0  0  0  0  0  0  0  0  0
   38.8345    4.4510    5.2297 H   0  0  0  0  0  0  0  0  0  0  0  0
   38.5728    3.3527    5.8922 H   0  0  0  0  0  0  0  0  0  0  0  0
   38.6570    4.7344    5.0980 H   0  0  0  0  0  0  0  0  0  0  0  0
   38.8343    4.4480    5.2314 H   0  0  0  0  0  0  0  0  0  0  0  0
   38.8344    4.4502    5.2301 H   0  0  0  0  0  0  0  0  0  0  0  0
   38.8343    4.4490    5.2308 H   0  0  0  0  0  0  0  0  0  0  0  0
   38.8345    4.4510    5.2297 H   0  0  0  0  0  0  0  0  0  0  0  0
   38.8347    4.4543    5.2278 H   0  0  0  0  0  0  0  0  0  0  0  0
   38.8342    4.4461    5.2325 H   0  0  0  0  0  0  0  0  0  0  0  0
   38.8346    4.4541    5.2279 H   0  0  0  0  0  0  0  0  0  0  0  0
   38.8343    4.4476    5.2316 H   0  0  0  0  0  0  0  0  0  0  0  0
   38.8346    4.4534    5.2283 H   0  0  0  0  0  0  0  0  0  0  0  0
   38.8342    4.4470    5.2320 H   0  0  0  0  0  0  0  0  0  0  0  0
   38.8342    4.4470    5.2319 H   0  0  0  0  0  0  0  0  0  0  0  0
   38.8343    4.4489    5.2309 H   0  0  0  0  0  0  0  0  0  0  0  0
   38.8343    4.4489    5.2309 H   0  0  0  0  0  0  0  0  0  0  0  0
   38.6664    4.7487    5.0884 H   0  0  0  0  0  0  0  0  0  0  0  0
   38.5847    3.3300    5.9031 H   0  0  0  0  0  0  0  0  0  0  0  0
   38.6531    4.7303    5.1010 H   0  0  0  0  0  0  0  0  0  0  0  0
   38.5757    3.3490    5.8938 H   0  0  0  0  0  0  0  0  0  0  0  0
   38.5752    3.3551    5.8904 H   0  0  0  0  0  0  0  0  0  0  0  0
   38.6564    4.7287    5.1013 H   0  0  0  0  0  0  0  0  0  0  0  0
  3  2  1  0
  4  2  1  0
  5  2  2  0
  6 33  1  0
  7 34  1  0
  8 35  1  0
 11 36  1  0
 11 37  1  0
 12 38  1  0
 13 39  1  0
 14 40  1  0
 15 41  1  0
 16 42  1  0
 17 43  1  0
 18 44  1  0
 19 45  1  0
 20 46  1  0
 21 47  1  0
 22 48  1  0
 23 49  1  0
 24 50  1  0
 25 51  1  0
 25 52  1  0
 26 53  1  0
 26 54  1  0
 27 55  1  0
 27 56  1  0
M  CHG  8   1   2   3  -1   4  -1   6  -1   7  -1   8  -1   9   2  10   2
M  CHG  8  12  -1  13  -1  14  -1  15  -1  16  -1  17  -1  18  -1  19  -1
M  CHG  8  20  -1  21  -1  22  -1  23  -1  24  -1  28   3  29   3  30   2
M  CHG  2  31   2  32   2
M  END
> <Uni-Dock RESULT> 
ENERGY=  -16.358  LOWER_BOUND=    0.000  UPPER_BOUND=    0.000
INTER + INTRA:         -16.358
INTER:                 -16.358
INTRA:                   0.000
UNBOUND:                 0.000

$$$$

     RDKit          3D

 56 27  0  0  0  0  0  0  0  0999 V2000
   46.8359    0.6398    7.7908 Mg  0  0  0  0  0 15  0  0  0  0  0  0
   46.8537    0.6354    7.7769 C   0  0  0  0  0  0  0  0  0  0  0  0
   46.0784    1.5404    8.4826 O   0  0  0  0  0  0  0  0  0  0  0  0
   46.5870   -0.7248    7.7809 O   0  0  0  0  0  0  0  0  0  0  0  0
   47.8247    1.1081    7.1226 O   0  0  0  0  0  0  0  0  0  0  0  0
   46.8647    0.1580    7.6756 O   0  0  0  0  0  0  0  0  0  0  0  0
   46.8645    0.1604    7.6761 O   0  0  0  0  0  0  0  0  0  0  0  0
   46.8647    0.1580    7.6756 O   0  0  0  0  0  0  0  0  0  0  0  0
   46.8359    0.6398    7.7908 Mg  0  0  0  0  0 15  0  0  0  0  0  0
   46.8359    0.6398    7.7908 Mg  0  0  0  0  0 15  0  0  0  0  0  0
   47.1491    0.7123    7.5685 O   0  0  0  0  0  0  0  0  0  0  0  0
   46.8645    0.1614    7.6764 O   0  0  0  0  0  0  0  0  0  0  0  0
   46.8646    0.1588    7.6758 O   0  0  0  0  0  0  0  0  0  0  0  0
   46.8646    0.1602    7.6761 O   0  0  0  0  0  0  0  0  0  0  0  0
   46.8647    0.1580    7.6756 O   0  0  0  0  0  0  0  0  0  0  0  0
   46.8649    0.1543    7.6747 O   0  0  0  0  0  0  0  0  0  0  0  0
   46.8644    0.1635    7.6769 O   0  0  0  0  0  0  0  0  0  0  0  0
   46.8649    0.1546    7.6747 O   0  0  0  0  0  0  0  0  0  0  0  0
   46.8645    0.1619    7.6765 O   0  0  0  0  0  0  0  0  0  0  0  0
   46.8649    0.1553    7.6749 O   0  0  0  0  0  0  0  0  0  0  0  0
   46.8644    0.1625    7.6766 O   0  0  0  0  0  0  0  0  0  0  0  0
   46.8644    0.1624    7.6766 O   0  0  0  0  0  0  0  0  0  0  0  0
   46.8645    0.1604    7.6761 O   0  0  0  0  0  0  0  0  0  0  0  0
   46.8645    0.1604    7.6761 O   0  0  0  0  0  0  0  0  0  0  0  0
   47.1311    0.7148    7.5825 O   0  0  0  0  0  0  0  0  0  0  0  0
   47.1490    0.7211    7.5702 O   0  0  0  0  0  0  0  0  0  0  0  0
   47.1471    0.7152    7.5705 O   0  0  0  0  0  0  0  0  0  0  0  0
   46.8359    0.6398    7.7908 Al  0  0  0  0  0 15  0  0  0  0  0  0
   46.8359    0.6398    7.7908 Al  0  0  0  0  0 15  0  0  0  0  0  0
   46.8359    0.6398    7.7908 Mg  0  0  0  0  0 15  0  0  0  0  0  0
   46.8359    0.6398    7.7908 Mg  0  0  0  0  0 15  0  0  0  0  0  0
   46.8359    0.6398    7.7908 Mg  0  0  0  0  0 15  0  0  0  0  0  0
   46.8072    1.1215    7.9060 H   0  0  0  0  0  0  0  0  0  0  0  0
   46.8073    1.1191    7.9054 H   0  0  0  0  0  0  0  0  0  0  0  0
   46.8072    1.1215    7.9060 H   0  0  0  0  0  0  0  0  0  0  0  0
   46.7258   -0.1713    7.7165 H   0  0  0  0  0  0  0  0  0  0  0  0
   46.6330    1.3782    8.0873 H   0  0  0  0  0  0  0  0  0  0  0  0
   46.8074    1.1181    7.9052 H   0  0  0  0  0  0  0  0  0  0  0  0
   46.8073    1.1207    7.9058 H   0  0  0  0  0  0  0  0  0  0  0  0
   46.8073    1.1193    7.9054 H   0  0  0  0  0  0  0  0  0  0  0  0
   46.8072    1.1215    7.9060 H   0  0  0  0  0  0  0  0  0  0  0  0
   46.8070    1.1252    7.9069 H   0  0  0  0  0  0  0  0  0  0  0  0
   46.8075    1.1160    7.9047 H   0  0  0  0  0  0  0  0  0  0  0  0
   46.8070    1.1249    7.9068 H   0  0  0  0  0  0  0  0  0  0  0  0
   46.8074    1.1176    7.9051 H   0  0  0  0  0  0  0  0  0  0  0  0
   46.8070    1.1243    7.9066 H   0  0  0  0  0  0  0  0  0  0  0  0
   46.8075    1.1170    7.9049 H   0  0  0  0  0  0  0  0  0  0  0  0
   46.8075    1.1171    7.9049 H   0  0  0  0  0  0  0  0  0  0  0  0
   46.8073    1.1191    7.9054 H   0  0  0  0  0  0  0  0  0  0  0  0
   46.8073    1.1191    7.9054 H   0  0  0  0  0  0  0  0  0  0  0  0
   46.6389    1.3970    8.0865 H   0  0  0  0  0  0  0  0  0  0  0  0
   46.7378   -0.1925    7.7033 H   0  0  0  0  0  0  0  0  0  0  0  0
   46.6303    1.3725    8.0882 H   0  0  0  0  0  0  0  0  0  0  0  0
   46.7285   -0.1744    7.7139 H   0  0  0  0  0  0  0  0  0  0  0  0
   46.7274   -0.1678    7.7159 H   0  0  0  0  0  0  0  0  0  0  0  0
   46.6332    1.3719    8.0859 H   0  0  0  0  0  0  0  0  0  0  0  0
  3  2  1  0
  4  2  1  0
  5  2  2  0
  6 33  1  0
  7 34  1  0
  8 35  1  0
 11 36  1  0
 11 37  1  0
 12 38  1  0
 13 39  1  0
 14 40  1  0
 15 41  1  0
 16 42  1  0
 17 43  1  0
 18 44  1  0
 19 45  1  0
 20 46  1  0
 21 47  1  0
 22 48  1  0
 23 49  1  0
 24 50  1  0
 25 51  1  0
 25 52  1  0
 26 53  1  0
 26 54  1  0
 27 55  1  0
 27 56  1  0
M  CHG  8   1   2   3  -1   4  -1   6  -1   7  -1   8  -1   9   2  10   2
M  CHG  8  12  -1  13  -1  14  -1  15  -1  16  -1  17  -1  18  -1  19  -1
M  CHG  8  20  -1  21  -1  22  -1  23  -1  24  -1  28   3  29   3  30   2
M  CHG  2  31   2  32   2
M  END
> <Uni-Dock RESULT> 
ENERGY=  -15.962  LOWER_BOUND=    8.438  UPPER_BOUND=    8.990
INTER + INTRA:         -15.962
INTER:                 -15.962
INTRA:                   0.000
UNBOUND:                 0.000

$$$$

     RDKit          3D

 56 27  0  0  0  0  0  0  0  0999 V2000
   47.9526    1.9084    6.8983 Mg  0  0  0  0  0 15  0  0  0  0  0  0
   47.9639    1.8951    6.8834 C   0  0  0  0  0  0  0  0  0  0  0  0
   47.4834    3.1400    7.2543 O   0  0  0  0  0  0  0  0  0  0  0  0
   47.7641    0.7656    7.6616 O   0  0  0  0  0  0  0  0  0  0  0  0
   48.5990    1.8329    5.7938 O   0  0  0  0  0  0  0  0  0  0  0  0
   47.9517    1.4326    7.0391 O   0  0  0  0  0  0  0  0  0  0  0  0
   47.9517    1.4350    7.0384 O   0  0  0  0  0  0  0  0  0  0  0  0
   47.9517    1.4326    7.0391 O   0  0  0  0  0  0  0  0  0  0  0  0
   47.9526    1.9084    6.8983 Mg  0  0  0  0  0 15  0  0  0  0  0  0
   47.9526    1.9084    6.8983 Mg  0  0  0  0  0 15  0  0  0  0  0  0
   48.1558    1.8140    6.5781 O   0  0  0  0  0  0  0  0  0  0  0  0
   47.9517    1.4360    7.0381 O   0  0  0  0  0  0  0  0  0  0  0  0
   47.9517    1.4335    7.0389 O   0  0  0  0  0  0  0  0  0  0  0  0
   47.9517    1.4348    7.0385 O   0  0  0  0  0  0  0  0  0  0  0  0
   47.9517    1.4326    7.0391 O   0  0  0  0  0  0  0  0  0  0  0  0
   47.9517    1.4290    7.0402 O   0  0  0  0  0  0  0  0  0  0  0  0
   47.9517    1.4381    7.0375 O   0  0  0  0  0  0  0  0  0  0  0  0
   47.9517    1.4293    7.0401 O   0  0  0  0  0  0  0  0  0  0  0  0
   47.9517    1.4365    7.0380 O   0  0  0  0  0  0  0  0  0  0  0  0
   47.9517    1.4299    7.0399 O   0  0  0  0  0  0  0  0  0  0  0  0
   47.9517    1.4371    7.0378 O   0  0  0  0  0  0  0  0  0  0  0  0
   47.9517    1.4370    7.0378 O   0  0  0  0  0  0  0  0  0  0  0  0
   47.9517    1.4350    7.0384 O   0  0  0  0  0  0  0  0  0  0  0  0
   47.9517    1.4350    7.0384 O   0  0  0  0  0  0  0  0  0  0  0  0
   48.1444    1.8257    6.5941 O   0  0  0  0  0  0  0  0  0  0  0  0
   48.1561    1.8224    6.5751 O   0  0  0  0  0  0  0  0  0  0  0  0
   48.1547    1.8178    6.5789 O   0  0  0  0  0  0  0  0  0  0  0  0
   47.9526    1.9084    6.8983 Al  0  0  0  0  0 15  0  0  0  0  0  0
   47.9526    1.9084    6.8983 Al  0  0  0  0  0 15  0  0  0  0  0  0
   47.9526    1.9084    6.8983 Mg  0  0  0  0  0 15  0  0  0  0  0  0
   47.9526    1.9084    6.8983 Mg  0  0  0  0  0 15  0  0  0  0  0  0
   47.9526    1.9084    6.8983 Mg  0  0  0  0  0 15  0  0  0  0  0  0
   47.9535    2.3842    6.7574 H   0  0  0  0  0  0  0  0  0  0  0  0
   47.9535    2.3818    6.7581 H   0  0  0  0  0  0  0  0  0  0  0  0
   47.9535    2.3842    6.7574 H   0  0  0  0  0  0  0  0  0  0  0  0
   47.8497    1.1905    7.2847 H   0  0  0  0  0  0  0  0  0  0  0  0
   47.8524    2.7208    6.8320 H   0  0  0  0  0  0  0  0  0  0  0  0
   47.9535    2.3809    6.7584 H   0  0  0  0  0  0  0  0  0  0  0  0
   47.9535    2.3834    6.7577 H   0  0  0  0  0  0  0  0  0  0  0  0
   47.9535    2.3820    6.7581 H   0  0  0  0  0  0  0  0  0  0  0  0
   47.9535    2.3842    6.7574 H   0  0  0  0  0  0  0  0  0  0  0  0
   47.9535    2.3879    6.7563 H   0  0  0  0  0  0  0  0  0  0  0  0
   47.9535    2.3787    6.7590 H   0  0  0  0  0  0  0  0  0  0  0  0
   47.9535    2.3876    6.7564 H   0  0  0  0  0  0  0  0  0  0  0  0
   47.9535    2.3804    6.7586 H   0  0  0  0  0  0  0  0  0  0  0  0
   47.9535    2.3869    6.7566 H   0  0  0  0  0  0  0  0  0  0  0  0
   47.9535    2.3797    6.7588 H   0  0  0  0  0  0  0  0  0  0  0  0
   47.9535    2.3798    6.7587 H   0  0  0  0  0  0  0  0  0  0  0  0
   47.9535    2.3818    6.7581 H   0  0  0  0  0  0  0  0  0  0  0  0
   47.9535    2.3818    6.7581 H   0  0  0  0  0  0  0  0  0  0  0  0
   47.8569    2.7357    6.8200 H   0  0  0  0  0  0  0  0  0  0  0  0
   47.8565    1.1638    7.2807 H   0  0  0  0  0  0  0  0  0  0  0  0
   47.8504    2.7167    6.8365 H   0  0  0  0  0  0  0  0  0  0  0  0
   47.8513    1.1861    7.2832 H   0  0  0  0  0  0  0  0  0  0  0  0
   47.8509    1.1929    7.2819 H   0  0  0  0  0  0  0  0  0  0  0  0
   47.8523    2.7146    6.8340 H   0  0  0  0  0  0  0  0  0  0  0  0
  3  2  1  0
  4  2  1  0
  5  2  2  0
  6 33  1  0
  7 34  1  0
  8 35  1  0
 11 36  1  0
 11 37  1  0
 12 38  1  0
 13 39  1  0
 14 40  1  0
 15 41  1  0
 16 42  1  0
 17 43  1  0
 18 44  1  0
 19 45  1  0
 20 46  1  0
 21 47  1  0
 22 48  1  0
 23 49  1  0
 24 50  1  0
 25 51  1  0
 25 52  1  0
 26 53  1  0
 26 54  1  0
 27 55  1  0
 27 56  1  0
M  CHG  8   1   2   3  -1   4  -1   6  -1   7  -1   8  -1   9   2  10   2
M  CHG  8  12  -1  13  -1  14  -1  15  -1  16  -1  17  -1  18  -1  19  -1
M  CHG  8  20  -1  21  -1  22  -1  23  -1  24  -1  28   3  29   3  30   2
M  CHG  2  31   2  32   2
M  END
> <Uni-Dock RESULT> 
ENERGY=  -13.911  LOWER_BOUND=    9.010  UPPER_BOUND=    9.481
INTER + INTRA:         -13.911
INTER:                 -13.911
INTRA:                   0.000
UNBOUND:                 0.000

$$$$
