
     RDKit          3D

 56 27  0  0  0  0  0  0  0  0999 V2000
   38.7880    4.0345    5.5182 Mg  0  0  0  0  0 15  0  0  0  0  0  0
   38.8128    4.0373    5.5107 C   0  0  0  0  0  0  0  0  0  0  0  0
   38.2164    3.0043    6.2089 O   0  0  0  0  0  0  0  0  0  0  0  0
   38.0824    5.1298    5.0969 O   0  0  0  0  0  0  0  0  0  0  0  0
   40.0405    3.9666    5.2562 O   0  0  0  0  0  0  0  0  0  0  0  0
   38.7918    3.5796    5.7219 O   0  0  0  0  0  0  0  0  0  0  0  0
   38.7917    3.5856    5.7192 O   0  0  0  0  0  0  0  0  0  0  0  0
   38.7917    3.5869    5.7186 O   0  0  0  0  0  0  0  0  0  0  0  0
   38.7880    4.0345    5.5182 Mg  0  0  0  0  0 15  0  0  0  0  0  0
   38.7880    4.0345    5.5182 Mg  0  0  0  0  0 15  0  0  0  0  0  0
   39.1496    4.0011    5.4263 O   0  0  0  0  0  0  0  0  0  0  0  0
   38.7917    3.5871    5.7186 O   0  0  0  0  0  0  0  0  0  0  0  0
   38.7918    3.5796    5.7219 O   0  0  0  0  0  0  0  0  0  0  0  0
   38.7918    3.5845    5.7197 O   0  0  0  0  0  0  0  0  0  0  0  0
   38.7917    3.5866    5.7188 O   0  0  0  0  0  0  0  0  0  0  0  0
   38.7917    3.5866    5.7188 O   0  0  0  0  0  0  0  0  0  0  0  0
   38.7918    3.5843    5.7198 O   0  0  0  0  0  0  0  0  0  0  0  0
   38.7918    3.5792    5.7221 O   0  0  0  0  0  0  0  0  0  0  0  0
   38.7918    3.5808    5.7214 O   0  0  0  0  0  0  0  0  0  0  0  0
   38.7918    3.5823    5.7207 O   0  0  0  0  0  0  0  0  0  0  0  0
   38.7918    3.5783    5.7225 O   0  0  0  0  0  0  0  0  0  0  0  0
   38.7917    3.5867    5.7187 O   0  0  0  0  0  0  0  0  0  0  0  0
   38.7917    3.5861    5.7190 O   0  0  0  0  0  0  0  0  0  0  0  0
   38.7918    3.5828    5.7205 O   0  0  0  0  0  0  0  0  0  0  0  0
   39.1531    3.9974    5.4269 O   0  0  0  0  0  0  0  0  0  0  0  0
   39.1615    3.9962    5.4250 O   0  0  0  0  0  0  0  0  0  0  0  0
   39.1490    4.0046    5.4249 O   0  0  0  0  0  0  0  0  0  0  0  0
   38.7880    4.0345    5.5182 Al  0  0  0  0  0 15  0  0  0  0  0  0
   38.7880    4.0345    5.5182 Al  0  0  0  0  0 15  0  0  0  0  0  0
   38.7880    4.0345    5.5182 Mg  0  0  0  0  0 15  0  0  0  0  0  0
   38.7880    4.0345    5.5182 Mg  0  0  0  0  0 15  0  0  0  0  0  0
   38.7880    4.0345    5.5182 Mg  0  0  0  0  0 15  0  0  0  0  0  0
   38.7842    4.4893    5.3145 H   0  0  0  0  0  0  0  0  0  0  0  0
   38.7842    4.4833    5.3172 H   0  0  0  0  0  0  0  0  0  0  0  0
   38.7843    4.4820    5.3178 H   0  0  0  0  0  0  0  0  0  0  0  0
   38.6148    3.3117    5.8949 H   0  0  0  0  0  0  0  0  0  0  0  0
   38.5995    4.7906    5.2334 H   0  0  0  0  0  0  0  0  0  0  0  0
   38.7843    4.4818    5.3178 H   0  0  0  0  0  0  0  0  0  0  0  0
   38.7842    4.4893    5.3145 H   0  0  0  0  0  0  0  0  0  0  0  0
   38.7842    4.4845    5.3167 H   0  0  0  0  0  0  0  0  0  0  0  0
   38.7842    4.4824    5.3176 H   0  0  0  0  0  0  0  0  0  0  0  0
   38.7842    4.4824    5.3176 H   0  0  0  0  0  0  0  0  0  0  0  0
   38.7842    4.4847    5.3166 H   0  0  0  0  0  0  0  0  0  0  0  0
   38.7842    4.4898    5.3143 H   0  0  0  0  0  0  0  0  0  0  0  0
   38.7842    4.4881    5.3150 H   0  0  0  0  0  0  0  0  0  0  0  0
   38.7842    4.4867    5.3157 H   0  0  0  0  0  0  0  0  0  0  0  0
   38.7842    4.4907    5.3139 H   0  0  0  0  0  0  0  0  0  0  0  0
   38.7842    4.4822    5.3177 H   0  0  0  0  0  0  0  0  0  0  0  0
   38.7842    4.4829    5.3174 H   0  0  0  0  0  0  0  0  0  0  0  0
   38.7842    4.4861    5.3159 H   0  0  0  0  0  0  0  0  0  0  0  0
   38.5990    4.7858    5.2357 H   0  0  0  0  0  0  0  0  0  0  0  0
   38.6118    3.3202    5.8919 H   0  0  0  0  0  0  0  0  0  0  0  0
   38.5951    4.7837    5.2378 H   0  0  0  0  0  0  0  0  0  0  0  0
   38.6075    3.3236    5.8917 H   0  0  0  0  0  0  0  0  0  0  0  0
   38.6164    3.3041    5.8978 H   0  0  0  0  0  0  0  0  0  0  0  0
   38.5986    4.7948    5.2318 H   0  0  0  0  0  0  0  0  0  0  0  0
  3  2  1  0
  4  2  1  0
  5  2  2  0
  6 33  1  0
  7 34  1  0
  8 35  1  0
 11 36  1  0
 11 37  1  0
 12 38  1  0
 13 39  1  0
 14 40  1  0
 15 41  1  0
 16 42  1  0
 17 43  1  0
 18 44  1  0
 19 45  1  0
 20 46  1  0
 21 47  1  0
 22 48  1  0
 23 49  1  0
 24 50  1  0
 25 51  1  0
 25 52  1  0
 26 53  1  0
 26 54  1  0
 27 55  1  0
 27 56  1  0
M  CHG  8   1   2   3  -1   4  -1   6  -1   7  -1   8  -1   9   2  10   2
M  CHG  8  12  -1  13  -1  14  -1  15  -1  16  -1  17  -1  18  -1  19  -1
M  CHG  8  20  -1  21  -1  22  -1  23  -1  24  -1  28   3  29   3  30   2
M  CHG  2  31   2  32   2
M  END
> <Uni-Dock RESULT> 
ENERGY=  -16.319  LOWER_BOUND=    0.000  UPPER_BOUND=    0.000
INTER + INTRA:         -16.319
INTER:                 -16.319
INTRA:                   0.000
UNBOUND:                 0.000

$$$$

     RDKit          3D

 56 27  0  0  0  0  0  0  0  0999 V2000
   47.0006    0.6088    7.6530 Mg  0  0  0  0  0 15  0  0  0  0  0  0
   46.9863    0.6240    7.6687 C   0  0  0  0  0  0  0  0  0  0  0  0
   46.8526   -0.7236    7.3927 O   0  0  0  0  0  0  0  0  0  0  0  0
   47.9896    1.3712    7.0912 O   0  0  0  0  0  0  0  0  0  0  0  0
   46.1740    1.1637    8.4597 O   0  0  0  0  0  0  0  0  0  0  0  0
   46.7974    0.1605    7.7312 O   0  0  0  0  0  0  0  0  0  0  0  0
   46.8001    0.1664    7.7301 O   0  0  0  0  0  0  0  0  0  0  0  0
   46.8007    0.1677    7.7299 O   0  0  0  0  0  0  0  0  0  0  0  0
   47.0006    0.6088    7.6530 Mg  0  0  0  0  0 15  0  0  0  0  0  0
   47.0006    0.6088    7.6530 Mg  0  0  0  0  0 15  0  0  0  0  0  0
   46.7694    0.7623    7.9047 O   0  0  0  0  0  0  0  0  0  0  0  0
   46.8008    0.1679    7.7299 O   0  0  0  0  0  0  0  0  0  0  0  0
   46.7974    0.1605    7.7312 O   0  0  0  0  0  0  0  0  0  0  0  0
   46.7996    0.1653    7.7303 O   0  0  0  0  0  0  0  0  0  0  0  0
   46.8005    0.1673    7.7300 O   0  0  0  0  0  0  0  0  0  0  0  0
   46.8005    0.1673    7.7300 O   0  0  0  0  0  0  0  0  0  0  0  0
   46.7995    0.1651    7.7304 O   0  0  0  0  0  0  0  0  0  0  0  0
   46.7972    0.1600    7.7312 O   0  0  0  0  0  0  0  0  0  0  0  0
   46.7979    0.1617    7.7310 O   0  0  0  0  0  0  0  0  0  0  0  0
   46.7986    0.1631    7.7307 O   0  0  0  0  0  0  0  0  0  0  0  0
   46.7968    0.1591    7.7314 O   0  0  0  0  0  0  0  0  0  0  0  0
   46.8006    0.1675    7.7299 O   0  0  0  0  0  0  0  0  0  0  0  0
   46.8003    0.1669    7.7301 O   0  0  0  0  0  0  0  0  0  0  0  0
   46.7988    0.1636    7.7306 O   0  0  0  0  0  0  0  0  0  0  0  0
   46.7657    0.7605    7.9077 O   0  0  0  0  0  0  0  0  0  0  0  0
   46.7602    0.7635    7.9136 O   0  0  0  0  0  0  0  0  0  0  0  0
   46.7714    0.7654    7.9037 O   0  0  0  0  0  0  0  0  0  0  0  0
   47.0006    0.6088    7.6530 Al  0  0  0  0  0 15  0  0  0  0  0  0
   47.0006    0.6088    7.6530 Al  0  0  0  0  0 15  0  0  0  0  0  0
   47.0006    0.6088    7.6530 Mg  0  0  0  0  0 15  0  0  0  0  0  0
   47.0006    0.6088    7.6530 Mg  0  0  0  0  0 15  0  0  0  0  0  0
   47.0006    0.6088    7.6530 Mg  0  0  0  0  0 15  0  0  0  0  0  0
   47.2039    1.0571    7.5749 H   0  0  0  0  0  0  0  0  0  0  0  0
   47.2012    1.0512    7.5759 H   0  0  0  0  0  0  0  0  0  0  0  0
   47.2006    1.0499    7.5762 H   0  0  0  0  0  0  0  0  0  0  0  0
   46.7850   -0.1961    7.6552 H   0  0  0  0  0  0  0  0  0  0  0  0
   47.4475    1.2601    7.3992 H   0  0  0  0  0  0  0  0  0  0  0  0
   47.2005    1.0498    7.5762 H   0  0  0  0  0  0  0  0  0  0  0  0
   47.2039    1.0571    7.5749 H   0  0  0  0  0  0  0  0  0  0  0  0
   47.2017    1.0524    7.5757 H   0  0  0  0  0  0  0  0  0  0  0  0
   47.2008    1.0503    7.5761 H   0  0  0  0  0  0  0  0  0  0  0  0
   47.2008    1.0503    7.5761 H   0  0  0  0  0  0  0  0  0  0  0  0
   47.2018    1.0525    7.5757 H   0  0  0  0  0  0  0  0  0  0  0  0
   47.2041    1.0576    7.5748 H   0  0  0  0  0  0  0  0  0  0  0  0
   47.2034    1.0560    7.5751 H   0  0  0  0  0  0  0  0  0  0  0  0
   47.2027    1.0545    7.5754 H   0  0  0  0  0  0  0  0  0  0  0  0
   47.2045    1.0585    7.5747 H   0  0  0  0  0  0  0  0  0  0  0  0
   47.2007    1.0501    7.5761 H   0  0  0  0  0  0  0  0  0  0  0  0
   47.2010    1.0507    7.5760 H   0  0  0  0  0  0  0  0  0  0  0  0
   47.2025    1.0540    7.5755 H   0  0  0  0  0  0  0  0  0  0  0  0
   47.4457    1.2551    7.3996 H   0  0  0  0  0  0  0  0  0  0  0  0
   46.7905   -0.1892    7.6518 H   0  0  0  0  0  0  0  0  0  0  0  0
   47.4471    1.2510    7.3973 H   0  0  0  0  0  0  0  0  0  0  0  0
   46.7946   -0.1880    7.6482 H   0  0  0  0  0  0  0  0  0  0  0  0
   46.7807   -0.2027    7.6576 H   0  0  0  0  0  0  0  0  0  0  0  0
   47.4499    1.2638    7.3979 H   0  0  0  0  0  0  0  0  0  0  0  0
  3  2  1  0
  4  2  1  0
  5  2  2  0
  6 33  1  0
  7 34  1  0
  8 35  1  0
 11 36  1  0
 11 37  1  0
 12 38  1  0
 13 39  1  0
 14 40  1  0
 15 41  1  0
 16 42  1  0
 17 43  1  0
 18 44  1  0
 19 45  1  0
 20 46  1  0
 21 47  1  0
 22 48  1  0
 23 49  1  0
 24 50  1  0
 25 51  1  0
 25 52  1  0
 26 53  1  0
 26 54  1  0
 27 55  1  0
 27 56  1  0
M  CHG  8   1   2   3  -1   4  -1   6  -1   7  -1   8  -1   9   2  10   2
M  CHG  8  12  -1  13  -1  14  -1  15  -1  16  -1  17  -1  18  -1  19  -1
M  CHG  8  20  -1  21  -1  22  -1  23  -1  24  -1  28   3  29   3  30   2
M  CHG  2  31   2  32   2
M  END
> <Uni-Dock RESULT> 
ENERGY=  -15.826  LOWER_BOUND=    8.524  UPPER_BOUND=    8.998
INTER + INTRA:         -15.826
INTER:                 -15.826
INTRA:                   0.000
UNBOUND:                 0.000

$$$$

     RDKit          3D

 56 27  0  0  0  0  0  0  0  0999 V2000
   46.9628    0.5436    7.6824 Mg  0  0  0  0  0 15  0  0  0  0  0  0
   46.9642    0.5186    7.6749 C   0  0  0  0  0  0  0  0  0  0  0  0
   46.0541    1.1354    8.5125 O   0  0  0  0  0  0  0  0  0  0  0  0
   47.9893    1.2312    7.0919 O   0  0  0  0  0  0  0  0  0  0  0  0
   46.8437   -0.7110    7.4501 O   0  0  0  0  0  0  0  0  0  0  0  0
   46.5437    0.5476    7.9522 O   0  0  0  0  0  0  0  0  0  0  0  0
   46.5493    0.5475    7.9486 O   0  0  0  0  0  0  0  0  0  0  0  0
   46.5505    0.5475    7.9478 O   0  0  0  0  0  0  0  0  0  0  0  0
   46.9628    0.5436    7.6824 Mg  0  0  0  0  0 15  0  0  0  0  0  0
   46.9628    0.5436    7.6824 Mg  0  0  0  0  0 15  0  0  0  0  0  0
   46.9123    0.1813    7.6013 O   0  0  0  0  0  0  0  0  0  0  0  0
   46.5506    0.5475    7.9477 O   0  0  0  0  0  0  0  0  0  0  0  0
   46.5437    0.5476    7.9522 O   0  0  0  0  0  0  0  0  0  0  0  0
   46.5482    0.5475    7.9493 O   0  0  0  0  0  0  0  0  0  0  0  0
   46.5501    0.5475    7.9480 O   0  0  0  0  0  0  0  0  0  0  0  0
   46.5501    0.5475    7.9480 O   0  0  0  0  0  0  0  0  0  0  0  0
   46.5480    0.5475    7.9494 O   0  0  0  0  0  0  0  0  0  0  0  0
   46.5433    0.5476    7.9524 O   0  0  0  0  0  0  0  0  0  0  0  0
   46.5448    0.5475    7.9514 O   0  0  0  0  0  0  0  0  0  0  0  0
   46.5462    0.5475    7.9506 O   0  0  0  0  0  0  0  0  0  0  0  0
   46.5425    0.5476    7.9530 O   0  0  0  0  0  0  0  0  0  0  0  0
   46.5503    0.5475    7.9479 O   0  0  0  0  0  0  0  0  0  0  0  0
   46.5497    0.5475    7.9483 O   0  0  0  0  0  0  0  0  0  0  0  0
   46.5467    0.5475    7.9503 O   0  0  0  0  0  0  0  0  0  0  0  0
   46.9088    0.1779    7.6025 O   0  0  0  0  0  0  0  0  0  0  0  0
   46.9072    0.1696    7.6009 O   0  0  0  0  0  0  0  0  0  0  0  0
   46.9156    0.1819    7.5994 O   0  0  0  0  0  0  0  0  0  0  0  0
   46.9628    0.5436    7.6824 Al  0  0  0  0  0 15  0  0  0  0  0  0
   46.9628    0.5436    7.6824 Al  0  0  0  0  0 15  0  0  0  0  0  0
   46.9628    0.5436    7.6824 Mg  0  0  0  0  0 15  0  0  0  0  0  0
   46.9628    0.5436    7.6824 Mg  0  0  0  0  0 15  0  0  0  0  0  0
   46.9628    0.5436    7.6824 Mg  0  0  0  0  0 15  0  0  0  0  0  0
   47.3818    0.5396    7.4126 H   0  0  0  0  0  0  0  0  0  0  0  0
   47.3763    0.5397    7.4161 H   0  0  0  0  0  0  0  0  0  0  0  0
   47.3751    0.5397    7.4169 H   0  0  0  0  0  0  0  0  0  0  0  0
   46.3067    0.7297    8.1611 H   0  0  0  0  0  0  0  0  0  0  0  0
   47.6693    0.7197    7.2847 H   0  0  0  0  0  0  0  0  0  0  0  0
   47.3749    0.5397    7.4170 H   0  0  0  0  0  0  0  0  0  0  0  0
   47.3818    0.5396    7.4126 H   0  0  0  0  0  0  0  0  0  0  0  0
   47.3774    0.5397    7.4154 H   0  0  0  0  0  0  0  0  0  0  0  0
   47.3754    0.5397    7.4167 H   0  0  0  0  0  0  0  0  0  0  0  0
   47.3754    0.5397    7.4167 H   0  0  0  0  0  0  0  0  0  0  0  0
   47.3775    0.5397    7.4153 H   0  0  0  0  0  0  0  0  0  0  0  0
   47.3822    0.5396    7.4123 H   0  0  0  0  0  0  0  0  0  0  0  0
   47.3807    0.5396    7.4133 H   0  0  0  0  0  0  0  0  0  0  0  0
   47.3794    0.5397    7.4141 H   0  0  0  0  0  0  0  0  0  0  0  0
   47.3831    0.5396    7.4117 H   0  0  0  0  0  0  0  0  0  0  0  0
   47.3753    0.5397    7.4168 H   0  0  0  0  0  0  0  0  0  0  0  0
   47.3759    0.5397    7.4164 H   0  0  0  0  0  0  0  0  0  0  0  0
   47.3789    0.5397    7.4144 H   0  0  0  0  0  0  0  0  0  0  0  0
   47.6649    0.7204    7.2877 H   0  0  0  0  0  0  0  0  0  0  0  0
   46.3147    0.7325    8.1569 H   0  0  0  0  0  0  0  0  0  0  0  0
   47.6632    0.7243    7.2900 H   0  0  0  0  0  0  0  0  0  0  0  0
   46.3181    0.7369    8.1560 H   0  0  0  0  0  0  0  0  0  0  0  0
   46.2996    0.7282    8.1652 H   0  0  0  0  0  0  0  0  0  0  0  0
   47.6732    0.7206    7.2824 H   0  0  0  0  0  0  0  0  0  0  0  0
  3  2  1  0
  4  2  1  0
  5  2  2  0
  6 33  1  0
  7 34  1  0
  8 35  1  0
 11 36  1  0
 11 37  1  0
 12 38  1  0
 13 39  1  0
 14 40  1  0
 15 41  1  0
 16 42  1  0
 17 43  1  0
 18 44  1  0
 19 45  1  0
 20 46  1  0
 21 47  1  0
 22 48  1  0
 23 49  1  0
 24 50  1  0
 25 51  1  0
 25 52  1  0
 26 53  1  0
 26 54  1  0
 27 55  1  0
 27 56  1  0
M  CHG  8   1   2   3  -1   4  -1   6  -1   7  -1   8  -1   9   2  10   2
M  CHG  8  12  -1  13  -1  14  -1  15  -1  16  -1  17  -1  18  -1  19  -1
M  CHG  8  20  -1  21  -1  22  -1  23  -1  24  -1  28   3  29   3  30   2
M  CHG  2  31   2  32   2
M  END
> <Uni-Dock RESULT> 
ENERGY=  -14.755  LOWER_BOUND=    8.469  UPPER_BOUND=    8.876
INTER + INTRA:         -14.755
INTER:                 -14.755
INTRA:                   0.000
UNBOUND:                 0.000

$$$$

     RDKit          3D

 56 27  0  0  0  0  0  0  0  0999 V2000
   47.0914    0.6211    7.5202 Mg  0  0  0  0  0 15  0  0  0  0  0  0
   47.0751    0.6332    7.5366 C   0  0  0  0  0  0  0  0  0  0  0  0
   48.1318    1.1474    6.8091 O   0  0  0  0  0  0  0  0  0  0  0  0
   46.7433   -0.7019    7.4606 O   0  0  0  0  0  0  0  0  0  0  0  0
   46.4153    1.4058    8.2747 O   0  0  0  0  0  0  0  0  0  0  0  0
   47.3663    1.0000    7.3490 O   0  0  0  0  0  0  0  0  0  0  0  0
   47.3626    0.9950    7.3513 O   0  0  0  0  0  0  0  0  0  0  0  0
   47.3618    0.9939    7.3518 O   0  0  0  0  0  0  0  0  0  0  0  0
   47.0914    0.6211    7.5202 Mg  0  0  0  0  0 15  0  0  0  0  0  0
   47.0914    0.6211    7.5202 Mg  0  0  0  0  0 15  0  0  0  0  0  0
   46.8841    0.8578    7.7237 O   0  0  0  0  0  0  0  0  0  0  0  0
   47.3617    0.9938    7.3518 O   0  0  0  0  0  0  0  0  0  0  0  0
   47.3663    1.0000    7.3490 O   0  0  0  0  0  0  0  0  0  0  0  0
   47.3633    0.9960    7.3508 O   0  0  0  0  0  0  0  0  0  0  0  0
   47.3621    0.9942    7.3516 O   0  0  0  0  0  0  0  0  0  0  0  0
   47.3621    0.9942    7.3516 O   0  0  0  0  0  0  0  0  0  0  0  0
   47.3634    0.9961    7.3508 O   0  0  0  0  0  0  0  0  0  0  0  0
   47.3665    1.0004    7.3489 O   0  0  0  0  0  0  0  0  0  0  0  0
   47.3655    0.9990    7.3495 O   0  0  0  0  0  0  0  0  0  0  0  0
   47.3647    0.9978    7.3500 O   0  0  0  0  0  0  0  0  0  0  0  0
   47.3671    1.0011    7.3485 O   0  0  0  0  0  0  0  0  0  0  0  0
   47.3620    0.9941    7.3517 O   0  0  0  0  0  0  0  0  0  0  0  0
   47.3623    0.9946    7.3515 O   0  0  0  0  0  0  0  0  0  0  0  0
   47.3643    0.9973    7.3502 O   0  0  0  0  0  0  0  0  0  0  0  0
   46.8842    0.8628    7.7244 O   0  0  0  0  0  0  0  0  0  0  0  0
   46.8797    0.8686    7.7289 O   0  0  0  0  0  0  0  0  0  0  0  0
   46.8824    0.8545    7.7247 O   0  0  0  0  0  0  0  0  0  0  0  0
   47.0914    0.6211    7.5202 Al  0  0  0  0  0 15  0  0  0  0  0  0
   47.0914    0.6211    7.5202 Al  0  0  0  0  0 15  0  0  0  0  0  0
   47.0914    0.6211    7.5202 Mg  0  0  0  0  0 15  0  0  0  0  0  0
   47.0914    0.6211    7.5202 Mg  0  0  0  0  0 15  0  0  0  0  0  0
   47.0914    0.6211    7.5202 Mg  0  0  0  0  0 15  0  0  0  0  0  0
   46.8165    0.2423    7.6915 H   0  0  0  0  0  0  0  0  0  0  0  0
   46.8202    0.2473    7.6892 H   0  0  0  0  0  0  0  0  0  0  0  0
   46.8209    0.2483    7.6887 H   0  0  0  0  0  0  0  0  0  0  0  0
   47.6410    1.1196    7.1410 H   0  0  0  0  0  0  0  0  0  0  0  0
   46.7491   -0.1139    7.6960 H   0  0  0  0  0  0  0  0  0  0  0  0
   46.8210    0.2485    7.6886 H   0  0  0  0  0  0  0  0  0  0  0  0
   46.8165    0.2423    7.6915 H   0  0  0  0  0  0  0  0  0  0  0  0
   46.8194    0.2463    7.6896 H   0  0  0  0  0  0  0  0  0  0  0  0
   46.8207    0.2480    7.6888 H   0  0  0  0  0  0  0  0  0  0  0  0
   46.8207    0.2480    7.6888 H   0  0  0  0  0  0  0  0  0  0  0  0
   46.8193    0.2461    7.6897 H   0  0  0  0  0  0  0  0  0  0  0  0
   46.8162    0.2419    7.6916 H   0  0  0  0  0  0  0  0  0  0  0  0
   46.8172    0.2433    7.6910 H   0  0  0  0  0  0  0  0  0  0  0  0
   46.8181    0.2445    7.6905 H   0  0  0  0  0  0  0  0  0  0  0  0
   46.8157    0.2411    7.6920 H   0  0  0  0  0  0  0  0  0  0  0  0
   46.8208    0.2482    7.6888 H   0  0  0  0  0  0  0  0  0  0  0  0
   46.8204    0.2477    7.6890 H   0  0  0  0  0  0  0  0  0  0  0  0
   46.8185    0.2449    7.6903 H   0  0  0  0  0  0  0  0  0  0  0  0
   46.7523   -0.1103    7.6939 H   0  0  0  0  0  0  0  0  0  0  0  0
   47.6377    1.1108    7.1425 H   0  0  0  0  0  0  0  0  0  0  0  0
   46.7561   -0.1108    7.6907 H   0  0  0  0  0  0  0  0  0  0  0  0
   47.6383    1.1054    7.1412 H   0  0  0  0  0  0  0  0  0  0  0  0
   47.6446    1.1268    7.1391 H   0  0  0  0  0  0  0  0  0  0  0  0
   46.7471   -0.1179    7.6971 H   0  0  0  0  0  0  0  0  0  0  0  0
  3  2  1  0
  4  2  1  0
  5  2  2  0
  6 33  1  0
  7 34  1  0
  8 35  1  0
 11 36  1  0
 11 37  1  0
 12 38  1  0
 13 39  1  0
 14 40  1  0
 15 41  1  0
 16 42  1  0
 17 43  1  0
 18 44  1  0
 19 45  1  0
 20 46  1  0
 21 47  1  0
 22 48  1  0
 23 49  1  0
 24 50  1  0
 25 51  1  0
 25 52  1  0
 26 53  1  0
 26 54  1  0
 27 55  1  0
 27 56  1  0
M  CHG  8   1   2   3  -1   4  -1   6  -1   7  -1   8  -1   9   2  10   2
M  CHG  8  12  -1  13  -1  14  -1  15  -1  16  -1  17  -1  18  -1  19  -1
M  CHG  8  20  -1  21  -1  22  -1  23  -1  24  -1  28   3  29   3  30   2
M  CHG  2  31   2  32   2
M  END
> <Uni-Dock RESULT> 
ENERGY=  -14.114  LOWER_BOUND=    8.597  UPPER_BOUND=    9.115
INTER + INTRA:         -14.114
INTER:                 -14.114
INTRA:                   0.000
UNBOUND:                 0.000

$$$$
