
     RDKit          3D

 56 27  0  0  0  0  0  0  0  0999 V2000
   38.8081    4.0251    5.4926 Mg  0  0  0  0  0 15  0  0  0  0  0  0
   38.8355    4.0247    5.4869 C   0  0  0  0  0  0  0  0  0  0  0  0
   38.0911    5.1047    5.0984 O   0  0  0  0  0  0  0  0  0  0  0  0
   38.2515    2.9748    6.1454 O   0  0  0  0  0  0  0  0  0  0  0  0
   40.0541    3.9960    5.2397 O   0  0  0  0  0  0  0  0  0  0  0  0
   38.7847    3.5875    5.7281 O   0  0  0  0  0  0  0  0  0  0  0  0
   38.7849    3.5911    5.7262 O   0  0  0  0  0  0  0  0  0  0  0  0
   38.7850    3.5937    5.7247 O   0  0  0  0  0  0  0  0  0  0  0  0
   38.8081    4.0251    5.4926 Mg  0  0  0  0  0 15  0  0  0  0  0  0
   38.8081    4.0251    5.4926 Mg  0  0  0  0  0 15  0  0  0  0  0  0
   39.1639    3.9781    5.4392 O   0  0  0  0  0  0  0  0  0  0  0  0
   38.7848    3.5893    5.7271 O   0  0  0  0  0  0  0  0  0  0  0  0
   38.7850    3.5924    5.7255 O   0  0  0  0  0  0  0  0  0  0  0  0
   38.7847    3.5870    5.7283 O   0  0  0  0  0  0  0  0  0  0  0  0
   38.7847    3.5883    5.7276 O   0  0  0  0  0  0  0  0  0  0  0  0
   38.7850    3.5934    5.7249 O   0  0  0  0  0  0  0  0  0  0  0  0
   38.7850    3.5937    5.7247 O   0  0  0  0  0  0  0  0  0  0  0  0
   38.7847    3.5874    5.7282 O   0  0  0  0  0  0  0  0  0  0  0  0
   38.7847    3.5883    5.7276 O   0  0  0  0  0  0  0  0  0  0  0  0
   38.7850    3.5922    5.7255 O   0  0  0  0  0  0  0  0  0  0  0  0
   38.7847    3.5883    5.7276 O   0  0  0  0  0  0  0  0  0  0  0  0
   38.7850    3.5929    5.7252 O   0  0  0  0  0  0  0  0  0  0  0  0
   38.7846    3.5861    5.7289 O   0  0  0  0  0  0  0  0  0  0  0  0
   38.7846    3.5861    5.7288 O   0  0  0  0  0  0  0  0  0  0  0  0
   39.1994    3.9727    5.4342 O   0  0  0  0  0  0  0  0  0  0  0  0
   39.1817    3.9761    5.4363 O   0  0  0  0  0  0  0  0  0  0  0  0
   39.1873    3.9792    5.4334 O   0  0  0  0  0  0  0  0  0  0  0  0
   38.8081    4.0251    5.4926 Al  0  0  0  0  0 15  0  0  0  0  0  0
   38.8081    4.0251    5.4926 Al  0  0  0  0  0 15  0  0  0  0  0  0
   38.8081    4.0251    5.4926 Mg  0  0  0  0  0 15  0  0  0  0  0  0
   38.8081    4.0251    5.4926 Mg  0  0  0  0  0 15  0  0  0  0  0  0
   38.8081    4.0251    5.4926 Mg  0  0  0  0  0 15  0  0  0  0  0  0
   38.8314    4.4627    5.2571 H   0  0  0  0  0  0  0  0  0  0  0  0
   38.8312    4.4591    5.2590 H   0  0  0  0  0  0  0  0  0  0  0  0
   38.8311    4.4564    5.2604 H   0  0  0  0  0  0  0  0  0  0  0  0
   38.5916    3.3226    5.9099 H   0  0  0  0  0  0  0  0  0  0  0  0
   38.6687    4.7744    5.1287 H   0  0  0  0  0  0  0  0  0  0  0  0
   38.8313    4.4608    5.2581 H   0  0  0  0  0  0  0  0  0  0  0  0
   38.8312    4.4577    5.2597 H   0  0  0  0  0  0  0  0  0  0  0  0
   38.8315    4.4631    5.2568 H   0  0  0  0  0  0  0  0  0  0  0  0
   38.8314    4.4618    5.2575 H   0  0  0  0  0  0  0  0  0  0  0  0
   38.8311    4.4567    5.2603 H   0  0  0  0  0  0  0  0  0  0  0  0
   38.8311    4.4564    5.2604 H   0  0  0  0  0  0  0  0  0  0  0  0
   38.8314    4.4627    5.2570 H   0  0  0  0  0  0  0  0  0  0  0  0
   38.8314    4.4618    5.2575 H   0  0  0  0  0  0  0  0  0  0  0  0
   38.8312    4.4579    5.2596 H   0  0  0  0  0  0  0  0  0  0  0  0
   38.8314    4.4618    5.2575 H   0  0  0  0  0  0  0  0  0  0  0  0
   38.8311    4.4572    5.2600 H   0  0  0  0  0  0  0  0  0  0  0  0
   38.8315    4.4641    5.2563 H   0  0  0  0  0  0  0  0  0  0  0  0
   38.8315    4.4640    5.2564 H   0  0  0  0  0  0  0  0  0  0  0  0
   38.6499    4.7549    5.1431 H   0  0  0  0  0  0  0  0  0  0  0  0
   38.5749    3.3475    5.9005 H   0  0  0  0  0  0  0  0  0  0  0  0
   38.5840    3.3438    5.9004 H   0  0  0  0  0  0  0  0  0  0  0  0
   38.6586    4.7552    5.1410 H   0  0  0  0  0  0  0  0  0  0  0  0
   38.5829    3.3457    5.8997 H   0  0  0  0  0  0  0  0  0  0  0  0
   38.6540    4.7503    5.1446 H   0  0  0  0  0  0  0  0  0  0  0  0
  3  2  1  0
  4  2  1  0
  5  2  2  0
  6 33  1  0
  7 34  1  0
  8 35  1  0
 11 36  1  0
 11 37  1  0
 12 38  1  0
 13 39  1  0
 14 40  1  0
 15 41  1  0
 16 42  1  0
 17 43  1  0
 18 44  1  0
 19 45  1  0
 20 46  1  0
 21 47  1  0
 22 48  1  0
 23 49  1  0
 24 50  1  0
 25 51  1  0
 25 52  1  0
 26 53  1  0
 26 54  1  0
 27 55  1  0
 27 56  1  0
M  CHG  8   1   2   3  -1   4  -1   6  -1   7  -1   8  -1   9   2  10   2
M  CHG  8  12  -1  13  -1  14  -1  15  -1  16  -1  17  -1  18  -1  19  -1
M  CHG  8  20  -1  21  -1  22  -1  23  -1  24  -1  28   3  29   3  30   2
M  CHG  2  31   2  32   2
M  END
> <Uni-Dock RESULT> 
ENERGY=  -16.359  LOWER_BOUND=    0.000  UPPER_BOUND=    0.000
INTER + INTRA:         -16.359
INTER:                 -16.359
INTRA:                   0.000
UNBOUND:                 0.000

$$$$

     RDKit          3D

 56 27  0  0  0  0  0  0  0  0999 V2000
   47.0017    0.6038    7.6906 Mg  0  0  0  0  0 15  0  0  0  0  0  0
   46.9834    0.6172    7.7071 C   0  0  0  0  0  0  0  0  0  0  0  0
   48.0117    1.3279    7.1512 O   0  0  0  0  0  0  0  0  0  0  0  0
   46.8517   -0.7250    7.4655 O   0  0  0  0  0  0  0  0  0  0  0  0
   46.1603    1.1953    8.4387 O   0  0  0  0  0  0  0  0  0  0  0  0
   46.7960    0.1515    7.7152 O   0  0  0  0  0  0  0  0  0  0  0  0
   46.7977    0.1553    7.7150 O   0  0  0  0  0  0  0  0  0  0  0  0
   46.7989    0.1580    7.7148 O   0  0  0  0  0  0  0  0  0  0  0  0
   47.0017    0.6038    7.6906 Mg  0  0  0  0  0 15  0  0  0  0  0  0
   47.0017    0.6038    7.6906 Mg  0  0  0  0  0 15  0  0  0  0  0  0
   46.7428    0.7343    7.9088 O   0  0  0  0  0  0  0  0  0  0  0  0
   46.7969    0.1534    7.7151 O   0  0  0  0  0  0  0  0  0  0  0  0
   46.7983    0.1566    7.7149 O   0  0  0  0  0  0  0  0  0  0  0  0
   46.7958    0.1511    7.7152 O   0  0  0  0  0  0  0  0  0  0  0  0
   46.7964    0.1524    7.7152 O   0  0  0  0  0  0  0  0  0  0  0  0
   46.7988    0.1577    7.7149 O   0  0  0  0  0  0  0  0  0  0  0  0
   46.7989    0.1580    7.7148 O   0  0  0  0  0  0  0  0  0  0  0  0
   46.7960    0.1514    7.7152 O   0  0  0  0  0  0  0  0  0  0  0  0
   46.7964    0.1524    7.7152 O   0  0  0  0  0  0  0  0  0  0  0  0
   46.7982    0.1564    7.7149 O   0  0  0  0  0  0  0  0  0  0  0  0
   46.7964    0.1524    7.7152 O   0  0  0  0  0  0  0  0  0  0  0  0
   46.7986    0.1572    7.7149 O   0  0  0  0  0  0  0  0  0  0  0  0
   46.7953    0.1501    7.7153 O   0  0  0  0  0  0  0  0  0  0  0  0
   46.7954    0.1502    7.7153 O   0  0  0  0  0  0  0  0  0  0  0  0
   46.7166    0.7466    7.9307 O   0  0  0  0  0  0  0  0  0  0  0  0
   46.7300    0.7411    7.9197 O   0  0  0  0  0  0  0  0  0  0  0  0
   46.7279    0.7471    7.9228 O   0  0  0  0  0  0  0  0  0  0  0  0
   47.0017    0.6038    7.6906 Al  0  0  0  0  0 15  0  0  0  0  0  0
   47.0017    0.6038    7.6906 Al  0  0  0  0  0 15  0  0  0  0  0  0
   47.0017    0.6038    7.6906 Mg  0  0  0  0  0 15  0  0  0  0  0  0
   47.0017    0.6038    7.6906 Mg  0  0  0  0  0 15  0  0  0  0  0  0
   47.0017    0.6038    7.6906 Mg  0  0  0  0  0 15  0  0  0  0  0  0
   47.2075    1.0561    7.6660 H   0  0  0  0  0  0  0  0  0  0  0  0
   47.2058    1.0524    7.6662 H   0  0  0  0  0  0  0  0  0  0  0  0
   47.2045    1.0497    7.6663 H   0  0  0  0  0  0  0  0  0  0  0  0
   46.7898   -0.2116    7.6224 H   0  0  0  0  0  0  0  0  0  0  0  0
   47.4726    1.2888    7.5406 H   0  0  0  0  0  0  0  0  0  0  0  0
   47.2066    1.0542    7.6661 H   0  0  0  0  0  0  0  0  0  0  0  0
   47.2052    1.0510    7.6663 H   0  0  0  0  0  0  0  0  0  0  0  0
   47.2077    1.0566    7.6660 H   0  0  0  0  0  0  0  0  0  0  0  0
   47.2071    1.0552    7.6660 H   0  0  0  0  0  0  0  0  0  0  0  0
   47.2047    1.0499    7.6663 H   0  0  0  0  0  0  0  0  0  0  0  0
   47.2045    1.0497    7.6663 H   0  0  0  0  0  0  0  0  0  0  0  0
   47.2075    1.0562    7.6660 H   0  0  0  0  0  0  0  0  0  0  0  0
   47.2071    1.0552    7.6660 H   0  0  0  0  0  0  0  0  0  0  0  0
   47.2053    1.0512    7.6663 H   0  0  0  0  0  0  0  0  0  0  0  0
   47.2071    1.0552    7.6660 H   0  0  0  0  0  0  0  0  0  0  0  0
   47.2049    1.0505    7.6663 H   0  0  0  0  0  0  0  0  0  0  0  0
   47.2081    1.0576    7.6659 H   0  0  0  0  0  0  0  0  0  0  0  0
   47.2081    1.0575    7.6659 H   0  0  0  0  0  0  0  0  0  0  0  0
   47.4752    1.2597    7.5310 H   0  0  0  0  0  0  0  0  0  0  0  0
   46.8134   -0.1948    7.6102 H   0  0  0  0  0  0  0  0  0  0  0  0
   46.8055   -0.1940    7.6160 H   0  0  0  0  0  0  0  0  0  0  0  0
   47.4696    1.2644    7.5362 H   0  0  0  0  0  0  0  0  0  0  0  0
   46.8072   -0.1927    7.6151 H   0  0  0  0  0  0  0  0  0  0  0  0
   47.4701    1.2571    7.5339 H   0  0  0  0  0  0  0  0  0  0  0  0
  3  2  1  0
  4  2  1  0
  5  2  2  0
  6 33  1  0
  7 34  1  0
  8 35  1  0
 11 36  1  0
 11 37  1  0
 12 38  1  0
 13 39  1  0
 14 40  1  0
 15 41  1  0
 16 42  1  0
 17 43  1  0
 18 44  1  0
 19 45  1  0
 20 46  1  0
 21 47  1  0
 22 48  1  0
 23 49  1  0
 24 50  1  0
 25 51  1  0
 25 52  1  0
 26 53  1  0
 26 54  1  0
 27 55  1  0
 27 56  1  0
M  CHG  8   1   2   3  -1   4  -1   6  -1   7  -1   8  -1   9   2  10   2
M  CHG  8  12  -1  13  -1  14  -1  15  -1  16  -1  17  -1  18  -1  19  -1
M  CHG  8  20  -1  21  -1  22  -1  23  -1  24  -1  28   3  29   3  30   2
M  CHG  2  31   2  32   2
M  END
> <Uni-Dock RESULT> 
ENERGY=  -15.868  LOWER_BOUND=    8.499  UPPER_BOUND=    8.992
INTER + INTRA:         -15.868
INTER:                 -15.868
INTRA:                   0.000
UNBOUND:                 0.000

$$$$

     RDKit          3D

 56 27  0  0  0  0  0  0  0  0999 V2000
   46.8709    0.6322    7.7803 Mg  0  0  0  0  0 15  0  0  0  0  0  0
   46.8485    0.6386    7.7960 C   0  0  0  0  0  0  0  0  0  0  0  0
   47.6829    1.6450    7.3929 O   0  0  0  0  0  0  0  0  0  0  0  0
   47.1019   -0.6612    7.4446 O   0  0  0  0  0  0  0  0  0  0  0  0
   45.8503    0.9065    8.4879 O   0  0  0  0  0  0  0  0  0  0  0  0
   46.7939    0.1415    7.7521 O   0  0  0  0  0  0  0  0  0  0  0  0
   46.7945    0.1455    7.7523 O   0  0  0  0  0  0  0  0  0  0  0  0
   46.7950    0.1485    7.7525 O   0  0  0  0  0  0  0  0  0  0  0  0
   46.8709    0.6322    7.7803 Mg  0  0  0  0  0 15  0  0  0  0  0  0
   46.8709    0.6322    7.7803 Mg  0  0  0  0  0 15  0  0  0  0  0  0
   46.5716    0.6682    7.9824 O   0  0  0  0  0  0  0  0  0  0  0  0
   46.7942    0.1436    7.7522 O   0  0  0  0  0  0  0  0  0  0  0  0
   46.7947    0.1470    7.7524 O   0  0  0  0  0  0  0  0  0  0  0  0
   46.7938    0.1410    7.7521 O   0  0  0  0  0  0  0  0  0  0  0  0
   46.7940    0.1425    7.7522 O   0  0  0  0  0  0  0  0  0  0  0  0
   46.7949    0.1482    7.7525 O   0  0  0  0  0  0  0  0  0  0  0  0
   46.7950    0.1485    7.7525 O   0  0  0  0  0  0  0  0  0  0  0  0
   46.7938    0.1414    7.7521 O   0  0  0  0  0  0  0  0  0  0  0  0
   46.7940    0.1425    7.7522 O   0  0  0  0  0  0  0  0  0  0  0  0
   46.7947    0.1468    7.7524 O   0  0  0  0  0  0  0  0  0  0  0  0
   46.7940    0.1425    7.7522 O   0  0  0  0  0  0  0  0  0  0  0  0
   46.7948    0.1476    7.7524 O   0  0  0  0  0  0  0  0  0  0  0  0
   46.7936    0.1399    7.7520 O   0  0  0  0  0  0  0  0  0  0  0  0
   46.7936    0.1400    7.7520 O   0  0  0  0  0  0  0  0  0  0  0  0
   46.5416    0.6711    8.0025 O   0  0  0  0  0  0  0  0  0  0  0  0
   46.5567    0.6704    7.9925 O   0  0  0  0  0  0  0  0  0  0  0  0
   46.5529    0.6753    7.9958 O   0  0  0  0  0  0  0  0  0  0  0  0
   46.8709    0.6322    7.7803 Al  0  0  0  0  0 15  0  0  0  0  0  0
   46.8709    0.6322    7.7803 Al  0  0  0  0  0 15  0  0  0  0  0  0
   46.8709    0.6322    7.7803 Mg  0  0  0  0  0 15  0  0  0  0  0  0
   46.8709    0.6322    7.7803 Mg  0  0  0  0  0 15  0  0  0  0  0  0
   46.8709    0.6322    7.7803 Mg  0  0  0  0  0 15  0  0  0  0  0  0
   46.9479    1.1229    7.8086 H   0  0  0  0  0  0  0  0  0  0  0  0
   46.9473    1.1188    7.8084 H   0  0  0  0  0  0  0  0  0  0  0  0
   46.9468    1.1159    7.8082 H   0  0  0  0  0  0  0  0  0  0  0  0
   46.8926   -0.1998    7.6326 H   0  0  0  0  0  0  0  0  0  0  0  0
   47.1484    1.4281    7.7261 H   0  0  0  0  0  0  0  0  0  0  0  0
   46.9476    1.1208    7.8085 H   0  0  0  0  0  0  0  0  0  0  0  0
   46.9470    1.1174    7.8083 H   0  0  0  0  0  0  0  0  0  0  0  0
   46.9480    1.1234    7.8086 H   0  0  0  0  0  0  0  0  0  0  0  0
   46.9477    1.1219    7.8085 H   0  0  0  0  0  0  0  0  0  0  0  0
   46.9468    1.1162    7.8082 H   0  0  0  0  0  0  0  0  0  0  0  0
   46.9468    1.1159    7.8082 H   0  0  0  0  0  0  0  0  0  0  0  0
   46.9479    1.1230    7.8086 H   0  0  0  0  0  0  0  0  0  0  0  0
   46.9477    1.1219    7.8085 H   0  0  0  0  0  0  0  0  0  0  0  0
   46.9471    1.1176    7.8083 H   0  0  0  0  0  0  0  0  0  0  0  0
   46.9477    1.1219    7.8085 H   0  0  0  0  0  0  0  0  0  0  0  0
   46.9469    1.1168    7.8083 H   0  0  0  0  0  0  0  0  0  0  0  0
   46.9481    1.1245    7.8087 H   0  0  0  0  0  0  0  0  0  0  0  0
   46.9481    1.1244    7.8087 H   0  0  0  0  0  0  0  0  0  0  0  0
   47.1594    1.4018    7.7147 H   0  0  0  0  0  0  0  0  0  0  0  0
   46.9116   -0.1763    7.6239 H   0  0  0  0  0  0  0  0  0  0  0  0
   46.9034   -0.1781    7.6289 H   0  0  0  0  0  0  0  0  0  0  0  0
   47.1524    1.4043    7.7197 H   0  0  0  0  0  0  0  0  0  0  0  0
   46.9047   -0.1764    7.6284 H   0  0  0  0  0  0  0  0  0  0  0  0
   47.1550    1.3977    7.7169 H   0  0  0  0  0  0  0  0  0  0  0  0
  3  2  1  0
  4  2  1  0
  5  2  2  0
  6 33  1  0
  7 34  1  0
  8 35  1  0
 11 36  1  0
 11 37  1  0
 12 38  1  0
 13 39  1  0
 14 40  1  0
 15 41  1  0
 16 42  1  0
 17 43  1  0
 18 44  1  0
 19 45  1  0
 20 46  1  0
 21 47  1  0
 22 48  1  0
 23 49  1  0
 24 50  1  0
 25 51  1  0
 25 52  1  0
 26 53  1  0
 26 54  1  0
 27 55  1  0
 27 56  1  0
M  CHG  8   1   2   3  -1   4  -1   6  -1   7  -1   8  -1   9   2  10   2
M  CHG  8  12  -1  13  -1  14  -1  15  -1  16  -1  17  -1  18  -1  19  -1
M  CHG  8  20  -1  21  -1  22  -1  23  -1  24  -1  28   3  29   3  30   2
M  CHG  2  31   2  32   2
M  END
> <Uni-Dock RESULT> 
ENERGY=  -15.450  LOWER_BOUND=    8.371  UPPER_BOUND=    8.945
INTER + INTRA:         -15.450
INTER:                 -15.450
INTRA:                   0.000
UNBOUND:                 0.000

$$$$

     RDKit          3D

 56 27  0  0  0  0  0  0  0  0999 V2000
   46.7428    0.5391    7.7858 Mg  0  0  0  0  0 15  0  0  0  0  0  0
   46.7400    0.5112    7.7842 C   0  0  0  0  0  0  0  0  0  0  0  0
   45.8373    1.2289    8.5202 O   0  0  0  0  0  0  0  0  0  0  0  0
   47.7669    1.1412    7.1318 O   0  0  0  0  0  0  0  0  0  0  0  0
   46.6270   -0.7250    7.7069 O   0  0  0  0  0  0  0  0  0  0  0  0
   47.1446    0.5805    7.4954 O   0  0  0  0  0  0  0  0  0  0  0  0
   47.1413    0.5802    7.4977 O   0  0  0  0  0  0  0  0  0  0  0  0
   47.1389    0.5799    7.4995 O   0  0  0  0  0  0  0  0  0  0  0  0
   46.7428    0.5391    7.7858 Mg  0  0  0  0  0 15  0  0  0  0  0  0
   46.7428    0.5391    7.7858 Mg  0  0  0  0  0 15  0  0  0  0  0  0
   46.7452    0.1792    7.7390 O   0  0  0  0  0  0  0  0  0  0  0  0
   47.1429    0.5803    7.4966 O   0  0  0  0  0  0  0  0  0  0  0  0
   47.1401    0.5800    7.4986 O   0  0  0  0  0  0  0  0  0  0  0  0
   47.1450    0.5805    7.4951 O   0  0  0  0  0  0  0  0  0  0  0  0
   47.1438    0.5804    7.4959 O   0  0  0  0  0  0  0  0  0  0  0  0
   47.1391    0.5799    7.4993 O   0  0  0  0  0  0  0  0  0  0  0  0
   47.1389    0.5799    7.4995 O   0  0  0  0  0  0  0  0  0  0  0  0
   47.1447    0.5805    7.4953 O   0  0  0  0  0  0  0  0  0  0  0  0
   47.1438    0.5804    7.4959 O   0  0  0  0  0  0  0  0  0  0  0  0
   47.1402    0.5800    7.4985 O   0  0  0  0  0  0  0  0  0  0  0  0
   47.1438    0.5804    7.4959 O   0  0  0  0  0  0  0  0  0  0  0  0
   47.1396    0.5800    7.4990 O   0  0  0  0  0  0  0  0  0  0  0  0
   47.1459    0.5806    7.4944 O   0  0  0  0  0  0  0  0  0  0  0  0
   47.1458    0.5806    7.4945 O   0  0  0  0  0  0  0  0  0  0  0  0
   46.7461    0.1434    7.7339 O   0  0  0  0  0  0  0  0  0  0  0  0
   46.7450    0.1612    7.7369 O   0  0  0  0  0  0  0  0  0  0  0  0
   46.7415    0.1554    7.7387 O   0  0  0  0  0  0  0  0  0  0  0  0
   46.7428    0.5391    7.7858 Al  0  0  0  0  0 15  0  0  0  0  0  0
   46.7428    0.5391    7.7858 Al  0  0  0  0  0 15  0  0  0  0  0  0
   46.7428    0.5391    7.7858 Mg  0  0  0  0  0 15  0  0  0  0  0  0
   46.7428    0.5391    7.7858 Mg  0  0  0  0  0 15  0  0  0  0  0  0
   46.7428    0.5391    7.7858 Mg  0  0  0  0  0 15  0  0  0  0  0  0
   46.3410    0.4976    8.0762 H   0  0  0  0  0  0  0  0  0  0  0  0
   46.3443    0.4980    8.0738 H   0  0  0  0  0  0  0  0  0  0  0  0
   46.3467    0.4982    8.0721 H   0  0  0  0  0  0  0  0  0  0  0  0
   47.4081    0.7875    7.3274 H   0  0  0  0  0  0  0  0  0  0  0  0
   46.0751    0.6504    8.2909 H   0  0  0  0  0  0  0  0  0  0  0  0
   46.3427    0.4978    8.0750 H   0  0  0  0  0  0  0  0  0  0  0  0
   46.3455    0.4981    8.0729 H   0  0  0  0  0  0  0  0  0  0  0  0
   46.3406    0.4976    8.0765 H   0  0  0  0  0  0  0  0  0  0  0  0
   46.3418    0.4977    8.0756 H   0  0  0  0  0  0  0  0  0  0  0  0
   46.3465    0.4982    8.0722 H   0  0  0  0  0  0  0  0  0  0  0  0
   46.3467    0.4982    8.0721 H   0  0  0  0  0  0  0  0  0  0  0  0
   46.3409    0.4976    8.0763 H   0  0  0  0  0  0  0  0  0  0  0  0
   46.3418    0.4977    8.0756 H   0  0  0  0  0  0  0  0  0  0  0  0
   46.3454    0.4981    8.0731 H   0  0  0  0  0  0  0  0  0  0  0  0
   46.3418    0.4977    8.0756 H   0  0  0  0  0  0  0  0  0  0  0  0
   46.3460    0.4982    8.0726 H   0  0  0  0  0  0  0  0  0  0  0  0
   46.3397    0.4975    8.0771 H   0  0  0  0  0  0  0  0  0  0  0  0
   46.3398    0.4975    8.0771 H   0  0  0  0  0  0  0  0  0  0  0  0
   46.0951    0.6704    8.2788 H   0  0  0  0  0  0  0  0  0  0  0  0
   47.3873    0.8035    7.3447 H   0  0  0  0  0  0  0  0  0  0  0  0
   47.3896    0.7944    7.3419 H   0  0  0  0  0  0  0  0  0  0  0  0
   46.0938    0.6615    8.2786 H   0  0  0  0  0  0  0  0  0  0  0  0
   47.3881    0.7954    7.3431 H   0  0  0  0  0  0  0  0  0  0  0  0
   46.0988    0.6664    8.2755 H   0  0  0  0  0  0  0  0  0  0  0  0
  3  2  1  0
  4  2  1  0
  5  2  2  0
  6 33  1  0
  7 34  1  0
  8 35  1  0
 11 36  1  0
 11 37  1  0
 12 38  1  0
 13 39  1  0
 14 40  1  0
 15 41  1  0
 16 42  1  0
 17 43  1  0
 18 44  1  0
 19 45  1  0
 20 46  1  0
 21 47  1  0
 22 48  1  0
 23 49  1  0
 24 50  1  0
 25 51  1  0
 25 52  1  0
 26 53  1  0
 26 54  1  0
 27 55  1  0
 27 56  1  0
M  CHG  8   1   2   3  -1   4  -1   6  -1   7  -1   8  -1   9   2  10   2
M  CHG  8  12  -1  13  -1  14  -1  15  -1  16  -1  17  -1  18  -1  19  -1
M  CHG  8  20  -1  21  -1  22  -1  23  -1  24  -1  28   3  29   3  30   2
M  CHG  2  31   2  32   2
M  END
> <Uni-Dock RESULT> 
ENERGY=  -15.289  LOWER_BOUND=    8.390  UPPER_BOUND=    9.009
INTER + INTRA:         -15.289
INTER:                 -15.289
INTRA:                   0.000
UNBOUND:                 0.000

$$$$
