
     RDKit          3D

 98103  0  0  0  0  0  0  0  0999 V2000
   -1.0538   -0.4965   -0.7997 N   0  0  0  0  0  0  0  0  0  0  0  0
   -2.0226   -0.0158    0.2272 C   0  0  1  0  0  0  0  0  0  0  0  0
    1.9954   -0.2855   -1.1003 N   0  0  0  0  0  0  0  0  0  0  0  0
   -3.1172    0.9013   -0.3428 C   0  0  0  0  0  0  0  0  0  0  0  0
   -0.0778   -1.4562   -0.2248 C   0  0  0  0  0  0  0  0  0  0  0  0
   -0.3351    0.6129   -1.4749 C   0  0  0  0  0  0  0  0  0  0  0  0
   -2.6834   -1.1503    1.0223 C   0  0  0  0  0  0  0  0  0  0  0  0
   -3.5835    1.9855    0.4230 C   0  0  0  0  0  0  0  0  0  0  0  0
   -3.7022    0.6665   -1.6009 C   0  0  0  0  0  0  0  0  0  0  0  0
    1.2373   -1.5526   -1.0297 C   0  0  0  0  0  0  0  0  0  0  0  0
    1.0934    0.8748   -0.9448 C   0  0  0  0  0  0  0  0  0  0  0  0
   -5.1503    2.5765   -1.3163 C   0  0  0  0  0  0  0  0  0  0  0  0
   -4.7100    1.5033   -2.0867 C   0  0  0  0  0  0  0  0  0  0  0  0
   -4.5937    2.8202   -0.0630 C   0  0  0  0  0  0  0  0  0  0  0  0
   -6.3892    3.6089   -1.9177 Cl  0  0  0  0  0  0  0  0  0  0  0  0
    3.1037   -0.2532   -0.1328 C   0  0  0  0  0  0  0  0  0  0  0  0
    7.6159    2.1223    0.1302 O   0  0  0  0  0  0  0  0  0  0  0  0
    5.1222    0.9047    0.6335 O   0  0  0  0  0  0  0  0  0  0  0  0
   -2.6462   -1.1373    2.4271 C   0  0  0  0  0  0  0  0  0  0  0  0
   -3.3515   -2.2072    0.3799 C   0  0  0  0  0  0  0  0  0  0  0  0
    7.1926    0.9916   -0.6306 C   0  0  0  0  0  0  0  0  0  0  0  0
    4.0517    0.9468   -0.3174 C   0  0  0  0  0  0  0  0  0  0  0  0
    6.2480    0.1271    0.2030 C   0  0  0  0  0  0  0  0  0  0  0  0
   -3.9581   -3.2231    1.1200 C   0  0  0  0  0  0  0  0  0  0  0  0
   -3.2546   -2.1550    3.1647 C   0  0  0  0  0  0  0  0  0  0  0  0
   -3.9101   -3.1963    2.5116 C   0  0  0  0  0  0  0  0  0  0  0  0
    2.8051   -1.0394   -1.0852 C   0  0  0  0  0  0  0  0  0  0  0  0
   -2.6766    1.5814   -0.3905 C   0  0  0  0  0  0  0  0  0  0  0  0
   -1.2839   -0.1406    0.6676 C   0  0  0  0  0  0  0  0  0  0  0  0
    1.3087   -0.2931    0.7118 C   0  0  0  0  0  0  0  0  0  0  0  0
    1.6198   -1.1722   -0.3511 C   0  0  0  0  0  0  0  0  0  0  0  0
   -1.5459    1.2109    0.3505 C   0  0  0  0  0  0  0  0  0  0  0  0
   -0.0160   -0.4791    1.4562 C   0  0  0  0  0  0  0  0  0  0  0  0
    3.7119   -0.0361   -0.7377 C   0  0  0  0  0  0  0  0  0  0  0  0
   -3.5780    0.5990   -0.8021 C   0  0  0  0  0  0  0  0  0  0  0  0
    3.1875   -1.9132   -2.2240 C   0  0  0  0  0  0  0  0  0  0  0  0
   -2.9092    3.0061   -0.7228 C   0  0  0  0  0  0  0  0  0  0  0  0
   -2.2291   -1.1421    0.2642 C   0  0  0  0  0  0  0  0  0  0  0  0
    2.2561    0.7218    1.0748 C   0  0  0  0  0  0  0  0  0  0  0  0
    3.4597    0.8332    0.3292 C   0  0  0  0  0  0  0  0  0  0  0  0
   -3.3757   -0.7467   -0.4767 C   0  0  0  0  0  0  0  0  0  0  0  0
    4.2301   -1.8627   -2.8498 O   0  0  0  0  0  0  0  0  0  0  0  0
   -2.1702    3.9199   -0.3957 O   0  0  0  0  0  0  0  0  0  0  0  0
    0.7282   -2.1808   -0.6139 O   0  0  0  0  0  0  0  0  0  0  0  0
   -0.6663    2.1540    0.8220 O   0  0  0  0  0  0  0  0  0  0  0  0
    2.2391   -2.8170   -2.5457 O   0  0  0  0  0  0  0  0  0  0  0  0
   -4.0275    3.2264   -1.4341 O   0  0  0  0  0  0  0  0  0  0  0  0
    2.0918    1.6421    2.1411 C   0  0  0  0  0  0  0  0  0  0  0  0
   -2.1160   -2.5259    0.5523 C   0  0  0  0  0  0  0  0  0  0  0  0
    4.4154    1.8127    0.6506 C   0  0  0  0  0  0  0  0  0  0  0  0
   -4.3252   -1.6967   -0.8923 C   0  0  0  0  0  0  0  0  0  0  0  0
   -3.0684   -3.4611    0.1341 C   0  0  0  0  0  0  0  0  0  0  0  0
    3.0505    2.6114    2.4527 C   0  0  0  0  0  0  0  0  0  0  0  0
   -4.1749   -3.0460   -0.5884 C   0  0  0  0  0  0  0  0  0  0  0  0
    4.2147    2.6961    1.7071 C   0  0  0  0  0  0  0  0  0  0  0  0
   -1.4407    0.5906    0.9378 H   0  0  0  0  0  0  0  0  0  0  0  0
    0.1818   -1.1846    0.8079 H   0  0  0  0  0  0  0  0  0  0  0  0
   -0.5288   -2.4544   -0.2004 H   0  0  0  0  0  0  0  0  0  0  0  0
   -0.8916    1.5559   -1.4462 H   0  0  0  0  0  0  0  0  0  0  0  0
   -0.2675    0.3533   -2.5403 H   0  0  0  0  0  0  0  0  0  0  0  0
   -3.1678    2.1808    1.4095 H   0  0  0  0  0  0  0  0  0  0  0  0
   -3.3682   -0.1710   -2.2114 H   0  0  0  0  0  0  0  0  0  0  0  0
    1.8528   -2.3666   -0.6281 H   0  0  0  0  0  0  0  0  0  0  0  0
    0.9970   -1.8525   -2.0582 H   0  0  0  0  0  0  0  0  0  0  0  0
    1.0142    1.1734    0.1098 H   0  0  0  0  0  0  0  0  0  0  0  0
    1.5180    1.7255   -1.4903 H   0  0  0  0  0  0  0  0  0  0  0  0
   -5.1469    1.3100   -3.0623 H   0  0  0  0  0  0  0  0  0  0  0  0
   -4.9420    3.6530    0.5411 H   0  0  0  0  0  0  0  0  0  0  0  0
    3.7020   -1.1658   -0.2429 H   0  0  0  0  0  0  0  0  0  0  0  0
    2.7305   -0.2690    0.8996 H   0  0  0  0  0  0  0  0  0  0  0  0
    6.8222    2.4281    0.6103 H   0  0  0  0  0  0  0  0  0  0  0  0
   -2.1452   -0.3313    2.9580 H   0  0  0  0  0  0  0  0  0  0  0  0
   -3.3929   -2.2443   -0.7065 H   0  0  0  0  0  0  0  0  0  0  0  0
    6.7000    1.3695   -1.5325 H   0  0  0  0  0  0  0  0  0  0  0  0
    8.0788    0.4222   -0.9271 H   0  0  0  0  0  0  0  0  0  0  0  0
    3.5142    1.8813   -0.1286 H   0  0  0  0  0  0  0  0  0  0  0  0
    4.4389    0.9950   -1.3407 H   0  0  0  0  0  0  0  0  0  0  0  0
    6.7636   -0.1928    1.1149 H   0  0  0  0  0  0  0  0  0  0  0  0
    5.9348   -0.7671   -0.3450 H   0  0  0  0  0  0  0  0  0  0  0  0
   -4.4719   -4.0327    0.6085 H   0  0  0  0  0  0  0  0  0  0  0  0
   -3.2204   -2.1334    4.2505 H   0  0  0  0  0  0  0  0  0  0  0  0
   -4.3857   -3.9865    3.0866 H   0  0  0  0  0  0  0  0  0  0  0  0
   -0.0533    0.1005    2.3830 H   0  0  0  0  0  0  0  0  0  0  0  0
   -0.0272   -1.5049    1.8355 H   0  0  0  0  0  0  0  0  0  0  0  0
    4.6363    0.0622   -1.3069 H   0  0  0  0  0  0  0  0  0  0  0  0
   -4.4575    0.8841   -1.3762 H   0  0  0  0  0  0  0  0  0  0  0  0
    1.0167   -2.6423   -1.4282 H   0  0  0  0  0  0  0  0  0  0  0  0
   -0.9173    3.0408    0.4856 H   0  0  0  0  0  0  0  0  0  0  0  0
    2.6406   -3.2916   -3.3087 H   0  0  0  0  0  0  0  0  0  0  0  0
   -4.0448    4.1962   -1.5745 H   0  0  0  0  0  0  0  0  0  0  0  0
    1.1931    1.6373    2.7511 H   0  0  0  0  0  0  0  0  0  0  0  0
   -1.2638   -2.9161    1.1011 H   0  0  0  0  0  0  0  0  0  0  0  0
    5.3358    1.8957    0.0756 H   0  0  0  0  0  0  0  0  0  0  0  0
   -5.2009   -1.3895   -1.4610 H   0  0  0  0  0  0  0  0  0  0  0  0
   -2.9350   -4.5126    0.3741 H   0  0  0  0  0  0  0  0  0  0  0  0
    2.8752    3.2988    3.2763 H   0  0  0  0  0  0  0  0  0  0  0  0
   -4.9175   -3.7678   -0.9165 H   0  0  0  0  0  0  0  0  0  0  0  0
    4.9638    3.4470    1.9417 H   0  0  0  0  0  0  0  0  0  0  0  0
  2  1  1  0
  3 10  1  0
  4  2  1  0
  5  1  1  0
  6  1  1  0
  7  2  1  0
  8  4  2  0
  9  4  1  0
 10  5  1  0
 11  6  1  0
 12 14  2  0
 13  9  2  0
 14  8  1  0
 15 12  1  0
 16  3  1  0
 17 21  1  0
 18 22  1  0
 19  7  2  0
 20  7  1  0
 21 23  1  0
 22 16  1  0
 23 18  1  0
 24 20  2  0
 25 19  1  0
 26 25  2  0
 11  3  1  0
 13 12  1  0
 24 26  1  0
 28 32  2  0
 29 33  1  0
 30 31  1  0
 31 27  2  0
 32 29  1  0
 33 30  1  0
 34 27  1  0
 35 28  1  0
 36 27  1  0
 37 28  1  0
 38 29  2  0
 39 40  1  0
 40 34  2  0
 41 38  1  0
 42 36  2  0
 43 37  2  0
 44 31  1  0
 45 32  1  0
 46 36  1  0
 47 37  1  0
 48 39  1  0
 49 38  1  0
 50 40  1  0
 51 41  1  0
 52 49  2  0
 53 48  2  0
 54 52  1  0
 55 50  2  0
 30 39  2  0
 53 55  1  0
 35 41  2  0
 51 54  2  0
  2 56  1  1
  5 57  1  0
  5 58  1  0
  6 59  1  0
  6 60  1  0
  8 61  1  0
  9 62  1  0
 10 63  1  0
 10 64  1  0
 11 65  1  0
 11 66  1  0
 13 67  1  0
 14 68  1  0
 16 69  1  0
 16 70  1  0
 17 71  1  0
 19 72  1  0
 20 73  1  0
 21 74  1  0
 21 75  1  0
 22 76  1  0
 22 77  1  0
 23 78  1  0
 23 79  1  0
 24 80  1  0
 25 81  1  0
 26 82  1  0
 33 83  1  0
 33 84  1  0
 34 85  1  0
 35 86  1  0
 44 87  1  0
 45 88  1  0
 46 89  1  0
 47 90  1  0
 48 91  1  0
 49 92  1  0
 50 93  1  0
 51 94  1  0
 52 95  1  0
 53 96  1  0
 54 97  1  0
 55 98  1  0
M  END
$$$$
