
     RDKit          3D

 98103  0  0  0  0  0  0  0  0999 V2000
   -0.9348    0.3440   -0.8360 N   0  0  0  0  0  0  0  0  0  0  0  0
   -2.4012    0.2117   -1.0187 C   0  0  1  0  0  0  0  0  0  0  0  0
    1.9058   -0.4540   -0.5917 N   0  0  0  0  0  0  0  0  0  0  0  0
   -2.9964   -1.1263   -0.5586 C   0  0  0  0  0  0  0  0  0  0  0  0
   -0.3922   -0.2332    0.4075 C   0  0  0  0  0  0  0  0  0  0  0  0
   -0.1669   -0.1634   -1.9852 C   0  0  0  0  0  0  0  0  0  0  0  0
   -3.1906    1.4353   -0.5180 C   0  0  0  0  0  0  0  0  0  0  0  0
   -3.0253   -2.2222   -1.4392 C   0  0  0  0  0  0  0  0  0  0  0  0
   -3.5043   -1.3002    0.7429 C   0  0  0  0  0  0  0  0  0  0  0  0
    1.1227    0.0483    0.5582 C   0  0  0  0  0  0  0  0  0  0  0  0
    1.3459    0.1177   -1.8341 C   0  0  0  0  0  0  0  0  0  0  0  0
   -4.0484   -3.5999    0.2594 C   0  0  0  0  0  0  0  0  0  0  0  0
   -4.0321   -2.5287    1.1474 C   0  0  0  0  0  0  0  0  0  0  0  0
   -3.5454   -3.4532   -1.0309 C   0  0  0  0  0  0  0  0  0  0  0  0
   -4.6932   -5.1153    0.7575 Cl  0  0  0  0  0  0  0  0  0  0  0  0
    3.3345   -0.1185   -0.4783 C   0  0  0  0  0  0  0  0  0  0  0  0
    8.0245   -0.5672    1.6795 O   0  0  0  0  0  0  0  0  0  0  0  0
    5.4881   -0.6996    0.5416 O   0  0  0  0  0  0  0  0  0  0  0  0
   -4.5432    1.5737   -0.8941 C   0  0  0  0  0  0  0  0  0  0  0  0
   -2.6283    2.4353    0.2912 C   0  0  0  0  0  0  0  0  0  0  0  0
    7.4086    0.5956    1.1273 C   0  0  0  0  0  0  0  0  0  0  0  0
    4.0748   -0.9287    0.5999 C   0  0  0  0  0  0  0  0  0  0  0  0
    5.8921    0.4797    1.2500 C   0  0  0  0  0  0  0  0  0  0  0  0
   -3.3920    3.5240    0.7218 C   0  0  0  0  0  0  0  0  0  0  0  0
   -5.3056    2.6611   -0.4643 C   0  0  0  0  0  0  0  0  0  0  0  0
   -4.7286    3.6360    0.3456 C   0  0  0  0  0  0  0  0  0  0  0  0
    2.9514   -0.4670   -1.1136 C   0  0  0  0  0  0  0  0  0  0  0  0
   -2.5560    1.7617    0.4272 C   0  0  0  0  0  0  0  0  0  0  0  0
   -1.3860   -0.3879    0.2362 C   0  0  0  0  0  0  0  0  0  0  0  0
    1.1519   -0.8645    0.5116 C   0  0  0  0  0  0  0  0  0  0  0  0
    1.6549   -0.9023   -0.8095 C   0  0  0  0  0  0  0  0  0  0  0  0
   -1.5888    0.8540    0.8808 C   0  0  0  0  0  0  0  0  0  0  0  0
   -0.2895   -1.3187    0.7641 C   0  0  0  0  0  0  0  0  0  0  0  0
    3.7741   -0.0117   -0.0815 C   0  0  0  0  0  0  0  0  0  0  0  0
   -3.3512    1.4264   -0.6702 C   0  0  0  0  0  0  0  0  0  0  0  0
    3.5337   -0.4651   -2.4801 C   0  0  0  0  0  0  0  0  0  0  0  0
   -2.7301    3.0619    1.1154 C   0  0  0  0  0  0  0  0  0  0  0  0
   -2.2315   -0.7414   -0.8700 C   0  0  0  0  0  0  0  0  0  0  0  0
    2.0147   -0.4210    1.5683 C   0  0  0  0  0  0  0  0  0  0  0  0
    3.3307    0.0075    1.2460 C   0  0  0  0  0  0  0  0  0  0  0  0
   -3.2095    0.1907   -1.3130 C   0  0  0  0  0  0  0  0  0  0  0  0
    4.6687   -0.1427   -2.7793 O   0  0  0  0  0  0  0  0  0  0  0  0
   -2.0568    3.4395    2.0605 O   0  0  0  0  0  0  0  0  0  0  0  0
    0.8296   -1.4118   -1.7793 O   0  0  0  0  0  0  0  0  0  0  0  0
   -0.8250    1.1283    1.9890 O   0  0  0  0  0  0  0  0  0  0  0  0
    2.6609   -0.8598   -3.4326 O   0  0  0  0  0  0  0  0  0  0  0  0
   -3.7205    3.8175    0.6134 O   0  0  0  0  0  0  0  0  0  0  0  0
    1.6608   -0.3808    2.9408 C   0  0  0  0  0  0  0  0  0  0  0  0
   -2.1781   -1.9731   -1.5723 C   0  0  0  0  0  0  0  0  0  0  0  0
    4.2059    0.4553    2.2514 C   0  0  0  0  0  0  0  0  0  0  0  0
   -4.0522   -0.1139   -2.3968 C   0  0  0  0  0  0  0  0  0  0  0  0
   -3.0191   -2.2627   -2.6527 C   0  0  0  0  0  0  0  0  0  0  0  0
    2.5410    0.0632    3.9322 C   0  0  0  0  0  0  0  0  0  0  0  0
   -3.9576   -1.3312   -3.0645 C   0  0  0  0  0  0  0  0  0  0  0  0
    3.8134    0.4861    3.5865 C   0  0  0  0  0  0  0  0  0  0  0  0
   -2.5861    0.2676   -2.1032 H   0  0  0  0  0  0  0  0  0  0  0  0
   -0.5358   -1.3216    0.4363 H   0  0  0  0  0  0  0  0  0  0  0  0
   -0.9003    0.1912    1.2809 H   0  0  0  0  0  0  0  0  0  0  0  0
   -0.5042    0.3302   -2.9046 H   0  0  0  0  0  0  0  0  0  0  0  0
   -0.3197   -1.2427   -2.1112 H   0  0  0  0  0  0  0  0  0  0  0  0
   -2.6351   -2.1248   -2.4494 H   0  0  0  0  0  0  0  0  0  0  0  0
   -3.4936   -0.4747    1.4536 H   0  0  0  0  0  0  0  0  0  0  0  0
    1.2734    1.1298    0.6845 H   0  0  0  0  0  0  0  0  0  0  0  0
    1.4586   -0.4396    1.4809 H   0  0  0  0  0  0  0  0  0  0  0  0
    1.8570   -0.3188   -2.7014 H   0  0  0  0  0  0  0  0  0  0  0  0
    1.5131    1.2034   -1.8673 H   0  0  0  0  0  0  0  0  0  0  0  0
   -4.4272   -2.6406    2.1533 H   0  0  0  0  0  0  0  0  0  0  0  0
   -3.5510   -4.2903   -1.7227 H   0  0  0  0  0  0  0  0  0  0  0  0
    3.4712    0.9575   -0.3121 H   0  0  0  0  0  0  0  0  0  0  0  0
    3.8355   -0.3358   -1.4320 H   0  0  0  0  0  0  0  0  0  0  0  0
    7.5265   -1.3205    1.3069 H   0  0  0  0  0  0  0  0  0  0  0  0
   -5.0128    0.8207   -1.5261 H   0  0  0  0  0  0  0  0  0  0  0  0
   -1.5864    2.3835    0.5929 H   0  0  0  0  0  0  0  0  0  0  0  0
    7.7149    0.6627    0.0791 H   0  0  0  0  0  0  0  0  0  0  0  0
    7.7818    1.4729    1.6644 H   0  0  0  0  0  0  0  0  0  0  0  0
    3.9280   -1.9969    0.4074 H   0  0  0  0  0  0  0  0  0  0  0  0
    3.7022   -0.7242    1.6103 H   0  0  0  0  0  0  0  0  0  0  0  0
    5.6143    0.3708    2.3040 H   0  0  0  0  0  0  0  0  0  0  0  0
    5.4140    1.3685    0.8271 H   0  0  0  0  0  0  0  0  0  0  0  0
   -2.9404    4.2873    1.3516 H   0  0  0  0  0  0  0  0  0  0  0  0
   -6.3461    2.7476   -0.7644 H   0  0  0  0  0  0  0  0  0  0  0  0
   -5.3202    4.4849    0.6759 H   0  0  0  0  0  0  0  0  0  0  0  0
   -0.3828   -2.3338    0.3647 H   0  0  0  0  0  0  0  0  0  0  0  0
   -0.4914   -1.4818    1.8274 H   0  0  0  0  0  0  0  0  0  0  0  0
    4.7845    0.3211   -0.3169 H   0  0  0  0  0  0  0  0  0  0  0  0
   -4.1016    2.1312   -1.0248 H   0  0  0  0  0  0  0  0  0  0  0  0
    1.2591   -1.2804   -2.6500 H   0  0  0  0  0  0  0  0  0  0  0  0
   -0.9887    2.0499    2.2868 H   0  0  0  0  0  0  0  0  0  0  0  0
    3.1948   -0.7933   -4.2561 H   0  0  0  0  0  0  0  0  0  0  0  0
   -3.7139    4.6275    1.1656 H   0  0  0  0  0  0  0  0  0  0  0  0
    0.6722   -0.6822    3.2741 H   0  0  0  0  0  0  0  0  0  0  0  0
   -1.4556   -2.7388   -1.3038 H   0  0  0  0  0  0  0  0  0  0  0  0
    5.2117    0.7888    2.0002 H   0  0  0  0  0  0  0  0  0  0  0  0
   -4.7992    0.6027   -2.7343 H   0  0  0  0  0  0  0  0  0  0  0  0
   -2.9344   -3.2189   -3.1623 H   0  0  0  0  0  0  0  0  0  0  0  0
    2.2210    0.0822    4.9707 H   0  0  0  0  0  0  0  0  0  0  0  0
   -4.6168   -1.5483   -3.9000 H   0  0  0  0  0  0  0  0  0  0  0  0
    4.5014    0.8371    4.3505 H   0  0  0  0  0  0  0  0  0  0  0  0
  2  1  1  0
  3 10  1  0
  4  2  1  0
  5  1  1  0
  6  1  1  0
  7  2  1  0
  8  4  2  0
  9  4  1  0
 10  5  1  0
 11  6  1  0
 12 14  2  0
 13  9  2  0
 14  8  1  0
 15 12  1  0
 16  3  1  0
 17 21  1  0
 18 22  1  0
 19  7  2  0
 20  7  1  0
 21 23  1  0
 22 16  1  0
 23 18  1  0
 24 20  2  0
 25 19  1  0
 26 25  2  0
 11  3  1  0
 13 12  1  0
 24 26  1  0
 28 32  2  0
 29 33  1  0
 30 31  1  0
 31 27  2  0
 32 29  1  0
 33 30  1  0
 34 27  1  0
 35 28  1  0
 36 27  1  0
 37 28  1  0
 38 29  2  0
 39 40  1  0
 40 34  2  0
 41 38  1  0
 42 36  2  0
 43 37  2  0
 44 31  1  0
 45 32  1  0
 46 36  1  0
 47 37  1  0
 48 39  1  0
 49 38  1  0
 50 40  1  0
 51 41  1  0
 52 49  2  0
 53 48  2  0
 54 52  1  0
 55 50  2  0
 30 39  2  0
 53 55  1  0
 35 41  2  0
 51 54  2  0
  2 56  1  6
  5 57  1  0
  5 58  1  0
  6 59  1  0
  6 60  1  0
  8 61  1  0
  9 62  1  0
 10 63  1  0
 10 64  1  0
 11 65  1  0
 11 66  1  0
 13 67  1  0
 14 68  1  0
 16 69  1  0
 16 70  1  0
 17 71  1  0
 19 72  1  0
 20 73  1  0
 21 74  1  0
 21 75  1  0
 22 76  1  0
 22 77  1  0
 23 78  1  0
 23 79  1  0
 24 80  1  0
 25 81  1  0
 26 82  1  0
 33 83  1  0
 33 84  1  0
 34 85  1  0
 35 86  1  0
 44 87  1  0
 45 88  1  0
 46 89  1  0
 47 90  1  0
 48 91  1  0
 49 92  1  0
 50 93  1  0
 51 94  1  0
 52 95  1  0
 53 96  1  0
 54 97  1  0
 55 98  1  0
M  END
$$$$
