
     RDKit          3D

 98103  0  0  0  0  0  0  0  0999 V2000
   -1.0702    0.0944   -0.1078 N   0  0  0  0  0  0  0  0  0  0  0  0
   -2.4247    0.1824    0.5179 C   0  0  1  0  0  0  0  0  0  0  0  0
    1.8525    0.7290   -0.1018 N   0  0  0  0  0  0  0  0  0  0  0  0
   -3.4565    0.9031   -0.3661 C   0  0  0  0  0  0  0  0  0  0  0  0
   -0.5357    1.4487   -0.4013 C   0  0  0  0  0  0  0  0  0  0  0  0
   -0.0995   -0.5768    0.7923 C   0  0  0  0  0  0  0  0  0  0  0  0
   -2.9998   -1.1730    0.9512 C   0  0  0  0  0  0  0  0  0  0  0  0
   -3.5918    0.6056   -1.7343 C   0  0  0  0  0  0  0  0  0  0  0  0
   -4.3169    1.8604    0.1996 C   0  0  0  0  0  0  0  0  0  0  0  0
    0.8908    1.4094   -0.9930 C   0  0  0  0  0  0  0  0  0  0  0  0
    1.3337   -0.6168    0.2075 C   0  0  0  0  0  0  0  0  0  0  0  0
   -5.3830    2.2072   -1.9384 C   0  0  0  0  0  0  0  0  0  0  0  0
   -5.2739    2.5110   -0.5834 C   0  0  0  0  0  0  0  0  0  0  0  0
   -4.5470    1.2570   -2.5178 C   0  0  0  0  0  0  0  0  0  0  0  0
   -6.5570    3.0132   -2.9033 Cl  0  0  0  0  0  0  0  0  0  0  0  0
    3.1775    0.6789   -0.7455 C   0  0  0  0  0  0  0  0  0  0  0  0
    9.0820   -0.2254    0.2848 O   0  0  0  0  0  0  0  0  0  0  0  0
    5.5530    0.3367   -0.5238 O   0  0  0  0  0  0  0  0  0  0  0  0
   -3.5891   -1.3074    2.2205 C   0  0  0  0  0  0  0  0  0  0  0  0
   -2.9943   -2.2884    0.0962 C   0  0  0  0  0  0  0  0  0  0  0  0
    7.9480    0.0945   -0.5125 C   0  0  0  0  0  0  0  0  0  0  0  0
    4.3102    0.1992    0.1745 C   0  0  0  0  0  0  0  0  0  0  0  0
    6.6576   -0.0579    0.2858 C   0  0  0  0  0  0  0  0  0  0  0  0
   -3.5494   -3.5029    0.5027 C   0  0  0  0  0  0  0  0  0  0  0  0
   -4.1445   -2.5229    2.6251 C   0  0  0  0  0  0  0  0  0  0  0  0
   -4.1227   -3.6200    1.7669 C   0  0  0  0  0  0  0  0  0  0  0  0
   -2.5340    1.7100   -0.0198 C   0  0  0  0  0  0  0  0  0  0  0  0
    3.2596    0.6836   -1.7277 C   0  0  0  0  0  0  0  0  0  0  0  0
    1.2496   -0.5000   -0.9621 C   0  0  0  0  0  0  0  0  0  0  0  0
   -1.3266   -0.3662   -0.5314 C   0  0  0  0  0  0  0  0  0  0  0  0
   -1.4999    1.0298   -0.6756 C   0  0  0  0  0  0  0  0  0  0  0  0
    2.0063    0.1151   -1.9909 C   0  0  0  0  0  0  0  0  0  0  0  0
   -0.1541   -1.0489   -1.2406 C   0  0  0  0  0  0  0  0  0  0  0  0
   -3.4349    0.9836    0.7632 C   0  0  0  0  0  0  0  0  0  0  0  0
    3.7868    0.6214   -0.4353 C   0  0  0  0  0  0  0  0  0  0  0  0
   -2.7584    3.1761   -0.1067 C   0  0  0  0  0  0  0  0  0  0  0  0
    4.0638    1.3193   -2.8060 C   0  0  0  0  0  0  0  0  0  0  0  0
    1.8196   -0.5903    0.3536 C   0  0  0  0  0  0  0  0  0  0  0  0
   -2.2938   -1.1112    0.2225 C   0  0  0  0  0  0  0  0  0  0  0  0
   -3.3382   -0.4078    0.8793 C   0  0  0  0  0  0  0  0  0  0  0  0
    3.0915   -0.0101    0.5988 C   0  0  0  0  0  0  0  0  0  0  0  0
   -3.6619    3.7960    0.4242 O   0  0  0  0  0  0  0  0  0  0  0  0
    4.0620    1.0688   -3.9974 O   0  0  0  0  0  0  0  0  0  0  0  0
   -0.6345    1.6817   -1.5149 O   0  0  0  0  0  0  0  0  0  0  0  0
    1.5321    0.2182   -3.2721 O   0  0  0  0  0  0  0  0  0  0  0  0
   -1.8374    3.8116   -0.8581 O   0  0  0  0  0  0  0  0  0  0  0  0
    4.8782    2.2789   -2.3157 O   0  0  0  0  0  0  0  0  0  0  0  0
   -2.2994   -2.5231    0.3654 C   0  0  0  0  0  0  0  0  0  0  0  0
    1.2021   -1.2325    1.4546 C   0  0  0  0  0  0  0  0  0  0  0  0
   -4.2940   -1.0955    1.6467 C   0  0  0  0  0  0  0  0  0  0  0  0
    3.6724   -0.0638    1.8774 C   0  0  0  0  0  0  0  0  0  0  0  0
    1.7890   -1.2828    2.7228 C   0  0  0  0  0  0  0  0  0  0  0  0
   -3.2587   -3.1954    1.1290 C   0  0  0  0  0  0  0  0  0  0  0  0
    3.0246   -0.6938    2.9354 C   0  0  0  0  0  0  0  0  0  0  0  0
   -4.2535   -2.4802    1.7754 C   0  0  0  0  0  0  0  0  0  0  0  0
   -2.3043    0.7864    1.4302 H   0  0  0  0  0  0  0  0  0  0  0  0
   -0.5276    2.0632    0.5091 H   0  0  0  0  0  0  0  0  0  0  0  0
   -1.1665    1.9638   -1.1331 H   0  0  0  0  0  0  0  0  0  0  0  0
   -0.0715   -0.0737    1.7681 H   0  0  0  0  0  0  0  0  0  0  0  0
   -0.3946   -1.6163    0.9711 H   0  0  0  0  0  0  0  0  0  0  0  0
   -2.9424   -0.1355   -2.1958 H   0  0  0  0  0  0  0  0  0  0  0  0
   -4.2504    2.1024    1.2577 H   0  0  0  0  0  0  0  0  0  0  0  0
    0.8571    0.9195   -1.9758 H   0  0  0  0  0  0  0  0  0  0  0  0
    1.2176    2.4438   -1.1551 H   0  0  0  0  0  0  0  0  0  0  0  0
    1.9766   -1.1035    0.9492 H   0  0  0  0  0  0  0  0  0  0  0  0
    1.3342   -1.2473   -0.6915 H   0  0  0  0  0  0  0  0  0  0  0  0
   -5.9311    3.2481   -0.1304 H   0  0  0  0  0  0  0  0  0  0  0  0
   -4.6314    1.0161   -3.5738 H   0  0  0  0  0  0  0  0  0  0  0  0
    3.1594    0.0593   -1.6525 H   0  0  0  0  0  0  0  0  0  0  0  0
    3.4497    1.6875   -1.0853 H   0  0  0  0  0  0  0  0  0  0  0  0
    9.1924    0.4948    0.9294 H   0  0  0  0  0  0  0  0  0  0  0  0
   -3.6241   -0.4612    2.9030 H   0  0  0  0  0  0  0  0  0  0  0  0
   -2.5470   -2.2141   -0.8925 H   0  0  0  0  0  0  0  0  0  0  0  0
    7.9348   -0.5713   -1.3818 H   0  0  0  0  0  0  0  0  0  0  0  0
    8.0548    1.1157   -0.8948 H   0  0  0  0  0  0  0  0  0  0  0  0
    4.1728   -0.8526    0.4465 H   0  0  0  0  0  0  0  0  0  0  0  0
    4.3369    0.8060    1.0872 H   0  0  0  0  0  0  0  0  0  0  0  0
    6.5409   -1.0998    0.6057 H   0  0  0  0  0  0  0  0  0  0  0  0
    6.7019    0.5641    1.1879 H   0  0  0  0  0  0  0  0  0  0  0  0
   -3.5338   -4.3573   -0.1690 H   0  0  0  0  0  0  0  0  0  0  0  0
   -4.5972   -2.6126    3.6088 H   0  0  0  0  0  0  0  0  0  0  0  0
   -4.5566   -4.5650    2.0813 H   0  0  0  0  0  0  0  0  0  0  0  0
   -0.4059   -1.0257   -2.3053 H   0  0  0  0  0  0  0  0  0  0  0  0
   -0.0936   -2.1162   -1.0144 H   0  0  0  0  0  0  0  0  0  0  0  0
   -4.2404    1.5127    1.2733 H   0  0  0  0  0  0  0  0  0  0  0  0
    4.7635    1.0587   -0.2371 H   0  0  0  0  0  0  0  0  0  0  0  0
   -0.8195    2.6432   -1.4737 H   0  0  0  0  0  0  0  0  0  0  0  0
    0.9643   -0.5326   -3.4900 H   0  0  0  0  0  0  0  0  0  0  0  0
   -2.1206    4.7523   -0.8089 H   0  0  0  0  0  0  0  0  0  0  0  0
    5.3174    2.6258   -3.1204 H   0  0  0  0  0  0  0  0  0  0  0  0
   -1.5533   -3.1448   -0.1202 H   0  0  0  0  0  0  0  0  0  0  0  0
    0.2398   -1.7195    1.3485 H   0  0  0  0  0  0  0  0  0  0  0  0
   -5.0914   -0.5526    2.1519 H   0  0  0  0  0  0  0  0  0  0  0  0
    4.6452    0.3889    2.0609 H   0  0  0  0  0  0  0  0  0  0  0  0
    1.2748   -1.7836    3.5391 H   0  0  0  0  0  0  0  0  0  0  0  0
   -3.2243   -4.2793    1.2108 H   0  0  0  0  0  0  0  0  0  0  0  0
    3.4865   -0.7251    3.9184 H   0  0  0  0  0  0  0  0  0  0  0  0
   -5.0007   -2.9951    2.3733 H   0  0  0  0  0  0  0  0  0  0  0  0
  2  1  1  0
  3 10  1  0
  4  2  1  0
  5  1  1  0
  6  1  1  0
  7  2  1  0
  8  4  2  0
  9  4  1  0
 10  5  1  0
 11  6  1  0
 12 14  2  0
 13  9  2  0
 14  8  1  0
 15 12  1  0
 16  3  1  0
 17 21  1  0
 18 22  1  0
 19  7  2  0
 20  7  1  0
 21 23  1  0
 22 16  1  0
 23 18  1  0
 24 20  2  0
 25 19  1  0
 26 25  2  0
 11  3  1  0
 13 12  1  0
 24 26  1  0
 28 32  2  0
 29 33  1  0
 30 31  1  0
 31 27  2  0
 32 29  1  0
 33 30  1  0
 34 27  1  0
 35 28  1  0
 36 27  1  0
 37 28  1  0
 38 29  2  0
 39 40  1  0
 40 34  2  0
 41 38  1  0
 42 36  2  0
 43 37  2  0
 44 31  1  0
 45 32  1  0
 46 36  1  0
 47 37  1  0
 48 39  1  0
 49 38  1  0
 50 40  1  0
 51 41  1  0
 52 49  2  0
 53 48  2  0
 54 52  1  0
 55 50  2  0
 30 39  2  0
 53 55  1  0
 35 41  2  0
 51 54  2  0
  2 56  1  1
  5 57  1  0
  5 58  1  0
  6 59  1  0
  6 60  1  0
  8 61  1  0
  9 62  1  0
 10 63  1  0
 10 64  1  0
 11 65  1  0
 11 66  1  0
 13 67  1  0
 14 68  1  0
 16 69  1  0
 16 70  1  0
 17 71  1  0
 19 72  1  0
 20 73  1  0
 21 74  1  0
 21 75  1  0
 22 76  1  0
 22 77  1  0
 23 78  1  0
 23 79  1  0
 24 80  1  0
 25 81  1  0
 26 82  1  0
 33 83  1  0
 33 84  1  0
 34 85  1  0
 35 86  1  0
 44 87  1  0
 45 88  1  0
 46 89  1  0
 47 90  1  0
 48 91  1  0
 49 92  1  0
 50 93  1  0
 51 94  1  0
 52 95  1  0
 53 96  1  0
 54 97  1  0
 55 98  1  0
M  END
$$$$
