
     RDKit          3D

 98103  0  0  0  0  0  0  0  0999 V2000
   -0.8499   -0.9376    0.4117 N   0  0  0  0  0  0  0  0  0  0  0  0
   -2.1231   -0.2611    0.7473 C   0  0  1  0  0  0  0  0  0  0  0  0
    1.6652    0.4118   -0.5707 N   0  0  0  0  0  0  0  0  0  0  0  0
   -2.4577    1.0025   -0.0544 C   0  0  0  0  0  0  0  0  0  0  0  0
    0.2796   -0.6210    1.2943 C   0  0  0  0  0  0  0  0  0  0  0  0
   -0.4409   -0.9675   -0.9987 C   0  0  0  0  0  0  0  0  0  0  0  0
   -3.3090   -1.2413    0.8352 C   0  0  0  0  0  0  0  0  0  0  0  0
   -3.1636    0.9477   -1.2720 C   0  0  0  0  0  0  0  0  0  0  0  0
   -2.0716    2.2645    0.4305 C   0  0  0  0  0  0  0  0  0  0  0  0
    1.1897    0.5327    0.8177 C   0  0  0  0  0  0  0  0  0  0  0  0
    0.4980    0.1817   -1.4501 C   0  0  0  0  0  0  0  0  0  0  0  0
   -3.0572    3.3486   -1.4880 C   0  0  0  0  0  0  0  0  0  0  0  0
   -2.3670    3.4304   -0.2819 C   0  0  0  0  0  0  0  0  0  0  0  0
   -3.4596    2.1126   -1.9852 C   0  0  0  0  0  0  0  0  0  0  0  0
   -3.4190    4.7844   -2.3640 Cl  0  0  0  0  0  0  0  0  0  0  0  0
    2.6860   -0.6390   -0.7676 C   0  0  0  0  0  0  0  0  0  0  0  0
    8.0990    0.7879    0.8263 O   0  0  0  0  0  0  0  0  0  0  0  0
    4.6618    0.7665   -0.5112 O   0  0  0  0  0  0  0  0  0  0  0  0
   -4.4760   -0.8426    1.5177 C   0  0  0  0  0  0  0  0  0  0  0  0
   -3.2862   -2.5230    0.2615 C   0  0  0  0  0  0  0  0  0  0  0  0
    7.0197    0.3265    0.0210 C   0  0  0  0  0  0  0  0  0  0  0  0
    4.0227   -0.4151   -0.0306 C   0  0  0  0  0  0  0  0  0  0  0  0
    5.7750    1.1709    0.2822 C   0  0  0  0  0  0  0  0  0  0  0  0
   -4.3887   -3.3746    0.3639 C   0  0  0  0  0  0  0  0  0  0  0  0
   -5.5774   -1.6947    1.6166 C   0  0  0  0  0  0  0  0  0  0  0  0
   -5.5341   -2.9606    1.0401 C   0  0  0  0  0  0  0  0  0  0  0  0
    3.2376    0.5796    1.5584 C   0  0  0  0  0  0  0  0  0  0  0  0
   -3.2110    0.1625   -1.7186 C   0  0  0  0  0  0  0  0  0  0  0  0
   -1.2575    0.8718   -0.4045 C   0  0  0  0  0  0  0  0  0  0  0  0
    1.3365    0.8479    0.0214 C   0  0  0  0  0  0  0  0  0  0  0  0
    2.0912    1.2708    1.1436 C   0  0  0  0  0  0  0  0  0  0  0  0
   -1.9990    0.8599   -1.6114 C   0  0  0  0  0  0  0  0  0  0  0  0
    0.0737    1.6329   -0.3582 C   0  0  0  0  0  0  0  0  0  0  0  0
    3.6551   -0.5387    0.8344 C   0  0  0  0  0  0  0  0  0  0  0  0
   -3.7062   -0.5161   -0.6025 C   0  0  0  0  0  0  0  0  0  0  0  0
    4.0595    0.9490    2.7388 C   0  0  0  0  0  0  0  0  0  0  0  0
   -4.0317    0.0939   -2.9540 C   0  0  0  0  0  0  0  0  0  0  0  0
   -1.8076    0.2228    0.7476 C   0  0  0  0  0  0  0  0  0  0  0  0
    1.8122   -0.2614   -0.7484 C   0  0  0  0  0  0  0  0  0  0  0  0
    2.9686   -0.9595   -0.3096 C   0  0  0  0  0  0  0  0  0  0  0  0
   -3.0312   -0.4869    0.6229 C   0  0  0  0  0  0  0  0  0  0  0  0
    5.0526    0.3683    3.1369 O   0  0  0  0  0  0  0  0  0  0  0  0
   -5.0761   -0.5173   -3.0913 O   0  0  0  0  0  0  0  0  0  0  0  0
    1.6503    2.3876    1.8127 O   0  0  0  0  0  0  0  0  0  0  0  0
   -1.4803    1.5592   -2.6761 O   0  0  0  0  0  0  0  0  0  0  0  0
    3.6072    2.0475    3.3795 O   0  0  0  0  0  0  0  0  0  0  0  0
   -3.5105    0.7989   -3.9816 O   0  0  0  0  0  0  0  0  0  0  0  0
    1.2214   -0.7151   -1.9499 C   0  0  0  0  0  0  0  0  0  0  0  0
   -1.2282    0.2543    2.0373 C   0  0  0  0  0  0  0  0  0  0  0  0
    3.4509   -2.0681   -1.0258 C   0  0  0  0  0  0  0  0  0  0  0  0
   -3.5876   -1.1543    1.7285 C   0  0  0  0  0  0  0  0  0  0  0  0
   -1.7936   -0.4043    3.1333 C   0  0  0  0  0  0  0  0  0  0  0  0
    1.7148   -1.8158   -2.6580 C   0  0  0  0  0  0  0  0  0  0  0  0
   -2.9706   -1.1186    2.9757 C   0  0  0  0  0  0  0  0  0  0  0  0
    2.8278   -2.4973   -2.1928 C   0  0  0  0  0  0  0  0  0  0  0  0
   -2.0355    0.0714    1.7926 H   0  0  0  0  0  0  0  0  0  0  0  0
   -0.0521   -0.4256    2.3226 H   0  0  0  0  0  0  0  0  0  0  0  0
    0.8932   -1.5290    1.3729 H   0  0  0  0  0  0  0  0  0  0  0  0
   -1.3010   -1.0356   -1.6734 H   0  0  0  0  0  0  0  0  0  0  0  0
    0.0911   -1.9156   -1.1535 H   0  0  0  0  0  0  0  0  0  0  0  0
   -3.4959   -0.0074   -1.6776 H   0  0  0  0  0  0  0  0  0  0  0  0
   -1.5333    2.3469    1.3722 H   0  0  0  0  0  0  0  0  0  0  0  0
    2.0290    0.6445    1.5120 H   0  0  0  0  0  0  0  0  0  0  0  0
    0.6404    1.4768    0.9039 H   0  0  0  0  0  0  0  0  0  0  0  0
   -0.0674    1.1182   -1.5055 H   0  0  0  0  0  0  0  0  0  0  0  0
    0.8320   -0.0100   -2.4783 H   0  0  0  0  0  0  0  0  0  0  0  0
   -2.0507    4.3948    0.1090 H   0  0  0  0  0  0  0  0  0  0  0  0
   -4.0050    2.0503   -2.9225 H   0  0  0  0  0  0  0  0  0  0  0  0
    2.9216   -0.6780   -1.8405 H   0  0  0  0  0  0  0  0  0  0  0  0
    2.3007   -1.6266   -0.4876 H   0  0  0  0  0  0  0  0  0  0  0  0
    8.8612    0.2127    0.6328 H   0  0  0  0  0  0  0  0  0  0  0  0
   -4.5281    0.1431    1.9762 H   0  0  0  0  0  0  0  0  0  0  0  0
   -2.4060   -2.8800   -0.2664 H   0  0  0  0  0  0  0  0  0  0  0  0
    7.3048    0.3852   -1.0345 H   0  0  0  0  0  0  0  0  0  0  0  0
    6.8405   -0.7260    0.2591 H   0  0  0  0  0  0  0  0  0  0  0  0
    4.6759   -1.2700   -0.2395 H   0  0  0  0  0  0  0  0  0  0  0  0
    3.8732   -0.3624    1.0521 H   0  0  0  0  0  0  0  0  0  0  0  0
    5.5120    1.1745    1.3459 H   0  0  0  0  0  0  0  0  0  0  0  0
    5.9952    2.2142    0.0279 H   0  0  0  0  0  0  0  0  0  0  0  0
   -4.3514   -4.3640   -0.0837 H   0  0  0  0  0  0  0  0  0  0  0  0
   -6.4694   -1.3673    2.1449 H   0  0  0  0  0  0  0  0  0  0  0  0
   -6.3908   -3.6254    1.1197 H   0  0  0  0  0  0  0  0  0  0  0  0
   -0.0965    2.4792    0.3197 H   0  0  0  0  0  0  0  0  0  0  0  0
    0.2991    2.1164   -1.3179 H   0  0  0  0  0  0  0  0  0  0  0  0
    4.5448   -1.0782    1.1570 H   0  0  0  0  0  0  0  0  0  0  0  0
   -4.6482   -1.0573   -0.6848 H   0  0  0  0  0  0  0  0  0  0  0  0
    2.2709    2.5716    2.5490 H   0  0  0  0  0  0  0  0  0  0  0  0
   -2.1056    1.4803   -3.4272 H   0  0  0  0  0  0  0  0  0  0  0  0
    4.2526    2.1499    4.1163 H   0  0  0  0  0  0  0  0  0  0  0  0
   -4.1666    0.6496   -4.7009 H   0  0  0  0  0  0  0  0  0  0  0  0
    0.3684   -0.2010   -2.3776 H   0  0  0  0  0  0  0  0  0  0  0  0
   -0.3221    0.8187    2.2222 H   0  0  0  0  0  0  0  0  0  0  0  0
    4.3315   -2.6066   -0.6818 H   0  0  0  0  0  0  0  0  0  0  0  0
   -4.5191   -1.7086    1.6285 H   0  0  0  0  0  0  0  0  0  0  0  0
   -1.3066   -0.3544    4.1043 H   0  0  0  0  0  0  0  0  0  0  0  0
    1.2269   -2.1272   -3.5780 H   0  0  0  0  0  0  0  0  0  0  0  0
   -3.4164   -1.6340    3.8208 H   0  0  0  0  0  0  0  0  0  0  0  0
    3.2183   -3.3519   -2.7381 H   0  0  0  0  0  0  0  0  0  0  0  0
  2  1  1  0
  3 10  1  0
  4  2  1  0
  5  1  1  0
  6  1  1  0
  7  2  1  0
  8  4  2  0
  9  4  1  0
 10  5  1  0
 11  6  1  0
 12 14  2  0
 13  9  2  0
 14  8  1  0
 15 12  1  0
 16  3  1  0
 17 21  1  0
 18 22  1  0
 19  7  2  0
 20  7  1  0
 21 23  1  0
 22 16  1  0
 23 18  1  0
 24 20  2  0
 25 19  1  0
 26 25  2  0
 11  3  1  0
 13 12  1  0
 24 26  1  0
 28 32  2  0
 29 33  1  0
 30 31  1  0
 31 27  2  0
 32 29  1  0
 33 30  1  0
 34 27  1  0
 35 28  1  0
 36 27  1  0
 37 28  1  0
 38 29  2  0
 39 40  1  0
 40 34  2  0
 41 38  1  0
 42 36  2  0
 43 37  2  0
 44 31  1  0
 45 32  1  0
 46 36  1  0
 47 37  1  0
 48 39  1  0
 49 38  1  0
 50 40  1  0
 51 41  1  0
 52 49  2  0
 53 48  2  0
 54 52  1  0
 55 50  2  0
 30 39  2  0
 53 55  1  0
 35 41  2  0
 51 54  2  0
  2 56  1  1
  5 57  1  0
  5 58  1  0
  6 59  1  0
  6 60  1  0
  8 61  1  0
  9 62  1  0
 10 63  1  0
 10 64  1  0
 11 65  1  0
 11 66  1  0
 13 67  1  0
 14 68  1  0
 16 69  1  0
 16 70  1  0
 17 71  1  0
 19 72  1  0
 20 73  1  0
 21 74  1  0
 21 75  1  0
 22 76  1  0
 22 77  1  0
 23 78  1  0
 23 79  1  0
 24 80  1  0
 25 81  1  0
 26 82  1  0
 33 83  1  0
 33 84  1  0
 34 85  1  0
 35 86  1  0
 44 87  1  0
 45 88  1  0
 46 89  1  0
 47 90  1  0
 48 91  1  0
 49 92  1  0
 50 93  1  0
 51 94  1  0
 52 95  1  0
 53 96  1  0
 54 97  1  0
 55 98  1  0
M  END
$$$$
