
     RDKit          3D

 55 60  0  0  0  0  0  0  0  0999 V2000
    0.0209   -0.5590   -0.4975 N   0  0  0  0  0  0  0  0  0  0  0  0
   -1.2152   -0.3215    0.1869 C   0  0  0  0  0  0  0  0  0  0  0  0
    2.4925   -2.0300   -0.3232 N   0  0  0  0  0  0  0  0  0  0  0  0
   -1.5318    1.0716    0.4848 C   0  0  0  0  0  0  0  0  0  0  0  0
    0.1578   -2.0082   -0.7069 C   0  0  0  0  0  0  0  0  0  0  0  0
    1.1693    0.0006    0.1147 C   0  0  0  0  0  0  0  0  0  0  0  0
   -2.3246   -1.1493   -0.2810 C   0  0  0  0  0  0  0  0  0  0  0  0
   -2.0126    1.4204    1.7522 C   0  0  0  0  0  0  0  0  0  0  0  0
   -1.3920    2.1058   -0.4073 C   0  0  0  0  0  0  0  0  0  0  0  0
    1.5169   -2.1789   -1.3722 C   0  0  0  0  0  0  0  0  0  0  0  0
    2.2188   -0.9438    0.5699 C   0  0  0  0  0  0  0  0  0  0  0  0
   -2.1634    3.7235    1.1380 C   0  0  0  0  0  0  0  0  0  0  0  0
   -1.6959    3.4183   -0.1100 C   0  0  0  0  0  0  0  0  0  0  0  0
   -2.3279    2.7321    2.0838 C   0  0  0  0  0  0  0  0  0  0  0  0
   -2.5414    5.3945    1.4903 Cl  0  0  0  0  0  0  0  0  0  0  0  0
    3.8301   -2.0986   -0.8221 C   0  0  0  0  0  0  0  0  0  0  0  0
    4.7672    2.5826   -0.7486 O   0  0  0  0  0  0  0  0  0  0  0  0
    4.6464   -0.6801    0.8543 O   0  0  0  0  0  0  0  0  0  0  0  0
   -2.5213   -1.3036   -1.6350 C   0  0  0  0  0  0  0  0  0  0  0  0
   -3.1834   -1.7828    0.5913 C   0  0  0  0  0  0  0  0  0  0  0  0
    4.6035    1.6572    0.2828 C   0  0  0  0  0  0  0  0  0  0  0  0
    4.8690   -1.9430    0.2736 C   0  0  0  0  0  0  0  0  0  0  0  0
    4.8167    0.2392   -0.2051 C   0  0  0  0  0  0  0  0  0  0  0  0
   -4.2294   -2.5631    0.1738 C   0  0  0  0  0  0  0  0  0  0  0  0
   -3.5534   -2.0737   -2.0772 C   0  0  0  0  0  0  0  0  0  0  0  0
   -4.4167   -2.7104   -1.1789 C   0  0  0  0  0  0  0  0  0  0  0  0
   -2.8109    0.6073   -1.3980 C   0  0  0  0  0  0  0  0  0  0  0  0
    2.8623   -1.4200    0.3118 C   0  0  0  0  0  0  0  0  0  0  0  0
    1.2283    0.3415    0.7023 C   0  0  0  0  0  0  0  0  0  0  0  0
   -1.2527    0.5328    0.4704 C   0  0  0  0  0  0  0  0  0  0  0  0
   -1.6146    0.9678   -0.7826 C   0  0  0  0  0  0  0  0  0  0  0  0
    1.6262   -0.9688    0.7734 C   0  0  0  0  0  0  0  0  0  0  0  0
   -0.0406    0.8850    1.1937 C   0  0  0  0  0  0  0  0  0  0  0  0
   -3.7046   -0.2235   -0.7565 C   0  0  0  0  0  0  0  0  0  0  0  0
    3.7296   -0.5050   -0.2442 C   0  0  0  0  0  0  0  0  0  0  0  0
   -3.1285    1.1076   -2.7294 C   0  0  0  0  0  0  0  0  0  0  0  0
    3.2312   -2.8238    0.4134 C   0  0  0  0  0  0  0  0  0  0  0  0
    2.1368    1.2358    0.1326 C   0  0  0  0  0  0  0  0  0  0  0  0
   -2.1675   -0.3095    1.1130 C   0  0  0  0  0  0  0  0  0  0  0  0
   -3.3627   -0.6768    0.5119 C   0  0  0  0  0  0  0  0  0  0  0  0
    3.3755    0.8220   -0.3372 C   0  0  0  0  0  0  0  0  0  0  0  0
   -2.3524    1.8679   -3.3607 O   0  0  0  0  0  0  0  0  0  0  0  0
    4.3538   -3.2015   -0.0120 O   0  0  0  0  0  0  0  0  0  0  0  0
   -0.7862    1.7979   -1.4947 O   0  0  0  0  0  0  0  0  0  0  0  0
    0.8020   -1.9365    1.3205 O   0  0  0  0  0  0  0  0  0  0  0  0
   -4.3128    0.7541   -3.3461 O   0  0  0  0  0  0  0  0  0  0  0  0
    2.3436   -3.7303    0.9770 O   0  0  0  0  0  0  0  0  0  0  0  0
   -1.9463   -0.8101    2.3759 C   0  0  0  0  0  0  0  0  0  0  0  0
    1.8712    2.5853    0.0119 C   0  0  0  0  0  0  0  0  0  0  0  0
   -4.2840   -1.4986    1.1366 C   0  0  0  0  0  0  0  0  0  0  0  0
    4.2901    1.6932   -0.8923 C   0  0  0  0  0  0  0  0  0  0  0  0
    2.7675    3.4770   -0.5384 C   0  0  0  0  0  0  0  0  0  0  0  0
   -2.8330   -1.6269    3.0302 C   0  0  0  0  0  0  0  0  0  0  0  0
    3.9896    3.0343   -0.9968 C   0  0  0  0  0  0  0  0  0  0  0  0
   -4.0110   -1.9784    2.4144 C   0  0  0  0  0  0  0  0  0  0  0  0
  2  1  1  0
  3 10  1  0
  4  2  1  0
  5  1  1  0
  6  1  1  0
  7  2  1  0
  8  4  2  0
  9  4  1  0
 10  5  1  0
 11  6  1  0
 12 14  2  0
 13  9  2  0
 14  8  1  0
 15 12  1  0
 16  3  1  0
 17 21  1  0
 18 22  1  0
 19  7  2  0
 20  7  1  0
 21 23  1  0
 22 16  1  0
 23 18  1  0
 24 20  2  0
 25 19  1  0
 26 25  2  0
 11  3  1  0
 13 12  1  0
 24 26  1  0
 28 32  2  0
 29 33  1  0
 30 31  1  0
 31 27  2  0
 32 29  1  0
 33 30  1  0
 34 27  1  0
 35 28  1  0
 36 27  1  0
 37 28  1  0
 38 29  2  0
 39 40  1  0
 40 34  2  0
 41 38  1  0
 42 36  2  0
 43 37  2  0
 44 31  1  0
 45 32  1  0
 46 36  1  0
 47 37  1  0
 48 39  1  0
 49 38  1  0
 50 40  1  0
 51 41  1  0
 52 49  2  0
 53 48  2  0
 54 52  1  0
 55 50  2  0
 30 39  2  0
 53 55  1  0
 35 41  2  0
 51 54  2  0
M  END
