
     RDKit          3D

 98103  0  0  0  0  0  0  0  0999 V2000
   -1.1466    0.5610   -0.6440 N   0  0  0  0  0  0  0  0  0  0  0  0
   -1.9844    0.1061    0.5051 C   0  0  1  0  0  0  0  0  0  0  0  0
    1.8915    0.5501   -1.0970 N   0  0  0  0  0  0  0  0  0  0  0  0
   -2.8869    1.2143    1.0713 C   0  0  0  0  0  0  0  0  0  0  0  0
   -0.2260    1.6666   -0.2752 C   0  0  0  0  0  0  0  0  0  0  0  0
   -0.3790   -0.5599   -1.2445 C   0  0  0  0  0  0  0  0  0  0  0  0
   -2.8462   -1.1286    0.1911 C   0  0  0  0  0  0  0  0  0  0  0  0
   -3.5854    2.1016    0.2344 C   0  0  0  0  0  0  0  0  0  0  0  0
   -3.0558    1.3325    2.4615 C   0  0  0  0  0  0  0  0  0  0  0  0
    1.2191    1.2168    0.0405 C   0  0  0  0  0  0  0  0  0  0  0  0
    0.8980   -0.0988   -1.9805 C   0  0  0  0  0  0  0  0  0  0  0  0
   -4.5610    3.1925    2.1499 C   0  0  0  0  0  0  0  0  0  0  0  0
   -3.8866    2.3189    2.9974 C   0  0  0  0  0  0  0  0  0  0  0  0
   -4.4146    3.0876    0.7711 C   0  0  0  0  0  0  0  0  0  0  0  0
   -5.6019    4.3953    2.8069 Cl  0  0  0  0  0  0  0  0  0  0  0  0
    2.9191   -0.4049   -0.6462 C   0  0  0  0  0  0  0  0  0  0  0  0
    8.1686   -0.6787   -1.3874 O   0  0  0  0  0  0  0  0  0  0  0  0
    5.0315   -0.7359    0.5534 O   0  0  0  0  0  0  0  0  0  0  0  0
   -2.8491   -2.2269    1.0671 C   0  0  0  0  0  0  0  0  0  0  0  0
   -3.6623   -1.1899   -0.9512 C   0  0  0  0  0  0  0  0  0  0  0  0
    7.1685   -0.1806   -0.5050 C   0  0  0  0  0  0  0  0  0  0  0  0
    4.0967    0.2480    0.0993 C   0  0  0  0  0  0  0  0  0  0  0  0
    5.9855   -1.1459   -0.4260 C   0  0  0  0  0  0  0  0  0  0  0  0
   -4.4430   -2.3165   -1.2180 C   0  0  0  0  0  0  0  0  0  0  0  0
   -3.6292   -3.3537    0.7984 C   0  0  0  0  0  0  0  0  0  0  0  0
   -4.4228   -3.3982   -0.3438 C   0  0  0  0  0  0  0  0  0  0  0  0
    2.3268   -1.4520    1.5808 C   0  0  0  0  0  0  0  0  0  0  0  0
   -1.8927    2.3978    0.1713 C   0  0  0  0  0  0  0  0  0  0  0  0
   -1.3050    0.1406   -0.5845 C   0  0  0  0  0  0  0  0  0  0  0  0
    1.0906   -0.8727   -0.4547 C   0  0  0  0  0  0  0  0  0  0  0  0
    1.1243   -1.3682    0.8679 C   0  0  0  0  0  0  0  0  0  0  0  0
   -0.9753    1.5004   -0.3846 C   0  0  0  0  0  0  0  0  0  0  0  0
   -0.2565   -0.8001   -1.1724 C   0  0  0  0  0  0  0  0  0  0  0  0
    3.5201   -1.0801    0.9548 C   0  0  0  0  0  0  0  0  0  0  0  0
   -3.1736    1.9491    0.4932 C   0  0  0  0  0  0  0  0  0  0  0  0
    2.4343   -1.9373    2.9810 C   0  0  0  0  0  0  0  0  0  0  0  0
   -1.6111    3.8292    0.4433 C   0  0  0  0  0  0  0  0  0  0  0  0
   -2.6324   -0.3064   -0.2762 C   0  0  0  0  0  0  0  0  0  0  0  0
    2.3163   -0.4893   -1.0915 C   0  0  0  0  0  0  0  0  0  0  0  0
    3.5311   -0.6120   -0.3649 C   0  0  0  0  0  0  0  0  0  0  0  0
   -3.5575    0.6229    0.2693 C   0  0  0  0  0  0  0  0  0  0  0  0
    3.4667   -2.1291    3.6022 O   0  0  0  0  0  0  0  0  0  0  0  0
   -2.4053    4.6491    0.8617 O   0  0  0  0  0  0  0  0  0  0  0  0
   -0.0667   -1.7871    1.4109 O   0  0  0  0  0  0  0  0  0  0  0  0
    0.2676    1.9181   -0.7925 O   0  0  0  0  0  0  0  0  0  0  0  0
    1.2350   -2.1579    3.5594 O   0  0  0  0  0  0  0  0  0  0  0  0
   -0.3330    4.1771    0.2025 O   0  0  0  0  0  0  0  0  0  0  0  0
    2.4165    0.0167   -2.4127 C   0  0  0  0  0  0  0  0  0  0  0  0
   -3.1118   -1.6257   -0.4726 C   0  0  0  0  0  0  0  0  0  0  0  0
    4.7571   -0.2595   -0.9580 C   0  0  0  0  0  0  0  0  0  0  0  0
   -4.8710    0.2320    0.5855 C   0  0  0  0  0  0  0  0  0  0  0  0
   -4.4249   -1.9959   -0.1610 C   0  0  0  0  0  0  0  0  0  0  0  0
    3.6421    0.3596   -2.9919 C   0  0  0  0  0  0  0  0  0  0  0  0
   -5.3074   -1.0679    0.3630 C   0  0  0  0  0  0  0  0  0  0  0  0
    4.8138    0.2159   -2.2643 C   0  0  0  0  0  0  0  0  0  0  0  0
   -1.2836   -0.1834    1.3039 H   0  0  0  0  0  0  0  0  0  0  0  0
   -0.5986    2.2600    0.5659 H   0  0  0  0  0  0  0  0  0  0  0  0
   -0.1979    2.3671   -1.1204 H   0  0  0  0  0  0  0  0  0  0  0  0
   -1.0124   -1.0792   -1.9722 H   0  0  0  0  0  0  0  0  0  0  0  0
   -0.0805   -1.2901   -0.4796 H   0  0  0  0  0  0  0  0  0  0  0  0
   -3.4804    2.0316   -0.8458 H   0  0  0  0  0  0  0  0  0  0  0  0
   -2.5418    0.6542    3.1380 H   0  0  0  0  0  0  0  0  0  0  0  0
    1.1792    0.5582    0.9200 H   0  0  0  0  0  0  0  0  0  0  0  0
    1.8038    2.1006    0.3228 H   0  0  0  0  0  0  0  0  0  0  0  0
    0.6129    0.6264   -2.7553 H   0  0  0  0  0  0  0  0  0  0  0  0
    1.3395   -0.9432   -2.5248 H   0  0  0  0  0  0  0  0  0  0  0  0
   -4.0066    2.3929    4.0748 H   0  0  0  0  0  0  0  0  0  0  0  0
   -4.9446    3.7606    0.1070 H   0  0  0  0  0  0  0  0  0  0  0  0
    3.3316   -0.9227   -1.5205 H   0  0  0  0  0  0  0  0  0  0  0  0
    2.4786   -1.1900   -0.0180 H   0  0  0  0  0  0  0  0  0  0  0  0
    8.5818   -1.4487   -0.9555 H   0  0  0  0  0  0  0  0  0  0  0  0
   -2.2468   -2.2137    1.9730 H   0  0  0  0  0  0  0  0  0  0  0  0
   -3.6803   -0.3603   -1.6528 H   0  0  0  0  0  0  0  0  0  0  0  0
    7.6153   -0.0173    0.4795 H   0  0  0  0  0  0  0  0  0  0  0  0
    6.8493    0.7987   -0.8749 H   0  0  0  0  0  0  0  0  0  0  0  0
    3.7320    0.7516    1.0005 H   0  0  0  0  0  0  0  0  0  0  0  0
    4.5879    1.0048   -0.5227 H   0  0  0  0  0  0  0  0  0  0  0  0
    5.5286   -1.2857   -1.4134 H   0  0  0  0  0  0  0  0  0  0  0  0
    6.3532   -2.1333   -0.1246 H   0  0  0  0  0  0  0  0  0  0  0  0
   -5.0630   -2.3455   -2.1112 H   0  0  0  0  0  0  0  0  0  0  0  0
   -3.6269   -4.1928    1.4839 H   0  0  0  0  0  0  0  0  0  0  0  0
   -5.0280   -4.2736   -0.5545 H   0  0  0  0  0  0  0  0  0  0  0  0
   -0.6033   -1.8384   -1.2000 H   0  0  0  0  0  0  0  0  0  0  0  0
   -0.1612   -0.5365   -2.2323 H   0  0  0  0  0  0  0  0  0  0  0  0
    4.4555   -1.1505    1.5065 H   0  0  0  0  0  0  0  0  0  0  0  0
   -3.8875    2.6512    0.9206 H   0  0  0  0  0  0  0  0  0  0  0  0
    0.0661   -1.9052    2.3732 H   0  0  0  0  0  0  0  0  0  0  0  0
    0.3953    2.8466   -0.5073 H   0  0  0  0  0  0  0  0  0  0  0  0
    1.4870   -2.4736    4.4572 H   0  0  0  0  0  0  0  0  0  0  0  0
   -0.3106    5.1270    0.4624 H   0  0  0  0  0  0  0  0  0  0  0  0
    1.5296    0.1794   -3.0176 H   0  0  0  0  0  0  0  0  0  0  0  0
   -2.4775   -2.4072   -0.8813 H   0  0  0  0  0  0  0  0  0  0  0  0
    5.6889   -0.3531   -0.4044 H   0  0  0  0  0  0  0  0  0  0  0  0
   -5.5702    0.9523    1.0048 H   0  0  0  0  0  0  0  0  0  0  0  0
   -4.7489   -3.0191   -0.3302 H   0  0  0  0  0  0  0  0  0  0  0  0
    3.6761    0.7400   -4.0094 H   0  0  0  0  0  0  0  0  0  0  0  0
   -6.3280   -1.3547    0.6038 H   0  0  0  0  0  0  0  0  0  0  0  0
    5.7707    0.4744   -2.7110 H   0  0  0  0  0  0  0  0  0  0  0  0
  2  1  1  0
  3 10  1  0
  4  2  1  0
  5  1  1  0
  6  1  1  0
  7  2  1  0
  8  4  2  0
  9  4  1  0
 10  5  1  0
 11  6  1  0
 12 14  2  0
 13  9  2  0
 14  8  1  0
 15 12  1  0
 16  3  1  0
 17 21  1  0
 18 22  1  0
 19  7  2  0
 20  7  1  0
 21 23  1  0
 22 16  1  0
 23 18  1  0
 24 20  2  0
 25 19  1  0
 26 25  2  0
 11  3  1  0
 13 12  1  0
 24 26  1  0
 28 32  2  0
 29 33  1  0
 30 31  1  0
 31 27  2  0
 32 29  1  0
 33 30  1  0
 34 27  1  0
 35 28  1  0
 36 27  1  0
 37 28  1  0
 38 29  2  0
 39 40  1  0
 40 34  2  0
 41 38  1  0
 42 36  2  0
 43 37  2  0
 44 31  1  0
 45 32  1  0
 46 36  1  0
 47 37  1  0
 48 39  1  0
 49 38  1  0
 50 40  1  0
 51 41  1  0
 52 49  2  0
 53 48  2  0
 54 52  1  0
 55 50  2  0
 30 39  2  0
 53 55  1  0
 35 41  2  0
 51 54  2  0
  2 56  1  1
  5 57  1  0
  5 58  1  0
  6 59  1  0
  6 60  1  0
  8 61  1  0
  9 62  1  0
 10 63  1  0
 10 64  1  0
 11 65  1  0
 11 66  1  0
 13 67  1  0
 14 68  1  0
 16 69  1  0
 16 70  1  0
 17 71  1  0
 19 72  1  0
 20 73  1  0
 21 74  1  0
 21 75  1  0
 22 76  1  0
 22 77  1  0
 23 78  1  0
 23 79  1  0
 24 80  1  0
 25 81  1  0
 26 82  1  0
 33 83  1  0
 33 84  1  0
 34 85  1  0
 35 86  1  0
 44 87  1  0
 45 88  1  0
 46 89  1  0
 47 90  1  0
 48 91  1  0
 49 92  1  0
 50 93  1  0
 51 94  1  0
 52 95  1  0
 53 96  1  0
 54 97  1  0
 55 98  1  0
M  END
$$$$
