
     RDKit          3D

 98103  0  0  0  0  0  0  0  0999 V2000
    1.0402   -0.4222    0.6213 N   0  0  0  0  0  0  0  0  0  0  0  0
    2.1752   -0.1715   -0.3146 C   0  0  1  0  0  0  0  0  0  0  0  0
   -1.9412   -0.5660   -0.0644 N   0  0  0  0  0  0  0  0  0  0  0  0
    3.0634    1.0108    0.1080 C   0  0  0  0  0  0  0  0  0  0  0  0
    0.1142    0.7327    0.7166 C   0  0  0  0  0  0  0  0  0  0  0  0
    0.2855   -1.6445    0.2441 C   0  0  0  0  0  0  0  0  0  0  0  0
    3.0643   -1.4012   -0.5524 C   0  0  0  0  0  0  0  0  0  0  0  0
    3.3994    1.2422    1.4544 C   0  0  0  0  0  0  0  0  0  0  0  0
    3.5968    1.8661   -0.8729 C   0  0  0  0  0  0  0  0  0  0  0  0
   -1.1344    0.6643   -0.1971 C   0  0  0  0  0  0  0  0  0  0  0  0
   -1.1974   -1.6098    0.6680 C   0  0  0  0  0  0  0  0  0  0  0  0
    4.7393    3.1468    0.8252 C   0  0  0  0  0  0  0  0  0  0  0  0
    4.4283    2.9305   -0.5156 C   0  0  0  0  0  0  0  0  0  0  0  0
    4.2299    2.3070    1.8120 C   0  0  0  0  0  0  0  0  0  0  0  0
    5.7637    4.4575    1.2637 Cl  0  0  0  0  0  0  0  0  0  0  0  0
   -3.2530   -0.3346    0.5555 C   0  0  0  0  0  0  0  0  0  0  0  0
   -7.5745    2.0704    1.3555 O   0  0  0  0  0  0  0  0  0  0  0  0
   -5.5010    0.5015    0.2978 O   0  0  0  0  0  0  0  0  0  0  0  0
    3.6270   -2.1213    0.5156 C   0  0  0  0  0  0  0  0  0  0  0  0
    3.3500   -1.8183   -1.8635 C   0  0  0  0  0  0  0  0  0  0  0  0
   -7.7890    1.2014    0.2451 C   0  0  0  0  0  0  0  0  0  0  0  0
   -4.2508    0.3569   -0.3857 C   0  0  0  0  0  0  0  0  0  0  0  0
   -6.5011    1.0679   -0.5602 C   0  0  0  0  0  0  0  0  0  0  0  0
    4.1643   -2.9280   -2.0962 C   0  0  0  0  0  0  0  0  0  0  0  0
    4.4413   -3.2305    0.2813 C   0  0  0  0  0  0  0  0  0  0  0  0
    4.7078   -3.6337   -1.0248 C   0  0  0  0  0  0  0  0  0  0  0  0
   -3.1254   -2.1251    0.4973 C   0  0  0  0  0  0  0  0  0  0  0  0
    2.5427    0.1008    1.5761 C   0  0  0  0  0  0  0  0  0  0  0  0
    1.2919   -0.3258   -0.4918 C   0  0  0  0  0  0  0  0  0  0  0  0
   -1.2433   -0.9567   -0.5543 C   0  0  0  0  0  0  0  0  0  0  0  0
   -1.8851   -2.1512   -0.1538 C   0  0  0  0  0  0  0  0  0  0  0  0
    1.5199   -0.5629    0.8835 C   0  0  0  0  0  0  0  0  0  0  0  0
    0.1399   -1.0430   -1.2034 C   0  0  0  0  0  0  0  0  0  0  0  0
   -3.7498   -0.8948    0.7251 C   0  0  0  0  0  0  0  0  0  0  0  0
    3.3714    0.9904    0.8907 C   0  0  0  0  0  0  0  0  0  0  0  0
   -3.8481   -3.3333    0.9712 C   0  0  0  0  0  0  0  0  0  0  0  0
    2.7388   -0.1487    3.0236 C   0  0  0  0  0  0  0  0  0  0  0  0
    2.1848    0.5460   -1.2033 C   0  0  0  0  0  0  0  0  0  0  0  0
   -1.9099    0.2941   -0.3572 C   0  0  0  0  0  0  0  0  0  0  0  0
   -3.1677    0.3052    0.2992 C   0  0  0  0  0  0  0  0  0  0  0  0
    3.2141    1.2090   -0.4824 C   0  0  0  0  0  0  0  0  0  0  0  0
   -4.9365   -3.3509    1.5161 O   0  0  0  0  0  0  0  0  0  0  0  0
    2.0724   -0.9254    3.6876 O   0  0  0  0  0  0  0  0  0  0  0  0
   -1.2503   -3.3353   -0.4409 O   0  0  0  0  0  0  0  0  0  0  0  0
    0.7199   -1.4832    1.5162 O   0  0  0  0  0  0  0  0  0  0  0  0
   -3.1763   -4.4816    0.7484 O   0  0  0  0  0  0  0  0  0  0  0  0
    3.7328    0.5685    3.5735 O   0  0  0  0  0  0  0  0  0  0  0  0
   -1.4048    1.5449   -0.7863 C   0  0  0  0  0  0  0  0  0  0  0  0
    2.1262    0.8057   -2.5970 C   0  0  0  0  0  0  0  0  0  0  0  0
   -3.8428    1.5170    0.5233 C   0  0  0  0  0  0  0  0  0  0  0  0
    4.0946    2.0881   -1.1354 C   0  0  0  0  0  0  0  0  0  0  0  0
    3.0113    1.6807   -3.2350 C   0  0  0  0  0  0  0  0  0  0  0  0
   -2.0863    2.7435   -0.5581 C   0  0  0  0  0  0  0  0  0  0  0  0
    3.9946    2.3253   -2.5026 C   0  0  0  0  0  0  0  0  0  0  0  0
   -3.3046    2.7299    0.1020 C   0  0  0  0  0  0  0  0  0  0  0  0
    1.7224    0.0984   -1.2804 H   0  0  0  0  0  0  0  0  0  0  0  0
   -0.2303    0.7816    1.7585 H   0  0  0  0  0  0  0  0  0  0  0  0
    0.6183    1.6897    0.5449 H   0  0  0  0  0  0  0  0  0  0  0  0
    0.3138   -1.8093   -0.8419 H   0  0  0  0  0  0  0  0  0  0  0  0
    0.7560   -2.5120    0.7197 H   0  0  0  0  0  0  0  0  0  0  0  0
    3.0083    0.5901    2.2327 H   0  0  0  0  0  0  0  0  0  0  0  0
    3.3736    1.7020   -1.9252 H   0  0  0  0  0  0  0  0  0  0  0  0
   -1.7349    1.5659   -0.0262 H   0  0  0  0  0  0  0  0  0  0  0  0
   -0.7998    0.7224   -1.2408 H   0  0  0  0  0  0  0  0  0  0  0  0
   -1.2603   -1.4590    1.7543 H   0  0  0  0  0  0  0  0  0  0  0  0
   -1.6488   -2.5850    0.4495 H   0  0  0  0  0  0  0  0  0  0  0  0
    4.8334    3.5810   -1.2864 H   0  0  0  0  0  0  0  0  0  0  0  0
    4.4769    2.4690    2.8575 H   0  0  0  0  0  0  0  0  0  0  0  0
   -3.7034   -1.2956    0.8397 H   0  0  0  0  0  0  0  0  0  0  0  0
   -3.1597    0.2303    1.4924 H   0  0  0  0  0  0  0  0  0  0  0  0
   -6.7444    1.7581    1.7649 H   0  0  0  0  0  0  0  0  0  0  0  0
    3.4222   -1.8222    1.5404 H   0  0  0  0  0  0  0  0  0  0  0  0
    2.9379   -1.2810   -2.7144 H   0  0  0  0  0  0  0  0  0  0  0  0
   -8.1049    0.2327    0.6428 H   0  0  0  0  0  0  0  0  0  0  0  0
   -8.5935    1.6154   -0.3677 H   0  0  0  0  0  0  0  0  0  0  0  0
   -3.8941    1.3491   -0.6811 H   0  0  0  0  0  0  0  0  0  0  0  0
   -4.3973   -0.2511   -1.2869 H   0  0  0  0  0  0  0  0  0  0  0  0
   -6.1638    2.0554   -0.8957 H   0  0  0  0  0  0  0  0  0  0  0  0
   -6.6625    0.4148   -1.4245 H   0  0  0  0  0  0  0  0  0  0  0  0
    4.3772   -3.2411   -3.1150 H   0  0  0  0  0  0  0  0  0  0  0  0
    4.8671   -3.7774    1.1187 H   0  0  0  0  0  0  0  0  0  0  0  0
    5.3424   -4.4967   -1.2078 H   0  0  0  0  0  0  0  0  0  0  0  0
    0.4676   -2.0808   -1.3353 H   0  0  0  0  0  0  0  0  0  0  0  0
   -0.0091   -0.6765   -2.2217 H   0  0  0  0  0  0  0  0  0  0  0  0
   -4.7135   -0.8750    1.2334 H   0  0  0  0  0  0  0  0  0  0  0  0
    4.1634    1.5090    1.4282 H   0  0  0  0  0  0  0  0  0  0  0  0
   -1.7633   -4.0630   -0.0321 H   0  0  0  0  0  0  0  0  0  0  0  0
    0.9589   -1.5387    2.4656 H   0  0  0  0  0  0  0  0  0  0  0  0
   -3.7787   -5.1625    1.1244 H   0  0  0  0  0  0  0  0  0  0  0  0
    3.7357    0.3008    4.5165 H   0  0  0  0  0  0  0  0  0  0  0  0
   -0.4614    1.6118   -1.3187 H   0  0  0  0  0  0  0  0  0  0  0  0
    1.3886    0.3221   -3.2313 H   0  0  0  0  0  0  0  0  0  0  0  0
   -4.8044    1.5266    1.0326 H   0  0  0  0  0  0  0  0  0  0  0  0
    4.8786    2.5987   -0.5783 H   0  0  0  0  0  0  0  0  0  0  0  0
    2.9272    1.8503   -4.3054 H   0  0  0  0  0  0  0  0  0  0  0  0
   -1.6599    3.6828   -0.9003 H   0  0  0  0  0  0  0  0  0  0  0  0
    4.6859    3.0055   -2.9925 H   0  0  0  0  0  0  0  0  0  0  0  0
   -3.8400    3.6578    0.2824 H   0  0  0  0  0  0  0  0  0  0  0  0
  2  1  1  0
  3 10  1  0
  4  2  1  0
  5  1  1  0
  6  1  1  0
  7  2  1  0
  8  4  2  0
  9  4  1  0
 10  5  1  0
 11  6  1  0
 12 14  2  0
 13  9  2  0
 14  8  1  0
 15 12  1  0
 16  3  1  0
 17 21  1  0
 18 22  1  0
 19  7  2  0
 20  7  1  0
 21 23  1  0
 22 16  1  0
 23 18  1  0
 24 20  2  0
 25 19  1  0
 26 25  2  0
 11  3  1  0
 13 12  1  0
 24 26  1  0
 28 32  2  0
 29 33  1  0
 30 31  1  0
 31 27  2  0
 32 29  1  0
 33 30  1  0
 34 27  1  0
 35 28  1  0
 36 27  1  0
 37 28  1  0
 38 29  2  0
 39 40  1  0
 40 34  2  0
 41 38  1  0
 42 36  2  0
 43 37  2  0
 44 31  1  0
 45 32  1  0
 46 36  1  0
 47 37  1  0
 48 39  1  0
 49 38  1  0
 50 40  1  0
 51 41  1  0
 52 49  2  0
 53 48  2  0
 54 52  1  0
 55 50  2  0
 30 39  2  0
 53 55  1  0
 35 41  2  0
 51 54  2  0
  2 56  1  6
  5 57  1  0
  5 58  1  0
  6 59  1  0
  6 60  1  0
  8 61  1  0
  9 62  1  0
 10 63  1  0
 10 64  1  0
 11 65  1  0
 11 66  1  0
 13 67  1  0
 14 68  1  0
 16 69  1  0
 16 70  1  0
 17 71  1  0
 19 72  1  0
 20 73  1  0
 21 74  1  0
 21 75  1  0
 22 76  1  0
 22 77  1  0
 23 78  1  0
 23 79  1  0
 24 80  1  0
 25 81  1  0
 26 82  1  0
 33 83  1  0
 33 84  1  0
 34 85  1  0
 35 86  1  0
 44 87  1  0
 45 88  1  0
 46 89  1  0
 47 90  1  0
 48 91  1  0
 49 92  1  0
 50 93  1  0
 51 94  1  0
 52 95  1  0
 53 96  1  0
 54 97  1  0
 55 98  1  0
M  END
$$$$
