
     RDKit          3D

 59 60  0  0  0  0  0  0  0  0999 V2000
    1.4325    0.2615   -0.4189 N   0  0  0  0  0  0  0  0  0  0  0  0
    2.7524    0.6017   -0.5103 C   0  0  0  0  0  0  0  0  0  0  0  0
    0.6724    0.6600    0.7771 C   0  0  0  0  0  0  0  0  0  0  0  0
   -0.7299    0.0916    0.8605 C   0  0  0  0  0  0  0  0  0  0  0  0
    3.6181    0.5681    0.4414 N   0  0  0  0  0  0  0  0  0  0  0  0
    0.6182   -0.0047   -1.6109 C   0  0  0  0  0  0  0  0  0  0  0  0
   -1.2554   -0.7426   -0.1389 C   0  0  0  0  0  0  0  0  0  0  0  0
   -0.4035   -1.1028   -1.3235 C   0  0  0  0  0  0  0  0  0  0  0  0
    3.1916    1.0234   -1.7140 N   0  0  0  0  0  0  0  0  0  0  0  0
   -1.5293    0.4094    1.9714 C   0  0  0  0  0  0  0  0  0  0  0  0
   -2.5476   -1.2688   -0.0056 C   0  0  0  0  0  0  0  0  0  0  0  0
   -2.8207   -0.1057    2.0907 C   0  0  0  0  0  0  0  0  0  0  0  0
   -3.3277   -0.9467    1.1038 C   0  0  0  0  0  0  0  0  0  0  0  0
   -0.0720    0.3606    0.2546 S   0  0  0  0  0  0  0  0  0  0  0  0
   -0.8919    0.2132    1.4301 O   0  0  0  0  0  0  0  0  0  0  0  0
    0.5852    1.5881   -0.1162 O   0  0  0  0  0  0  0  0  0  0  0  0
    1.0698   -0.7653    0.2947 O   0  0  0  0  0  0  0  0  0  0  0  0
   -0.9582   -0.1384   -0.9866 O   0  0  0  0  0  0  0  0  0  0  0  0
   -1.5165    0.1657    0.0035 N   0  0  0  0  0  0  0  0  0  0  0  0
   -2.7946    0.6270    0.1601 C   0  0  0  0  0  0  0  0  0  0  0  0
   -0.4269    0.9003    0.6811 C   0  0  0  0  0  0  0  0  0  0  0  0
    0.9654    0.4024    0.3432 C   0  0  0  0  0  0  0  0  0  0  0  0
   -3.8575   -0.0485    0.4157 N   0  0  0  0  0  0  0  0  0  0  0  0
   -1.2542   -1.2696   -0.1486 C   0  0  0  0  0  0  0  0  0  0  0  0
    1.1770   -0.7479   -0.4340 C   0  0  0  0  0  0  0  0  0  0  0  0
   -0.0023   -1.4927   -0.9950 C   0  0  0  0  0  0  0  0  0  0  0  0
   -2.9414    1.9568   -0.0153 N   0  0  0  0  0  0  0  0  0  0  0  0
    2.0775    1.1000    0.8420 C   0  0  0  0  0  0  0  0  0  0  0  0
    2.4824   -1.1661   -0.7264 C   0  0  0  0  0  0  0  0  0  0  0  0
    3.3743    0.6706    0.5580 C   0  0  0  0  0  0  0  0  0  0  0  0
    3.5762   -0.4609   -0.2271 C   0  0  0  0  0  0  0  0  0  0  0  0
    1.2022    0.3355    1.6799 H   0  0  0  0  0  0  0  0  0  0  0  0
    0.6028    1.7553    0.7950 H   0  0  0  0  0  0  0  0  0  0  0  0
    3.1827    0.1697    1.2729 H   0  0  0  0  0  0  0  0  0  0  0  0
    1.2384   -0.3472   -2.4479 H   0  0  0  0  0  0  0  0  0  0  0  0
    0.1205    0.9211   -1.9272 H   0  0  0  0  0  0  0  0  0  0  0  0
   -1.0299   -1.2466   -2.2119 H   0  0  0  0  0  0  0  0  0  0  0  0
    0.1071   -2.0499   -1.1105 H   0  0  0  0  0  0  0  0  0  0  0  0
    4.1488    1.3478   -1.6129 H   0  0  0  0  0  0  0  0  0  0  0  0
    2.6135    1.7539   -2.1059 H   0  0  0  0  0  0  0  0  0  0  0  0
   -1.1447    1.0574    2.7564 H   0  0  0  0  0  0  0  0  0  0  0  0
   -2.9528   -1.9319   -0.7663 H   0  0  0  0  0  0  0  0  0  0  0  0
   -3.4286    0.1450    2.9561 H   0  0  0  0  0  0  0  0  0  0  0  0
   -4.3310   -1.3544    1.1995 H   0  0  0  0  0  0  0  0  0  0  0  0
    1.8272   -0.4232   -0.2253 H   0  0  0  0  0  0  0  0  0  0  0  0
   -1.5601   -0.8351   -0.6512 H   0  0  0  0  0  0  0  0  0  0  0  0
   -0.4658    1.9613    0.4067 H   0  0  0  0  0  0  0  0  0  0  0  0
   -0.5689    0.8182    1.7665 H   0  0  0  0  0  0  0  0  0  0  0  0
   -3.6238   -1.0308    0.5478 H   0  0  0  0  0  0  0  0  0  0  0  0
   -2.0867   -1.7662   -0.6616 H   0  0  0  0  0  0  0  0  0  0  0  0
   -1.1497   -1.7346    0.8403 H   0  0  0  0  0  0  0  0  0  0  0  0
   -0.1752   -1.1410   -2.0200 H   0  0  0  0  0  0  0  0  0  0  0  0
    0.2114   -2.5673   -1.0375 H   0  0  0  0  0  0  0  0  0  0  0  0
   -3.9321    2.1746   -0.0558 H   0  0  0  0  0  0  0  0  0  0  0  0
   -2.4711    2.2782   -0.8523 H   0  0  0  0  0  0  0  0  0  0  0  0
    1.9366    1.9877    1.4554 H   0  0  0  0  0  0  0  0  0  0  0  0
    2.6532   -2.0455   -1.3423 H   0  0  0  0  0  0  0  0  0  0  0  0
    4.2263    1.2210    0.9481 H   0  0  0  0  0  0  0  0  0  0  0  0
    4.5863   -0.7929   -0.4526 H   0  0  0  0  0  0  0  0  0  0  0  0
  2  1  1  0
  3  1  1  0
  4  3  1  0
  5  2  2  3
  6  1  1  0
  7  8  1  0
  8  6  1  0
  9  2  1  0
 10  4  2  0
 11  7  2  0
 12 10  1  0
 13 11  1  0
  4  7  1  0
 12 13  2  0
 15 14  2  0
 16 14  2  0
 17 14  1  0
 18 14  1  0
 20 19  1  0
 21 19  1  0
 22 21  1  0
 23 20  2  3
 24 19  1  0
 25 26  1  0
 26 24  1  0
 27 20  1  0
 28 22  2  0
 29 25  2  0
 30 28  1  0
 31 29  1  0
 22 25  1  0
 30 31  2  0
  3 32  1  0
  3 33  1  0
  5 34  1  0
  6 35  1  0
  6 36  1  0
  8 37  1  0
  8 38  1  0
  9 39  1  0
  9 40  1  0
 10 41  1  0
 11 42  1  0
 12 43  1  0
 13 44  1  0
 17 45  1  0
 18 46  1  0
 21 47  1  0
 21 48  1  0
 23 49  1  0
 24 50  1  0
 24 51  1  0
 26 52  1  0
 26 53  1  0
 27 54  1  0
 27 55  1  0
 28 56  1  0
 29 57  1  0
 30 58  1  0
 31 59  1  0
M  END
$$$$
