
     RDKit          3D

 59 60  0  0  0  0  0  0  0  0999 V2000
    1.5134    0.1493   -0.0668 N   0  0  0  0  0  0  0  0  0  0  0  0
    2.8287    0.4023    0.2124 C   0  0  0  0  0  0  0  0  0  0  0  0
    0.4853    0.7714    0.7926 C   0  0  0  0  0  0  0  0  0  0  0  0
   -0.9235    0.2798    0.5261 C   0  0  0  0  0  0  0  0  0  0  0  0
    3.7816    0.6632   -0.6075 N   0  0  0  0  0  0  0  0  0  0  0  0
    1.0678   -0.0574   -1.4487 C   0  0  0  0  0  0  0  0  0  0  0  0
   -1.2275   -0.5465   -0.5667 C   0  0  0  0  0  0  0  0  0  0  0  0
   -0.1277   -1.0065   -1.4828 C   0  0  0  0  0  0  0  0  0  0  0  0
    3.1589    0.3316    1.5181 N   0  0  0  0  0  0  0  0  0  0  0  0
   -1.9603    0.6839    1.3832 C   0  0  0  0  0  0  0  0  0  0  0  0
   -2.5437   -0.9849   -0.7681 C   0  0  0  0  0  0  0  0  0  0  0  0
   -3.2700    0.2554    1.1683 C   0  0  0  0  0  0  0  0  0  0  0  0
   -3.5615   -0.5820    0.0955 C   0  0  0  0  0  0  0  0  0  0  0  0
   -0.3940   -0.0416    0.1109 S   0  0  0  0  0  0  0  0  0  0  0  0
   -1.5250    0.2802   -0.7188 O   0  0  0  0  0  0  0  0  0  0  0  0
   -0.4693   -0.0980    1.5506 O   0  0  0  0  0  0  0  0  0  0  0  0
    0.2574   -1.4215   -0.3863 O   0  0  0  0  0  0  0  0  0  0  0  0
    0.7598    1.0099   -0.2628 O   0  0  0  0  0  0  0  0  0  0  0  0
   -1.5210   -0.0502    0.3227 N   0  0  0  0  0  0  0  0  0  0  0  0
   -2.6054    0.0424    1.1382 C   0  0  0  0  0  0  0  0  0  0  0  0
   -0.5035   -1.0970    0.4879 C   0  0  0  0  0  0  0  0  0  0  0  0
    0.8991   -0.6497    0.1154 C   0  0  0  0  0  0  0  0  0  0  0  0
   -3.2730    1.1021    1.4232 N   0  0  0  0  0  0  0  0  0  0  0  0
   -1.2764    0.8751   -0.7811 C   0  0  0  0  0  0  0  0  0  0  0  0
    1.1648    0.6404   -0.3805 C   0  0  0  0  0  0  0  0  0  0  0  0
    0.0323    1.6204   -0.5459 C   0  0  0  0  0  0  0  0  0  0  0  0
   -3.0297   -1.1098    1.6929 N   0  0  0  0  0  0  0  0  0  0  0  0
    1.9650   -1.5478    0.2766 C   0  0  0  0  0  0  0  0  0  0  0  0
    2.4802    1.0223   -0.6758 C   0  0  0  0  0  0  0  0  0  0  0  0
    3.2705   -1.1644   -0.0357 C   0  0  0  0  0  0  0  0  0  0  0  0
    3.5277    0.1193   -0.5069 C   0  0  0  0  0  0  0  0  0  0  0  0
    0.5077    1.8600    0.6428 H   0  0  0  0  0  0  0  0  0  0  0  0
    0.7029    0.5640    1.8485 H   0  0  0  0  0  0  0  0  0  0  0  0
    3.4256    0.7109   -1.5588 H   0  0  0  0  0  0  0  0  0  0  0  0
    0.8169    0.9099   -1.9040 H   0  0  0  0  0  0  0  0  0  0  0  0
    1.8586   -0.5116   -2.0576 H   0  0  0  0  0  0  0  0  0  0  0  0
   -0.4988   -1.0721   -2.5132 H   0  0  0  0  0  0  0  0  0  0  0  0
    0.1835   -2.0105   -1.1697 H   0  0  0  0  0  0  0  0  0  0  0  0
    4.1694    0.3486    1.5976 H   0  0  0  0  0  0  0  0  0  0  0  0
    2.7866   -0.5019    1.9539 H   0  0  0  0  0  0  0  0  0  0  0  0
   -1.7510    1.3362    2.2290 H   0  0  0  0  0  0  0  0  0  0  0  0
   -2.7814   -1.6414   -1.6013 H   0  0  0  0  0  0  0  0  0  0  0  0
   -4.0607    0.5719    1.8437 H   0  0  0  0  0  0  0  0  0  0  0  0
   -4.5809   -0.9237   -0.0664 H   0  0  0  0  0  0  0  0  0  0  0  0
    1.0452   -1.5965    0.1587 H   0  0  0  0  0  0  0  0  0  0  0  0
    0.3258    1.8676   -0.4522 H   0  0  0  0  0  0  0  0  0  0  0  0
   -0.4675   -1.4162    1.5374 H   0  0  0  0  0  0  0  0  0  0  0  0
   -0.7797   -1.9607   -0.1290 H   0  0  0  0  0  0  0  0  0  0  0  0
   -2.8175    1.9068    0.9984 H   0  0  0  0  0  0  0  0  0  0  0  0
   -1.2313    0.3059   -1.7178 H   0  0  0  0  0  0  0  0  0  0  0  0
   -2.0929    1.5931   -0.9023 H   0  0  0  0  0  0  0  0  0  0  0  0
   -0.0382    2.2318    0.3609 H   0  0  0  0  0  0  0  0  0  0  0  0
    0.2289    2.2829   -1.3954 H   0  0  0  0  0  0  0  0  0  0  0  0
   -3.9153   -0.9326    2.1583 H   0  0  0  0  0  0  0  0  0  0  0  0
   -3.1328   -1.8403    1.0029 H   0  0  0  0  0  0  0  0  0  0  0  0
    1.7829   -2.5503    0.6575 H   0  0  0  0  0  0  0  0  0  0  0  0
    2.6965    2.0232   -1.0352 H   0  0  0  0  0  0  0  0  0  0  0  0
    4.0899   -1.8655    0.1000 H   0  0  0  0  0  0  0  0  0  0  0  0
    4.5465    0.4185   -0.7374 H   0  0  0  0  0  0  0  0  0  0  0  0
  2  1  1  0
  3  1  1  0
  4  3  1  0
  5  2  2  3
  6  1  1  0
  7  8  1  0
  8  6  1  0
  9  2  1  0
 10  4  2  0
 11  7  2  0
 12 10  1  0
 13 11  1  0
  4  7  1  0
 12 13  2  0
 15 14  2  0
 16 14  2  0
 17 14  1  0
 18 14  1  0
 20 19  1  0
 21 19  1  0
 22 21  1  0
 23 20  2  3
 24 19  1  0
 25 26  1  0
 26 24  1  0
 27 20  1  0
 28 22  2  0
 29 25  2  0
 30 28  1  0
 31 29  1  0
 22 25  1  0
 30 31  2  0
  3 32  1  0
  3 33  1  0
  5 34  1  0
  6 35  1  0
  6 36  1  0
  8 37  1  0
  8 38  1  0
  9 39  1  0
  9 40  1  0
 10 41  1  0
 11 42  1  0
 12 43  1  0
 13 44  1  0
 17 45  1  0
 18 46  1  0
 21 47  1  0
 21 48  1  0
 23 49  1  0
 24 50  1  0
 24 51  1  0
 26 52  1  0
 26 53  1  0
 27 54  1  0
 27 55  1  0
 28 56  1  0
 29 57  1  0
 30 58  1  0
 31 59  1  0
M  END
$$$$
