
     RDKit          3D

 59 60  0  0  0  0  0  0  0  0999 V2000
   -1.5050   -0.0213   -0.1232 N   0  0  0  0  0  0  0  0  0  0  0  0
   -2.7379   -0.1352   -0.6883 C   0  0  0  0  0  0  0  0  0  0  0  0
   -0.5102   -1.0982   -0.2019 C   0  0  0  0  0  0  0  0  0  0  0  0
    0.9199   -0.6164   -0.0371 C   0  0  0  0  0  0  0  0  0  0  0  0
   -3.5214    0.8313   -1.0169 N   0  0  0  0  0  0  0  0  0  0  0  0
   -1.1894    1.0303    0.8440 C   0  0  0  0  0  0  0  0  0  0  0  0
    1.2243    0.7186    0.2872 C   0  0  0  0  0  0  0  0  0  0  0  0
    0.1124    1.7223    0.4483 C   0  0  0  0  0  0  0  0  0  0  0  0
   -3.1780   -1.3879   -0.9254 N   0  0  0  0  0  0  0  0  0  0  0  0
    1.9706   -1.5338   -0.2002 C   0  0  0  0  0  0  0  0  0  0  0  0
    2.5608    1.1211    0.4119 C   0  0  0  0  0  0  0  0  0  0  0  0
    3.2981   -1.1280   -0.0596 C   0  0  0  0  0  0  0  0  0  0  0  0
    3.5925    0.1988    0.2434 C   0  0  0  0  0  0  0  0  0  0  0  0
   -0.0960    0.3525    0.2718 S   0  0  0  0  0  0  0  0  0  0  0  0
   -0.8764    0.1019    1.4566 O   0  0  0  0  0  0  0  0  0  0  0  0
    0.3984    1.6525   -0.1038 O   0  0  0  0  0  0  0  0  0  0  0  0
    1.1729   -0.6288    0.2852 O   0  0  0  0  0  0  0  0  0  0  0  0
   -0.9351   -0.2442   -0.9584 O   0  0  0  0  0  0  0  0  0  0  0  0
    1.4837   -0.3337    0.1503 N   0  0  0  0  0  0  0  0  0  0  0  0
    2.8462   -0.2768    0.2490 C   0  0  0  0  0  0  0  0  0  0  0  0
    0.7609    0.9040   -0.2115 C   0  0  0  0  0  0  0  0  0  0  0  0
   -0.7493    0.7841   -0.1443 C   0  0  0  0  0  0  0  0  0  0  0  0
    3.7125   -1.1059   -0.2139 N   0  0  0  0  0  0  0  0  0  0  0  0
    0.8178   -1.5576   -0.3080 C   0  0  0  0  0  0  0  0  0  0  0  0
   -1.3888   -0.4439    0.0916 C   0  0  0  0  0  0  0  0  0  0  0  0
   -0.5648   -1.6786    0.3303 C   0  0  0  0  0  0  0  0  0  0  0  0
    3.3193    0.7715    0.9547 N   0  0  0  0  0  0  0  0  0  0  0  0
   -1.5334    1.9318   -0.3469 C   0  0  0  0  0  0  0  0  0  0  0  0
   -2.7876   -0.5044    0.1556 C   0  0  0  0  0  0  0  0  0  0  0  0
   -2.9258    1.8615   -0.2963 C   0  0  0  0  0  0  0  0  0  0  0  0
   -3.5521    0.6444   -0.0421 C   0  0  0  0  0  0  0  0  0  0  0  0
   -0.7217   -1.8380    0.5798 H   0  0  0  0  0  0  0  0  0  0  0  0
   -0.5789   -1.5925   -1.1791 H   0  0  0  0  0  0  0  0  0  0  0  0
   -3.0402    1.7148   -0.8469 H   0  0  0  0  0  0  0  0  0  0  0  0
   -1.9858    1.7784    0.9191 H   0  0  0  0  0  0  0  0  0  0  0  0
   -1.0974    0.5813    1.8419 H   0  0  0  0  0  0  0  0  0  0  0  0
    0.3743    2.4566    1.2188 H   0  0  0  0  0  0  0  0  0  0  0  0
   -0.0163    2.2551   -0.5017 H   0  0  0  0  0  0  0  0  0  0  0  0
   -4.1389   -1.3324   -1.2508 H   0  0  0  0  0  0  0  0  0  0  0  0
   -3.1245   -1.9798   -0.1080 H   0  0  0  0  0  0  0  0  0  0  0  0
    1.7581   -2.5721   -0.4465 H   0  0  0  0  0  0  0  0  0  0  0  0
    2.8045    2.1562    0.6406 H   0  0  0  0  0  0  0  0  0  0  0  0
    4.1031   -1.8460   -0.1934 H   0  0  0  0  0  0  0  0  0  0  0  0
    4.6270    0.5166    0.3442 H   0  0  0  0  0  0  0  0  0  0  0  0
    1.8267   -0.2644   -0.3469 H   0  0  0  0  0  0  0  0  0  0  0  0
   -1.4905   -0.9695   -0.6045 H   0  0  0  0  0  0  0  0  0  0  0  0
    1.0399    1.1889   -1.2339 H   0  0  0  0  0  0  0  0  0  0  0  0
    1.0507    1.7177    0.4640 H   0  0  0  0  0  0  0  0  0  0  0  0
    3.2456   -1.8392   -0.7447 H   0  0  0  0  0  0  0  0  0  0  0  0
    0.7473   -1.5528   -1.4032 H   0  0  0  0  0  0  0  0  0  0  0  0
    1.3897   -2.4468   -0.0176 H   0  0  0  0  0  0  0  0  0  0  0  0
   -0.4659   -1.8229    1.4133 H   0  0  0  0  0  0  0  0  0  0  0  0
   -1.0713   -2.5583   -0.0835 H   0  0  0  0  0  0  0  0  0  0  0  0
    2.8205    0.8941    1.8266 H   0  0  0  0  0  0  0  0  0  0  0  0
    4.3105    0.6320    1.1247 H   0  0  0  0  0  0  0  0  0  0  0  0
   -1.0589    2.8914   -0.5426 H   0  0  0  0  0  0  0  0  0  0  0  0
   -3.2884   -1.4481    0.3597 H   0  0  0  0  0  0  0  0  0  0  0  0
   -3.5215    2.7573   -0.4514 H   0  0  0  0  0  0  0  0  0  0  0  0
   -4.6366    0.5902    0.0043 H   0  0  0  0  0  0  0  0  0  0  0  0
  2  1  1  0
  3  1  1  0
  4  3  1  0
  5  2  2  3
  6  1  1  0
  7  8  1  0
  8  6  1  0
  9  2  1  0
 10  4  2  0
 11  7  2  0
 12 10  1  0
 13 11  1  0
  4  7  1  0
 12 13  2  0
 15 14  2  0
 16 14  2  0
 17 14  1  0
 18 14  1  0
 20 19  1  0
 21 19  1  0
 22 21  1  0
 23 20  2  3
 24 19  1  0
 25 26  1  0
 26 24  1  0
 27 20  1  0
 28 22  2  0
 29 25  2  0
 30 28  1  0
 31 29  1  0
 22 25  1  0
 30 31  2  0
  3 32  1  0
  3 33  1  0
  5 34  1  0
  6 35  1  0
  6 36  1  0
  8 37  1  0
  8 38  1  0
  9 39  1  0
  9 40  1  0
 10 41  1  0
 11 42  1  0
 12 43  1  0
 13 44  1  0
 17 45  1  0
 18 46  1  0
 21 47  1  0
 21 48  1  0
 23 49  1  0
 24 50  1  0
 24 51  1  0
 26 52  1  0
 26 53  1  0
 27 54  1  0
 27 55  1  0
 28 56  1  0
 29 57  1  0
 30 58  1  0
 31 59  1  0
M  END
$$$$
