
     RDKit          3D

 59 60  0  0  0  0  0  0  0  0999 V2000
    1.5144    0.0300    0.1678 N   0  0  0  0  0  0  0  0  0  0  0  0
    2.8224   -0.2864    0.4101 C   0  0  0  0  0  0  0  0  0  0  0  0
    0.4750   -0.9191    0.6195 C   0  0  0  0  0  0  0  0  0  0  0  0
   -0.9292   -0.5625    0.1710 C   0  0  0  0  0  0  0  0  0  0  0  0
    3.7537    0.4743    0.8643 N   0  0  0  0  0  0  0  0  0  0  0  0
    1.0716    1.4283    0.1655 C   0  0  0  0  0  0  0  0  0  0  0  0
   -1.2175    0.6471   -0.4818 C   0  0  0  0  0  0  0  0  0  0  0  0
   -0.1047    1.6091   -0.7923 C   0  0  0  0  0  0  0  0  0  0  0  0
    3.1667   -1.5519    0.0931 N   0  0  0  0  0  0  0  0  0  0  0  0
   -1.9773   -1.4589    0.4371 C   0  0  0  0  0  0  0  0  0  0  0  0
   -2.5292    0.9289   -0.8874 C   0  0  0  0  0  0  0  0  0  0  0  0
   -3.2832   -1.1652    0.0436 C   0  0  0  0  0  0  0  0  0  0  0  0
   -3.5580    0.0268   -0.6210 C   0  0  0  0  0  0  0  0  0  0  0  0
   -0.0525    0.4523   -0.0020 S   0  0  0  0  0  0  0  0  0  0  0  0
   -0.3728    1.1030    1.2428 O   0  0  0  0  0  0  0  0  0  0  0  0
    0.1113    1.1481   -1.2528 O   0  0  0  0  0  0  0  0  0  0  0  0
    1.2780   -0.4183    0.2102 O   0  0  0  0  0  0  0  0  0  0  0  0
   -1.1479   -0.7020   -0.2052 O   0  0  0  0  0  0  0  0  0  0  0  0
    1.5233    0.0628    0.0078 N   0  0  0  0  0  0  0  0  0  0  0  0
    2.8392    0.1573    0.3668 C   0  0  0  0  0  0  0  0  0  0  0  0
    0.5017    0.4429    1.0063 C   0  0  0  0  0  0  0  0  0  0  0  0
   -0.9243    0.1583    0.5757 C   0  0  0  0  0  0  0  0  0  0  0  0
    3.8148    0.6501   -0.3097 N   0  0  0  0  0  0  0  0  0  0  0  0
    1.1074    0.3026   -1.3781 C   0  0  0  0  0  0  0  0  0  0  0  0
   -1.2365   -0.2828   -0.7206 C   0  0  0  0  0  0  0  0  0  0  0  0
   -0.1314   -0.5274   -1.7101 C   0  0  0  0  0  0  0  0  0  0  0  0
    3.1362   -0.3701    1.5728 N   0  0  0  0  0  0  0  0  0  0  0  0
   -1.9670    0.3643    1.4940 C   0  0  0  0  0  0  0  0  0  0  0  0
   -2.5686   -0.5431   -1.0702 C   0  0  0  0  0  0  0  0  0  0  0  0
   -3.2923    0.1172    1.1345 C   0  0  0  0  0  0  0  0  0  0  0  0
   -3.5921   -0.3392   -0.1460 C   0  0  0  0  0  0  0  0  0  0  0  0
    0.4877   -0.9601    1.7160 H   0  0  0  0  0  0  0  0  0  0  0  0
    0.6918   -1.9227    0.2346 H   0  0  0  0  0  0  0  0  0  0  0  0
    3.3760    1.3932    1.0888 H   0  0  0  0  0  0  0  0  0  0  0  0
    0.8005    1.7325    1.1845 H   0  0  0  0  0  0  0  0  0  0  0  0
    1.8744    2.0927   -0.1752 H   0  0  0  0  0  0  0  0  0  0  0  0
    0.2230    1.4355   -1.8247 H   0  0  0  0  0  0  0  0  0  0  0  0
   -0.4654    2.6419   -0.7209 H   0  0  0  0  0  0  0  0  0  0  0  0
    4.1775   -1.6373    0.1355 H   0  0  0  0  0  0  0  0  0  0  0  0
    2.8231   -1.8179   -0.8208 H   0  0  0  0  0  0  0  0  0  0  0  0
   -1.7783   -2.3967    0.9521 H   0  0  0  0  0  0  0  0  0  0  0  0
   -2.7556    1.8539   -1.4129 H   0  0  0  0  0  0  0  0  0  0  0  0
   -4.0852   -1.8686    0.2522 H   0  0  0  0  0  0  0  0  0  0  0  0
   -4.5739    0.2531   -0.9340 H   0  0  0  0  0  0  0  0  0  0  0  0
    1.6396   -0.6149   -0.6788 H   0  0  0  0  0  0  0  0  0  0  0  0
   -1.4557   -0.9683    0.6859 H   0  0  0  0  0  0  0  0  0  0  0  0
    0.5928    1.5169    1.2124 H   0  0  0  0  0  0  0  0  0  0  0  0
    0.6714   -0.1031    1.9420 H   0  0  0  0  0  0  0  0  0  0  0  0
    3.4714    1.0369   -1.1871 H   0  0  0  0  0  0  0  0  0  0  0  0
    1.8957    0.0067   -2.0803 H   0  0  0  0  0  0  0  0  0  0  0  0
    0.9162    1.3730   -1.5274 H   0  0  0  0  0  0  0  0  0  0  0  0
   -0.4666   -0.2757   -2.7230 H   0  0  0  0  0  0  0  0  0  0  0  0
    0.1177   -1.5957   -1.6915 H   0  0  0  0  0  0  0  0  0  0  0  0
    4.1457   -0.4160    1.6712 H   0  0  0  0  0  0  0  0  0  0  0  0
    2.7228   -1.2856    1.6954 H   0  0  0  0  0  0  0  0  0  0  0  0
   -1.7488    0.7168    2.5002 H   0  0  0  0  0  0  0  0  0  0  0  0
   -2.8151   -0.9059   -2.0655 H   0  0  0  0  0  0  0  0  0  0  0  0
   -4.0900    0.2772    1.8552 H   0  0  0  0  0  0  0  0  0  0  0  0
   -4.6236   -0.5385   -0.4246 H   0  0  0  0  0  0  0  0  0  0  0  0
  2  1  1  0
  3  1  1  0
  4  3  1  0
  5  2  2  3
  6  1  1  0
  7  8  1  0
  8  6  1  0
  9  2  1  0
 10  4  2  0
 11  7  2  0
 12 10  1  0
 13 11  1  0
  4  7  1  0
 12 13  2  0
 15 14  2  0
 16 14  2  0
 17 14  1  0
 18 14  1  0
 20 19  1  0
 21 19  1  0
 22 21  1  0
 23 20  2  3
 24 19  1  0
 25 26  1  0
 26 24  1  0
 27 20  1  0
 28 22  2  0
 29 25  2  0
 30 28  1  0
 31 29  1  0
 22 25  1  0
 30 31  2  0
  3 32  1  0
  3 33  1  0
  5 34  1  0
  6 35  1  0
  6 36  1  0
  8 37  1  0
  8 38  1  0
  9 39  1  0
  9 40  1  0
 10 41  1  0
 11 42  1  0
 12 43  1  0
 13 44  1  0
 17 45  1  0
 18 46  1  0
 21 47  1  0
 21 48  1  0
 23 49  1  0
 24 50  1  0
 24 51  1  0
 26 52  1  0
 26 53  1  0
 27 54  1  0
 27 55  1  0
 28 56  1  0
 29 57  1  0
 30 58  1  0
 31 59  1  0
M  END
$$$$
