
     RDKit          3D

 31 32  0  0  0  0  0  0  0  0999 V2000
    1.4816   -0.1748   -0.4795 N   0  0  0  0  0  0  0  0  0  0  0  0
    2.5893    0.4046    0.1816 C   0  0  0  0  0  0  0  0  0  0  0  0
    0.5066    0.5906   -1.2382 C   0  0  0  0  0  0  0  0  0  0  0  0
   -0.8046    0.3826   -0.5277 C   0  0  0  0  0  0  0  0  0  0  0  0
    3.7883    0.4166   -0.2967 N   0  0  0  0  0  0  0  0  0  0  0  0
    1.2587   -1.6202   -0.4281 C   0  0  0  0  0  0  0  0  0  0  0  0
   -1.0273   -0.8056    0.1275 C   0  0  0  0  0  0  0  0  0  0  0  0
   -0.0620   -1.9178    0.1910 C   0  0  0  0  0  0  0  0  0  0  0  0
    2.3499    1.0081    1.4530 N   0  0  0  0  0  0  0  0  0  0  0  0
   -1.7289    1.4076   -0.5700 C   0  0  0  0  0  0  0  0  0  0  0  0
   -2.2346   -0.9601    0.7646 C   0  0  0  0  0  0  0  0  0  0  0  0
   -2.9327    1.2248    0.0785 C   0  0  0  0  0  0  0  0  0  0  0  0
   -3.1844    0.0435    0.7441 C   0  0  0  0  0  0  0  0  0  0  0  0
    0.0005    0.0016    0.0543 S   0  0  0  0  0  0  0  0  0  0  0  0
    0.0132    1.2898    0.7952 O   0  0  0  0  0  0  0  0  0  0  0  0
   -0.0903   -1.1507    1.0103 O   0  0  0  0  0  0  0  0  0  0  0  0
   -1.3167   -0.0280   -0.9797 O   0  0  0  0  0  0  0  0  0  0  0  0
    1.3933   -0.1127   -0.8802 O   0  0  0  0  0  0  0  0  0  0  0  0
    1.4503   -0.2588    0.0592 N   0  0  0  0  0  0  0  0  0  0  0  0
    2.6445    0.4334   -0.2466 C   0  0  0  0  0  0  0  0  0  0  0  0
    0.6756    0.1426    1.2196 C   0  0  0  0  0  0  0  0  0  0  0  0
   -0.7248    0.2199    0.7213 C   0  0  0  0  0  0  0  0  0  0  0  0
    2.7935    1.1106   -1.3433 N   0  0  0  0  0  0  0  0  0  0  0  0
    1.0593   -1.3476   -0.8158 C   0  0  0  0  0  0  0  0  0  0  0  0
   -1.1666   -0.8356   -0.0691 C   0  0  0  0  0  0  0  0  0  0  0  0
   -0.2518   -1.9695   -0.3788 C   0  0  0  0  0  0  0  0  0  0  0  0
    3.7458    0.4029    0.6693 N   0  0  0  0  0  0  0  0  0  0  0  0
   -1.5693    1.2727    1.0107 C   0  0  0  0  0  0  0  0  0  0  0  0
   -2.4746   -0.7906   -0.5506 C   0  0  0  0  0  0  0  0  0  0  0  0
   -2.8685    1.3349    0.5427 C   0  0  0  0  0  0  0  0  0  0  0  0
   -3.3135    0.2852   -0.2455 C   0  0  0  0  0  0  0  0  0  0  0  0
  2  1  1  0
  3  1  1  0
  4  3  1  0
  5  2  2  0
  6  1  1  0
  7  8  1  0
  8  6  1  0
  9  2  1  0
 10  4  2  0
 11  7  2  0
 12 10  1  0
 13 11  1  0
  4  7  1  0
 12 13  2  0
 15 14  2  0
 16 14  2  0
 17 14  1  0
 18 14  1  0
 20 19  1  0
 21 19  1  0
 22 21  1  0
 23 20  2  0
 24 19  1  0
 25 26  1  0
 26 24  1  0
 27 20  1  0
 28 22  2  0
 29 25  2  0
 30 28  1  0
 31 29  1  0
 22 25  1  0
 30 31  2  0
M  END
