
     RDKit          3D

 59 60  0  0  0  0  0  0  0  0999 V2000
   -1.4976   -0.1501    0.0159 N   0  0  0  0  0  0  0  0  0  0  0  0
   -2.8417   -0.0215    0.2203 C   0  0  0  0  0  0  0  0  0  0  0  0
   -0.6851    1.0148   -0.3576 C   0  0  0  0  0  0  0  0  0  0  0  0
    0.8060    0.7879   -0.2023 C   0  0  0  0  0  0  0  0  0  0  0  0
   -3.5881    0.9958   -0.0273 N   0  0  0  0  0  0  0  0  0  0  0  0
   -0.9306   -1.4240   -0.4550 C   0  0  0  0  0  0  0  0  0  0  0  0
    1.3404   -0.4890    0.0460 C   0  0  0  0  0  0  0  0  0  0  0  0
    0.4191   -1.6679    0.2178 C   0  0  0  0  0  0  0  0  0  0  0  0
   -3.4383   -1.0843    0.7991 N   0  0  0  0  0  0  0  0  0  0  0  0
    1.6810    1.8775   -0.3411 C   0  0  0  0  0  0  0  0  0  0  0  0
    2.7255   -0.6525    0.1850 C   0  0  0  0  0  0  0  0  0  0  0  0
    3.0596    1.7037   -0.2147 C   0  0  0  0  0  0  0  0  0  0  0  0
    3.5807    0.4401    0.0508 C   0  0  0  0  0  0  0  0  0  0  0  0
   -0.0310    0.4527   -0.0386 S   0  0  0  0  0  0  0  0  0  0  0  0
    0.1179    1.2464    1.1545 O   0  0  0  0  0  0  0  0  0  0  0  0
   -0.2724    1.0066   -1.3464 O   0  0  0  0  0  0  0  0  0  0  0  0
   -1.1869   -0.6303    0.2156 O   0  0  0  0  0  0  0  0  0  0  0  0
    1.2638   -0.4908   -0.1201 O   0  0  0  0  0  0  0  0  0  0  0  0
    1.4891    0.0201    0.0780 N   0  0  0  0  0  0  0  0  0  0  0  0
    2.8385    0.2149    0.0023 C   0  0  0  0  0  0  0  0  0  0  0  0
    0.5618    1.1445   -0.1025 C   0  0  0  0  0  0  0  0  0  0  0  0
   -0.8726    0.7144   -0.3399 C   0  0  0  0  0  0  0  0  0  0  0  0
    3.4773    1.3295   -0.0543 N   0  0  0  0  0  0  0  0  0  0  0  0
    0.9340   -1.0572    0.9130 C   0  0  0  0  0  0  0  0  0  0  0  0
   -1.2867   -0.6179   -0.1633 C   0  0  0  0  0  0  0  0  0  0  0  0
   -0.2817   -1.6717    0.2213 C   0  0  0  0  0  0  0  0  0  0  0  0
    3.5778   -0.9115   -0.0699 N   0  0  0  0  0  0  0  0  0  0  0  0
   -1.8216    1.6785   -0.7167 C   0  0  0  0  0  0  0  0  0  0  0  0
   -2.6227   -0.9718   -0.3964 C   0  0  0  0  0  0  0  0  0  0  0  0
   -3.1525    1.3203   -0.9335 C   0  0  0  0  0  0  0  0  0  0  0  0
   -3.5517   -0.0043   -0.7761 C   0  0  0  0  0  0  0  0  0  0  0  0
   -0.9600    1.8631    0.2816 H   0  0  0  0  0  0  0  0  0  0  0  0
   -0.8921    1.2821   -1.4012 H   0  0  0  0  0  0  0  0  0  0  0  0
   -3.0441    1.7357   -0.4668 H   0  0  0  0  0  0  0  0  0  0  0  0
   -1.5810   -2.2791   -0.2408 H   0  0  0  0  0  0  0  0  0  0  0  0
   -0.8171   -1.3853   -1.5466 H   0  0  0  0  0  0  0  0  0  0  0  0
    0.8737   -2.5681   -0.2121 H   0  0  0  0  0  0  0  0  0  0  0  0
    0.2751   -1.8392    1.2917 H   0  0  0  0  0  0  0  0  0  0  0  0
   -2.9193   -1.4167    1.6009 H   0  0  0  0  0  0  0  0  0  0  0  0
   -4.3823   -0.8234    1.0664 H   0  0  0  0  0  0  0  0  0  0  0  0
    1.2906    2.8725   -0.5447 H   0  0  0  0  0  0  0  0  0  0  0  0
    3.1446   -1.6332    0.3985 H   0  0  0  0  0  0  0  0  0  0  0  0
    3.7269    2.5552   -0.3196 H   0  0  0  0  0  0  0  0  0  0  0  0
    4.6542    0.3059    0.1560 H   0  0  0  0  0  0  0  0  0  0  0  0
   -1.4728   -0.9591   -0.6618 H   0  0  0  0  0  0  0  0  0  0  0  0
    1.5814   -0.6254    0.7968 H   0  0  0  0  0  0  0  0  0  0  0  0
    0.8793    1.7349   -0.9711 H   0  0  0  0  0  0  0  0  0  0  0  0
    0.5925    1.7865    0.7866 H   0  0  0  0  0  0  0  0  0  0  0  0
    2.8302    2.1125    0.0143 H   0  0  0  0  0  0  0  0  0  0  0  0
    1.6589   -1.8554    1.1072 H   0  0  0  0  0  0  0  0  0  0  0  0
    0.6548   -0.6457    1.8921 H   0  0  0  0  0  0  0  0  0  0  0  0
    0.0328   -2.1967   -0.6891 H   0  0  0  0  0  0  0  0  0  0  0  0
   -0.7418   -2.4043    0.8945 H   0  0  0  0  0  0  0  0  0  0  0  0
    4.5342   -0.6604   -0.2999 H   0  0  0  0  0  0  0  0  0  0  0  0
    3.2064   -1.5623   -0.7491 H   0  0  0  0  0  0  0  0  0  0  0  0
   -1.5262    2.7174   -0.8480 H   0  0  0  0  0  0  0  0  0  0  0  0
   -2.9458   -2.0042   -0.2828 H   0  0  0  0  0  0  0  0  0  0  0  0
   -3.8774    2.0744   -1.2292 H   0  0  0  0  0  0  0  0  0  0  0  0
   -4.5870   -0.2846   -0.9516 H   0  0  0  0  0  0  0  0  0  0  0  0
  2  1  1  0
  3  1  1  0
  4  3  1  0
  5  2  2  3
  6  1  1  0
  7  8  1  0
  8  6  1  0
  9  2  1  0
 10  4  2  0
 11  7  2  0
 12 10  1  0
 13 11  1  0
  4  7  1  0
 12 13  2  0
 15 14  2  0
 16 14  2  0
 17 14  1  0
 18 14  1  0
 20 19  1  0
 21 19  1  0
 22 21  1  0
 23 20  2  3
 24 19  1  0
 25 26  1  0
 26 24  1  0
 27 20  1  0
 28 22  2  0
 29 25  2  0
 30 28  1  0
 31 29  1  0
 22 25  1  0
 30 31  2  0
  3 32  1  0
  3 33  1  0
  5 34  1  0
  6 35  1  0
  6 36  1  0
  8 37  1  0
  8 38  1  0
  9 39  1  0
  9 40  1  0
 10 41  1  0
 11 42  1  0
 12 43  1  0
 13 44  1  0
 17 45  1  0
 18 46  1  0
 21 47  1  0
 21 48  1  0
 23 49  1  0
 24 50  1  0
 24 51  1  0
 26 52  1  0
 26 53  1  0
 27 54  1  0
 27 55  1  0
 28 56  1  0
 29 57  1  0
 30 58  1  0
 31 59  1  0
M  END
$$$$
