
     RDKit          3D

 59 60  0  0  0  0  0  0  0  0999 V2000
   -1.6409    0.2142   -0.3547 N   0  0  0  0  0  0  0  0  0  0  0  0
   -2.4398   -0.7167    0.2439 C   0  0  0  0  0  0  0  0  0  0  0  0
   -0.7804    1.1673    0.3513 C   0  0  0  0  0  0  0  0  0  0  0  0
    0.6697    0.7217    0.3463 C   0  0  0  0  0  0  0  0  0  0  0  0
   -2.8604   -1.7922   -0.3290 N   0  0  0  0  0  0  0  0  0  0  0  0
   -1.1199   -0.0790   -1.7018 C   0  0  0  0  0  0  0  0  0  0  0  0
    1.1422   -0.2132   -0.5989 C   0  0  0  0  0  0  0  0  0  0  0  0
    0.1880   -0.8646   -1.5774 C   0  0  0  0  0  0  0  0  0  0  0  0
   -2.8508   -0.4683    1.5073 N   0  0  0  0  0  0  0  0  0  0  0  0
    1.5752    1.2955    1.2521 C   0  0  0  0  0  0  0  0  0  0  0  0
    2.4934   -0.5845   -0.5950 C   0  0  0  0  0  0  0  0  0  0  0  0
    2.9206    0.9263    1.2393 C   0  0  0  0  0  0  0  0  0  0  0  0
    3.3779   -0.0149    0.3196 C   0  0  0  0  0  0  0  0  0  0  0  0
   -0.2007   -0.2819    0.2348 S   0  0  0  0  0  0  0  0  0  0  0  0
   -1.4811   -0.7797   -0.2015 O   0  0  0  0  0  0  0  0  0  0  0  0
    0.3417   -0.5202    1.5499 O   0  0  0  0  0  0  0  0  0  0  0  0
    0.9226   -0.7355   -0.8190 O   0  0  0  0  0  0  0  0  0  0  0  0
   -0.2380    1.3041   -0.0017 O   0  0  0  0  0  0  0  0  0  0  0  0
    1.4848    0.0235    0.4980 N   0  0  0  0  0  0  0  0  0  0  0  0
    2.7967    0.3844    0.6065 C   0  0  0  0  0  0  0  0  0  0  0  0
    0.4588    1.0814    0.5627 C   0  0  0  0  0  0  0  0  0  0  0  0
   -0.9120    0.6109    0.1210 C   0  0  0  0  0  0  0  0  0  0  0  0
    3.6949   -0.1202    1.3747 N   0  0  0  0  0  0  0  0  0  0  0  0
    1.0126   -1.2674    1.0098 C   0  0  0  0  0  0  0  0  0  0  0  0
   -1.2068   -0.7526   -0.0527 C   0  0  0  0  0  0  0  0  0  0  0  0
   -0.1292   -1.7863    0.1355 C   0  0  0  0  0  0  0  0  0  0  0  0
    3.1762    1.3596   -0.2448 N   0  0  0  0  0  0  0  0  0  0  0  0
   -1.9260    1.5598   -0.0846 C   0  0  0  0  0  0  0  0  0  0  0  0
   -2.4895   -1.1432   -0.4615 C   0  0  0  0  0  0  0  0  0  0  0  0
   -3.2027    1.1614   -0.4795 C   0  0  0  0  0  0  0  0  0  0  0  0
   -3.4834   -0.1889   -0.6699 C   0  0  0  0  0  0  0  0  0  0  0  0
   -1.1105    1.3311    1.3824 H   0  0  0  0  0  0  0  0  0  0  0  0
   -0.8405    2.1396   -0.1543 H   0  0  0  0  0  0  0  0  0  0  0  0
   -3.4552   -2.2598    0.3642 H   0  0  0  0  0  0  0  0  0  0  0  0
   -0.9390    0.8673   -2.2287 H   0  0  0  0  0  0  0  0  0  0  0  0
   -1.8450   -0.6278   -2.3140 H   0  0  0  0  0  0  0  0  0  0  0  0
   -0.0189   -1.8824   -1.2251 H   0  0  0  0  0  0  0  0  0  0  0  0
    0.6565   -0.9367   -2.5654 H   0  0  0  0  0  0  0  0  0  0  0  0
   -3.2033    0.4826    1.5645 H   0  0  0  0  0  0  0  0  0  0  0  0
   -2.0578   -0.4845    2.1418 H   0  0  0  0  0  0  0  0  0  0  0  0
    1.2382    2.0352    1.9747 H   0  0  0  0  0  0  0  0  0  0  0  0
    2.8611   -1.3220   -1.3051 H   0  0  0  0  0  0  0  0  0  0  0  0
    3.6147    1.3722    1.9472 H   0  0  0  0  0  0  0  0  0  0  0  0
    4.4250   -0.3064    0.3149 H   0  0  0  0  0  0  0  0  0  0  0  0
    1.7949   -0.5065   -0.4333 H   0  0  0  0  0  0  0  0  0  0  0  0
   -1.1395    1.5197   -0.3292 H   0  0  0  0  0  0  0  0  0  0  0  0
    0.7423    1.9264   -0.0759 H   0  0  0  0  0  0  0  0  0  0  0  0
    0.3863    1.4446    1.5948 H   0  0  0  0  0  0  0  0  0  0  0  0
    3.2749   -0.8226    1.9809 H   0  0  0  0  0  0  0  0  0  0  0  0
    0.6914   -1.1592    2.0543 H   0  0  0  0  0  0  0  0  0  0  0  0
    1.8141   -2.0158    0.9867 H   0  0  0  0  0  0  0  0  0  0  0  0
   -0.5468   -2.6896    0.5939 H   0  0  0  0  0  0  0  0  0  0  0  0
    0.2600   -2.0581   -0.8532 H   0  0  0  0  0  0  0  0  0  0  0  0
    2.8119    1.2022   -1.1750 H   0  0  0  0  0  0  0  0  0  0  0  0
    4.1888    1.4192   -0.2524 H   0  0  0  0  0  0  0  0  0  0  0  0
   -1.7227    2.6192    0.0589 H   0  0  0  0  0  0  0  0  0  0  0  0
   -2.7194   -2.1945   -0.6204 H   0  0  0  0  0  0  0  0  0  0  0  0
   -3.9778    1.9048   -0.6408 H   0  0  0  0  0  0  0  0  0  0  0  0
   -4.4775   -0.4988   -0.9805 H   0  0  0  0  0  0  0  0  0  0  0  0
  2  1  1  0
  3  1  1  0
  4  3  1  0
  5  2  2  3
  6  1  1  0
  7  8  1  0
  8  6  1  0
  9  2  1  0
 10  4  2  0
 11  7  2  0
 12 10  1  0
 13 11  1  0
  4  7  1  0
 12 13  2  0
 15 14  2  0
 16 14  2  0
 17 14  1  0
 18 14  1  0
 20 19  1  0
 21 19  1  0
 22 21  1  0
 23 20  2  3
 24 19  1  0
 25 26  1  0
 26 24  1  0
 27 20  1  0
 28 22  2  0
 29 25  2  0
 30 28  1  0
 31 29  1  0
 22 25  1  0
 30 31  2  0
  3 32  1  0
  3 33  1  0
  5 34  1  0
  6 35  1  0
  6 36  1  0
  8 37  1  0
  8 38  1  0
  9 39  1  0
  9 40  1  0
 10 41  1  0
 11 42  1  0
 12 43  1  0
 13 44  1  0
 17 45  1  0
 18 46  1  0
 21 47  1  0
 21 48  1  0
 23 49  1  0
 24 50  1  0
 24 51  1  0
 26 52  1  0
 26 53  1  0
 27 54  1  0
 27 55  1  0
 28 56  1  0
 29 57  1  0
 30 58  1  0
 31 59  1  0
M  END
$$$$
