
     RDKit          3D

 73 77  0  0  0  0  0  0  0  0999 V2000
   -1.5001    2.9280    0.9736 O   0  0  0  0  0  0  0  0  0  0  0  0
    1.1733    0.4221   -3.1931 O   0  0  0  0  0  0  0  0  0  0  0  0
   -4.7040    1.5689    3.2749 O   0  0  0  0  0  0  0  0  0  0  0  0
    4.6838   -1.8313   -3.1330 O   0  0  0  0  0  0  0  0  0  0  0  0
   -3.2380    3.1787    2.7945 O   0  0  0  0  0  0  0  0  0  0  0  0
    3.0145   -0.9161   -4.2959 O   0  0  0  0  0  0  0  0  0  0  0  0
   -1.3370    0.8443   -0.1707 C   0  0  0  0  0  0  0  0  0  0  0  0
    1.1959    0.6596   -0.8225 C   0  0  0  0  0  0  0  0  0  0  0  0
   -1.8667   -0.4596   -0.4383 C   0  0  0  0  0  0  0  0  0  0  0  0
    1.8709    0.4818    0.4278 C   0  0  0  0  0  0  0  0  0  0  0  0
   -1.9772    1.6506    0.8007 C   0  0  0  0  0  0  0  0  0  0  0  0
    1.8018    0.1580   -1.9996 C   0  0  0  0  0  0  0  0  0  0  0  0
   -0.1350    1.4149   -0.9346 C   0  0  0  0  0  0  0  0  0  0  0  0
   -2.9530   -0.9381    0.3415 C   0  0  0  0  0  0  0  0  0  0  0  0
    3.0720   -0.2751    0.4629 C   0  0  0  0  0  0  0  0  0  0  0  0
   -3.0530    1.1672    1.5591 C   0  0  0  0  0  0  0  0  0  0  0  0
    2.9903   -0.5836   -1.9513 C   0  0  0  0  0  0  0  0  0  0  0  0
   -3.5189   -0.1290    1.3311 C   0  0  0  0  0  0  0  0  0  0  0  0
    3.6049   -0.8055   -0.7166 C   0  0  0  0  0  0  0  0  0  0  0  0
   -1.3978   -1.3222   -1.4564 C   0  0  0  0  0  0  0  0  0  0  0  0
    1.4387    1.0313    1.6575 C   0  0  0  0  0  0  0  0  0  0  0  0
   -3.7551    1.9457    2.6116 C   0  0  0  0  0  0  0  0  0  0  0  0
    3.6606   -1.1714   -3.1389 C   0  0  0  0  0  0  0  0  0  0  0  0
   -3.4827   -2.2212    0.1223 C   0  0  0  0  0  0  0  0  0  0  0  0
    3.7478   -0.4907    1.6763 C   0  0  0  0  0  0  0  0  0  0  0  0
   -1.9335   -2.5968   -1.6682 C   0  0  0  0  0  0  0  0  0  0  0  0
    2.1208    0.8145    2.8590 C   0  0  0  0  0  0  0  0  0  0  0  0
   -2.9733   -3.0497   -0.8730 C   0  0  0  0  0  0  0  0  0  0  0  0
    3.2728    0.0453    2.8700 C   0  0  0  0  0  0  0  0  0  0  0  0
    3.5996    0.8923   -0.6389 S   0  0  0  0  0  0  0  0  0  0  0  0
   -1.8146    1.0848    0.0973 N   0  0  0  0  0  0  0  0  0  0  0  0
   -1.2988   -1.2236    0.3128 N   0  0  0  0  0  0  0  0  0  0  0  0
   -0.9344    0.0042    0.0971 C   0  0  0  0  0  0  0  0  0  0  0  0
    0.5257    0.2136   -0.2075 C   0  0  0  0  0  0  0  0  0  0  0  0
    2.8439   -0.5849   -0.1639 C   0  0  0  0  0  0  0  0  0  0  0  0
    1.4458   -0.7131    0.1048 C   0  0  0  0  0  0  0  0  0  0  0  0
   -3.2322    0.8695    0.3571 C   0  0  0  0  0  0  0  0  0  0  0  0
   -2.6984   -1.5041    0.6137 C   0  0  0  0  0  0  0  0  0  0  0  0
   -3.6252   -0.5270   -0.0756 C   0  0  0  0  0  0  0  0  0  0  0  0
    3.7958   -1.5903   -0.0686 C   0  0  0  0  0  0  0  0  0  0  0  0
   -1.3555    2.4589    0.2518 C   0  0  0  0  0  0  0  0  0  0  0  0
    5.1452    0.1754   -0.7224 C   0  0  0  0  0  0  0  0  0  0  0  0
    5.1133   -1.1586   -0.3935 C   0  0  0  0  0  0  0  0  0  0  0  0
   -2.0194    3.3551    1.6881 H   0  0  0  0  0  0  0  0  0  0  0  0
    1.7054    0.0260   -3.9150 H   0  0  0  0  0  0  0  0  0  0  0  0
   -3.8148    3.5500    3.5021 H   0  0  0  0  0  0  0  0  0  0  0  0
    3.5744   -1.3772   -4.9609 H   0  0  0  0  0  0  0  0  0  0  0  0
   -0.4607    1.5110   -1.9776 H   0  0  0  0  0  0  0  0  0  0  0  0
    0.0818    2.4488   -0.6395 H   0  0  0  0  0  0  0  0  0  0  0  0
   -4.3536   -0.5050    1.9220 H   0  0  0  0  0  0  0  0  0  0  0  0
    4.5267   -1.3857   -0.6787 H   0  0  0  0  0  0  0  0  0  0  0  0
   -0.6069   -1.0088   -2.1280 H   0  0  0  0  0  0  0  0  0  0  0  0
    0.5624    1.6675    1.7018 H   0  0  0  0  0  0  0  0  0  0  0  0
   -4.3098   -2.5887    0.7276 H   0  0  0  0  0  0  0  0  0  0  0  0
    4.6646   -1.0775    1.7002 H   0  0  0  0  0  0  0  0  0  0  0  0
   -1.5346   -3.2267   -2.4599 H   0  0  0  0  0  0  0  0  0  0  0  0
    1.7478    1.2557    3.7799 H   0  0  0  0  0  0  0  0  0  0  0  0
   -3.3954   -4.0378   -1.0319 H   0  0  0  0  0  0  0  0  0  0  0  0
    3.8091   -0.1271    3.7991 H   0  0  0  0  0  0  0  0  0  0  0  0
    0.7806    1.1397   -0.7033 H   0  0  0  0  0  0  0  0  0  0  0  0
    1.1216   -1.6382    0.5790 H   0  0  0  0  0  0  0  0  0  0  0  0
   -3.8346    1.5977   -0.1970 H   0  0  0  0  0  0  0  0  0  0  0  0
   -3.4373    1.0108    1.4252 H   0  0  0  0  0  0  0  0  0  0  0  0
   -2.8458   -1.4875    1.6998 H   0  0  0  0  0  0  0  0  0  0  0  0
   -2.9312   -2.5195    0.2739 H   0  0  0  0  0  0  0  0  0  0  0  0
   -3.5316   -0.6267   -1.1641 H   0  0  0  0  0  0  0  0  0  0  0  0
   -4.6682   -0.7317    0.1877 H   0  0  0  0  0  0  0  0  0  0  0  0
    3.5499   -2.6060    0.2205 H   0  0  0  0  0  0  0  0  0  0  0  0
   -0.7836    2.7776   -0.6254 H   0  0  0  0  0  0  0  0  0  0  0  0
   -0.7290    2.5586    1.1448 H   0  0  0  0  0  0  0  0  0  0  0  0
   -2.1949    3.1562    0.3569 H   0  0  0  0  0  0  0  0  0  0  0  0
    6.0043    0.7664   -1.0080 H   0  0  0  0  0  0  0  0  0  0  0  0
    5.9898   -1.7943   -0.3840 H   0  0  0  0  0  0  0  0  0  0  0  0
  1 11  1  0
  2 12  1  0
  3 22  2  0
  4 23  2  0
  5 22  1  0
  6 23  1  0
  7  9  1  0
  7 11  2  0
  7 13  1  0
  8 10  1  0
  8 12  2  0
  8 13  1  0
  9 14  2  0
  9 20  1  0
 10 15  2  0
 10 21  1  0
 11 16  1  0
 12 17  1  0
 14 18  1  0
 14 24  1  0
 15 19  1  0
 15 25  1  0
 16 18  2  0
 16 22  1  0
 17 19  2  0
 17 23  1  0
 20 26  2  0
 21 27  2  0
 24 28  2  0
 25 29  2  0
 26 28  1  0
 27 29  1  0
 30 35  1  0
 30 42  1  0
 31 33  1  0
 31 37  1  0
 31 41  1  0
 32 33  2  0
 32 38  1  0
 33 34  1  0
 34 36  2  0
 35 36  1  0
 35 40  2  0
 37 39  1  0
 38 39  1  0
 40 43  1  0
 42 43  2  0
  1 44  1  0
  2 45  1  0
  5 46  1  0
  6 47  1  0
 13 48  1  0
 13 49  1  0
 18 50  1  0
 19 51  1  0
 20 52  1  0
 21 53  1  0
 24 54  1  0
 25 55  1  0
 26 56  1  0
 27 57  1  0
 28 58  1  0
 29 59  1  0
 34 60  1  0
 36 61  1  0
 37 62  1  0
 37 63  1  0
 38 64  1  0
 38 65  1  0
 39 66  1  0
 39 67  1  0
 40 68  1  0
 41 69  1  0
 41 70  1  0
 41 71  1  0
 42 72  1  0
 43 73  1  0
M  END
$$$$
