
     RDKit          3D

 73 77  0  0  0  0  0  0  0  0999 V2000
   -1.2441    2.0458   -2.5274 O   0  0  0  0  0  0  0  0  0  0  0  0
    0.7177    2.1638    0.1334 O   0  0  0  0  0  0  0  0  0  0  0  0
   -3.3001    3.6749   -2.4804 O   0  0  0  0  0  0  0  0  0  0  0  0
    1.9985    3.3316    2.0999 O   0  0  0  0  0  0  0  0  0  0  0  0
   -5.0043    3.2259   -1.1000 O   0  0  0  0  0  0  0  0  0  0  0  0
    3.8111    2.3258    2.9447 O   0  0  0  0  0  0  0  0  0  0  0  0
   -1.2034    0.2619   -0.9441 C   0  0  0  0  0  0  0  0  0  0  0  0
    1.3365   -0.0706   -0.4353 C   0  0  0  0  0  0  0  0  0  0  0  0
   -1.8626   -0.5099    0.0650 C   0  0  0  0  0  0  0  0  0  0  0  0
    2.2404   -1.1774   -0.2907 C   0  0  0  0  0  0  0  0  0  0  0  0
   -1.8678    1.3792   -1.4977 C   0  0  0  0  0  0  0  0  0  0  0  0
    1.5422    1.0865    0.3513 C   0  0  0  0  0  0  0  0  0  0  0  0
    0.1942   -0.0939   -1.4564 C   0  0  0  0  0  0  0  0  0  0  0  0
   -3.1335   -0.0869    0.5356 C   0  0  0  0  0  0  0  0  0  0  0  0
    3.2648   -1.1027    0.6914 C   0  0  0  0  0  0  0  0  0  0  0  0
   -3.1235    1.7843   -1.0231 C   0  0  0  0  0  0  0  0  0  0  0  0
    2.5649    1.1438    1.3087 C   0  0  0  0  0  0  0  0  0  0  0  0
   -3.7396    1.0552   -0.0023 C   0  0  0  0  0  0  0  0  0  0  0  0
    3.4090    0.0456    1.4780 C   0  0  0  0  0  0  0  0  0  0  0  0
   -1.3369   -1.6943    0.6325 C   0  0  0  0  0  0  0  0  0  0  0  0
    2.1935   -2.3678   -1.0609 C   0  0  0  0  0  0  0  0  0  0  0  0
   -3.7864    2.9737   -1.6078 C   0  0  0  0  0  0  0  0  0  0  0  0
    2.7395    2.3622    2.1341 C   0  0  0  0  0  0  0  0  0  0  0  0
   -3.7989   -0.8127    1.5390 C   0  0  0  0  0  0  0  0  0  0  0  0
    4.1492   -2.1770    0.8878 C   0  0  0  0  0  0  0  0  0  0  0  0
   -2.0106   -2.4098    1.6264 C   0  0  0  0  0  0  0  0  0  0  0  0
    3.0811   -3.4285   -0.8561 C   0  0  0  0  0  0  0  0  0  0  0  0
   -3.2411   -1.9655    2.0834 C   0  0  0  0  0  0  0  0  0  0  0  0
    4.0566   -3.3352    0.1226 C   0  0  0  0  0  0  0  0  0  0  0  0
   -3.8968   -1.2766    1.6814 S   0  0  0  0  0  0  0  0  0  0  0  0
    1.7951    0.4137   -0.7667 N   0  0  0  0  0  0  0  0  0  0  0  0
    1.3004   -0.5024    1.3690 N   0  0  0  0  0  0  0  0  0  0  0  0
    0.9194    0.0062    0.2376 C   0  0  0  0  0  0  0  0  0  0  0  0
   -0.5638    0.1887    0.0684 C   0  0  0  0  0  0  0  0  0  0  0  0
   -2.8541   -0.3923    0.6241 C   0  0  0  0  0  0  0  0  0  0  0  0
   -1.4425   -0.5455    0.7679 C   0  0  0  0  0  0  0  0  0  0  0  0
    3.2297    0.2220   -0.5918 C   0  0  0  0  0  0  0  0  0  0  0  0
    2.7236   -0.7099    1.6134 C   0  0  0  0  0  0  0  0  0  0  0  0
    3.5754    0.3028    0.8795 C   0  0  0  0  0  0  0  0  0  0  0  0
   -3.6088    0.3705   -0.2554 C   0  0  0  0  0  0  0  0  0  0  0  0
    1.3596    0.5953   -2.1454 C   0  0  0  0  0  0  0  0  0  0  0  0
   -5.3067   -0.6356    0.9652 C   0  0  0  0  0  0  0  0  0  0  0  0
   -5.0148    0.2309   -0.0615 C   0  0  0  0  0  0  0  0  0  0  0  0
   -1.7628    2.8443   -2.7627 H   0  0  0  0  0  0  0  0  0  0  0  0
    0.9147    2.8744    0.7802 H   0  0  0  0  0  0  0  0  0  0  0  0
   -5.3108    4.0222   -1.5822 H   0  0  0  0  0  0  0  0  0  0  0  0
    3.7906    3.1865    3.4145 H   0  0  0  0  0  0  0  0  0  0  0  0
    0.0805   -1.0691   -1.9359 H   0  0  0  0  0  0  0  0  0  0  0  0
    0.5108    0.5685   -2.2710 H   0  0  0  0  0  0  0  0  0  0  0  0
   -4.7123    1.3700    0.3707 H   0  0  0  0  0  0  0  0  0  0  0  0
    4.1992    0.0870    2.2254 H   0  0  0  0  0  0  0  0  0  0  0  0
   -0.3843   -2.0937    0.3021 H   0  0  0  0  0  0  0  0  0  0  0  0
    1.4573   -2.5030   -1.8481 H   0  0  0  0  0  0  0  0  0  0  0  0
   -4.7701   -0.4845    1.9055 H   0  0  0  0  0  0  0  0  0  0  0  0
    4.9280   -2.1201    1.6457 H   0  0  0  0  0  0  0  0  0  0  0  0
   -1.5674   -3.3132    2.0364 H   0  0  0  0  0  0  0  0  0  0  0  0
    3.0037   -4.3247   -1.4653 H   0  0  0  0  0  0  0  0  0  0  0  0
   -3.7696   -2.5155    2.8566 H   0  0  0  0  0  0  0  0  0  0  0  0
    4.7460   -4.1570    0.2903 H   0  0  0  0  0  0  0  0  0  0  0  0
   -0.8720    0.9467   -0.6361 H   0  0  0  0  0  0  0  0  0  0  0  0
   -1.0728   -1.2831    1.4785 H   0  0  0  0  0  0  0  0  0  0  0  0
    3.5249   -0.7506   -1.0041 H   0  0  0  0  0  0  0  0  0  0  0  0
    3.7859    0.9967   -1.1326 H   0  0  0  0  0  0  0  0  0  0  0  0
    2.9094   -0.6210    2.6891 H   0  0  0  0  0  0  0  0  0  0  0  0
    2.9940   -1.7322    1.3246 H   0  0  0  0  0  0  0  0  0  0  0  0
    3.3707    1.3113    1.2616 H   0  0  0  0  0  0  0  0  0  0  0  0
    4.6390    0.0965    1.0366 H   0  0  0  0  0  0  0  0  0  0  0  0
   -3.1792    1.0089   -1.0175 H   0  0  0  0  0  0  0  0  0  0  0  0
    0.6511    1.4262   -2.2229 H   0  0  0  0  0  0  0  0  0  0  0  0
    0.8863   -0.3171   -2.5225 H   0  0  0  0  0  0  0  0  0  0  0  0
    2.1993    0.8331   -2.8081 H   0  0  0  0  0  0  0  0  0  0  0  0
   -6.2821   -0.9261    1.3303 H   0  0  0  0  0  0  0  0  0  0  0  0
   -5.7703    0.7428   -0.6451 H   0  0  0  0  0  0  0  0  0  0  0  0
  1 11  1  0
  2 12  1  0
  3 22  2  0
  4 23  2  0
  5 22  1  0
  6 23  1  0
  7  9  1  0
  7 11  2  0
  7 13  1  0
  8 10  1  0
  8 12  2  0
  8 13  1  0
  9 14  2  0
  9 20  1  0
 10 15  2  0
 10 21  1  0
 11 16  1  0
 12 17  1  0
 14 18  1  0
 14 24  1  0
 15 19  1  0
 15 25  1  0
 16 18  2  0
 16 22  1  0
 17 19  2  0
 17 23  1  0
 20 26  2  0
 21 27  2  0
 24 28  2  0
 25 29  2  0
 26 28  1  0
 27 29  1  0
 30 35  1  0
 30 42  1  0
 31 33  1  0
 31 37  1  0
 31 41  1  0
 32 33  2  0
 32 38  1  0
 33 34  1  0
 34 36  2  0
 35 36  1  0
 35 40  2  0
 37 39  1  0
 38 39  1  0
 40 43  1  0
 42 43  2  0
  1 44  1  0
  2 45  1  0
  5 46  1  0
  6 47  1  0
 13 48  1  0
 13 49  1  0
 18 50  1  0
 19 51  1  0
 20 52  1  0
 21 53  1  0
 24 54  1  0
 25 55  1  0
 26 56  1  0
 27 57  1  0
 28 58  1  0
 29 59  1  0
 34 60  1  0
 36 61  1  0
 37 62  1  0
 37 63  1  0
 38 64  1  0
 38 65  1  0
 39 66  1  0
 39 67  1  0
 40 68  1  0
 41 69  1  0
 41 70  1  0
 41 71  1  0
 42 72  1  0
 43 73  1  0
M  END
$$$$
