
     RDKit          3D

 73 77  0  0  0  0  0  0  0  0999 V2000
    0.9688   -2.0441   -0.1437 O   0  0  0  0  0  0  0  0  0  0  0  0
   -1.2062   -2.4564    2.3644 O   0  0  0  0  0  0  0  0  0  0  0  0
    2.5486   -2.8196   -2.0844 O   0  0  0  0  0  0  0  0  0  0  0  0
   -3.0438   -4.2873    1.9753 O   0  0  0  0  0  0  0  0  0  0  0  0
    4.2087   -1.4654   -2.7307 O   0  0  0  0  0  0  0  0  0  0  0  0
   -4.6648   -3.8949    0.4834 O   0  0  0  0  0  0  0  0  0  0  0  0
    1.2631    0.1563    0.7308 C   0  0  0  0  0  0  0  0  0  0  0  0
   -1.2484   -0.5250    0.9650 C   0  0  0  0  0  0  0  0  0  0  0  0
    2.0388    1.3623    0.8054 C   0  0  0  0  0  0  0  0  0  0  0  0
   -1.9084    0.2688   -0.0262 C   0  0  0  0  0  0  0  0  0  0  0  0
    1.6655   -0.8606   -0.1653 C   0  0  0  0  0  0  0  0  0  0  0  0
   -1.8193   -1.7589    1.3490 C   0  0  0  0  0  0  0  0  0  0  0  0
    0.0495   -0.0722    1.6370 C   0  0  0  0  0  0  0  0  0  0  0  0
    3.1342    1.5289   -0.0837 C   0  0  0  0  0  0  0  0  0  0  0  0
   -3.0793   -0.2398   -0.6473 C   0  0  0  0  0  0  0  0  0  0  0  0
    2.7521   -0.6788   -1.0321 C   0  0  0  0  0  0  0  0  0  0  0  0
   -2.9765   -2.2468    0.7264 C   0  0  0  0  0  0  0  0  0  0  0  0
    3.4680    0.5187   -0.9927 C   0  0  0  0  0  0  0  0  0  0  0  0
   -3.5905   -1.4885   -0.2729 C   0  0  0  0  0  0  0  0  0  0  0  0
    1.7989    2.4256    1.7140 C   0  0  0  0  0  0  0  0  0  0  0  0
   -1.4786    1.5533   -0.4362 C   0  0  0  0  0  0  0  0  0  0  0  0
    3.1342   -1.7544   -1.9770 C   0  0  0  0  0  0  0  0  0  0  0  0
   -3.5368   -3.5570    1.1310 C   0  0  0  0  0  0  0  0  0  0  0  0
    3.9033    2.7050   -0.0611 C   0  0  0  0  0  0  0  0  0  0  0  0
   -3.7407    0.5046   -1.6392 C   0  0  0  0  0  0  0  0  0  0  0  0
    2.5750    3.5888    1.7286 C   0  0  0  0  0  0  0  0  0  0  0  0
   -2.1466    2.2851   -1.4221 C   0  0  0  0  0  0  0  0  0  0  0  0
    3.6253    3.7308    0.8369 C   0  0  0  0  0  0  0  0  0  0  0  0
   -3.2762    1.7581   -2.0277 C   0  0  0  0  0  0  0  0  0  0  0  0
    3.6313    1.0165   -0.2395 S   0  0  0  0  0  0  0  0  0  0  0  0
   -1.8333    1.0304   -0.1557 N   0  0  0  0  0  0  0  0  0  0  0  0
   -1.2550   -1.1646    0.5463 N   0  0  0  0  0  0  0  0  0  0  0  0
   -0.9195    0.0251    0.1507 C   0  0  0  0  0  0  0  0  0  0  0  0
    0.5568    0.2989    0.0828 C   0  0  0  0  0  0  0  0  0  0  0  0
    2.8471   -0.5203   -0.2296 C   0  0  0  0  0  0  0  0  0  0  0  0
    1.4308   -0.6923   -0.1483 C   0  0  0  0  0  0  0  0  0  0  0  0
   -3.2612    0.7425   -0.1060 C   0  0  0  0  0  0  0  0  0  0  0  0
   -2.6692   -1.5095    0.6476 C   0  0  0  0  0  0  0  0  0  0  0  0
   -3.5271   -0.3016    0.9567 C   0  0  0  0  0  0  0  0  0  0  0  0
    3.7943   -1.5300   -0.3269 C   0  0  0  0  0  0  0  0  0  0  0  0
   -1.4619    2.1895   -0.9574 C   0  0  0  0  0  0  0  0  0  0  0  0
    5.1853    0.3222   -0.3589 C   0  0  0  0  0  0  0  0  0  0  0  0
    5.1337   -1.0502   -0.3982 C   0  0  0  0  0  0  0  0  0  0  0  0
    1.3166   -2.6516   -0.8301 H   0  0  0  0  0  0  0  0  0  0  0  0
   -1.6475   -3.3248    2.4786 H   0  0  0  0  0  0  0  0  0  0  0  0
    4.3354   -2.2597   -3.2914 H   0  0  0  0  0  0  0  0  0  0  0  0
   -4.9050   -4.7710    0.8516 H   0  0  0  0  0  0  0  0  0  0  0  0
   -0.2252    0.8234    2.1986 H   0  0  0  0  0  0  0  0  0  0  0  0
    0.3805   -0.7813    2.4043 H   0  0  0  0  0  0  0  0  0  0  0  0
    4.3100    0.6626   -1.6671 H   0  0  0  0  0  0  0  0  0  0  0  0
   -4.4871   -1.8670   -0.7600 H   0  0  0  0  0  0  0  0  0  0  0  0
    0.9988    2.3738    2.4464 H   0  0  0  0  0  0  0  0  0  0  0  0
   -0.6087    2.0193    0.0142 H   0  0  0  0  0  0  0  0  0  0  0  0
    4.7391    2.8313   -0.7472 H   0  0  0  0  0  0  0  0  0  0  0  0
   -4.6343    0.1112   -2.1202 H   0  0  0  0  0  0  0  0  0  0  0  0
    2.3542    4.3786    2.4422 H   0  0  0  0  0  0  0  0  0  0  0  0
   -1.7777    3.2658   -1.7109 H   0  0  0  0  0  0  0  0  0  0  0  0
    4.2322    4.6320    0.8431 H   0  0  0  0  0  0  0  0  0  0  0  0
   -3.7991    2.3209   -2.7960 H   0  0  0  0  0  0  0  0  0  0  0  0
    0.8555    1.3259    0.2358 H   0  0  0  0  0  0  0  0  0  0  0  0
    1.0529   -1.7055   -0.2746 H   0  0  0  0  0  0  0  0  0  0  0  0
   -3.8256    1.6509    0.1351 H   0  0  0  0  0  0  0  0  0  0  0  0
   -3.6009    0.3897   -1.0875 H   0  0  0  0  0  0  0  0  0  0  0  0
   -2.9907   -1.9902   -0.2839 H   0  0  0  0  0  0  0  0  0  0  0  0
   -2.7917   -2.2491    1.4463 H   0  0  0  0  0  0  0  0  0  0  0  0
   -4.5871   -0.5759    0.9702 H   0  0  0  0  0  0  0  0  0  0  0  0
   -3.2735    0.0948    1.9478 H   0  0  0  0  0  0  0  0  0  0  0  0
    3.5314   -2.5816   -0.3410 H   0  0  0  0  0  0  0  0  0  0  0  0
   -1.0427    1.8735   -1.9183 H   0  0  0  0  0  0  0  0  0  0  0  0
   -2.3252    2.8312   -1.1658 H   0  0  0  0  0  0  0  0  0  0  0  0
   -0.7278    2.8072   -0.4312 H   0  0  0  0  0  0  0  0  0  0  0  0
    6.0623    0.9534   -0.3952 H   0  0  0  0  0  0  0  0  0  0  0  0
    6.0111   -1.6807   -0.4733 H   0  0  0  0  0  0  0  0  0  0  0  0
  1 11  1  0
  2 12  1  0
  3 22  2  0
  4 23  2  0
  5 22  1  0
  6 23  1  0
  7  9  1  0
  7 11  2  0
  7 13  1  0
  8 10  1  0
  8 12  2  0
  8 13  1  0
  9 14  2  0
  9 20  1  0
 10 15  2  0
 10 21  1  0
 11 16  1  0
 12 17  1  0
 14 18  1  0
 14 24  1  0
 15 19  1  0
 15 25  1  0
 16 18  2  0
 16 22  1  0
 17 19  2  0
 17 23  1  0
 20 26  2  0
 21 27  2  0
 24 28  2  0
 25 29  2  0
 26 28  1  0
 27 29  1  0
 30 35  1  0
 30 42  1  0
 31 33  1  0
 31 37  1  0
 31 41  1  0
 32 33  2  0
 32 38  1  0
 33 34  1  0
 34 36  2  0
 35 36  1  0
 35 40  2  0
 37 39  1  0
 38 39  1  0
 40 43  1  0
 42 43  2  0
  1 44  1  0
  2 45  1  0
  5 46  1  0
  6 47  1  0
 13 48  1  0
 13 49  1  0
 18 50  1  0
 19 51  1  0
 20 52  1  0
 21 53  1  0
 24 54  1  0
 25 55  1  0
 26 56  1  0
 27 57  1  0
 28 58  1  0
 29 59  1  0
 34 60  1  0
 36 61  1  0
 37 62  1  0
 37 63  1  0
 38 64  1  0
 38 65  1  0
 39 66  1  0
 39 67  1  0
 40 68  1  0
 41 69  1  0
 41 70  1  0
 41 71  1  0
 42 72  1  0
 43 73  1  0
M  END
$$$$
