
     RDKit          3D

 73 77  0  0  0  0  0  0  0  0999 V2000
   -0.8080   -2.1040    0.0302 O   0  0  0  0  0  0  0  0  0  0  0  0
    1.4998   -2.1743    2.4397 O   0  0  0  0  0  0  0  0  0  0  0  0
   -4.1397   -2.0767   -2.4761 O   0  0  0  0  0  0  0  0  0  0  0  0
    3.4937   -3.8396    2.0700 O   0  0  0  0  0  0  0  0  0  0  0  0
   -2.3351   -3.1346   -1.7074 O   0  0  0  0  0  0  0  0  0  0  0  0
    4.9895   -3.3990    0.4656 O   0  0  0  0  0  0  0  0  0  0  0  0
   -1.2737    0.1027    0.7976 C   0  0  0  0  0  0  0  0  0  0  0  0
    1.2999   -0.3303    0.9400 C   0  0  0  0  0  0  0  0  0  0  0  0
   -2.1578    1.2331    0.8519 C   0  0  0  0  0  0  0  0  0  0  0  0
    1.8382    0.4624   -0.1230 C   0  0  0  0  0  0  0  0  0  0  0  0
   -1.6172   -0.9978   -0.0226 C   0  0  0  0  0  0  0  0  0  0  0  0
    2.0006   -1.4826    1.3609 C   0  0  0  0  0  0  0  0  0  0  0  0
   -0.0027    0.0425    1.6509 C   0  0  0  0  0  0  0  0  0  0  0  0
   -3.3039    1.2460    0.0141 C   0  0  0  0  0  0  0  0  0  0  0  0
    3.0241    0.0289   -0.7721 C   0  0  0  0  0  0  0  0  0  0  0  0
   -2.7534   -0.9681   -0.8420 C   0  0  0  0  0  0  0  0  0  0  0  0
    3.1709   -1.8968    0.7100 C   0  0  0  0  0  0  0  0  0  0  0  0
   -3.5774    0.1597   -0.8237 C   0  0  0  0  0  0  0  0  0  0  0  0
    3.6665   -1.1440   -0.3571 C   0  0  0  0  0  0  0  0  0  0  0  0
   -1.9808    2.3633    1.6918 C   0  0  0  0  0  0  0  0  0  0  0  0
    1.2717    1.6767   -0.5787 C   0  0  0  0  0  0  0  0  0  0  0  0
   -3.1646   -2.0717   -1.7477 C   0  0  0  0  0  0  0  0  0  0  0  0
    3.8710   -3.1231    1.1573 C   0  0  0  0  0  0  0  0  0  0  0  0
   -4.1834    2.3420    0.0172 C   0  0  0  0  0  0  0  0  0  0  0  0
    3.5694    0.7739   -1.8317 C   0  0  0  0  0  0  0  0  0  0  0  0
   -2.8659    3.4461    1.6882 C   0  0  0  0  0  0  0  0  0  0  0  0
    1.8256    2.4102   -1.6317 C   0  0  0  0  0  0  0  0  0  0  0  0
   -3.9661    3.4373    0.8468 C   0  0  0  0  0  0  0  0  0  0  0  0
    2.9732    1.9560   -2.2620 C   0  0  0  0  0  0  0  0  0  0  0  0
    3.7120   -1.2842    1.1575 S   0  0  0  0  0  0  0  0  0  0  0  0
   -1.5989   -0.7233   -0.3261 N   0  0  0  0  0  0  0  0  0  0  0  0
   -1.5915    1.6356   -0.0087 N   0  0  0  0  0  0  0  0  0  0  0  0
   -0.9676    0.5087   -0.1779 C   0  0  0  0  0  0  0  0  0  0  0  0
    0.5198    0.6764   -0.1881 C   0  0  0  0  0  0  0  0  0  0  0  0
    2.7494   -0.0371    0.4467 C   0  0  0  0  0  0  0  0  0  0  0  0
    1.3329   -0.2004    0.4172 C   0  0  0  0  0  0  0  0  0  0  0  0
   -3.0508   -0.8106   -0.2120 C   0  0  0  0  0  0  0  0  0  0  0  0
   -3.0504    1.6225    0.0397 C   0  0  0  0  0  0  0  0  0  0  0  0
   -3.5735    0.3312    0.6332 C   0  0  0  0  0  0  0  0  0  0  0  0
    3.5638    0.9874   -0.0110 C   0  0  0  0  0  0  0  0  0  0  0  0
   -0.9760   -1.8311   -1.0428 C   0  0  0  0  0  0  0  0  0  0  0  0
    5.1690   -0.4521    0.8469 C   0  0  0  0  0  0  0  0  0  0  0  0
    4.9512    0.7504    0.2183 C   0  0  0  0  0  0  0  0  0  0  0  0
   -1.1515   -2.7724   -0.5973 H   0  0  0  0  0  0  0  0  0  0  0  0
    2.0354   -2.9822    2.5896 H   0  0  0  0  0  0  0  0  0  0  0  0
   -2.7445   -3.7555   -2.3515 H   0  0  0  0  0  0  0  0  0  0  0  0
    5.3339   -4.2210    0.8735 H   0  0  0  0  0  0  0  0  0  0  0  0
   -0.2287   -0.6423    2.4767 H   0  0  0  0  0  0  0  0  0  0  0  0
    0.2126    0.9948    2.1415 H   0  0  0  0  0  0  0  0  0  0  0  0
   -4.4600    0.1809   -1.4630 H   0  0  0  0  0  0  0  0  0  0  0  0
    4.5735   -1.4649   -0.8657 H   0  0  0  0  0  0  0  0  0  0  0  0
   -1.1463    2.4286    2.3835 H   0  0  0  0  0  0  0  0  0  0  0  0
    0.3815    2.0854   -0.1126 H   0  0  0  0  0  0  0  0  0  0  0  0
   -5.0589    2.3487   -0.6301 H   0  0  0  0  0  0  0  0  0  0  0  0
    4.4750    0.4382   -2.3335 H   0  0  0  0  0  0  0  0  0  0  0  0
   -2.6906    4.2918    2.3486 H   0  0  0  0  0  0  0  0  0  0  0  0
    1.3544    3.3357   -1.9527 H   0  0  0  0  0  0  0  0  0  0  0  0
   -4.6582    4.2749    0.8396 H   0  0  0  0  0  0  0  0  0  0  0  0
    3.4080    2.5208   -3.0820 H   0  0  0  0  0  0  0  0  0  0  0  0
    0.8666    1.5968   -0.6424 H   0  0  0  0  0  0  0  0  0  0  0  0
    0.9064   -1.0590    0.9286 H   0  0  0  0  0  0  0  0  0  0  0  0
   -3.3346   -1.7650    0.2464 H   0  0  0  0  0  0  0  0  0  0  0  0
   -3.5011   -0.7746   -1.2120 H   0  0  0  0  0  0  0  0  0  0  0  0
   -3.3853    2.4619    0.6588 H   0  0  0  0  0  0  0  0  0  0  0  0
   -3.4510    1.7871   -0.9674 H   0  0  0  0  0  0  0  0  0  0  0  0
   -3.2268    0.2251    1.6688 H   0  0  0  0  0  0  0  0  0  0  0  0
   -4.6684    0.3285    0.6471 H   0  0  0  0  0  0  0  0  0  0  0  0
    3.1876    1.8829   -0.4905 H   0  0  0  0  0  0  0  0  0  0  0  0
   -0.3835   -2.4443   -0.3580 H   0  0  0  0  0  0  0  0  0  0  0  0
   -1.7263   -2.4885   -1.4971 H   0  0  0  0  0  0  0  0  0  0  0  0
   -0.3343   -1.4717   -1.8541 H   0  0  0  0  0  0  0  0  0  0  0  0
    6.1156   -0.8834    1.1420 H   0  0  0  0  0  0  0  0  0  0  0  0
    5.7458    1.4306   -0.0629 H   0  0  0  0  0  0  0  0  0  0  0  0
  1 11  1  0
  2 12  1  0
  3 22  2  0
  4 23  2  0
  5 22  1  0
  6 23  1  0
  7  9  1  0
  7 11  2  0
  7 13  1  0
  8 10  1  0
  8 12  2  0
  8 13  1  0
  9 14  2  0
  9 20  1  0
 10 15  2  0
 10 21  1  0
 11 16  1  0
 12 17  1  0
 14 18  1  0
 14 24  1  0
 15 19  1  0
 15 25  1  0
 16 18  2  0
 16 22  1  0
 17 19  2  0
 17 23  1  0
 20 26  2  0
 21 27  2  0
 24 28  2  0
 25 29  2  0
 26 28  1  0
 27 29  1  0
 30 35  1  0
 30 42  1  0
 31 33  1  0
 31 37  1  0
 31 41  1  0
 32 33  2  0
 32 38  1  0
 33 34  1  0
 34 36  2  0
 35 36  1  0
 35 40  2  0
 37 39  1  0
 38 39  1  0
 40 43  1  0
 42 43  2  0
  1 44  1  0
  2 45  1  0
  5 46  1  0
  6 47  1  0
 13 48  1  0
 13 49  1  0
 18 50  1  0
 19 51  1  0
 20 52  1  0
 21 53  1  0
 24 54  1  0
 25 55  1  0
 26 56  1  0
 27 57  1  0
 28 58  1  0
 29 59  1  0
 34 60  1  0
 36 61  1  0
 37 62  1  0
 37 63  1  0
 38 64  1  0
 38 65  1  0
 39 66  1  0
 39 67  1  0
 40 68  1  0
 41 69  1  0
 41 70  1  0
 41 71  1  0
 42 72  1  0
 43 73  1  0
M  END
$$$$
