
     RDKit          3D

 73 77  0  0  0  0  0  0  0  0999 V2000
    0.7366    2.1835   -0.5685 O   0  0  0  0  0  0  0  0  0  0  0  0
   -0.6431   -2.2303    0.4745 O   0  0  0  0  0  0  0  0  0  0  0  0
    4.1164    3.1635    1.6665 O   0  0  0  0  0  0  0  0  0  0  0  0
   -2.2563   -3.0712    2.3573 O   0  0  0  0  0  0  0  0  0  0  0  0
    2.1581    3.7767    0.7988 O   0  0  0  0  0  0  0  0  0  0  0  0
   -4.1970   -2.0026    2.6770 O   0  0  0  0  0  0  0  0  0  0  0  0
    1.3600   -0.1097   -0.6510 C   0  0  0  0  0  0  0  0  0  0  0  0
   -1.2350   -0.2473   -0.7048 C   0  0  0  0  0  0  0  0  0  0  0  0
    2.3064   -1.1483   -0.3595 C   0  0  0  0  0  0  0  0  0  0  0  0
   -2.1909    0.7848   -0.9879 C   0  0  0  0  0  0  0  0  0  0  0  0
    1.6259    1.2048   -0.2039 C   0  0  0  0  0  0  0  0  0  0  0  0
   -1.5418   -1.2096    0.2829 C   0  0  0  0  0  0  0  0  0  0  0  0
    0.0887   -0.3678   -1.4633 C   0  0  0  0  0  0  0  0  0  0  0  0
    3.4641   -0.8282    0.3984 C   0  0  0  0  0  0  0  0  0  0  0  0
   -3.4008    0.8233   -0.2430 C   0  0  0  0  0  0  0  0  0  0  0  0
    2.7677    1.5014    0.5523 C   0  0  0  0  0  0  0  0  0  0  0  0
   -2.7333   -1.1463    1.0182 C   0  0  0  0  0  0  0  0  0  0  0  0
    3.6732    0.4799    0.8480 C   0  0  0  0  0  0  0  0  0  0  0  0
   -3.6504   -0.1291    0.7514 C   0  0  0  0  0  0  0  0  0  0  0  0
    2.1843   -2.4981   -0.7766 C   0  0  0  0  0  0  0  0  0  0  0  0
   -2.0302    1.7903   -1.9748 C   0  0  0  0  0  0  0  0  0  0  0  0
    3.1067    2.8542    1.0627 C   0  0  0  0  0  0  0  0  0  0  0  0
   -3.0130   -2.1607    2.0610 C   0  0  0  0  0  0  0  0  0  0  0  0
    4.4171   -1.8148    0.7061 C   0  0  0  0  0  0  0  0  0  0  0  0
   -4.3666    1.8133   -0.4939 C   0  0  0  0  0  0  0  0  0  0  0  0
    3.1397   -3.4707   -0.4651 C   0  0  0  0  0  0  0  0  0  0  0  0
   -2.9995    2.7693   -2.2151 C   0  0  0  0  0  0  0  0  0  0  0  0
    4.2581   -3.1287    0.2769 C   0  0  0  0  0  0  0  0  0  0  0  0
   -4.1702    2.7802   -1.4748 C   0  0  0  0  0  0  0  0  0  0  0  0
    3.7088    0.8514   -0.9245 S   0  0  0  0  0  0  0  0  0  0  0  0
   -1.6655   -0.4641   -0.3227 N   0  0  0  0  0  0  0  0  0  0  0  0
   -1.4024    1.8989   -0.1052 N   0  0  0  0  0  0  0  0  0  0  0  0
   -0.9132    0.7118   -0.3010 C   0  0  0  0  0  0  0  0  0  0  0  0
    0.5729    0.7281   -0.4765 C   0  0  0  0  0  0  0  0  0  0  0  0
    2.7727   -0.2126    0.0601 C   0  0  0  0  0  0  0  0  0  0  0  0
    1.3455   -0.1865    0.1268 C   0  0  0  0  0  0  0  0  0  0  0  0
   -3.1045   -0.3788   -0.0687 C   0  0  0  0  0  0  0  0  0  0  0  0
   -2.8360    2.0402    0.1223 C   0  0  0  0  0  0  0  0  0  0  0  0
   -3.4090    0.8173    0.8071 C   0  0  0  0  0  0  0  0  0  0  0  0
    3.6136   -1.0800    0.7441 C   0  0  0  0  0  0  0  0  0  0  0  0
   -1.3109   -1.5506   -1.2371 C   0  0  0  0  0  0  0  0  0  0  0  0
    5.1858    0.1630   -0.4204 C   0  0  0  0  0  0  0  0  0  0  0  0
    4.9957   -0.8665    0.4707 C   0  0  0  0  0  0  0  0  0  0  0  0
    1.0024    3.0203   -0.1324 H   0  0  0  0  0  0  0  0  0  0  0  0
   -0.9226   -2.7830    1.2357 H   0  0  0  0  0  0  0  0  0  0  0  0
    2.5278    4.5913    1.2084 H   0  0  0  0  0  0  0  0  0  0  0  0
   -4.2363   -2.7352    3.3273 H   0  0  0  0  0  0  0  0  0  0  0  0
    0.0936   -1.3538   -1.9371 H   0  0  0  0  0  0  0  0  0  0  0  0
    0.1290    0.2961   -2.3319 H   0  0  0  0  0  0  0  0  0  0  0  0
    4.5633    0.7128    1.4318 H   0  0  0  0  0  0  0  0  0  0  0  0
   -4.5786   -0.0807    1.3173 H   0  0  0  0  0  0  0  0  0  0  0  0
    1.3214   -2.8329   -1.3448 H   0  0  0  0  0  0  0  0  0  0  0  0
   -1.1279    1.8453   -2.5768 H   0  0  0  0  0  0  0  0  0  0  0  0
    5.3019   -1.5645    1.2891 H   0  0  0  0  0  0  0  0  0  0  0  0
   -5.2930    1.8374    0.0772 H   0  0  0  0  0  0  0  0  0  0  0  0
    2.9979   -4.4946   -0.8007 H   0  0  0  0  0  0  0  0  0  0  0  0
   -2.8288    3.5222   -2.9799 H   0  0  0  0  0  0  0  0  0  0  0  0
    5.0022   -3.8803    0.5240 H   0  0  0  0  0  0  0  0  0  0  0  0
   -4.9274    3.5375   -1.6567 H   0  0  0  0  0  0  0  0  0  0  0  0
    0.9581    1.5814   -1.0223 H   0  0  0  0  0  0  0  0  0  0  0  0
    0.8698   -0.9536    0.7347 H   0  0  0  0  0  0  0  0  0  0  0  0
   -3.4488   -1.2928    0.4284 H   0  0  0  0  0  0  0  0  0  0  0  0
   -3.6443   -0.2941   -1.0205 H   0  0  0  0  0  0  0  0  0  0  0  0
   -3.0043    2.9170    0.7577 H   0  0  0  0  0  0  0  0  0  0  0  0
   -3.3403    2.2332   -0.8322 H   0  0  0  0  0  0  0  0  0  0  0  0
   -2.9542    0.6904    1.7972 H   0  0  0  0  0  0  0  0  0  0  0  0
   -4.4896    0.9258    0.9469 H   0  0  0  0  0  0  0  0  0  0  0  0
    3.2483   -1.8411    1.4238 H   0  0  0  0  0  0  0  0  0  0  0  0
   -1.9356   -2.4328   -1.0485 H   0  0  0  0  0  0  0  0  0  0  0  0
   -1.4662   -1.2374   -2.2760 H   0  0  0  0  0  0  0  0  0  0  0  0
   -0.2746   -1.8758   -1.1201 H   0  0  0  0  0  0  0  0  0  0  0  0
    6.1222    0.5440   -0.8043 H   0  0  0  0  0  0  0  0  0  0  0  0
    5.8060   -1.4359    0.9089 H   0  0  0  0  0  0  0  0  0  0  0  0
  1 11  1  0
  2 12  1  0
  3 22  2  0
  4 23  2  0
  5 22  1  0
  6 23  1  0
  7  9  1  0
  7 11  2  0
  7 13  1  0
  8 10  1  0
  8 12  2  0
  8 13  1  0
  9 14  2  0
  9 20  1  0
 10 15  2  0
 10 21  1  0
 11 16  1  0
 12 17  1  0
 14 18  1  0
 14 24  1  0
 15 19  1  0
 15 25  1  0
 16 18  2  0
 16 22  1  0
 17 19  2  0
 17 23  1  0
 20 26  2  0
 21 27  2  0
 24 28  2  0
 25 29  2  0
 26 28  1  0
 27 29  1  0
 30 35  1  0
 30 42  1  0
 31 33  1  0
 31 37  1  0
 31 41  1  0
 32 33  2  0
 32 38  1  0
 33 34  1  0
 34 36  2  0
 35 36  1  0
 35 40  2  0
 37 39  1  0
 38 39  1  0
 40 43  1  0
 42 43  2  0
  1 44  1  0
  2 45  1  0
  5 46  1  0
  6 47  1  0
 13 48  1  0
 13 49  1  0
 18 50  1  0
 19 51  1  0
 20 52  1  0
 21 53  1  0
 24 54  1  0
 25 55  1  0
 26 56  1  0
 27 57  1  0
 28 58  1  0
 29 59  1  0
 34 60  1  0
 36 61  1  0
 37 62  1  0
 37 63  1  0
 38 64  1  0
 38 65  1  0
 39 66  1  0
 39 67  1  0
 40 68  1  0
 41 69  1  0
 41 70  1  0
 41 71  1  0
 42 72  1  0
 43 73  1  0
M  END
$$$$
