
     RDKit          3D

 63 65  0  0  0  0  0  0  0  0999 V2000
   45.8082    7.7291   12.3808 C   0  0  0  0  0  0  0  0  0  0  0  0
   45.7275    9.1517   12.1363 C   0  0  0  0  0  0  0  0  0  0  0  0
   46.9112    9.9298   12.0893 C   0  0  0  0  0  0  0  0  0  0  0  0
   47.0740    7.1015   12.5697 C   0  0  0  0  0  0  0  0  0  0  0  0
   48.2513    7.8897   12.5137 C   0  0  0  0  0  0  0  0  0  0  0  0
   43.4417    4.6953   12.7422 C   0  0  0  0  0  0  0  0  0  0  0  0
   48.1387    9.2738   12.2818 C   0  0  0  0  0  0  0  0  0  0  0  0
   44.6553    6.8980   12.4496 C   0  0  0  0  0  0  0  0  0  0  0  0
   46.8267   11.3311   11.8537 C   0  0  0  0  0  0  0  0  0  0  0  0
   44.7060    5.5174   12.7020 C   0  0  0  0  0  0  0  0  0  0  0  0
   45.6039   11.9694   11.6634 C   0  0  0  0  0  0  0  0  0  0  0  0
   47.1040    5.7049   12.8139 C   0  0  0  0  0  0  0  0  0  0  0  0
   44.5031    9.8448   11.9366 C   0  0  0  0  0  0  0  0  0  0  0  0
   44.4458   11.2198   11.7056 C   0  0  0  0  0  0  0  0  0  0  0  0
   49.6537    7.3338   12.7347 C   0  0  2  0  0  0  0  0  0  0  0  0
   50.2355    7.6685   14.1194 C   0  0  0  0  0  0  0  0  0  0  0  0
   45.9487    4.9263   12.8767 C   0  0  0  0  0  0  0  0  0  0  0  0
   43.0534    4.2824   11.5047 F   0  0  0  0  0  0  0  0  0  0  0  0
   42.3817    5.3766   13.2600 F   0  0  0  0  0  0  0  0  0  0  0  0
   43.5602    3.5662   13.4952 F   0  0  0  0  0  0  0  0  0  0  0  0
   48.2326   12.3492   11.7904 Cl  0  0  0  0  0  0  0  0  0  0  0  0
   49.4237    7.0668   15.2737 C   0  0  0  0  0  0  0  0  0  0  0  0
   50.0489    7.3406   16.5807 N   0  0  0  0  0  0  0  0  0  0  0  0
   42.9219   11.9854   11.4738 Cl  0  0  0  0  0  0  0  0  0  0  0  0
   50.5145    7.8836   11.7278 O   0  0  0  0  0  0  0  0  0  0  0  0
   51.1470    6.4020   16.8697 C   0  0  0  0  0  0  0  0  0  0  0  0
   49.0398    7.4271   17.6542 C   0  0  0  0  0  0  0  0  0  0  0  0
   51.9724    6.7304   18.1241 C   0  0  0  0  0  0  0  0  0  0  0  0
   48.2905    6.1263   17.9840 C   0  0  0  0  0  0  0  0  0  0  0  0
   52.6251    8.1133   18.0648 C   0  0  0  0  0  0  0  0  0  0  0  0
   47.1639    6.3275   19.0024 C   0  0  0  0  0  0  0  0  0  0  0  0
   53.4810    8.3750   19.2944 C   0  0  0  0  0  0  0  0  0  0  0  0
   47.6581    6.7295   20.3837 C   0  0  0  0  0  0  0  0  0  0  0  0
   49.0654    9.8482   12.2460 H   0  0  0  0  0  0  0  0  0  0  0  0
   43.6627    7.3211   12.3074 H   0  0  0  0  0  0  0  0  0  0  0  0
   45.5600   13.0400   11.4848 H   0  0  0  0  0  0  0  0  0  0  0  0
   48.0403    5.1750   12.9631 H   0  0  0  0  0  0  0  0  0  0  0  0
   43.5539    9.3175   11.9573 H   0  0  0  0  0  0  0  0  0  0  0  0
   49.6925    6.2555   12.5715 H   0  0  0  0  0  0  0  0  0  0  0  0
   50.3075    8.7572   14.2449 H   0  0  0  0  0  0  0  0  0  0  0  0
   51.2707    7.3077   14.1456 H   0  0  0  0  0  0  0  0  0  0  0  0
   46.0324    3.8565   13.0628 H   0  0  0  0  0  0  0  0  0  0  0  0
   48.4273    7.5240   15.2464 H   0  0  0  0  0  0  0  0  0  0  0  0
   49.2828    5.9889   15.1266 H   0  0  0  0  0  0  0  0  0  0  0  0
   51.4178    7.5748   11.9109 H   0  0  0  0  0  0  0  0  0  0  0  0
   50.7690    5.3756   16.9533 H   0  0  0  0  0  0  0  0  0  0  0  0
   51.8501    6.3917   16.0285 H   0  0  0  0  0  0  0  0  0  0  0  0
   49.5195    7.8185   18.5574 H   0  0  0  0  0  0  0  0  0  0  0  0
   48.3099    8.2011   17.3811 H   0  0  0  0  0  0  0  0  0  0  0  0
   51.3557    6.6421   19.0260 H   0  0  0  0  0  0  0  0  0  0  0  0
   52.7581    5.9700   18.2204 H   0  0  0  0  0  0  0  0  0  0  0  0
   47.8440    5.7131   17.0719 H   0  0  0  0  0  0  0  0  0  0  0  0
   48.9857    5.3718   18.3693 H   0  0  0  0  0  0  0  0  0  0  0  0
   51.8610    8.8951   17.9946 H   0  0  0  0  0  0  0  0  0  0  0  0
   53.2514    8.1894   17.1683 H   0  0  0  0  0  0  0  0  0  0  0  0
   46.4567    7.0794   18.6338 H   0  0  0  0  0  0  0  0  0  0  0  0
   46.6073    5.3871   19.0931 H   0  0  0  0  0  0  0  0  0  0  0  0
   54.2781    7.6304   19.3840 H   0  0  0  0  0  0  0  0  0  0  0  0
   52.8765    8.3433   20.2064 H   0  0  0  0  0  0  0  0  0  0  0  0
   53.9455    9.3638   19.2293 H   0  0  0  0  0  0  0  0  0  0  0  0
   46.8199    6.7604   21.0873 H   0  0  0  0  0  0  0  0  0  0  0  0
   48.1169    7.7223   20.3734 H   0  0  0  0  0  0  0  0  0  0  0  0
   48.3921    6.0117   20.7628 H   0  0  0  0  0  0  0  0  0  0  0  0
  2  1  2  0
  3  2  1  0
  4  1  1  0
  5  4  2  0
  6 10  1  0
  7  5  1  0
  8  1  1  0
  9  3  1  0
 10  8  2  0
 11 14  1  0
 12  4  1  0
 13  2  1  0
 14 13  2  0
 15  5  1  0
 16 15  1  0
 17 10  1  0
 18  6  1  0
 19  6  1  0
 20  6  1  0
 21  9  1  0
 22 16  1  0
 23 22  1  0
 24 14  1  0
 25 15  1  0
 26 23  1  0
 27 23  1  0
 28 26  1  0
 29 27  1  0
 30 28  1  0
 31 29  1  0
 32 30  1  0
 33 31  1  0
 17 12  2  0
  7  3  2  0
  9 11  2  0
  7 34  1  0
  8 35  1  0
 11 36  1  0
 12 37  1  0
 13 38  1  0
 15 39  1  1
 16 40  1  0
 16 41  1  0
 17 42  1  0
 22 43  1  0
 22 44  1  0
 25 45  1  0
 26 46  1  0
 26 47  1  0
 27 48  1  0
 27 49  1  0
 28 50  1  0
 28 51  1  0
 29 52  1  0
 29 53  1  0
 30 54  1  0
 30 55  1  0
 31 56  1  0
 31 57  1  0
 32 58  1  0
 32 59  1  0
 32 60  1  0
 33 61  1  0
 33 62  1  0
 33 63  1  0
M  END
> <Uni-Dock RESULT> 
ENERGY=   -6.275  LOWER_BOUND=    0.000  UPPER_BOUND=    0.000
INTER + INTRA:          -6.275
INTER:                  -6.275
INTRA:                   0.000
UNBOUND:                 0.000

$$$$

     RDKit          3D

 63 65  0  0  0  0  0  0  0  0999 V2000
   45.8853    8.4791   12.2798 C   0  0  0  0  0  0  0  0  0  0  0  0
   45.0528    9.5745   11.8356 C   0  0  0  0  0  0  0  0  0  0  0  0
   45.6081   10.8699   11.6866 C   0  0  0  0  0  0  0  0  0  0  0  0
   47.2657    8.6929   12.5639 C   0  0  0  0  0  0  0  0  0  0  0  0
   47.8109    9.9921   12.4045 C   0  0  0  0  0  0  0  0  0  0  0  0
   45.5696    4.7057   13.0520 C   0  0  0  0  0  0  0  0  0  0  0  0
   46.9720   11.0394   11.9781 C   0  0  0  0  0  0  0  0  0  0  0  0
   45.3830    7.1599   12.4581 C   0  0  0  0  0  0  0  0  0  0  0  0
   44.7834   11.9466   11.2543 C   0  0  0  0  0  0  0  0  0  0  0  0
   46.1669    6.0831   12.9039 C   0  0  0  0  0  0  0  0  0  0  0  0
   43.4329   11.7655   10.9675 C   0  0  0  0  0  0  0  0  0  0  0  0
   48.0418    7.5906   13.0036 C   0  0  0  0  0  0  0  0  0  0  0  0
   43.6715    9.4363   11.5318 C   0  0  0  0  0  0  0  0  0  0  0  0
   42.8835   10.5072   11.1080 C   0  0  0  0  0  0  0  0  0  0  0  0
   49.2621   10.3449   12.7111 C   0  0  2  0  0  0  0  0  0  0  0  0
   49.4424   11.1027   14.0381 C   0  0  0  0  0  0  0  0  0  0  0  0
   47.5091    6.3124   13.1686 C   0  0  0  0  0  0  0  0  0  0  0  0
   45.5805    4.0086   11.8830 F   0  0  0  0  0  0  0  0  0  0  0  0
   44.2705    4.7315   13.4611 F   0  0  0  0  0  0  0  0  0  0  0  0
   46.2283    3.9304   13.9582 F   0  0  0  0  0  0  0  0  0  0  0  0
   45.3917   13.5616   11.0565 Cl  0  0  0  0  0  0  0  0  0  0  0  0
   49.0043   10.2861   15.2607 C   0  0  0  0  0  0  0  0  0  0  0  0
   49.2609   11.0093   16.5198 N   0  0  0  0  0  0  0  0  0  0  0  0
   41.2166   10.2575   10.7601 Cl  0  0  0  0  0  0  0  0  0  0  0  0
   49.7570   11.1630   11.6420 O   0  0  0  0  0  0  0  0  0  0  0  0
   50.6655   10.8854   16.9460 C   0  0  0  0  0  0  0  0  0  0  0  0
   48.2857   10.6384   17.5636 C   0  0  0  0  0  0  0  0  0  0  0  0
   51.0623   11.7594   18.1465 C   0  0  0  0  0  0  0  0  0  0  0  0
   48.3555    9.1888   18.0695 C   0  0  0  0  0  0  0  0  0  0  0  0
   50.8441   13.2533   17.8961 C   0  0  0  0  0  0  0  0  0  0  0  0
   47.2242    8.8401   19.0418 C   0  0  0  0  0  0  0  0  0  0  0  0
   51.3051   14.0867   19.0818 C   0  0  0  0  0  0  0  0  0  0  0  0
   47.2949    9.6038   20.3554 C   0  0  0  0  0  0  0  0  0  0  0  0
   47.4260   12.0252   11.8673 H   0  0  0  0  0  0  0  0  0  0  0  0
   44.3383    6.9361   12.2510 H   0  0  0  0  0  0  0  0  0  0  0  0
   42.8199   12.5998   10.6387 H   0  0  0  0  0  0  0  0  0  0  0  0
   49.0984    7.6959   13.2325 H   0  0  0  0  0  0  0  0  0  0  0  0
   43.1743    8.4749   11.6209 H   0  0  0  0  0  0  0  0  0  0  0  0
   49.9041    9.4624   12.7026 H   0  0  0  0  0  0  0  0  0  0  0  0
   48.8897   12.0513   14.0086 H   0  0  0  0  0  0  0  0  0  0  0  0
   50.4979   11.3881   14.1219 H   0  0  0  0  0  0  0  0  0  0  0  0
   48.1540    5.5018   13.5050 H   0  0  0  0  0  0  0  0  0  0  0  0
   47.9278   10.1014   15.1625 H   0  0  0  0  0  0  0  0  0  0  0  0
   49.4958    9.3053   15.2669 H   0  0  0  0  0  0  0  0  0  0  0  0
   50.6611   11.4352   11.8729 H   0  0  0  0  0  0  0  0  0  0  0  0
   50.9124    9.8406   17.1717 H   0  0  0  0  0  0  0  0  0  0  0  0
   51.3253   11.1743   16.1193 H   0  0  0  0  0  0  0  0  0  0  0  0
   48.3906   11.3309   18.4053 H   0  0  0  0  0  0  0  0  0  0  0  0
   47.2758   10.8349   17.1789 H   0  0  0  0  0  0  0  0  0  0  0  0
   50.5236   11.4448   19.0478 H   0  0  0  0  0  0  0  0  0  0  0  0
   52.1259   11.5853   18.3547 H   0  0  0  0  0  0  0  0  0  0  0  0
   48.2908    8.4960   17.2223 H   0  0  0  0  0  0  0  0  0  0  0  0
   49.3163    9.0017   18.5623 H   0  0  0  0  0  0  0  0  0  0  0  0
   49.7845   13.4601   17.7109 H   0  0  0  0  0  0  0  0  0  0  0  0
   51.3971   13.5639   17.0020 H   0  0  0  0  0  0  0  0  0  0  0  0
   46.2535    9.0202   18.5658 H   0  0  0  0  0  0  0  0  0  0  0  0
   47.2749    7.7669   19.2612 H   0  0  0  0  0  0  0  0  0  0  0  0
   52.3699   13.9311   19.2811 H   0  0  0  0  0  0  0  0  0  0  0  0
   50.7444   13.8266   19.9851 H   0  0  0  0  0  0  0  0  0  0  0  0
   51.1493   15.1511   18.8803 H   0  0  0  0  0  0  0  0  0  0  0  0
   46.5234    9.2407   21.0420 H   0  0  0  0  0  0  0  0  0  0  0  0
   47.1275   10.6745   20.2075 H   0  0  0  0  0  0  0  0  0  0  0  0
   48.2682    9.4679   20.8372 H   0  0  0  0  0  0  0  0  0  0  0  0
  2  1  2  0
  3  2  1  0
  4  1  1  0
  5  4  2  0
  6 10  1  0
  7  5  1  0
  8  1  1  0
  9  3  1  0
 10  8  2  0
 11 14  1  0
 12  4  1  0
 13  2  1  0
 14 13  2  0
 15  5  1  0
 16 15  1  0
 17 10  1  0
 18  6  1  0
 19  6  1  0
 20  6  1  0
 21  9  1  0
 22 16  1  0
 23 22  1  0
 24 14  1  0
 25 15  1  0
 26 23  1  0
 27 23  1  0
 28 26  1  0
 29 27  1  0
 30 28  1  0
 31 29  1  0
 32 30  1  0
 33 31  1  0
 17 12  2  0
  7  3  2  0
  9 11  2  0
  7 34  1  0
  8 35  1  0
 11 36  1  0
 12 37  1  0
 13 38  1  0
 15 39  1  1
 16 40  1  0
 16 41  1  0
 17 42  1  0
 22 43  1  0
 22 44  1  0
 25 45  1  0
 26 46  1  0
 26 47  1  0
 27 48  1  0
 27 49  1  0
 28 50  1  0
 28 51  1  0
 29 52  1  0
 29 53  1  0
 30 54  1  0
 30 55  1  0
 31 56  1  0
 31 57  1  0
 32 58  1  0
 32 59  1  0
 32 60  1  0
 33 61  1  0
 33 62  1  0
 33 63  1  0
M  END
> <Uni-Dock RESULT> 
ENERGY=   -5.452  LOWER_BOUND=    2.556  UPPER_BOUND=    2.952
INTER + INTRA:          -5.452
INTER:                  -5.452
INTRA:                   0.000
UNBOUND:                 0.000

$$$$

     RDKit          3D

 63 65  0  0  0  0  0  0  0  0999 V2000
   45.7735    8.9398   12.2879 C   0  0  0  0  0  0  0  0  0  0  0  0
   45.0387   10.1145   11.8753 C   0  0  0  0  0  0  0  0  0  0  0  0
   45.7058   11.3588   11.7513 C   0  0  0  0  0  0  0  0  0  0  0  0
   47.1691    9.0239   12.5660 C   0  0  0  0  0  0  0  0  0  0  0  0
   47.8263   10.2731   12.4317 C   0  0  0  0  0  0  0  0  0  0  0  0
   45.1291    5.1920   12.9766 C   0  0  0  0  0  0  0  0  0  0  0  0
   47.0811   11.4002   12.0358 C   0  0  0  0  0  0  0  0  0  0  0  0
   45.1573    7.6663   12.4402 C   0  0  0  0  0  0  0  0  0  0  0  0
   44.9773   12.5141   11.3501 C   0  0  0  0  0  0  0  0  0  0  0  0
   45.8452    6.5143   12.8552 C   0  0  0  0  0  0  0  0  0  0  0  0
   43.6144   12.4599   11.0699 C   0  0  0  0  0  0  0  0  0  0  0  0
   47.8469    7.8472   12.9744 C   0  0  0  0  0  0  0  0  0  0  0  0
   43.6489   10.1062   11.5793 C   0  0  0  0  0  0  0  0  0  0  0  0
   42.9565   11.2522   11.1860 C   0  0  0  0  0  0  0  0  0  0  0  0
   49.3048   10.4889   12.7349 C   0  0  2  0  0  0  0  0  0  0  0  0
   49.5593   11.1966   14.0773 C   0  0  0  0  0  0  0  0  0  0  0  0
   47.2040    6.6177   13.1145 C   0  0  0  0  0  0  0  0  0  0  0  0
   45.0714    4.5241   11.7921 F   0  0  0  0  0  0  0  0  0  0  0  0
   43.8397    5.3232   13.3964 F   0  0  0  0  0  0  0  0  0  0  0  0
   45.7217    4.3406   13.8598 F   0  0  0  0  0  0  0  0  0  0  0  0
   45.7251   14.0731   11.1842 Cl  0  0  0  0  0  0  0  0  0  0  0  0
   49.0576   10.3937   15.2845 C   0  0  0  0  0  0  0  0  0  0  0  0
   49.3846   11.0618   16.5575 N   0  0  0  0  0  0  0  0  0  0  0  0
   41.2720   11.1592   10.8457 Cl  0  0  0  0  0  0  0  0  0  0  0  0
   49.8640   11.2847   11.6808 O   0  0  0  0  0  0  0  0  0  0  0  0
   50.7752   10.8042   16.9698 C   0  0  0  0  0  0  0  0  0  0  0  0
   48.3864   10.7544   17.6004 C   0  0  0  0  0  0  0  0  0  0  0  0
   51.2549   11.6115   18.1867 C   0  0  0  0  0  0  0  0  0  0  0  0
   48.3305    9.2929   18.0726 C   0  0  0  0  0  0  0  0  0  0  0  0
   51.1685   13.1243   17.9720 C   0  0  0  0  0  0  0  0  0  0  0  0
   47.1783    9.0231   19.0456 C   0  0  0  0  0  0  0  0  0  0  0  0
   51.7084   13.8858   19.1726 C   0  0  0  0  0  0  0  0  0  0  0  0
   47.3241    9.7468   20.3756 C   0  0  0  0  0  0  0  0  0  0  0  0
   47.6199   12.3442   11.9439 H   0  0  0  0  0  0  0  0  0  0  0  0
   44.0956    7.5407   12.2362 H   0  0  0  0  0  0  0  0  0  0  0  0
   43.0759   13.3526   10.7649 H   0  0  0  0  0  0  0  0  0  0  0  0
   48.9100    7.8533   13.1973 H   0  0  0  0  0  0  0  0  0  0  0  0
   43.0689    9.1908   11.6504 H   0  0  0  0  0  0  0  0  0  0  0  0
   49.8660    9.5535   12.7013 H   0  0  0  0  0  0  0  0  0  0  0  0
   49.0927   12.1909   14.0736 H   0  0  0  0  0  0  0  0  0  0  0  0
   50.6364   11.3855   14.1593 H   0  0  0  0  0  0  0  0  0  0  0  0
   47.7764    5.7456   13.4273 H   0  0  0  0  0  0  0  0  0  0  0  0
   47.9685   10.3073   15.1905 H   0  0  0  0  0  0  0  0  0  0  0  0
   49.4603    9.3734   15.2645 H   0  0  0  0  0  0  0  0  0  0  0  0
   50.7900   11.4704   11.9107 H   0  0  0  0  0  0  0  0  0  0  0  0
   50.9298    9.7367   17.1698 H   0  0  0  0  0  0  0  0  0  0  0  0
   51.4532   11.0528   16.1447 H   0  0  0  0  0  0  0  0  0  0  0  0
   48.5572   11.4151   18.4567 H   0  0  0  0  0  0  0  0  0  0  0  0
   47.3958   11.0484   17.2281 H   0  0  0  0  0  0  0  0  0  0  0  0
   50.6956   11.3249   19.0848 H   0  0  0  0  0  0  0  0  0  0  0  0
   52.3000   11.3391   18.3825 H   0  0  0  0  0  0  0  0  0  0  0  0
   48.1997    8.6285   17.2105 H   0  0  0  0  0  0  0  0  0  0  0  0
   49.2738    9.0101   18.5535 H   0  0  0  0  0  0  0  0  0  0  0  0
   50.1303   13.4282   17.7999 H   0  0  0  0  0  0  0  0  0  0  0  0
   51.7416   13.4054   17.0809 H   0  0  0  0  0  0  0  0  0  0  0  0
   46.2247    9.2995   18.5815 H   0  0  0  0  0  0  0  0  0  0  0  0
   47.1350    7.9449   19.2402 H   0  0  0  0  0  0  0  0  0  0  0  0
   52.7564   13.6320   19.3600 H   0  0  0  0  0  0  0  0  0  0  0  0
   51.1321   13.6553   20.0742 H   0  0  0  0  0  0  0  0  0  0  0  0
   51.6464   14.9641   18.9966 H   0  0  0  0  0  0  0  0  0  0  0  0
   46.5275    9.4374   21.0599 H   0  0  0  0  0  0  0  0  0  0  0  0
   47.2514   10.8312   20.2534 H   0  0  0  0  0  0  0  0  0  0  0  0
   48.2843    9.5141   20.8465 H   0  0  0  0  0  0  0  0  0  0  0  0
  2  1  2  0
  3  2  1  0
  4  1  1  0
  5  4  2  0
  6 10  1  0
  7  5  1  0
  8  1  1  0
  9  3  1  0
 10  8  2  0
 11 14  1  0
 12  4  1  0
 13  2  1  0
 14 13  2  0
 15  5  1  0
 16 15  1  0
 17 10  1  0
 18  6  1  0
 19  6  1  0
 20  6  1  0
 21  9  1  0
 22 16  1  0
 23 22  1  0
 24 14  1  0
 25 15  1  0
 26 23  1  0
 27 23  1  0
 28 26  1  0
 29 27  1  0
 30 28  1  0
 31 29  1  0
 32 30  1  0
 33 31  1  0
 17 12  2  0
  7  3  2  0
  9 11  2  0
  7 34  1  0
  8 35  1  0
 11 36  1  0
 12 37  1  0
 13 38  1  0
 15 39  1  1
 16 40  1  0
 16 41  1  0
 17 42  1  0
 22 43  1  0
 22 44  1  0
 25 45  1  0
 26 46  1  0
 26 47  1  0
 27 48  1  0
 27 49  1  0
 28 50  1  0
 28 51  1  0
 29 52  1  0
 29 53  1  0
 30 54  1  0
 30 55  1  0
 31 56  1  0
 31 57  1  0
 32 58  1  0
 32 59  1  0
 32 60  1  0
 33 61  1  0
 33 62  1  0
 33 63  1  0
M  END
> <Uni-Dock RESULT> 
ENERGY=   -5.237  LOWER_BOUND=    2.498  UPPER_BOUND=    2.908
INTER + INTRA:          -5.237
INTER:                  -5.237
INTRA:                   0.000
UNBOUND:                 0.000

$$$$

     RDKit          3D

 63 65  0  0  0  0  0  0  0  0999 V2000
   48.6633   11.5040   16.3980 C   0  0  0  0  0  0  0  0  0  0  0  0
   48.1438   11.1416   17.6975 C   0  0  0  0  0  0  0  0  0  0  0  0
   48.0253    9.7755   18.0562 C   0  0  0  0  0  0  0  0  0  0  0  0
   49.0636   10.4940   15.4750 C   0  0  0  0  0  0  0  0  0  0  0  0
   48.9464    9.1312   15.8484 C   0  0  0  0  0  0  0  0  0  0  0  0
   49.4125   14.6908   14.3442 C   0  0  0  0  0  0  0  0  0  0  0  0
   48.4291    8.8107   17.1181 C   0  0  0  0  0  0  0  0  0  0  0  0
   48.7959   12.8567   15.9771 C   0  0  0  0  0  0  0  0  0  0  0  0
   47.5081    9.4231   19.3347 C   0  0  0  0  0  0  0  0  0  0  0  0
   49.2820   13.2342   14.7147 C   0  0  0  0  0  0  0  0  0  0  0  0
   47.1121   10.3889   20.2563 C   0  0  0  0  0  0  0  0  0  0  0  0
   49.5606   10.8965   14.2094 C   0  0  0  0  0  0  0  0  0  0  0  0
   47.7281   12.0920   18.6687 C   0  0  0  0  0  0  0  0  0  0  0  0
   47.2254   11.7218   19.9168 C   0  0  0  0  0  0  0  0  0  0  0  0
   49.3102    7.9680   14.9323 C   0  0  2  0  0  0  0  0  0  0  0  0
   48.0873    7.2654   14.3170 C   0  0  0  0  0  0  0  0  0  0  0  0
   49.6715   12.2351   13.8347 C   0  0  0  0  0  0  0  0  0  0  0  0
   50.5879   15.2296   14.7693 F   0  0  0  0  0  0  0  0  0  0  0  0
   48.4290   15.4653   14.8812 F   0  0  0  0  0  0  0  0  0  0  0  0
   49.3636   14.9085   13.0002 F   0  0  0  0  0  0  0  0  0  0  0  0
   47.3268    7.7713   19.8407 Cl  0  0  0  0  0  0  0  0  0  0  0  0
   47.2552    8.1869   13.4159 C   0  0  0  0  0  0  0  0  0  0  0  0
   46.1367    7.4647   12.7822 N   0  0  0  0  0  0  0  0  0  0  0  0
   46.7423   12.9347   21.0382 Cl  0  0  0  0  0  0  0  0  0  0  0  0
   50.0534    7.0117   15.7005 O   0  0  0  0  0  0  0  0  0  0  0  0
   46.5749    6.7084   11.5965 C   0  0  0  0  0  0  0  0  0  0  0  0
   44.9907    8.3597   12.5291 C   0  0  0  0  0  0  0  0  0  0  0  0
   45.5126    5.7809   10.9852 C   0  0  0  0  0  0  0  0  0  0  0  0
   45.2160    9.4685   11.4889 C   0  0  0  0  0  0  0  0  0  0  0  0
   44.9992    4.7289   11.9711 C   0  0  0  0  0  0  0  0  0  0  0  0
   44.0365   10.4408   11.3871 C   0  0  0  0  0  0  0  0  0  0  0  0
   43.9969    3.7943   11.3116 C   0  0  0  0  0  0  0  0  0  0  0  0
   42.7657    9.8002   10.8498 C   0  0  0  0  0  0  0  0  0  0  0  0
   48.3529    7.7521   17.3703 H   0  0  0  0  0  0  0  0  0  0  0  0
   48.5116   13.6702   16.6418 H   0  0  0  0  0  0  0  0  0  0  0  0
   46.7198   10.1000   21.2272 H   0  0  0  0  0  0  0  0  0  0  0  0
   49.8814   10.1697   13.4686 H   0  0  0  0  0  0  0  0  0  0  0  0
   47.7892   13.1576   18.4681 H   0  0  0  0  0  0  0  0  0  0  0  0
   49.9940    8.2755   14.1392 H   0  0  0  0  0  0  0  0  0  0  0  0
   47.4517    6.8509   15.1111 H   0  0  0  0  0  0  0  0  0  0  0  0
   48.4468    6.3958   13.7540 H   0  0  0  0  0  0  0  0  0  0  0  0
   50.0648   12.4858   12.8505 H   0  0  0  0  0  0  0  0  0  0  0  0
   46.8560    8.9894   14.0476 H   0  0  0  0  0  0  0  0  0  0  0  0
   47.8902    8.6641   12.6593 H   0  0  0  0  0  0  0  0  0  0  0  0
   50.2288    6.2457   15.1284 H   0  0  0  0  0  0  0  0  0  0  0  0
   46.9434    7.3868   10.8171 H   0  0  0  0  0  0  0  0  0  0  0  0
   47.4271    6.0721   11.8631 H   0  0  0  0  0  0  0  0  0  0  0  0
   44.1261    7.7519   12.2426 H   0  0  0  0  0  0  0  0  0  0  0  0
   44.6928    8.8179   13.4818 H   0  0  0  0  0  0  0  0  0  0  0  0
   44.6752    6.3640   10.5851 H   0  0  0  0  0  0  0  0  0  0  0  0
   45.9638    5.2711   10.1242 H   0  0  0  0  0  0  0  0  0  0  0  0
   46.1055   10.0519   11.7543 H   0  0  0  0  0  0  0  0  0  0  0  0
   45.4027    9.0334   10.5006 H   0  0  0  0  0  0  0  0  0  0  0  0
   44.5194    5.2105   12.8300 H   0  0  0  0  0  0  0  0  0  0  0  0
   45.8399    4.1402   12.3561 H   0  0  0  0  0  0  0  0  0  0  0  0
   43.8346   10.8875   12.3674 H   0  0  0  0  0  0  0  0  0  0  0  0
   44.3212   11.2614   10.7178 H   0  0  0  0  0  0  0  0  0  0  0  0
   44.4481    3.2691   10.4641 H   0  0  0  0  0  0  0  0  0  0  0  0
   43.1251    4.3478   10.9487 H   0  0  0  0  0  0  0  0  0  0  0  0
   43.6485    3.0450   12.0291 H   0  0  0  0  0  0  0  0  0  0  0  0
   41.9931   10.5627   10.7071 H   0  0  0  0  0  0  0  0  0  0  0  0
   42.3680    9.0532   11.5427 H   0  0  0  0  0  0  0  0  0  0  0  0
   42.9468    9.3169    9.8847 H   0  0  0  0  0  0  0  0  0  0  0  0
  2  1  2  0
  3  2  1  0
  4  1  1  0
  5  4  2  0
  6 10  1  0
  7  5  1  0
  8  1  1  0
  9  3  1  0
 10  8  2  0
 11 14  1  0
 12  4  1  0
 13  2  1  0
 14 13  2  0
 15  5  1  0
 16 15  1  0
 17 10  1  0
 18  6  1  0
 19  6  1  0
 20  6  1  0
 21  9  1  0
 22 16  1  0
 23 22  1  0
 24 14  1  0
 25 15  1  0
 26 23  1  0
 27 23  1  0
 28 26  1  0
 29 27  1  0
 30 28  1  0
 31 29  1  0
 32 30  1  0
 33 31  1  0
 17 12  2  0
  7  3  2  0
  9 11  2  0
  7 34  1  0
  8 35  1  0
 11 36  1  0
 12 37  1  0
 13 38  1  0
 15 39  1  1
 16 40  1  0
 16 41  1  0
 17 42  1  0
 22 43  1  0
 22 44  1  0
 25 45  1  0
 26 46  1  0
 26 47  1  0
 27 48  1  0
 27 49  1  0
 28 50  1  0
 28 51  1  0
 29 52  1  0
 29 53  1  0
 30 54  1  0
 30 55  1  0
 31 56  1  0
 31 57  1  0
 32 58  1  0
 32 59  1  0
 32 60  1  0
 33 61  1  0
 33 62  1  0
 33 63  1  0
M  END
> <Uni-Dock RESULT> 
ENERGY=   -5.151  LOWER_BOUND=    5.243  UPPER_BOUND=    8.407
INTER + INTRA:          -5.151
INTER:                  -5.151
INTRA:                   0.000
UNBOUND:                 0.000

$$$$

     RDKit          3D

 63 65  0  0  0  0  0  0  0  0999 V2000
   45.5262    9.9641   11.9991 C   0  0  0  0  0  0  0  0  0  0  0  0
   46.3108    8.7948   12.3267 C   0  0  0  0  0  0  0  0  0  0  0  0
   47.7019    8.9210   12.5672 C   0  0  0  0  0  0  0  0  0  0  0  0
   46.1429   11.2469   11.9219 C   0  0  0  0  0  0  0  0  0  0  0  0
   47.5340   11.3609   12.1713 C   0  0  0  0  0  0  0  0  0  0  0  0
   41.8666   10.8750   11.1547 C   0  0  0  0  0  0  0  0  0  0  0  0
   48.2719   10.2022   12.4799 C   0  0  0  0  0  0  0  0  0  0  0  0
   44.1291    9.8991   11.7372 C   0  0  0  0  0  0  0  0  0  0  0  0
   48.4717    7.7663   12.8840 C   0  0  0  0  0  0  0  0  0  0  0  0
   43.3482   11.0170   11.4011 C   0  0  0  0  0  0  0  0  0  0  0  0
   47.8946    6.5018   12.9685 C   0  0  0  0  0  0  0  0  0  0  0  0
   45.3350   12.3642   11.5905 C   0  0  0  0  0  0  0  0  0  0  0  0
   45.7651    7.4864   12.4239 C   0  0  0  0  0  0  0  0  0  0  0  0
   46.5404    6.3692   12.7377 C   0  0  0  0  0  0  0  0  0  0  0  0
   48.3052   12.6732   12.0835 C   0  0  2  0  0  0  0  0  0  0  0  0
   49.1501   12.8043   10.8041 C   0  0  0  0  0  0  0  0  0  0  0  0
   43.9678   12.2565   11.3377 C   0  0  0  0  0  0  0  0  0  0  0  0
   41.1431   10.9288   12.3063 F   0  0  0  0  0  0  0  0  0  0  0  0
   41.5381    9.6942   10.5602 F   0  0  0  0  0  0  0  0  0  0  0  0
   41.3617   11.8496   10.3476 F   0  0  0  0  0  0  0  0  0  0  0  0
   50.1810    7.8424   13.1834 Cl  0  0  0  0  0  0  0  0  0  0  0  0
   48.3059   12.7964    9.5231 C   0  0  0  0  0  0  0  0  0  0  0  0
   49.1361   13.0004    8.3219 N   0  0  0  0  0  0  0  0  0  0  0  0
   45.8035    4.8170   12.8356 Cl  0  0  0  0  0  0  0  0  0  0  0  0
   49.1751   12.7555   13.2209 O   0  0  0  0  0  0  0  0  0  0  0  0
   49.4442   14.4245    8.1046 C   0  0  0  0  0  0  0  0  0  0  0  0
   48.5541   12.3293    7.1432 C   0  0  0  0  0  0  0  0  0  0  0  0
   50.4559   14.7091    6.9831 C   0  0  0  0  0  0  0  0  0  0  0  0
   47.2141   12.8889    6.6398 C   0  0  0  0  0  0  0  0  0  0  0  0
   51.8087   14.0313    7.2125 C   0  0  0  0  0  0  0  0  0  0  0  0
   46.6047   12.0536    5.5093 C   0  0  0  0  0  0  0  0  0  0  0  0
   52.7994   14.3865    6.1146 C   0  0  0  0  0  0  0  0  0  0  0  0
   47.4230   12.0775    4.2272 C   0  0  0  0  0  0  0  0  0  0  0  0
   49.3396   10.3282   12.6649 H   0  0  0  0  0  0  0  0  0  0  0  0
   43.6035    8.9474   11.7872 H   0  0  0  0  0  0  0  0  0  0  0  0
   48.4989    5.6325   13.2116 H   0  0  0  0  0  0  0  0  0  0  0  0
   45.7519   13.3647   11.5196 H   0  0  0  0  0  0  0  0  0  0  0  0
   44.7072    7.3092   12.2543 H   0  0  0  0  0  0  0  0  0  0  0  0
   47.6459   13.5377   12.1778 H   0  0  0  0  0  0  0  0  0  0  0  0
   49.8964   11.9997   10.7611 H   0  0  0  0  0  0  0  0  0  0  0  0
   49.7314   13.7312   10.8782 H   0  0  0  0  0  0  0  0  0  0  0  0
   43.3958   13.1501   11.0919 H   0  0  0  0  0  0  0  0  0  0  0  0
   47.8140   11.8182    9.4612 H   0  0  0  0  0  0  0  0  0  0  0  0
   47.5099   13.5492    9.5800 H   0  0  0  0  0  0  0  0  0  0  0  0
   49.7078   13.5632   13.1273 H   0  0  0  0  0  0  0  0  0  0  0  0
   48.5279   14.9947    7.9079 H   0  0  0  0  0  0  0  0  0  0  0  0
   49.8680   14.8509    9.0215 H   0  0  0  0  0  0  0  0  0  0  0  0
   49.2898   12.3416    6.3323 H   0  0  0  0  0  0  0  0  0  0  0  0
   48.4313   11.2633    7.3779 H   0  0  0  0  0  0  0  0  0  0  0  0
   50.0463   14.4150    6.0098 H   0  0  0  0  0  0  0  0  0  0  0  0
   50.6066   15.7952    6.9311 H   0  0  0  0  0  0  0  0  0  0  0  0
   46.4894   12.9140    7.4621 H   0  0  0  0  0  0  0  0  0  0  0  0
   47.3374   13.9205    6.2911 H   0  0  0  0  0  0  0  0  0  0  0  0
   51.6917   12.9426    7.2425 H   0  0  0  0  0  0  0  0  0  0  0  0
   52.2190   14.3410    8.1806 H   0  0  0  0  0  0  0  0  0  0  0  0
   46.4729   11.0170    5.8398 H   0  0  0  0  0  0  0  0  0  0  0  0
   45.6045   12.4456    5.2899 H   0  0  0  0  0  0  0  0  0  0  0  0
   52.9677   15.4671    6.0718 H   0  0  0  0  0  0  0  0  0  0  0  0
   52.4356   14.0560    5.1367 H   0  0  0  0  0  0  0  0  0  0  0  0
   53.7619   13.9000    6.3008 H   0  0  0  0  0  0  0  0  0  0  0  0
   46.8888   11.5479    3.4318 H   0  0  0  0  0  0  0  0  0  0  0  0
   48.3909   11.5856    4.3588 H   0  0  0  0  0  0  0  0  0  0  0  0
   47.5982   13.1044    3.8918 H   0  0  0  0  0  0  0  0  0  0  0  0
  2  1  2  0
  3  2  1  0
  4  1  1  0
  5  4  2  0
  6 10  1  0
  7  5  1  0
  8  1  1  0
  9  3  1  0
 10  8  2  0
 11 14  1  0
 12  4  1  0
 13  2  1  0
 14 13  2  0
 15  5  1  0
 16 15  1  0
 17 10  1  0
 18  6  1  0
 19  6  1  0
 20  6  1  0
 21  9  1  0
 22 16  1  0
 23 22  1  0
 24 14  1  0
 25 15  1  0
 26 23  1  0
 27 23  1  0
 28 26  1  0
 29 27  1  0
 30 28  1  0
 31 29  1  0
 32 30  1  0
 33 31  1  0
 17 12  2  0
  7  3  2  0
  9 11  2  0
  7 34  1  0
  8 35  1  0
 11 36  1  0
 12 37  1  0
 13 38  1  0
 15 39  1  1
 16 40  1  0
 16 41  1  0
 17 42  1  0
 22 43  1  0
 22 44  1  0
 25 45  1  0
 26 46  1  0
 26 47  1  0
 27 48  1  0
 27 49  1  0
 28 50  1  0
 28 51  1  0
 29 52  1  0
 29 53  1  0
 30 54  1  0
 30 55  1  0
 31 56  1  0
 31 57  1  0
 32 58  1  0
 32 59  1  0
 32 60  1  0
 33 61  1  0
 33 62  1  0
 33 63  1  0
M  END
> <Uni-Dock RESULT> 
ENERGY=   -5.106  LOWER_BOUND=    4.700  UPPER_BOUND=    8.438
INTER + INTRA:          -5.106
INTER:                  -5.106
INTRA:                   0.000
UNBOUND:                 0.000

$$$$

     RDKit          3D

 63 65  0  0  0  0  0  0  0  0999 V2000
   48.4576    8.7681   11.9817 C   0  0  0  0  0  0  0  0  0  0  0  0
   49.8293    8.8452   11.5318 C   0  0  0  0  0  0  0  0  0  0  0  0
   50.4701   10.1052   11.4281 C   0  0  0  0  0  0  0  0  0  0  0  0
   47.7454    9.9535   12.3280 C   0  0  0  0  0  0  0  0  0  0  0  0
   48.3997   11.2072   12.2263 C   0  0  0  0  0  0  0  0  0  0  0  0
   45.7494    6.0885   12.6302 C   0  0  0  0  0  0  0  0  0  0  0  0
   49.7335   11.2495   11.7772 C   0  0  0  0  0  0  0  0  0  0  0  0
   47.7581    7.5343   12.0962 C   0  0  0  0  0  0  0  0  0  0  0  0
   51.8191   10.1769   10.9794 C   0  0  0  0  0  0  0  0  0  0  0  0
   46.4212    7.4343   12.5148 C   0  0  0  0  0  0  0  0  0  0  0  0
   52.5389    9.0351   10.6372 C   0  0  0  0  0  0  0  0  0  0  0  0
   46.3996    9.8299   12.7573 C   0  0  0  0  0  0  0  0  0  0  0  0
   50.6018    7.7079   11.1726 C   0  0  0  0  0  0  0  0  0  0  0  0
   51.9240    7.8035   10.7367 C   0  0  0  0  0  0  0  0  0  0  0  0
   47.7280   12.5405   12.5360 C   0  0  2  0  0  0  0  0  0  0  0  0
   47.3370   13.3374   11.2791 C   0  0  0  0  0  0  0  0  0  0  0  0
   45.7493    8.5999   12.8526 C   0  0  0  0  0  0  0  0  0  0  0  0
   45.9914    5.4905   13.8288 F   0  0  0  0  0  0  0  0  0  0  0  0
   46.1640    5.2049   11.6798 F   0  0  0  0  0  0  0  0  0  0  0  0
   44.3940    6.1538   12.5095 F   0  0  0  0  0  0  0  0  0  0  0  0
   52.6664   11.6848   10.8198 Cl  0  0  0  0  0  0  0  0  0  0  0  0
   46.3085   12.6110   10.4028 C   0  0  0  0  0  0  0  0  0  0  0  0
   45.8980   13.4324    9.2492 N   0  0  0  0  0  0  0  0  0  0  0  0
   52.7922    6.3773   10.3192 Cl  0  0  0  0  0  0  0  0  0  0  0  0
   48.6386   13.3273   13.3162 O   0  0  0  0  0  0  0  0  0  0  0  0
   44.8745   14.4248    9.6201 C   0  0  0  0  0  0  0  0  0  0  0  0
   45.5242   12.5927    8.0944 C   0  0  0  0  0  0  0  0  0  0  0  0
   44.5257   15.4433    8.5230 C   0  0  0  0  0  0  0  0  0  0  0  0
   44.2658   11.7274    8.2671 C   0  0  0  0  0  0  0  0  0  0  0  0
   45.7343   16.2600    8.0598 C   0  0  0  0  0  0  0  0  0  0  0  0
   44.0255   10.7802    7.0873 C   0  0  0  0  0  0  0  0  0  0  0  0
   45.3368   17.2963    7.0201 C   0  0  0  0  0  0  0  0  0  0  0  0
   43.7002   11.4996    5.7871 C   0  0  0  0  0  0  0  0  0  0  0  0
   50.2041   12.2315   11.7110 H   0  0  0  0  0  0  0  0  0  0  0  0
   48.2529    6.5965   11.8510 H   0  0  0  0  0  0  0  0  0  0  0  0
   53.5677    9.1104   10.2969 H   0  0  0  0  0  0  0  0  0  0  0  0
   45.8105   10.6992   13.0351 H   0  0  0  0  0  0  0  0  0  0  0  0
   50.1810    6.7082   11.2265 H   0  0  0  0  0  0  0  0  0  0  0  0
   46.8538   12.4144   13.1770 H   0  0  0  0  0  0  0  0  0  0  0  0
   48.2319   13.5687   10.6859 H   0  0  0  0  0  0  0  0  0  0  0  0
   46.9492   14.3102   11.6046 H   0  0  0  0  0  0  0  0  0  0  0  0
   44.7154    8.5648   13.1930 H   0  0  0  0  0  0  0  0  0  0  0  0
   46.7793   11.6890   10.0412 H   0  0  0  0  0  0  0  0  0  0  0  0
   45.4370   12.3106   10.9978 H   0  0  0  0  0  0  0  0  0  0  0  0
   48.2301   14.1979   13.4577 H   0  0  0  0  0  0  0  0  0  0  0  0
   43.9528   13.9284    9.9483 H   0  0  0  0  0  0  0  0  0  0  0  0
   45.2229   15.0043   10.4832 H   0  0  0  0  0  0  0  0  0  0  0  0
   45.4160   13.2339    7.2134 H   0  0  0  0  0  0  0  0  0  0  0  0
   46.3750   11.9424    7.8500 H   0  0  0  0  0  0  0  0  0  0  0  0
   44.0572   14.9436    7.6673 H   0  0  0  0  0  0  0  0  0  0  0  0
   43.7673   16.1272    8.9252 H   0  0  0  0  0  0  0  0  0  0  0  0
   44.3573   11.1148    9.1717 H   0  0  0  0  0  0  0  0  0  0  0  0
   43.3813   12.3609    8.3986 H   0  0  0  0  0  0  0  0  0  0  0  0
   46.4980   15.6036    7.6289 H   0  0  0  0  0  0  0  0  0  0  0  0
   46.1890   16.7682    8.9180 H   0  0  0  0  0  0  0  0  0  0  0  0
   44.9005   10.1368    6.9403 H   0  0  0  0  0  0  0  0  0  0  0  0
   43.1862   10.1207    7.3383 H   0  0  0  0  0  0  0  0  0  0  0  0
   44.5948   17.9926    7.4230 H   0  0  0  0  0  0  0  0  0  0  0  0
   44.9126   16.8174    6.1320 H   0  0  0  0  0  0  0  0  0  0  0  0
   46.2117   17.8752    6.7084 H   0  0  0  0  0  0  0  0  0  0  0  0
   43.4424   10.7722    5.0106 H   0  0  0  0  0  0  0  0  0  0  0  0
   44.5532   12.0806    5.4247 H   0  0  0  0  0  0  0  0  0  0  0  0
   42.8487   12.1754    5.9141 H   0  0  0  0  0  0  0  0  0  0  0  0
  2  1  2  0
  3  2  1  0
  4  1  1  0
  5  4  2  0
  6 10  1  0
  7  5  1  0
  8  1  1  0
  9  3  1  0
 10  8  2  0
 11 14  1  0
 12  4  1  0
 13  2  1  0
 14 13  2  0
 15  5  1  0
 16 15  1  0
 17 10  1  0
 18  6  1  0
 19  6  1  0
 20  6  1  0
 21  9  1  0
 22 16  1  0
 23 22  1  0
 24 14  1  0
 25 15  1  0
 26 23  1  0
 27 23  1  0
 28 26  1  0
 29 27  1  0
 30 28  1  0
 31 29  1  0
 32 30  1  0
 33 31  1  0
 17 12  2  0
  7  3  2  0
  9 11  2  0
  7 34  1  0
  8 35  1  0
 11 36  1  0
 12 37  1  0
 13 38  1  0
 15 39  1  1
 16 40  1  0
 16 41  1  0
 17 42  1  0
 22 43  1  0
 22 44  1  0
 25 45  1  0
 26 46  1  0
 26 47  1  0
 27 48  1  0
 27 49  1  0
 28 50  1  0
 28 51  1  0
 29 52  1  0
 29 53  1  0
 30 54  1  0
 30 55  1  0
 31 56  1  0
 31 57  1  0
 32 58  1  0
 32 59  1  0
 32 60  1  0
 33 61  1  0
 33 62  1  0
 33 63  1  0
M  END
> <Uni-Dock RESULT> 
ENERGY=   -4.768  LOWER_BOUND=    4.681  UPPER_BOUND=    8.494
INTER + INTRA:          -4.768
INTER:                  -4.768
INTRA:                   0.000
UNBOUND:                 0.000

$$$$

     RDKit          3D

 63 65  0  0  0  0  0  0  0  0999 V2000
   46.8312    8.9041   12.7103 C   0  0  0  0  0  0  0  0  0  0  0  0
   46.3046    7.5582   12.6760 C   0  0  0  0  0  0  0  0  0  0  0  0
   46.9136    6.5402   13.4517 C   0  0  0  0  0  0  0  0  0  0  0  0
   47.9583    9.2160   13.5255 C   0  0  0  0  0  0  0  0  0  0  0  0
   48.5544    8.1902   14.3020 C   0  0  0  0  0  0  0  0  0  0  0  0
   46.1133   12.3558   11.1274 C   0  0  0  0  0  0  0  0  0  0  0  0
   48.0230    6.8879   14.2405 C   0  0  0  0  0  0  0  0  0  0  0  0
   46.2697    9.9651   11.9464 C   0  0  0  0  0  0  0  0  0  0  0  0
   46.3951    5.2151   13.4106 C   0  0  0  0  0  0  0  0  0  0  0  0
   46.7726   11.2764   11.9497 C   0  0  0  0  0  0  0  0  0  0  0  0
   45.2941    4.8833   12.6253 C   0  0  0  0  0  0  0  0  0  0  0  0
   48.4446   10.5480   13.5219 C   0  0  0  0  0  0  0  0  0  0  0  0
   45.1844    7.1743   11.8904 C   0  0  0  0  0  0  0  0  0  0  0  0
   44.6932    5.8683   11.8679 C   0  0  0  0  0  0  0  0  0  0  0  0
   49.7818    8.3993   15.1820 C   0  0  2  0  0  0  0  0  0  0  0  0
   51.0783    7.8403   14.5701 C   0  0  0  0  0  0  0  0  0  0  0  0
   47.8662   11.5590   12.7550 C   0  0  0  0  0  0  0  0  0  0  0  0
   45.0683   12.9364   11.7782 F   0  0  0  0  0  0  0  0  0  0  0  0
   45.6106   11.8929    9.9489 F   0  0  0  0  0  0  0  0  0  0  0  0
   46.9603   13.3702   10.7962 F   0  0  0  0  0  0  0  0  0  0  0  0
   47.0933    3.9153   14.3271 Cl  0  0  0  0  0  0  0  0  0  0  0  0
   51.4617    8.5209   13.2497 C   0  0  0  0  0  0  0  0  0  0  0  0
   52.7462    8.0171   12.7297 N   0  0  0  0  0  0  0  0  0  0  0  0
   43.3313    5.4835   10.8885 Cl  0  0  0  0  0  0  0  0  0  0  0  0
   49.5459    7.7472   16.4375 O   0  0  0  0  0  0  0  0  0  0  0  0
   53.8947    8.6612   13.3900 C   0  0  0  0  0  0  0  0  0  0  0  0
   52.7934    8.0793   11.2558 C   0  0  0  0  0  0  0  0  0  0  0  0
   55.2671    8.0634   13.0410 C   0  0  0  0  0  0  0  0  0  0  0  0
   52.7889    9.4866   10.6382 C   0  0  0  0  0  0  0  0  0  0  0  0
   55.3782    6.5777   13.3908 C   0  0  0  0  0  0  0  0  0  0  0  0
   52.6932    9.4678    9.1093 C   0  0  0  0  0  0  0  0  0  0  0  0
   56.7680    6.0397   13.0876 C   0  0  0  0  0  0  0  0  0  0  0  0
   53.9135    8.8633    8.4315 C   0  0  0  0  0  0  0  0  0  0  0  0
   48.5078    6.1246   14.8508 H   0  0  0  0  0  0  0  0  0  0  0  0
   45.4047    9.7873   11.3103 H   0  0  0  0  0  0  0  0  0  0  0  0
   44.9130    3.8663   12.6074 H   0  0  0  0  0  0  0  0  0  0  0  0
   49.2988   10.8418   14.1252 H   0  0  0  0  0  0  0  0  0  0  0  0
   44.6638    7.8980   11.2702 H   0  0  0  0  0  0  0  0  0  0  0  0
   49.9214    9.4506   15.4395 H   0  0  0  0  0  0  0  0  0  0  0  0
   50.9855    6.7569   14.4153 H   0  0  0  0  0  0  0  0  0  0  0  0
   51.8779    7.9568   15.3115 H   0  0  0  0  0  0  0  0  0  0  0  0
   48.2795   12.5658   12.7952 H   0  0  0  0  0  0  0  0  0  0  0  0
   50.6676    8.3021   12.5258 H   0  0  0  0  0  0  0  0  0  0  0  0
   51.4902    9.6109   13.3706 H   0  0  0  0  0  0  0  0  0  0  0  0
   50.3547    7.8310   16.9701 H   0  0  0  0  0  0  0  0  0  0  0  0
   53.9125    9.7371   13.1765 H   0  0  0  0  0  0  0  0  0  0  0  0
   53.7859    8.5763   14.4777 H   0  0  0  0  0  0  0  0  0  0  0  0
   53.6707    7.5239   10.9081 H   0  0  0  0  0  0  0  0  0  0  0  0
   51.9414    7.5112   10.8583 H   0  0  0  0  0  0  0  0  0  0  0  0
   55.4981    8.2202   11.9810 H   0  0  0  0  0  0  0  0  0  0  0  0
   56.0302    8.6188   13.6013 H   0  0  0  0  0  0  0  0  0  0  0  0
   51.9325   10.0563   11.0176 H   0  0  0  0  0  0  0  0  0  0  0  0
   53.6917   10.0351   10.9298 H   0  0  0  0  0  0  0  0  0  0  0  0
   54.6436    5.9947   12.8248 H   0  0  0  0  0  0  0  0  0  0  0  0
   55.1601    6.4302   14.4549 H   0  0  0  0  0  0  0  0  0  0  0  0
   51.7945    8.9233    8.7977 H   0  0  0  0  0  0  0  0  0  0  0  0
   52.5762   10.4996    8.7572 H   0  0  0  0  0  0  0  0  0  0  0  0
   57.5308    6.5777   13.6590 H   0  0  0  0  0  0  0  0  0  0  0  0
   57.0025    6.1381   12.0230 H   0  0  0  0  0  0  0  0  0  0  0  0
   56.8301    4.9796   13.3523 H   0  0  0  0  0  0  0  0  0  0  0  0
   53.8294    8.9687    7.3451 H   0  0  0  0  0  0  0  0  0  0  0  0
   54.0092    7.7965    8.6530 H   0  0  0  0  0  0  0  0  0  0  0  0
   54.8307    9.3678    8.7508 H   0  0  0  0  0  0  0  0  0  0  0  0
  2  1  2  0
  3  2  1  0
  4  1  1  0
  5  4  2  0
  6 10  1  0
  7  5  1  0
  8  1  1  0
  9  3  1  0
 10  8  2  0
 11 14  1  0
 12  4  1  0
 13  2  1  0
 14 13  2  0
 15  5  1  0
 16 15  1  0
 17 10  1  0
 18  6  1  0
 19  6  1  0
 20  6  1  0
 21  9  1  0
 22 16  1  0
 23 22  1  0
 24 14  1  0
 25 15  1  0
 26 23  1  0
 27 23  1  0
 28 26  1  0
 29 27  1  0
 30 28  1  0
 31 29  1  0
 32 30  1  0
 33 31  1  0
 17 12  2  0
  7  3  2  0
  9 11  2  0
  7 34  1  0
  8 35  1  0
 11 36  1  0
 12 37  1  0
 13 38  1  0
 15 39  1  1
 16 40  1  0
 16 41  1  0
 17 42  1  0
 22 43  1  0
 22 44  1  0
 25 45  1  0
 26 46  1  0
 26 47  1  0
 27 48  1  0
 27 49  1  0
 28 50  1  0
 28 51  1  0
 29 52  1  0
 29 53  1  0
 30 54  1  0
 30 55  1  0
 31 56  1  0
 31 57  1  0
 32 58  1  0
 32 59  1  0
 32 60  1  0
 33 61  1  0
 33 62  1  0
 33 63  1  0
M  END
> <Uni-Dock RESULT> 
ENERGY=   -4.731  LOWER_BOUND=    4.359  UPPER_BOUND=    6.553
INTER + INTRA:          -4.731
INTER:                  -4.731
INTRA:                   0.000
UNBOUND:                 0.000

$$$$

     RDKit          3D

 63 65  0  0  0  0  0  0  0  0999 V2000
   48.2241    8.7295   18.5093 C   0  0  0  0  0  0  0  0  0  0  0  0
   48.0510    7.9367   19.7057 C   0  0  0  0  0  0  0  0  0  0  0  0
   47.5049    8.5270   20.8728 C   0  0  0  0  0  0  0  0  0  0  0  0
   47.8428   10.1030   18.4940 C   0  0  0  0  0  0  0  0  0  0  0  0
   47.2915   10.6801   19.6659 C   0  0  0  0  0  0  0  0  0  0  0  0
   49.5438    8.3109   14.9012 C   0  0  0  0  0  0  0  0  0  0  0  0
   47.1433    9.8835   20.8173 C   0  0  0  0  0  0  0  0  0  0  0  0
   48.7761    8.1961   17.3112 C   0  0  0  0  0  0  0  0  0  0  0  0
   47.3415    7.7440   22.0503 C   0  0  0  0  0  0  0  0  0  0  0  0
   48.9695    8.9493   16.1416 C   0  0  0  0  0  0  0  0  0  0  0  0
   47.7030    6.4000   22.0923 C   0  0  0  0  0  0  0  0  0  0  0  0
   48.0376   10.8432   17.3002 C   0  0  0  0  0  0  0  0  0  0  0  0
   48.4053    6.5633   19.7943 C   0  0  0  0  0  0  0  0  0  0  0  0
   48.2339    5.8158   20.9601 C   0  0  0  0  0  0  0  0  0  0  0  0
   46.8809   12.1443   19.7761 C   0  0  2  0  0  0  0  0  0  0  0  0
   47.8821   13.0047   20.5668 C   0  0  0  0  0  0  0  0  0  0  0  0
   48.5857   10.2823   16.1471 C   0  0  0  0  0  0  0  0  0  0  0  0
   48.5913    7.6986   14.1459 F   0  0  0  0  0  0  0  0  0  0  0  0
   50.4743    7.3552   15.1782 F   0  0  0  0  0  0  0  0  0  0  0  0
   50.1619    9.2021   14.0767 F   0  0  0  0  0  0  0  0  0  0  0  0
   46.6870    8.4004   23.5193 Cl  0  0  0  0  0  0  0  0  0  0  0  0
   49.2682   13.0677   19.9125 C   0  0  0  0  0  0  0  0  0  0  0  0
   50.1800   13.9600   20.6518 N   0  0  0  0  0  0  0  0  0  0  0  0
   48.6890    4.1562   20.9867 Cl  0  0  0  0  0  0  0  0  0  0  0  0
   45.6061   12.2013   20.4310 O   0  0  0  0  0  0  0  0  0  0  0  0
   49.9587   15.3754   20.3087 C   0  0  0  0  0  0  0  0  0  0  0  0
   51.5845   13.5265   20.5192 C   0  0  0  0  0  0  0  0  0  0  0  0
   50.7371   16.3842   21.1682 C   0  0  0  0  0  0  0  0  0  0  0  0
   52.1936   13.6291   19.1118 C   0  0  0  0  0  0  0  0  0  0  0  0
   50.4144   16.2727   22.6600 C   0  0  0  0  0  0  0  0  0  0  0  0
   53.6002   13.0284   19.0243 C   0  0  0  0  0  0  0  0  0  0  0  0
   51.1568   17.3261   23.4676 C   0  0  0  0  0  0  0  0  0  0  0  0
   54.6367   13.7869   19.8392 C   0  0  0  0  0  0  0  0  0  0  0  0
   46.7163   10.3615   21.7001 H   0  0  0  0  0  0  0  0  0  0  0  0
   49.0797    7.1522   17.2623 H   0  0  0  0  0  0  0  0  0  0  0  0
   47.5703    5.8190   23.0005 H   0  0  0  0  0  0  0  0  0  0  0  0
   47.7636   11.8921   17.2319 H   0  0  0  0  0  0  0  0  0  0  0  0
   48.8287    6.0404   18.9419 H   0  0  0  0  0  0  0  0  0  0  0  0
   46.7073   12.5913   18.7958 H   0  0  0  0  0  0  0  0  0  0  0  0
   47.9740   12.6277   21.5943 H   0  0  0  0  0  0  0  0  0  0  0  0
   47.4559   14.0102   20.6672 H   0  0  0  0  0  0  0  0  0  0  0  0
   48.7079   10.8979   15.2571 H   0  0  0  0  0  0  0  0  0  0  0  0
   49.6775   12.0504   19.9139 H   0  0  0  0  0  0  0  0  0  0  0  0
   49.1866   13.3760   18.8628 H   0  0  0  0  0  0  0  0  0  0  0  0
   45.3788   13.1384   20.5535 H   0  0  0  0  0  0  0  0  0  0  0  0
   50.1879   15.5595   19.2518 H   0  0  0  0  0  0  0  0  0  0  0  0
   48.8964   15.6189   20.4287 H   0  0  0  0  0  0  0  0  0  0  0  0
   52.1959   14.0915   21.2306 H   0  0  0  0  0  0  0  0  0  0  0  0
   51.6599   12.4873   20.8669 H   0  0  0  0  0  0  0  0  0  0  0  0
   51.8159   16.2780   21.0062 H   0  0  0  0  0  0  0  0  0  0  0  0
   50.4782   17.3934   20.8228 H   0  0  0  0  0  0  0  0  0  0  0  0
   51.5598   13.0971   18.3928 H   0  0  0  0  0  0  0  0  0  0  0  0
   52.2346   14.6754   18.7884 H   0  0  0  0  0  0  0  0  0  0  0  0
   50.6877   15.2816   23.0382 H   0  0  0  0  0  0  0  0  0  0  0  0
   49.3362   16.3943   22.8161 H   0  0  0  0  0  0  0  0  0  0  0  0
   53.5794   11.9801   19.3437 H   0  0  0  0  0  0  0  0  0  0  0  0
   53.9136   13.0330   17.9735 H   0  0  0  0  0  0  0  0  0  0  0  0
   50.8871   18.3348   23.1396 H   0  0  0  0  0  0  0  0  0  0  0  0
   52.2400   17.2085   23.3629 H   0  0  0  0  0  0  0  0  0  0  0  0
   50.9066   17.2358   24.5291 H   0  0  0  0  0  0  0  0  0  0  0  0
   55.6333   13.3717   19.6577 H   0  0  0  0  0  0  0  0  0  0  0  0
   54.4383   13.7116   20.9121 H   0  0  0  0  0  0  0  0  0  0  0  0
   54.6556   14.8458   19.5632 H   0  0  0  0  0  0  0  0  0  0  0  0
  2  1  2  0
  3  2  1  0
  4  1  1  0
  5  4  2  0
  6 10  1  0
  7  5  1  0
  8  1  1  0
  9  3  1  0
 10  8  2  0
 11 14  1  0
 12  4  1  0
 13  2  1  0
 14 13  2  0
 15  5  1  0
 16 15  1  0
 17 10  1  0
 18  6  1  0
 19  6  1  0
 20  6  1  0
 21  9  1  0
 22 16  1  0
 23 22  1  0
 24 14  1  0
 25 15  1  0
 26 23  1  0
 27 23  1  0
 28 26  1  0
 29 27  1  0
 30 28  1  0
 31 29  1  0
 32 30  1  0
 33 31  1  0
 17 12  2  0
  7  3  2  0
  9 11  2  0
  7 34  1  0
  8 35  1  0
 11 36  1  0
 12 37  1  0
 13 38  1  0
 15 39  1  1
 16 40  1  0
 16 41  1  0
 17 42  1  0
 22 43  1  0
 22 44  1  0
 25 45  1  0
 26 46  1  0
 26 47  1  0
 27 48  1  0
 27 49  1  0
 28 50  1  0
 28 51  1  0
 29 52  1  0
 29 53  1  0
 30 54  1  0
 30 55  1  0
 31 56  1  0
 31 57  1  0
 32 58  1  0
 32 59  1  0
 32 60  1  0
 33 61  1  0
 33 62  1  0
 33 63  1  0
M  END
> <Uni-Dock RESULT> 
ENERGY=   -4.627  LOWER_BOUND=    6.272  UPPER_BOUND=    9.065
INTER + INTRA:          -4.627
INTER:                  -4.627
INTRA:                   0.000
UNBOUND:                 0.000

$$$$

     RDKit          3D

 63 65  0  0  0  0  0  0  0  0999 V2000
   47.9862    6.6860   19.0801 C   0  0  0  0  0  0  0  0  0  0  0  0
   47.8559    7.3987   20.3312 C   0  0  0  0  0  0  0  0  0  0  0  0
   48.0292    8.8049   20.3657 C   0  0  0  0  0  0  0  0  0  0  0  0
   48.2828    7.3909   17.8771 C   0  0  0  0  0  0  0  0  0  0  0  0
   48.4473    8.7985   17.9237 C   0  0  0  0  0  0  0  0  0  0  0  0
   47.7774    3.0616   17.7552 C   0  0  0  0  0  0  0  0  0  0  0  0
   48.3221    9.4624   19.1590 C   0  0  0  0  0  0  0  0  0  0  0  0
   47.8338    5.2746   18.9841 C   0  0  0  0  0  0  0  0  0  0  0  0
   47.9055    9.5019   21.6007 C   0  0  0  0  0  0  0  0  0  0  0  0
   47.9716    4.5574   17.7844 C   0  0  0  0  0  0  0  0  0  0  0  0
   47.6139    8.8388   22.7899 C   0  0  0  0  0  0  0  0  0  0  0  0
   48.4083    6.6494   16.6749 C   0  0  0  0  0  0  0  0  0  0  0  0
   47.5596    6.7643   21.5677 C   0  0  0  0  0  0  0  0  0  0  0  0
   47.4417    7.4697   22.7660 C   0  0  0  0  0  0  0  0  0  0  0  0
   48.7994    9.6505   16.7093 C   0  0  2  0  0  0  0  0  0  0  0  0
   50.2712   10.0985   16.6798 C   0  0  0  0  0  0  0  0  0  0  0  0
   48.2543    5.2643   16.6248 C   0  0  0  0  0  0  0  0  0  0  0  0
   46.4693    2.7123   17.6154 F   0  0  0  0  0  0  0  0  0  0  0  0
   48.2100    2.4478   18.8917 F   0  0  0  0  0  0  0  0  0  0  0  0
   48.4400    2.4550   16.7309 F   0  0  0  0  0  0  0  0  0  0  0  0
   48.1120   11.2223   21.7215 Cl  0  0  0  0  0  0  0  0  0  0  0  0
   51.2550    8.9245   16.5935 C   0  0  0  0  0  0  0  0  0  0  0  0
   52.6505    9.3892   16.4896 N   0  0  0  0  0  0  0  0  0  0  0  0
   47.0810    6.6269   24.2227 Cl  0  0  0  0  0  0  0  0  0  0  0  0
   47.9631   10.8156   16.7250 O   0  0  0  0  0  0  0  0  0  0  0  0
   52.9978    9.7756   15.1111 C   0  0  0  0  0  0  0  0  0  0  0  0
   53.5879    8.4214   17.0921 C   0  0  0  0  0  0  0  0  0  0  0  0
   54.3718   10.4448   14.9479 C   0  0  0  0  0  0  0  0  0  0  0  0
   53.7054    7.0629   16.3829 C   0  0  0  0  0  0  0  0  0  0  0  0
   54.5160   11.7233   15.7767 C   0  0  0  0  0  0  0  0  0  0  0  0
   54.5830    6.0650   17.1452 C   0  0  0  0  0  0  0  0  0  0  0  0
   55.8639   12.3871   15.5409 C   0  0  0  0  0  0  0  0  0  0  0  0
   56.0459    6.4751   17.2191 C   0  0  0  0  0  0  0  0  0  0  0  0
   48.4557   10.5450   19.1565 H   0  0  0  0  0  0  0  0  0  0  0  0
   47.6012    4.6848   19.8687 H   0  0  0  0  0  0  0  0  0  0  0  0
   47.5234    9.3884   23.7225 H   0  0  0  0  0  0  0  0  0  0  0  0
   48.6315    7.1351   15.7294 H   0  0  0  0  0  0  0  0  0  0  0  0
   47.4121    5.6897   21.6221 H   0  0  0  0  0  0  0  0  0  0  0  0
   48.5509    9.1456   15.7743 H   0  0  0  0  0  0  0  0  0  0  0  0
   50.4977   10.7076   17.5652 H   0  0  0  0  0  0  0  0  0  0  0  0
   50.4002   10.7744   15.8259 H   0  0  0  0  0  0  0  0  0  0  0  0
   48.3574    4.7473   15.6718 H   0  0  0  0  0  0  0  0  0  0  0  0
   51.1384    8.3316   17.5086 H   0  0  0  0  0  0  0  0  0  0  0  0
   50.9992    8.2666   15.7538 H   0  0  0  0  0  0  0  0  0  0  0  0
   48.2343   11.3837   15.9845 H   0  0  0  0  0  0  0  0  0  0  0  0
   52.9435    8.9099   14.4395 H   0  0  0  0  0  0  0  0  0  0  0  0
   52.2568   10.4904   14.7341 H   0  0  0  0  0  0  0  0  0  0  0  0
   54.5757    8.8880   17.1668 H   0  0  0  0  0  0  0  0  0  0  0  0
   53.2899    8.2555   18.1362 H   0  0  0  0  0  0  0  0  0  0  0  0
   55.1755    9.7417   15.1953 H   0  0  0  0  0  0  0  0  0  0  0  0
   54.5035   10.6922   13.8866 H   0  0  0  0  0  0  0  0  0  0  0  0
   52.7113    6.6142   16.2723 H   0  0  0  0  0  0  0  0  0  0  0  0
   54.1114    7.1925   15.3733 H   0  0  0  0  0  0  0  0  0  0  0  0
   54.4148   11.5012   16.8445 H   0  0  0  0  0  0  0  0  0  0  0  0
   53.7180   12.4273   15.5139 H   0  0  0  0  0  0  0  0  0  0  0  0
   54.1917    5.9214   18.1588 H   0  0  0  0  0  0  0  0  0  0  0  0
   54.5201    5.0933   16.6409 H   0  0  0  0  0  0  0  0  0  0  0  0
   55.9918   12.6532   14.4870 H   0  0  0  0  0  0  0  0  0  0  0  0
   56.6839   11.7221   15.8297 H   0  0  0  0  0  0  0  0  0  0  0  0
   55.9443   13.3029   16.1346 H   0  0  0  0  0  0  0  0  0  0  0  0
   56.6352    5.6791   17.6855 H   0  0  0  0  0  0  0  0  0  0  0  0
   56.1800    7.3798   17.8190 H   0  0  0  0  0  0  0  0  0  0  0  0
   56.4540    6.6575   16.2200 H   0  0  0  0  0  0  0  0  0  0  0  0
  2  1  2  0
  3  2  1  0
  4  1  1  0
  5  4  2  0
  6 10  1  0
  7  5  1  0
  8  1  1  0
  9  3  1  0
 10  8  2  0
 11 14  1  0
 12  4  1  0
 13  2  1  0
 14 13  2  0
 15  5  1  0
 16 15  1  0
 17 10  1  0
 18  6  1  0
 19  6  1  0
 20  6  1  0
 21  9  1  0
 22 16  1  0
 23 22  1  0
 24 14  1  0
 25 15  1  0
 26 23  1  0
 27 23  1  0
 28 26  1  0
 29 27  1  0
 30 28  1  0
 31 29  1  0
 32 30  1  0
 33 31  1  0
 17 12  2  0
  7  3  2  0
  9 11  2  0
  7 34  1  0
  8 35  1  0
 11 36  1  0
 12 37  1  0
 13 38  1  0
 15 39  1  1
 16 40  1  0
 16 41  1  0
 17 42  1  0
 22 43  1  0
 22 44  1  0
 25 45  1  0
 26 46  1  0
 26 47  1  0
 27 48  1  0
 27 49  1  0
 28 50  1  0
 28 51  1  0
 29 52  1  0
 29 53  1  0
 30 54  1  0
 30 55  1  0
 31 56  1  0
 31 57  1  0
 32 58  1  0
 32 59  1  0
 32 60  1  0
 33 61  1  0
 33 62  1  0
 33 63  1  0
M  END
> <Uni-Dock RESULT> 
ENERGY=   -4.623  LOWER_BOUND=    5.191  UPPER_BOUND=    7.461
INTER + INTRA:          -4.623
INTER:                  -4.623
INTRA:                   0.000
UNBOUND:                 0.000

$$$$
