
     RDKit          3D

 63 65  0  0  0  0  0  0  0  0999 V2000
   45.0360    7.5920   12.0441 C   0  0  0  0  0  0  0  0  0  0  0  0
   44.6986    8.9403   11.6507 C   0  0  0  0  0  0  0  0  0  0  0  0
   45.5473   10.0143   12.0150 C   0  0  0  0  0  0  0  0  0  0  0  0
   46.2314    7.3356   12.7769 C   0  0  0  0  0  0  0  0  0  0  0  0
   47.1125    8.4071   13.0667 C   0  0  0  0  0  0  0  0  0  0  0  0
   43.5748    4.0235   11.7874 C   0  0  0  0  0  0  0  0  0  0  0  0
   46.7306    9.7137   12.7130 C   0  0  0  0  0  0  0  0  0  0  0  0
   44.2072    6.4757   11.7419 C   0  0  0  0  0  0  0  0  0  0  0  0
   45.1887   11.3467   11.6645 C   0  0  0  0  0  0  0  0  0  0  0  0
   44.4888    5.1644   12.1587 C   0  0  0  0  0  0  0  0  0  0  0  0
   44.0296   11.6293   10.9472 C   0  0  0  0  0  0  0  0  0  0  0  0
   46.4839    6.0099   13.2059 C   0  0  0  0  0  0  0  0  0  0  0  0
   43.5289    9.2737   10.9161 C   0  0  0  0  0  0  0  0  0  0  0  0
   43.2067   10.5868   10.5712 C   0  0  0  0  0  0  0  0  0  0  0  0
   48.4669    8.2599   13.7567 C   0  0  2  0  0  0  0  0  0  0  0  0
   49.5221    7.4145   13.0303 C   0  0  0  0  0  0  0  0  0  0  0  0
   45.6402    4.9435   12.8999 C   0  0  0  0  0  0  0  0  0  0  0  0
   43.8967    3.4748   10.5842 F   0  0  0  0  0  0  0  0  0  0  0  0
   43.6008    3.0007   12.6864 F   0  0  0  0  0  0  0  0  0  0  0  0
   42.2686    4.3995   11.6900 F   0  0  0  0  0  0  0  0  0  0  0  0
   46.1588   12.7156   12.1131 Cl  0  0  0  0  0  0  0  0  0  0  0  0
   49.9307    7.8603   11.6177 C   0  0  0  0  0  0  0  0  0  0  0  0
   50.7513    9.0675   11.4340 N   0  0  0  0  0  0  0  0  0  0  0  0
   41.7706   10.9095    9.6799 Cl  0  0  0  0  0  0  0  0  0  0  0  0
   48.2775    7.7227   15.0713 O   0  0  0  0  0  0  0  0  0  0  0  0
   51.9106    9.1759   12.3286 C   0  0  0  0  0  0  0  0  0  0  0  0
   49.9645   10.3023   11.3469 C   0  0  0  0  0  0  0  0  0  0  0  0
   52.9309    8.0339   12.1925 C   0  0  0  0  0  0  0  0  0  0  0  0
   50.6746   11.3860   10.5186 C   0  0  0  0  0  0  0  0  0  0  0  0
   53.5322    7.9362   10.7882 C   0  0  0  0  0  0  0  0  0  0  0  0
   49.8064   12.6280   10.2934 C   0  0  0  0  0  0  0  0  0  0  0  0
   54.5927    6.8489   10.7142 C   0  0  0  0  0  0  0  0  0  0  0  0
   48.6809   12.4027    9.2942 C   0  0  0  0  0  0  0  0  0  0  0  0
   47.3987   10.5285   12.9902 H   0  0  0  0  0  0  0  0  0  0  0  0
   43.2922    6.6085   11.1680 H   0  0  0  0  0  0  0  0  0  0  0  0
   43.7741   12.6526   10.6866 H   0  0  0  0  0  0  0  0  0  0  0  0
   47.3505    5.7758   13.8204 H   0  0  0  0  0  0  0  0  0  0  0  0
   42.8333    8.5034   10.5946 H   0  0  0  0  0  0  0  0  0  0  0  0
   48.8993    9.2515   13.9266 H   0  0  0  0  0  0  0  0  0  0  0  0
   50.4061    7.3347   13.6748 H   0  0  0  0  0  0  0  0  0  0  0  0
   49.1827    6.3765   12.9507 H   0  0  0  0  0  0  0  0  0  0  0  0
   45.8916    3.9443   13.2523 H   0  0  0  0  0  0  0  0  0  0  0  0
   50.5059    7.0299   11.1864 H   0  0  0  0  0  0  0  0  0  0  0  0
   49.0420    7.9070   10.9756 H   0  0  0  0  0  0  0  0  0  0  0  0
   47.4095    8.0281   15.3881 H   0  0  0  0  0  0  0  0  0  0  0  0
   52.4598   10.1008   12.1224 H   0  0  0  0  0  0  0  0  0  0  0  0
   51.5862    9.2533   13.3731 H   0  0  0  0  0  0  0  0  0  0  0  0
   49.7330   10.6920   12.3444 H   0  0  0  0  0  0  0  0  0  0  0  0
   49.0120   10.0867   10.8529 H   0  0  0  0  0  0  0  0  0  0  0  0
   52.4812    7.0750   12.4722 H   0  0  0  0  0  0  0  0  0  0  0  0
   53.7376    8.2138   12.9140 H   0  0  0  0  0  0  0  0  0  0  0  0
   50.9868   10.9760    9.5496 H   0  0  0  0  0  0  0  0  0  0  0  0
   51.5850   11.7123   11.0339 H   0  0  0  0  0  0  0  0  0  0  0  0
   52.7506    7.7175   10.0527 H   0  0  0  0  0  0  0  0  0  0  0  0
   53.9819    8.8956   10.5086 H   0  0  0  0  0  0  0  0  0  0  0  0
   49.3929   12.9767   11.2468 H   0  0  0  0  0  0  0  0  0  0  0  0
   50.4458   13.4333    9.9115 H   0  0  0  0  0  0  0  0  0  0  0  0
   54.1688    5.8702   10.9614 H   0  0  0  0  0  0  0  0  0  0  0  0
   55.4143    7.0539   11.4080 H   0  0  0  0  0  0  0  0  0  0  0  0
   55.0085    6.7936    9.7033 H   0  0  0  0  0  0  0  0  0  0  0  0
   48.1312   13.3354    9.1321 H   0  0  0  0  0  0  0  0  0  0  0  0
   49.0765   12.0720    8.3280 H   0  0  0  0  0  0  0  0  0  0  0  0
   47.9671   11.6527    9.6458 H   0  0  0  0  0  0  0  0  0  0  0  0
  2  1  2  0
  3  2  1  0
  4  1  1  0
  5  4  2  0
  6 10  1  0
  7  5  1  0
  8  1  1  0
  9  3  1  0
 10  8  2  0
 11 14  1  0
 12  4  1  0
 13  2  1  0
 14 13  2  0
 15  5  1  0
 16 15  1  0
 17 10  1  0
 18  6  1  0
 19  6  1  0
 20  6  1  0
 21  9  1  0
 22 16  1  0
 23 22  1  0
 24 14  1  0
 25 15  1  0
 26 23  1  0
 27 23  1  0
 28 26  1  0
 29 27  1  0
 30 28  1  0
 31 29  1  0
 32 30  1  0
 33 31  1  0
 17 12  2  0
  7  3  2  0
  9 11  2  0
  7 34  1  0
  8 35  1  0
 11 36  1  0
 12 37  1  0
 13 38  1  0
 15 39  1  6
 16 40  1  0
 16 41  1  0
 17 42  1  0
 22 43  1  0
 22 44  1  0
 25 45  1  0
 26 46  1  0
 26 47  1  0
 27 48  1  0
 27 49  1  0
 28 50  1  0
 28 51  1  0
 29 52  1  0
 29 53  1  0
 30 54  1  0
 30 55  1  0
 31 56  1  0
 31 57  1  0
 32 58  1  0
 32 59  1  0
 32 60  1  0
 33 61  1  0
 33 62  1  0
 33 63  1  0
M  END
> <Uni-Dock RESULT> 
ENERGY=   -6.491  LOWER_BOUND=    0.000  UPPER_BOUND=    0.000
INTER + INTRA:          -6.491
INTER:                  -6.491
INTRA:                   0.000
UNBOUND:                 0.000

$$$$

     RDKit          3D

 63 65  0  0  0  0  0  0  0  0999 V2000
   46.6277    8.5103   12.5012 C   0  0  0  0  0  0  0  0  0  0  0  0
   46.0270    7.2102   12.6890 C   0  0  0  0  0  0  0  0  0  0  0  0
   46.8242    6.1204   13.1171 C   0  0  0  0  0  0  0  0  0  0  0  0
   48.0141    8.7061   12.7676 C   0  0  0  0  0  0  0  0  0  0  0  0
   48.7842    7.6283   13.2714 C   0  0  0  0  0  0  0  0  0  0  0  0
   45.6184   12.0502   11.3238 C   0  0  0  0  0  0  0  0  0  0  0  0
   48.1810    6.3638   13.3959 C   0  0  0  0  0  0  0  0  0  0  0  0
   45.8900    9.6353   12.0377 C   0  0  0  0  0  0  0  0  0  0  0  0
   46.2385    4.8306   13.2579 C   0  0  0  0  0  0  0  0  0  0  0  0
   46.4637   10.8946   11.7985 C   0  0  0  0  0  0  0  0  0  0  0  0
   44.8873    4.6077   13.0079 C   0  0  0  0  0  0  0  0  0  0  0  0
   48.5760    9.9777   12.4982 C   0  0  0  0  0  0  0  0  0  0  0  0
   44.6530    6.9387   12.4492 C   0  0  0  0  0  0  0  0  0  0  0  0
   44.0988    5.6682   12.6090 C   0  0  0  0  0  0  0  0  0  0  0  0
   50.2501    7.7243   13.6888 C   0  0  2  0  0  0  0  0  0  0  0  0
   50.5749    8.6728   14.8509 C   0  0  0  0  0  0  0  0  0  0  0  0
   47.8216   11.0533   12.0322 C   0  0  0  0  0  0  0  0  0  0  0  0
   45.0653   12.7434   12.3562 F   0  0  0  0  0  0  0  0  0  0  0  0
   46.3174   12.9608   10.5909 F   0  0  0  0  0  0  0  0  0  0  0  0
   44.5780   11.6586   10.5356 F   0  0  0  0  0  0  0  0  0  0  0  0
   47.1627    3.4409   13.7384 Cl  0  0  0  0  0  0  0  0  0  0  0  0
   49.8780    8.4052   16.1939 C   0  0  0  0  0  0  0  0  0  0  0  0
   50.2717    7.2468   17.0109 N   0  0  0  0  0  0  0  0  0  0  0  0
   42.4247    5.4196   12.2984 Cl  0  0  0  0  0  0  0  0  0  0  0  0
   51.0453    8.0992   12.5575 O   0  0  0  0  0  0  0  0  0  0  0  0
   51.7191    7.0607   17.1729 C   0  0  0  0  0  0  0  0  0  0  0  0
   49.5609    6.0132   16.6583 C   0  0  0  0  0  0  0  0  0  0  0  0
   52.4412    8.2336   17.8559 C   0  0  0  0  0  0  0  0  0  0  0  0
   49.4416    5.0506   17.8515 C   0  0  0  0  0  0  0  0  0  0  0  0
   51.9248    8.5090   19.2703 C   0  0  0  0  0  0  0  0  0  0  0  0
   48.5767    3.8242   17.5433 C   0  0  0  0  0  0  0  0  0  0  0  0
   52.7150    9.6213   19.9417 C   0  0  0  0  0  0  0  0  0  0  0  0
   47.0899    4.1394   17.4682 C   0  0  0  0  0  0  0  0  0  0  0  0
   48.8040    5.5376   13.7367 H   0  0  0  0  0  0  0  0  0  0  0  0
   44.8239    9.5500   11.8367 H   0  0  0  0  0  0  0  0  0  0  0  0
   44.4578    3.6165   13.1235 H   0  0  0  0  0  0  0  0  0  0  0  0
   49.6411   10.1578   12.6264 H   0  0  0  0  0  0  0  0  0  0  0  0
   43.9768    7.7254   12.1260 H   0  0  0  0  0  0  0  0  0  0  0  0
   50.6170    6.7297   13.9630 H   0  0  0  0  0  0  0  0  0  0  0  0
   51.6634    8.6966   14.9851 H   0  0  0  0  0  0  0  0  0  0  0  0
   50.3403    9.7050   14.5707 H   0  0  0  0  0  0  0  0  0  0  0  0
   48.3094   12.0097   11.8501 H   0  0  0  0  0  0  0  0  0  0  0  0
   50.0546    9.2933   16.8156 H   0  0  0  0  0  0  0  0  0  0  0  0
   48.7898    8.4140   16.0514 H   0  0  0  0  0  0  0  0  0  0  0  0
   50.6112    7.7391   11.7645 H   0  0  0  0  0  0  0  0  0  0  0  0
   51.9182    6.1790   17.7915 H   0  0  0  0  0  0  0  0  0  0  0  0
   52.1922    6.8539   16.2055 H   0  0  0  0  0  0  0  0  0  0  0  0
   50.0494    5.5040   15.8201 H   0  0  0  0  0  0  0  0  0  0  0  0
   48.5444    6.2636   16.3389 H   0  0  0  0  0  0  0  0  0  0  0  0
   52.3669    9.1426   17.2491 H   0  0  0  0  0  0  0  0  0  0  0  0
   53.5093    7.9887   17.9077 H   0  0  0  0  0  0  0  0  0  0  0  0
   49.0325    5.5783   18.7226 H   0  0  0  0  0  0  0  0  0  0  0  0
   50.4348    4.6868   18.1379 H   0  0  0  0  0  0  0  0  0  0  0  0
   50.8677    8.7946   19.2418 H   0  0  0  0  0  0  0  0  0  0  0  0
   51.9991    7.5994   19.8771 H   0  0  0  0  0  0  0  0  0  0  0  0
   48.9054    3.3567   16.6078 H   0  0  0  0  0  0  0  0  0  0  0  0
   48.7290    3.0839   18.3384 H   0  0  0  0  0  0  0  0  0  0  0  0
   52.6385   10.5544   19.3741 H   0  0  0  0  0  0  0  0  0  0  0  0
   53.7735    9.3550   20.0262 H   0  0  0  0  0  0  0  0  0  0  0  0
   52.3299    9.8041   20.9497 H   0  0  0  0  0  0  0  0  0  0  0  0
   46.5195    3.2199   17.3018 H   0  0  0  0  0  0  0  0  0  0  0  0
   46.7383    4.5900   18.4024 H   0  0  0  0  0  0  0  0  0  0  0  0
   46.8592    4.8266   16.6495 H   0  0  0  0  0  0  0  0  0  0  0  0
  2  1  2  0
  3  2  1  0
  4  1  1  0
  5  4  2  0
  6 10  1  0
  7  5  1  0
  8  1  1  0
  9  3  1  0
 10  8  2  0
 11 14  1  0
 12  4  1  0
 13  2  1  0
 14 13  2  0
 15  5  1  0
 16 15  1  0
 17 10  1  0
 18  6  1  0
 19  6  1  0
 20  6  1  0
 21  9  1  0
 22 16  1  0
 23 22  1  0
 24 14  1  0
 25 15  1  0
 26 23  1  0
 27 23  1  0
 28 26  1  0
 29 27  1  0
 30 28  1  0
 31 29  1  0
 32 30  1  0
 33 31  1  0
 17 12  2  0
  7  3  2  0
  9 11  2  0
  7 34  1  0
  8 35  1  0
 11 36  1  0
 12 37  1  0
 13 38  1  0
 15 39  1  6
 16 40  1  0
 16 41  1  0
 17 42  1  0
 22 43  1  0
 22 44  1  0
 25 45  1  0
 26 46  1  0
 26 47  1  0
 27 48  1  0
 27 49  1  0
 28 50  1  0
 28 51  1  0
 29 52  1  0
 29 53  1  0
 30 54  1  0
 30 55  1  0
 31 56  1  0
 31 57  1  0
 32 58  1  0
 32 59  1  0
 32 60  1  0
 33 61  1  0
 33 62  1  0
 33 63  1  0
M  END
> <Uni-Dock RESULT> 
ENERGY=   -5.966  LOWER_BOUND=    4.551  UPPER_BOUND=    6.698
INTER + INTRA:          -5.966
INTER:                  -5.966
INTRA:                   0.000
UNBOUND:                 0.000

$$$$

     RDKit          3D

 63 65  0  0  0  0  0  0  0  0999 V2000
   45.6405    8.0084   12.3793 C   0  0  0  0  0  0  0  0  0  0  0  0
   45.5606    6.5855   12.6147 C   0  0  0  0  0  0  0  0  0  0  0  0
   46.6433    5.9109   13.2305 C   0  0  0  0  0  0  0  0  0  0  0  0
   46.7945    8.7397   12.7854 C   0  0  0  0  0  0  0  0  0  0  0  0
   47.8371    8.0685   13.4717 C   0  0  0  0  0  0  0  0  0  0  0  0
   43.5370   10.8246   10.7732 C   0  0  0  0  0  0  0  0  0  0  0  0
   47.7502    6.6750   13.6410 C   0  0  0  0  0  0  0  0  0  0  0  0
   44.6039    8.7372   11.7323 C   0  0  0  0  0  0  0  0  0  0  0  0
   46.5797    4.5014   13.4202 C   0  0  0  0  0  0  0  0  0  0  0  0
   44.6820   10.1100   11.4466 C   0  0  0  0  0  0  0  0  0  0  0  0
   45.4659    3.7595   13.0369 C   0  0  0  0  0  0  0  0  0  0  0  0
   46.8615   10.1180   12.4673 C   0  0  0  0  0  0  0  0  0  0  0  0
   44.4429    5.7904   12.2434 C   0  0  0  0  0  0  0  0  0  0  0  0
   44.3982    4.4118   12.4538 C   0  0  0  0  0  0  0  0  0  0  0  0
   49.0802    8.7451   14.0454 C   0  0  2  0  0  0  0  0  0  0  0  0
   48.8501    9.7905   15.1454 C   0  0  0  0  0  0  0  0  0  0  0  0
   45.8288   10.7948   11.8204 C   0  0  0  0  0  0  0  0  0  0  0  0
   42.6206   11.2876   11.6666 F   0  0  0  0  0  0  0  0  0  0  0  0
   43.9328   11.9059   10.0458 F   0  0  0  0  0  0  0  0  0  0  0  0
   42.8480   10.0274    9.9091 F   0  0  0  0  0  0  0  0  0  0  0  0
   47.8853    3.6024   14.1299 Cl  0  0  0  0  0  0  0  0  0  0  0  0
   48.1243    9.3257   16.4175 C   0  0  0  0  0  0  0  0  0  0  0  0
   48.8091    8.4460   17.3774 N   0  0  0  0  0  0  0  0  0  0  0  0
   43.0078    3.5179   11.9755 Cl  0  0  0  0  0  0  0  0  0  0  0  0
   49.8247    9.3552   12.9843 O   0  0  0  0  0  0  0  0  0  0  0  0
   50.1793    8.8457   17.7223 C   0  0  0  0  0  0  0  0  0  0  0  0
   48.6802    7.0199   17.0595 C   0  0  0  0  0  0  0  0  0  0  0  0
   50.2947   10.2333   18.3738 C   0  0  0  0  0  0  0  0  0  0  0  0
   48.7682    6.1351   18.3142 C   0  0  0  0  0  0  0  0  0  0  0  0
   49.5168   10.3415   19.6876 C   0  0  0  0  0  0  0  0  0  0  0  0
   48.4895    4.6574   18.0217 C   0  0  0  0  0  0  0  0  0  0  0  0
   49.7191   11.6996   20.3411 C   0  0  0  0  0  0  0  0  0  0  0  0
   47.0218    4.3646   17.7463 C   0  0  0  0  0  0  0  0  0  0  0  0
   48.5858    6.1713   14.1260 H   0  0  0  0  0  0  0  0  0  0  0  0
   43.6911    8.2350   11.4179 H   0  0  0  0  0  0  0  0  0  0  0  0
   45.4349    2.6847   13.1925 H   0  0  0  0  0  0  0  0  0  0  0  0
   47.7476   10.7041   12.7010 H   0  0  0  0  0  0  0  0  0  0  0  0
   43.5715    6.2376   11.7733 H   0  0  0  0  0  0  0  0  0  0  0  0
   49.7554    7.9841   14.4504 H   0  0  0  0  0  0  0  0  0  0  0  0
   49.8162   10.2421   15.4020 H   0  0  0  0  0  0  0  0  0  0  0  0
   48.2822   10.6374   14.7464 H   0  0  0  0  0  0  0  0  0  0  0  0
   45.9358   11.8577   11.6091 H   0  0  0  0  0  0  0  0  0  0  0  0
   47.8587   10.2363   16.9714 H   0  0  0  0  0  0  0  0  0  0  0  0
   47.1472    8.9038   16.1498 H   0  0  0  0  0  0  0  0  0  0  0  0
   49.6783    8.8231   12.1827 H   0  0  0  0  0  0  0  0  0  0  0  0
   50.6092    8.1367   18.4380 H   0  0  0  0  0  0  0  0  0  0  0  0
   50.8279    8.8016   16.8393 H   0  0  0  0  0  0  0  0  0  0  0  0
   49.4397    6.7088   16.3338 H   0  0  0  0  0  0  0  0  0  0  0  0
   47.7016    6.8412   16.6030 H   0  0  0  0  0  0  0  0  0  0  0  0
   49.9667   11.0166   17.6817 H   0  0  0  0  0  0  0  0  0  0  0  0
   51.3565   10.4267   18.5712 H   0  0  0  0  0  0  0  0  0  0  0  0
   48.0694    6.4957   19.0799 H   0  0  0  0  0  0  0  0  0  0  0  0
   49.7735    6.1992   18.7458 H   0  0  0  0  0  0  0  0  0  0  0  0
   48.4463   10.1908   19.5109 H   0  0  0  0  0  0  0  0  0  0  0  0
   49.8450    9.5578   20.3798 H   0  0  0  0  0  0  0  0  0  0  0  0
   49.1010    4.3184   17.1774 H   0  0  0  0  0  0  0  0  0  0  0  0
   48.7975    4.0673   18.8935 H   0  0  0  0  0  0  0  0  0  0  0  0
   49.3745   12.5056   19.6853 H   0  0  0  0  0  0  0  0  0  0  0  0
   50.7756   11.8707   20.5717 H   0  0  0  0  0  0  0  0  0  0  0  0
   49.1542   11.7576   21.2767 H   0  0  0  0  0  0  0  0  0  0  0  0
   46.8748    3.2897   17.6000 H   0  0  0  0  0  0  0  0  0  0  0  0
   46.3959    4.6791   18.5882 H   0  0  0  0  0  0  0  0  0  0  0  0
   46.6656    4.8743   16.8468 H   0  0  0  0  0  0  0  0  0  0  0  0
  2  1  2  0
  3  2  1  0
  4  1  1  0
  5  4  2  0
  6 10  1  0
  7  5  1  0
  8  1  1  0
  9  3  1  0
 10  8  2  0
 11 14  1  0
 12  4  1  0
 13  2  1  0
 14 13  2  0
 15  5  1  0
 16 15  1  0
 17 10  1  0
 18  6  1  0
 19  6  1  0
 20  6  1  0
 21  9  1  0
 22 16  1  0
 23 22  1  0
 24 14  1  0
 25 15  1  0
 26 23  1  0
 27 23  1  0
 28 26  1  0
 29 27  1  0
 30 28  1  0
 31 29  1  0
 32 30  1  0
 33 31  1  0
 17 12  2  0
  7  3  2  0
  9 11  2  0
  7 34  1  0
  8 35  1  0
 11 36  1  0
 12 37  1  0
 13 38  1  0
 15 39  1  6
 16 40  1  0
 16 41  1  0
 17 42  1  0
 22 43  1  0
 22 44  1  0
 25 45  1  0
 26 46  1  0
 26 47  1  0
 27 48  1  0
 27 49  1  0
 28 50  1  0
 28 51  1  0
 29 52  1  0
 29 53  1  0
 30 54  1  0
 30 55  1  0
 31 56  1  0
 31 57  1  0
 32 58  1  0
 32 59  1  0
 32 60  1  0
 33 61  1  0
 33 62  1  0
 33 63  1  0
M  END
> <Uni-Dock RESULT> 
ENERGY=   -5.357  LOWER_BOUND=    4.281  UPPER_BOUND=    6.742
INTER + INTRA:          -5.357
INTER:                  -5.357
INTRA:                   0.000
UNBOUND:                 0.000

$$$$

     RDKit          3D

 63 65  0  0  0  0  0  0  0  0999 V2000
   48.6564    6.4499   14.6297 C   0  0  0  0  0  0  0  0  0  0  0  0
   49.7249    7.3899   14.3826 C   0  0  0  0  0  0  0  0  0  0  0  0
   49.7325    8.1504   13.1876 C   0  0  0  0  0  0  0  0  0  0  0  0
   47.5977    6.3019   13.6870 C   0  0  0  0  0  0  0  0  0  0  0  0
   47.5739    7.1249   12.5334 C   0  0  0  0  0  0  0  0  0  0  0  0
   47.6128    3.8496   17.2914 C   0  0  0  0  0  0  0  0  0  0  0  0
   48.6543    7.9942   12.2982 C   0  0  0  0  0  0  0  0  0  0  0  0
   48.6107    5.6302   15.7918 C   0  0  0  0  0  0  0  0  0  0  0  0
   50.8104    9.0429   12.9265 C   0  0  0  0  0  0  0  0  0  0  0  0
   47.6102    4.6733   16.0279 C   0  0  0  0  0  0  0  0  0  0  0  0
   51.8574    9.2116   13.8283 C   0  0  0  0  0  0  0  0  0  0  0  0
   46.6120    5.3158   13.9344 C   0  0  0  0  0  0  0  0  0  0  0  0
   50.8104    7.5965   15.2760 C   0  0  0  0  0  0  0  0  0  0  0  0
   51.8480    8.4889   15.0043 C   0  0  0  0  0  0  0  0  0  0  0  0
   46.4541    7.1388   11.4952 C   0  0  2  0  0  0  0  0  0  0  0  0
   45.0632    7.5619   11.9874 C   0  0  0  0  0  0  0  0  0  0  0  0
   46.6084    4.5226   15.0805 C   0  0  0  0  0  0  0  0  0  0  0  0
   46.9551    4.4662   18.3109 F   0  0  0  0  0  0  0  0  0  0  0  0
   47.0177    2.6338   17.1406 F   0  0  0  0  0  0  0  0  0  0  0  0
   48.8681    3.5937   17.7561 F   0  0  0  0  0  0  0  0  0  0  0  0
   50.9074    9.9760   11.4649 Cl  0  0  0  0  0  0  0  0  0  0  0  0
   44.9334    8.9584   12.6151 C   0  0  0  0  0  0  0  0  0  0  0  0
   45.0137   10.1581   11.7674 N   0  0  0  0  0  0  0  0  0  0  0  0
   53.1283    8.6830   16.1375 Cl  0  0  0  0  0  0  0  0  0  0  0  0
   46.3495    5.8454   10.8880 O   0  0  0  0  0  0  0  0  0  0  0  0
   44.2156   10.1064   10.5359 C   0  0  0  0  0  0  0  0  0  0  0  0
   46.3848   10.6335   11.5542 C   0  0  0  0  0  0  0  0  0  0  0  0
   42.7044    9.9363   10.7612 C   0  0  0  0  0  0  0  0  0  0  0  0
   46.4402   12.1478   11.2925 C   0  0  0  0  0  0  0  0  0  0  0  0
   42.0905   11.0792   11.5736 C   0  0  0  0  0  0  0  0  0  0  0  0
   47.8721   12.6867   11.2136 C   0  0  0  0  0  0  0  0  0  0  0  0
   40.5845   10.9172   11.7075 C   0  0  0  0  0  0  0  0  0  0  0  0
   48.5660   12.7526   12.5663 C   0  0  0  0  0  0  0  0  0  0  0  0
   48.6410    8.5807   11.3802 H   0  0  0  0  0  0  0  0  0  0  0  0
   49.3815    5.7138   16.5554 H   0  0  0  0  0  0  0  0  0  0  0  0
   52.6701    9.8996   13.6125 H   0  0  0  0  0  0  0  0  0  0  0  0
   45.8197    5.1231   13.2143 H   0  0  0  0  0  0  0  0  0  0  0  0
   50.8700    7.0553   16.2162 H   0  0  0  0  0  0  0  0  0  0  0  0
   46.7288    7.8058   10.6714 H   0  0  0  0  0  0  0  0  0  0  0  0
   44.3532    7.4495   11.1589 H   0  0  0  0  0  0  0  0  0  0  0  0
   44.6918    6.8449   12.7270 H   0  0  0  0  0  0  0  0  0  0  0  0
   45.8189    3.7854   15.2184 H   0  0  0  0  0  0  0  0  0  0  0  0
   43.9472    8.9893   13.0977 H   0  0  0  0  0  0  0  0  0  0  0  0
   45.6270    9.0471   13.4609 H   0  0  0  0  0  0  0  0  0  0  0  0
   47.2392    5.4511   10.8881 H   0  0  0  0  0  0  0  0  0  0  0  0
   44.3362   11.0364    9.9701 H   0  0  0  0  0  0  0  0  0  0  0  0
   44.5781    9.3107    9.8743 H   0  0  0  0  0  0  0  0  0  0  0  0
   46.8623   10.0977   10.7263 H   0  0  0  0  0  0  0  0  0  0  0  0
   46.9767   10.4365   12.4535 H   0  0  0  0  0  0  0  0  0  0  0  0
   42.4887    8.9778   11.2458 H   0  0  0  0  0  0  0  0  0  0  0  0
   42.2186    9.8965    9.7783 H   0  0  0  0  0  0  0  0  0  0  0  0
   45.8882   12.6861   12.0737 H   0  0  0  0  0  0  0  0  0  0  0  0
   45.9504   12.3798   10.3400 H   0  0  0  0  0  0  0  0  0  0  0  0
   42.5321   11.1156   12.5753 H   0  0  0  0  0  0  0  0  0  0  0  0
   42.3065   12.0380   11.0887 H   0  0  0  0  0  0  0  0  0  0  0  0
   48.4656   12.0793   10.5204 H   0  0  0  0  0  0  0  0  0  0  0  0
   47.8383   13.7010   10.7974 H   0  0  0  0  0  0  0  0  0  0  0  0
   40.3345    9.9795   12.2144 H   0  0  0  0  0  0  0  0  0  0  0  0
   40.1007   10.9176   10.7253 H   0  0  0  0  0  0  0  0  0  0  0  0
   40.1653   11.7419   12.2922 H   0  0  0  0  0  0  0  0  0  0  0  0
   49.5610   13.1955   12.4561 H   0  0  0  0  0  0  0  0  0  0  0  0
   47.9969   13.3720   13.2676 H   0  0  0  0  0  0  0  0  0  0  0  0
   48.6906   11.7609   13.0099 H   0  0  0  0  0  0  0  0  0  0  0  0
  2  1  2  0
  3  2  1  0
  4  1  1  0
  5  4  2  0
  6 10  1  0
  7  5  1  0
  8  1  1  0
  9  3  1  0
 10  8  2  0
 11 14  1  0
 12  4  1  0
 13  2  1  0
 14 13  2  0
 15  5  1  0
 16 15  1  0
 17 10  1  0
 18  6  1  0
 19  6  1  0
 20  6  1  0
 21  9  1  0
 22 16  1  0
 23 22  1  0
 24 14  1  0
 25 15  1  0
 26 23  1  0
 27 23  1  0
 28 26  1  0
 29 27  1  0
 30 28  1  0
 31 29  1  0
 32 30  1  0
 33 31  1  0
 17 12  2  0
  7  3  2  0
  9 11  2  0
  7 34  1  0
  8 35  1  0
 11 36  1  0
 12 37  1  0
 13 38  1  0
 15 39  1  6
 16 40  1  0
 16 41  1  0
 17 42  1  0
 22 43  1  0
 22 44  1  0
 25 45  1  0
 26 46  1  0
 26 47  1  0
 27 48  1  0
 27 49  1  0
 28 50  1  0
 28 51  1  0
 29 52  1  0
 29 53  1  0
 30 54  1  0
 30 55  1  0
 31 56  1  0
 31 57  1  0
 32 58  1  0
 32 59  1  0
 32 60  1  0
 33 61  1  0
 33 62  1  0
 33 63  1  0
M  END
> <Uni-Dock RESULT> 
ENERGY=   -5.207  LOWER_BOUND=    3.608  UPPER_BOUND=    6.912
INTER + INTRA:          -5.207
INTER:                  -5.207
INTRA:                   0.000
UNBOUND:                 0.000

$$$$

     RDKit          3D

 63 65  0  0  0  0  0  0  0  0999 V2000
   46.7467    5.3539   13.6000 C   0  0  0  0  0  0  0  0  0  0  0  0
   47.4100    5.1253   14.8626 C   0  0  0  0  0  0  0  0  0  0  0  0
   48.5637    5.8752   15.1988 C   0  0  0  0  0  0  0  0  0  0  0  0
   47.2348    6.3472   12.7019 C   0  0  0  0  0  0  0  0  0  0  0  0
   48.3417    7.1457   13.0834 C   0  0  0  0  0  0  0  0  0  0  0  0
   43.7605    3.9658   11.5773 C   0  0  0  0  0  0  0  0  0  0  0  0
   48.9946    6.8644   14.2970 C   0  0  0  0  0  0  0  0  0  0  0  0
   45.6068    4.6089   13.1875 C   0  0  0  0  0  0  0  0  0  0  0  0
   49.2410    5.6159   16.4239 C   0  0  0  0  0  0  0  0  0  0  0  0
   44.9776    4.7781   11.9434 C   0  0  0  0  0  0  0  0  0  0  0  0
   48.7878    4.6545   17.3230 C   0  0  0  0  0  0  0  0  0  0  0  0
   46.5988    6.4853   11.4443 C   0  0  0  0  0  0  0  0  0  0  0  0
   46.9804    4.1579   15.8106 C   0  0  0  0  0  0  0  0  0  0  0  0
   47.6531    3.9327   17.0122 C   0  0  0  0  0  0  0  0  0  0  0  0
   48.9048    8.3045   12.2632 C   0  0  2  0  0  0  0  0  0  0  0  0
   47.9654    9.4923   12.0134 C   0  0  0  0  0  0  0  0  0  0  0  0
   45.4903    5.7269   11.0713 C   0  0  0  0  0  0  0  0  0  0  0  0
   42.6047    4.5515   11.9935 F   0  0  0  0  0  0  0  0  0  0  0  0
   43.6249    3.7775   10.2353 F   0  0  0  0  0  0  0  0  0  0  0  0
   43.7683    2.7195   12.1284 F   0  0  0  0  0  0  0  0  0  0  0  0
   50.6839    6.4667   16.8827 Cl  0  0  0  0  0  0  0  0  0  0  0  0
   47.4044   10.2175   13.2464 C   0  0  0  0  0  0  0  0  0  0  0  0
   48.2831   11.0667   14.0657 N   0  0  0  0  0  0  0  0  0  0  0  0
   47.0700    2.7420   18.1091 Cl  0  0  0  0  0  0  0  0  0  0  0  0
   49.3674    7.8144   10.9990 O   0  0  0  0  0  0  0  0  0  0  0  0
   49.1389   11.9904   13.3104 C   0  0  0  0  0  0  0  0  0  0  0  0
   49.0006   10.3296   15.1112 C   0  0  0  0  0  0  0  0  0  0  0  0
   48.3748   13.0066   12.4462 C   0  0  0  0  0  0  0  0  0  0  0  0
   49.3405   11.2185   16.3191 C   0  0  0  0  0  0  0  0  0  0  0  0
   47.4542   13.9136   13.2665 C   0  0  0  0  0  0  0  0  0  0  0  0
   49.9582   10.4340   17.4810 C   0  0  0  0  0  0  0  0  0  0  0  0
   46.7775   14.9552   12.3892 C   0  0  0  0  0  0  0  0  0  0  0  0
   48.9525    9.5665   18.2238 C   0  0  0  0  0  0  0  0  0  0  0  0
   49.8742    7.4567   14.5473 H   0  0  0  0  0  0  0  0  0  0  0  0
   45.1784    3.8510   13.8405 H   0  0  0  0  0  0  0  0  0  0  0  0
   49.3168    4.4729   18.2544 H   0  0  0  0  0  0  0  0  0  0  0  0
   46.9735    7.1859   10.7012 H   0  0  0  0  0  0  0  0  0  0  0  0
   46.0993    3.5494   15.6269 H   0  0  0  0  0  0  0  0  0  0  0  0
   49.8047    8.6932   12.7513 H   0  0  0  0  0  0  0  0  0  0  0  0
   48.4749   10.2041   11.3524 H   0  0  0  0  0  0  0  0  0  0  0  0
   47.1066    9.1730   11.4139 H   0  0  0  0  0  0  0  0  0  0  0  0
   45.0398    5.8837   10.0924 H   0  0  0  0  0  0  0  0  0  0  0  0
   46.6003   10.8706   12.8811 H   0  0  0  0  0  0  0  0  0  0  0  0
   46.8717    9.5003   13.8838 H   0  0  0  0  0  0  0  0  0  0  0  0
   49.6687    6.8990   11.1342 H   0  0  0  0  0  0  0  0  0  0  0  0
   49.7561   12.5787   13.9979 H   0  0  0  0  0  0  0  0  0  0  0  0
   49.8459   11.4353   12.6825 H   0  0  0  0  0  0  0  0  0  0  0  0
   49.9170    9.8779   14.7152 H   0  0  0  0  0  0  0  0  0  0  0  0
   48.3671    9.5145   15.4747 H   0  0  0  0  0  0  0  0  0  0  0  0
   47.7975   12.4980   11.6664 H   0  0  0  0  0  0  0  0  0  0  0  0
   49.1127   13.6273   11.9227 H   0  0  0  0  0  0  0  0  0  0  0  0
   48.4409   11.7420   16.6672 H   0  0  0  0  0  0  0  0  0  0  0  0
   50.0622   11.9886   16.0240 H   0  0  0  0  0  0  0  0  0  0  0  0
   46.6827   13.3203   13.7690 H   0  0  0  0  0  0  0  0  0  0  0  0
   48.0320   14.4223   14.0466 H   0  0  0  0  0  0  0  0  0  0  0  0
   50.7874    9.8150   17.1191 H   0  0  0  0  0  0  0  0  0  0  0  0
   50.3845   11.1496   18.1946 H   0  0  0  0  0  0  0  0  0  0  0  0
   46.1680   14.4790   11.6143 H   0  0  0  0  0  0  0  0  0  0  0  0
   47.5174   15.5969   11.8999 H   0  0  0  0  0  0  0  0  0  0  0  0
   46.1232   15.5916   12.9930 H   0  0  0  0  0  0  0  0  0  0  0  0
   49.4367    9.0752   19.0738 H   0  0  0  0  0  0  0  0  0  0  0  0
   48.1251   10.1710   18.6101 H   0  0  0  0  0  0  0  0  0  0  0  0
   48.5346    8.7857   17.5823 H   0  0  0  0  0  0  0  0  0  0  0  0
  2  1  2  0
  3  2  1  0
  4  1  1  0
  5  4  2  0
  6 10  1  0
  7  5  1  0
  8  1  1  0
  9  3  1  0
 10  8  2  0
 11 14  1  0
 12  4  1  0
 13  2  1  0
 14 13  2  0
 15  5  1  0
 16 15  1  0
 17 10  1  0
 18  6  1  0
 19  6  1  0
 20  6  1  0
 21  9  1  0
 22 16  1  0
 23 22  1  0
 24 14  1  0
 25 15  1  0
 26 23  1  0
 27 23  1  0
 28 26  1  0
 29 27  1  0
 30 28  1  0
 31 29  1  0
 32 30  1  0
 33 31  1  0
 17 12  2  0
  7  3  2  0
  9 11  2  0
  7 34  1  0
  8 35  1  0
 11 36  1  0
 12 37  1  0
 13 38  1  0
 15 39  1  6
 16 40  1  0
 16 41  1  0
 17 42  1  0
 22 43  1  0
 22 44  1  0
 25 45  1  0
 26 46  1  0
 26 47  1  0
 27 48  1  0
 27 49  1  0
 28 50  1  0
 28 51  1  0
 29 52  1  0
 29 53  1  0
 30 54  1  0
 30 55  1  0
 31 56  1  0
 31 57  1  0
 32 58  1  0
 32 59  1  0
 32 60  1  0
 33 61  1  0
 33 62  1  0
 33 63  1  0
M  END
> <Uni-Dock RESULT> 
ENERGY=   -4.991  LOWER_BOUND=    3.857  UPPER_BOUND=    6.170
INTER + INTRA:          -4.991
INTER:                  -4.991
INTRA:                   0.000
UNBOUND:                 0.000

$$$$

     RDKit          3D

 63 65  0  0  0  0  0  0  0  0999 V2000
   45.4405    9.8235   11.9477 C   0  0  0  0  0  0  0  0  0  0  0  0
   46.2172    8.6797   12.3660 C   0  0  0  0  0  0  0  0  0  0  0  0
   47.6289    8.7735   12.4355 C   0  0  0  0  0  0  0  0  0  0  0  0
   46.0873   11.0525   11.6274 C   0  0  0  0  0  0  0  0  0  0  0  0
   47.4926   11.1581   11.7770 C   0  0  0  0  0  0  0  0  0  0  0  0
   41.7518   10.7596   11.2748 C   0  0  0  0  0  0  0  0  0  0  0  0
   48.2241   10.0125   12.1385 C   0  0  0  0  0  0  0  0  0  0  0  0
   44.0238    9.7828   11.8217 C   0  0  0  0  0  0  0  0  0  0  0  0
   48.3941    7.6312   12.8048 C   0  0  0  0  0  0  0  0  0  0  0  0
   43.2536   10.8657   11.3674 C   0  0  0  0  0  0  0  0  0  0  0  0
   47.7920    6.4178   13.1258 C   0  0  0  0  0  0  0  0  0  0  0  0
   45.2937   12.1239   11.1503 C   0  0  0  0  0  0  0  0  0  0  0  0
   45.6446    7.4244   12.7058 C   0  0  0  0  0  0  0  0  0  0  0  0
   46.4157    6.3231   13.0796 C   0  0  0  0  0  0  0  0  0  0  0  0
   48.2986   12.4375   11.5626 C   0  0  2  0  0  0  0  0  0  0  0  0
   47.9783   13.6174   12.4905 C   0  0  0  0  0  0  0  0  0  0  0  0
   43.9075   12.0411   11.0289 C   0  0  0  0  0  0  0  0  0  0  0  0
   41.1376   11.0972   12.4414 F   0  0  0  0  0  0  0  0  0  0  0  0
   41.2147   11.5679   10.3192 F   0  0  0  0  0  0  0  0  0  0  0  0
   41.3257    9.4997   10.9781 F   0  0  0  0  0  0  0  0  0  0  0  0
   50.1294    7.6606   12.8711 Cl  0  0  0  0  0  0  0  0  0  0  0  0
   48.1394   13.3886   14.0014 C   0  0  0  0  0  0  0  0  0  0  0  0
   49.4826   13.2719   14.5903 N   0  0  0  0  0  0  0  0  0  0  0  0
   45.6471    4.8356   13.4765 Cl  0  0  0  0  0  0  0  0  0  0  0  0
   48.1532   12.8717   10.2051 O   0  0  0  0  0  0  0  0  0  0  0  0
   50.4470   14.2880   14.1505 C   0  0  0  0  0  0  0  0  0  0  0  0
   50.0186   11.9070   14.5594 C   0  0  0  0  0  0  0  0  0  0  0  0
   50.0443   15.7349   14.4788 C   0  0  0  0  0  0  0  0  0  0  0  0
   51.0172   11.6494   15.7001 C   0  0  0  0  0  0  0  0  0  0  0  0
   49.8787   15.9814   15.9804 C   0  0  0  0  0  0  0  0  0  0  0  0
   51.4754   10.1894   15.7724 C   0  0  0  0  0  0  0  0  0  0  0  0
   49.5589   17.4394   16.2706 C   0  0  0  0  0  0  0  0  0  0  0  0
   50.4057    9.2484   16.3073 C   0  0  0  0  0  0  0  0  0  0  0  0
   49.3082   10.1026   12.1984 H   0  0  0  0  0  0  0  0  0  0  0  0
   43.4744    8.8772   12.0714 H   0  0  0  0  0  0  0  0  0  0  0  0
   48.3929    5.5578   13.4080 H   0  0  0  0  0  0  0  0  0  0  0  0
   45.7485   13.0602   10.8344 H   0  0  0  0  0  0  0  0  0  0  0  0
   44.5684    7.2776   12.6836 H   0  0  0  0  0  0  0  0  0  0  0  0
   49.3663   12.2175   11.6661 H   0  0  0  0  0  0  0  0  0  0  0  0
   48.5737   14.4814   12.1708 H   0  0  0  0  0  0  0  0  0  0  0  0
   46.9496   13.9553   12.3277 H   0  0  0  0  0  0  0  0  0  0  0  0
   43.3503   12.9019   10.6623 H   0  0  0  0  0  0  0  0  0  0  0  0
   47.6610   14.2448   14.4959 H   0  0  0  0  0  0  0  0  0  0  0  0
   47.5158   12.5411   14.3133 H   0  0  0  0  0  0  0  0  0  0  0  0
   48.0252   12.0774    9.6575 H   0  0  0  0  0  0  0  0  0  0  0  0
   51.4146   14.1236   14.6366 H   0  0  0  0  0  0  0  0  0  0  0  0
   50.6393   14.1975   13.0748 H   0  0  0  0  0  0  0  0  0  0  0  0
   50.4949   11.6935   13.5961 H   0  0  0  0  0  0  0  0  0  0  0  0
   49.1957   11.1955   14.6801 H   0  0  0  0  0  0  0  0  0  0  0  0
   49.1241   16.0115   13.9527 H   0  0  0  0  0  0  0  0  0  0  0  0
   50.8272   16.3994   14.0926 H   0  0  0  0  0  0  0  0  0  0  0  0
   50.5761   11.9435   16.6612 H   0  0  0  0  0  0  0  0  0  0  0  0
   51.9118   12.2664   15.5590 H   0  0  0  0  0  0  0  0  0  0  0  0
   49.0743   15.3566   16.3834 H   0  0  0  0  0  0  0  0  0  0  0  0
   50.7994   15.7044   16.5065 H   0  0  0  0  0  0  0  0  0  0  0  0
   51.8093    9.8498   14.7850 H   0  0  0  0  0  0  0  0  0  0  0  0
   52.3450   10.1315   16.4385 H   0  0  0  0  0  0  0  0  0  0  0  0
   48.6274   17.7414   15.7811 H   0  0  0  0  0  0  0  0  0  0  0  0
   50.3618   18.0951   15.9182 H   0  0  0  0  0  0  0  0  0  0  0  0
   49.4427   17.5945   17.3477 H   0  0  0  0  0  0  0  0  0  0  0  0
   50.8063    8.2329   16.3889 H   0  0  0  0  0  0  0  0  0  0  0  0
   50.0729    9.5607   17.3028 H   0  0  0  0  0  0  0  0  0  0  0  0
   49.5315    9.2093   15.6516 H   0  0  0  0  0  0  0  0  0  0  0  0
  2  1  2  0
  3  2  1  0
  4  1  1  0
  5  4  2  0
  6 10  1  0
  7  5  1  0
  8  1  1  0
  9  3  1  0
 10  8  2  0
 11 14  1  0
 12  4  1  0
 13  2  1  0
 14 13  2  0
 15  5  1  0
 16 15  1  0
 17 10  1  0
 18  6  1  0
 19  6  1  0
 20  6  1  0
 21  9  1  0
 22 16  1  0
 23 22  1  0
 24 14  1  0
 25 15  1  0
 26 23  1  0
 27 23  1  0
 28 26  1  0
 29 27  1  0
 30 28  1  0
 31 29  1  0
 32 30  1  0
 33 31  1  0
 17 12  2  0
  7  3  2  0
  9 11  2  0
  7 34  1  0
  8 35  1  0
 11 36  1  0
 12 37  1  0
 13 38  1  0
 15 39  1  6
 16 40  1  0
 16 41  1  0
 17 42  1  0
 22 43  1  0
 22 44  1  0
 25 45  1  0
 26 46  1  0
 26 47  1  0
 27 48  1  0
 27 49  1  0
 28 50  1  0
 28 51  1  0
 29 52  1  0
 29 53  1  0
 30 54  1  0
 30 55  1  0
 31 56  1  0
 31 57  1  0
 32 58  1  0
 32 59  1  0
 32 60  1  0
 33 61  1  0
 33 62  1  0
 33 63  1  0
M  END
> <Uni-Dock RESULT> 
ENERGY=   -4.918  LOWER_BOUND=    4.142  UPPER_BOUND=    6.381
INTER + INTRA:          -4.918
INTER:                  -4.918
INTRA:                   0.000
UNBOUND:                 0.000

$$$$

     RDKit          3D

 63 65  0  0  0  0  0  0  0  0999 V2000
   46.5955    8.1402   12.7422 C   0  0  0  0  0  0  0  0  0  0  0  0
   45.8396    9.2243   12.1595 C   0  0  0  0  0  0  0  0  0  0  0  0
   46.4168   10.5143   12.0633 C   0  0  0  0  0  0  0  0  0  0  0  0
   47.9280    8.3579   13.1990 C   0  0  0  0  0  0  0  0  0  0  0  0
   48.5230    9.6323   13.0251 C   0  0  0  0  0  0  0  0  0  0  0  0
   46.1351    4.4076   13.6318 C   0  0  0  0  0  0  0  0  0  0  0  0
   47.7436   10.6786   12.4998 C   0  0  0  0  0  0  0  0  0  0  0  0
   46.0599    6.8316   12.9014 C   0  0  0  0  0  0  0  0  0  0  0  0
   45.6530   11.5907   11.5298 C   0  0  0  0  0  0  0  0  0  0  0  0
   46.7572    5.7764   13.5118 C   0  0  0  0  0  0  0  0  0  0  0  0
   44.3505   11.4096   11.0730 C   0  0  0  0  0  0  0  0  0  0  0  0
   48.6040    7.2861   13.8312 C   0  0  0  0  0  0  0  0  0  0  0  0
   44.5102    9.0838   11.6780 C   0  0  0  0  0  0  0  0  0  0  0  0
   43.7870   10.1516   11.1450 C   0  0  0  0  0  0  0  0  0  0  0  0
   49.9685    9.9753   13.3790 C   0  0  2  0  0  0  0  0  0  0  0  0
   51.0632    9.2140   12.6190 C   0  0  0  0  0  0  0  0  0  0  0  0
   48.0400    6.0201   13.9796 C   0  0  0  0  0  0  0  0  0  0  0  0
   46.3698    3.6360   12.5355 F   0  0  0  0  0  0  0  0  0  0  0  0
   46.6002    3.6984   14.6975 F   0  0  0  0  0  0  0  0  0  0  0  0
   44.7808    4.4505   13.7766 F   0  0  0  0  0  0  0  0  0  0  0  0
   46.2803   13.2064   11.4195 Cl  0  0  0  0  0  0  0  0  0  0  0  0
   51.0723    9.3368   11.0874 C   0  0  0  0  0  0  0  0  0  0  0  0
   51.4873   10.5968   10.4512 N   0  0  0  0  0  0  0  0  0  0  0  0
   42.1803    9.9008   10.5826 Cl  0  0  0  0  0  0  0  0  0  0  0  0
   50.1736    9.7877   14.7844 O   0  0  0  0  0  0  0  0  0  0  0  0
   52.7162   11.1927   10.9904 C   0  0  0  0  0  0  0  0  0  0  0  0
   50.3929   11.5604   10.2922 C   0  0  0  0  0  0  0  0  0  0  0  0
   53.9655   10.3062   10.8613 C   0  0  0  0  0  0  0  0  0  0  0  0
   50.6200   12.5054    9.1005 C   0  0  0  0  0  0  0  0  0  0  0  0
   54.3055    9.9633    9.4087 C   0  0  0  0  0  0  0  0  0  0  0  0
   49.4218   13.4206    8.8293 C   0  0  0  0  0  0  0  0  0  0  0  0
   55.5893    9.1536    9.3165 C   0  0  0  0  0  0  0  0  0  0  0  0
   48.2376   12.6940    8.2084 C   0  0  0  0  0  0  0  0  0  0  0  0
   48.2045   11.6627   12.4218 H   0  0  0  0  0  0  0  0  0  0  0  0
   45.0547    6.6019   12.5532 H   0  0  0  0  0  0  0  0  0  0  0  0
   43.7843   12.2430   10.6664 H   0  0  0  0  0  0  0  0  0  0  0  0
   49.5982    7.4214   14.2516 H   0  0  0  0  0  0  0  0  0  0  0  0
   44.0032    8.1235   11.7111 H   0  0  0  0  0  0  0  0  0  0  0  0
   50.1392   11.0450   13.2185 H   0  0  0  0  0  0  0  0  0  0  0  0
   52.0375    9.5059   13.0299 H   0  0  0  0  0  0  0  0  0  0  0  0
   51.0093    8.1455   12.8522 H   0  0  0  0  0  0  0  0  0  0  0  0
   48.6125    5.2334   14.4686 H   0  0  0  0  0  0  0  0  0  0  0  0
   51.7628    8.5658   10.7200 H   0  0  0  0  0  0  0  0  0  0  0  0
   50.1029    9.0135   10.6870 H   0  0  0  0  0  0  0  0  0  0  0  0
   49.3278    9.9720   15.2292 H   0  0  0  0  0  0  0  0  0  0  0  0
   52.9471   12.1231   10.4604 H   0  0  0  0  0  0  0  0  0  0  0  0
   52.5781   11.4787   12.0398 H   0  0  0  0  0  0  0  0  0  0  0  0
   50.2495   12.1466   11.2067 H   0  0  0  0  0  0  0  0  0  0  0  0
   49.4613   11.0176   10.1044 H   0  0  0  0  0  0  0  0  0  0  0  0
   53.8512    9.3855   11.4438 H   0  0  0  0  0  0  0  0  0  0  0  0
   54.8102   10.8457   11.3074 H   0  0  0  0  0  0  0  0  0  0  0  0
   50.8504   11.9255    8.1977 H   0  0  0  0  0  0  0  0  0  0  0  0
   51.4857   13.1488    9.2945 H   0  0  0  0  0  0  0  0  0  0  0  0
   53.4924    9.3891    8.9517 H   0  0  0  0  0  0  0  0  0  0  0  0
   54.4198   10.8845    8.8261 H   0  0  0  0  0  0  0  0  0  0  0  0
   49.1094   13.9170    9.7554 H   0  0  0  0  0  0  0  0  0  0  0  0
   49.7386   14.2106    8.1374 H   0  0  0  0  0  0  0  0  0  0  0  0
   55.4989    8.2112    9.8664 H   0  0  0  0  0  0  0  0  0  0  0  0
   56.4364    9.7125    9.7274 H   0  0  0  0  0  0  0  0  0  0  0  0
   55.8139    8.9173    8.2718 H   0  0  0  0  0  0  0  0  0  0  0  0
   47.4356   13.4053    7.9864 H   0  0  0  0  0  0  0  0  0  0  0  0
   48.5258   12.2072    7.2707 H   0  0  0  0  0  0  0  0  0  0  0  0
   47.8299   11.9315    8.8778 H   0  0  0  0  0  0  0  0  0  0  0  0
  2  1  2  0
  3  2  1  0
  4  1  1  0
  5  4  2  0
  6 10  1  0
  7  5  1  0
  8  1  1  0
  9  3  1  0
 10  8  2  0
 11 14  1  0
 12  4  1  0
 13  2  1  0
 14 13  2  0
 15  5  1  0
 16 15  1  0
 17 10  1  0
 18  6  1  0
 19  6  1  0
 20  6  1  0
 21  9  1  0
 22 16  1  0
 23 22  1  0
 24 14  1  0
 25 15  1  0
 26 23  1  0
 27 23  1  0
 28 26  1  0
 29 27  1  0
 30 28  1  0
 31 29  1  0
 32 30  1  0
 33 31  1  0
 17 12  2  0
  7  3  2  0
  9 11  2  0
  7 34  1  0
  8 35  1  0
 11 36  1  0
 12 37  1  0
 13 38  1  0
 15 39  1  6
 16 40  1  0
 16 41  1  0
 17 42  1  0
 22 43  1  0
 22 44  1  0
 25 45  1  0
 26 46  1  0
 26 47  1  0
 27 48  1  0
 27 49  1  0
 28 50  1  0
 28 51  1  0
 29 52  1  0
 29 53  1  0
 30 54  1  0
 30 55  1  0
 31 56  1  0
 31 57  1  0
 32 58  1  0
 32 59  1  0
 32 60  1  0
 33 61  1  0
 33 62  1  0
 33 63  1  0
M  END
> <Uni-Dock RESULT> 
ENERGY=   -4.869  LOWER_BOUND=    1.741  UPPER_BOUND=    2.194
INTER + INTRA:          -4.869
INTER:                  -4.869
INTRA:                   0.000
UNBOUND:                 0.000

$$$$

     RDKit          3D

 63 65  0  0  0  0  0  0  0  0999 V2000
   48.6725    9.5522   16.5468 C   0  0  0  0  0  0  0  0  0  0  0  0
   48.3074   10.8348   17.1018 C   0  0  0  0  0  0  0  0  0  0  0  0
   47.7183   10.9045   18.3881 C   0  0  0  0  0  0  0  0  0  0  0  0
   48.4641    8.3591   17.2981 C   0  0  0  0  0  0  0  0  0  0  0  0
   47.9478    8.4480   18.6149 C   0  0  0  0  0  0  0  0  0  0  0  0
   50.1566    8.0963   13.2890 C   0  0  0  0  0  0  0  0  0  0  0  0
   47.5567    9.7064   19.1064 C   0  0  0  0  0  0  0  0  0  0  0  0
   49.2330    9.4117   15.2466 C   0  0  0  0  0  0  0  0  0  0  0  0
   47.3185   12.1659   18.9132 C   0  0  0  0  0  0  0  0  0  0  0  0
   49.5473    8.1718   14.6667 C   0  0  0  0  0  0  0  0  0  0  0  0
   47.5110   13.3490   18.2053 C   0  0  0  0  0  0  0  0  0  0  0  0
   48.7672    7.1189   16.6854 C   0  0  0  0  0  0  0  0  0  0  0  0
   48.4887   12.0665   16.4166 C   0  0  0  0  0  0  0  0  0  0  0  0
   48.1021   13.2924   16.9593 C   0  0  0  0  0  0  0  0  0  0  0  0
   47.7657    7.2637   19.5618 C   0  0  2  0  0  0  0  0  0  0  0  0
   49.0365    6.5057   19.9695 C   0  0  0  0  0  0  0  0  0  0  0  0
   49.3044    7.0216   15.4028 C   0  0  0  0  0  0  0  0  0  0  0  0
   51.5148    8.1771   13.3201 F   0  0  0  0  0  0  0  0  0  0  0  0
   49.8634    6.9380   12.6353 F   0  0  0  0  0  0  0  0  0  0  0  0
   49.7404    9.1016   12.4684 F   0  0  0  0  0  0  0  0  0  0  0  0
   46.5531   12.3231   20.4643 Cl  0  0  0  0  0  0  0  0  0  0  0  0
   50.1406    7.3098   20.6733 C   0  0  0  0  0  0  0  0  0  0  0  0
   49.9512    7.7657   22.0592 N   0  0  0  0  0  0  0  0  0  0  0  0
   48.3552   14.7413   16.0663 Cl  0  0  0  0  0  0  0  0  0  0  0  0
   46.8420    6.3310   18.9881 O   0  0  0  0  0  0  0  0  0  0  0  0
   49.4289    6.7515   22.9837 C   0  0  0  0  0  0  0  0  0  0  0  0
   49.2639    9.0574   22.1617 C   0  0  0  0  0  0  0  0  0  0  0  0
   50.3227    5.5107   23.1414 C   0  0  0  0  0  0  0  0  0  0  0  0
   49.6534    9.8227   23.4373 C   0  0  0  0  0  0  0  0  0  0  0  0
   51.7165    5.8446   23.6790 C   0  0  0  0  0  0  0  0  0  0  0  0
   49.0603   11.2343   23.4896 C   0  0  0  0  0  0  0  0  0  0  0  0
   52.5425    4.5865   23.8964 C   0  0  0  0  0  0  0  0  0  0  0  0
   49.7338   12.2062   22.5318 C   0  0  0  0  0  0  0  0  0  0  0  0
   47.1151    9.7457   20.1017 H   0  0  0  0  0  0  0  0  0  0  0  0
   49.4328   10.2894   14.6351 H   0  0  0  0  0  0  0  0  0  0  0  0
   47.2016   14.3026   18.6241 H   0  0  0  0  0  0  0  0  0  0  0  0
   48.5670    6.1789   17.1949 H   0  0  0  0  0  0  0  0  0  0  0  0
   48.9409   12.0944   15.4291 H   0  0  0  0  0  0  0  0  0  0  0  0
   47.2759    7.6033   20.4804 H   0  0  0  0  0  0  0  0  0  0  0  0
   48.7446    5.6435   20.5816 H   0  0  0  0  0  0  0  0  0  0  0  0
   49.4939    6.0385   19.0911 H   0  0  0  0  0  0  0  0  0  0  0  0
   49.5234    6.0389   14.9878 H   0  0  0  0  0  0  0  0  0  0  0  0
   51.0325    6.6687   20.6805 H   0  0  0  0  0  0  0  0  0  0  0  0
   50.4445    8.1512   20.0376 H   0  0  0  0  0  0  0  0  0  0  0  0
   46.2144    6.8394   18.4452 H   0  0  0  0  0  0  0  0  0  0  0  0
   49.3197    7.1775   23.9868 H   0  0  0  0  0  0  0  0  0  0  0  0
   48.4208    6.4400   22.6853 H   0  0  0  0  0  0  0  0  0  0  0  0
   48.1765    8.9280   22.1258 H   0  0  0  0  0  0  0  0  0  0  0  0
   49.5453    9.6822   21.3083 H   0  0  0  0  0  0  0  0  0  0  0  0
   50.4096    4.9706   22.1924 H   0  0  0  0  0  0  0  0  0  0  0  0
   49.8270    4.8236   23.8384 H   0  0  0  0  0  0  0  0  0  0  0  0
   50.7460    9.8805   23.5238 H   0  0  0  0  0  0  0  0  0  0  0  0
   49.2927    9.2834   24.3205 H   0  0  0  0  0  0  0  0  0  0  0  0
   52.2482    6.4996   22.9805 H   0  0  0  0  0  0  0  0  0  0  0  0
   51.6293    6.3850   24.6284 H   0  0  0  0  0  0  0  0  0  0  0  0
   47.9836   11.1984   23.2868 H   0  0  0  0  0  0  0  0  0  0  0  0
   49.1784   11.6223   24.5088 H   0  0  0  0  0  0  0  0  0  0  0  0
   52.6726    4.0360   22.9590 H   0  0  0  0  0  0  0  0  0  0  0  0
   52.0625    3.9223   24.6224 H   0  0  0  0  0  0  0  0  0  0  0  0
   53.5346    4.8461   24.2786 H   0  0  0  0  0  0  0  0  0  0  0  0
   49.3081   13.2075   22.6527 H   0  0  0  0  0  0  0  0  0  0  0  0
   50.8087   12.2703   22.7318 H   0  0  0  0  0  0  0  0  0  0  0  0
   49.5978   11.9108   21.4878 H   0  0  0  0  0  0  0  0  0  0  0  0
  2  1  2  0
  3  2  1  0
  4  1  1  0
  5  4  2  0
  6 10  1  0
  7  5  1  0
  8  1  1  0
  9  3  1  0
 10  8  2  0
 11 14  1  0
 12  4  1  0
 13  2  1  0
 14 13  2  0
 15  5  1  0
 16 15  1  0
 17 10  1  0
 18  6  1  0
 19  6  1  0
 20  6  1  0
 21  9  1  0
 22 16  1  0
 23 22  1  0
 24 14  1  0
 25 15  1  0
 26 23  1  0
 27 23  1  0
 28 26  1  0
 29 27  1  0
 30 28  1  0
 31 29  1  0
 32 30  1  0
 33 31  1  0
 17 12  2  0
  7  3  2  0
  9 11  2  0
  7 34  1  0
  8 35  1  0
 11 36  1  0
 12 37  1  0
 13 38  1  0
 15 39  1  6
 16 40  1  0
 16 41  1  0
 17 42  1  0
 22 43  1  0
 22 44  1  0
 25 45  1  0
 26 46  1  0
 26 47  1  0
 27 48  1  0
 27 49  1  0
 28 50  1  0
 28 51  1  0
 29 52  1  0
 29 53  1  0
 30 54  1  0
 30 55  1  0
 31 56  1  0
 31 57  1  0
 32 58  1  0
 32 59  1  0
 32 60  1  0
 33 61  1  0
 33 62  1  0
 33 63  1  0
M  END
> <Uni-Dock RESULT> 
ENERGY=   -4.688  LOWER_BOUND=    7.087  UPPER_BOUND=    8.928
INTER + INTRA:          -4.688
INTER:                  -4.688
INTRA:                   0.000
UNBOUND:                 0.000

$$$$

     RDKit          3D

 63 65  0  0  0  0  0  0  0  0999 V2000
   44.9833    9.9017   11.8558 C   0  0  0  0  0  0  0  0  0  0  0  0
   43.8674   10.7194   11.4402 C   0  0  0  0  0  0  0  0  0  0  0  0
   44.0482   12.1100   11.2406 C   0  0  0  0  0  0  0  0  0  0  0  0
   46.2703   10.4847   12.0430 C   0  0  0  0  0  0  0  0  0  0  0  0
   46.4572   11.8615   11.7636 C   0  0  0  0  0  0  0  0  0  0  0  0
   45.7194    6.2258   12.7947 C   0  0  0  0  0  0  0  0  0  0  0  0
   45.3403   12.6391   11.4086 C   0  0  0  0  0  0  0  0  0  0  0  0
   44.8588    8.5071   12.1089 C   0  0  0  0  0  0  0  0  0  0  0  0
   42.9363   12.9203   10.8747 C   0  0  0  0  0  0  0  0  0  0  0  0
   45.9169    7.7032   12.5634 C   0  0  0  0  0  0  0  0  0  0  0  0
   41.6677   12.3805   10.6819 C   0  0  0  0  0  0  0  0  0  0  0  0
   47.3169    9.6603   12.5229 C   0  0  0  0  0  0  0  0  0  0  0  0
   42.5577   10.2104   11.2287 C   0  0  0  0  0  0  0  0  0  0  0  0
   41.4867   11.0232   10.8553 C   0  0  0  0  0  0  0  0  0  0  0  0
   47.7978   12.5902   11.8284 C   0  0  2  0  0  0  0  0  0  0  0  0
   48.8902   12.1104   10.8629 C   0  0  0  0  0  0  0  0  0  0  0  0
   47.1522    8.2986   12.7712 C   0  0  0  0  0  0  0  0  0  0  0  0
   45.9382    5.4934   11.6687 F   0  0  0  0  0  0  0  0  0  0  0  0
   46.5525    5.7153   13.7435 F   0  0  0  0  0  0  0  0  0  0  0  0
   44.4568    5.9163   13.2033 F   0  0  0  0  0  0  0  0  0  0  0  0
   43.0743   14.6374   10.6535 Cl  0  0  0  0  0  0  0  0  0  0  0  0
   48.5730   12.1596    9.3603 C   0  0  0  0  0  0  0  0  0  0  0  0
   48.5053   13.4533    8.6630 N   0  0  0  0  0  0  0  0  0  0  0  0
   39.9293   10.3309   10.6184 Cl  0  0  0  0  0  0  0  0  0  0  0  0
   48.3105   12.5292   13.1647 O   0  0  0  0  0  0  0  0  0  0  0  0
   49.6090   14.3771    8.9537 C   0  0  0  0  0  0  0  0  0  0  0  0
   47.1833   14.0852    8.7286 C   0  0  0  0  0  0  0  0  0  0  0  0
   51.0017   13.8470    8.5756 C   0  0  0  0  0  0  0  0  0  0  0  0
   46.9165   14.9999    7.5216 C   0  0  0  0  0  0  0  0  0  0  0  0
   51.1369   13.5387    7.0824 C   0  0  0  0  0  0  0  0  0  0  0  0
   45.4878   15.5525    7.4973 C   0  0  0  0  0  0  0  0  0  0  0  0
   52.5486   13.0934    6.7343 C   0  0  0  0  0  0  0  0  0  0  0  0
   44.4458   14.5108    7.1169 C   0  0  0  0  0  0  0  0  0  0  0  0
   45.4967   13.7052   11.2477 H   0  0  0  0  0  0  0  0  0  0  0  0
   43.9047    8.0040   11.9638 H   0  0  0  0  0  0  0  0  0  0  0  0
   40.8319   13.0149   10.4000 H   0  0  0  0  0  0  0  0  0  0  0  0
   48.2997   10.0728   12.7403 H   0  0  0  0  0  0  0  0  0  0  0  0
   42.3428    9.1529   11.3548 H   0  0  0  0  0  0  0  0  0  0  0  0
   47.6415   13.6582   11.6443 H   0  0  0  0  0  0  0  0  0  0  0  0
   49.8105   12.6681   11.0760 H   0  0  0  0  0  0  0  0  0  0  0  0
   49.1704   11.0777   11.0953 H   0  0  0  0  0  0  0  0  0  0  0  0
   47.9972    7.7148   13.1330 H   0  0  0  0  0  0  0  0  0  0  0  0
   49.3615   11.5820    8.8593 H   0  0  0  0  0  0  0  0  0  0  0  0
   47.6678   11.5735    9.1564 H   0  0  0  0  0  0  0  0  0  0  0  0
   47.5475   12.5042   13.7683 H   0  0  0  0  0  0  0  0  0  0  0  0
   49.4763   15.3096    8.3947 H   0  0  0  0  0  0  0  0  0  0  0  0
   49.6026   14.6652   10.0116 H   0  0  0  0  0  0  0  0  0  0  0  0
   47.0655   14.6547    9.6571 H   0  0  0  0  0  0  0  0  0  0  0  0
   46.4133   13.3074    8.7243 H   0  0  0  0  0  0  0  0  0  0  0  0
   51.2520   12.9571    9.1634 H   0  0  0  0  0  0  0  0  0  0  0  0
   51.7399   14.6107    8.8503 H   0  0  0  0  0  0  0  0  0  0  0  0
   47.1169   14.4599    6.5874 H   0  0  0  0  0  0  0  0  0  0  0  0
   47.5985   15.8574    7.5457 H   0  0  0  0  0  0  0  0  0  0  0  0
   50.4357   12.7494    6.7906 H   0  0  0  0  0  0  0  0  0  0  0  0
   50.8864   14.4291    6.4946 H   0  0  0  0  0  0  0  0  0  0  0  0
   45.2369   15.9914    8.4700 H   0  0  0  0  0  0  0  0  0  0  0  0
   45.4428   16.3648    6.7616 H   0  0  0  0  0  0  0  0  0  0  0  0
   52.8210   12.1873    7.2851 H   0  0  0  0  0  0  0  0  0  0  0  0
   53.2771   13.8747    6.9741 H   0  0  0  0  0  0  0  0  0  0  0  0
   52.6242   12.8763    5.6643 H   0  0  0  0  0  0  0  0  0  0  0  0
   43.4554   14.9738    7.0615 H   0  0  0  0  0  0  0  0  0  0  0  0
   44.6692   14.0741    6.1376 H   0  0  0  0  0  0  0  0  0  0  0  0
   44.3933   13.6998    7.8485 H   0  0  0  0  0  0  0  0  0  0  0  0
  2  1  2  0
  3  2  1  0
  4  1  1  0
  5  4  2  0
  6 10  1  0
  7  5  1  0
  8  1  1  0
  9  3  1  0
 10  8  2  0
 11 14  1  0
 12  4  1  0
 13  2  1  0
 14 13  2  0
 15  5  1  0
 16 15  1  0
 17 10  1  0
 18  6  1  0
 19  6  1  0
 20  6  1  0
 21  9  1  0
 22 16  1  0
 23 22  1  0
 24 14  1  0
 25 15  1  0
 26 23  1  0
 27 23  1  0
 28 26  1  0
 29 27  1  0
 30 28  1  0
 31 29  1  0
 32 30  1  0
 33 31  1  0
 17 12  2  0
  7  3  2  0
  9 11  2  0
  7 34  1  0
  8 35  1  0
 11 36  1  0
 12 37  1  0
 13 38  1  0
 15 39  1  6
 16 40  1  0
 16 41  1  0
 17 42  1  0
 22 43  1  0
 22 44  1  0
 25 45  1  0
 26 46  1  0
 26 47  1  0
 27 48  1  0
 27 49  1  0
 28 50  1  0
 28 51  1  0
 29 52  1  0
 29 53  1  0
 30 54  1  0
 30 55  1  0
 31 56  1  0
 31 57  1  0
 32 58  1  0
 32 59  1  0
 32 60  1  0
 33 61  1  0
 33 62  1  0
 33 63  1  0
M  END
> <Uni-Dock RESULT> 
ENERGY=   -4.462  LOWER_BOUND=    3.084  UPPER_BOUND=    4.425
INTER + INTRA:          -4.462
INTER:                  -4.462
INTRA:                   0.000
UNBOUND:                 0.000

$$$$
