
     RDKit          3D

 63 65  0  0  0  0  0  0  0  0999 V2000
   46.6495    8.3390   12.6536 C   0  0  0  0  0  0  0  0  0  0  0  0
   45.7957    9.3769   12.1235 C   0  0  0  0  0  0  0  0  0  0  0  0
   46.2858   10.7013   11.9995 C   0  0  0  0  0  0  0  0  0  0  0  0
   47.9852    8.6405   13.0459 C   0  0  0  0  0  0  0  0  0  0  0  0
   48.4701    9.9649   12.9037 C   0  0  0  0  0  0  0  0  0  0  0  0
   46.4886    4.5727   13.5011 C   0  0  0  0  0  0  0  0  0  0  0  0
   47.6104   10.9566   12.3968 C   0  0  0  0  0  0  0  0  0  0  0  0
   46.2149    6.9939   12.8160 C   0  0  0  0  0  0  0  0  0  0  0  0
   45.4361   11.7217   11.4867 C   0  0  0  0  0  0  0  0  0  0  0  0
   47.0280    5.9717   13.3334 C   0  0  0  0  0  0  0  0  0  0  0  0
   44.1260   11.4573   11.0965 C   0  0  0  0  0  0  0  0  0  0  0  0
   48.7867    7.5979   13.5749 C   0  0  0  0  0  0  0  0  0  0  0  0
   44.4551    9.1522   11.7107 C   0  0  0  0  0  0  0  0  0  0  0  0
   43.6422   10.1698   11.2098 C   0  0  0  0  0  0  0  0  0  0  0  0
   49.8841   10.3711   13.3180 C   0  0  2  0  0  0  0  0  0  0  0  0
   50.0251   10.6283   14.8261 C   0  0  0  0  0  0  0  0  0  0  0  0
   48.3214    6.2919   13.7210 C   0  0  0  0  0  0  0  0  0  0  0  0
   47.4616    3.6201   13.5337 F   0  0  0  0  0  0  0  0  0  0  0  0
   45.7815    4.4273   14.6549 F   0  0  0  0  0  0  0  0  0  0  0  0
   45.6446    4.2079   12.4961 F   0  0  0  0  0  0  0  0  0  0  0  0
   45.9656   13.3665   11.3068 Cl  0  0  0  0  0  0  0  0  0  0  0  0
   49.2932   11.8880   15.3155 C   0  0  0  0  0  0  0  0  0  0  0  0
   49.3833   12.0006   16.7903 N   0  0  0  0  0  0  0  0  0  0  0  0
   42.0278    9.8181   10.7311 Cl  0  0  0  0  0  0  0  0  0  0  0  0
   50.3412   11.5132   12.5906 O   0  0  0  0  0  0  0  0  0  0  0  0
   48.3271   11.1851   17.4282 C   0  0  0  0  0  0  0  0  0  0  0  0
   49.2738   13.4135   17.2099 C   0  0  0  0  0  0  0  0  0  0  0  0
   48.7348   10.7586   18.8453 C   0  0  0  0  0  0  0  0  0  0  0  0
   50.6213   14.1388   17.0773 C   0  0  0  0  0  0  0  0  0  0  0  0
   47.6592    9.9314   19.5568 C   0  0  0  0  0  0  0  0  0  0  0  0
   50.5435   15.6262   17.4350 C   0  0  0  0  0  0  0  0  0  0  0  0
   47.4041    8.5777   18.9137 C   0  0  0  0  0  0  0  0  0  0  0  0
   50.2018   15.8882   18.8934 C   0  0  0  0  0  0  0  0  0  0  0  0
   47.9980   11.9737   12.3282 H   0  0  0  0  0  0  0  0  0  0  0  0
   45.2034    6.7042   12.5373 H   0  0  0  0  0  0  0  0  0  0  0  0
   43.4928   12.2501   10.7081 H   0  0  0  0  0  0  0  0  0  0  0  0
   49.8084    7.7814   13.9003 H   0  0  0  0  0  0  0  0  0  0  0  0
   44.0102    8.1634   11.7732 H   0  0  0  0  0  0  0  0  0  0  0  0
   50.5780    9.5731   13.0320 H   0  0  0  0  0  0  0  0  0  0  0  0
   51.0924   10.7590   15.0515 H   0  0  0  0  0  0  0  0  0  0  0  0
   49.6954    9.7441   15.3818 H   0  0  0  0  0  0  0  0  0  0  0  0
   48.9797    5.5318   14.1397 H   0  0  0  0  0  0  0  0  0  0  0  0
   48.2426   11.8985   15.0030 H   0  0  0  0  0  0  0  0  0  0  0  0
   49.7648   12.7498   14.8300 H   0  0  0  0  0  0  0  0  0  0  0  0
   50.2517   11.2987   11.6455 H   0  0  0  0  0  0  0  0  0  0  0  0
   47.3706   11.7244   17.4431 H   0  0  0  0  0  0  0  0  0  0  0  0
   48.1538   10.2734   16.8463 H   0  0  0  0  0  0  0  0  0  0  0  0
   48.4925   13.9321   16.6392 H   0  0  0  0  0  0  0  0  0  0  0  0
   48.9748   13.4690   18.2616 H   0  0  0  0  0  0  0  0  0  0  0  0
   49.6677   10.1834   18.8044 H   0  0  0  0  0  0  0  0  0  0  0  0
   48.9388   11.6402   19.4631 H   0  0  0  0  0  0  0  0  0  0  0  0
   50.9973   14.0652   16.0507 H   0  0  0  0  0  0  0  0  0  0  0  0
   51.3660   13.6493   17.7178 H   0  0  0  0  0  0  0  0  0  0  0  0
   46.7218   10.4974   19.6013 H   0  0  0  0  0  0  0  0  0  0  0  0
   47.9787    9.7679   20.5926 H   0  0  0  0  0  0  0  0  0  0  0  0
   51.5164   16.0844   17.2195 H   0  0  0  0  0  0  0  0  0  0  0  0
   49.8090   16.1265   16.7933 H   0  0  0  0  0  0  0  0  0  0  0  0
   46.9501    8.6811   17.9239 H   0  0  0  0  0  0  0  0  0  0  0  0
   48.3333    8.0093   18.8110 H   0  0  0  0  0  0  0  0  0  0  0  0
   46.7158    7.9931   19.5332 H   0  0  0  0  0  0  0  0  0  0  0  0
   50.2794   16.9587   19.1097 H   0  0  0  0  0  0  0  0  0  0  0  0
   50.8873   15.3563   19.5606 H   0  0  0  0  0  0  0  0  0  0  0  0
   49.1792   15.5784   19.1277 H   0  0  0  0  0  0  0  0  0  0  0  0
  2  1  2  0
  3  2  1  0
  4  1  1  0
  5  4  2  0
  6 10  1  0
  7  5  1  0
  8  1  1  0
  9  3  1  0
 10  8  2  0
 11 14  1  0
 12  4  1  0
 13  2  1  0
 14 13  2  0
 15  5  1  0
 16 15  1  0
 17 10  1  0
 18  6  1  0
 19  6  1  0
 20  6  1  0
 21  9  1  0
 22 16  1  0
 23 22  1  0
 24 14  1  0
 25 15  1  0
 26 23  1  0
 27 23  1  0
 28 26  1  0
 29 27  1  0
 30 28  1  0
 31 29  1  0
 32 30  1  0
 33 31  1  0
 17 12  2  0
  7  3  2  0
  9 11  2  0
  7 34  1  0
  8 35  1  0
 11 36  1  0
 12 37  1  0
 13 38  1  0
 15 39  1  1
 16 40  1  0
 16 41  1  0
 17 42  1  0
 22 43  1  0
 22 44  1  0
 25 45  1  0
 26 46  1  0
 26 47  1  0
 27 48  1  0
 27 49  1  0
 28 50  1  0
 28 51  1  0
 29 52  1  0
 29 53  1  0
 30 54  1  0
 30 55  1  0
 31 56  1  0
 31 57  1  0
 32 58  1  0
 32 59  1  0
 32 60  1  0
 33 61  1  0
 33 62  1  0
 33 63  1  0
M  END
> <Uni-Dock RESULT> 
ENERGY=   -5.357  LOWER_BOUND=    0.000  UPPER_BOUND=    0.000
INTER + INTRA:          -5.357
INTER:                  -5.357
INTRA:                   0.000
UNBOUND:                 0.000

$$$$

     RDKit          3D

 63 65  0  0  0  0  0  0  0  0999 V2000
   48.6435   12.2616   16.1609 C   0  0  0  0  0  0  0  0  0  0  0  0
   48.1559   11.6634   17.3822 C   0  0  0  0  0  0  0  0  0  0  0  0
   48.0648   10.2530   17.4917 C   0  0  0  0  0  0  0  0  0  0  0  0
   49.0399   11.4384   15.0681 C   0  0  0  0  0  0  0  0  0  0  0  0
   48.9589   10.0287   15.1936 C   0  0  0  0  0  0  0  0  0  0  0  0
   49.2710   15.7727   14.6751 C   0  0  0  0  0  0  0  0  0  0  0  0
   48.4674    9.4764   16.3906 C   0  0  0  0  0  0  0  0  0  0  0  0
   48.7469   13.6693   15.9819 C   0  0  0  0  0  0  0  0  0  0  0  0
   47.5733    9.6700   18.6937 C   0  0  0  0  0  0  0  0  0  0  0  0
   49.2142   14.2703   14.8011 C   0  0  0  0  0  0  0  0  0  0  0  0
   47.1774   10.4489   19.7778 C   0  0  0  0  0  0  0  0  0  0  0  0
   49.4991   12.0636   13.8817 C   0  0  0  0  0  0  0  0  0  0  0  0
   47.7443   12.4183   18.5131 C   0  0  0  0  0  0  0  0  0  0  0  0
   47.2669   11.8227   19.6812 C   0  0  0  0  0  0  0  0  0  0  0  0
   49.3483    9.0793   14.0609 C   0  0  2  0  0  0  0  0  0  0  0  0
   48.2464    8.9105   13.0037 C   0  0  0  0  0  0  0  0  0  0  0  0
   49.5822   13.4485   13.7453 C   0  0  0  0  0  0  0  0  0  0  0  0
   50.1594   16.2017   13.7360 F   0  0  0  0  0  0  0  0  0  0  0  0
   48.0686   16.3070   14.3268 F   0  0  0  0  0  0  0  0  0  0  0  0
   49.6315   16.3870   15.8362 F   0  0  0  0  0  0  0  0  0  0  0  0
   47.4322    7.9510   18.9011 Cl  0  0  0  0  0  0  0  0  0  0  0  0
   47.0125    8.1436   13.5053 C   0  0  0  0  0  0  0  0  0  0  0  0
   45.9560    8.1239   12.4663 N   0  0  0  0  0  0  0  0  0  0  0  0
   46.7866   12.8060   21.0085 Cl  0  0  0  0  0  0  0  0  0  0  0  0
   49.7400    7.7972   14.5561 O   0  0  0  0  0  0  0  0  0  0  0  0
   45.1599    9.3688   12.5268 C   0  0  0  0  0  0  0  0  0  0  0  0
   45.0856    6.9414   12.6348 C   0  0  0  0  0  0  0  0  0  0  0  0
   44.5239    9.6878   11.1665 C   0  0  0  0  0  0  0  0  0  0  0  0
   45.7191    5.6908   12.0070 C   0  0  0  0  0  0  0  0  0  0  0  0
   43.6671   10.9577   11.1866 C   0  0  0  0  0  0  0  0  0  0  0  0
   44.8857    4.4227   12.2164 C   0  0  0  0  0  0  0  0  0  0  0  0
   44.4636   12.2287   11.4342 C   0  0  0  0  0  0  0  0  0  0  0  0
   43.5334    4.4571   11.5219 C   0  0  0  0  0  0  0  0  0  0  0  0
   48.3847    8.3905   16.4489 H   0  0  0  0  0  0  0  0  0  0  0  0
   48.4552   14.3492   16.7804 H   0  0  0  0  0  0  0  0  0  0  0  0
   46.8041    9.9850   20.6864 H   0  0  0  0  0  0  0  0  0  0  0  0
   49.8006   11.4782   13.0159 H   0  0  0  0  0  0  0  0  0  0  0  0
   47.7876   13.5035   18.5054 H   0  0  0  0  0  0  0  0  0  0  0  0
   50.2483    9.4662   13.5705 H   0  0  0  0  0  0  0  0  0  0  0  0
   48.6660    8.3442   12.1610 H   0  0  0  0  0  0  0  0  0  0  0  0
   47.9627    9.8918   12.6090 H   0  0  0  0  0  0  0  0  0  0  0  0
   49.9367   13.8746   12.8077 H   0  0  0  0  0  0  0  0  0  0  0  0
   46.6157    8.5692   14.4343 H   0  0  0  0  0  0  0  0  0  0  0  0
   47.3369    7.1259   13.7497 H   0  0  0  0  0  0  0  0  0  0  0  0
   50.4489    7.9513   15.2050 H   0  0  0  0  0  0  0  0  0  0  0  0
   44.3934    9.3065   13.3107 H   0  0  0  0  0  0  0  0  0  0  0  0
   45.8033   10.2133   12.7963 H   0  0  0  0  0  0  0  0  0  0  0  0
   44.8545    6.7729   13.6947 H   0  0  0  0  0  0  0  0  0  0  0  0
   44.1267    7.1087   12.1336 H   0  0  0  0  0  0  0  0  0  0  0  0
   45.3081    9.7904   10.4067 H   0  0  0  0  0  0  0  0  0  0  0  0
   43.8832    8.8596   10.8436 H   0  0  0  0  0  0  0  0  0  0  0  0
   46.7116    5.5080   12.4339 H   0  0  0  0  0  0  0  0  0  0  0  0
   45.8676    5.8550   10.9322 H   0  0  0  0  0  0  0  0  0  0  0  0
   42.8809   10.8655   11.9446 H   0  0  0  0  0  0  0  0  0  0  0  0
   43.1623   11.0486   10.2177 H   0  0  0  0  0  0  0  0  0  0  0  0
   45.4533    3.5685   11.8275 H   0  0  0  0  0  0  0  0  0  0  0  0
   44.7403    4.2443   13.2881 H   0  0  0  0  0  0  0  0  0  0  0  0
   44.8769   12.2542   12.4466 H   0  0  0  0  0  0  0  0  0  0  0  0
   45.2880   12.3219   10.7209 H   0  0  0  0  0  0  0  0  0  0  0  0
   43.8158   13.1042   11.3199 H   0  0  0  0  0  0  0  0  0  0  0  0
   43.0423    3.4825   11.6100 H   0  0  0  0  0  0  0  0  0  0  0  0
   43.6427    4.6873   10.4574 H   0  0  0  0  0  0  0  0  0  0  0  0
   42.8703    5.2016   11.9717 H   0  0  0  0  0  0  0  0  0  0  0  0
  2  1  2  0
  3  2  1  0
  4  1  1  0
  5  4  2  0
  6 10  1  0
  7  5  1  0
  8  1  1  0
  9  3  1  0
 10  8  2  0
 11 14  1  0
 12  4  1  0
 13  2  1  0
 14 13  2  0
 15  5  1  0
 16 15  1  0
 17 10  1  0
 18  6  1  0
 19  6  1  0
 20  6  1  0
 21  9  1  0
 22 16  1  0
 23 22  1  0
 24 14  1  0
 25 15  1  0
 26 23  1  0
 27 23  1  0
 28 26  1  0
 29 27  1  0
 30 28  1  0
 31 29  1  0
 32 30  1  0
 33 31  1  0
 17 12  2  0
  7  3  2  0
  9 11  2  0
  7 34  1  0
  8 35  1  0
 11 36  1  0
 12 37  1  0
 13 38  1  0
 15 39  1  1
 16 40  1  0
 16 41  1  0
 17 42  1  0
 22 43  1  0
 22 44  1  0
 25 45  1  0
 26 46  1  0
 26 47  1  0
 27 48  1  0
 27 49  1  0
 28 50  1  0
 28 51  1  0
 29 52  1  0
 29 53  1  0
 30 54  1  0
 30 55  1  0
 31 56  1  0
 31 57  1  0
 32 58  1  0
 32 59  1  0
 32 60  1  0
 33 61  1  0
 33 62  1  0
 33 63  1  0
M  END
> <Uni-Dock RESULT> 
ENERGY=   -5.227  LOWER_BOUND=    4.884  UPPER_BOUND=    8.696
INTER + INTRA:          -5.227
INTER:                  -5.227
INTRA:                   0.000
UNBOUND:                 0.000

$$$$

     RDKit          3D

 63 65  0  0  0  0  0  0  0  0999 V2000
   47.9161    6.3365   19.2239 C   0  0  0  0  0  0  0  0  0  0  0  0
   47.7779    6.7360   20.6053 C   0  0  0  0  0  0  0  0  0  0  0  0
   47.8738    8.1055   20.9586 C   0  0  0  0  0  0  0  0  0  0  0  0
   48.1417    7.3152   18.2139 C   0  0  0  0  0  0  0  0  0  0  0  0
   48.2210    8.6834   18.5760 C   0  0  0  0  0  0  0  0  0  0  0  0
   47.9169    3.1070   17.1026 C   0  0  0  0  0  0  0  0  0  0  0  0
   48.0957    9.0399   19.9313 C   0  0  0  0  0  0  0  0  0  0  0  0
   47.8434    4.9786   18.8051 C   0  0  0  0  0  0  0  0  0  0  0  0
   47.7477    8.4917   22.3228 C   0  0  0  0  0  0  0  0  0  0  0  0
   47.9794    4.5695   17.4679 C   0  0  0  0  0  0  0  0  0  0  0  0
   47.5282    7.5577   23.3318 C   0  0  0  0  0  0  0  0  0  0  0  0
   48.2863    6.8818   16.8720 C   0  0  0  0  0  0  0  0  0  0  0  0
   47.5505    5.8188   21.6661 C   0  0  0  0  0  0  0  0  0  0  0  0
   47.4292    6.2227   22.9962 C   0  0  0  0  0  0  0  0  0  0  0  0
   48.4782    9.7903   17.5539 C   0  0  2  0  0  0  0  0  0  0  0  0
   49.9617    9.9440   17.1852 C   0  0  0  0  0  0  0  0  0  0  0  0
   48.2117    5.5395   16.5031 C   0  0  0  0  0  0  0  0  0  0  0  0
   47.5766    2.8904   15.8017 F   0  0  0  0  0  0  0  0  0  0  0  0
   49.1090    2.4773   17.2891 F   0  0  0  0  0  0  0  0  0  0  0  0
   47.0080    2.4154   17.8449 F   0  0  0  0  0  0  0  0  0  0  0  0
   47.8550   10.1493   22.8317 Cl  0  0  0  0  0  0  0  0  0  0  0  0
   50.8328   10.5018   18.3221 C   0  0  0  0  0  0  0  0  0  0  0  0
   52.2604   10.5117   17.9249 N   0  0  0  0  0  0  0  0  0  0  0  0
   47.1550    5.0505   24.2250 Cl  0  0  0  0  0  0  0  0  0  0  0  0
   47.9591   11.0473   17.9931 O   0  0  0  0  0  0  0  0  0  0  0  0
   52.8644    9.1832   18.1649 C   0  0  0  0  0  0  0  0  0  0  0  0
   52.9966   11.5587   18.6640 C   0  0  0  0  0  0  0  0  0  0  0  0
   54.0644    8.9432   17.2381 C   0  0  0  0  0  0  0  0  0  0  0  0
   52.8104   12.9360   18.0099 C   0  0  0  0  0  0  0  0  0  0  0  0
   54.7397    7.5874   17.4682 C   0  0  0  0  0  0  0  0  0  0  0  0
   53.4986   14.0674   18.7799 C   0  0  0  0  0  0  0  0  0  0  0  0
   53.8616    6.3987   17.1115 C   0  0  0  0  0  0  0  0  0  0  0  0
   55.0144   13.9516   18.8134 C   0  0  0  0  0  0  0  0  0  0  0  0
   48.1932   10.0957   20.1866 H   0  0  0  0  0  0  0  0  0  0  0  0
   47.6764    4.1859   19.5321 H   0  0  0  0  0  0  0  0  0  0  0  0
   47.4355    7.8723   24.3675 H   0  0  0  0  0  0  0  0  0  0  0  0
   48.4727    7.5898   16.0675 H   0  0  0  0  0  0  0  0  0  0  0  0
   47.4629    4.7535   21.4735 H   0  0  0  0  0  0  0  0  0  0  0  0
   47.9119    9.5674   16.6430 H   0  0  0  0  0  0  0  0  0  0  0  0
   50.0328   10.6445   16.3419 H   0  0  0  0  0  0  0  0  0  0  0  0
   50.3526    8.9855   16.8278 H   0  0  0  0  0  0  0  0  0  0  0  0
   48.3367    5.2631   15.4570 H   0  0  0  0  0  0  0  0  0  0  0  0
   50.7068    9.9335   19.2509 H   0  0  0  0  0  0  0  0  0  0  0  0
   50.4812   11.5175   18.5354 H   0  0  0  0  0  0  0  0  0  0  0  0
   47.0176   10.9069   18.1963 H   0  0  0  0  0  0  0  0  0  0  0  0
   53.1556    9.0691   19.2176 H   0  0  0  0  0  0  0  0  0  0  0  0
   52.1303    8.3952   17.9648 H   0  0  0  0  0  0  0  0  0  0  0  0
   52.6917   11.5818   19.7183 H   0  0  0  0  0  0  0  0  0  0  0  0
   54.0686   11.3365   18.6583 H   0  0  0  0  0  0  0  0  0  0  0  0
   53.7440    9.0169   16.1918 H   0  0  0  0  0  0  0  0  0  0  0  0
   54.8213    9.7212   17.3881 H   0  0  0  0  0  0  0  0  0  0  0  0
   51.7459   13.1857   17.9375 H   0  0  0  0  0  0  0  0  0  0  0  0
   53.1948   12.9092   16.9824 H   0  0  0  0  0  0  0  0  0  0  0  0
   55.0621    7.5034   18.5122 H   0  0  0  0  0  0  0  0  0  0  0  0
   55.6464    7.5448   16.8533 H   0  0  0  0  0  0  0  0  0  0  0  0
   53.2344   15.0195   18.3038 H   0  0  0  0  0  0  0  0  0  0  0  0
   53.1137   14.1089   19.8054 H   0  0  0  0  0  0  0  0  0  0  0  0
   53.0078    6.3108   17.7896 H   0  0  0  0  0  0  0  0  0  0  0  0
   53.4840    6.4813   16.0879 H   0  0  0  0  0  0  0  0  0  0  0  0
   54.4392    5.4713   17.1860 H   0  0  0  0  0  0  0  0  0  0  0  0
   55.4483   14.8465   19.2713 H   0  0  0  0  0  0  0  0  0  0  0  0
   55.4247   13.8538   17.8035 H   0  0  0  0  0  0  0  0  0  0  0  0
   55.3379   13.0898   19.4044 H   0  0  0  0  0  0  0  0  0  0  0  0
  2  1  2  0
  3  2  1  0
  4  1  1  0
  5  4  2  0
  6 10  1  0
  7  5  1  0
  8  1  1  0
  9  3  1  0
 10  8  2  0
 11 14  1  0
 12  4  1  0
 13  2  1  0
 14 13  2  0
 15  5  1  0
 16 15  1  0
 17 10  1  0
 18  6  1  0
 19  6  1  0
 20  6  1  0
 21  9  1  0
 22 16  1  0
 23 22  1  0
 24 14  1  0
 25 15  1  0
 26 23  1  0
 27 23  1  0
 28 26  1  0
 29 27  1  0
 30 28  1  0
 31 29  1  0
 32 30  1  0
 33 31  1  0
 17 12  2  0
  7  3  2  0
  9 11  2  0
  7 34  1  0
  8 35  1  0
 11 36  1  0
 12 37  1  0
 13 38  1  0
 15 39  1  1
 16 40  1  0
 16 41  1  0
 17 42  1  0
 22 43  1  0
 22 44  1  0
 25 45  1  0
 26 46  1  0
 26 47  1  0
 27 48  1  0
 27 49  1  0
 28 50  1  0
 28 51  1  0
 29 52  1  0
 29 53  1  0
 30 54  1  0
 30 55  1  0
 31 56  1  0
 31 57  1  0
 32 58  1  0
 32 59  1  0
 32 60  1  0
 33 61  1  0
 33 62  1  0
 33 63  1  0
M  END
> <Uni-Dock RESULT> 
ENERGY=   -5.133  LOWER_BOUND=    5.319  UPPER_BOUND=    7.392
INTER + INTRA:          -5.133
INTER:                  -5.133
INTRA:                   0.000
UNBOUND:                 0.000

$$$$

     RDKit          3D

 63 65  0  0  0  0  0  0  0  0999 V2000
   44.9674   10.3059   11.8615 C   0  0  0  0  0  0  0  0  0  0  0  0
   45.7794    9.1584   12.1945 C   0  0  0  0  0  0  0  0  0  0  0  0
   47.1713    9.3160   12.4123 C   0  0  0  0  0  0  0  0  0  0  0  0
   45.5597   11.5972   11.7577 C   0  0  0  0  0  0  0  0  0  0  0  0
   46.9497   11.7461   11.9922 C   0  0  0  0  0  0  0  0  0  0  0  0
   41.2893   11.1367   11.0183 C   0  0  0  0  0  0  0  0  0  0  0  0
   47.7162   10.6076   12.3016 C   0  0  0  0  0  0  0  0  0  0  0  0
   43.5686   10.2136   11.6180 C   0  0  0  0  0  0  0  0  0  0  0  0
   47.9678    8.1797   12.7293 C   0  0  0  0  0  0  0  0  0  0  0  0
   42.7628   11.3164   11.2888 C   0  0  0  0  0  0  0  0  0  0  0  0
   47.4173    6.9052   12.8362 C   0  0  0  0  0  0  0  0  0  0  0  0
   44.7320   12.6956   11.4148 C   0  0  0  0  0  0  0  0  0  0  0  0
   45.2604    7.8416   12.3169 C   0  0  0  0  0  0  0  0  0  0  0  0
   46.0623    6.7436   12.6302 C   0  0  0  0  0  0  0  0  0  0  0  0
   47.6616   13.0942   11.8829 C   0  0  2  0  0  0  0  0  0  0  0  0
   48.0035   13.4853   10.4371 C   0  0  0  0  0  0  0  0  0  0  0  0
   43.3641   12.5623   11.1806 C   0  0  0  0  0  0  0  0  0  0  0  0
   40.5657   12.2769   11.1962 F   0  0  0  0  0  0  0  0  0  0  0  0
   41.0447   10.7316    9.7422 F   0  0  0  0  0  0  0  0  0  0  0  0
   40.7143   10.2017   11.8248 F   0  0  0  0  0  0  0  0  0  0  0  0
   49.6787    8.2945   13.0083 Cl  0  0  0  0  0  0  0  0  0  0  0  0
   49.0990   12.6173    9.7980 C   0  0  0  0  0  0  0  0  0  0  0  0
   49.2875   12.9841    8.3747 N   0  0  0  0  0  0  0  0  0  0  0  0
   45.3587    5.1792   12.7598 Cl  0  0  0  0  0  0  0  0  0  0  0  0
   48.8441   13.1347   12.6844 O   0  0  0  0  0  0  0  0  0  0  0  0
   48.2939   12.2830    7.5329 C   0  0  0  0  0  0  0  0  0  0  0  0
   50.6613   12.6627    7.9344 C   0  0  0  0  0  0  0  0  0  0  0  0
   48.0206   13.0568    6.2356 C   0  0  0  0  0  0  0  0  0  0  0  0
   51.6487   13.7657    8.3440 C   0  0  0  0  0  0  0  0  0  0  0  0
   47.0145   12.3549    5.3178 C   0  0  0  0  0  0  0  0  0  0  0  0
   53.0994   13.4458    7.9704 C   0  0  0  0  0  0  0  0  0  0  0  0
   45.6126   12.2693    5.8996 C   0  0  0  0  0  0  0  0  0  0  0  0
   53.3420   13.3649    6.4714 C   0  0  0  0  0  0  0  0  0  0  0  0
   48.7886   10.7449   12.4451 H   0  0  0  0  0  0  0  0  0  0  0  0
   43.0609    9.2527   11.6790 H   0  0  0  0  0  0  0  0  0  0  0  0
   48.0423    6.0503   13.0785 H   0  0  0  0  0  0  0  0  0  0  0  0
   45.1400   13.6986   11.3109 H   0  0  0  0  0  0  0  0  0  0  0  0
   44.2032    7.6424   12.1671 H   0  0  0  0  0  0  0  0  0  0  0  0
   47.0172   13.8688   12.3127 H   0  0  0  0  0  0  0  0  0  0  0  0
   48.3655   14.5226   10.4408 H   0  0  0  0  0  0  0  0  0  0  0  0
   47.0928   13.4755    9.8289 H   0  0  0  0  0  0  0  0  0  0  0  0
   42.7777   13.4405   10.9139 H   0  0  0  0  0  0  0  0  0  0  0  0
   48.8749   11.5476    9.8822 H   0  0  0  0  0  0  0  0  0  0  0  0
   50.0206   12.7819   10.3676 H   0  0  0  0  0  0  0  0  0  0  0  0
   48.5775   12.8999   13.5906 H   0  0  0  0  0  0  0  0  0  0  0  0
   48.6193   11.2572    7.3141 H   0  0  0  0  0  0  0  0  0  0  0  0
   47.3435   12.1931    8.0699 H   0  0  0  0  0  0  0  0  0  0  0  0
   50.9798   11.6875    8.3250 H   0  0  0  0  0  0  0  0  0  0  0  0
   50.6948   12.5829    6.8429 H   0  0  0  0  0  0  0  0  0  0  0  0
   47.6542   14.0624    6.4751 H   0  0  0  0  0  0  0  0  0  0  0  0
   48.9497   13.1898    5.6702 H   0  0  0  0  0  0  0  0  0  0  0  0
   51.6148   13.9282    9.4271 H   0  0  0  0  0  0  0  0  0  0  0  0
   51.3537   14.7141    7.8773 H   0  0  0  0  0  0  0  0  0  0  0  0
   47.3712   11.3478    5.0740 H   0  0  0  0  0  0  0  0  0  0  0  0
   46.9641   12.9093    4.3733 H   0  0  0  0  0  0  0  0  0  0  0  0
   53.7435   14.2314    8.3837 H   0  0  0  0  0  0  0  0  0  0  0  0
   53.4070   12.5046    8.4404 H   0  0  0  0  0  0  0  0  0  0  0  0
   45.5778   11.6091    6.7710 H   0  0  0  0  0  0  0  0  0  0  0  0
   45.2494   13.2571    6.1986 H   0  0  0  0  0  0  0  0  0  0  0  0
   44.9214   11.8660    5.1521 H   0  0  0  0  0  0  0  0  0  0  0  0
   54.4126   13.2537    6.2708 H   0  0  0  0  0  0  0  0  0  0  0  0
   52.9942   14.2715    5.9663 H   0  0  0  0  0  0  0  0  0  0  0  0
   52.8331   12.5039    6.0286 H   0  0  0  0  0  0  0  0  0  0  0  0
  2  1  2  0
  3  2  1  0
  4  1  1  0
  5  4  2  0
  6 10  1  0
  7  5  1  0
  8  1  1  0
  9  3  1  0
 10  8  2  0
 11 14  1  0
 12  4  1  0
 13  2  1  0
 14 13  2  0
 15  5  1  0
 16 15  1  0
 17 10  1  0
 18  6  1  0
 19  6  1  0
 20  6  1  0
 21  9  1  0
 22 16  1  0
 23 22  1  0
 24 14  1  0
 25 15  1  0
 26 23  1  0
 27 23  1  0
 28 26  1  0
 29 27  1  0
 30 28  1  0
 31 29  1  0
 32 30  1  0
 33 31  1  0
 17 12  2  0
  7  3  2  0
  9 11  2  0
  7 34  1  0
  8 35  1  0
 11 36  1  0
 12 37  1  0
 13 38  1  0
 15 39  1  1
 16 40  1  0
 16 41  1  0
 17 42  1  0
 22 43  1  0
 22 44  1  0
 25 45  1  0
 26 46  1  0
 26 47  1  0
 27 48  1  0
 27 49  1  0
 28 50  1  0
 28 51  1  0
 29 52  1  0
 29 53  1  0
 30 54  1  0
 30 55  1  0
 31 56  1  0
 31 57  1  0
 32 58  1  0
 32 59  1  0
 32 60  1  0
 33 61  1  0
 33 62  1  0
 33 63  1  0
M  END
> <Uni-Dock RESULT> 
ENERGY=   -4.822  LOWER_BOUND=    4.803  UPPER_BOUND=    7.742
INTER + INTRA:          -4.822
INTER:                  -4.822
INTRA:                   0.000
UNBOUND:                 0.000

$$$$

     RDKit          3D

 63 65  0  0  0  0  0  0  0  0999 V2000
   46.8205   13.0860    9.7899 C   0  0  0  0  0  0  0  0  0  0  0  0
   46.4747   12.7702    8.4233 C   0  0  0  0  0  0  0  0  0  0  0  0
   45.3567   11.9427    8.1496 C   0  0  0  0  0  0  0  0  0  0  0  0
   46.0373   12.5742   10.8640 C   0  0  0  0  0  0  0  0  0  0  0  0
   44.9125   11.7600   10.5787 C   0  0  0  0  0  0  0  0  0  0  0  0
   49.5065   15.0617   11.7421 C   0  0  0  0  0  0  0  0  0  0  0  0
   44.6092   11.4592    9.2382 C   0  0  0  0  0  0  0  0  0  0  0  0
   47.9368   13.8990   10.1325 C   0  0  0  0  0  0  0  0  0  0  0  0
   45.0277   11.6262    6.8014 C   0  0  0  0  0  0  0  0  0  0  0  0
   48.2919   14.2140   11.4549 C   0  0  0  0  0  0  0  0  0  0  0  0
   45.7752   12.1106    5.7313 C   0  0  0  0  0  0  0  0  0  0  0  0
   46.4175   12.8949   12.1914 C   0  0  0  0  0  0  0  0  0  0  0  0
   47.2064   13.2441    7.3015 C   0  0  0  0  0  0  0  0  0  0  0  0
   46.8627   12.9204    5.9885 C   0  0  0  0  0  0  0  0  0  0  0  0
   44.0338   11.1591   11.6755 C   0  0  2  0  0  0  0  0  0  0  0  0
   44.6253    9.8851   12.2980 C   0  0  0  0  0  0  0  0  0  0  0  0
   47.5220   13.6933   12.4852 C   0  0  0  0  0  0  0  0  0  0  0  0
   49.4587   15.6785   12.9556 F   0  0  0  0  0  0  0  0  0  0  0  0
   50.6568   14.3342   11.7354 F   0  0  0  0  0  0  0  0  0  0  0  0
   49.6861   16.0547   10.8272 F   0  0  0  0  0  0  0  0  0  0  0  0
   43.6741   10.6184    6.3887 Cl  0  0  0  0  0  0  0  0  0  0  0  0
   44.6358    8.6746   11.3510 C   0  0  0  0  0  0  0  0  0  0  0  0
   45.3221    7.5249   11.9860 N   0  0  0  0  0  0  0  0  0  0  0  0
   47.7997   13.5336    4.6826 Cl  0  0  0  0  0  0  0  0  0  0  0  0
   42.7095   10.8955   11.2076 O   0  0  0  0  0  0  0  0  0  0  0  0
   46.7846    7.6378   11.7967 C   0  0  0  0  0  0  0  0  0  0  0  0
   44.8225    6.2507   11.4282 C   0  0  0  0  0  0  0  0  0  0  0  0
   47.5466    6.8959   12.9037 C   0  0  0  0  0  0  0  0  0  0  0  0
   43.5064    5.8286   12.0983 C   0  0  0  0  0  0  0  0  0  0  0  0
   49.0679    6.9637   12.7353 C   0  0  0  0  0  0  0  0  0  0  0  0
   42.9114    4.5476   11.5055 C   0  0  0  0  0  0  0  0  0  0  0  0
   49.6378    8.3649   12.8865 C   0  0  0  0  0  0  0  0  0  0  0  0
   43.7720    3.3135   11.7262 C   0  0  0  0  0  0  0  0  0  0  0  0
   43.7582   10.8042    9.0480 H   0  0  0  0  0  0  0  0  0  0  0  0
   48.5745   14.3155    9.3549 H   0  0  0  0  0  0  0  0  0  0  0  0
   45.5083   11.8570    4.7092 H   0  0  0  0  0  0  0  0  0  0  0  0
   45.8589   12.5174   13.0450 H   0  0  0  0  0  0  0  0  0  0  0  0
   48.0737   13.8849    7.4313 H   0  0  0  0  0  0  0  0  0  0  0  0
   43.8977   11.9050   12.4661 H   0  0  0  0  0  0  0  0  0  0  0  0
   44.0135    9.6158   13.1699 H   0  0  0  0  0  0  0  0  0  0  0  0
   45.6315   10.0941   12.6762 H   0  0  0  0  0  0  0  0  0  0  0  0
   47.7713   13.9020   13.5247 H   0  0  0  0  0  0  0  0  0  0  0  0
   45.1100    8.9099   10.3912 H   0  0  0  0  0  0  0  0  0  0  0  0
   43.5926    8.4279   11.1239 H   0  0  0  0  0  0  0  0  0  0  0  0
   42.3696   11.7307   10.8410 H   0  0  0  0  0  0  0  0  0  0  0  0
   47.0813    7.2704   10.8053 H   0  0  0  0  0  0  0  0  0  0  0  0
   47.0881    8.6896   11.8352 H   0  0  0  0  0  0  0  0  0  0  0  0
   44.7024    6.3202   10.3392 H   0  0  0  0  0  0  0  0  0  0  0  0
   45.5510    5.4532   11.6073 H   0  0  0  0  0  0  0  0  0  0  0  0
   47.2705    7.3072   13.8822 H   0  0  0  0  0  0  0  0  0  0  0  0
   47.2606    5.8383   12.9180 H   0  0  0  0  0  0  0  0  0  0  0  0
   42.7542    6.6191   11.9985 H   0  0  0  0  0  0  0  0  0  0  0  0
   43.6709    5.6890   13.1743 H   0  0  0  0  0  0  0  0  0  0  0  0
   49.3538    6.5561   11.7590 H   0  0  0  0  0  0  0  0  0  0  0  0
   49.5279    6.3191   13.4934 H   0  0  0  0  0  0  0  0  0  0  0  0
   41.9326    4.3748   11.9692 H   0  0  0  0  0  0  0  0  0  0  0  0
   42.7338    4.6805   10.4320 H   0  0  0  0  0  0  0  0  0  0  0  0
   49.3202    9.0192   12.0695 H   0  0  0  0  0  0  0  0  0  0  0  0
   49.3266    8.8165   13.8331 H   0  0  0  0  0  0  0  0  0  0  0  0
   50.7322    8.3270   12.8726 H   0  0  0  0  0  0  0  0  0  0  0  0
   43.2385    2.4195   11.3872 H   0  0  0  0  0  0  0  0  0  0  0  0
   44.0116    3.1845   12.7863 H   0  0  0  0  0  0  0  0  0  0  0  0
   44.7081    3.3714   11.1633 H   0  0  0  0  0  0  0  0  0  0  0  0
  2  1  2  0
  3  2  1  0
  4  1  1  0
  5  4  2  0
  6 10  1  0
  7  5  1  0
  8  1  1  0
  9  3  1  0
 10  8  2  0
 11 14  1  0
 12  4  1  0
 13  2  1  0
 14 13  2  0
 15  5  1  0
 16 15  1  0
 17 10  1  0
 18  6  1  0
 19  6  1  0
 20  6  1  0
 21  9  1  0
 22 16  1  0
 23 22  1  0
 24 14  1  0
 25 15  1  0
 26 23  1  0
 27 23  1  0
 28 26  1  0
 29 27  1  0
 30 28  1  0
 31 29  1  0
 32 30  1  0
 33 31  1  0
 17 12  2  0
  7  3  2  0
  9 11  2  0
  7 34  1  0
  8 35  1  0
 11 36  1  0
 12 37  1  0
 13 38  1  0
 15 39  1  1
 16 40  1  0
 16 41  1  0
 17 42  1  0
 22 43  1  0
 22 44  1  0
 25 45  1  0
 26 46  1  0
 26 47  1  0
 27 48  1  0
 27 49  1  0
 28 50  1  0
 28 51  1  0
 29 52  1  0
 29 53  1  0
 30 54  1  0
 30 55  1  0
 31 56  1  0
 31 57  1  0
 32 58  1  0
 32 59  1  0
 32 60  1  0
 33 61  1  0
 33 62  1  0
 33 63  1  0
M  END
> <Uni-Dock RESULT> 
ENERGY=   -4.624  LOWER_BOUND=    5.316  UPPER_BOUND=    8.424
INTER + INTRA:          -4.624
INTER:                  -4.624
INTRA:                   0.000
UNBOUND:                 0.000

$$$$

     RDKit          3D

 63 65  0  0  0  0  0  0  0  0999 V2000
   49.0449    6.2333   16.8699 C   0  0  0  0  0  0  0  0  0  0  0  0
   48.4960    6.1397   15.5369 C   0  0  0  0  0  0  0  0  0  0  0  0
   48.9070    7.0564   14.5367 C   0  0  0  0  0  0  0  0  0  0  0  0
   50.0036    7.2398   17.1813 C   0  0  0  0  0  0  0  0  0  0  0  0
   50.4189    8.1419   16.1697 C   0  0  0  0  0  0  0  0  0  0  0  0
   48.7126    4.4784   20.2962 C   0  0  0  0  0  0  0  0  0  0  0  0
   49.8563    8.0338   14.8848 C   0  0  0  0  0  0  0  0  0  0  0  0
   48.6649    5.3535   17.9216 C   0  0  0  0  0  0  0  0  0  0  0  0
   48.3543    6.9659   13.2281 C   0  0  0  0  0  0  0  0  0  0  0  0
   49.1836    5.4308   19.2250 C   0  0  0  0  0  0  0  0  0  0  0  0
   47.4148    5.9938   12.8947 C   0  0  0  0  0  0  0  0  0  0  0  0
   50.5077    7.3079   18.5043 C   0  0  0  0  0  0  0  0  0  0  0  0
   47.5385    5.1634   15.1517 C   0  0  0  0  0  0  0  0  0  0  0  0
   47.0124    5.0946   13.8612 C   0  0  0  0  0  0  0  0  0  0  0  0
   51.4292    9.2590   16.4294 C   0  0  2  0  0  0  0  0  0  0  0  0
   50.8072   10.4997   17.0883 C   0  0  0  0  0  0  0  0  0  0  0  0
   50.1064    6.4277   19.5082 C   0  0  0  0  0  0  0  0  0  0  0  0
   49.6015    4.3343   21.3181 F   0  0  0  0  0  0  0  0  0  0  0  0
   47.5450    4.8815   20.8678 F   0  0  0  0  0  0  0  0  0  0  0  0
   48.4835    3.2220   19.8225 F   0  0  0  0  0  0  0  0  0  0  0  0
   48.8082    8.0536   11.9518 Cl  0  0  0  0  0  0  0  0  0  0  0  0
   49.8581   11.2848   16.1691 C   0  0  0  0  0  0  0  0  0  0  0  0
   49.2161   12.3947   16.9121 N   0  0  0  0  0  0  0  0  0  0  0  0
   45.8551    3.8828   13.4723 Cl  0  0  0  0  0  0  0  0  0  0  0  0
   52.1142    9.6413   15.2349 O   0  0  0  0  0  0  0  0  0  0  0  0
   48.0325   11.8975   17.6464 C   0  0  0  0  0  0  0  0  0  0  0  0
   48.8354   13.4843   15.9890 C   0  0  0  0  0  0  0  0  0  0  0  0
   47.7270   12.7765   18.8673 C   0  0  0  0  0  0  0  0  0  0  0  0
   50.0339   14.3931   15.6774 C   0  0  0  0  0  0  0  0  0  0  0  0
   46.4914   12.3144   19.6465 C   0  0  0  0  0  0  0  0  0  0  0  0
   49.7065   15.4986   14.6689 C   0  0  0  0  0  0  0  0  0  0  0  0
   46.6587   10.9558   20.3078 C   0  0  0  0  0  0  0  0  0  0  0  0
   48.6868   16.5068   15.1751 C   0  0  0  0  0  0  0  0  0  0  0  0
   50.1688    8.7606   14.1341 H   0  0  0  0  0  0  0  0  0  0  0  0
   47.9336    4.5669   17.7448 H   0  0  0  0  0  0  0  0  0  0  0  0
   47.0041    5.9416   11.8903 H   0  0  0  0  0  0  0  0  0  0  0  0
   51.2314    8.0666   18.7939 H   0  0  0  0  0  0  0  0  0  0  0  0
   47.1772    4.4256   15.8622 H   0  0  0  0  0  0  0  0  0  0  0  0
   52.2198    8.8742   17.0830 H   0  0  0  0  0  0  0  0  0  0  0  0
   51.6222   11.1777   17.3765 H   0  0  0  0  0  0  0  0  0  0  0  0
   50.3016   10.2088   18.0151 H   0  0  0  0  0  0  0  0  0  0  0  0
   50.5225    6.5307   20.5095 H   0  0  0  0  0  0  0  0  0  0  0  0
   49.0916   10.6394   15.7247 H   0  0  0  0  0  0  0  0  0  0  0  0
   50.4549   11.6693   15.3344 H   0  0  0  0  0  0  0  0  0  0  0  0
   52.5062    8.8311   14.8642 H   0  0  0  0  0  0  0  0  0  0  0  0
   47.1589   11.8324   16.9842 H   0  0  0  0  0  0  0  0  0  0  0  0
   48.2158   10.8805   18.0097 H   0  0  0  0  0  0  0  0  0  0  0  0
   48.3995   13.0811   15.0656 H   0  0  0  0  0  0  0  0  0  0  0  0
   48.0619   14.1091   16.4472 H   0  0  0  0  0  0  0  0  0  0  0  0
   48.5947   12.7925   19.5379 H   0  0  0  0  0  0  0  0  0  0  0  0
   47.5548   13.8127   18.5553 H   0  0  0  0  0  0  0  0  0  0  0  0
   50.8635   13.8067   15.2668 H   0  0  0  0  0  0  0  0  0  0  0  0
   50.4023   14.8460   16.6066 H   0  0  0  0  0  0  0  0  0  0  0  0
   45.6187   12.2935   18.9840 H   0  0  0  0  0  0  0  0  0  0  0  0
   46.2783   13.0551   20.4261 H   0  0  0  0  0  0  0  0  0  0  0  0
   50.6336   16.0338   14.4302 H   0  0  0  0  0  0  0  0  0  0  0  0
   49.3469   15.0556   13.7330 H   0  0  0  0  0  0  0  0  0  0  0  0
   46.7355   10.1542   19.5676 H   0  0  0  0  0  0  0  0  0  0  0  0
   47.5526   10.9321   20.9382 H   0  0  0  0  0  0  0  0  0  0  0  0
   45.7917   10.7386   20.9407 H   0  0  0  0  0  0  0  0  0  0  0  0
   48.5877   17.3303   14.4604 H   0  0  0  0  0  0  0  0  0  0  0  0
   48.9931   16.9277   16.1379 H   0  0  0  0  0  0  0  0  0  0  0  0
   47.6986   16.0529   15.2933 H   0  0  0  0  0  0  0  0  0  0  0  0
  2  1  2  0
  3  2  1  0
  4  1  1  0
  5  4  2  0
  6 10  1  0
  7  5  1  0
  8  1  1  0
  9  3  1  0
 10  8  2  0
 11 14  1  0
 12  4  1  0
 13  2  1  0
 14 13  2  0
 15  5  1  0
 16 15  1  0
 17 10  1  0
 18  6  1  0
 19  6  1  0
 20  6  1  0
 21  9  1  0
 22 16  1  0
 23 22  1  0
 24 14  1  0
 25 15  1  0
 26 23  1  0
 27 23  1  0
 28 26  1  0
 29 27  1  0
 30 28  1  0
 31 29  1  0
 32 30  1  0
 33 31  1  0
 17 12  2  0
  7  3  2  0
  9 11  2  0
  7 34  1  0
  8 35  1  0
 11 36  1  0
 12 37  1  0
 13 38  1  0
 15 39  1  1
 16 40  1  0
 16 41  1  0
 17 42  1  0
 22 43  1  0
 22 44  1  0
 25 45  1  0
 26 46  1  0
 26 47  1  0
 27 48  1  0
 27 49  1  0
 28 50  1  0
 28 51  1  0
 29 52  1  0
 29 53  1  0
 30 54  1  0
 30 55  1  0
 31 56  1  0
 31 57  1  0
 32 58  1  0
 32 59  1  0
 32 60  1  0
 33 61  1  0
 33 62  1  0
 33 63  1  0
M  END
> <Uni-Dock RESULT> 
ENERGY=   -4.618  LOWER_BOUND=    3.860  UPPER_BOUND=    5.052
INTER + INTRA:          -4.618
INTER:                  -4.618
INTRA:                   0.000
UNBOUND:                 0.000

$$$$

     RDKit          3D

 63 65  0  0  0  0  0  0  0  0999 V2000
   48.2521    8.3970   17.9718 C   0  0  0  0  0  0  0  0  0  0  0  0
   48.0776    7.7308   19.2417 C   0  0  0  0  0  0  0  0  0  0  0  0
   47.6689    8.4719   20.3790 C   0  0  0  0  0  0  0  0  0  0  0  0
   48.0081    9.7957   17.8566 C   0  0  0  0  0  0  0  0  0  0  0  0
   47.5852   10.5244   18.9965 C   0  0  0  0  0  0  0  0  0  0  0  0
   49.3266    7.5588   14.3562 C   0  0  0  0  0  0  0  0  0  0  0  0
   47.4371    9.8501   20.2224 C   0  0  0  0  0  0  0  0  0  0  0  0
   48.6728    7.7141   16.7965 C   0  0  0  0  0  0  0  0  0  0  0  0
   47.5093    7.8118   21.6299 C   0  0  0  0  0  0  0  0  0  0  0  0
   48.8523    8.3445   15.5538 C   0  0  0  0  0  0  0  0  0  0  0  0
   47.7417    6.4464   21.7733 C   0  0  0  0  0  0  0  0  0  0  0  0
   48.2045   10.4153   16.5969 C   0  0  0  0  0  0  0  0  0  0  0  0
   48.3003    6.3409   19.4332 C   0  0  0  0  0  0  0  0  0  0  0  0
   48.1357    5.7166   20.6702 C   0  0  0  0  0  0  0  0  0  0  0  0
   47.3203   12.0292   18.9579 C   0  0  2  0  0  0  0  0  0  0  0  0
   48.5992   12.8741   19.0628 C   0  0  0  0  0  0  0  0  0  0  0  0
   48.6213    9.7101   15.4688 C   0  0  0  0  0  0  0  0  0  0  0  0
   48.9966    8.1364   13.1676 F   0  0  0  0  0  0  0  0  0  0  0  0
   50.6794    7.4105   14.3393 F   0  0  0  0  0  0  0  0  0  0  0  0
   48.8111    6.2988   14.3131 F   0  0  0  0  0  0  0  0  0  0  0  0
   47.0126    8.6532   23.0664 Cl  0  0  0  0  0  0  0  0  0  0  0  0
   49.2747   12.8154   20.4421 C   0  0  0  0  0  0  0  0  0  0  0  0
   50.5550   13.5614   20.4251 N   0  0  0  0  0  0  0  0  0  0  0  0
   48.4258    4.0278   20.8219 Cl  0  0  0  0  0  0  0  0  0  0  0  0
   46.3950   12.4299   19.9706 O   0  0  0  0  0  0  0  0  0  0  0  0
   51.6378   12.7016   19.9003 C   0  0  0  0  0  0  0  0  0  0  0  0
   50.8886   14.0489   21.7799 C   0  0  0  0  0  0  0  0  0  0  0  0
   52.7636   13.5420   19.2816 C   0  0  0  0  0  0  0  0  0  0  0  0
   50.1401   15.3509   22.1022 C   0  0  0  0  0  0  0  0  0  0  0  0
   53.9218   12.6940   18.7461 C   0  0  0  0  0  0  0  0  0  0  0  0
   50.3997   15.8599   23.5235 C   0  0  0  0  0  0  0  0  0  0  0  0
   53.5409   11.8145   17.5661 C   0  0  0  0  0  0  0  0  0  0  0  0
   51.8422   16.2714   23.7726 C   0  0  0  0  0  0  0  0  0  0  0  0
   47.1423   10.4403   21.0908 H   0  0  0  0  0  0  0  0  0  0  0  0
   48.8780    6.6455   16.8238 H   0  0  0  0  0  0  0  0  0  0  0  0
   47.6151    5.9610   22.7369 H   0  0  0  0  0  0  0  0  0  0  0  0
   48.0437   11.4826   16.4620 H   0  0  0  0  0  0  0  0  0  0  0  0
   48.6127    5.7070   18.6085 H   0  0  0  0  0  0  0  0  0  0  0  0
   46.8146   12.2740   18.0175 H   0  0  0  0  0  0  0  0  0  0  0  0
   48.3321   13.9224   18.8712 H   0  0  0  0  0  0  0  0  0  0  0  0
   49.2985   12.5815   18.2725 H   0  0  0  0  0  0  0  0  0  0  0  0
   48.7621   10.2394   14.5274 H   0  0  0  0  0  0  0  0  0  0  0  0
   49.4471   11.7837   20.7699 H   0  0  0  0  0  0  0  0  0  0  0  0
   48.5786   13.2535   21.1661 H   0  0  0  0  0  0  0  0  0  0  0  0
   45.5974   11.8843   19.8541 H   0  0  0  0  0  0  0  0  0  0  0  0
   52.0300   12.0416   20.6855 H   0  0  0  0  0  0  0  0  0  0  0  0
   51.2481   12.0437   19.1160 H   0  0  0  0  0  0  0  0  0  0  0  0
   50.6797   13.2802   22.5353 H   0  0  0  0  0  0  0  0  0  0  0  0
   51.9603   14.2629   21.8467 H   0  0  0  0  0  0  0  0  0  0  0  0
   52.3605   14.1603   18.4705 H   0  0  0  0  0  0  0  0  0  0  0  0
   53.1743   14.2331   20.0262 H   0  0  0  0  0  0  0  0  0  0  0  0
   49.0590   15.2087   21.9946 H   0  0  0  0  0  0  0  0  0  0  0  0
   50.4257   16.1266   21.3804 H   0  0  0  0  0  0  0  0  0  0  0  0
   54.3306   12.0707   19.5495 H   0  0  0  0  0  0  0  0  0  0  0  0
   54.7259   13.3687   18.4297 H   0  0  0  0  0  0  0  0  0  0  0  0
   49.7557   16.7297   23.7016 H   0  0  0  0  0  0  0  0  0  0  0  0
   50.1078   15.0955   24.2528 H   0  0  0  0  0  0  0  0  0  0  0  0
   52.8404   11.0275   17.8598 H   0  0  0  0  0  0  0  0  0  0  0  0
   53.0834   12.4049   16.7665 H   0  0  0  0  0  0  0  0  0  0  0  0
   54.4333   11.3271   17.1594 H   0  0  0  0  0  0  0  0  0  0  0  0
   51.9342   16.7344   24.7605 H   0  0  0  0  0  0  0  0  0  0  0  0
   52.1801   16.9960   23.0251 H   0  0  0  0  0  0  0  0  0  0  0  0
   52.5150   15.4092   23.7493 H   0  0  0  0  0  0  0  0  0  0  0  0
  2  1  2  0
  3  2  1  0
  4  1  1  0
  5  4  2  0
  6 10  1  0
  7  5  1  0
  8  1  1  0
  9  3  1  0
 10  8  2  0
 11 14  1  0
 12  4  1  0
 13  2  1  0
 14 13  2  0
 15  5  1  0
 16 15  1  0
 17 10  1  0
 18  6  1  0
 19  6  1  0
 20  6  1  0
 21  9  1  0
 22 16  1  0
 23 22  1  0
 24 14  1  0
 25 15  1  0
 26 23  1  0
 27 23  1  0
 28 26  1  0
 29 27  1  0
 30 28  1  0
 31 29  1  0
 32 30  1  0
 33 31  1  0
 17 12  2  0
  7  3  2  0
  9 11  2  0
  7 34  1  0
  8 35  1  0
 11 36  1  0
 12 37  1  0
 13 38  1  0
 15 39  1  1
 16 40  1  0
 16 41  1  0
 17 42  1  0
 22 43  1  0
 22 44  1  0
 25 45  1  0
 26 46  1  0
 26 47  1  0
 27 48  1  0
 27 49  1  0
 28 50  1  0
 28 51  1  0
 29 52  1  0
 29 53  1  0
 30 54  1  0
 30 55  1  0
 31 56  1  0
 31 57  1  0
 32 58  1  0
 32 59  1  0
 32 60  1  0
 33 61  1  0
 33 62  1  0
 33 63  1  0
M  END
> <Uni-Dock RESULT> 
ENERGY=   -4.601  LOWER_BOUND=    4.875  UPPER_BOUND=    7.204
INTER + INTRA:          -4.601
INTER:                  -4.601
INTRA:                   0.000
UNBOUND:                 0.000

$$$$

     RDKit          3D

 63 65  0  0  0  0  0  0  0  0999 V2000
   48.3150    7.8294   18.7606 C   0  0  0  0  0  0  0  0  0  0  0  0
   48.1800    9.2484   18.9958 C   0  0  0  0  0  0  0  0  0  0  0  0
   48.1417   10.1465   17.8996 C   0  0  0  0  0  0  0  0  0  0  0  0
   48.4030    7.3285   17.4301 C   0  0  0  0  0  0  0  0  0  0  0  0
   48.3486    8.2339   16.3407 C   0  0  0  0  0  0  0  0  0  0  0  0
   48.5891    4.5464   20.7797 C   0  0  0  0  0  0  0  0  0  0  0  0
   48.2302    9.6112   16.6022 C   0  0  0  0  0  0  0  0  0  0  0  0
   48.3729    6.8770   19.8162 C   0  0  0  0  0  0  0  0  0  0  0  0
   48.0196   11.5444   18.1383 C   0  0  0  0  0  0  0  0  0  0  0  0
   48.5082    5.4941   19.6084 C   0  0  0  0  0  0  0  0  0  0  0  0
   47.9329   12.0633   19.4275 C   0  0  0  0  0  0  0  0  0  0  0  0
   48.5492    5.9313   17.2413 C   0  0  0  0  0  0  0  0  0  0  0  0
   48.0853    9.8211   20.2924 C   0  0  0  0  0  0  0  0  0  0  0  0
   47.9649   11.1956   20.5001 C   0  0  0  0  0  0  0  0  0  0  0  0
   48.4541    7.7765   14.8862 C   0  0  2  0  0  0  0  0  0  0  0  0
   49.9003    7.5296   14.4303 C   0  0  0  0  0  0  0  0  0  0  0  0
   48.6052    5.0307   18.3041 C   0  0  0  0  0  0  0  0  0  0  0  0
   48.2318    3.2701   20.4660 F   0  0  0  0  0  0  0  0  0  0  0  0
   49.8466    4.4689   21.2946 F   0  0  0  0  0  0  0  0  0  0  0  0
   47.7829    4.9148   21.8140 F   0  0  0  0  0  0  0  0  0  0  0  0
   47.9672   12.7052   16.8467 Cl  0  0  0  0  0  0  0  0  0  0  0  0
   50.7437    8.8087   14.3095 C   0  0  0  0  0  0  0  0  0  0  0  0
   52.1487    8.4746   13.9774 N   0  0  0  0  0  0  0  0  0  0  0  0
   47.8563   11.8127   22.1022 Cl  0  0  0  0  0  0  0  0  0  0  0  0
   47.8193    8.6958   13.9949 O   0  0  0  0  0  0  0  0  0  0  0  0
   52.8973    8.1426   15.2089 C   0  0  0  0  0  0  0  0  0  0  0  0
   52.7934    9.5968   13.2636 C   0  0  0  0  0  0  0  0  0  0  0  0
   54.0854    7.2194   14.9045 C   0  0  0  0  0  0  0  0  0  0  0  0
   52.4415    9.5802   11.7686 C   0  0  0  0  0  0  0  0  0  0  0  0
   54.9075    6.8678   16.1487 C   0  0  0  0  0  0  0  0  0  0  0  0
   53.0305   10.7652   10.9971 C   0  0  0  0  0  0  0  0  0  0  0  0
   54.1491    6.0307   17.1660 C   0  0  0  0  0  0  0  0  0  0  0  0
   54.5504   10.7702   10.9494 C   0  0  0  0  0  0  0  0  0  0  0  0
   48.2235   10.2886   15.7475 H   0  0  0  0  0  0  0  0  0  0  0  0
   48.3144    7.2003   20.8539 H   0  0  0  0  0  0  0  0  0  0  0  0
   47.8409   13.1336   19.5889 H   0  0  0  0  0  0  0  0  0  0  0  0
   48.6335    5.5023   16.2453 H   0  0  0  0  0  0  0  0  0  0  0  0
   48.1048    9.1967   21.1809 H   0  0  0  0  0  0  0  0  0  0  0  0
   47.8854    6.8479   14.7667 H   0  0  0  0  0  0  0  0  0  0  0  0
   49.8696    7.0604   13.4373 H   0  0  0  0  0  0  0  0  0  0  0  0
   50.3787    6.8080   15.1010 H   0  0  0  0  0  0  0  0  0  0  0  0
   48.7249    3.9675   18.1002 H   0  0  0  0  0  0  0  0  0  0  0  0
   50.7086    9.4102   15.2253 H   0  0  0  0  0  0  0  0  0  0  0  0
   50.2937    9.4242   13.5225 H   0  0  0  0  0  0  0  0  0  0  0  0
   46.9051    8.8066   14.3099 H   0  0  0  0  0  0  0  0  0  0  0  0
   53.2328    9.0539   15.7217 H   0  0  0  0  0  0  0  0  0  0  0  0
   52.2447    7.6183   15.9153 H   0  0  0  0  0  0  0  0  0  0  0  0
   52.5220   10.5581   13.7189 H   0  0  0  0  0  0  0  0  0  0  0  0
   53.8822    9.5146   13.3440 H   0  0  0  0  0  0  0  0  0  0  0  0
   53.7255    6.2964   14.4340 H   0  0  0  0  0  0  0  0  0  0  0  0
   54.7602    7.6943   14.1836 H   0  0  0  0  0  0  0  0  0  0  0  0
   51.3547    9.6033   11.6299 H   0  0  0  0  0  0  0  0  0  0  0  0
   52.7931    8.6428   11.3192 H   0  0  0  0  0  0  0  0  0  0  0  0
   55.2706    7.7844   16.6273 H   0  0  0  0  0  0  0  0  0  0  0  0
   55.7933    6.3062   15.8295 H   0  0  0  0  0  0  0  0  0  0  0  0
   52.6518   10.7300    9.9684 H   0  0  0  0  0  0  0  0  0  0  0  0
   52.6767   11.7070   11.4323 H   0  0  0  0  0  0  0  0  0  0  0  0
   53.3318    6.5957   17.6235 H   0  0  0  0  0  0  0  0  0  0  0  0
   53.7321    5.1312   16.7034 H   0  0  0  0  0  0  0  0  0  0  0  0
   54.8237    5.7169   17.9696 H   0  0  0  0  0  0  0  0  0  0  0  0
   54.9017   11.5687   10.2878 H   0  0  0  0  0  0  0  0  0  0  0  0
   54.9359    9.8192   10.5684 H   0  0  0  0  0  0  0  0  0  0  0  0
   54.9822   10.9485   11.9384 H   0  0  0  0  0  0  0  0  0  0  0  0
  2  1  2  0
  3  2  1  0
  4  1  1  0
  5  4  2  0
  6 10  1  0
  7  5  1  0
  8  1  1  0
  9  3  1  0
 10  8  2  0
 11 14  1  0
 12  4  1  0
 13  2  1  0
 14 13  2  0
 15  5  1  0
 16 15  1  0
 17 10  1  0
 18  6  1  0
 19  6  1  0
 20  6  1  0
 21  9  1  0
 22 16  1  0
 23 22  1  0
 24 14  1  0
 25 15  1  0
 26 23  1  0
 27 23  1  0
 28 26  1  0
 29 27  1  0
 30 28  1  0
 31 29  1  0
 32 30  1  0
 33 31  1  0
 17 12  2  0
  7  3  2  0
  9 11  2  0
  7 34  1  0
  8 35  1  0
 11 36  1  0
 12 37  1  0
 13 38  1  0
 15 39  1  1
 16 40  1  0
 16 41  1  0
 17 42  1  0
 22 43  1  0
 22 44  1  0
 25 45  1  0
 26 46  1  0
 26 47  1  0
 27 48  1  0
 27 49  1  0
 28 50  1  0
 28 51  1  0
 29 52  1  0
 29 53  1  0
 30 54  1  0
 30 55  1  0
 31 56  1  0
 31 57  1  0
 32 58  1  0
 32 59  1  0
 32 60  1  0
 33 61  1  0
 33 62  1  0
 33 63  1  0
M  END
> <Uni-Dock RESULT> 
ENERGY=   -4.573  LOWER_BOUND=    4.524  UPPER_BOUND=    7.144
INTER + INTRA:          -4.573
INTER:                  -4.573
INTRA:                   0.000
UNBOUND:                 0.000

$$$$

     RDKit          3D

 63 65  0  0  0  0  0  0  0  0999 V2000
   47.9860    8.7476   19.1174 C   0  0  0  0  0  0  0  0  0  0  0  0
   47.9403   10.1797   18.9333 C   0  0  0  0  0  0  0  0  0  0  0  0
   48.1156   10.7326   17.6398 C   0  0  0  0  0  0  0  0  0  0  0  0
   48.1999    7.8880   18.0018 C   0  0  0  0  0  0  0  0  0  0  0  0
   48.3590    8.4505   16.7104 C   0  0  0  0  0  0  0  0  0  0  0  0
   47.7299    6.1595   21.9750 C   0  0  0  0  0  0  0  0  0  0  0  0
   48.3228    9.8494   16.5652 C   0  0  0  0  0  0  0  0  0  0  0  0
   47.8309    8.1304   20.3900 C   0  0  0  0  0  0  0  0  0  0  0  0
   48.0804   12.1450   17.4666 C   0  0  0  0  0  0  0  0  0  0  0  0
   47.8765    6.7405   20.5903 C   0  0  0  0  0  0  0  0  0  0  0  0
   47.8745   13.0100   18.5381 C   0  0  0  0  0  0  0  0  0  0  0  0
   48.2527    6.4893   18.2257 C   0  0  0  0  0  0  0  0  0  0  0  0
   47.7301   11.0988   19.9960 C   0  0  0  0  0  0  0  0  0  0  0  0
   47.6986   12.4800   19.8001 C   0  0  0  0  0  0  0  0  0  0  0  0
   48.6095    7.5968   15.4676 C   0  0  2  0  0  0  0  0  0  0  0  0
   50.0763    7.1676   15.3108 C   0  0  0  0  0  0  0  0  0  0  0  0
   48.0991    5.9239   19.4907 C   0  0  0  0  0  0  0  0  0  0  0  0
   47.3107    4.8636   21.9741 F   0  0  0  0  0  0  0  0  0  0  0  0
   48.9013    6.1751   22.6677 F   0  0  0  0  0  0  0  0  0  0  0  0
   46.8326    6.8401   22.7412 F   0  0  0  0  0  0  0  0  0  0  0  0
   48.2880   12.8949   15.9134 Cl  0  0  0  0  0  0  0  0  0  0  0  0
   51.0312    8.3222   14.9681 C   0  0  0  0  0  0  0  0  0  0  0  0
   52.4344    7.8462   14.9468 N   0  0  0  0  0  0  0  0  0  0  0  0
   47.4395   13.5285   21.1390 Cl  0  0  0  0  0  0  0  0  0  0  0  0
   48.1709    8.2541   14.2768 O   0  0  0  0  0  0  0  0  0  0  0  0
   52.9911    7.8427   16.3170 C   0  0  0  0  0  0  0  0  0  0  0  0
   53.2548    8.6916   14.0544 C   0  0  0  0  0  0  0  0  0  0  0  0
   54.1276    6.8197   16.4519 C   0  0  0  0  0  0  0  0  0  0  0  0
   53.0947    8.2691   12.5863 C   0  0  0  0  0  0  0  0  0  0  0  0
   54.7537    6.7979   17.8500 C   0  0  0  0  0  0  0  0  0  0  0  0
   53.8727    9.1609   11.6137 C   0  0  0  0  0  0  0  0  0  0  0  0
   53.8060    6.3163   18.9368 C   0  0  0  0  0  0  0  0  0  0  0  0
   55.3816    9.0851   11.7868 C   0  0  0  0  0  0  0  0  0  0  0  0
   48.4805   10.2574   15.5662 H   0  0  0  0  0  0  0  0  0  0  0  0
   47.6686    8.7358   21.2799 H   0  0  0  0  0  0  0  0  0  0  0  0
   47.8517   14.0854   18.3855 H   0  0  0  0  0  0  0  0  0  0  0  0
   48.4266    5.7933   17.4080 H   0  0  0  0  0  0  0  0  0  0  0  0
   47.5853   10.7505   21.0145 H   0  0  0  0  0  0  0  0  0  0  0  0
   47.9856    6.6982   15.5258 H   0  0  0  0  0  0  0  0  0  0  0  0
   50.1327    6.4390   14.4904 H   0  0  0  0  0  0  0  0  0  0  0  0
   50.4046    6.6444   16.2151 H   0  0  0  0  0  0  0  0  0  0  0  0
   48.1552    4.8422   19.6050 H   0  0  0  0  0  0  0  0  0  0  0  0
   50.9304    9.1586   15.6693 H   0  0  0  0  0  0  0  0  0  0  0  0
   50.7368    8.7096   13.9862 H   0  0  0  0  0  0  0  0  0  0  0  0
   47.2364    8.4895   14.4138 H   0  0  0  0  0  0  0  0  0  0  0  0
   53.3332    8.8460   16.6039 H   0  0  0  0  0  0  0  0  0  0  0  0
   52.2131    7.5685   17.0377 H   0  0  0  0  0  0  0  0  0  0  0  0
   53.0085    9.7534   14.1851 H   0  0  0  0  0  0  0  0  0  0  0  0
   54.3141    8.5875   14.3108 H   0  0  0  0  0  0  0  0  0  0  0  0
   53.7549    5.8182   16.2049 H   0  0  0  0  0  0  0  0  0  0  0  0
   54.9251    7.0415   15.7340 H   0  0  0  0  0  0  0  0  0  0  0  0
   52.0399    8.3000   12.2910 H   0  0  0  0  0  0  0  0  0  0  0  0
   53.4216    7.2284   12.4662 H   0  0  0  0  0  0  0  0  0  0  0  0
   55.1279    7.7953   18.1070 H   0  0  0  0  0  0  0  0  0  0  0  0
   55.6232    6.1304   17.8282 H   0  0  0  0  0  0  0  0  0  0  0  0
   53.6256    8.8533   10.5903 H   0  0  0  0  0  0  0  0  0  0  0  0
   53.5459   10.2019   11.7189 H   0  0  0  0  0  0  0  0  0  0  0  0
   52.9870    7.0230   19.0991 H   0  0  0  0  0  0  0  0  0  0  0  0
   53.3778    5.3422   18.6826 H   0  0  0  0  0  0  0  0  0  0  0  0
   54.3452    6.2128   19.8843 H   0  0  0  0  0  0  0  0  0  0  0  0
   55.8786    9.6481   10.9900 H   0  0  0  0  0  0  0  0  0  0  0  0
   55.7321    8.0493   11.7404 H   0  0  0  0  0  0  0  0  0  0  0  0
   55.6980    9.5163   12.7410 H   0  0  0  0  0  0  0  0  0  0  0  0
  2  1  2  0
  3  2  1  0
  4  1  1  0
  5  4  2  0
  6 10  1  0
  7  5  1  0
  8  1  1  0
  9  3  1  0
 10  8  2  0
 11 14  1  0
 12  4  1  0
 13  2  1  0
 14 13  2  0
 15  5  1  0
 16 15  1  0
 17 10  1  0
 18  6  1  0
 19  6  1  0
 20  6  1  0
 21  9  1  0
 22 16  1  0
 23 22  1  0
 24 14  1  0
 25 15  1  0
 26 23  1  0
 27 23  1  0
 28 26  1  0
 29 27  1  0
 30 28  1  0
 31 29  1  0
 32 30  1  0
 33 31  1  0
 17 12  2  0
  7  3  2  0
  9 11  2  0
  7 34  1  0
  8 35  1  0
 11 36  1  0
 12 37  1  0
 13 38  1  0
 15 39  1  1
 16 40  1  0
 16 41  1  0
 17 42  1  0
 22 43  1  0
 22 44  1  0
 25 45  1  0
 26 46  1  0
 26 47  1  0
 27 48  1  0
 27 49  1  0
 28 50  1  0
 28 51  1  0
 29 52  1  0
 29 53  1  0
 30 54  1  0
 30 55  1  0
 31 56  1  0
 31 57  1  0
 32 58  1  0
 32 59  1  0
 32 60  1  0
 33 61  1  0
 33 62  1  0
 33 63  1  0
M  END
> <Uni-Dock RESULT> 
ENERGY=   -4.539  LOWER_BOUND=    4.789  UPPER_BOUND=    7.339
INTER + INTRA:          -4.539
INTER:                  -4.539
INTRA:                   0.000
UNBOUND:                 0.000

$$$$
