
     RDKit          3D

 63 65  0  0  0  0  0  0  0  0999 V2000
   45.4365    7.7640   12.2331 C   0  0  0  0  0  0  0  0  0  0  0  0
   45.3500    6.3316   12.4061 C   0  0  0  0  0  0  0  0  0  0  0  0
   46.3200    5.6531   13.1858 C   0  0  0  0  0  0  0  0  0  0  0  0
   46.4970    8.4977   12.8391 C   0  0  0  0  0  0  0  0  0  0  0  0
   47.4657    7.8068   13.6086 C   0  0  0  0  0  0  0  0  0  0  0  0
   43.5041   10.6146   10.4814 C   0  0  0  0  0  0  0  0  0  0  0  0
   47.3495    6.4134   13.7680 C   0  0  0  0  0  0  0  0  0  0  0  0
   44.4904    8.5037   11.4701 C   0  0  0  0  0  0  0  0  0  0  0  0
   46.2268    4.2428   13.3563 C   0  0  0  0  0  0  0  0  0  0  0  0
   44.5575    9.8949   11.2860 C   0  0  0  0  0  0  0  0  0  0  0  0
   45.2028    3.5000   12.7749 C   0  0  0  0  0  0  0  0  0  0  0  0
   46.5406    9.9008   12.6487 C   0  0  0  0  0  0  0  0  0  0  0  0
   44.3245    5.5339   11.8309 C   0  0  0  0  0  0  0  0  0  0  0  0
   44.2549    4.1522   12.0129 C   0  0  0  0  0  0  0  0  0  0  0  0
   48.6436    8.4667   14.3271 C   0  0  2  0  0  0  0  0  0  0  0  0
   48.2105    9.2213   15.5907 C   0  0  0  0  0  0  0  0  0  0  0  0
   45.5934   10.5894   11.8927 C   0  0  0  0  0  0  0  0  0  0  0  0
   42.3942   10.8961   11.2176 F   0  0  0  0  0  0  0  0  0  0  0  0
   43.0693    9.8908    9.4121 F   0  0  0  0  0  0  0  0  0  0  0  0
   43.9311   11.8045    9.9749 F   0  0  0  0  0  0  0  0  0  0  0  0
   47.3788    3.3438   14.2956 Cl  0  0  0  0  0  0  0  0  0  0  0  0
   49.3950    9.6719   16.4561 C   0  0  0  0  0  0  0  0  0  0  0  0
   50.0956    8.5055   17.0362 N   0  0  0  0  0  0  0  0  0  0  0  0
   42.9805    3.2557   11.2825 Cl  0  0  0  0  0  0  0  0  0  0  0  0
   49.3703    9.3261   13.4470 O   0  0  0  0  0  0  0  0  0  0  0  0
   49.9238    8.4333   18.5021 C   0  0  0  0  0  0  0  0  0  0  0  0
   51.5249    8.5331   16.6597 C   0  0  0  0  0  0  0  0  0  0  0  0
   48.4783    8.1158   18.9169 C   0  0  0  0  0  0  0  0  0  0  0  0
   52.2058    7.1660   16.8308 C   0  0  0  0  0  0  0  0  0  0  0  0
   48.2915    8.0220   20.4349 C   0  0  0  0  0  0  0  0  0  0  0  0
   53.6231    7.1274   16.2499 C   0  0  0  0  0  0  0  0  0  0  0  0
   49.0179    6.8470   21.0714 C   0  0  0  0  0  0  0  0  0  0  0  0
   54.6049    8.0163   16.9969 C   0  0  0  0  0  0  0  0  0  0  0  0
   48.0992    5.9121   14.3814 H   0  0  0  0  0  0  0  0  0  0  0  0
   43.6556    7.9982   10.9884 H   0  0  0  0  0  0  0  0  0  0  0  0
   45.1488    2.4243   12.9169 H   0  0  0  0  0  0  0  0  0  0  0  0
   47.3306   10.5019   13.0941 H   0  0  0  0  0  0  0  0  0  0  0  0
   43.5464    5.9818   11.2196 H   0  0  0  0  0  0  0  0  0  0  0  0
   49.3567    7.6823   14.6048 H   0  0  0  0  0  0  0  0  0  0  0  0
   47.5320    8.5975   16.1853 H   0  0  0  0  0  0  0  0  0  0  0  0
   47.6476   10.1219   15.3192 H   0  0  0  0  0  0  0  0  0  0  0  0
   45.6777   11.6697   11.7851 H   0  0  0  0  0  0  0  0  0  0  0  0
   50.0633   10.2949   15.8472 H   0  0  0  0  0  0  0  0  0  0  0  0
   49.0271   10.3479   17.2387 H   0  0  0  0  0  0  0  0  0  0  0  0
   49.3708    8.8950   12.5746 H   0  0  0  0  0  0  0  0  0  0  0  0
   50.2572    9.3660   18.9764 H   0  0  0  0  0  0  0  0  0  0  0  0
   50.5553    7.6353   18.9014 H   0  0  0  0  0  0  0  0  0  0  0  0
   51.6116    8.7917   15.5961 H   0  0  0  0  0  0  0  0  0  0  0  0
   52.0530    9.3117   17.2237 H   0  0  0  0  0  0  0  0  0  0  0  0
   48.1565    7.1766   18.4504 H   0  0  0  0  0  0  0  0  0  0  0  0
   47.8022    8.8983   18.5552 H   0  0  0  0  0  0  0  0  0  0  0  0
   51.6066    6.4022   16.3182 H   0  0  0  0  0  0  0  0  0  0  0  0
   52.2531    6.8772   17.8864 H   0  0  0  0  0  0  0  0  0  0  0  0
   48.6193    8.9543   20.9091 H   0  0  0  0  0  0  0  0  0  0  0  0
   47.2197    7.9197   20.6446 H   0  0  0  0  0  0  0  0  0  0  0  0
   53.6031    7.4118   15.1916 H   0  0  0  0  0  0  0  0  0  0  0  0
   53.9870    6.0938   16.2923 H   0  0  0  0  0  0  0  0  0  0  0  0
   50.1042    6.9635   21.0102 H   0  0  0  0  0  0  0  0  0  0  0  0
   48.7539    6.7733   22.1309 H   0  0  0  0  0  0  0  0  0  0  0  0
   48.7419    5.9049   20.5879 H   0  0  0  0  0  0  0  0  0  0  0  0
   54.6301    7.7645   18.0613 H   0  0  0  0  0  0  0  0  0  0  0  0
   55.6139    7.8825   16.5936 H   0  0  0  0  0  0  0  0  0  0  0  0
   54.3460    9.0739   16.8977 H   0  0  0  0  0  0  0  0  0  0  0  0
  2  1  2  0
  3  2  1  0
  4  1  1  0
  5  4  2  0
  6 10  1  0
  7  5  1  0
  8  1  1  0
  9  3  1  0
 10  8  2  0
 11 14  1  0
 12  4  1  0
 13  2  1  0
 14 13  2  0
 15  5  1  0
 16 15  1  0
 17 10  1  0
 18  6  1  0
 19  6  1  0
 20  6  1  0
 21  9  1  0
 22 16  1  0
 23 22  1  0
 24 14  1  0
 25 15  1  0
 26 23  1  0
 27 23  1  0
 28 26  1  0
 29 27  1  0
 30 28  1  0
 31 29  1  0
 32 30  1  0
 33 31  1  0
 17 12  2  0
  7  3  2  0
  9 11  2  0
  7 34  1  0
  8 35  1  0
 11 36  1  0
 12 37  1  0
 13 38  1  0
 15 39  1  1
 16 40  1  0
 16 41  1  0
 17 42  1  0
 22 43  1  0
 22 44  1  0
 25 45  1  0
 26 46  1  0
 26 47  1  0
 27 48  1  0
 27 49  1  0
 28 50  1  0
 28 51  1  0
 29 52  1  0
 29 53  1  0
 30 54  1  0
 30 55  1  0
 31 56  1  0
 31 57  1  0
 32 58  1  0
 32 59  1  0
 32 60  1  0
 33 61  1  0
 33 62  1  0
 33 63  1  0
M  END
> <Uni-Dock RESULT> 
ENERGY=   -5.668  LOWER_BOUND=    0.000  UPPER_BOUND=    0.000
INTER + INTRA:          -5.668
INTER:                  -5.668
INTRA:                   0.000
UNBOUND:                 0.000

$$$$

     RDKit          3D

 63 65  0  0  0  0  0  0  0  0999 V2000
   44.8657    7.8526   11.8316 C   0  0  0  0  0  0  0  0  0  0  0  0
   44.4676    9.2009   11.4953 C   0  0  0  0  0  0  0  0  0  0  0  0
   45.3278   10.2876   11.7923 C   0  0  0  0  0  0  0  0  0  0  0  0
   46.1183    7.6109   12.4661 C   0  0  0  0  0  0  0  0  0  0  0  0
   46.9655    8.7065   12.7659 C   0  0  0  0  0  0  0  0  0  0  0  0
   43.5108    4.2471   11.5265 C   0  0  0  0  0  0  0  0  0  0  0  0
   46.5556   10.0069   12.4172 C   0  0  0  0  0  0  0  0  0  0  0  0
   44.0515    6.7196   11.5526 C   0  0  0  0  0  0  0  0  0  0  0  0
   44.9321   11.6128   11.4545 C   0  0  0  0  0  0  0  0  0  0  0  0
   44.4171    5.4017   11.8740 C   0  0  0  0  0  0  0  0  0  0  0  0
   43.7136   11.8789   10.8357 C   0  0  0  0  0  0  0  0  0  0  0  0
   46.4716    6.2738   12.7727 C   0  0  0  0  0  0  0  0  0  0  0  0
   43.2343    9.5191   10.8655 C   0  0  0  0  0  0  0  0  0  0  0  0
   42.8692   10.8270   10.5444 C   0  0  0  0  0  0  0  0  0  0  0  0
   48.3398    8.5928   13.4274 C   0  0  2  0  0  0  0  0  0  0  0  0
   49.4095    8.0573   12.4669 C   0  0  0  0  0  0  0  0  0  0  0  0
   45.6449    5.1896   12.4830 C   0  0  0  0  0  0  0  0  0  0  0  0
   43.6662    3.8381   10.2374 F   0  0  0  0  0  0  0  0  0  0  0  0
   42.1900    4.5513   11.6651 F   0  0  0  0  0  0  0  0  0  0  0  0
   43.7206    3.1450   12.2986 F   0  0  0  0  0  0  0  0  0  0  0  0
   45.9323   12.9932   11.7887 Cl  0  0  0  0  0  0  0  0  0  0  0  0
   50.8328    8.1740   13.0286 C   0  0  0  0  0  0  0  0  0  0  0  0
   51.2337    9.5923   13.1535 N   0  0  0  0  0  0  0  0  0  0  0  0
   41.3569   11.1307    9.7813 Cl  0  0  0  0  0  0  0  0  0  0  0  0
   48.2788    7.7978   14.6130 O   0  0  0  0  0  0  0  0  0  0  0  0
   52.3061    9.9471   12.2008 C   0  0  0  0  0  0  0  0  0  0  0  0
   51.6288    9.8872   14.5472 C   0  0  0  0  0  0  0  0  0  0  0  0
   51.8338    9.9262   10.7383 C   0  0  0  0  0  0  0  0  0  0  0  0
   51.6216   11.3927   14.8557 C   0  0  0  0  0  0  0  0  0  0  0  0
   52.9334   10.3089    9.7421 C   0  0  0  0  0  0  0  0  0  0  0  0
   51.8233   11.6989   16.3434 C   0  0  0  0  0  0  0  0  0  0  0  0
   53.3891   11.7554    9.8566 C   0  0  0  0  0  0  0  0  0  0  0  0
   53.2055   11.3227   16.8539 C   0  0  0  0  0  0  0  0  0  0  0  0
   47.2372   10.8278   12.6435 H   0  0  0  0  0  0  0  0  0  0  0  0
   43.0866    6.8417   11.0643 H   0  0  0  0  0  0  0  0  0  0  0  0
   43.4297   12.8973   10.5857 H   0  0  0  0  0  0  0  0  0  0  0  0
   47.4188    6.0417   13.2552 H   0  0  0  0  0  0  0  0  0  0  0  0
   42.5223    8.7403   10.6081 H   0  0  0  0  0  0  0  0  0  0  0  0
   48.6355    9.5897   13.7734 H   0  0  0  0  0  0  0  0  0  0  0  0
   49.3454    8.5812   11.5054 H   0  0  0  0  0  0  0  0  0  0  0  0
   49.2314    6.9965   12.2558 H   0  0  0  0  0  0  0  0  0  0  0  0
   45.9728    4.1835   12.7399 H   0  0  0  0  0  0  0  0  0  0  0  0
   50.8802    7.6447   13.9894 H   0  0  0  0  0  0  0  0  0  0  0  0
   51.5196    7.6197   12.3759 H   0  0  0  0  0  0  0  0  0  0  0  0
   47.4275    7.9989   15.0394 H   0  0  0  0  0  0  0  0  0  0  0  0
   53.1714    9.2829   12.3284 H   0  0  0  0  0  0  0  0  0  0  0  0
   52.6557   10.9613   12.4111 H   0  0  0  0  0  0  0  0  0  0  0  0
   50.9039    9.4269   15.2315 H   0  0  0  0  0  0  0  0  0  0  0  0
   52.6067    9.4424   14.7688 H   0  0  0  0  0  0  0  0  0  0  0  0
   50.9781   10.6015   10.6154 H   0  0  0  0  0  0  0  0  0  0  0  0
   51.4876    8.9223   10.4688 H   0  0  0  0  0  0  0  0  0  0  0  0
   50.6558   11.8152   14.5489 H   0  0  0  0  0  0  0  0  0  0  0  0
   52.3942   11.9173   14.2832 H   0  0  0  0  0  0  0  0  0  0  0  0
   53.7956    9.6434    9.8651 H   0  0  0  0  0  0  0  0  0  0  0  0
   52.5504   10.1470    8.7271 H   0  0  0  0  0  0  0  0  0  0  0  0
   51.0602   11.1855   16.9394 H   0  0  0  0  0  0  0  0  0  0  0  0
   51.6752   12.7742   16.4991 H   0  0  0  0  0  0  0  0  0  0  0  0
   53.9036   11.9423   10.8041 H   0  0  0  0  0  0  0  0  0  0  0  0
   54.0894   11.9921    9.0496 H   0  0  0  0  0  0  0  0  0  0  0  0
   52.5409   12.4426    9.7805 H   0  0  0  0  0  0  0  0  0  0  0  0
   53.9874   11.8086   16.2628 H   0  0  0  0  0  0  0  0  0  0  0  0
   53.3206   11.6420   17.8947 H   0  0  0  0  0  0  0  0  0  0  0  0
   53.3668   10.2419   16.8190 H   0  0  0  0  0  0  0  0  0  0  0  0
  2  1  2  0
  3  2  1  0
  4  1  1  0
  5  4  2  0
  6 10  1  0
  7  5  1  0
  8  1  1  0
  9  3  1  0
 10  8  2  0
 11 14  1  0
 12  4  1  0
 13  2  1  0
 14 13  2  0
 15  5  1  0
 16 15  1  0
 17 10  1  0
 18  6  1  0
 19  6  1  0
 20  6  1  0
 21  9  1  0
 22 16  1  0
 23 22  1  0
 24 14  1  0
 25 15  1  0
 26 23  1  0
 27 23  1  0
 28 26  1  0
 29 27  1  0
 30 28  1  0
 31 29  1  0
 32 30  1  0
 33 31  1  0
 17 12  2  0
  7  3  2  0
  9 11  2  0
  7 34  1  0
  8 35  1  0
 11 36  1  0
 12 37  1  0
 13 38  1  0
 15 39  1  1
 16 40  1  0
 16 41  1  0
 17 42  1  0
 22 43  1  0
 22 44  1  0
 25 45  1  0
 26 46  1  0
 26 47  1  0
 27 48  1  0
 27 49  1  0
 28 50  1  0
 28 51  1  0
 29 52  1  0
 29 53  1  0
 30 54  1  0
 30 55  1  0
 31 56  1  0
 31 57  1  0
 32 58  1  0
 32 59  1  0
 32 60  1  0
 33 61  1  0
 33 62  1  0
 33 63  1  0
M  END
> <Uni-Dock RESULT> 
ENERGY=   -5.488  LOWER_BOUND=    4.064  UPPER_BOUND=    6.169
INTER + INTRA:          -5.488
INTER:                  -5.488
INTRA:                   0.000
UNBOUND:                 0.000

$$$$

     RDKit          3D

 63 65  0  0  0  0  0  0  0  0999 V2000
   46.7905    5.3710   13.6515 C   0  0  0  0  0  0  0  0  0  0  0  0
   47.4479    5.1521   14.9201 C   0  0  0  0  0  0  0  0  0  0  0  0
   48.5494    5.9616   15.2953 C   0  0  0  0  0  0  0  0  0  0  0  0
   47.2486    6.3946   12.7726 C   0  0  0  0  0  0  0  0  0  0  0  0
   48.3563    7.1912   13.1551 C   0  0  0  0  0  0  0  0  0  0  0  0
   43.8334    3.9476   11.6125 C   0  0  0  0  0  0  0  0  0  0  0  0
   48.9695    6.9617   14.4008 C   0  0  0  0  0  0  0  0  0  0  0  0
   45.6758    4.5985   13.2212 C   0  0  0  0  0  0  0  0  0  0  0  0
   49.1898    5.7442   16.5480 C   0  0  0  0  0  0  0  0  0  0  0  0
   45.0246    4.7917   11.9914 C   0  0  0  0  0  0  0  0  0  0  0  0
   48.7651    4.7506   17.4260 C   0  0  0  0  0  0  0  0  0  0  0  0
   46.5717    6.5789   11.5419 C   0  0  0  0  0  0  0  0  0  0  0  0
   47.0500    4.1502   15.8456 C   0  0  0  0  0  0  0  0  0  0  0  0
   47.6945    3.9567   17.0681 C   0  0  0  0  0  0  0  0  0  0  0  0
   48.9416    8.3319   12.3210 C   0  0  2  0  0  0  0  0  0  0  0  0
   48.0594    9.5869   12.3445 C   0  0  0  0  0  0  0  0  0  0  0  0
   45.4821    5.7999   11.1561 C   0  0  0  0  0  0  0  0  0  0  0  0
   42.6750    4.4169   12.1520 F   0  0  0  0  0  0  0  0  0  0  0  0
   43.9450    2.6565   12.0330 F   0  0  0  0  0  0  0  0  0  0  0  0
   43.6232    3.8831   10.2685 F   0  0  0  0  0  0  0  0  0  0  0  0
   50.5452    6.6947   17.0742 Cl  0  0  0  0  0  0  0  0  0  0  0  0
   48.7453   10.8140   11.7292 C   0  0  0  0  0  0  0  0  0  0  0  0
   49.8921   11.2455   12.5578 N   0  0  0  0  0  0  0  0  0  0  0  0
   47.1520    2.7209   18.1357 Cl  0  0  0  0  0  0  0  0  0  0  0  0
   49.1937    7.9140   10.9783 O   0  0  0  0  0  0  0  0  0  0  0  0
   49.6434   12.5504   13.2050 C   0  0  0  0  0  0  0  0  0  0  0  0
   51.1254   11.2720   11.7432 C   0  0  0  0  0  0  0  0  0  0  0  0
   48.5439   12.4832   14.2769 C   0  0  0  0  0  0  0  0  0  0  0  0
   52.3994   11.2667   12.6027 C   0  0  0  0  0  0  0  0  0  0  0  0
   48.2888   13.8275   14.9667 C   0  0  0  0  0  0  0  0  0  0  0  0
   53.6768   11.0827   11.7767 C   0  0  0  0  0  0  0  0  0  0  0  0
   49.4565   14.3161   15.8100 C   0  0  0  0  0  0  0  0  0  0  0  0
   53.9736   12.2564   10.8565 C   0  0  0  0  0  0  0  0  0  0  0  0
   49.8077    7.6032   14.6757 H   0  0  0  0  0  0  0  0  0  0  0  0
   45.2782    3.8063   13.8526 H   0  0  0  0  0  0  0  0  0  0  0  0
   49.2670    4.6004   18.3777 H   0  0  0  0  0  0  0  0  0  0  0  0
   46.8851    7.3494   10.8406 H   0  0  0  0  0  0  0  0  0  0  0  0
   46.2154    3.4900   15.6282 H   0  0  0  0  0  0  0  0  0  0  0  0
   49.9286    8.5800   12.7273 H   0  0  0  0  0  0  0  0  0  0  0  0
   47.7526    9.8098   13.3737 H   0  0  0  0  0  0  0  0  0  0  0  0
   47.1385    9.4126   11.7762 H   0  0  0  0  0  0  0  0  0  0  0  0
   45.0003    5.9913   10.1985 H   0  0  0  0  0  0  0  0  0  0  0  0
   49.0452   10.5749   10.7004 H   0  0  0  0  0  0  0  0  0  0  0  0
   48.0056   11.6175   11.6196 H   0  0  0  0  0  0  0  0  0  0  0  0
   49.5027    6.9925   11.0269 H   0  0  0  0  0  0  0  0  0  0  0  0
   49.3939   13.3125   12.4545 H   0  0  0  0  0  0  0  0  0  0  0  0
   50.5568   12.8874   13.7023 H   0  0  0  0  0  0  0  0  0  0  0  0
   51.1661   10.3668   11.1229 H   0  0  0  0  0  0  0  0  0  0  0  0
   51.1127   12.1295   11.0594 H   0  0  0  0  0  0  0  0  0  0  0  0
   48.8059   11.7299   15.0300 H   0  0  0  0  0  0  0  0  0  0  0  0
   47.5973   12.1659   13.8259 H   0  0  0  0  0  0  0  0  0  0  0  0
   52.3393   10.4422   13.3251 H   0  0  0  0  0  0  0  0  0  0  0  0
   52.4889   12.1916   13.1828 H   0  0  0  0  0  0  0  0  0  0  0  0
   48.0347   14.5877   14.2191 H   0  0  0  0  0  0  0  0  0  0  0  0
   47.4135   13.7196   15.6189 H   0  0  0  0  0  0  0  0  0  0  0  0
   53.6130   10.1613   11.1867 H   0  0  0  0  0  0  0  0  0  0  0  0
   54.5205   10.9585   12.4661 H   0  0  0  0  0  0  0  0  0  0  0  0
   50.3224   14.5700   15.1910 H   0  0  0  0  0  0  0  0  0  0  0  0
   49.1694   15.2177   16.3599 H   0  0  0  0  0  0  0  0  0  0  0  0
   49.7604   13.5582   16.5383 H   0  0  0  0  0  0  0  0  0  0  0  0
   54.0241   13.1930   11.4197 H   0  0  0  0  0  0  0  0  0  0  0  0
   54.9374   12.1084   10.3588 H   0  0  0  0  0  0  0  0  0  0  0  0
   53.2118   12.3609   10.0792 H   0  0  0  0  0  0  0  0  0  0  0  0
  2  1  2  0
  3  2  1  0
  4  1  1  0
  5  4  2  0
  6 10  1  0
  7  5  1  0
  8  1  1  0
  9  3  1  0
 10  8  2  0
 11 14  1  0
 12  4  1  0
 13  2  1  0
 14 13  2  0
 15  5  1  0
 16 15  1  0
 17 10  1  0
 18  6  1  0
 19  6  1  0
 20  6  1  0
 21  9  1  0
 22 16  1  0
 23 22  1  0
 24 14  1  0
 25 15  1  0
 26 23  1  0
 27 23  1  0
 28 26  1  0
 29 27  1  0
 30 28  1  0
 31 29  1  0
 32 30  1  0
 33 31  1  0
 17 12  2  0
  7  3  2  0
  9 11  2  0
  7 34  1  0
  8 35  1  0
 11 36  1  0
 12 37  1  0
 13 38  1  0
 15 39  1  1
 16 40  1  0
 16 41  1  0
 17 42  1  0
 22 43  1  0
 22 44  1  0
 25 45  1  0
 26 46  1  0
 26 47  1  0
 27 48  1  0
 27 49  1  0
 28 50  1  0
 28 51  1  0
 29 52  1  0
 29 53  1  0
 30 54  1  0
 30 55  1  0
 31 56  1  0
 31 57  1  0
 32 58  1  0
 32 59  1  0
 32 60  1  0
 33 61  1  0
 33 62  1  0
 33 63  1  0
M  END
> <Uni-Dock RESULT> 
ENERGY=   -5.300  LOWER_BOUND=    3.891  UPPER_BOUND=    5.544
INTER + INTRA:          -5.300
INTER:                  -5.300
INTRA:                   0.000
UNBOUND:                 0.000

$$$$

     RDKit          3D

 63 65  0  0  0  0  0  0  0  0999 V2000
   46.9285    8.4283   12.7809 C   0  0  0  0  0  0  0  0  0  0  0  0
   46.3768    7.0990   12.6464 C   0  0  0  0  0  0  0  0  0  0  0  0
   46.9087    6.0313   13.4121 C   0  0  0  0  0  0  0  0  0  0  0  0
   48.0098    8.6697   13.6768 C   0  0  0  0  0  0  0  0  0  0  0  0
   48.5388    7.5923   14.4300 C   0  0  0  0  0  0  0  0  0  0  0  0
   46.3657   11.9791   11.3655 C   0  0  0  0  0  0  0  0  0  0  0  0
   47.9742    6.3113   14.2857 C   0  0  0  0  0  0  0  0  0  0  0  0
   46.4339    9.5426   12.0472 C   0  0  0  0  0  0  0  0  0  0  0  0
   46.3581    4.7253   13.2787 C   0  0  0  0  0  0  0  0  0  0  0  0
   46.9574   10.8415   12.1597 C   0  0  0  0  0  0  0  0  0  0  0  0
   45.3028    4.4597   12.4102 C   0  0  0  0  0  0  0  0  0  0  0  0
   48.5163    9.9885   13.7820 C   0  0  0  0  0  0  0  0  0  0  0  0
   45.3022    6.7820   11.7727 C   0  0  0  0  0  0  0  0  0  0  0  0
   44.7798    5.4930   11.6597 C   0  0  0  0  0  0  0  0  0  0  0  0
   49.6832    7.7097   15.4379 C   0  0  2  0  0  0  0  0  0  0  0  0
   49.2446    8.3800   16.7464 C   0  0  0  0  0  0  0  0  0  0  0  0
   48.0037   11.0546   13.0448 C   0  0  0  0  0  0  0  0  0  0  0  0
   45.2652   12.5105   11.9651 F   0  0  0  0  0  0  0  0  0  0  0  0
   45.9662   11.6019   10.1187 F   0  0  0  0  0  0  0  0  0  0  0  0
   47.2302   13.0151   11.1804 F   0  0  0  0  0  0  0  0  0  0  0  0
   46.9586    3.3686   14.1822 Cl  0  0  0  0  0  0  0  0  0  0  0  0
   50.3007    8.2795   17.8552 C   0  0  0  0  0  0  0  0  0  0  0  0
   50.4759    6.8761   18.2884 N   0  0  0  0  0  0  0  0  0  0  0  0
   43.4763    5.1894   10.5779 Cl  0  0  0  0  0  0  0  0  0  0  0  0
   50.8042    8.3898   14.8704 O   0  0  0  0  0  0  0  0  0  0  0  0
   49.9868    6.6600   19.6659 C   0  0  0  0  0  0  0  0  0  0  0  0
   51.8917    6.4745   18.1478 C   0  0  0  0  0  0  0  0  0  0  0  0
   48.4598    6.7917   19.7828 C   0  0  0  0  0  0  0  0  0  0  0  0
   52.0735    4.9485   18.1419 C   0  0  0  0  0  0  0  0  0  0  0  0
   47.9393    6.5533   21.2041 C   0  0  0  0  0  0  0  0  0  0  0  0
   53.5008    4.5180   17.7883 C   0  0  0  0  0  0  0  0  0  0  0  0
   48.1240    5.1252   21.6939 C   0  0  0  0  0  0  0  0  0  0  0  0
   54.5266    4.9106   18.8401 C   0  0  0  0  0  0  0  0  0  0  0  0
   48.3901    5.5061   14.8927 H   0  0  0  0  0  0  0  0  0  0  0  0
   45.6057    9.4203   11.3520 H   0  0  0  0  0  0  0  0  0  0  0  0
   44.8962    3.4561   12.3227 H   0  0  0  0  0  0  0  0  0  0  0  0
   49.3396   10.2200   14.4545 H   0  0  0  0  0  0  0  0  0  0  0  0
   44.8433    7.5466   11.1528 H   0  0  0  0  0  0  0  0  0  0  0  0
   50.0494    6.7005   15.6574 H   0  0  0  0  0  0  0  0  0  0  0  0
   48.2999    7.9433   17.0925 H   0  0  0  0  0  0  0  0  0  0  0  0
   49.0519    9.4460   16.5793 H   0  0  0  0  0  0  0  0  0  0  0  0
   48.4327   12.0474   13.1712 H   0  0  0  0  0  0  0  0  0  0  0  0
   51.2388    8.7209   17.4936 H   0  0  0  0  0  0  0  0  0  0  0  0
   49.9999    8.9224   18.6925 H   0  0  0  0  0  0  0  0  0  0  0  0
   50.8568    8.1111   13.9395 H   0  0  0  0  0  0  0  0  0  0  0  0
   50.4804    7.3497   20.3637 H   0  0  0  0  0  0  0  0  0  0  0  0
   50.2476    5.6484   19.9878 H   0  0  0  0  0  0  0  0  0  0  0  0
   52.2740    6.8361   17.1841 H   0  0  0  0  0  0  0  0  0  0  0  0
   52.5006    6.9426   18.9310 H   0  0  0  0  0  0  0  0  0  0  0  0
   47.9735    6.0910   19.0930 H   0  0  0  0  0  0  0  0  0  0  0  0
   48.1451    7.7986   19.4873 H   0  0  0  0  0  0  0  0  0  0  0  0
   51.3922    4.5108   17.4005 H   0  0  0  0  0  0  0  0  0  0  0  0
   51.8082    4.5149   19.1122 H   0  0  0  0  0  0  0  0  0  0  0  0
   48.4275    7.2445   21.9007 H   0  0  0  0  0  0  0  0  0  0  0  0
   46.8681    6.7886   21.2228 H   0  0  0  0  0  0  0  0  0  0  0  0
   53.7907    4.9388   16.8186 H   0  0  0  0  0  0  0  0  0  0  0  0
   53.5163    3.4272   17.6767 H   0  0  0  0  0  0  0  0  0  0  0  0
   49.1818    4.8773   21.8240 H   0  0  0  0  0  0  0  0  0  0  0  0
   47.6340    4.9961   22.6639 H   0  0  0  0  0  0  0  0  0  0  0  0
   47.6828    4.4088   20.9942 H   0  0  0  0  0  0  0  0  0  0  0  0
   54.2502    4.5177   19.8230 H   0  0  0  0  0  0  0  0  0  0  0  0
   55.5082    4.5038   18.5769 H   0  0  0  0  0  0  0  0  0  0  0  0
   54.6278    5.9965   18.9176 H   0  0  0  0  0  0  0  0  0  0  0  0
  2  1  2  0
  3  2  1  0
  4  1  1  0
  5  4  2  0
  6 10  1  0
  7  5  1  0
  8  1  1  0
  9  3  1  0
 10  8  2  0
 11 14  1  0
 12  4  1  0
 13  2  1  0
 14 13  2  0
 15  5  1  0
 16 15  1  0
 17 10  1  0
 18  6  1  0
 19  6  1  0
 20  6  1  0
 21  9  1  0
 22 16  1  0
 23 22  1  0
 24 14  1  0
 25 15  1  0
 26 23  1  0
 27 23  1  0
 28 26  1  0
 29 27  1  0
 30 28  1  0
 31 29  1  0
 32 30  1  0
 33 31  1  0
 17 12  2  0
  7  3  2  0
  9 11  2  0
  7 34  1  0
  8 35  1  0
 11 36  1  0
 12 37  1  0
 13 38  1  0
 15 39  1  1
 16 40  1  0
 16 41  1  0
 17 42  1  0
 22 43  1  0
 22 44  1  0
 25 45  1  0
 26 46  1  0
 26 47  1  0
 27 48  1  0
 27 49  1  0
 28 50  1  0
 28 51  1  0
 29 52  1  0
 29 53  1  0
 30 54  1  0
 30 55  1  0
 31 56  1  0
 31 57  1  0
 32 58  1  0
 32 59  1  0
 32 60  1  0
 33 61  1  0
 33 62  1  0
 33 63  1  0
M  END
> <Uni-Dock RESULT> 
ENERGY=   -5.225  LOWER_BOUND=    1.783  UPPER_BOUND=    2.230
INTER + INTRA:          -5.225
INTER:                  -5.225
INTRA:                   0.000
UNBOUND:                 0.000

$$$$

     RDKit          3D

 63 65  0  0  0  0  0  0  0  0999 V2000
   45.3265    7.4457   12.3776 C   0  0  0  0  0  0  0  0  0  0  0  0
   46.5194    8.1016   12.8634 C   0  0  0  0  0  0  0  0  0  0  0  0
   46.7097    9.4869   12.6310 C   0  0  0  0  0  0  0  0  0  0  0  0
   44.3419    8.1849   11.6604 C   0  0  0  0  0  0  0  0  0  0  0  0
   44.5480    9.5672   11.4267 C   0  0  0  0  0  0  0  0  0  0  0  0
   43.7118    3.9355   12.3973 C   0  0  0  0  0  0  0  0  0  0  0  0
   45.7142   10.1807   11.9208 C   0  0  0  0  0  0  0  0  0  0  0  0
   45.0731    6.0610   12.5853 C   0  0  0  0  0  0  0  0  0  0  0  0
   47.8845   10.1283   13.1159 C   0  0  0  0  0  0  0  0  0  0  0  0
   43.9228    5.4029   12.1190 C   0  0  0  0  0  0  0  0  0  0  0  0
   48.8639    9.4310   13.8182 C   0  0  0  0  0  0  0  0  0  0  0  0
   43.1852    7.5040   11.2074 C   0  0  0  0  0  0  0  0  0  0  0  0
   47.5445    7.4302   13.5825 C   0  0  0  0  0  0  0  0  0  0  0  0
   48.6875    8.0817   14.0476 C   0  0  0  0  0  0  0  0  0  0  0  0
   43.5707   10.4838   10.6890 C   0  0  2  0  0  0  0  0  0  0  0  0
   42.3414   10.8333   11.5378 C   0  0  0  0  0  0  0  0  0  0  0  0
   42.9739    6.1446   11.4312 C   0  0  0  0  0  0  0  0  0  0  0  0
   43.1801    3.7148   13.6308 F   0  0  0  0  0  0  0  0  0  0  0  0
   44.8691    3.2177   12.3556 F   0  0  0  0  0  0  0  0  0  0  0  0
   42.8700    3.3338   11.5118 F   0  0  0  0  0  0  0  0  0  0  0  0
   48.1869   11.8208   12.8681 Cl  0  0  0  0  0  0  0  0  0  0  0  0
   41.4814   11.9436   10.9192 C   0  0  0  0  0  0  0  0  0  0  0  0
   42.2098   13.2308   10.9133 N   0  0  0  0  0  0  0  0  0  0  0  0
   49.8848    7.1977   14.9117 Cl  0  0  0  0  0  0  0  0  0  0  0  0
   43.1786    9.9201    9.4362 O   0  0  0  0  0  0  0  0  0  0  0  0
   41.6056   14.2096   11.8410 C   0  0  0  0  0  0  0  0  0  0  0  0
   42.2851   13.7651    9.5369 C   0  0  0  0  0  0  0  0  0  0  0  0
   41.7701   13.8112   13.3163 C   0  0  0  0  0  0  0  0  0  0  0  0
   43.3812   14.8305    9.3776 C   0  0  0  0  0  0  0  0  0  0  0  0
   41.1617   14.8274   14.2885 C   0  0  0  0  0  0  0  0  0  0  0  0
   43.6102   15.2386    7.9186 C   0  0  0  0  0  0  0  0  0  0  0  0
   41.8705   16.1732   14.2930 C   0  0  0  0  0  0  0  0  0  0  0  0
   42.4271   15.9709    7.3049 C   0  0  0  0  0  0  0  0  0  0  0  0
   45.8358   11.2498   11.7417 H   0  0  0  0  0  0  0  0  0  0  0  0
   45.7864    5.4465   13.1311 H   0  0  0  0  0  0  0  0  0  0  0  0
   49.7535    9.9386   14.1803 H   0  0  0  0  0  0  0  0  0  0  0  0
   42.4064    8.0282   10.6577 H   0  0  0  0  0  0  0  0  0  0  0  0
   47.4707    6.3683   13.7981 H   0  0  0  0  0  0  0  0  0  0  0  0
   44.1000   11.4070   10.4275 H   0  0  0  0  0  0  0  0  0  0  0  0
   42.6543   11.1248   12.5478 H   0  0  0  0  0  0  0  0  0  0  0  0
   41.6987    9.9530   11.6531 H   0  0  0  0  0  0  0  0  0  0  0  0
   42.0627    5.6771   11.0612 H   0  0  0  0  0  0  0  0  0  0  0  0
   41.1763   11.6363    9.9103 H   0  0  0  0  0  0  0  0  0  0  0  0
   40.5404   12.0186   11.4794 H   0  0  0  0  0  0  0  0  0  0  0  0
   43.9632    9.4721    9.0747 H   0  0  0  0  0  0  0  0  0  0  0  0
   40.5433   14.3597   11.6059 H   0  0  0  0  0  0  0  0  0  0  0  0
   42.0950   15.1787   11.7133 H   0  0  0  0  0  0  0  0  0  0  0  0
   42.5428   12.9496    8.8483 H   0  0  0  0  0  0  0  0  0  0  0  0
   41.3078   14.1527    9.2242 H   0  0  0  0  0  0  0  0  0  0  0  0
   42.8339   13.6759   13.5473 H   0  0  0  0  0  0  0  0  0  0  0  0
   41.2794   12.8498   13.5037 H   0  0  0  0  0  0  0  0  0  0  0  0
   44.3254   14.4330    9.7722 H   0  0  0  0  0  0  0  0  0  0  0  0
   43.1469   15.7288    9.9589 H   0  0  0  0  0  0  0  0  0  0  0  0
   40.1002   14.9743   14.0581 H   0  0  0  0  0  0  0  0  0  0  0  0
   41.2111   14.4081   15.3009 H   0  0  0  0  0  0  0  0  0  0  0  0
   43.8482   14.3557    7.3145 H   0  0  0  0  0  0  0  0  0  0  0  0
   44.4869   15.8961    7.8761 H   0  0  0  0  0  0  0  0  0  0  0  0
   41.7392   16.7011   13.3436 H   0  0  0  0  0  0  0  0  0  0  0  0
   41.4600   16.8096   15.0830 H   0  0  0  0  0  0  0  0  0  0  0  0
   42.9422   16.0530   14.4783 H   0  0  0  0  0  0  0  0  0  0  0  0
   42.1571   16.8479    7.9006 H   0  0  0  0  0  0  0  0  0  0  0  0
   42.6795   16.3120    6.2958 H   0  0  0  0  0  0  0  0  0  0  0  0
   41.5499   15.3230    7.2261 H   0  0  0  0  0  0  0  0  0  0  0  0
  2  1  2  0
  3  2  1  0
  4  1  1  0
  5  4  2  0
  6 10  1  0
  7  5  1  0
  8  1  1  0
  9  3  1  0
 10  8  2  0
 11 14  1  0
 12  4  1  0
 13  2  1  0
 14 13  2  0
 15  5  1  0
 16 15  1  0
 17 10  1  0
 18  6  1  0
 19  6  1  0
 20  6  1  0
 21  9  1  0
 22 16  1  0
 23 22  1  0
 24 14  1  0
 25 15  1  0
 26 23  1  0
 27 23  1  0
 28 26  1  0
 29 27  1  0
 30 28  1  0
 31 29  1  0
 32 30  1  0
 33 31  1  0
 17 12  2  0
  7  3  2  0
  9 11  2  0
  7 34  1  0
  8 35  1  0
 11 36  1  0
 12 37  1  0
 13 38  1  0
 15 39  1  1
 16 40  1  0
 16 41  1  0
 17 42  1  0
 22 43  1  0
 22 44  1  0
 25 45  1  0
 26 46  1  0
 26 47  1  0
 27 48  1  0
 27 49  1  0
 28 50  1  0
 28 51  1  0
 29 52  1  0
 29 53  1  0
 30 54  1  0
 30 55  1  0
 31 56  1  0
 31 57  1  0
 32 58  1  0
 32 59  1  0
 32 60  1  0
 33 61  1  0
 33 62  1  0
 33 63  1  0
M  END
> <Uni-Dock RESULT> 
ENERGY=   -5.085  LOWER_BOUND=    4.691  UPPER_BOUND=    8.726
INTER + INTRA:          -5.085
INTER:                  -5.085
INTRA:                   0.000
UNBOUND:                 0.000

$$$$

     RDKit          3D

 63 65  0  0  0  0  0  0  0  0999 V2000
   47.3419    9.0303   12.9401 C   0  0  0  0  0  0  0  0  0  0  0  0
   46.5661    7.8175   12.8114 C   0  0  0  0  0  0  0  0  0  0  0  0
   45.2988    7.8521   12.1774 C   0  0  0  0  0  0  0  0  0  0  0  0
   46.8357   10.2634   12.4368 C   0  0  0  0  0  0  0  0  0  0  0  0
   45.5636   10.2867   11.8131 C   0  0  0  0  0  0  0  0  0  0  0  0
   50.7536   10.1776   14.3447 C   0  0  0  0  0  0  0  0  0  0  0  0
   44.8359    9.0882   11.6929 C   0  0  0  0  0  0  0  0  0  0  0  0
   48.6232    9.0600   13.5583 C   0  0  0  0  0  0  0  0  0  0  0  0
   44.5414    6.6535   12.0495 C   0  0  0  0  0  0  0  0  0  0  0  0
   49.3923   10.2275   13.6972 C   0  0  0  0  0  0  0  0  0  0  0  0
   45.0101    5.4349   12.5332 C   0  0  0  0  0  0  0  0  0  0  0  0
   47.6315   11.4268   12.5788 C   0  0  0  0  0  0  0  0  0  0  0  0
   47.0035    6.5536   13.2908 C   0  0  0  0  0  0  0  0  0  0  0  0
   46.2422    5.3923   13.1533 C   0  0  0  0  0  0  0  0  0  0  0  0
   44.9067   11.5315   11.2146 C   0  0  2  0  0  0  0  0  0  0  0  0
   45.5431   11.9460    9.8816 C   0  0  0  0  0  0  0  0  0  0  0  0
   48.8833   11.4145   13.1916 C   0  0  0  0  0  0  0  0  0  0  0  0
   51.7268    9.7959   13.4727 F   0  0  0  0  0  0  0  0  0  0  0  0
   50.8141    9.2955   15.3813 F   0  0  0  0  0  0  0  0  0  0  0  0
   51.1536   11.3759   14.8535 F   0  0  0  0  0  0  0  0  0  0  0  0
   42.9812    6.6190   11.2866 Cl  0  0  0  0  0  0  0  0  0  0  0  0
   44.7429   13.0292    9.1459 C   0  0  0  0  0  0  0  0  0  0  0  0
   43.4359   12.5026    8.6962 N   0  0  0  0  0  0  0  0  0  0  0  0
   46.8422    3.8983   13.7609 Cl  0  0  0  0  0  0  0  0  0  0  0  0
   44.9178   12.6184   12.1418 O   0  0  0  0  0  0  0  0  0  0  0  0
   43.3607   12.4004    7.2240 C   0  0  0  0  0  0  0  0  0  0  0  0
   42.3401   13.3345    9.2374 C   0  0  0  0  0  0  0  0  0  0  0  0
   44.2979   11.3241    6.6535 C   0  0  0  0  0  0  0  0  0  0  0  0
   40.9815   12.6172    9.1986 C   0  0  0  0  0  0  0  0  0  0  0  0
   44.2163   11.1976    5.1286 C   0  0  0  0  0  0  0  0  0  0  0  0
   39.8814   13.3802    9.9438 C   0  0  0  0  0  0  0  0  0  0  0  0
   42.8768   10.6810    4.6264 C   0  0  0  0  0  0  0  0  0  0  0  0
   39.5116   14.7001    9.2853 C   0  0  0  0  0  0  0  0  0  0  0  0
   43.8684    9.1342   11.1912 H   0  0  0  0  0  0  0  0  0  0  0  0
   49.0637    8.1480   13.9565 H   0  0  0  0  0  0  0  0  0  0  0  0
   44.4171    4.5310   12.4257 H   0  0  0  0  0  0  0  0  0  0  0  0
   47.2865   12.3896   12.2078 H   0  0  0  0  0  0  0  0  0  0  0  0
   47.9629    6.4476   13.7889 H   0  0  0  0  0  0  0  0  0  0  0  0
   43.8452   11.3125   11.0522 H   0  0  0  0  0  0  0  0  0  0  0  0
   45.6623   11.0684    9.2346 H   0  0  0  0  0  0  0  0  0  0  0  0
   46.5492   12.3466   10.0512 H   0  0  0  0  0  0  0  0  0  0  0  0
   49.4503   12.3410   13.2683 H   0  0  0  0  0  0  0  0  0  0  0  0
   44.6331   13.8998    9.8059 H   0  0  0  0  0  0  0  0  0  0  0  0
   45.3379   13.3989    8.3008 H   0  0  0  0  0  0  0  0  0  0  0  0
   44.7716   12.2335   13.0236 H   0  0  0  0  0  0  0  0  0  0  0  0
   43.5727   13.3721    6.7580 H   0  0  0  0  0  0  0  0  0  0  0  0
   42.3431   12.1280    6.9319 H   0  0  0  0  0  0  0  0  0  0  0  0
   42.5442   13.5552   10.2935 H   0  0  0  0  0  0  0  0  0  0  0  0
   42.2953   14.2959    8.7112 H   0  0  0  0  0  0  0  0  0  0  0  0
   44.0719   10.3542    7.1134 H   0  0  0  0  0  0  0  0  0  0  0  0
   45.3382   11.5597    6.9037 H   0  0  0  0  0  0  0  0  0  0  0  0
   41.0863   11.6288    9.6650 H   0  0  0  0  0  0  0  0  0  0  0  0
   40.6526   12.4487    8.1675 H   0  0  0  0  0  0  0  0  0  0  0  0
   44.4326   12.1656    4.6622 H   0  0  0  0  0  0  0  0  0  0  0  0
   44.9994   10.5044    4.7978 H   0  0  0  0  0  0  0  0  0  0  0  0
   40.1861   13.5606   10.9810 H   0  0  0  0  0  0  0  0  0  0  0  0
   38.9865   12.7476    9.9829 H   0  0  0  0  0  0  0  0  0  0  0  0
   42.0726   11.3997    4.8109 H   0  0  0  0  0  0  0  0  0  0  0  0
   42.9231   10.5090    3.5466 H   0  0  0  0  0  0  0  0  0  0  0  0
   42.6141    9.7344    5.1085 H   0  0  0  0  0  0  0  0  0  0  0  0
   39.2209   14.5495    8.2415 H   0  0  0  0  0  0  0  0  0  0  0  0
   38.6660   15.1569    9.8096 H   0  0  0  0  0  0  0  0  0  0  0  0
   40.3422   15.4105    9.3140 H   0  0  0  0  0  0  0  0  0  0  0  0
  2  1  2  0
  3  2  1  0
  4  1  1  0
  5  4  2  0
  6 10  1  0
  7  5  1  0
  8  1  1  0
  9  3  1  0
 10  8  2  0
 11 14  1  0
 12  4  1  0
 13  2  1  0
 14 13  2  0
 15  5  1  0
 16 15  1  0
 17 10  1  0
 18  6  1  0
 19  6  1  0
 20  6  1  0
 21  9  1  0
 22 16  1  0
 23 22  1  0
 24 14  1  0
 25 15  1  0
 26 23  1  0
 27 23  1  0
 28 26  1  0
 29 27  1  0
 30 28  1  0
 31 29  1  0
 32 30  1  0
 33 31  1  0
 17 12  2  0
  7  3  2  0
  9 11  2  0
  7 34  1  0
  8 35  1  0
 11 36  1  0
 12 37  1  0
 13 38  1  0
 15 39  1  1
 16 40  1  0
 16 41  1  0
 17 42  1  0
 22 43  1  0
 22 44  1  0
 25 45  1  0
 26 46  1  0
 26 47  1  0
 27 48  1  0
 27 49  1  0
 28 50  1  0
 28 51  1  0
 29 52  1  0
 29 53  1  0
 30 54  1  0
 30 55  1  0
 31 56  1  0
 31 57  1  0
 32 58  1  0
 32 59  1  0
 32 60  1  0
 33 61  1  0
 33 62  1  0
 33 63  1  0
M  END
> <Uni-Dock RESULT> 
ENERGY=   -4.904  LOWER_BOUND=    4.581  UPPER_BOUND=    9.205
INTER + INTRA:          -4.904
INTER:                  -4.904
INTRA:                   0.000
UNBOUND:                 0.000

$$$$

     RDKit          3D

 63 65  0  0  0  0  0  0  0  0999 V2000
   48.0880    7.1141   17.7021 C   0  0  0  0  0  0  0  0  0  0  0  0
   47.8493    8.2659   18.5422 C   0  0  0  0  0  0  0  0  0  0  0  0
   47.9874    9.5718   18.0086 C   0  0  0  0  0  0  0  0  0  0  0  0
   48.4673    7.2856   16.3394 C   0  0  0  0  0  0  0  0  0  0  0  0
   48.6108    8.5961   15.8202 C   0  0  0  0  0  0  0  0  0  0  0  0
   48.0093    3.2587   17.9433 C   0  0  0  0  0  0  0  0  0  0  0  0
   48.3616    9.6981   16.6592 C   0  0  0  0  0  0  0  0  0  0  0  0
   47.9583    5.7786   18.1754 C   0  0  0  0  0  0  0  0  0  0  0  0
   47.7465   10.7022   18.8398 C   0  0  0  0  0  0  0  0  0  0  0  0
   48.1889    4.6454   17.3776 C   0  0  0  0  0  0  0  0  0  0  0  0
   47.3763   10.5650   20.1749 C   0  0  0  0  0  0  0  0  0  0  0  0
   48.6857    6.1297   15.5501 C   0  0  0  0  0  0  0  0  0  0  0  0
   47.4717    8.1735   19.9088 C   0  0  0  0  0  0  0  0  0  0  0  0
   47.2411    9.2973   20.7032 C   0  0  0  0  0  0  0  0  0  0  0  0
   48.9947    8.9270   14.3771 C   0  0  2  0  0  0  0  0  0  0  0  0
   47.8407    8.6882   13.3947 C   0  0  0  0  0  0  0  0  0  0  0  0
   48.5483    4.8365   16.0517 C   0  0  0  0  0  0  0  0  0  0  0  0
   46.7100    2.8536   17.9155 F   0  0  0  0  0  0  0  0  0  0  0  0
   48.4024    3.1634   19.2443 F   0  0  0  0  0  0  0  0  0  0  0  0
   48.7146    2.3065   17.2720 F   0  0  0  0  0  0  0  0  0  0  0  0
   47.8975   12.3315   18.2565 Cl  0  0  0  0  0  0  0  0  0  0  0  0
   48.1198    9.2486   11.9937 C   0  0  0  0  0  0  0  0  0  0  0  0
   48.1809   10.7262   12.0214 N   0  0  0  0  0  0  0  0  0  0  0  0
   46.7862    9.1019   22.3513 Cl  0  0  0  0  0  0  0  0  0  0  0  0
   50.1611    8.2069   13.9742 O   0  0  0  0  0  0  0  0  0  0  0  0
   47.0439   11.3378   11.3026 C   0  0  0  0  0  0  0  0  0  0  0  0
   49.4759   11.1909   11.4804 C   0  0  0  0  0  0  0  0  0  0  0  0
   45.6992   11.1082   12.0109 C   0  0  0  0  0  0  0  0  0  0  0  0
   49.7965   12.6393   11.8820 C   0  0  0  0  0  0  0  0  0  0  0  0
   44.5146   11.7523   11.2830 C   0  0  0  0  0  0  0  0  0  0  0  0
   51.2210   13.0617   11.5077 C   0  0  0  0  0  0  0  0  0  0  0  0
   44.5552   13.2727   11.2699 C   0  0  0  0  0  0  0  0  0  0  0  0
   51.4523   13.1374   10.0067 C   0  0  0  0  0  0  0  0  0  0  0  0
   48.4618   10.6941   16.2260 H   0  0  0  0  0  0  0  0  0  0  0  0
   47.6658    5.5855   19.2057 H   0  0  0  0  0  0  0  0  0  0  0  0
   47.1967   11.4402   20.7930 H   0  0  0  0  0  0  0  0  0  0  0  0
   48.9746    6.2123   14.5044 H   0  0  0  0  0  0  0  0  0  0  0  0
   47.3474    7.2072   20.3889 H   0  0  0  0  0  0  0  0  0  0  0  0
   49.2884    9.9819   14.3354 H   0  0  0  0  0  0  0  0  0  0  0  0
   46.9152    9.1232   13.7914 H   0  0  0  0  0  0  0  0  0  0  0  0
   47.6561    7.6136   13.2821 H   0  0  0  0  0  0  0  0  0  0  0  0
   48.7263    3.9864   15.3949 H   0  0  0  0  0  0  0  0  0  0  0  0
   49.0477    8.8034   11.6112 H   0  0  0  0  0  0  0  0  0  0  0  0
   47.3412    8.8929   11.3065 H   0  0  0  0  0  0  0  0  0  0  0  0
   50.7453    8.1662   14.7514 H   0  0  0  0  0  0  0  0  0  0  0  0
   46.9955   10.9671   10.2698 H   0  0  0  0  0  0  0  0  0  0  0  0
   47.1942   12.4188   11.2410 H   0  0  0  0  0  0  0  0  0  0  0  0
   50.2816   10.5692   11.8927 H   0  0  0  0  0  0  0  0  0  0  0  0
   49.5005   11.0674   10.3908 H   0  0  0  0  0  0  0  0  0  0  0  0
   45.7504   11.4925   13.0370 H   0  0  0  0  0  0  0  0  0  0  0  0
   45.4902   10.0353   12.0833 H   0  0  0  0  0  0  0  0  0  0  0  0
   49.6856   12.7411   12.9694 H   0  0  0  0  0  0  0  0  0  0  0  0
   49.0921   13.3418   11.4236 H   0  0  0  0  0  0  0  0  0  0  0  0
   44.4622   11.3794   10.2536 H   0  0  0  0  0  0  0  0  0  0  0  0
   43.5903   11.4362   11.7819 H   0  0  0  0  0  0  0  0  0  0  0  0
   51.9468   12.3738   11.9563 H   0  0  0  0  0  0  0  0  0  0  0  0
   51.4141   14.0508   11.9403 H   0  0  0  0  0  0  0  0  0  0  0  0
   45.3883   13.6486   10.6680 H   0  0  0  0  0  0  0  0  0  0  0  0
   43.6314   13.6680   10.8364 H   0  0  0  0  0  0  0  0  0  0  0  0
   44.6511   13.6727   12.2839 H   0  0  0  0  0  0  0  0  0  0  0  0
   50.7273   13.8049    9.5315 H   0  0  0  0  0  0  0  0  0  0  0  0
   52.4551   13.5254    9.8008 H   0  0  0  0  0  0  0  0  0  0  0  0
   51.3752   12.1528    9.5376 H   0  0  0  0  0  0  0  0  0  0  0  0
  2  1  2  0
  3  2  1  0
  4  1  1  0
  5  4  2  0
  6 10  1  0
  7  5  1  0
  8  1  1  0
  9  3  1  0
 10  8  2  0
 11 14  1  0
 12  4  1  0
 13  2  1  0
 14 13  2  0
 15  5  1  0
 16 15  1  0
 17 10  1  0
 18  6  1  0
 19  6  1  0
 20  6  1  0
 21  9  1  0
 22 16  1  0
 23 22  1  0
 24 14  1  0
 25 15  1  0
 26 23  1  0
 27 23  1  0
 28 26  1  0
 29 27  1  0
 30 28  1  0
 31 29  1  0
 32 30  1  0
 33 31  1  0
 17 12  2  0
  7  3  2  0
  9 11  2  0
  7 34  1  0
  8 35  1  0
 11 36  1  0
 12 37  1  0
 13 38  1  0
 15 39  1  1
 16 40  1  0
 16 41  1  0
 17 42  1  0
 22 43  1  0
 22 44  1  0
 25 45  1  0
 26 46  1  0
 26 47  1  0
 27 48  1  0
 27 49  1  0
 28 50  1  0
 28 51  1  0
 29 52  1  0
 29 53  1  0
 30 54  1  0
 30 55  1  0
 31 56  1  0
 31 57  1  0
 32 58  1  0
 32 59  1  0
 32 60  1  0
 33 61  1  0
 33 62  1  0
 33 63  1  0
M  END
> <Uni-Dock RESULT> 
ENERGY=   -4.833  LOWER_BOUND=    5.385  UPPER_BOUND=    8.441
INTER + INTRA:          -4.833
INTER:                  -4.833
INTRA:                   0.000
UNBOUND:                 0.000

$$$$

     RDKit          3D

 63 65  0  0  0  0  0  0  0  0999 V2000
   47.1152    5.3602   14.5719 C   0  0  0  0  0  0  0  0  0  0  0  0
   46.1373    5.3811   13.5078 C   0  0  0  0  0  0  0  0  0  0  0  0
   45.8606    6.5919   12.8246 C   0  0  0  0  0  0  0  0  0  0  0  0
   47.7997    6.5539   14.9418 C   0  0  0  0  0  0  0  0  0  0  0  0
   47.5077    7.7598   14.2574 C   0  0  0  0  0  0  0  0  0  0  0  0
   48.6998    2.8359   17.0307 C   0  0  0  0  0  0  0  0  0  0  0  0
   46.5584    7.7472   13.2186 C   0  0  0  0  0  0  0  0  0  0  0  0
   47.4434    4.1763   15.2899 C   0  0  0  0  0  0  0  0  0  0  0  0
   44.8997    6.6052   11.7743 C   0  0  0  0  0  0  0  0  0  0  0  0
   48.3874    4.1342   16.3295 C   0  0  0  0  0  0  0  0  0  0  0  0
   44.2147    5.4548   11.3927 C   0  0  0  0  0  0  0  0  0  0  0  0
   48.7545    6.4873   15.9862 C   0  0  0  0  0  0  0  0  0  0  0  0
   45.4141    4.2330   13.0862 C   0  0  0  0  0  0  0  0  0  0  0  0
   44.4767    4.2718   12.0534 C   0  0  0  0  0  0  0  0  0  0  0  0
   48.1759    9.1069   14.5372 C   0  0  2  0  0  0  0  0  0  0  0  0
   49.6099    9.1729   13.9958 C   0  0  0  0  0  0  0  0  0  0  0  0
   49.0478    5.3064   16.6661 C   0  0  0  0  0  0  0  0  0  0  0  0
   49.6092    2.0864   16.3493 F   0  0  0  0  0  0  0  0  0  0  0  0
   47.6036    2.0421   17.1868 F   0  0  0  0  0  0  0  0  0  0  0  0
   49.2144    3.0074   18.2800 F   0  0  0  0  0  0  0  0  0  0  0  0
   44.5076    8.0505   10.8940 Cl  0  0  0  0  0  0  0  0  0  0  0  0
   50.2034   10.5873   14.0403 C   0  0  0  0  0  0  0  0  0  0  0  0
   49.4939   11.4846   13.1026 N   0  0  0  0  0  0  0  0  0  0  0  0
   43.6415    2.8368   11.6010 Cl  0  0  0  0  0  0  0  0  0  0  0  0
   48.1449    9.4199   15.9308 O   0  0  0  0  0  0  0  0  0  0  0  0
   50.3537   11.8894   11.9710 C   0  0  0  0  0  0  0  0  0  0  0  0
   48.9644   12.6595   13.8270 C   0  0  0  0  0  0  0  0  0  0  0  0
   50.6871   10.7212   11.0293 C   0  0  0  0  0  0  0  0  0  0  0  0
   47.8606   13.3867   13.0429 C   0  0  0  0  0  0  0  0  0  0  0  0
   51.5648   11.1326    9.8426 C   0  0  0  0  0  0  0  0  0  0  0  0
   47.1607   14.4738   13.8652 C   0  0  0  0  0  0  0  0  0  0  0  0
   50.8765   12.0756    8.8677 C   0  0  0  0  0  0  0  0  0  0  0  0
   48.0667   15.6452   14.2106 C   0  0  0  0  0  0  0  0  0  0  0  0
   46.3688    8.6866   12.6978 H   0  0  0  0  0  0  0  0  0  0  0  0
   46.9572    3.2332   15.0481 H   0  0  0  0  0  0  0  0  0  0  0  0
   43.4851    5.4853   10.5884 H   0  0  0  0  0  0  0  0  0  0  0  0
   49.3026    7.3729   16.3008 H   0  0  0  0  0  0  0  0  0  0  0  0
   45.5704    3.2695   13.5626 H   0  0  0  0  0  0  0  0  0  0  0  0
   47.5764    9.8907   14.0605 H   0  0  0  0  0  0  0  0  0  0  0  0
   49.6404    8.7892   12.9687 H   0  0  0  0  0  0  0  0  0  0  0  0
   50.2682    8.5274   14.5887 H   0  0  0  0  0  0  0  0  0  0  0  0
   49.7947    5.3170   17.4585 H   0  0  0  0  0  0  0  0  0  0  0  0
   50.1661   10.9560   15.0738 H   0  0  0  0  0  0  0  0  0  0  0  0
   51.2747   10.5312   13.8076 H   0  0  0  0  0  0  0  0  0  0  0  0
   47.2920    9.0965   16.2698 H   0  0  0  0  0  0  0  0  0  0  0  0
   51.2782   12.3565   12.3362 H   0  0  0  0  0  0  0  0  0  0  0  0
   49.8350   12.6448   11.3748 H   0  0  0  0  0  0  0  0  0  0  0  0
   48.5077   12.3258   14.7681 H   0  0  0  0  0  0  0  0  0  0  0  0
   49.7796   13.3444   14.0906 H   0  0  0  0  0  0  0  0  0  0  0  0
   49.7597   10.2680   10.6582 H   0  0  0  0  0  0  0  0  0  0  0  0
   51.2265    9.9395   11.5754 H   0  0  0  0  0  0  0  0  0  0  0  0
   47.1037   12.6555   12.7306 H   0  0  0  0  0  0  0  0  0  0  0  0
   48.2587   13.8418   12.1295 H   0  0  0  0  0  0  0  0  0  0  0  0
   52.4901   11.5945   10.2059 H   0  0  0  0  0  0  0  0  0  0  0  0
   51.8558   10.2258    9.2984 H   0  0  0  0  0  0  0  0  0  0  0  0
   46.7514   14.0429   14.7861 H   0  0  0  0  0  0  0  0  0  0  0  0
   46.3086   14.8510   13.2871 H   0  0  0  0  0  0  0  0  0  0  0  0
   50.6819   13.0524    9.3209 H   0  0  0  0  0  0  0  0  0  0  0  0
   51.5133   12.2395    7.9929 H   0  0  0  0  0  0  0  0  0  0  0  0
   49.9263   11.6582    8.5208 H   0  0  0  0  0  0  0  0  0  0  0  0
   48.5036   16.0823   13.3079 H   0  0  0  0  0  0  0  0  0  0  0  0
   47.4929   16.4255   14.7208 H   0  0  0  0  0  0  0  0  0  0  0  0
   48.8794   15.3425   14.8765 H   0  0  0  0  0  0  0  0  0  0  0  0
  2  1  2  0
  3  2  1  0
  4  1  1  0
  5  4  2  0
  6 10  1  0
  7  5  1  0
  8  1  1  0
  9  3  1  0
 10  8  2  0
 11 14  1  0
 12  4  1  0
 13  2  1  0
 14 13  2  0
 15  5  1  0
 16 15  1  0
 17 10  1  0
 18  6  1  0
 19  6  1  0
 20  6  1  0
 21  9  1  0
 22 16  1  0
 23 22  1  0
 24 14  1  0
 25 15  1  0
 26 23  1  0
 27 23  1  0
 28 26  1  0
 29 27  1  0
 30 28  1  0
 31 29  1  0
 32 30  1  0
 33 31  1  0
 17 12  2  0
  7  3  2  0
  9 11  2  0
  7 34  1  0
  8 35  1  0
 11 36  1  0
 12 37  1  0
 13 38  1  0
 15 39  1  1
 16 40  1  0
 16 41  1  0
 17 42  1  0
 22 43  1  0
 22 44  1  0
 25 45  1  0
 26 46  1  0
 26 47  1  0
 27 48  1  0
 27 49  1  0
 28 50  1  0
 28 51  1  0
 29 52  1  0
 29 53  1  0
 30 54  1  0
 30 55  1  0
 31 56  1  0
 31 57  1  0
 32 58  1  0
 32 59  1  0
 32 60  1  0
 33 61  1  0
 33 62  1  0
 33 63  1  0
M  END
> <Uni-Dock RESULT> 
ENERGY=   -4.826  LOWER_BOUND=    4.874  UPPER_BOUND=    7.184
INTER + INTRA:          -4.826
INTER:                  -4.826
INTRA:                   0.000
UNBOUND:                 0.000

$$$$

     RDKit          3D

 63 65  0  0  0  0  0  0  0  0999 V2000
   45.2176    9.6783   11.9564 C   0  0  0  0  0  0  0  0  0  0  0  0
   45.9044    8.4681   12.3475 C   0  0  0  0  0  0  0  0  0  0  0  0
   47.3106    8.4785   12.5255 C   0  0  0  0  0  0  0  0  0  0  0  0
   45.9492   10.8823   11.7433 C   0  0  0  0  0  0  0  0  0  0  0  0
   47.3556   10.8776   11.9157 C   0  0  0  0  0  0  0  0  0  0  0  0
   41.6210   10.8885   11.2295 C   0  0  0  0  0  0  0  0  0  0  0  0
   47.9954    9.6869   12.3071 C   0  0  0  0  0  0  0  0  0  0  0  0
   43.8081    9.7350   11.7696 C   0  0  0  0  0  0  0  0  0  0  0  0
   47.9808    7.2845   12.9153 C   0  0  0  0  0  0  0  0  0  0  0  0
   43.1211   10.8989   11.3864 C   0  0  0  0  0  0  0  0  0  0  0  0
   47.2922    6.0934   13.1288 C   0  0  0  0  0  0  0  0  0  0  0  0
   45.2357   12.0467   11.3666 C   0  0  0  0  0  0  0  0  0  0  0  0
   45.2433    7.2311   12.5746 C   0  0  0  0  0  0  0  0  0  0  0  0
   45.9232    6.0738   12.9562 C   0  0  0  0  0  0  0  0  0  0  0  0
   48.2616   12.0969   11.7378 C   0  0  2  0  0  0  0  0  0  0  0  0
   48.1445   13.0885   12.9026 C   0  0  0  0  0  0  0  0  0  0  0  0
   43.8528   12.0612   11.1934 C   0  0  0  0  0  0  0  0  0  0  0  0
   40.9762   11.0548   12.4168 F   0  0  0  0  0  0  0  0  0  0  0  0
   41.1518    9.7195   10.7103 F   0  0  0  0  0  0  0  0  0  0  0  0
   41.1572   11.8714   10.4088 F   0  0  0  0  0  0  0  0  0  0  0  0
   49.7007    7.2207   13.1507 Cl  0  0  0  0  0  0  0  0  0  0  0  0
   49.2201   14.1825   12.8696 C   0  0  0  0  0  0  0  0  0  0  0  0
   50.5620   13.6075   13.1073 N   0  0  0  0  0  0  0  0  0  0  0  0
   45.0500    4.6132   13.2125 Cl  0  0  0  0  0  0  0  0  0  0  0  0
   48.0134   12.7480   10.4905 O   0  0  0  0  0  0  0  0  0  0  0  0
   51.1236   14.0382   14.4044 C   0  0  0  0  0  0  0  0  0  0  0  0
   51.4652   13.9468   11.9872 C   0  0  0  0  0  0  0  0  0  0  0  0
   50.3619   13.4556   15.6056 C   0  0  0  0  0  0  0  0  0  0  0  0
   52.7031   13.0377   11.9324 C   0  0  0  0  0  0  0  0  0  0  0  0
   50.9458   13.8822   16.9566 C   0  0  0  0  0  0  0  0  0  0  0  0
   53.5366   13.2390   10.6626 C   0  0  0  0  0  0  0  0  0  0  0  0
   52.3366   13.3289   17.2265 C   0  0  0  0  0  0  0  0  0  0  0  0
   54.1987   14.6059   10.5868 C   0  0  0  0  0  0  0  0  0  0  0  0
   49.0763    9.7191   12.4503 H   0  0  0  0  0  0  0  0  0  0  0  0
   43.1963    8.8482   11.9233 H   0  0  0  0  0  0  0  0  0  0  0  0
   47.8218    5.1927   13.4261 H   0  0  0  0  0  0  0  0  0  0  0  0
   45.7523   12.9888   11.1954 H   0  0  0  0  0  0  0  0  0  0  0  0
   44.1671    7.1441   12.4568 H   0  0  0  0  0  0  0  0  0  0  0  0
   49.2973   11.7454   11.6692 H   0  0  0  0  0  0  0  0  0  0  0  0
   48.1902   12.5512   13.8578 H   0  0  0  0  0  0  0  0  0  0  0  0
   47.1710   13.5915   12.8748 H   0  0  0  0  0  0  0  0  0  0  0  0
   43.3595   12.9886   10.9062 H   0  0  0  0  0  0  0  0  0  0  0  0
   49.1607   14.7105   11.9088 H   0  0  0  0  0  0  0  0  0  0  0  0
   48.9736   14.9466   13.6182 H   0  0  0  0  0  0  0  0  0  0  0  0
   47.8252   12.0463    9.8429 H   0  0  0  0  0  0  0  0  0  0  0  0
   51.1503   15.1342   14.4689 H   0  0  0  0  0  0  0  0  0  0  0  0
   52.1584   13.6942   14.4826 H   0  0  0  0  0  0  0  0  0  0  0  0
   50.9318   13.8018   11.0385 H   0  0  0  0  0  0  0  0  0  0  0  0
   51.7525   15.0043   12.0358 H   0  0  0  0  0  0  0  0  0  0  0  0
   50.3506   12.3606   15.5417 H   0  0  0  0  0  0  0  0  0  0  0  0
   49.3176   13.7859   15.5853 H   0  0  0  0  0  0  0  0  0  0  0  0
   52.3779   11.9896   11.9637 H   0  0  0  0  0  0  0  0  0  0  0  0
   53.3489   13.1962   12.8028 H   0  0  0  0  0  0  0  0  0  0  0  0
   50.9682   14.9760   17.0242 H   0  0  0  0  0  0  0  0  0  0  0  0
   50.2743   13.5295   17.7490 H   0  0  0  0  0  0  0  0  0  0  0  0
   52.9123   13.0844    9.7751 H   0  0  0  0  0  0  0  0  0  0  0  0
   54.3190   12.4711   10.6361 H   0  0  0  0  0  0  0  0  0  0  0  0
   53.0791   13.7542   16.5444 H   0  0  0  0  0  0  0  0  0  0  0  0
   52.6465   13.5769   18.2464 H   0  0  0  0  0  0  0  0  0  0  0  0
   52.3538   12.2397   17.1233 H   0  0  0  0  0  0  0  0  0  0  0  0
   54.8143   14.7929   11.4717 H   0  0  0  0  0  0  0  0  0  0  0  0
   54.8468   14.6605    9.7062 H   0  0  0  0  0  0  0  0  0  0  0  0
   53.4593   15.4070   10.5043 H   0  0  0  0  0  0  0  0  0  0  0  0
  2  1  2  0
  3  2  1  0
  4  1  1  0
  5  4  2  0
  6 10  1  0
  7  5  1  0
  8  1  1  0
  9  3  1  0
 10  8  2  0
 11 14  1  0
 12  4  1  0
 13  2  1  0
 14 13  2  0
 15  5  1  0
 16 15  1  0
 17 10  1  0
 18  6  1  0
 19  6  1  0
 20  6  1  0
 21  9  1  0
 22 16  1  0
 23 22  1  0
 24 14  1  0
 25 15  1  0
 26 23  1  0
 27 23  1  0
 28 26  1  0
 29 27  1  0
 30 28  1  0
 31 29  1  0
 32 30  1  0
 33 31  1  0
 17 12  2  0
  7  3  2  0
  9 11  2  0
  7 34  1  0
  8 35  1  0
 11 36  1  0
 12 37  1  0
 13 38  1  0
 15 39  1  1
 16 40  1  0
 16 41  1  0
 17 42  1  0
 22 43  1  0
 22 44  1  0
 25 45  1  0
 26 46  1  0
 26 47  1  0
 27 48  1  0
 27 49  1  0
 28 50  1  0
 28 51  1  0
 29 52  1  0
 29 53  1  0
 30 54  1  0
 30 55  1  0
 31 56  1  0
 31 57  1  0
 32 58  1  0
 32 59  1  0
 32 60  1  0
 33 61  1  0
 33 62  1  0
 33 63  1  0
M  END
> <Uni-Dock RESULT> 
ENERGY=   -4.647  LOWER_BOUND=    3.819  UPPER_BOUND=    4.843
INTER + INTRA:          -4.647
INTER:                  -4.647
INTRA:                   0.000
UNBOUND:                 0.000

$$$$
