
     RDKit          3D

 63 65  0  0  0  0  0  0  0  0999 V2000
   45.7439    7.3523   12.5987 C   0  0  0  0  0  0  0  0  0  0  0  0
   45.6379    8.7301   12.1751 C   0  0  0  0  0  0  0  0  0  0  0  0
   46.7370    9.6097   12.3455 C   0  0  0  0  0  0  0  0  0  0  0  0
   46.9544    6.8702   13.1738 C   0  0  0  0  0  0  0  0  0  0  0  0
   48.0577    7.7492   13.3033 C   0  0  0  0  0  0  0  0  0  0  0  0
   43.5630    4.1670   12.7587 C   0  0  0  0  0  0  0  0  0  0  0  0
   47.9148    9.0934   12.9138 C   0  0  0  0  0  0  0  0  0  0  0  0
   44.6716    6.4253   12.4778 C   0  0  0  0  0  0  0  0  0  0  0  0
   46.6202   10.9695   11.9416 C   0  0  0  0  0  0  0  0  0  0  0  0
   44.7511    5.0867   12.8966 C   0  0  0  0  0  0  0  0  0  0  0  0
   45.4507   11.4678   11.3734 C   0  0  0  0  0  0  0  0  0  0  0  0
   47.0090    5.5227   13.6103 C   0  0  0  0  0  0  0  0  0  0  0  0
   44.4665    9.2805   11.5891 C   0  0  0  0  0  0  0  0  0  0  0  0
   44.3780   10.6171   11.1987 C   0  0  0  0  0  0  0  0  0  0  0  0
   49.3951    7.3146   13.8980 C   0  0  2  0  0  0  0  0  0  0  0  0
   49.4330    7.5589   15.4120 C   0  0  0  0  0  0  0  0  0  0  0  0
   45.9323    4.6472   13.4777 C   0  0  0  0  0  0  0  0  0  0  0  0
   43.9054    2.8497   12.7115 F   0  0  0  0  0  0  0  0  0  0  0  0
   42.8386    4.4037   11.6298 F   0  0  0  0  0  0  0  0  0  0  0  0
   42.6910    4.2916   13.7962 F   0  0  0  0  0  0  0  0  0  0  0  0
   47.9222   12.1049   12.1200 Cl  0  0  0  0  0  0  0  0  0  0  0  0
   50.6973    6.9542   16.0419 C   0  0  0  0  0  0  0  0  0  0  0  0
   50.8156    7.0710   17.5086 N   0  0  0  0  0  0  0  0  0  0  0  0
   42.9227   11.2086   10.4964 Cl  0  0  0  0  0  0  0  0  0  0  0  0
   50.4773    8.0135   13.2776 O   0  0  0  0  0  0  0  0  0  0  0  0
   49.7144    6.4545   18.2692 C   0  0  0  0  0  0  0  0  0  0  0  0
   51.0466    8.4714   17.9096 C   0  0  0  0  0  0  0  0  0  0  0  0
   49.4841    4.9693   17.9459 C   0  0  0  0  0  0  0  0  0  0  0  0
   51.6157    8.6472   19.3269 C   0  0  0  0  0  0  0  0  0  0  0  0
   48.3780    4.3322   18.7935 C   0  0  0  0  0  0  0  0  0  0  0  0
   52.9281    7.8910   19.5445 C   0  0  0  0  0  0  0  0  0  0  0  0
   48.7295    4.2118   20.2683 C   0  0  0  0  0  0  0  0  0  0  0  0
   53.4982    8.1567   20.9291 C   0  0  0  0  0  0  0  0  0  0  0  0
   48.7678    9.7553   13.0710 H   0  0  0  0  0  0  0  0  0  0  0  0
   43.7219    6.7356   12.0459 H   0  0  0  0  0  0  0  0  0  0  0  0
   45.3818   12.5086   11.0704 H   0  0  0  0  0  0  0  0  0  0  0  0
   47.9000    5.1166   14.0835 H   0  0  0  0  0  0  0  0  0  0  0  0
   43.5850    8.6680   11.4233 H   0  0  0  0  0  0  0  0  0  0  0  0
   49.5833    6.2606   13.6754 H   0  0  0  0  0  0  0  0  0  0  0  0
   49.4097    8.6376   15.6092 H   0  0  0  0  0  0  0  0  0  0  0  0
   48.5386    7.1231   15.8707 H   0  0  0  0  0  0  0  0  0  0  0  0
   46.0277    3.6221   13.8331 H   0  0  0  0  0  0  0  0  0  0  0  0
   51.5859    7.4089   15.5844 H   0  0  0  0  0  0  0  0  0  0  0  0
   50.7712    5.8956   15.7655 H   0  0  0  0  0  0  0  0  0  0  0  0
   50.3384    7.9570   12.3160 H   0  0  0  0  0  0  0  0  0  0  0  0
   49.9550    6.5181   19.3343 H   0  0  0  0  0  0  0  0  0  0  0  0
   48.7803    7.0112   18.1264 H   0  0  0  0  0  0  0  0  0  0  0  0
   51.7689    8.9323   17.2229 H   0  0  0  0  0  0  0  0  0  0  0  0
   50.1215    9.0554   17.8252 H   0  0  0  0  0  0  0  0  0  0  0  0
   49.1885    4.8557   16.8967 H   0  0  0  0  0  0  0  0  0  0  0  0
   50.4176    4.4091   18.0799 H   0  0  0  0  0  0  0  0  0  0  0  0
   50.8793    8.3432   20.0793 H   0  0  0  0  0  0  0  0  0  0  0  0
   51.7895    9.7185   19.4904 H   0  0  0  0  0  0  0  0  0  0  0  0
   48.1805    3.3267   18.4029 H   0  0  0  0  0  0  0  0  0  0  0  0
   47.4481    4.9021   18.6838 H   0  0  0  0  0  0  0  0  0  0  0  0
   53.6622    8.1950   18.7892 H   0  0  0  0  0  0  0  0  0  0  0  0
   52.7700    6.8129   19.4299 H   0  0  0  0  0  0  0  0  0  0  0  0
   48.8079    5.1927   20.7456 H   0  0  0  0  0  0  0  0  0  0  0  0
   47.9501    3.6514   20.7945 H   0  0  0  0  0  0  0  0  0  0  0  0
   49.6776    3.6824   20.4050 H   0  0  0  0  0  0  0  0  0  0  0  0
   52.7997    7.8362   21.7087 H   0  0  0  0  0  0  0  0  0  0  0  0
   53.7062    9.2222   21.0703 H   0  0  0  0  0  0  0  0  0  0  0  0
   54.4348    7.6071   21.0652 H   0  0  0  0  0  0  0  0  0  0  0  0
  2  1  2  0
  3  2  1  0
  4  1  1  0
  5  4  2  0
  6 10  1  0
  7  5  1  0
  8  1  1  0
  9  3  1  0
 10  8  2  0
 11 14  1  0
 12  4  1  0
 13  2  1  0
 14 13  2  0
 15  5  1  0
 16 15  1  0
 17 10  1  0
 18  6  1  0
 19  6  1  0
 20  6  1  0
 21  9  1  0
 22 16  1  0
 23 22  1  0
 24 14  1  0
 25 15  1  0
 26 23  1  0
 27 23  1  0
 28 26  1  0
 29 27  1  0
 30 28  1  0
 31 29  1  0
 32 30  1  0
 33 31  1  0
 17 12  2  0
  7  3  2  0
  9 11  2  0
  7 34  1  0
  8 35  1  0
 11 36  1  0
 12 37  1  0
 13 38  1  0
 15 39  1  1
 16 40  1  0
 16 41  1  0
 17 42  1  0
 22 43  1  0
 22 44  1  0
 25 45  1  0
 26 46  1  0
 26 47  1  0
 27 48  1  0
 27 49  1  0
 28 50  1  0
 28 51  1  0
 29 52  1  0
 29 53  1  0
 30 54  1  0
 30 55  1  0
 31 56  1  0
 31 57  1  0
 32 58  1  0
 32 59  1  0
 32 60  1  0
 33 61  1  0
 33 62  1  0
 33 63  1  0
M  END
> <Uni-Dock RESULT> 
ENERGY=   -6.259  LOWER_BOUND=    0.000  UPPER_BOUND=    0.000
INTER + INTRA:          -6.259
INTER:                  -6.259
INTRA:                   0.000
UNBOUND:                 0.000

$$$$

     RDKit          3D

 63 65  0  0  0  0  0  0  0  0999 V2000
   45.1533    7.7034   12.1121 C   0  0  0  0  0  0  0  0  0  0  0  0
   45.1744    6.2792   12.3580 C   0  0  0  0  0  0  0  0  0  0  0  0
   46.2297    5.7066   13.1122 C   0  0  0  0  0  0  0  0  0  0  0  0
   46.1818    8.5368   12.6376 C   0  0  0  0  0  0  0  0  0  0  0  0
   47.2096    7.9577   13.4216 C   0  0  0  0  0  0  0  0  0  0  0  0
   43.0095   10.3153   10.2385 C   0  0  0  0  0  0  0  0  0  0  0  0
   47.2233    6.5645   13.6160 C   0  0  0  0  0  0  0  0  0  0  0  0
   44.1370    8.3368   11.3443 C   0  0  0  0  0  0  0  0  0  0  0  0
   46.2535    4.3012   13.3364 C   0  0  0  0  0  0  0  0  0  0  0  0
   44.1074    9.7169   11.0829 C   0  0  0  0  0  0  0  0  0  0  0  0
   45.2600    3.4624   12.8380 C   0  0  0  0  0  0  0  0  0  0  0  0
   46.1473    9.9235   12.3455 C   0  0  0  0  0  0  0  0  0  0  0  0
   44.1817    5.3867   11.8717 C   0  0  0  0  0  0  0  0  0  0  0  0
   44.2260    4.0123   12.1078 C   0  0  0  0  0  0  0  0  0  0  0  0
   48.3443    8.7767   14.0321 C   0  0  2  0  0  0  0  0  0  0  0  0
   49.5480    8.8476   13.0838 C   0  0  0  0  0  0  0  0  0  0  0  0
   45.1345   10.5045   11.5837 C   0  0  0  0  0  0  0  0  0  0  0  0
   42.8063   11.6400   10.4808 F   0  0  0  0  0  0  0  0  0  0  0  0
   41.8037    9.7123   10.4333 F   0  0  0  0  0  0  0  0  0  0  0  0
   43.2688   10.2123    8.9065 F   0  0  0  0  0  0  0  0  0  0  0  0
   47.5135    3.5288   14.2485 Cl  0  0  0  0  0  0  0  0  0  0  0  0
   50.6145    9.8207   13.6099 C   0  0  0  0  0  0  0  0  0  0  0  0
   51.7963   10.0215   12.7486 N   0  0  0  0  0  0  0  0  0  0  0  0
   42.9850    2.9967   11.4835 Cl  0  0  0  0  0  0  0  0  0  0  0  0
   48.7575    8.2184   15.2820 O   0  0  0  0  0  0  0  0  0  0  0  0
   51.4980   10.5244   11.3961 C   0  0  0  0  0  0  0  0  0  0  0  0
   52.6361    8.8096   12.7137 C   0  0  0  0  0  0  0  0  0  0  0  0
   50.6912   11.8329   11.3779 C   0  0  0  0  0  0  0  0  0  0  0  0
   54.0763    9.0410   12.2284 C   0  0  0  0  0  0  0  0  0  0  0  0
   50.4477   12.3715    9.9642 C   0  0  0  0  0  0  0  0  0  0  0  0
   54.8266   10.0885   13.0540 C   0  0  0  0  0  0  0  0  0  0  0  0
   51.7108   12.8510    9.2658 C   0  0  0  0  0  0  0  0  0  0  0  0
   56.2695   10.2277   12.5941 C   0  0  0  0  0  0  0  0  0  0  0  0
   48.0547    6.1447   14.1843 H   0  0  0  0  0  0  0  0  0  0  0  0
   43.3247    7.7518   10.9170 H   0  0  0  0  0  0  0  0  0  0  0  0
   45.2952    2.3923   13.0211 H   0  0  0  0  0  0  0  0  0  0  0  0
   46.9261   10.5958   12.6979 H   0  0  0  0  0  0  0  0  0  0  0  0
   43.3407    5.7513   11.2892 H   0  0  0  0  0  0  0  0  0  0  0  0
   47.9935    9.7821   14.2813 H   0  0  0  0  0  0  0  0  0  0  0  0
   49.9890    7.8490   12.9772 H   0  0  0  0  0  0  0  0  0  0  0  0
   49.2078    9.1628   12.0913 H   0  0  0  0  0  0  0  0  0  0  0  0
   45.1585   11.5755   11.3872 H   0  0  0  0  0  0  0  0  0  0  0  0
   50.9575    9.4864   14.5979 H   0  0  0  0  0  0  0  0  0  0  0  0
   50.1524   10.7953   13.8073 H   0  0  0  0  0  0  0  0  0  0  0  0
   47.9506    8.0543   15.8009 H   0  0  0  0  0  0  0  0  0  0  0  0
   52.4454   10.7237   10.8871 H   0  0  0  0  0  0  0  0  0  0  0  0
   50.9782    9.7634   10.8014 H   0  0  0  0  0  0  0  0  0  0  0  0
   52.7103    8.3888   13.7252 H   0  0  0  0  0  0  0  0  0  0  0  0
   52.1726    8.0358   12.0888 H   0  0  0  0  0  0  0  0  0  0  0  0
   49.7071   11.6727   11.8329 H   0  0  0  0  0  0  0  0  0  0  0  0
   51.2031   12.5954   11.9777 H   0  0  0  0  0  0  0  0  0  0  0  0
   54.0868    9.3214   11.1692 H   0  0  0  0  0  0  0  0  0  0  0  0
   54.6119    8.0851   12.2929 H   0  0  0  0  0  0  0  0  0  0  0  0
   49.7501   13.2148   10.0322 H   0  0  0  0  0  0  0  0  0  0  0  0
   49.9586   11.6053    9.3516 H   0  0  0  0  0  0  0  0  0  0  0  0
   54.8126    9.8070   14.1133 H   0  0  0  0  0  0  0  0  0  0  0  0
   54.3345   11.0639   12.9694 H   0  0  0  0  0  0  0  0  0  0  0  0
   52.3916   12.0226    9.0502 H   0  0  0  0  0  0  0  0  0  0  0  0
   51.4550   13.3232    8.3119 H   0  0  0  0  0  0  0  0  0  0  0  0
   52.2426   13.5876    9.8761 H   0  0  0  0  0  0  0  0  0  0  0  0
   56.3183   10.5374   11.5452 H   0  0  0  0  0  0  0  0  0  0  0  0
   56.8080    9.2804   12.6986 H   0  0  0  0  0  0  0  0  0  0  0  0
   56.7879   10.9811   13.1953 H   0  0  0  0  0  0  0  0  0  0  0  0
  2  1  2  0
  3  2  1  0
  4  1  1  0
  5  4  2  0
  6 10  1  0
  7  5  1  0
  8  1  1  0
  9  3  1  0
 10  8  2  0
 11 14  1  0
 12  4  1  0
 13  2  1  0
 14 13  2  0
 15  5  1  0
 16 15  1  0
 17 10  1  0
 18  6  1  0
 19  6  1  0
 20  6  1  0
 21  9  1  0
 22 16  1  0
 23 22  1  0
 24 14  1  0
 25 15  1  0
 26 23  1  0
 27 23  1  0
 28 26  1  0
 29 27  1  0
 30 28  1  0
 31 29  1  0
 32 30  1  0
 33 31  1  0
 17 12  2  0
  7  3  2  0
  9 11  2  0
  7 34  1  0
  8 35  1  0
 11 36  1  0
 12 37  1  0
 13 38  1  0
 15 39  1  1
 16 40  1  0
 16 41  1  0
 17 42  1  0
 22 43  1  0
 22 44  1  0
 25 45  1  0
 26 46  1  0
 26 47  1  0
 27 48  1  0
 27 49  1  0
 28 50  1  0
 28 51  1  0
 29 52  1  0
 29 53  1  0
 30 54  1  0
 30 55  1  0
 31 56  1  0
 31 57  1  0
 32 58  1  0
 32 59  1  0
 32 60  1  0
 33 61  1  0
 33 62  1  0
 33 63  1  0
M  END
> <Uni-Dock RESULT> 
ENERGY=   -5.716  LOWER_BOUND=    4.434  UPPER_BOUND=    6.640
INTER + INTRA:          -5.716
INTER:                  -5.716
INTRA:                   0.000
UNBOUND:                 0.000

$$$$

     RDKit          3D

 63 65  0  0  0  0  0  0  0  0999 V2000
   47.9141    6.3464   19.2309 C   0  0  0  0  0  0  0  0  0  0  0  0
   47.7670    6.7436   20.6128 C   0  0  0  0  0  0  0  0  0  0  0  0
   47.8659    8.1122   20.9703 C   0  0  0  0  0  0  0  0  0  0  0  0
   48.1436    7.3269   18.2237 C   0  0  0  0  0  0  0  0  0  0  0  0
   48.2021    8.6943   18.5889 C   0  0  0  0  0  0  0  0  0  0  0  0
   47.9471    3.1210   17.1038 C   0  0  0  0  0  0  0  0  0  0  0  0
   48.0894    9.0486   19.9456 C   0  0  0  0  0  0  0  0  0  0  0  0
   47.8493    4.9893   18.8092 C   0  0  0  0  0  0  0  0  0  0  0  0
   47.7368    8.4949   22.3352 C   0  0  0  0  0  0  0  0  0  0  0  0
   48.0039    4.5828   17.4733 C   0  0  0  0  0  0  0  0  0  0  0  0
   47.5087    7.5589   23.3406 C   0  0  0  0  0  0  0  0  0  0  0  0
   48.3187    6.8963   16.8845 C   0  0  0  0  0  0  0  0  0  0  0  0
   47.5312    5.8244   21.6701 C   0  0  0  0  0  0  0  0  0  0  0  0
   47.4053    6.2253   23.0006 C   0  0  0  0  0  0  0  0  0  0  0  0
   48.4335    9.8114   17.5742 C   0  0  2  0  0  0  0  0  0  0  0  0
   49.9286   10.1193   17.4214 C   0  0  0  0  0  0  0  0  0  0  0  0
   48.2525    5.5540   16.5137 C   0  0  0  0  0  0  0  0  0  0  0  0
   47.6036    2.9081   15.8033 F   0  0  0  0  0  0  0  0  0  0  0  0
   47.0439    2.4222   17.8462 F   0  0  0  0  0  0  0  0  0  0  0  0
   49.1429    2.4966   17.2837 F   0  0  0  0  0  0  0  0  0  0  0  0
   47.8477   10.1502   22.8486 Cl  0  0  0  0  0  0  0  0  0  0  0  0
   50.1789   11.1068   16.2712 C   0  0  0  0  0  0  0  0  0  0  0  0
   51.5900   11.4321   15.9857 N   0  0  0  0  0  0  0  0  0  0  0  0
   47.1211    5.0499   24.2249 Cl  0  0  0  0  0  0  0  0  0  0  0  0
   47.7417   11.0010   17.9626 O   0  0  0  0  0  0  0  0  0  0  0  0
   52.4352   10.2741   15.6451 C   0  0  0  0  0  0  0  0  0  0  0  0
   52.1750   12.2418   17.0708 C   0  0  0  0  0  0  0  0  0  0  0  0
   51.9103    9.4407   14.4648 C   0  0  0  0  0  0  0  0  0  0  0  0
   53.4591   12.9954   16.6880 C   0  0  0  0  0  0  0  0  0  0  0  0
   52.8368    8.2803   14.0868 C   0  0  0  0  0  0  0  0  0  0  0  0
   53.2758   13.9190   15.4817 C   0  0  0  0  0  0  0  0  0  0  0  0
   54.1680    8.7256   13.5013 C   0  0  0  0  0  0  0  0  0  0  0  0
   54.5439   14.7052   15.1875 C   0  0  0  0  0  0  0  0  0  0  0  0
   48.1866   10.1055   20.1985 H   0  0  0  0  0  0  0  0  0  0  0  0
   47.6760    4.1955   19.5334 H   0  0  0  0  0  0  0  0  0  0  0  0
   47.4117    7.8711   24.3765 H   0  0  0  0  0  0  0  0  0  0  0  0
   48.5268    7.6035   16.0851 H   0  0  0  0  0  0  0  0  0  0  0  0
   47.4399    4.7600   21.4741 H   0  0  0  0  0  0  0  0  0  0  0  0
   47.9976    9.5413   16.6083 H   0  0  0  0  0  0  0  0  0  0  0  0
   50.3115   10.5465   18.3563 H   0  0  0  0  0  0  0  0  0  0  0  0
   50.4730    9.1857   17.2411 H   0  0  0  0  0  0  0  0  0  0  0  0
   48.3974    5.2783   15.4700 H   0  0  0  0  0  0  0  0  0  0  0  0
   49.6401   12.0426   16.4703 H   0  0  0  0  0  0  0  0  0  0  0  0
   49.7130   10.7244   15.3551 H   0  0  0  0  0  0  0  0  0  0  0  0
   46.8322   10.7397   18.1900 H   0  0  0  0  0  0  0  0  0  0  0  0
   53.4256   10.6430   15.3630 H   0  0  0  0  0  0  0  0  0  0  0  0
   52.5806    9.6255   16.5176 H   0  0  0  0  0  0  0  0  0  0  0  0
   51.4494   13.0016   17.3899 H   0  0  0  0  0  0  0  0  0  0  0  0
   52.3797   11.6190   17.9508 H   0  0  0  0  0  0  0  0  0  0  0  0
   50.9376    9.0038   14.7178 H   0  0  0  0  0  0  0  0  0  0  0  0
   51.7560   10.0863   13.5915 H   0  0  0  0  0  0  0  0  0  0  0  0
   54.2783   12.2923   16.5001 H   0  0  0  0  0  0  0  0  0  0  0  0
   53.7690   13.5955   17.5532 H   0  0  0  0  0  0  0  0  0  0  0  0
   52.3241    7.6582   13.3433 H   0  0  0  0  0  0  0  0  0  0  0  0
   53.0155    7.6447   14.9617 H   0  0  0  0  0  0  0  0  0  0  0  0
   52.4543   14.6196   15.6712 H   0  0  0  0  0  0  0  0  0  0  0  0
   53.0087   13.3362   14.5931 H   0  0  0  0  0  0  0  0  0  0  0  0
   54.7837    9.2396   14.2448 H   0  0  0  0  0  0  0  0  0  0  0  0
   54.7329    7.8557   13.1513 H   0  0  0  0  0  0  0  0  0  0  0  0
   54.0187    9.3970   12.6500 H   0  0  0  0  0  0  0  0  0  0  0  0
   55.3787   14.0332   14.9645 H   0  0  0  0  0  0  0  0  0  0  0  0
   54.8244   15.3314   16.0404 H   0  0  0  0  0  0  0  0  0  0  0  0
   54.3928   15.3581   14.3222 H   0  0  0  0  0  0  0  0  0  0  0  0
  2  1  2  0
  3  2  1  0
  4  1  1  0
  5  4  2  0
  6 10  1  0
  7  5  1  0
  8  1  1  0
  9  3  1  0
 10  8  2  0
 11 14  1  0
 12  4  1  0
 13  2  1  0
 14 13  2  0
 15  5  1  0
 16 15  1  0
 17 10  1  0
 18  6  1  0
 19  6  1  0
 20  6  1  0
 21  9  1  0
 22 16  1  0
 23 22  1  0
 24 14  1  0
 25 15  1  0
 26 23  1  0
 27 23  1  0
 28 26  1  0
 29 27  1  0
 30 28  1  0
 31 29  1  0
 32 30  1  0
 33 31  1  0
 17 12  2  0
  7  3  2  0
  9 11  2  0
  7 34  1  0
  8 35  1  0
 11 36  1  0
 12 37  1  0
 13 38  1  0
 15 39  1  1
 16 40  1  0
 16 41  1  0
 17 42  1  0
 22 43  1  0
 22 44  1  0
 25 45  1  0
 26 46  1  0
 26 47  1  0
 27 48  1  0
 27 49  1  0
 28 50  1  0
 28 51  1  0
 29 52  1  0
 29 53  1  0
 30 54  1  0
 30 55  1  0
 31 56  1  0
 31 57  1  0
 32 58  1  0
 32 59  1  0
 32 60  1  0
 33 61  1  0
 33 62  1  0
 33 63  1  0
M  END
> <Uni-Dock RESULT> 
ENERGY=   -5.243  LOWER_BOUND=    5.451  UPPER_BOUND=    7.868
INTER + INTRA:          -5.243
INTER:                  -5.243
INTRA:                   0.000
UNBOUND:                 0.000

$$$$

     RDKit          3D

 63 65  0  0  0  0  0  0  0  0999 V2000
   51.0942    4.0729   18.9765 C   0  0  0  0  0  0  0  0  0  0  0  0
   52.5259    3.8765   18.9510 C   0  0  0  0  0  0  0  0  0  0  0  0
   53.3427    4.4939   19.9320 C   0  0  0  0  0  0  0  0  0  0  0  0
   50.4983    4.8732   19.9928 C   0  0  0  0  0  0  0  0  0  0  0  0
   51.3214    5.4530   20.9893 C   0  0  0  0  0  0  0  0  0  0  0  0
   47.9697    3.0745   16.9346 C   0  0  0  0  0  0  0  0  0  0  0  0
   52.7149    5.2728   20.9200 C   0  0  0  0  0  0  0  0  0  0  0  0
   50.2217    3.5017   18.0088 C   0  0  0  0  0  0  0  0  0  0  0  0
   54.7535    4.3100   19.8914 C   0  0  0  0  0  0  0  0  0  0  0  0
   48.8299    3.6929   18.0090 C   0  0  0  0  0  0  0  0  0  0  0  0
   55.3634    3.5305   18.9118 C   0  0  0  0  0  0  0  0  0  0  0  0
   49.0952    5.0726   19.9644 C   0  0  0  0  0  0  0  0  0  0  0  0
   53.1901    3.0885   17.9732 C   0  0  0  0  0  0  0  0  0  0  0  0
   54.5753    2.9213   17.9566 C   0  0  0  0  0  0  0  0  0  0  0  0
   50.7666    6.3153   22.1205 C   0  0  2  0  0  0  0  0  0  0  0  0
   50.7474    7.7981   21.7278 C   0  0  0  0  0  0  0  0  0  0  0  0
   48.2755    4.4978   18.9942 C   0  0  0  0  0  0  0  0  0  0  0  0
   46.6737    2.9024   17.3164 F   0  0  0  0  0  0  0  0  0  0  0  0
   48.4096    1.8452   16.5466 F   0  0  0  0  0  0  0  0  0  0  0  0
   47.9311    3.8323   15.8048 F   0  0  0  0  0  0  0  0  0  0  0  0
   55.8171    5.0351   21.0571 Cl  0  0  0  0  0  0  0  0  0  0  0  0
   50.0204    8.6444   22.7843 C   0  0  0  0  0  0  0  0  0  0  0  0
   49.8822   10.0833   22.4857 N   0  0  0  0  0  0  0  0  0  0  0  0
   55.3053    1.9510   16.7373 Cl  0  0  0  0  0  0  0  0  0  0  0  0
   51.5411    6.1500   23.3111 O   0  0  0  0  0  0  0  0  0  0  0  0
   49.1653   10.3897   21.2354 C   0  0  0  0  0  0  0  0  0  0  0  0
   51.1888   10.7642   22.5534 C   0  0  0  0  0  0  0  0  0  0  0  0
   47.7619    9.7681   21.1493 C   0  0  0  0  0  0  0  0  0  0  0  0
   51.1087   12.2925   22.6995 C   0  0  0  0  0  0  0  0  0  0  0  0
   47.0098   10.1519   19.8706 C   0  0  0  0  0  0  0  0  0  0  0  0
   50.3022   12.7369   23.9217 C   0  0  0  0  0  0  0  0  0  0  0  0
   46.6322   11.6235   19.8009 C   0  0  0  0  0  0  0  0  0  0  0  0
   50.3163   14.2499   24.0752 C   0  0  0  0  0  0  0  0  0  0  0  0
   53.3241    5.7720   21.6750 H   0  0  0  0  0  0  0  0  0  0  0  0
   50.6189    2.8806   17.2081 H   0  0  0  0  0  0  0  0  0  0  0  0
   56.4418    3.4013   18.8986 H   0  0  0  0  0  0  0  0  0  0  0  0
   48.5976    5.7001   20.7002 H   0  0  0  0  0  0  0  0  0  0  0  0
   52.6316    2.5815   17.1917 H   0  0  0  0  0  0  0  0  0  0  0  0
   49.7629    5.9789   22.3952 H   0  0  0  0  0  0  0  0  0  0  0  0
   51.7768    8.1607   21.6179 H   0  0  0  0  0  0  0  0  0  0  0  0
   50.2563    7.9076   20.7546 H   0  0  0  0  0  0  0  0  0  0  0  0
   47.2031    4.6866   19.0178 H   0  0  0  0  0  0  0  0  0  0  0  0
   50.5301    8.5375   23.7509 H   0  0  0  0  0  0  0  0  0  0  0  0
   49.0236    8.2244   22.9643 H   0  0  0  0  0  0  0  0  0  0  0  0
   51.6526    5.1929   23.4474 H   0  0  0  0  0  0  0  0  0  0  0  0
   49.0411   11.4744   21.1677 H   0  0  0  0  0  0  0  0  0  0  0  0
   49.7555   10.0879   20.3617 H   0  0  0  0  0  0  0  0  0  0  0  0
   51.7469   10.3953   23.4241 H   0  0  0  0  0  0  0  0  0  0  0  0
   51.7958   10.5248   21.6712 H   0  0  0  0  0  0  0  0  0  0  0  0
   47.8350    8.6746   21.1612 H   0  0  0  0  0  0  0  0  0  0  0  0
   47.1697   10.0608   22.0250 H   0  0  0  0  0  0  0  0  0  0  0  0
   50.6942   12.7462   21.7923 H   0  0  0  0  0  0  0  0  0  0  0  0
   52.1329   12.6772   22.7885 H   0  0  0  0  0  0  0  0  0  0  0  0
   46.0898    9.5572   19.8203 H   0  0  0  0  0  0  0  0  0  0  0  0
   47.6073    9.8848   18.9914 H   0  0  0  0  0  0  0  0  0  0  0  0
   50.7172   12.2799   24.8275 H   0  0  0  0  0  0  0  0  0  0  0  0
   49.2627   12.4017   23.8344 H   0  0  0  0  0  0  0  0  0  0  0  0
   47.5153   12.2627   19.7135 H   0  0  0  0  0  0  0  0  0  0  0  0
   46.0047   11.8079   18.9231 H   0  0  0  0  0  0  0  0  0  0  0  0
   46.0697   11.9280   20.6890 H   0  0  0  0  0  0  0  0  0  0  0  0
   49.8801   14.7370   23.1972 H   0  0  0  0  0  0  0  0  0  0  0  0
   51.3378   14.6221   24.2032 H   0  0  0  0  0  0  0  0  0  0  0  0
   49.7342   14.5473   24.9529 H   0  0  0  0  0  0  0  0  0  0  0  0
  2  1  2  0
  3  2  1  0
  4  1  1  0
  5  4  2  0
  6 10  1  0
  7  5  1  0
  8  1  1  0
  9  3  1  0
 10  8  2  0
 11 14  1  0
 12  4  1  0
 13  2  1  0
 14 13  2  0
 15  5  1  0
 16 15  1  0
 17 10  1  0
 18  6  1  0
 19  6  1  0
 20  6  1  0
 21  9  1  0
 22 16  1  0
 23 22  1  0
 24 14  1  0
 25 15  1  0
 26 23  1  0
 27 23  1  0
 28 26  1  0
 29 27  1  0
 30 28  1  0
 31 29  1  0
 32 30  1  0
 33 31  1  0
 17 12  2  0
  7  3  2  0
  9 11  2  0
  7 34  1  0
  8 35  1  0
 11 36  1  0
 12 37  1  0
 13 38  1  0
 15 39  1  1
 16 40  1  0
 16 41  1  0
 17 42  1  0
 22 43  1  0
 22 44  1  0
 25 45  1  0
 26 46  1  0
 26 47  1  0
 27 48  1  0
 27 49  1  0
 28 50  1  0
 28 51  1  0
 29 52  1  0
 29 53  1  0
 30 54  1  0
 30 55  1  0
 31 56  1  0
 31 57  1  0
 32 58  1  0
 32 59  1  0
 32 60  1  0
 33 61  1  0
 33 62  1  0
 33 63  1  0
M  END
> <Uni-Dock RESULT> 
ENERGY=   -4.876  LOWER_BOUND=    6.797  UPPER_BOUND=    9.150
INTER + INTRA:          -4.876
INTER:                  -4.876
INTRA:                   0.000
UNBOUND:                 0.000

$$$$

     RDKit          3D

 63 65  0  0  0  0  0  0  0  0999 V2000
   48.2369    8.4185   18.2726 C   0  0  0  0  0  0  0  0  0  0  0  0
   48.0656    7.5711   19.4309 C   0  0  0  0  0  0  0  0  0  0  0  0
   47.7016    8.1410   20.6773 C   0  0  0  0  0  0  0  0  0  0  0  0
   48.0269    9.8235   18.3748 C   0  0  0  0  0  0  0  0  0  0  0  0
   47.6262   10.3753   19.6164 C   0  0  0  0  0  0  0  0  0  0  0  0
   49.2442    8.1190   14.5545 C   0  0  0  0  0  0  0  0  0  0  0  0
   47.5002    9.5313   20.7348 C   0  0  0  0  0  0  0  0  0  0  0  0
   48.6238    7.9136   17.0001 C   0  0  0  0  0  0  0  0  0  0  0  0
   47.5509    7.3029   21.8179 C   0  0  0  0  0  0  0  0  0  0  0  0
   48.8088    8.7230   15.8668 C   0  0  0  0  0  0  0  0  0  0  0  0
   47.7464    5.9261   21.7470 C   0  0  0  0  0  0  0  0  0  0  0  0
   48.2393   10.6269   17.2265 C   0  0  0  0  0  0  0  0  0  0  0  0
   48.2520    6.1630   19.4044 C   0  0  0  0  0  0  0  0  0  0  0  0
   48.0953    5.3625   20.5365 C   0  0  0  0  0  0  0  0  0  0  0  0
   47.3691   11.8673   19.8131 C   0  0  2  0  0  0  0  0  0  0  0  0
   48.6423   12.5934   20.2659 C   0  0  0  0  0  0  0  0  0  0  0  0
   48.6235   10.0921   15.9977 C   0  0  0  0  0  0  0  0  0  0  0  0
   48.8992    8.8737   13.4746 F   0  0  0  0  0  0  0  0  0  0  0  0
   48.7062    6.8871   14.3345 F   0  0  0  0  0  0  0  0  0  0  0  0
   50.5935    7.9565   14.4838 F   0  0  0  0  0  0  0  0  0  0  0  0
   47.1087    7.9287   23.3764 Cl  0  0  0  0  0  0  0  0  0  0  0  0
   48.4381   14.1161   20.2844 C   0  0  0  0  0  0  0  0  0  0  0  0
   49.6168   14.9283   20.6446 N   0  0  0  0  0  0  0  0  0  0  0  0
   48.3399    3.6630   20.4229 Cl  0  0  0  0  0  0  0  0  0  0  0  0
   46.3335   12.0812   20.7756 O   0  0  0  0  0  0  0  0  0  0  0  0
   50.7879   14.7411   19.7701 C   0  0  0  0  0  0  0  0  0  0  0  0
   49.9595   14.7586   22.0691 C   0  0  0  0  0  0  0  0  0  0  0  0
   50.5023   14.9857   18.2795 C   0  0  0  0  0  0  0  0  0  0  0  0
   50.8608   15.8614   22.6478 C   0  0  0  0  0  0  0  0  0  0  0  0
   51.7472   14.8486   17.3966 C   0  0  0  0  0  0  0  0  0  0  0  0
   50.2706   17.2641   22.4876 C   0  0  0  0  0  0  0  0  0  0  0  0
   52.7858   15.9348   17.6301 C   0  0  0  0  0  0  0  0  0  0  0  0
   51.1523   18.3150   23.1443 C   0  0  0  0  0  0  0  0  0  0  0  0
   47.2367    9.9948   21.6867 H   0  0  0  0  0  0  0  0  0  0  0  0
   48.7985    6.8484   16.8605 H   0  0  0  0  0  0  0  0  0  0  0  0
   47.6253    5.3033   22.6287 H   0  0  0  0  0  0  0  0  0  0  0  0
   48.1219   11.7075   17.2619 H   0  0  0  0  0  0  0  0  0  0  0  0
   48.5281    5.6539   18.4856 H   0  0  0  0  0  0  0  0  0  0  0  0
   46.9838   12.3097   18.8901 H   0  0  0  0  0  0  0  0  0  0  0  0
   48.9202   12.2523   21.2707 H   0  0  0  0  0  0  0  0  0  0  0  0
   49.4659   12.3321   19.5923 H   0  0  0  0  0  0  0  0  0  0  0  0
   48.7758   10.7561   15.1479 H   0  0  0  0  0  0  0  0  0  0  0  0
   47.6204   14.3660   20.9732 H   0  0  0  0  0  0  0  0  0  0  0  0
   48.0685   14.4458   19.3061 H   0  0  0  0  0  0  0  0  0  0  0  0
   45.5954   11.4945   20.5345 H   0  0  0  0  0  0  0  0  0  0  0  0
   51.5591   15.4560   20.0712 H   0  0  0  0  0  0  0  0  0  0  0  0
   51.2197   13.7417   19.9028 H   0  0  0  0  0  0  0  0  0  0  0  0
   49.0389   14.7605   22.6677 H   0  0  0  0  0  0  0  0  0  0  0  0
   50.4380   13.7858   22.2385 H   0  0  0  0  0  0  0  0  0  0  0  0
   49.7693   14.2575   17.9140 H   0  0  0  0  0  0  0  0  0  0  0  0
   50.0631   15.9814   18.1421 H   0  0  0  0  0  0  0  0  0  0  0  0
   51.8585   15.8212   22.1966 H   0  0  0  0  0  0  0  0  0  0  0  0
   51.0041   15.6542   23.7161 H   0  0  0  0  0  0  0  0  0  0  0  0
   51.4319   14.8929   16.3472 H   0  0  0  0  0  0  0  0  0  0  0  0
   52.2057   13.8645   17.5477 H   0  0  0  0  0  0  0  0  0  0  0  0
   49.2717   17.3010   22.9375 H   0  0  0  0  0  0  0  0  0  0  0  0
   50.1593   17.5115   21.4260 H   0  0  0  0  0  0  0  0  0  0  0  0
   53.2353   15.8560   18.6239 H   0  0  0  0  0  0  0  0  0  0  0  0
   53.5930   15.8450   16.8960 H   0  0  0  0  0  0  0  0  0  0  0  0
   52.3438   16.9307   17.5268 H   0  0  0  0  0  0  0  0  0  0  0  0
   52.1511   18.3242   22.6962 H   0  0  0  0  0  0  0  0  0  0  0  0
   51.2582   18.1241   24.2170 H   0  0  0  0  0  0  0  0  0  0  0  0
   50.7142   19.3099   23.0181 H   0  0  0  0  0  0  0  0  0  0  0  0
  2  1  2  0
  3  2  1  0
  4  1  1  0
  5  4  2  0
  6 10  1  0
  7  5  1  0
  8  1  1  0
  9  3  1  0
 10  8  2  0
 11 14  1  0
 12  4  1  0
 13  2  1  0
 14 13  2  0
 15  5  1  0
 16 15  1  0
 17 10  1  0
 18  6  1  0
 19  6  1  0
 20  6  1  0
 21  9  1  0
 22 16  1  0
 23 22  1  0
 24 14  1  0
 25 15  1  0
 26 23  1  0
 27 23  1  0
 28 26  1  0
 29 27  1  0
 30 28  1  0
 31 29  1  0
 32 30  1  0
 33 31  1  0
 17 12  2  0
  7  3  2  0
  9 11  2  0
  7 34  1  0
  8 35  1  0
 11 36  1  0
 12 37  1  0
 13 38  1  0
 15 39  1  1
 16 40  1  0
 16 41  1  0
 17 42  1  0
 22 43  1  0
 22 44  1  0
 25 45  1  0
 26 46  1  0
 26 47  1  0
 27 48  1  0
 27 49  1  0
 28 50  1  0
 28 51  1  0
 29 52  1  0
 29 53  1  0
 30 54  1  0
 30 55  1  0
 31 56  1  0
 31 57  1  0
 32 58  1  0
 32 59  1  0
 32 60  1  0
 33 61  1  0
 33 62  1  0
 33 63  1  0
M  END
> <Uni-Dock RESULT> 
ENERGY=   -4.600  LOWER_BOUND=    6.344  UPPER_BOUND=    8.974
INTER + INTRA:          -4.600
INTER:                  -4.600
INTRA:                   0.000
UNBOUND:                 0.000

$$$$

     RDKit          3D

 63 65  0  0  0  0  0  0  0  0999 V2000
   48.7205    8.3495   12.0626 C   0  0  0  0  0  0  0  0  0  0  0  0
   50.0294    8.5922   11.4995 C   0  0  0  0  0  0  0  0  0  0  0  0
   50.4655    9.9217   11.2693 C   0  0  0  0  0  0  0  0  0  0  0  0
   47.8719    9.4420   12.4012 C   0  0  0  0  0  0  0  0  0  0  0  0
   48.3346   10.7659   12.2019 C   0  0  0  0  0  0  0  0  0  0  0  0
   46.4601    5.3680   13.0267 C   0  0  0  0  0  0  0  0  0  0  0  0
   49.5991   10.9718   11.6208 C   0  0  0  0  0  0  0  0  0  0  0  0
   48.2140    7.0408   12.2962 C   0  0  0  0  0  0  0  0  0  0  0  0
   51.7488   10.1534   10.6989 C   0  0  0  0  0  0  0  0  0  0  0  0
   46.9396    6.7849   12.8292 C   0  0  0  0  0  0  0  0  0  0  0  0
   52.6011    9.1052   10.3611 C   0  0  0  0  0  0  0  0  0  0  0  0
   46.5814    9.1644   12.9176 C   0  0  0  0  0  0  0  0  0  0  0  0
   50.9321    7.5549   11.1425 C   0  0  0  0  0  0  0  0  0  0  0  0
   52.1868    7.8083   10.5872 C   0  0  0  0  0  0  0  0  0  0  0  0
   47.4965   11.9948   12.5463 C   0  0  2  0  0  0  0  0  0  0  0  0
   46.6591   12.4483   11.3437 C   0  0  0  0  0  0  0  0  0  0  0  0
   46.1210    7.8652   13.1271 C   0  0  0  0  0  0  0  0  0  0  0  0
   45.4901    5.2561   13.9762 F   0  0  0  0  0  0  0  0  0  0  0  0
   47.4554    4.5210   13.4102 F   0  0  0  0  0  0  0  0  0  0  0  0
   45.9348    4.8378   11.8887 F   0  0  0  0  0  0  0  0  0  0  0  0
   52.3500   11.7526   10.3870 Cl  0  0  0  0  0  0  0  0  0  0  0  0
   45.6786   13.5639   11.7371 C   0  0  0  0  0  0  0  0  0  0  0  0
   44.7717   14.0405   10.6745 N   0  0  0  0  0  0  0  0  0  0  0  0
   53.2231    6.4961   10.1805 Cl  0  0  0  0  0  0  0  0  0  0  0  0
   48.3307   13.0733   12.9771 O   0  0  0  0  0  0  0  0  0  0  0  0
   43.9060   13.0021   10.0881 C   0  0  0  0  0  0  0  0  0  0  0  0
   45.5147   14.7868    9.6419 C   0  0  0  0  0  0  0  0  0  0  0  0
   43.0484   12.2471   11.1166 C   0  0  0  0  0  0  0  0  0  0  0  0
   44.6441   15.6863    8.7494 C   0  0  0  0  0  0  0  0  0  0  0  0
   42.1097   11.2174   10.4791 C   0  0  0  0  0  0  0  0  0  0  0  0
   43.8238   16.7054    9.5432 C   0  0  0  0  0  0  0  0  0  0  0  0
   41.0017   11.8357    9.6406 C   0  0  0  0  0  0  0  0  0  0  0  0
   43.0413   17.6269    8.6205 C   0  0  0  0  0  0  0  0  0  0  0  0
   49.9055   12.0026   11.4369 H   0  0  0  0  0  0  0  0  0  0  0  0
   48.8167    6.1665   12.0574 H   0  0  0  0  0  0  0  0  0  0  0  0
   53.5774    9.3028    9.9280 H   0  0  0  0  0  0  0  0  0  0  0  0
   45.8855    9.9635   13.1622 H   0  0  0  0  0  0  0  0  0  0  0  0
   50.6704    6.5115   11.2922 H   0  0  0  0  0  0  0  0  0  0  0  0
   46.8518   11.7846   13.4043 H   0  0  0  0  0  0  0  0  0  0  0  0
   47.3243   12.8126   10.5513 H   0  0  0  0  0  0  0  0  0  0  0  0
   46.1104   11.5896   10.9413 H   0  0  0  0  0  0  0  0  0  0  0  0
   45.1188    7.7089   13.5239 H   0  0  0  0  0  0  0  0  0  0  0  0
   46.2409   14.4235   12.1252 H   0  0  0  0  0  0  0  0  0  0  0  0
   45.0768   13.2348   12.5927 H   0  0  0  0  0  0  0  0  0  0  0  0
   48.9456   12.7107   13.6386 H   0  0  0  0  0  0  0  0  0  0  0  0
   43.2180   13.4841    9.3875 H   0  0  0  0  0  0  0  0  0  0  0  0
   44.4955   12.2854    9.5036 H   0  0  0  0  0  0  0  0  0  0  0  0
   46.2500   15.4434   10.1256 H   0  0  0  0  0  0  0  0  0  0  0  0
   46.0843   14.1002    9.0031 H   0  0  0  0  0  0  0  0  0  0  0  0
   43.6938   11.7023   11.8150 H   0  0  0  0  0  0  0  0  0  0  0  0
   42.4623   12.9602   11.7093 H   0  0  0  0  0  0  0  0  0  0  0  0
   43.9818   15.0812    8.1203 H   0  0  0  0  0  0  0  0  0  0  0  0
   45.3088   16.2223    8.0598 H   0  0  0  0  0  0  0  0  0  0  0  0
   41.6478   10.6293   11.2812 H   0  0  0  0  0  0  0  0  0  0  0  0
   42.6863   10.5162    9.8649 H   0  0  0  0  0  0  0  0  0  0  0  0
   44.4883   17.3078   10.1736 H   0  0  0  0  0  0  0  0  0  0  0  0
   43.1200   16.1927   10.2083 H   0  0  0  0  0  0  0  0  0  0  0  0
   41.3981   12.3258    8.7469 H   0  0  0  0  0  0  0  0  0  0  0  0
   40.3057   11.0587    9.3083 H   0  0  0  0  0  0  0  0  0  0  0  0
   40.4353   12.5726   10.2185 H   0  0  0  0  0  0  0  0  0  0  0  0
   42.3452   17.0576    7.9963 H   0  0  0  0  0  0  0  0  0  0  0  0
   43.7135   18.1875    7.9631 H   0  0  0  0  0  0  0  0  0  0  0  0
   42.4614   18.3467    9.2065 H   0  0  0  0  0  0  0  0  0  0  0  0
  2  1  2  0
  3  2  1  0
  4  1  1  0
  5  4  2  0
  6 10  1  0
  7  5  1  0
  8  1  1  0
  9  3  1  0
 10  8  2  0
 11 14  1  0
 12  4  1  0
 13  2  1  0
 14 13  2  0
 15  5  1  0
 16 15  1  0
 17 10  1  0
 18  6  1  0
 19  6  1  0
 20  6  1  0
 21  9  1  0
 22 16  1  0
 23 22  1  0
 24 14  1  0
 25 15  1  0
 26 23  1  0
 27 23  1  0
 28 26  1  0
 29 27  1  0
 30 28  1  0
 31 29  1  0
 32 30  1  0
 33 31  1  0
 17 12  2  0
  7  3  2  0
  9 11  2  0
  7 34  1  0
  8 35  1  0
 11 36  1  0
 12 37  1  0
 13 38  1  0
 15 39  1  1
 16 40  1  0
 16 41  1  0
 17 42  1  0
 22 43  1  0
 22 44  1  0
 25 45  1  0
 26 46  1  0
 26 47  1  0
 27 48  1  0
 27 49  1  0
 28 50  1  0
 28 51  1  0
 29 52  1  0
 29 53  1  0
 30 54  1  0
 30 55  1  0
 31 56  1  0
 31 57  1  0
 32 58  1  0
 32 59  1  0
 32 60  1  0
 33 61  1  0
 33 62  1  0
 33 63  1  0
M  END
> <Uni-Dock RESULT> 
ENERGY=   -4.493  LOWER_BOUND=    4.985  UPPER_BOUND=    8.675
INTER + INTRA:          -4.493
INTER:                  -4.493
INTRA:                   0.000
UNBOUND:                 0.000

$$$$

     RDKit          3D

 63 65  0  0  0  0  0  0  0  0999 V2000
   51.4313    3.9769   17.6599 C   0  0  0  0  0  0  0  0  0  0  0  0
   52.6098    3.1547   17.8152 C   0  0  0  0  0  0  0  0  0  0  0  0
   53.8979    3.7440   17.7487 C   0  0  0  0  0  0  0  0  0  0  0  0
   51.5584    5.3805   17.4547 C   0  0  0  0  0  0  0  0  0  0  0  0
   52.8496    5.9625   17.4285 C   0  0  0  0  0  0  0  0  0  0  0  0
   47.5888    3.5876   17.5518 C   0  0  0  0  0  0  0  0  0  0  0  0
   53.9796    5.1333   17.5485 C   0  0  0  0  0  0  0  0  0  0  0  0
   50.1122    3.4451   17.6927 C   0  0  0  0  0  0  0  0  0  0  0  0
   55.0547    2.9261   17.8856 C   0  0  0  0  0  0  0  0  0  0  0  0
   48.9557    4.2259   17.5296 C   0  0  0  0  0  0  0  0  0  0  0  0
   54.9610    1.5520   18.0904 C   0  0  0  0  0  0  0  0  0  0  0  0
   50.3815    6.1489   17.2706 C   0  0  0  0  0  0  0  0  0  0  0  0
   52.5618    1.7509   18.0281 C   0  0  0  0  0  0  0  0  0  0  0  0
   53.7111    0.9712   18.1622 C   0  0  0  0  0  0  0  0  0  0  0  0
   53.0778    7.4583   17.2247 C   0  0  2  0  0  0  0  0  0  0  0  0
   53.2465    7.7948   15.7375 C   0  0  0  0  0  0  0  0  0  0  0  0
   49.1060    5.5871   17.3051 C   0  0  0  0  0  0  0  0  0  0  0  0
   46.5956    4.4555   17.8913 F   0  0  0  0  0  0  0  0  0  0  0  0
   47.5004    2.5565   18.4375 F   0  0  0  0  0  0  0  0  0  0  0  0
   47.2401    3.0725   16.3414 F   0  0  0  0  0  0  0  0  0  0  0  0
   56.6636    3.5760   17.8138 Cl  0  0  0  0  0  0  0  0  0  0  0  0
   53.2890    9.3141   15.5119 C   0  0  0  0  0  0  0  0  0  0  0  0
   53.3858    9.7631   14.1092 N   0  0  0  0  0  0  0  0  0  0  0  0
   53.5693   -0.7247   18.4173 Cl  0  0  0  0  0  0  0  0  0  0  0  0
   54.2325    7.8981   17.9444 O   0  0  0  0  0  0  0  0  0  0  0  0
   52.2886    9.3086   13.2369 C   0  0  0  0  0  0  0  0  0  0  0  0
   54.7095    9.4431   13.5427 C   0  0  0  0  0  0  0  0  0  0  0  0
   50.8875    9.6884   13.7429 C   0  0  0  0  0  0  0  0  0  0  0  0
   55.0744   10.2362   12.2773 C   0  0  0  0  0  0  0  0  0  0  0  0
   49.7662    9.2627   12.7893 C   0  0  0  0  0  0  0  0  0  0  0  0
   55.0241   11.7516   12.4837 C   0  0  0  0  0  0  0  0  0  0  0  0
   49.7650   10.0187   11.4696 C   0  0  0  0  0  0  0  0  0  0  0  0
   55.4699   12.4964   11.2350 C   0  0  0  0  0  0  0  0  0  0  0  0
   54.9599    5.6067   17.4763 H   0  0  0  0  0  0  0  0  0  0  0  0
   49.9520    2.3795   17.8463 H   0  0  0  0  0  0  0  0  0  0  0  0
   55.8559    0.9451   18.1939 H   0  0  0  0  0  0  0  0  0  0  0  0
   50.4278    7.2186   17.0802 H   0  0  0  0  0  0  0  0  0  0  0  0
   51.6118    1.2287   18.0941 H   0  0  0  0  0  0  0  0  0  0  0  0
   52.2502    8.0293   17.6549 H   0  0  0  0  0  0  0  0  0  0  0  0
   54.1752    7.3464   15.3641 H   0  0  0  0  0  0  0  0  0  0  0  0
   52.4191    7.3532   15.1712 H   0  0  0  0  0  0  0  0  0  0  0  0
   48.2353    6.2239   17.1546 H   0  0  0  0  0  0  0  0  0  0  0  0
   54.1302    9.7426   16.0727 H   0  0  0  0  0  0  0  0  0  0  0  0
   52.4054    9.7750   15.9694 H   0  0  0  0  0  0  0  0  0  0  0  0
   54.1575    7.5424   18.8472 H   0  0  0  0  0  0  0  0  0  0  0  0
   52.4138    9.7759   12.2559 H   0  0  0  0  0  0  0  0  0  0  0  0
   52.3402    8.2250   13.0754 H   0  0  0  0  0  0  0  0  0  0  0  0
   55.4868    9.6646   14.2860 H   0  0  0  0  0  0  0  0  0  0  0  0
   54.7869    8.3709   13.3224 H   0  0  0  0  0  0  0  0  0  0  0  0
   50.6916    9.2009   14.7047 H   0  0  0  0  0  0  0  0  0  0  0  0
   50.8329   10.7706   13.9133 H   0  0  0  0  0  0  0  0  0  0  0  0
   54.4255    9.9504   11.4418 H   0  0  0  0  0  0  0  0  0  0  0  0
   56.0917    9.9498   11.9811 H   0  0  0  0  0  0  0  0  0  0  0  0
   48.8052    9.4376   13.2877 H   0  0  0  0  0  0  0  0  0  0  0  0
   49.8300    8.1859   12.5947 H   0  0  0  0  0  0  0  0  0  0  0  0
   55.6719   12.0346   13.3215 H   0  0  0  0  0  0  0  0  0  0  0  0
   54.0062   12.0678   12.7376 H   0  0  0  0  0  0  0  0  0  0  0  0
   50.6442    9.7771   10.8657 H   0  0  0  0  0  0  0  0  0  0  0  0
   48.8799    9.7492   10.8845 H   0  0  0  0  0  0  0  0  0  0  0  0
   49.7443   11.1003   11.6357 H   0  0  0  0  0  0  0  0  0  0  0  0
   54.8233   12.2578   10.3845 H   0  0  0  0  0  0  0  0  0  0  0  0
   56.4991   12.2356   10.9687 H   0  0  0  0  0  0  0  0  0  0  0  0
   55.4260   13.5771   11.4023 H   0  0  0  0  0  0  0  0  0  0  0  0
  2  1  2  0
  3  2  1  0
  4  1  1  0
  5  4  2  0
  6 10  1  0
  7  5  1  0
  8  1  1  0
  9  3  1  0
 10  8  2  0
 11 14  1  0
 12  4  1  0
 13  2  1  0
 14 13  2  0
 15  5  1  0
 16 15  1  0
 17 10  1  0
 18  6  1  0
 19  6  1  0
 20  6  1  0
 21  9  1  0
 22 16  1  0
 23 22  1  0
 24 14  1  0
 25 15  1  0
 26 23  1  0
 27 23  1  0
 28 26  1  0
 29 27  1  0
 30 28  1  0
 31 29  1  0
 32 30  1  0
 33 31  1  0
 17 12  2  0
  7  3  2  0
  9 11  2  0
  7 34  1  0
  8 35  1  0
 11 36  1  0
 12 37  1  0
 13 38  1  0
 15 39  1  1
 16 40  1  0
 16 41  1  0
 17 42  1  0
 22 43  1  0
 22 44  1  0
 25 45  1  0
 26 46  1  0
 26 47  1  0
 27 48  1  0
 27 49  1  0
 28 50  1  0
 28 51  1  0
 29 52  1  0
 29 53  1  0
 30 54  1  0
 30 55  1  0
 31 56  1  0
 31 57  1  0
 32 58  1  0
 32 59  1  0
 32 60  1  0
 33 61  1  0
 33 62  1  0
 33 63  1  0
M  END
> <Uni-Dock RESULT> 
ENERGY=   -4.439  LOWER_BOUND=    5.594  UPPER_BOUND=    9.109
INTER + INTRA:          -4.439
INTER:                  -4.439
INTRA:                   0.000
UNBOUND:                 0.000

$$$$

     RDKit          3D

 63 65  0  0  0  0  0  0  0  0999 V2000
   48.7222    7.2960   16.4164 C   0  0  0  0  0  0  0  0  0  0  0  0
   48.6881    6.1662   17.3173 C   0  0  0  0  0  0  0  0  0  0  0  0
   48.3192    6.3532   18.6736 C   0  0  0  0  0  0  0  0  0  0  0  0
   48.3722    8.5955   16.8827 C   0  0  0  0  0  0  0  0  0  0  0  0
   47.9687    8.7623   18.2303 C   0  0  0  0  0  0  0  0  0  0  0  0
   49.5990    8.0739   12.7348 C   0  0  0  0  0  0  0  0  0  0  0  0
   47.9775    7.6511   19.0928 C   0  0  0  0  0  0  0  0  0  0  0  0
   49.1058    7.1805   15.0514 C   0  0  0  0  0  0  0  0  0  0  0  0
   48.3039    5.2392   19.5596 C   0  0  0  0  0  0  0  0  0  0  0  0
   49.1586    8.2689   14.1647 C   0  0  0  0  0  0  0  0  0  0  0  0
   48.6378    3.9571   19.1311 C   0  0  0  0  0  0  0  0  0  0  0  0
   48.4522    9.6850   15.9795 C   0  0  0  0  0  0  0  0  0  0  0  0
   49.0179    4.8416   16.9237 C   0  0  0  0  0  0  0  0  0  0  0  0
   48.9924    3.7652   17.8112 C   0  0  0  0  0  0  0  0  0  0  0  0
   47.5668   10.1159   18.8109 C   0  0  2  0  0  0  0  0  0  0  0  0
   48.7758   10.8380   19.4195 C   0  0  0  0  0  0  0  0  0  0  0  0
   48.8381    9.5294   14.6489 C   0  0  0  0  0  0  0  0  0  0  0  0
   49.1330    9.0374   11.8926 F   0  0  0  0  0  0  0  0  0  0  0  0
   49.1829    6.8880   12.2099 F   0  0  0  0  0  0  0  0  0  0  0  0
   50.9538    8.0856   12.6061 F   0  0  0  0  0  0  0  0  0  0  0  0
   47.8646    5.3912   21.2329 Cl  0  0  0  0  0  0  0  0  0  0  0  0
   48.4159   12.2727   19.8353 C   0  0  0  0  0  0  0  0  0  0  0  0
   49.5182   13.0908   20.3781 N   0  0  0  0  0  0  0  0  0  0  0  0
   49.4067    2.1897   17.2571 Cl  0  0  0  0  0  0  0  0  0  0  0  0
   46.5557    9.9596   19.8099 O   0  0  0  0  0  0  0  0  0  0  0  0
   50.6648   13.2652   19.4693 C   0  0  0  0  0  0  0  0  0  0  0  0
   49.9357   12.6003   21.7049 C   0  0  0  0  0  0  0  0  0  0  0  0
   50.2935   13.8508   18.0972 C   0  0  0  0  0  0  0  0  0  0  0  0
   50.7413   13.6106   22.5379 C   0  0  0  0  0  0  0  0  0  0  0  0
   51.5080   14.0837   17.1924 C   0  0  0  0  0  0  0  0  0  0  0  0
   50.0029   14.9332   22.7553 C   0  0  0  0  0  0  0  0  0  0  0  0
   52.4373   15.1818   17.6857 C   0  0  0  0  0  0  0  0  0  0  0  0
   50.7976   15.8714   23.6502 C   0  0  0  0  0  0  0  0  0  0  0  0
   47.7074    7.8227   20.1358 H   0  0  0  0  0  0  0  0  0  0  0  0
   49.3839    6.2129   14.6378 H   0  0  0  0  0  0  0  0  0  0  0  0
   48.6188    3.1195   19.8224 H   0  0  0  0  0  0  0  0  0  0  0  0
   48.2250   10.7004   16.2958 H   0  0  0  0  0  0  0  0  0  0  0  0
   49.3067    4.6191   15.9006 H   0  0  0  0  0  0  0  0  0  0  0  0
   47.0997   10.7348   18.0397 H   0  0  0  0  0  0  0  0  0  0  0  0
   49.1292   10.2835   20.2975 H   0  0  0  0  0  0  0  0  0  0  0  0
   49.5932   10.8513   18.6901 H   0  0  0  0  0  0  0  0  0  0  0  0
   48.8852   10.4018   13.9986 H   0  0  0  0  0  0  0  0  0  0  0  0
   47.6062   12.2453   20.5764 H   0  0  0  0  0  0  0  0  0  0  0  0
   47.9736   12.7993   18.9812 H   0  0  0  0  0  0  0  0  0  0  0  0
   45.8729    9.3763   19.4346 H   0  0  0  0  0  0  0  0  0  0  0  0
   51.3698   13.9598   19.9352 H   0  0  0  0  0  0  0  0  0  0  0  0
   51.2030   12.3195   19.3321 H   0  0  0  0  0  0  0  0  0  0  0  0
   49.0456   12.3465   22.2958 H   0  0  0  0  0  0  0  0  0  0  0  0
   50.5191   11.6760   21.6096 H   0  0  0  0  0  0  0  0  0  0  0  0
   49.6253   13.1642   17.5652 H   0  0  0  0  0  0  0  0  0  0  0  0
   49.7482   14.7934   18.2289 H   0  0  0  0  0  0  0  0  0  0  0  0
   51.7181   13.7984   22.0783 H   0  0  0  0  0  0  0  0  0  0  0  0
   50.9497   13.1535   23.5137 H   0  0  0  0  0  0  0  0  0  0  0  0
   51.1463   14.3604   16.1947 H   0  0  0  0  0  0  0  0  0  0  0  0
   52.0719   13.1509   17.0766 H   0  0  0  0  0  0  0  0  0  0  0  0
   49.0251   14.7424   23.2128 H   0  0  0  0  0  0  0  0  0  0  0  0
   49.8223   15.4307   21.7959 H   0  0  0  0  0  0  0  0  0  0  0  0
   52.9336   14.9010   18.6189 H   0  0  0  0  0  0  0  0  0  0  0  0
   53.2182   15.3734   16.9427 H   0  0  0  0  0  0  0  0  0  0  0  0
   51.8907   16.1155   17.8505 H   0  0  0  0  0  0  0  0  0  0  0  0
   51.7704   16.1059   23.2065 H   0  0  0  0  0  0  0  0  0  0  0  0
   50.9673   15.4247   24.6351 H   0  0  0  0  0  0  0  0  0  0  0  0
   50.2539   16.8105   23.7926 H   0  0  0  0  0  0  0  0  0  0  0  0
  2  1  2  0
  3  2  1  0
  4  1  1  0
  5  4  2  0
  6 10  1  0
  7  5  1  0
  8  1  1  0
  9  3  1  0
 10  8  2  0
 11 14  1  0
 12  4  1  0
 13  2  1  0
 14 13  2  0
 15  5  1  0
 16 15  1  0
 17 10  1  0
 18  6  1  0
 19  6  1  0
 20  6  1  0
 21  9  1  0
 22 16  1  0
 23 22  1  0
 24 14  1  0
 25 15  1  0
 26 23  1  0
 27 23  1  0
 28 26  1  0
 29 27  1  0
 30 28  1  0
 31 29  1  0
 32 30  1  0
 33 31  1  0
 17 12  2  0
  7  3  2  0
  9 11  2  0
  7 34  1  0
  8 35  1  0
 11 36  1  0
 12 37  1  0
 13 38  1  0
 15 39  1  1
 16 40  1  0
 16 41  1  0
 17 42  1  0
 22 43  1  0
 22 44  1  0
 25 45  1  0
 26 46  1  0
 26 47  1  0
 27 48  1  0
 27 49  1  0
 28 50  1  0
 28 51  1  0
 29 52  1  0
 29 53  1  0
 30 54  1  0
 30 55  1  0
 31 56  1  0
 31 57  1  0
 32 58  1  0
 32 59  1  0
 32 60  1  0
 33 61  1  0
 33 62  1  0
 33 63  1  0
M  END
> <Uni-Dock RESULT> 
ENERGY=   -4.372  LOWER_BOUND=    5.379  UPPER_BOUND=    7.926
INTER + INTRA:          -4.372
INTER:                  -4.372
INTRA:                   0.000
UNBOUND:                 0.000

$$$$

     RDKit          3D

 63 65  0  0  0  0  0  0  0  0999 V2000
   46.6254    8.3904   12.5862 C   0  0  0  0  0  0  0  0  0  0  0  0
   45.7589    9.4223   12.0631 C   0  0  0  0  0  0  0  0  0  0  0  0
   46.2461   10.7451   11.9096 C   0  0  0  0  0  0  0  0  0  0  0  0
   47.9725    8.6941   12.9347 C   0  0  0  0  0  0  0  0  0  0  0  0
   48.4582   10.0105   12.7407 C   0  0  0  0  0  0  0  0  0  0  0  0
   46.4782    4.6428   13.5147 C   0  0  0  0  0  0  0  0  0  0  0  0
   47.5828   11.0023   12.2619 C   0  0  0  0  0  0  0  0  0  0  0  0
   46.1920    7.0503   12.7866 C   0  0  0  0  0  0  0  0  0  0  0  0
   45.3827   11.7603   11.4098 C   0  0  0  0  0  0  0  0  0  0  0  0
   47.0150    6.0375   13.3068 C   0  0  0  0  0  0  0  0  0  0  0  0
   44.0625   11.4920   11.0578 C   0  0  0  0  0  0  0  0  0  0  0  0
   48.7815    7.6648   13.4783 C   0  0  0  0  0  0  0  0  0  0  0  0
   44.4076    9.1938   11.6891 C   0  0  0  0  0  0  0  0  0  0  0  0
   43.5819   10.2059   11.1985 C   0  0  0  0  0  0  0  0  0  0  0  0
   49.8898   10.4211   13.0767 C   0  0  2  0  0  0  0  0  0  0  0  0
   49.9935   10.9389   14.5170 C   0  0  0  0  0  0  0  0  0  0  0  0
   48.3159    6.3638   13.6633 C   0  0  0  0  0  0  0  0  0  0  0  0
   47.4499    3.6886   13.5238 F   0  0  0  0  0  0  0  0  0  0  0  0
   45.5957    4.2658   12.5481 F   0  0  0  0  0  0  0  0  0  0  0  0
   45.8158    4.5159   14.6968 F   0  0  0  0  0  0  0  0  0  0  0  0
   45.9078   13.4019   11.1962 Cl  0  0  0  0  0  0  0  0  0  0  0  0
   51.4573   11.1760   14.9192 C   0  0  0  0  0  0  0  0  0  0  0  0
   51.6890   11.6167   16.3088 N   0  0  0  0  0  0  0  0  0  0  0  0
   41.9546    9.8489   10.7678 Cl  0  0  0  0  0  0  0  0  0  0  0  0
   50.3531   11.4299   12.1755 O   0  0  0  0  0  0  0  0  0  0  0  0
   51.1852   10.6952   17.3423 C   0  0  0  0  0  0  0  0  0  0  0  0
   51.2033   12.9941   16.5137 C   0  0  0  0  0  0  0  0  0  0  0  0
   51.7262    9.2614   17.2211 C   0  0  0  0  0  0  0  0  0  0  0  0
   51.7771   13.6989   17.7536 C   0  0  0  0  0  0  0  0  0  0  0  0
   51.2404    8.3369   18.3423 C   0  0  0  0  0  0  0  0  0  0  0  0
   53.3064   13.7521   17.7595 C   0  0  0  0  0  0  0  0  0  0  0  0
   51.7938    8.6941   19.7132 C   0  0  0  0  0  0  0  0  0  0  0  0
   53.8298   14.5272   18.9587 C   0  0  0  0  0  0  0  0  0  0  0  0
   47.9750   12.0161   12.1691 H   0  0  0  0  0  0  0  0  0  0  0  0
   45.1733    6.7583   12.5385 H   0  0  0  0  0  0  0  0  0  0  0  0
   43.4196   12.2804   10.6768 H   0  0  0  0  0  0  0  0  0  0  0  0
   49.8064    7.8545   13.7883 H   0  0  0  0  0  0  0  0  0  0  0  0
   43.9643    8.2059   11.7747 H   0  0  0  0  0  0  0  0  0  0  0  0
   50.5707    9.5793   12.9226 H   0  0  0  0  0  0  0  0  0  0  0  0
   49.4351   11.8786   14.6089 H   0  0  0  0  0  0  0  0  0  0  0  0
   49.5292   10.2147   15.1954 H   0  0  0  0  0  0  0  0  0  0  0  0
   48.9798    5.6120   14.0880 H   0  0  0  0  0  0  0  0  0  0  0  0
   51.9069   11.9136   14.2413 H   0  0  0  0  0  0  0  0  0  0  0  0
   52.0373   10.2633   14.7375 H   0  0  0  0  0  0  0  0  0  0  0  0
   50.1389   11.1276   11.2756 H   0  0  0  0  0  0  0  0  0  0  0  0
   51.4948   11.0741   18.3206 H   0  0  0  0  0  0  0  0  0  0  0  0
   50.0886   10.6754   17.3481 H   0  0  0  0  0  0  0  0  0  0  0  0
   51.4794   13.6102   15.6476 H   0  0  0  0  0  0  0  0  0  0  0  0
   50.1077   13.0132   16.5717 H   0  0  0  0  0  0  0  0  0  0  0  0
   51.3985    8.8160   16.2749 H   0  0  0  0  0  0  0  0  0  0  0  0
   52.8229    9.2762   17.2073 H   0  0  0  0  0  0  0  0  0  0  0  0
   51.4157   13.2214   18.6712 H   0  0  0  0  0  0  0  0  0  0  0  0
   51.3842   14.7236   17.7716 H   0  0  0  0  0  0  0  0  0  0  0  0
   51.5492    7.3123   18.1022 H   0  0  0  0  0  0  0  0  0  0  0  0
   50.1449    8.3367   18.3781 H   0  0  0  0  0  0  0  0  0  0  0  0
   53.6656   14.2279   16.8395 H   0  0  0  0  0  0  0  0  0  0  0  0
   53.7226   12.7389   17.7863 H   0  0  0  0  0  0  0  0  0  0  0  0
   51.4092    9.6553   20.0653 H   0  0  0  0  0  0  0  0  0  0  0  0
   51.5005    7.9345   20.4449 H   0  0  0  0  0  0  0  0  0  0  0  0
   52.8871    8.7427   19.6958 H   0  0  0  0  0  0  0  0  0  0  0  0
   53.5124   14.0597   19.8963 H   0  0  0  0  0  0  0  0  0  0  0  0
   53.4657   15.5595   18.9483 H   0  0  0  0  0  0  0  0  0  0  0  0
   54.9238   14.5530   18.9452 H   0  0  0  0  0  0  0  0  0  0  0  0
  2  1  2  0
  3  2  1  0
  4  1  1  0
  5  4  2  0
  6 10  1  0
  7  5  1  0
  8  1  1  0
  9  3  1  0
 10  8  2  0
 11 14  1  0
 12  4  1  0
 13  2  1  0
 14 13  2  0
 15  5  1  0
 16 15  1  0
 17 10  1  0
 18  6  1  0
 19  6  1  0
 20  6  1  0
 21  9  1  0
 22 16  1  0
 23 22  1  0
 24 14  1  0
 25 15  1  0
 26 23  1  0
 27 23  1  0
 28 26  1  0
 29 27  1  0
 30 28  1  0
 31 29  1  0
 32 30  1  0
 33 31  1  0
 17 12  2  0
  7  3  2  0
  9 11  2  0
  7 34  1  0
  8 35  1  0
 11 36  1  0
 12 37  1  0
 13 38  1  0
 15 39  1  1
 16 40  1  0
 16 41  1  0
 17 42  1  0
 22 43  1  0
 22 44  1  0
 25 45  1  0
 26 46  1  0
 26 47  1  0
 27 48  1  0
 27 49  1  0
 28 50  1  0
 28 51  1  0
 29 52  1  0
 29 53  1  0
 30 54  1  0
 30 55  1  0
 31 56  1  0
 31 57  1  0
 32 58  1  0
 32 59  1  0
 32 60  1  0
 33 61  1  0
 33 62  1  0
 33 63  1  0
M  END
> <Uni-Dock RESULT> 
ENERGY=   -4.325  LOWER_BOUND=    2.726  UPPER_BOUND=    3.530
INTER + INTRA:          -4.325
INTER:                  -4.325
INTRA:                   0.000
UNBOUND:                 0.000

$$$$
