
     RDKit          3D

 63 65  0  0  0  0  0  0  0  0999 V2000
   45.2611    7.5913   12.1795 C   0  0  0  0  0  0  0  0  0  0  0  0
   45.2797    6.1637   12.4013 C   0  0  0  0  0  0  0  0  0  0  0  0
   46.3077    5.5818   13.1864 C   0  0  0  0  0  0  0  0  0  0  0  0
   46.2767    8.4171   12.7423 C   0  0  0  0  0  0  0  0  0  0  0  0
   47.3035    7.8228   13.5202 C   0  0  0  0  0  0  0  0  0  0  0  0
   43.1157   10.2387   10.3513 C   0  0  0  0  0  0  0  0  0  0  0  0
   47.2913    6.4318   13.7256 C   0  0  0  0  0  0  0  0  0  0  0  0
   44.2542    8.2370   11.4080 C   0  0  0  0  0  0  0  0  0  0  0  0
   46.3161    4.1750   13.4034 C   0  0  0  0  0  0  0  0  0  0  0  0
   44.2097    9.6251   11.1919 C   0  0  0  0  0  0  0  0  0  0  0  0
   45.3391    3.3436   12.8631 C   0  0  0  0  0  0  0  0  0  0  0  0
   46.2229    9.8119   12.4976 C   0  0  0  0  0  0  0  0  0  0  0  0
   44.3041    5.2778   11.8692 C   0  0  0  0  0  0  0  0  0  0  0  0
   44.3364    3.9018   12.0955 C   0  0  0  0  0  0  0  0  0  0  0  0
   48.4401    8.5989   14.1910 C   0  0  2  0  0  0  0  0  0  0  0  0
   47.9501    9.4059   15.4058 C   0  0  0  0  0  0  0  0  0  0  0  0
   45.2147   10.4084   11.7405 C   0  0  0  0  0  0  0  0  0  0  0  0
   42.8708   11.5449   10.6514 F   0  0  0  0  0  0  0  0  0  0  0  0
   43.4071   10.2085    9.0218 F   0  0  0  0  0  0  0  0  0  0  0  0
   41.9205    9.5965   10.4885 F   0  0  0  0  0  0  0  0  0  0  0  0
   47.5402    3.3927   14.3554 Cl  0  0  0  0  0  0  0  0  0  0  0  0
   49.0559    9.7221   16.4333 C   0  0  0  0  0  0  0  0  0  0  0  0
   50.1520   10.5786   15.9674 N   0  0  0  0  0  0  0  0  0  0  0  0
   43.1207    2.8931   11.4151 Cl  0  0  0  0  0  0  0  0  0  0  0  0
   49.0934    9.4219   13.2283 O   0  0  0  0  0  0  0  0  0  0  0  0
   49.7354   11.9040   15.4836 C   0  0  0  0  0  0  0  0  0  0  0  0
   51.2866   10.5791   16.9027 C   0  0  0  0  0  0  0  0  0  0  0  0
   48.7548   12.7486   16.3190 C   0  0  0  0  0  0  0  0  0  0  0  0
   52.6141   10.9872   16.2412 C   0  0  0  0  0  0  0  0  0  0  0  0
   49.2550   13.2854   17.6588 C   0  0  0  0  0  0  0  0  0  0  0  0
   53.8163   10.8406   17.1815 C   0  0  0  0  0  0  0  0  0  0  0  0
   50.4471   14.2215   17.5340 C   0  0  0  0  0  0  0  0  0  0  0  0
   53.7813   11.8051   18.3596 C   0  0  0  0  0  0  0  0  0  0  0  0
   48.0878    6.0044   14.3362 H   0  0  0  0  0  0  0  0  0  0  0  0
   43.4568    7.6577   10.9468 H   0  0  0  0  0  0  0  0  0  0  0  0
   45.3632    2.2721   13.0390 H   0  0  0  0  0  0  0  0  0  0  0  0
   46.9857   10.4794   12.8950 H   0  0  0  0  0  0  0  0  0  0  0  0
   43.4875    5.6504   11.2571 H   0  0  0  0  0  0  0  0  0  0  0  0
   49.2012    7.8851   14.5309 H   0  0  0  0  0  0  0  0  0  0  0  0
   47.4618   10.3327   15.0898 H   0  0  0  0  0  0  0  0  0  0  0  0
   47.1872    8.8228   15.9404 H   0  0  0  0  0  0  0  0  0  0  0  0
   45.2286   11.4866   11.5874 H   0  0  0  0  0  0  0  0  0  0  0  0
   49.4676    8.7541   16.7499 H   0  0  0  0  0  0  0  0  0  0  0  0
   48.5934   10.1531   17.3296 H   0  0  0  0  0  0  0  0  0  0  0  0
   49.2162    8.8811   12.4288 H   0  0  0  0  0  0  0  0  0  0  0  0
   50.6071   12.5155   15.2282 H   0  0  0  0  0  0  0  0  0  0  0  0
   49.2515   11.7482   14.5111 H   0  0  0  0  0  0  0  0  0  0  0  0
   51.4350    9.5619   17.2892 H   0  0  0  0  0  0  0  0  0  0  0  0
   51.0798   11.2038   17.7729 H   0  0  0  0  0  0  0  0  0  0  0  0
   48.4531   13.6056   15.7023 H   0  0  0  0  0  0  0  0  0  0  0  0
   47.8301   12.1864   16.4968 H   0  0  0  0  0  0  0  0  0  0  0  0
   52.7876   10.3489   15.3653 H   0  0  0  0  0  0  0  0  0  0  0  0
   52.5763   12.0185   15.8806 H   0  0  0  0  0  0  0  0  0  0  0  0
   48.4355   13.8414   18.1260 H   0  0  0  0  0  0  0  0  0  0  0  0
   49.4842   12.4668   18.3447 H   0  0  0  0  0  0  0  0  0  0  0  0
   53.8787    9.8092   17.5546 H   0  0  0  0  0  0  0  0  0  0  0  0
   54.7340   11.0249   16.6054 H   0  0  0  0  0  0  0  0  0  0  0  0
   51.3247   13.7121   17.1285 H   0  0  0  0  0  0  0  0  0  0  0  0
   50.2100   15.0678   16.8819 H   0  0  0  0  0  0  0  0  0  0  0  0
   50.7188   14.6176   18.5186 H   0  0  0  0  0  0  0  0  0  0  0  0
   54.7048   11.7213   18.9407 H   0  0  0  0  0  0  0  0  0  0  0  0
   52.9477   11.5874   19.0362 H   0  0  0  0  0  0  0  0  0  0  0  0
   53.6860   12.8413   18.0186 H   0  0  0  0  0  0  0  0  0  0  0  0
  2  1  2  0
  3  2  1  0
  4  1  1  0
  5  4  2  0
  6 10  1  0
  7  5  1  0
  8  1  1  0
  9  3  1  0
 10  8  2  0
 11 14  1  0
 12  4  1  0
 13  2  1  0
 14 13  2  0
 15  5  1  0
 16 15  1  0
 17 10  1  0
 18  6  1  0
 19  6  1  0
 20  6  1  0
 21  9  1  0
 22 16  1  0
 23 22  1  0
 24 14  1  0
 25 15  1  0
 26 23  1  0
 27 23  1  0
 28 26  1  0
 29 27  1  0
 30 28  1  0
 31 29  1  0
 32 30  1  0
 33 31  1  0
 17 12  2  0
  7  3  2  0
  9 11  2  0
  7 34  1  0
  8 35  1  0
 11 36  1  0
 12 37  1  0
 13 38  1  0
 15 39  1  1
 16 40  1  0
 16 41  1  0
 17 42  1  0
 22 43  1  0
 22 44  1  0
 25 45  1  0
 26 46  1  0
 26 47  1  0
 27 48  1  0
 27 49  1  0
 28 50  1  0
 28 51  1  0
 29 52  1  0
 29 53  1  0
 30 54  1  0
 30 55  1  0
 31 56  1  0
 31 57  1  0
 32 58  1  0
 32 59  1  0
 32 60  1  0
 33 61  1  0
 33 62  1  0
 33 63  1  0
M  END
> <Uni-Dock RESULT> 
ENERGY=   -5.686  LOWER_BOUND=    0.000  UPPER_BOUND=    0.000
INTER + INTRA:          -5.686
INTER:                  -5.686
INTRA:                   0.000
UNBOUND:                 0.000

$$$$

     RDKit          3D

 63 65  0  0  0  0  0  0  0  0999 V2000
   46.3904    8.4426   12.4261 C   0  0  0  0  0  0  0  0  0  0  0  0
   45.7359    7.1569   12.5054 C   0  0  0  0  0  0  0  0  0  0  0  0
   46.4617    6.0176   12.9376 C   0  0  0  0  0  0  0  0  0  0  0  0
   47.7661    8.5689   12.7749 C   0  0  0  0  0  0  0  0  0  0  0  0
   48.4834    7.4209   13.1994 C   0  0  0  0  0  0  0  0  0  0  0  0
   45.5546   12.0954   11.4712 C   0  0  0  0  0  0  0  0  0  0  0  0
   47.8180    6.1845   13.2744 C   0  0  0  0  0  0  0  0  0  0  0  0
   45.7167    9.6244   12.0072 C   0  0  0  0  0  0  0  0  0  0  0  0
   45.8080    4.7556   13.0169 C   0  0  0  0  0  0  0  0  0  0  0  0
   46.3308   10.8867   11.9365 C   0  0  0  0  0  0  0  0  0  0  0  0
   44.4663    4.6020   12.6790 C   0  0  0  0  0  0  0  0  0  0  0  0
   48.3703    9.8473   12.6798 C   0  0  0  0  0  0  0  0  0  0  0  0
   44.3698    6.9540   12.1702 C   0  0  0  0  0  0  0  0  0  0  0  0
   43.7534    5.7055   12.2549 C   0  0  0  0  0  0  0  0  0  0  0  0
   49.9568    7.4261   13.6158 C   0  0  2  0  0  0  0  0  0  0  0  0
   50.1678    8.0968   14.9843 C   0  0  0  0  0  0  0  0  0  0  0  0
   47.6736   10.9842   12.2707 C   0  0  0  0  0  0  0  0  0  0  0  0
   46.0532   13.2728   11.9416 F   0  0  0  0  0  0  0  0  0  0  0  0
   45.5411   12.2101   10.1147 F   0  0  0  0  0  0  0  0  0  0  0  0
   44.2473   12.0653   11.8585 F   0  0  0  0  0  0  0  0  0  0  0  0
   46.6309    3.3183   13.5399 Cl  0  0  0  0  0  0  0  0  0  0  0  0
   51.4517    7.6457   15.7099 C   0  0  0  0  0  0  0  0  0  0  0  0
   52.7211    7.9745   15.0521 N   0  0  0  0  0  0  0  0  0  0  0  0
   42.0954    5.5383   11.8290 Cl  0  0  0  0  0  0  0  0  0  0  0  0
   50.7427    8.0334   12.5938 O   0  0  0  0  0  0  0  0  0  0  0  0
   52.9393    9.4101   14.8162 C   0  0  0  0  0  0  0  0  0  0  0  0
   53.8551    7.2569   15.6532 C   0  0  0  0  0  0  0  0  0  0  0  0
   52.6833   10.4184   15.9523 C   0  0  0  0  0  0  0  0  0  0  0  0
   55.0610    7.1326   14.7064 C   0  0  0  0  0  0  0  0  0  0  0  0
   53.6217   10.3727   17.1567 C   0  0  0  0  0  0  0  0  0  0  0  0
   56.1800    6.2560   15.2812 C   0  0  0  0  0  0  0  0  0  0  0  0
   55.0751   10.6551   16.8087 C   0  0  0  0  0  0  0  0  0  0  0  0
   56.8482    6.8598   16.5093 C   0  0  0  0  0  0  0  0  0  0  0  0
   48.3924    5.3214   13.6135 H   0  0  0  0  0  0  0  0  0  0  0  0
   44.6675    9.5887   11.7209 H   0  0  0  0  0  0  0  0  0  0  0  0
   43.9855    3.6303   12.7450 H   0  0  0  0  0  0  0  0  0  0  0  0
   49.4224    9.9882   12.9218 H   0  0  0  0  0  0  0  0  0  0  0  0
   43.7507    7.7794   11.8298 H   0  0  0  0  0  0  0  0  0  0  0  0
   50.3087    6.3885   13.6783 H   0  0  0  0  0  0  0  0  0  0  0  0
   50.1575    9.1871   14.8924 H   0  0  0  0  0  0  0  0  0  0  0  0
   49.3296    7.8357   15.6453 H   0  0  0  0  0  0  0  0  0  0  0  0
   48.1943   11.9394   12.2172 H   0  0  0  0  0  0  0  0  0  0  0  0
   51.3766    6.5553   15.8188 H   0  0  0  0  0  0  0  0  0  0  0  0
   51.4400    8.0455   16.7313 H   0  0  0  0  0  0  0  0  0  0  0  0
   50.4298    7.6759   11.7447 H   0  0  0  0  0  0  0  0  0  0  0  0
   53.9353    9.5875   14.3974 H   0  0  0  0  0  0  0  0  0  0  0  0
   52.2722    9.7007   13.9947 H   0  0  0  0  0  0  0  0  0  0  0  0
   53.5454    6.2312   15.8939 H   0  0  0  0  0  0  0  0  0  0  0  0
   54.1517    7.7109   16.5999 H   0  0  0  0  0  0  0  0  0  0  0  0
   52.7409   11.4246   15.5163 H   0  0  0  0  0  0  0  0  0  0  0  0
   51.6526   10.3240   16.3148 H   0  0  0  0  0  0  0  0  0  0  0  0
   54.7285    6.6834   13.7617 H   0  0  0  0  0  0  0  0  0  0  0  0
   55.4763    8.1141   14.4629 H   0  0  0  0  0  0  0  0  0  0  0  0
   53.2906   11.1341   17.8707 H   0  0  0  0  0  0  0  0  0  0  0  0
   53.5346    9.4189   17.6817 H   0  0  0  0  0  0  0  0  0  0  0  0
   55.7879    5.2604   15.5302 H   0  0  0  0  0  0  0  0  0  0  0  0
   56.9430    6.1102   14.5037 H   0  0  0  0  0  0  0  0  0  0  0  0
   55.4899    9.8943   16.1429 H   0  0  0  0  0  0  0  0  0  0  0  0
   55.1755   11.6295   16.3207 H   0  0  0  0  0  0  0  0  0  0  0  0
   55.6842   10.6672   17.7192 H   0  0  0  0  0  0  0  0  0  0  0  0
   57.6960    6.2406   16.8179 H   0  0  0  0  0  0  0  0  0  0  0  0
   56.1584    6.9171   17.3584 H   0  0  0  0  0  0  0  0  0  0  0  0
   57.2208    7.8681   16.3002 H   0  0  0  0  0  0  0  0  0  0  0  0
  2  1  2  0
  3  2  1  0
  4  1  1  0
  5  4  2  0
  6 10  1  0
  7  5  1  0
  8  1  1  0
  9  3  1  0
 10  8  2  0
 11 14  1  0
 12  4  1  0
 13  2  1  0
 14 13  2  0
 15  5  1  0
 16 15  1  0
 17 10  1  0
 18  6  1  0
 19  6  1  0
 20  6  1  0
 21  9  1  0
 22 16  1  0
 23 22  1  0
 24 14  1  0
 25 15  1  0
 26 23  1  0
 27 23  1  0
 28 26  1  0
 29 27  1  0
 30 28  1  0
 31 29  1  0
 32 30  1  0
 33 31  1  0
 17 12  2  0
  7  3  2  0
  9 11  2  0
  7 34  1  0
  8 35  1  0
 11 36  1  0
 12 37  1  0
 13 38  1  0
 15 39  1  1
 16 40  1  0
 16 41  1  0
 17 42  1  0
 22 43  1  0
 22 44  1  0
 25 45  1  0
 26 46  1  0
 26 47  1  0
 27 48  1  0
 27 49  1  0
 28 50  1  0
 28 51  1  0
 29 52  1  0
 29 53  1  0
 30 54  1  0
 30 55  1  0
 31 56  1  0
 31 57  1  0
 32 58  1  0
 32 59  1  0
 32 60  1  0
 33 61  1  0
 33 62  1  0
 33 63  1  0
M  END
> <Uni-Dock RESULT> 
ENERGY=   -5.456  LOWER_BOUND=    2.417  UPPER_BOUND=    3.253
INTER + INTRA:          -5.456
INTER:                  -5.456
INTRA:                   0.000
UNBOUND:                 0.000

$$$$

     RDKit          3D

 63 65  0  0  0  0  0  0  0  0999 V2000
   47.9931    8.5492   19.2077 C   0  0  0  0  0  0  0  0  0  0  0  0
   48.1104    7.2327   19.7914 C   0  0  0  0  0  0  0  0  0  0  0  0
   48.7418    6.1899   19.0666 C   0  0  0  0  0  0  0  0  0  0  0  0
   48.5046    8.8023   17.9022 C   0  0  0  0  0  0  0  0  0  0  0  0
   49.1282    7.7496   17.1843 C   0  0  0  0  0  0  0  0  0  0  0  0
   46.5882   12.0358   20.1155 C   0  0  0  0  0  0  0  0  0  0  0  0
   49.2350    6.4808   17.7810 C   0  0  0  0  0  0  0  0  0  0  0  0
   47.3774    9.6392   19.8853 C   0  0  0  0  0  0  0  0  0  0  0  0
   48.8569    4.8970   19.6508 C   0  0  0  0  0  0  0  0  0  0  0  0
   47.2656   10.9305   19.3415 C   0  0  0  0  0  0  0  0  0  0  0  0
   48.3633    4.6201   20.9227 C   0  0  0  0  0  0  0  0  0  0  0  0
   48.3658   10.1067   17.3658 C   0  0  0  0  0  0  0  0  0  0  0  0
   47.6209    6.9054   21.0849 C   0  0  0  0  0  0  0  0  0  0  0  0
   47.7449    5.6291   21.6337 C   0  0  0  0  0  0  0  0  0  0  0  0
   49.7309    7.8951   15.7844 C   0  0  2  0  0  0  0  0  0  0  0  0
   51.0438    8.6971   15.8013 C   0  0  0  0  0  0  0  0  0  0  0  0
   47.7612   11.1513   18.0647 C   0  0  0  0  0  0  0  0  0  0  0  0
   47.0034   13.2822   19.7548 F   0  0  0  0  0  0  0  0  0  0  0  0
   45.2368   12.0291   19.9503 F   0  0  0  0  0  0  0  0  0  0  0  0
   46.8026   11.9481   21.4595 F   0  0  0  0  0  0  0  0  0  0  0  0
   49.6196    3.5728   18.8252 Cl  0  0  0  0  0  0  0  0  0  0  0  0
   51.9710    8.4032   14.6045 C   0  0  0  0  0  0  0  0  0  0  0  0
   51.4559    8.7611   13.2784 N   0  0  0  0  0  0  0  0  0  0  0  0
   47.1245    5.3087   23.2056 Cl  0  0  0  0  0  0  0  0  0  0  0  0
   48.7663    8.4637   14.9028 O   0  0  0  0  0  0  0  0  0  0  0  0
   51.1126   10.1822   13.1136 C   0  0  0  0  0  0  0  0  0  0  0  0
   52.2665    8.1810   12.1974 C   0  0  0  0  0  0  0  0  0  0  0  0
   52.1025   11.2662   13.5802 C   0  0  0  0  0  0  0  0  0  0  0  0
   51.5016    8.0587   10.8684 C   0  0  0  0  0  0  0  0  0  0  0  0
   53.4179   11.3930   12.8140 C   0  0  0  0  0  0  0  0  0  0  0  0
   52.2998    7.3172    9.7895 C   0  0  0  0  0  0  0  0  0  0  0  0
   53.2368   11.7452   11.3455 C   0  0  0  0  0  0  0  0  0  0  0  0
   53.5403    8.0725    9.3313 C   0  0  0  0  0  0  0  0  0  0  0  0
   49.7282    5.6936   17.2092 H   0  0  0  0  0  0  0  0  0  0  0  0
   46.9614    9.5047   20.8817 H   0  0  0  0  0  0  0  0  0  0  0  0
   48.4598    3.6267   21.3510 H   0  0  0  0  0  0  0  0  0  0  0  0
   48.7283   10.3420   16.3664 H   0  0  0  0  0  0  0  0  0  0  0  0
   47.1244    7.6520   21.6985 H   0  0  0  0  0  0  0  0  0  0  0  0
   49.9389    6.8945   15.3848 H   0  0  0  0  0  0  0  0  0  0  0  0
   50.8462    9.7715   15.8621 H   0  0  0  0  0  0  0  0  0  0  0  0
   51.6119    8.4369   16.7054 H   0  0  0  0  0  0  0  0  0  0  0  0
   47.6840   12.1322   17.5978 H   0  0  0  0  0  0  0  0  0  0  0  0
   52.1742    7.3240   14.6305 H   0  0  0  0  0  0  0  0  0  0  0  0
   52.9386    8.8896   14.7787 H   0  0  0  0  0  0  0  0  0  0  0  0
   47.9222    8.0116   15.0756 H   0  0  0  0  0  0  0  0  0  0  0  0
   50.8121   10.3916   12.0817 H   0  0  0  0  0  0  0  0  0  0  0  0
   50.1868   10.3515   13.6779 H   0  0  0  0  0  0  0  0  0  0  0  0
   52.5628    7.1612   12.4772 H   0  0  0  0  0  0  0  0  0  0  0  0
   53.1953    8.7364   12.0596 H   0  0  0  0  0  0  0  0  0  0  0  0
   51.5824   12.2316   13.5220 H   0  0  0  0  0  0  0  0  0  0  0  0
   52.3348   11.1318   14.6435 H   0  0  0  0  0  0  0  0  0  0  0  0
   50.5696    7.5058   11.0423 H   0  0  0  0  0  0  0  0  0  0  0  0
   51.2206    9.0418   10.4813 H   0  0  0  0  0  0  0  0  0  0  0  0
   54.0054   12.1892   13.2830 H   0  0  0  0  0  0  0  0  0  0  0  0
   54.0169   10.4854   12.9165 H   0  0  0  0  0  0  0  0  0  0  0  0
   52.5907    6.3223   10.1536 H   0  0  0  0  0  0  0  0  0  0  0  0
   51.6463    7.1575    8.9204 H   0  0  0  0  0  0  0  0  0  0  0  0
   52.7077   10.9597   10.8003 H   0  0  0  0  0  0  0  0  0  0  0  0
   52.6741   12.6774   11.2360 H   0  0  0  0  0  0  0  0  0  0  0  0
   54.2135   11.8803   10.8681 H   0  0  0  0  0  0  0  0  0  0  0  0
   54.0153    7.5441    8.4991 H   0  0  0  0  0  0  0  0  0  0  0  0
   54.2825    8.1557   10.1327 H   0  0  0  0  0  0  0  0  0  0  0  0
   53.2850    9.0821    8.9926 H   0  0  0  0  0  0  0  0  0  0  0  0
  2  1  2  0
  3  2  1  0
  4  1  1  0
  5  4  2  0
  6 10  1  0
  7  5  1  0
  8  1  1  0
  9  3  1  0
 10  8  2  0
 11 14  1  0
 12  4  1  0
 13  2  1  0
 14 13  2  0
 15  5  1  0
 16 15  1  0
 17 10  1  0
 18  6  1  0
 19  6  1  0
 20  6  1  0
 21  9  1  0
 22 16  1  0
 23 22  1  0
 24 14  1  0
 25 15  1  0
 26 23  1  0
 27 23  1  0
 28 26  1  0
 29 27  1  0
 30 28  1  0
 31 29  1  0
 32 30  1  0
 33 31  1  0
 17 12  2  0
  7  3  2  0
  9 11  2  0
  7 34  1  0
  8 35  1  0
 11 36  1  0
 12 37  1  0
 13 38  1  0
 15 39  1  1
 16 40  1  0
 16 41  1  0
 17 42  1  0
 22 43  1  0
 22 44  1  0
 25 45  1  0
 26 46  1  0
 26 47  1  0
 27 48  1  0
 27 49  1  0
 28 50  1  0
 28 51  1  0
 29 52  1  0
 29 53  1  0
 30 54  1  0
 30 55  1  0
 31 56  1  0
 31 57  1  0
 32 58  1  0
 32 59  1  0
 32 60  1  0
 33 61  1  0
 33 62  1  0
 33 63  1  0
M  END
> <Uni-Dock RESULT> 
ENERGY=   -5.410  LOWER_BOUND=    5.832  UPPER_BOUND=    7.534
INTER + INTRA:          -5.410
INTER:                  -5.410
INTRA:                   0.000
UNBOUND:                 0.000

$$$$

     RDKit          3D

 63 65  0  0  0  0  0  0  0  0999 V2000
   46.8756    5.5564   13.6650 C   0  0  0  0  0  0  0  0  0  0  0  0
   47.4757    5.2535   14.9440 C   0  0  0  0  0  0  0  0  0  0  0  0
   48.4821    6.1013   15.4731 C   0  0  0  0  0  0  0  0  0  0  0  0
   47.2964    6.7019   12.9295 C   0  0  0  0  0  0  0  0  0  0  0  0
   48.3086    7.5386   13.4659 C   0  0  0  0  0  0  0  0  0  0  0  0
   44.1828    4.1264   11.2864 C   0  0  0  0  0  0  0  0  0  0  0  0
   48.8687    7.2232   14.7166 C   0  0  0  0  0  0  0  0  0  0  0  0
   45.8570    4.7504   13.0829 C   0  0  0  0  0  0  0  0  0  0  0  0
   49.0650    5.7979   16.7359 C   0  0  0  0  0  0  0  0  0  0  0  0
   45.2504    5.0349   11.8473 C   0  0  0  0  0  0  0  0  0  0  0  0
   48.6763    4.6839   17.4746 C   0  0  0  0  0  0  0  0  0  0  0  0
   46.6842    6.9606   11.6779 C   0  0  0  0  0  0  0  0  0  0  0  0
   47.1104    4.1281   15.7312 C   0  0  0  0  0  0  0  0  0  0  0  0
   47.6990    3.8521   16.9653 C   0  0  0  0  0  0  0  0  0  0  0  0
   48.8365    8.8040   12.7845 C   0  0  2  0  0  0  0  0  0  0  0  0
   47.8184    9.9563   12.8377 C   0  0  0  0  0  0  0  0  0  0  0  0
   45.6833    6.1494   11.1436 C   0  0  0  0  0  0  0  0  0  0  0  0
   43.3370    4.7543   10.4225 F   0  0  0  0  0  0  0  0  0  0  0  0
   44.7078    3.0753   10.5987 F   0  0  0  0  0  0  0  0  0  0  0  0
   43.3892    3.5835   12.2535 F   0  0  0  0  0  0  0  0  0  0  0  0
   50.2994    6.7908   17.4480 Cl  0  0  0  0  0  0  0  0  0  0  0  0
   48.4525   11.3566   12.7132 C   0  0  0  0  0  0  0  0  0  0  0  0
   49.1285   11.6550   11.4458 N   0  0  0  0  0  0  0  0  0  0  0  0
   47.2056    2.4681   17.8593 Cl  0  0  0  0  0  0  0  0  0  0  0  0
   49.2342    8.5006   11.4500 O   0  0  0  0  0  0  0  0  0  0  0  0
   48.2744   11.5509   10.2525 C   0  0  0  0  0  0  0  0  0  0  0  0
   49.9441   12.8755   11.5304 C   0  0  0  0  0  0  0  0  0  0  0  0
   46.8822   12.2103   10.2497 C   0  0  0  0  0  0  0  0  0  0  0  0
   51.0575   12.9321   10.4705 C   0  0  0  0  0  0  0  0  0  0  0  0
   46.8278   13.7366   10.2771 C   0  0  0  0  0  0  0  0  0  0  0  0
   51.9960   14.1301   10.6580 C   0  0  0  0  0  0  0  0  0  0  0  0
   47.4875   14.3921    9.0736 C   0  0  0  0  0  0  0  0  0  0  0  0
   51.3153   15.4719   10.4224 C   0  0  0  0  0  0  0  0  0  0  0  0
   49.6378    7.8903   15.1083 H   0  0  0  0  0  0  0  0  0  0  0  0
   45.5001    3.8587   13.5942 H   0  0  0  0  0  0  0  0  0  0  0  0
   49.1338    4.4685   18.4358 H   0  0  0  0  0  0  0  0  0  0  0  0
   46.9843    7.8157   11.0745 H   0  0  0  0  0  0  0  0  0  0  0  0
   46.3480    3.4331   15.3904 H   0  0  0  0  0  0  0  0  0  0  0  0
   49.7524    9.1241   13.2973 H   0  0  0  0  0  0  0  0  0  0  0  0
   47.0440    9.8309   12.0750 H   0  0  0  0  0  0  0  0  0  0  0  0
   47.3018    9.9346   13.8074 H   0  0  0  0  0  0  0  0  0  0  0  0
   45.2518    6.4007   10.1757 H   0  0  0  0  0  0  0  0  0  0  0  0
   49.1776   11.4401   13.5341 H   0  0  0  0  0  0  0  0  0  0  0  0
   47.6849   12.1124   12.9199 H   0  0  0  0  0  0  0  0  0  0  0  0
   49.7331    7.6660   11.4850 H   0  0  0  0  0  0  0  0  0  0  0  0
   48.8204   11.8630    9.3561 H   0  0  0  0  0  0  0  0  0  0  0  0
   48.1052   10.4810   10.0767 H   0  0  0  0  0  0  0  0  0  0  0  0
   50.4462   12.9061   12.5066 H   0  0  0  0  0  0  0  0  0  0  0  0
   49.3209   13.7700   11.4851 H   0  0  0  0  0  0  0  0  0  0  0  0
   46.3601   11.8691    9.3460 H   0  0  0  0  0  0  0  0  0  0  0  0
   46.2831   11.8292   11.0854 H   0  0  0  0  0  0  0  0  0  0  0  0
   51.6585   12.0160   10.5346 H   0  0  0  0  0  0  0  0  0  0  0  0
   50.6412   12.9693    9.4603 H   0  0  0  0  0  0  0  0  0  0  0  0
   45.7746   14.0359   10.2905 H   0  0  0  0  0  0  0  0  0  0  0  0
   47.2562   14.1246   11.2040 H   0  0  0  0  0  0  0  0  0  0  0  0
   52.4316   14.1127   11.6664 H   0  0  0  0  0  0  0  0  0  0  0  0
   52.8315   14.0325    9.9507 H   0  0  0  0  0  0  0  0  0  0  0  0
   48.5593   14.1836    9.0325 H   0  0  0  0  0  0  0  0  0  0  0  0
   47.0335   14.0401    8.1421 H   0  0  0  0  0  0  0  0  0  0  0  0
   47.3625   15.4794    9.1223 H   0  0  0  0  0  0  0  0  0  0  0  0
   52.0507   16.2804   10.4765 H   0  0  0  0  0  0  0  0  0  0  0  0
   50.5489   15.6752   11.1783 H   0  0  0  0  0  0  0  0  0  0  0  0
   50.8426   15.5067    9.4352 H   0  0  0  0  0  0  0  0  0  0  0  0
  2  1  2  0
  3  2  1  0
  4  1  1  0
  5  4  2  0
  6 10  1  0
  7  5  1  0
  8  1  1  0
  9  3  1  0
 10  8  2  0
 11 14  1  0
 12  4  1  0
 13  2  1  0
 14 13  2  0
 15  5  1  0
 16 15  1  0
 17 10  1  0
 18  6  1  0
 19  6  1  0
 20  6  1  0
 21  9  1  0
 22 16  1  0
 23 22  1  0
 24 14  1  0
 25 15  1  0
 26 23  1  0
 27 23  1  0
 28 26  1  0
 29 27  1  0
 30 28  1  0
 31 29  1  0
 32 30  1  0
 33 31  1  0
 17 12  2  0
  7  3  2  0
  9 11  2  0
  7 34  1  0
  8 35  1  0
 11 36  1  0
 12 37  1  0
 13 38  1  0
 15 39  1  1
 16 40  1  0
 16 41  1  0
 17 42  1  0
 22 43  1  0
 22 44  1  0
 25 45  1  0
 26 46  1  0
 26 47  1  0
 27 48  1  0
 27 49  1  0
 28 50  1  0
 28 51  1  0
 29 52  1  0
 29 53  1  0
 30 54  1  0
 30 55  1  0
 31 56  1  0
 31 57  1  0
 32 58  1  0
 32 59  1  0
 32 60  1  0
 33 61  1  0
 33 62  1  0
 33 63  1  0
M  END
> <Uni-Dock RESULT> 
ENERGY=   -5.177  LOWER_BOUND=    3.989  UPPER_BOUND=    5.424
INTER + INTRA:          -5.177
INTER:                  -5.177
INTRA:                   0.000
UNBOUND:                 0.000

$$$$

     RDKit          3D

 63 65  0  0  0  0  0  0  0  0999 V2000
   45.2805    9.6981   11.9691 C   0  0  0  0  0  0  0  0  0  0  0  0
   45.8929    8.4613   12.3970 C   0  0  0  0  0  0  0  0  0  0  0  0
   47.2648    8.4369   12.7559 C   0  0  0  0  0  0  0  0  0  0  0  0
   46.0526   10.8936   11.9003 C   0  0  0  0  0  0  0  0  0  0  0  0
   47.4255   10.8553   12.2554 C   0  0  0  0  0  0  0  0  0  0  0  0
   41.8301   11.0054   10.8119 C   0  0  0  0  0  0  0  0  0  0  0  0
   47.9923    9.6390   12.6757 C   0  0  0  0  0  0  0  0  0  0  0  0
   43.9082    9.7906   11.6027 C   0  0  0  0  0  0  0  0  0  0  0  0
   47.8591    7.2151   13.1804 C   0  0  0  0  0  0  0  0  0  0  0  0
   43.2898   10.9861   11.1974 C   0  0  0  0  0  0  0  0  0  0  0  0
   47.1302    6.0314   13.2538 C   0  0  0  0  0  0  0  0  0  0  0  0
   45.4138   12.0840   11.4724 C   0  0  0  0  0  0  0  0  0  0  0  0
   45.1878    7.2306   12.4862 C   0  0  0  0  0  0  0  0  0  0  0  0
   45.7948    6.0461   12.9037 C   0  0  0  0  0  0  0  0  0  0  0  0
   48.3577   12.0699   12.2397 C   0  0  2  0  0  0  0  0  0  0  0  0
   48.0588   13.0423   13.3938 C   0  0  0  0  0  0  0  0  0  0  0  0
   44.0634   12.1355   11.1276 C   0  0  0  0  0  0  0  0  0  0  0  0
   41.2461   12.2268   10.9647 F   0  0  0  0  0  0  0  0  0  0  0  0
   41.6348   10.6574    9.5102 F   0  0  0  0  0  0  0  0  0  0  0  0
   41.0772   10.1396   11.5490 F   0  0  0  0  0  0  0  0  0  0  0  0
   49.5313    7.1092   13.6381 Cl  0  0  0  0  0  0  0  0  0  0  0  0
   49.2547   13.9339   13.7852 C   0  0  0  0  0  0  0  0  0  0  0  0
   49.7305   14.8712   12.7619 N   0  0  0  0  0  0  0  0  0  0  0  0
   44.8756    4.5945   12.9834 Cl  0  0  0  0  0  0  0  0  0  0  0  0
   48.2913   12.7098   10.9680 O   0  0  0  0  0  0  0  0  0  0  0  0
   48.7207   15.8299   12.2871 C   0  0  0  0  0  0  0  0  0  0  0  0
   51.0345   15.4537   13.1119 C   0  0  0  0  0  0  0  0  0  0  0  0
   47.8529   16.5926   13.3059 C   0  0  0  0  0  0  0  0  0  0  0  0
   51.8063   15.9832   11.8912 C   0  0  0  0  0  0  0  0  0  0  0  0
   48.5522   17.6186   14.1957 C   0  0  0  0  0  0  0  0  0  0  0  0
   53.2240   16.4505   12.2414 C   0  0  0  0  0  0  0  0  0  0  0  0
   49.1997   18.7565   13.4217 C   0  0  0  0  0  0  0  0  0  0  0  0
   53.2489   17.6774   13.1433 C   0  0  0  0  0  0  0  0  0  0  0  0
   49.0475    9.6422   12.9520 H   0  0  0  0  0  0  0  0  0  0  0  0
   43.2703    8.9095   11.6279 H   0  0  0  0  0  0  0  0  0  0  0  0
   47.6019    5.1087   13.5791 H   0  0  0  0  0  0  0  0  0  0  0  0
   45.9678   13.0177   11.3903 H   0  0  0  0  0  0  0  0  0  0  0  0
   44.1346    7.1713   12.2263 H   0  0  0  0  0  0  0  0  0  0  0  0
   49.3933   11.7202   12.3378 H   0  0  0  0  0  0  0  0  0  0  0  0
   47.1899   13.6669   13.1653 H   0  0  0  0  0  0  0  0  0  0  0  0
   47.7954   12.4648   14.2910 H   0  0  0  0  0  0  0  0  0  0  0  0
   43.6300   13.0814   10.8053 H   0  0  0  0  0  0  0  0  0  0  0  0
   50.0725   13.2514   14.0537 H   0  0  0  0  0  0  0  0  0  0  0  0
   49.0067   14.4739   14.7072 H   0  0  0  0  0  0  0  0  0  0  0  0
   48.3187   12.0078   10.2949 H   0  0  0  0  0  0  0  0  0  0  0  0
   49.1642   16.5459   11.5873 H   0  0  0  0  0  0  0  0  0  0  0  0
   48.0234   15.2673   11.6535 H   0  0  0  0  0  0  0  0  0  0  0  0
   51.6665   14.6769   13.5626 H   0  0  0  0  0  0  0  0  0  0  0  0
   50.9282   16.2315   13.8696 H   0  0  0  0  0  0  0  0  0  0  0  0
   47.0672   17.1129   12.7423 H   0  0  0  0  0  0  0  0  0  0  0  0
   47.3189   15.8844   13.9509 H   0  0  0  0  0  0  0  0  0  0  0  0
   51.8868   15.1825   11.1448 H   0  0  0  0  0  0  0  0  0  0  0  0
   51.2738   16.8102   11.4141 H   0  0  0  0  0  0  0  0  0  0  0  0
   47.8018   18.0496   14.8666 H   0  0  0  0  0  0  0  0  0  0  0  0
   49.2851   17.1349   14.8453 H   0  0  0  0  0  0  0  0  0  0  0  0
   53.7823   15.6337   12.7191 H   0  0  0  0  0  0  0  0  0  0  0  0
   53.7523   16.6913   11.3082 H   0  0  0  0  0  0  0  0  0  0  0  0
   50.0047   18.4020   12.7732 H   0  0  0  0  0  0  0  0  0  0  0  0
   48.4616   19.2736   12.8009 H   0  0  0  0  0  0  0  0  0  0  0  0
   49.6301   19.4864   14.1162 H   0  0  0  0  0  0  0  0  0  0  0  0
   54.2787   18.0204   13.2819 H   0  0  0  0  0  0  0  0  0  0  0  0
   52.8403   17.4584   14.1358 H   0  0  0  0  0  0  0  0  0  0  0  0
   52.6716   18.4994   12.7073 H   0  0  0  0  0  0  0  0  0  0  0  0
  2  1  2  0
  3  2  1  0
  4  1  1  0
  5  4  2  0
  6 10  1  0
  7  5  1  0
  8  1  1  0
  9  3  1  0
 10  8  2  0
 11 14  1  0
 12  4  1  0
 13  2  1  0
 14 13  2  0
 15  5  1  0
 16 15  1  0
 17 10  1  0
 18  6  1  0
 19  6  1  0
 20  6  1  0
 21  9  1  0
 22 16  1  0
 23 22  1  0
 24 14  1  0
 25 15  1  0
 26 23  1  0
 27 23  1  0
 28 26  1  0
 29 27  1  0
 30 28  1  0
 31 29  1  0
 32 30  1  0
 33 31  1  0
 17 12  2  0
  7  3  2  0
  9 11  2  0
  7 34  1  0
  8 35  1  0
 11 36  1  0
 12 37  1  0
 13 38  1  0
 15 39  1  1
 16 40  1  0
 16 41  1  0
 17 42  1  0
 22 43  1  0
 22 44  1  0
 25 45  1  0
 26 46  1  0
 26 47  1  0
 27 48  1  0
 27 49  1  0
 28 50  1  0
 28 51  1  0
 29 52  1  0
 29 53  1  0
 30 54  1  0
 30 55  1  0
 31 56  1  0
 31 57  1  0
 32 58  1  0
 32 59  1  0
 32 60  1  0
 33 61  1  0
 33 62  1  0
 33 63  1  0
M  END
> <Uni-Dock RESULT> 
ENERGY=   -4.679  LOWER_BOUND=    3.378  UPPER_BOUND=    4.136
INTER + INTRA:          -4.679
INTER:                  -4.679
INTRA:                   0.000
UNBOUND:                 0.000

$$$$

     RDKit          3D

 63 65  0  0  0  0  0  0  0  0999 V2000
   54.7901    5.4808   10.8666 C   0  0  0  0  0  0  0  0  0  0  0  0
   55.5369    4.4558   11.5588 C   0  0  0  0  0  0  0  0  0  0  0  0
   55.9523    4.6644   12.8988 C   0  0  0  0  0  0  0  0  0  0  0  0
   54.4745    6.7048   11.5241 C   0  0  0  0  0  0  0  0  0  0  0  0
   54.9011    6.9047   12.8622 C   0  0  0  0  0  0  0  0  0  0  0  0
   53.1636    6.0835    7.4104 C   0  0  0  0  0  0  0  0  0  0  0  0
   55.6195    5.8861   13.5132 C   0  0  0  0  0  0  0  0  0  0  0  0
   54.3386    5.3304    9.5251 C   0  0  0  0  0  0  0  0  0  0  0  0
   56.6839    3.6476   13.5748 C   0  0  0  0  0  0  0  0  0  0  0  0
   53.5991    6.3089    8.8385 C   0  0  0  0  0  0  0  0  0  0  0  0
   57.0095    2.4437   12.9563 C   0  0  0  0  0  0  0  0  0  0  0  0
   53.7433    7.6849   10.8078 C   0  0  0  0  0  0  0  0  0  0  0  0
   55.8914    3.2134   10.9669 C   0  0  0  0  0  0  0  0  0  0  0  0
   56.6111    2.2338   11.6512 C   0  0  0  0  0  0  0  0  0  0  0  0
   54.6135    8.1647   13.6832 C   0  0  2  0  0  0  0  0  0  0  0  0
   53.1385    8.2501   14.1124 C   0  0  0  0  0  0  0  0  0  0  0  0
   53.3124    7.4970    9.4947 C   0  0  0  0  0  0  0  0  0  0  0  0
   52.0604    6.8026    7.0612 F   0  0  0  0  0  0  0  0  0  0  0  0
   54.1311    6.4240    6.5152 F   0  0  0  0  0  0  0  0  0  0  0  0
   52.8542    4.7807    7.1515 F   0  0  0  0  0  0  0  0  0  0  0  0
   57.2227    3.8306   15.2158 Cl  0  0  0  0  0  0  0  0  0  0  0  0
   52.9012    9.1201   15.3636 C   0  0  0  0  0  0  0  0  0  0  0  0
   53.2261   10.5451   15.2370 N   0  0  0  0  0  0  0  0  0  0  0  0
   57.0053    0.7552   10.8659 Cl  0  0  0  0  0  0  0  0  0  0  0  0
   55.0280    9.3175   12.9550 O   0  0  0  0  0  0  0  0  0  0  0  0
   52.4930   11.2523   14.1755 C   0  0  0  0  0  0  0  0  0  0  0  0
   53.2515   11.2224   16.5418 C   0  0  0  0  0  0  0  0  0  0  0  0
   50.9690   11.0685   14.0470 C   0  0  0  0  0  0  0  0  0  0  0  0
   54.0869   12.5140   16.5353 C   0  0  0  0  0  0  0  0  0  0  0  0
   50.0962   11.6362   15.1647 C   0  0  0  0  0  0  0  0  0  0  0  0
   54.2339   13.1336   17.9301 C   0  0  0  0  0  0  0  0  0  0  0  0
   50.2175   13.1436   15.3274 C   0  0  0  0  0  0  0  0  0  0  0  0
   52.9205   13.6515   18.5012 C   0  0  0  0  0  0  0  0  0  0  0  0
   55.9256    6.0640   14.5449 H   0  0  0  0  0  0  0  0  0  0  0  0
   54.5560    4.4207    8.9690 H   0  0  0  0  0  0  0  0  0  0  0  0
   57.5695    1.6803   13.4885 H   0  0  0  0  0  0  0  0  0  0  0  0
   53.4926    8.6408   11.2649 H   0  0  0  0  0  0  0  0  0  0  0  0
   55.6092    2.9827    9.9433 H   0  0  0  0  0  0  0  0  0  0  0  0
   55.2385    8.1476   14.5850 H   0  0  0  0  0  0  0  0  0  0  0  0
   52.5106    8.6049   13.2897 H   0  0  0  0  0  0  0  0  0  0  0  0
   52.7782    7.2424   14.3622 H   0  0  0  0  0  0  0  0  0  0  0  0
   52.7542    8.2889    8.9971 H   0  0  0  0  0  0  0  0  0  0  0  0
   53.5142    8.6827   16.1633 H   0  0  0  0  0  0  0  0  0  0  0  0
   51.8609    8.9964   15.6885 H   0  0  0  0  0  0  0  0  0  0  0  0
   55.9012    9.1154   12.5763 H   0  0  0  0  0  0  0  0  0  0  0  0
   52.7248   12.3224   14.1907 H   0  0  0  0  0  0  0  0  0  0  0  0
   52.9215   10.9219   13.2208 H   0  0  0  0  0  0  0  0  0  0  0  0
   53.7163   10.5587   17.2831 H   0  0  0  0  0  0  0  0  0  0  0  0
   52.2411   11.4169   16.9047 H   0  0  0  0  0  0  0  0  0  0  0  0
   50.6607   11.5398   13.1043 H   0  0  0  0  0  0  0  0  0  0  0  0
   50.7265   10.0059   13.9265 H   0  0  0  0  0  0  0  0  0  0  0  0
   55.0918   12.2874   16.1562 H   0  0  0  0  0  0  0  0  0  0  0  0
   53.6552   13.2616   15.8647 H   0  0  0  0  0  0  0  0  0  0  0  0
   49.0526   11.4043   14.9279 H   0  0  0  0  0  0  0  0  0  0  0  0
   50.3021   11.1335   16.1124 H   0  0  0  0  0  0  0  0  0  0  0  0
   54.6710   12.4016   18.6230 H   0  0  0  0  0  0  0  0  0  0  0  0
   54.9425   13.9714   17.8666 H   0  0  0  0  0  0  0  0  0  0  0  0
   51.2257   13.4415   15.6253 H   0  0  0  0  0  0  0  0  0  0  0  0
   49.9704   13.6563   14.3926 H   0  0  0  0  0  0  0  0  0  0  0  0
   49.5255   13.4951   16.1005 H   0  0  0  0  0  0  0  0  0  0  0  0
   53.1006   14.1648   19.4507 H   0  0  0  0  0  0  0  0  0  0  0  0
   52.2155   12.8364   18.6982 H   0  0  0  0  0  0  0  0  0  0  0  0
   52.4442   14.3602   17.8156 H   0  0  0  0  0  0  0  0  0  0  0  0
  2  1  2  0
  3  2  1  0
  4  1  1  0
  5  4  2  0
  6 10  1  0
  7  5  1  0
  8  1  1  0
  9  3  1  0
 10  8  2  0
 11 14  1  0
 12  4  1  0
 13  2  1  0
 14 13  2  0
 15  5  1  0
 16 15  1  0
 17 10  1  0
 18  6  1  0
 19  6  1  0
 20  6  1  0
 21  9  1  0
 22 16  1  0
 23 22  1  0
 24 14  1  0
 25 15  1  0
 26 23  1  0
 27 23  1  0
 28 26  1  0
 29 27  1  0
 30 28  1  0
 31 29  1  0
 32 30  1  0
 33 31  1  0
 17 12  2  0
  7  3  2  0
  9 11  2  0
  7 34  1  0
  8 35  1  0
 11 36  1  0
 12 37  1  0
 13 38  1  0
 15 39  1  1
 16 40  1  0
 16 41  1  0
 17 42  1  0
 22 43  1  0
 22 44  1  0
 25 45  1  0
 26 46  1  0
 26 47  1  0
 27 48  1  0
 27 49  1  0
 28 50  1  0
 28 51  1  0
 29 52  1  0
 29 53  1  0
 30 54  1  0
 30 55  1  0
 31 56  1  0
 31 57  1  0
 32 58  1  0
 32 59  1  0
 32 60  1  0
 33 61  1  0
 33 62  1  0
 33 63  1  0
M  END
> <Uni-Dock RESULT> 
ENERGY=   -4.670  LOWER_BOUND=    7.025  UPPER_BOUND=    8.555
INTER + INTRA:          -4.670
INTER:                  -4.670
INTRA:                   0.000
UNBOUND:                 0.000

$$$$

     RDKit          3D

 63 65  0  0  0  0  0  0  0  0999 V2000
   45.8468    7.4186   12.5191 C   0  0  0  0  0  0  0  0  0  0  0  0
   47.0249    8.0288   13.0913 C   0  0  0  0  0  0  0  0  0  0  0  0
   47.2242    9.4284   12.9778 C   0  0  0  0  0  0  0  0  0  0  0  0
   44.8863    8.2182   11.8348 C   0  0  0  0  0  0  0  0  0  0  0  0
   45.0999    9.6161   11.7220 C   0  0  0  0  0  0  0  0  0  0  0  0
   44.2341    3.9196   12.1870 C   0  0  0  0  0  0  0  0  0  0  0  0
   46.2517   10.1831   12.2957 C   0  0  0  0  0  0  0  0  0  0  0  0
   45.5850    6.0221   12.6046 C   0  0  0  0  0  0  0  0  0  0  0  0
   48.3855   10.0220   13.5481 C   0  0  0  0  0  0  0  0  0  0  0  0
   44.4389    5.4108   12.0675 C   0  0  0  0  0  0  0  0  0  0  0  0
   49.3421    9.2651   14.2189 C   0  0  0  0  0  0  0  0  0  0  0  0
   43.7468    7.5793   11.2856 C   0  0  0  0  0  0  0  0  0  0  0  0
   48.0265    7.2955   13.7832 C   0  0  0  0  0  0  0  0  0  0  0  0
   49.1568    7.9017   14.3314 C   0  0  0  0  0  0  0  0  0  0  0  0
   44.1390   10.5850   11.0276 C   0  0  2  0  0  0  0  0  0  0  0  0
   42.8606   10.8198   11.8507 C   0  0  0  0  0  0  0  0  0  0  0  0
   43.5224    6.2071   11.3963 C   0  0  0  0  0  0  0  0  0  0  0  0
   42.9249    3.5468   12.1293 F   0  0  0  0  0  0  0  0  0  0  0  0
   44.8634    3.2305   11.1958 F   0  0  0  0  0  0  0  0  0  0  0  0
   44.7126    3.4126   13.3591 F   0  0  0  0  0  0  0  0  0  0  0  0
   48.6951   11.7283   13.4517 Cl  0  0  0  0  0  0  0  0  0  0  0  0
   42.1509   12.1525   11.5363 C   0  0  0  0  0  0  0  0  0  0  0  0
   41.6247   12.3047   10.1754 N   0  0  0  0  0  0  0  0  0  0  0  0
   50.3277    6.9463   15.1530 Cl  0  0  0  0  0  0  0  0  0  0  0  0
   43.8520   10.1170    9.7124 O   0  0  0  0  0  0  0  0  0  0  0  0
   40.6435   11.2837    9.7762 C   0  0  0  0  0  0  0  0  0  0  0  0
   41.2392   13.6938    9.8859 C   0  0  0  0  0  0  0  0  0  0  0  0
   39.4868   10.9228   10.7274 C   0  0  0  0  0  0  0  0  0  0  0  0
   41.2081   14.0105    8.3809 C   0  0  0  0  0  0  0  0  0  0  0  0
   38.4228   11.9902   10.9761 C   0  0  0  0  0  0  0  0  0  0  0  0
   40.9539   15.4945    8.0911 C   0  0  0  0  0  0  0  0  0  0  0  0
   37.6758   12.4112    9.7199 C   0  0  0  0  0  0  0  0  0  0  0  0
   39.5642   15.9602    8.5049 C   0  0  0  0  0  0  0  0  0  0  0  0
   46.3841   11.2618   12.2017 H   0  0  0  0  0  0  0  0  0  0  0  0
   46.2859    5.3596   13.1083 H   0  0  0  0  0  0  0  0  0  0  0  0
   50.2223    9.7364   14.6464 H   0  0  0  0  0  0  0  0  0  0  0  0
   42.9944    8.1480   10.7417 H   0  0  0  0  0  0  0  0  0  0  0  0
   47.9432    6.2195   13.9087 H   0  0  0  0  0  0  0  0  0  0  0  0
   44.6475   11.5480   10.8913 H   0  0  0  0  0  0  0  0  0  0  0  0
   42.1589    9.9889   11.7309 H   0  0  0  0  0  0  0  0  0  0  0  0
   43.1212   10.8512   12.9179 H   0  0  0  0  0  0  0  0  0  0  0  0
   42.6270    5.7747   10.9519 H   0  0  0  0  0  0  0  0  0  0  0  0
   42.8869   12.9454   11.7265 H   0  0  0  0  0  0  0  0  0  0  0  0
   41.3517   12.3097   12.2710 H   0  0  0  0  0  0  0  0  0  0  0  0
   44.6963    9.8316    9.3219 H   0  0  0  0  0  0  0  0  0  0  0  0
   40.2360   11.5041    8.7841 H   0  0  0  0  0  0  0  0  0  0  0  0
   41.2033   10.3545    9.6107 H   0  0  0  0  0  0  0  0  0  0  0  0
   41.9804   14.3728   10.3282 H   0  0  0  0  0  0  0  0  0  0  0  0
   40.2859   13.9441   10.3537 H   0  0  0  0  0  0  0  0  0  0  0  0
   38.9872   10.0367   10.3139 H   0  0  0  0  0  0  0  0  0  0  0  0
   39.8835   10.5993   11.6972 H   0  0  0  0  0  0  0  0  0  0  0  0
   42.1752   13.7384    7.9387 H   0  0  0  0  0  0  0  0  0  0  0  0
   40.4458   13.4187    7.8673 H   0  0  0  0  0  0  0  0  0  0  0  0
   37.6932   11.5803   11.6823 H   0  0  0  0  0  0  0  0  0  0  0  0
   38.8550   12.8623   11.4719 H   0  0  0  0  0  0  0  0  0  0  0  0
   41.7114   16.1114    8.5938 H   0  0  0  0  0  0  0  0  0  0  0  0
   41.0730   15.6644    7.0117 H   0  0  0  0  0  0  0  0  0  0  0  0
   38.3379   12.8867    8.9922 H   0  0  0  0  0  0  0  0  0  0  0  0
   37.2035   11.5478    9.2410 H   0  0  0  0  0  0  0  0  0  0  0  0
   36.8897   13.1308    9.9733 H   0  0  0  0  0  0  0  0  0  0  0  0
   39.4062   16.9961    8.1897 H   0  0  0  0  0  0  0  0  0  0  0  0
   39.4325   15.9249    9.5919 H   0  0  0  0  0  0  0  0  0  0  0  0
   38.7871   15.3414    8.0440 H   0  0  0  0  0  0  0  0  0  0  0  0
  2  1  2  0
  3  2  1  0
  4  1  1  0
  5  4  2  0
  6 10  1  0
  7  5  1  0
  8  1  1  0
  9  3  1  0
 10  8  2  0
 11 14  1  0
 12  4  1  0
 13  2  1  0
 14 13  2  0
 15  5  1  0
 16 15  1  0
 17 10  1  0
 18  6  1  0
 19  6  1  0
 20  6  1  0
 21  9  1  0
 22 16  1  0
 23 22  1  0
 24 14  1  0
 25 15  1  0
 26 23  1  0
 27 23  1  0
 28 26  1  0
 29 27  1  0
 30 28  1  0
 31 29  1  0
 32 30  1  0
 33 31  1  0
 17 12  2  0
  7  3  2  0
  9 11  2  0
  7 34  1  0
  8 35  1  0
 11 36  1  0
 12 37  1  0
 13 38  1  0
 15 39  1  1
 16 40  1  0
 16 41  1  0
 17 42  1  0
 22 43  1  0
 22 44  1  0
 25 45  1  0
 26 46  1  0
 26 47  1  0
 27 48  1  0
 27 49  1  0
 28 50  1  0
 28 51  1  0
 29 52  1  0
 29 53  1  0
 30 54  1  0
 30 55  1  0
 31 56  1  0
 31 57  1  0
 32 58  1  0
 32 59  1  0
 32 60  1  0
 33 61  1  0
 33 62  1  0
 33 63  1  0
M  END
> <Uni-Dock RESULT> 
ENERGY=   -4.645  LOWER_BOUND=    4.376  UPPER_BOUND=    8.740
INTER + INTRA:          -4.645
INTER:                  -4.645
INTRA:                   0.000
UNBOUND:                 0.000

$$$$

     RDKit          3D

 63 65  0  0  0  0  0  0  0  0999 V2000
   44.4626    9.0055   11.6332 C   0  0  0  0  0  0  0  0  0  0  0  0
   43.7559   10.2051   11.2471 C   0  0  0  0  0  0  0  0  0  0  0  0
   44.4126   11.4613   11.2961 C   0  0  0  0  0  0  0  0  0  0  0  0
   45.8168    9.0808   12.0697 C   0  0  0  0  0  0  0  0  0  0  0  0
   46.4610   10.3438   12.1208 C   0  0  0  0  0  0  0  0  0  0  0  0
   43.8315    5.2002   11.9081 C   0  0  0  0  0  0  0  0  0  0  0  0
   45.7505   11.4931   11.7314 C   0  0  0  0  0  0  0  0  0  0  0  0
   43.8631    7.7149   11.5999 C   0  0  0  0  0  0  0  0  0  0  0  0
   43.7103   12.6376   10.9098 C   0  0  0  0  0  0  0  0  0  0  0  0
   44.5369    6.5343   11.9576 C   0  0  0  0  0  0  0  0  0  0  0  0
   42.3860   12.5944   10.4829 C   0  0  0  0  0  0  0  0  0  0  0  0
   46.4720    7.8808   12.4424 C   0  0  0  0  0  0  0  0  0  0  0  0
   42.4049   10.2079   10.8061 C   0  0  0  0  0  0  0  0  0  0  0  0
   41.7387   11.3759   10.4349 C   0  0  0  0  0  0  0  0  0  0  0  0
   47.9136   10.5574   12.5551 C   0  0  2  0  0  0  0  0  0  0  0  0
   48.9122   10.0611   11.4952 C   0  0  0  0  0  0  0  0  0  0  0  0
   45.8515    6.6328   12.3896 C   0  0  0  0  0  0  0  0  0  0  0  0
   44.6790    4.1455   11.7489 F   0  0  0  0  0  0  0  0  0  0  0  0
   43.1269    4.9458   13.0449 F   0  0  0  0  0  0  0  0  0  0  0  0
   42.9354    5.1138   10.8837 F   0  0  0  0  0  0  0  0  0  0  0  0
   44.4494   14.2090   10.9408 Cl  0  0  0  0  0  0  0  0  0  0  0  0
   50.2972   10.7344   11.5778 C   0  0  0  0  0  0  0  0  0  0  0  0
   51.0663   10.4937   12.8036 N   0  0  0  0  0  0  0  0  0  0  0  0
   40.1013   11.2993    9.9138 Cl  0  0  0  0  0  0  0  0  0  0  0  0
   48.1303    9.9464   13.8243 O   0  0  0  0  0  0  0  0  0  0  0  0
   51.3489    9.0777   13.0856 C   0  0  0  0  0  0  0  0  0  0  0  0
   52.2189   11.3994   12.9177 C   0  0  0  0  0  0  0  0  0  0  0  0
   51.8874    8.1684   11.9649 C   0  0  0  0  0  0  0  0  0  0  0  0
   52.7127   11.5688   14.3647 C   0  0  0  0  0  0  0  0  0  0  0  0
   53.2974    8.4495   11.4488 C   0  0  0  0  0  0  0  0  0  0  0  0
   53.8142   12.6271   14.4967 C   0  0  0  0  0  0  0  0  0  0  0  0
   54.3756    8.3083   12.5121 C   0  0  0  0  0  0  0  0  0  0  0  0
   55.1116   12.2369   13.8011 C   0  0  0  0  0  0  0  0  0  0  0  0
   46.2748   12.4488   11.7717 H   0  0  0  0  0  0  0  0  0  0  0  0
   42.8292    7.5954   11.2826 H   0  0  0  0  0  0  0  0  0  0  0  0
   41.8666   13.5033   10.1933 H   0  0  0  0  0  0  0  0  0  0  0  0
   47.5016    7.8921   12.7962 H   0  0  0  0  0  0  0  0  0  0  0  0
   41.8368    9.2839   10.7438 H   0  0  0  0  0  0  0  0  0  0  0  0
   48.0793   11.6304   12.7146 H   0  0  0  0  0  0  0  0  0  0  0  0
   49.0253    8.9737   11.5417 H   0  0  0  0  0  0  0  0  0  0  0  0
   48.5164   10.2869   10.4952 H   0  0  0  0  0  0  0  0  0  0  0  0
   46.4082    5.7462   12.6902 H   0  0  0  0  0  0  0  0  0  0  0  0
   50.1215   11.8135   11.4714 H   0  0  0  0  0  0  0  0  0  0  0  0
   50.8852   10.4434   10.6987 H   0  0  0  0  0  0  0  0  0  0  0  0
   47.3675   10.1746   14.3834 H   0  0  0  0  0  0  0  0  0  0  0  0
   51.9908    8.9783   13.9672 H   0  0  0  0  0  0  0  0  0  0  0  0
   50.4051    8.6266   13.4172 H   0  0  0  0  0  0  0  0  0  0  0  0
   51.9260   12.4002   12.5732 H   0  0  0  0  0  0  0  0  0  0  0  0
   53.0343   11.0839   12.2651 H   0  0  0  0  0  0  0  0  0  0  0  0
   51.8638    7.1368   12.3405 H   0  0  0  0  0  0  0  0  0  0  0  0
   51.1999    8.1759   11.1106 H   0  0  0  0  0  0  0  0  0  0  0  0
   51.8690   11.8754   14.9963 H   0  0  0  0  0  0  0  0  0  0  0  0
   53.0857   10.6240   14.7691 H   0  0  0  0  0  0  0  0  0  0  0  0
   53.5131    7.7315   10.6506 H   0  0  0  0  0  0  0  0  0  0  0  0
   53.3511    9.4351   10.9810 H   0  0  0  0  0  0  0  0  0  0  0  0
   53.4614   13.5891   14.1004 H   0  0  0  0  0  0  0  0  0  0  0  0
   54.0226   12.7821   15.5647 H   0  0  0  0  0  0  0  0  0  0  0  0
   54.2553    9.0406   13.3142 H   0  0  0  0  0  0  0  0  0  0  0  0
   54.3556    7.3078   12.9552 H   0  0  0  0  0  0  0  0  0  0  0  0
   55.3647    8.4627   12.0673 H   0  0  0  0  0  0  0  0  0  0  0  0
   55.8866   12.9814   14.0074 H   0  0  0  0  0  0  0  0  0  0  0  0
   54.9882   12.1855   12.7138 H   0  0  0  0  0  0  0  0  0  0  0  0
   55.4710   11.2642   14.1529 H   0  0  0  0  0  0  0  0  0  0  0  0
  2  1  2  0
  3  2  1  0
  4  1  1  0
  5  4  2  0
  6 10  1  0
  7  5  1  0
  8  1  1  0
  9  3  1  0
 10  8  2  0
 11 14  1  0
 12  4  1  0
 13  2  1  0
 14 13  2  0
 15  5  1  0
 16 15  1  0
 17 10  1  0
 18  6  1  0
 19  6  1  0
 20  6  1  0
 21  9  1  0
 22 16  1  0
 23 22  1  0
 24 14  1  0
 25 15  1  0
 26 23  1  0
 27 23  1  0
 28 26  1  0
 29 27  1  0
 30 28  1  0
 31 29  1  0
 32 30  1  0
 33 31  1  0
 17 12  2  0
  7  3  2  0
  9 11  2  0
  7 34  1  0
  8 35  1  0
 11 36  1  0
 12 37  1  0
 13 38  1  0
 15 39  1  1
 16 40  1  0
 16 41  1  0
 17 42  1  0
 22 43  1  0
 22 44  1  0
 25 45  1  0
 26 46  1  0
 26 47  1  0
 27 48  1  0
 27 49  1  0
 28 50  1  0
 28 51  1  0
 29 52  1  0
 29 53  1  0
 30 54  1  0
 30 55  1  0
 31 56  1  0
 31 57  1  0
 32 58  1  0
 32 59  1  0
 32 60  1  0
 33 61  1  0
 33 62  1  0
 33 63  1  0
M  END
> <Uni-Dock RESULT> 
ENERGY=   -4.612  LOWER_BOUND=    3.907  UPPER_BOUND=    5.838
INTER + INTRA:          -4.612
INTER:                  -4.612
INTRA:                   0.000
UNBOUND:                 0.000

$$$$

     RDKit          3D

 63 65  0  0  0  0  0  0  0  0999 V2000
   46.8359    8.3890   12.5227 C   0  0  0  0  0  0  0  0  0  0  0  0
   46.0572    9.5360   12.1158 C   0  0  0  0  0  0  0  0  0  0  0  0
   46.7034   10.7656   11.8289 C   0  0  0  0  0  0  0  0  0  0  0  0
   48.2520    8.4905   12.6430 C   0  0  0  0  0  0  0  0  0  0  0  0
   48.8863    9.7274   12.3597 C   0  0  0  0  0  0  0  0  0  0  0  0
   46.2960    4.6895   13.5105 C   0  0  0  0  0  0  0  0  0  0  0  0
   48.1035   10.8244   11.9582 C   0  0  0  0  0  0  0  0  0  0  0  0
   46.2492    7.1262   12.8179 C   0  0  0  0  0  0  0  0  0  0  0  0
   45.9290   11.8895   11.4245 C   0  0  0  0  0  0  0  0  0  0  0  0
   46.9895    5.9946   13.2015 C   0  0  0  0  0  0  0  0  0  0  0  0
   44.5440   11.8203   11.3021 C   0  0  0  0  0  0  0  0  0  0  0  0
   48.9775    7.3425   13.0480 C   0  0  0  0  0  0  0  0  0  0  0  0
   44.6429    9.5110   11.9785 C   0  0  0  0  0  0  0  0  0  0  0  0
   43.9072   10.6278   11.5822 C   0  0  0  0  0  0  0  0  0  0  0  0
   50.3974    9.9624   12.4354 C   0  0  2  0  0  0  0  0  0  0  0  0
   51.1465    9.2822   11.2764 C   0  0  0  0  0  0  0  0  0  0  0  0
   48.3658    6.1195   13.3223 C   0  0  0  0  0  0  0  0  0  0  0  0
   47.0941    3.5987   13.3388 F   0  0  0  0  0  0  0  0  0  0  0  0
   45.8540    4.6310   14.7968 F   0  0  0  0  0  0  0  0  0  0  0  0
   45.2007    4.4744   12.7269 F   0  0  0  0  0  0  0  0  0  0  0  0
   46.6504   13.4253   11.0539 Cl  0  0  0  0  0  0  0  0  0  0  0  0
   52.5137    9.9200   10.9563 C   0  0  0  0  0  0  0  0  0  0  0  0
   53.5299    9.8460   12.0118 N   0  0  0  0  0  0  0  0  0  0  0  0
   42.1963   10.5204   11.4410 Cl  0  0  0  0  0  0  0  0  0  0  0  0
   50.8852    9.5451   13.7078 O   0  0  0  0  0  0  0  0  0  0  0  0
   53.8730    8.4817   12.4422 C   0  0  0  0  0  0  0  0  0  0  0  0
   54.6759   10.7249   11.7358 C   0  0  0  0  0  0  0  0  0  0  0  0
   54.1616    7.3976   11.3866 C   0  0  0  0  0  0  0  0  0  0  0  0
   55.4690   11.0975   13.0001 C   0  0  0  0  0  0  0  0  0  0  0  0
   55.4259    7.5562   10.5442 C   0  0  0  0  0  0  0  0  0  0  0  0
   56.5684   12.1313   12.7287 C   0  0  0  0  0  0  0  0  0  0  0  0
   56.7085    7.5469   11.3616 C   0  0  0  0  0  0  0  0  0  0  0  0
   57.6872   11.6028   11.8409 C   0  0  0  0  0  0  0  0  0  0  0  0
   48.6198   11.7595   11.7374 H   0  0  0  0  0  0  0  0  0  0  0  0
   45.1717    6.9899   12.7511 H   0  0  0  0  0  0  0  0  0  0  0  0
   43.9704   12.6893   10.9933 H   0  0  0  0  0  0  0  0  0  0  0  0
   50.0591    7.3777   13.1677 H   0  0  0  0  0  0  0  0  0  0  0  0
   44.0789    8.6050   12.1825 H   0  0  0  0  0  0  0  0  0  0  0  0
   50.5887   11.0420   12.3882 H   0  0  0  0  0  0  0  0  0  0  0  0
   51.2719    8.2118   11.4651 H   0  0  0  0  0  0  0  0  0  0  0  0
   50.5435    9.3650   10.3614 H   0  0  0  0  0  0  0  0  0  0  0  0
   48.9782    5.2731   13.6304 H   0  0  0  0  0  0  0  0  0  0  0  0
   52.3143   10.9751   10.7245 H   0  0  0  0  0  0  0  0  0  0  0  0
   52.8998    9.4821   10.0277 H   0  0  0  0  0  0  0  0  0  0  0  0
   50.2597    9.8775   14.3748 H   0  0  0  0  0  0  0  0  0  0  0  0
   54.6902    8.4987   13.1709 H   0  0  0  0  0  0  0  0  0  0  0  0
   53.0248    8.1136   13.0333 H   0  0  0  0  0  0  0  0  0  0  0  0
   54.3111   11.6698   11.3114 H   0  0  0  0  0  0  0  0  0  0  0  0
   55.3330   10.2905   10.9809 H   0  0  0  0  0  0  0  0  0  0  0  0
   54.2241    6.4361   11.9133 H   0  0  0  0  0  0  0  0  0  0  0  0
   53.3061    7.2952   10.7081 H   0  0  0  0  0  0  0  0  0  0  0  0
   54.7799   11.5208   13.7422 H   0  0  0  0  0  0  0  0  0  0  0  0
   55.9247   10.2147   13.4564 H   0  0  0  0  0  0  0  0  0  0  0  0
   55.4679    6.7194    9.8391 H   0  0  0  0  0  0  0  0  0  0  0  0
   55.3731    8.4573    9.9293 H   0  0  0  0  0  0  0  0  0  0  0  0
   56.1341   13.0318   12.2732 H   0  0  0  0  0  0  0  0  0  0  0  0
   57.0012   12.4406   13.6905 H   0  0  0  0  0  0  0  0  0  0  0  0
   56.7605    8.3957   12.0479 H   0  0  0  0  0  0  0  0  0  0  0  0
   56.7890    6.6263   11.9478 H   0  0  0  0  0  0  0  0  0  0  0  0
   57.5779    7.6034   10.6974 H   0  0  0  0  0  0  0  0  0  0  0  0
   58.4851   12.3472   11.7595 H   0  0  0  0  0  0  0  0  0  0  0  0
   57.3326   11.3904   10.8264 H   0  0  0  0  0  0  0  0  0  0  0  0
   58.1184   10.6848   12.2539 H   0  0  0  0  0  0  0  0  0  0  0  0
  2  1  2  0
  3  2  1  0
  4  1  1  0
  5  4  2  0
  6 10  1  0
  7  5  1  0
  8  1  1  0
  9  3  1  0
 10  8  2  0
 11 14  1  0
 12  4  1  0
 13  2  1  0
 14 13  2  0
 15  5  1  0
 16 15  1  0
 17 10  1  0
 18  6  1  0
 19  6  1  0
 20  6  1  0
 21  9  1  0
 22 16  1  0
 23 22  1  0
 24 14  1  0
 25 15  1  0
 26 23  1  0
 27 23  1  0
 28 26  1  0
 29 27  1  0
 30 28  1  0
 31 29  1  0
 32 30  1  0
 33 31  1  0
 17 12  2  0
  7  3  2  0
  9 11  2  0
  7 34  1  0
  8 35  1  0
 11 36  1  0
 12 37  1  0
 13 38  1  0
 15 39  1  1
 16 40  1  0
 16 41  1  0
 17 42  1  0
 22 43  1  0
 22 44  1  0
 25 45  1  0
 26 46  1  0
 26 47  1  0
 27 48  1  0
 27 49  1  0
 28 50  1  0
 28 51  1  0
 29 52  1  0
 29 53  1  0
 30 54  1  0
 30 55  1  0
 31 56  1  0
 31 57  1  0
 32 58  1  0
 32 59  1  0
 32 60  1  0
 33 61  1  0
 33 62  1  0
 33 63  1  0
M  END
> <Uni-Dock RESULT> 
ENERGY=   -4.523  LOWER_BOUND=    4.731  UPPER_BOUND=    6.507
INTER + INTRA:          -4.523
INTER:                  -4.523
INTRA:                   0.000
UNBOUND:                 0.000

$$$$
