
     RDKit          3D

 63 65  0  0  0  0  0  0  0  0999 V2000
   46.2849    8.3938   12.5580 C   0  0  0  0  0  0  0  0  0  0  0  0
   45.8001    7.0379   12.6822 C   0  0  0  0  0  0  0  0  0  0  0  0
   46.6392    6.0351   13.2246 C   0  0  0  0  0  0  0  0  0  0  0  0
   47.6093    8.7305   12.9720 C   0  0  0  0  0  0  0  0  0  0  0  0
   48.4441    7.7188   13.5157 C   0  0  0  0  0  0  0  0  0  0  0  0
   45.0079   11.8235   11.3143 C   0  0  0  0  0  0  0  0  0  0  0  0
   47.9336    6.4073   13.6269 C   0  0  0  0  0  0  0  0  0  0  0  0
   45.4783    9.4415   12.0288 C   0  0  0  0  0  0  0  0  0  0  0  0
   46.1575    4.7008   13.3490 C   0  0  0  0  0  0  0  0  0  0  0  0
   45.9125   10.7703   11.9006 C   0  0  0  0  0  0  0  0  0  0  0  0
   44.8732    4.3440   12.9471 C   0  0  0  0  0  0  0  0  0  0  0  0
   48.0252   10.0757   12.8171 C   0  0  0  0  0  0  0  0  0  0  0  0
   44.4973    6.6292   12.2862 C   0  0  0  0  0  0  0  0  0  0  0  0
   44.0478    5.3142   12.4162 C   0  0  0  0  0  0  0  0  0  0  0  0
   49.8683    7.8985   14.0546 C   0  0  2  0  0  0  0  0  0  0  0  0
   49.9294    8.0904   15.5847 C   0  0  0  0  0  0  0  0  0  0  0  0
   47.2050   11.0750   12.2936 C   0  0  0  0  0  0  0  0  0  0  0  0
   45.0191   11.8199    9.9534 F   0  0  0  0  0  0  0  0  0  0  0  0
   45.3414   13.0902   11.6897 F   0  0  0  0  0  0  0  0  0  0  0  0
   43.7043   11.6617   11.6775 F   0  0  0  0  0  0  0  0  0  0  0  0
   47.1281    3.4227   14.0130 Cl  0  0  0  0  0  0  0  0  0  0  0  0
   49.5203    9.4788   16.0955 C   0  0  0  0  0  0  0  0  0  0  0  0
   50.3782   10.5775   15.5999 N   0  0  0  0  0  0  0  0  0  0  0  0
   42.4547    4.9006   11.9146 Cl  0  0  0  0  0  0  0  0  0  0  0  0
   50.6508    8.8474   13.3427 O   0  0  0  0  0  0  0  0  0  0  0  0
   51.7414   10.5679   16.1761 C   0  0  0  0  0  0  0  0  0  0  0  0
   49.6769   11.8685   15.7754 C   0  0  0  0  0  0  0  0  0  0  0  0
   51.8706   10.8738   17.6759 C   0  0  0  0  0  0  0  0  0  0  0  0
   50.3936   13.0475   15.1022 C   0  0  0  0  0  0  0  0  0  0  0  0
   53.3347   10.8106   18.1204 C   0  0  0  0  0  0  0  0  0  0  0  0
   49.5410   14.3192   15.0516 C   0  0  0  0  0  0  0  0  0  0  0  0
   53.4812   11.1269   19.6002 C   0  0  0  0  0  0  0  0  0  0  0  0
   49.1991   14.8758   16.4250 C   0  0  0  0  0  0  0  0  0  0  0  0
   48.5928    5.6478   14.0502 H   0  0  0  0  0  0  0  0  0  0  0  0
   44.4622    9.2402   11.6957 H   0  0  0  0  0  0  0  0  0  0  0  0
   44.5243    3.3201   13.0492 H   0  0  0  0  0  0  0  0  0  0  0  0
   49.0233   10.3901   13.0988 H   0  0  0  0  0  0  0  0  0  0  0  0
   43.7949    7.3399   11.8602 H   0  0  0  0  0  0  0  0  0  0  0  0
   50.3874    6.9521   13.8509 H   0  0  0  0  0  0  0  0  0  0  0  0
   50.9503    7.8739   15.9198 H   0  0  0  0  0  0  0  0  0  0  0  0
   49.2921    7.3431   16.0748 H   0  0  0  0  0  0  0  0  0  0  0  0
   47.5939   12.0872   12.1974 H   0  0  0  0  0  0  0  0  0  0  0  0
   49.4902    9.4699   17.1913 H   0  0  0  0  0  0  0  0  0  0  0  0
   48.4834    9.6443   15.7771 H   0  0  0  0  0  0  0  0  0  0  0  0
   50.8053    9.5963   13.9549 H   0  0  0  0  0  0  0  0  0  0  0  0
   52.3590   11.2793   15.6140 H   0  0  0  0  0  0  0  0  0  0  0  0
   52.2136    9.6003   15.9698 H   0  0  0  0  0  0  0  0  0  0  0  0
   48.6839   11.7919   15.3150 H   0  0  0  0  0  0  0  0  0  0  0  0
   49.5075   12.0759   16.8379 H   0  0  0  0  0  0  0  0  0  0  0  0
   51.2903   10.1556   18.2656 H   0  0  0  0  0  0  0  0  0  0  0  0
   51.4789   11.8734   17.8966 H   0  0  0  0  0  0  0  0  0  0  0  0
   51.3312   13.2747   15.6222 H   0  0  0  0  0  0  0  0  0  0  0  0
   50.6548   12.7717   14.0725 H   0  0  0  0  0  0  0  0  0  0  0  0
   53.9317   11.5239   17.5401 H   0  0  0  0  0  0  0  0  0  0  0  0
   53.7404    9.8114   17.9249 H   0  0  0  0  0  0  0  0  0  0  0  0
   50.0929   15.0840   14.4921 H   0  0  0  0  0  0  0  0  0  0  0  0
   48.6161   14.1266   14.4955 H   0  0  0  0  0  0  0  0  0  0  0  0
   53.1189   12.1351   19.8228 H   0  0  0  0  0  0  0  0  0  0  0  0
   54.5326   11.0709   19.8976 H   0  0  0  0  0  0  0  0  0  0  0  0
   52.9170   10.4159   20.2114 H   0  0  0  0  0  0  0  0  0  0  0  0
   48.5316   14.2055   16.9732 H   0  0  0  0  0  0  0  0  0  0  0  0
   48.6894   15.8392   16.3232 H   0  0  0  0  0  0  0  0  0  0  0  0
   50.1021   15.0319   17.0232 H   0  0  0  0  0  0  0  0  0  0  0  0
  2  1  2  0
  3  2  1  0
  4  1  1  0
  5  4  2  0
  6 10  1  0
  7  5  1  0
  8  1  1  0
  9  3  1  0
 10  8  2  0
 11 14  1  0
 12  4  1  0
 13  2  1  0
 14 13  2  0
 15  5  1  0
 16 15  1  0
 17 10  1  0
 18  6  1  0
 19  6  1  0
 20  6  1  0
 21  9  1  0
 22 16  1  0
 23 22  1  0
 24 14  1  0
 25 15  1  0
 26 23  1  0
 27 23  1  0
 28 26  1  0
 29 27  1  0
 30 28  1  0
 31 29  1  0
 32 30  1  0
 33 31  1  0
 17 12  2  0
  7  3  2  0
  9 11  2  0
  7 34  1  0
  8 35  1  0
 11 36  1  0
 12 37  1  0
 13 38  1  0
 15 39  1  6
 16 40  1  0
 16 41  1  0
 17 42  1  0
 22 43  1  0
 22 44  1  0
 25 45  1  0
 26 46  1  0
 26 47  1  0
 27 48  1  0
 27 49  1  0
 28 50  1  0
 28 51  1  0
 29 52  1  0
 29 53  1  0
 30 54  1  0
 30 55  1  0
 31 56  1  0
 31 57  1  0
 32 58  1  0
 32 59  1  0
 32 60  1  0
 33 61  1  0
 33 62  1  0
 33 63  1  0
M  END
> <Uni-Dock RESULT> 
ENERGY=   -5.362  LOWER_BOUND=    0.000  UPPER_BOUND=    0.000
INTER + INTRA:          -5.362
INTER:                  -5.362
INTRA:                   0.000
UNBOUND:                 0.000

$$$$

     RDKit          3D

 63 65  0  0  0  0  0  0  0  0999 V2000
   47.8599    8.5084   19.1872 C   0  0  0  0  0  0  0  0  0  0  0  0
   47.9626    7.1936   19.7786 C   0  0  0  0  0  0  0  0  0  0  0  0
   48.4461    6.1089   19.0082 C   0  0  0  0  0  0  0  0  0  0  0  0
   48.2359    8.7222   17.8265 C   0  0  0  0  0  0  0  0  0  0  0  0
   48.7206    7.6289   17.0612 C   0  0  0  0  0  0  0  0  0  0  0  0
   46.7603   12.0685   20.2154 C   0  0  0  0  0  0  0  0  0  0  0  0
   48.8126    6.3608   17.6748 C   0  0  0  0  0  0  0  0  0  0  0  0
   47.3896    9.6348   19.9211 C   0  0  0  0  0  0  0  0  0  0  0  0
   48.5497    4.8153   19.5948 C   0  0  0  0  0  0  0  0  0  0  0  0
   47.2839   10.9268   19.3825 C   0  0  0  0  0  0  0  0  0  0  0  0
   48.1836    4.5779   20.9168 C   0  0  0  0  0  0  0  0  0  0  0  0
   48.1046   10.0328   17.3057 C   0  0  0  0  0  0  0  0  0  0  0  0
   47.6017    6.9057   21.1233 C   0  0  0  0  0  0  0  0  0  0  0  0
   47.7102    5.6286   21.6759 C   0  0  0  0  0  0  0  0  0  0  0  0
   49.2135    7.6741   15.6099 C   0  0  2  0  0  0  0  0  0  0  0  0
   50.7453    7.8125   15.4825 C   0  0  0  0  0  0  0  0  0  0  0  0
   47.6393   11.1120   18.0568 C   0  0  0  0  0  0  0  0  0  0  0  0
   45.4003   12.1065   20.2495 F   0  0  0  0  0  0  0  0  0  0  0  0
   47.1594   13.2912   19.7655 F   0  0  0  0  0  0  0  0  0  0  0  0
   47.1648   12.0029   21.5151 F   0  0  0  0  0  0  0  0  0  0  0  0
   49.1421    3.4418   18.7123 Cl  0  0  0  0  0  0  0  0  0  0  0  0
   51.3096    9.2132   15.7577 C   0  0  0  0  0  0  0  0  0  0  0  0
   50.8152   10.2527   14.8284 N   0  0  0  0  0  0  0  0  0  0  0  0
   47.2540    5.3630   23.3136 Cl  0  0  0  0  0  0  0  0  0  0  0  0
   48.5015    8.5775   14.7752 O   0  0  0  0  0  0  0  0  0  0  0  0
   51.3421   10.1133   13.4524 C   0  0  0  0  0  0  0  0  0  0  0  0
   51.0521   11.5907   15.4138 C   0  0  0  0  0  0  0  0  0  0  0  0
   52.8445   10.3605   13.2487 C   0  0  0  0  0  0  0  0  0  0  0  0
   50.3877   12.7274   14.6242 C   0  0  0  0  0  0  0  0  0  0  0  0
   53.2347   10.1636   11.7810 C   0  0  0  0  0  0  0  0  0  0  0  0
   50.4035   14.0658   15.3695 C   0  0  0  0  0  0  0  0  0  0  0  0
   54.7167   10.4204   11.5599 C   0  0  0  0  0  0  0  0  0  0  0  0
   51.8035   14.6054   15.6183 C   0  0  0  0  0  0  0  0  0  0  0  0
   49.1904    5.5369   17.0674 H   0  0  0  0  0  0  0  0  0  0  0  0
   47.0873    9.5280   20.9609 H   0  0  0  0  0  0  0  0  0  0  0  0
   48.2690    3.5834   21.3461 H   0  0  0  0  0  0  0  0  0  0  0  0
   48.3595   10.2553   16.2761 H   0  0  0  0  0  0  0  0  0  0  0  0
   47.2213    7.6846   21.7779 H   0  0  0  0  0  0  0  0  0  0  0  0
   48.9647    6.6952   15.1782 H   0  0  0  0  0  0  0  0  0  0  0  0
   51.0377    7.5026   14.4725 H   0  0  0  0  0  0  0  0  0  0  0  0
   51.2363    7.1051   16.1631 H   0  0  0  0  0  0  0  0  0  0  0  0
   47.5581   12.0914   17.5886 H   0  0  0  0  0  0  0  0  0  0  0  0
   52.4051    9.1725   15.7522 H   0  0  0  0  0  0  0  0  0  0  0  0
   51.0330    9.4730   16.7872 H   0  0  0  0  0  0  0  0  0  0  0  0
   49.1289    9.2916   14.5388 H   0  0  0  0  0  0  0  0  0  0  0  0
   50.7788   10.7888   12.7967 H   0  0  0  0  0  0  0  0  0  0  0  0
   51.0918    9.1171   13.0693 H   0  0  0  0  0  0  0  0  0  0  0  0
   50.6254   11.6103   16.4244 H   0  0  0  0  0  0  0  0  0  0  0  0
   52.1255   11.7781   15.5301 H   0  0  0  0  0  0  0  0  0  0  0  0
   53.4337    9.6743   13.8668 H   0  0  0  0  0  0  0  0  0  0  0  0
   53.1072   11.3815   13.5485 H   0  0  0  0  0  0  0  0  0  0  0  0
   50.8803   12.8606   13.6543 H   0  0  0  0  0  0  0  0  0  0  0  0
   49.3419   12.4635   14.4211 H   0  0  0  0  0  0  0  0  0  0  0  0
   52.6540   10.8432   11.1463 H   0  0  0  0  0  0  0  0  0  0  0  0
   52.9966    9.1410   11.4664 H   0  0  0  0  0  0  0  0  0  0  0  0
   49.8467   14.7999   14.7747 H   0  0  0  0  0  0  0  0  0  0  0  0
   49.8754   13.9672   16.3251 H   0  0  0  0  0  0  0  0  0  0  0  0
   54.9806   11.4474   11.8297 H   0  0  0  0  0  0  0  0  0  0  0  0
   54.9748   10.2690   10.5075 H   0  0  0  0  0  0  0  0  0  0  0  0
   55.3271    9.7393   12.1607 H   0  0  0  0  0  0  0  0  0  0  0  0
   52.3558   13.9753   16.3208 H   0  0  0  0  0  0  0  0  0  0  0  0
   51.7472   15.6100   16.0493 H   0  0  0  0  0  0  0  0  0  0  0  0
   52.3734   14.6681   14.6863 H   0  0  0  0  0  0  0  0  0  0  0  0
  2  1  2  0
  3  2  1  0
  4  1  1  0
  5  4  2  0
  6 10  1  0
  7  5  1  0
  8  1  1  0
  9  3  1  0
 10  8  2  0
 11 14  1  0
 12  4  1  0
 13  2  1  0
 14 13  2  0
 15  5  1  0
 16 15  1  0
 17 10  1  0
 18  6  1  0
 19  6  1  0
 20  6  1  0
 21  9  1  0
 22 16  1  0
 23 22  1  0
 24 14  1  0
 25 15  1  0
 26 23  1  0
 27 23  1  0
 28 26  1  0
 29 27  1  0
 30 28  1  0
 31 29  1  0
 32 30  1  0
 33 31  1  0
 17 12  2  0
  7  3  2  0
  9 11  2  0
  7 34  1  0
  8 35  1  0
 11 36  1  0
 12 37  1  0
 13 38  1  0
 15 39  1  6
 16 40  1  0
 16 41  1  0
 17 42  1  0
 22 43  1  0
 22 44  1  0
 25 45  1  0
 26 46  1  0
 26 47  1  0
 27 48  1  0
 27 49  1  0
 28 50  1  0
 28 51  1  0
 29 52  1  0
 29 53  1  0
 30 54  1  0
 30 55  1  0
 31 56  1  0
 31 57  1  0
 32 58  1  0
 32 59  1  0
 32 60  1  0
 33 61  1  0
 33 62  1  0
 33 63  1  0
M  END
> <Uni-Dock RESULT> 
ENERGY=   -5.069  LOWER_BOUND=    4.855  UPPER_BOUND=    6.473
INTER + INTRA:          -5.069
INTER:                  -5.069
INTRA:                   0.000
UNBOUND:                 0.000

$$$$

     RDKit          3D

 63 65  0  0  0  0  0  0  0  0999 V2000
   45.3601    9.9005   11.9936 C   0  0  0  0  0  0  0  0  0  0  0  0
   45.9947    8.6631   12.3872 C   0  0  0  0  0  0  0  0  0  0  0  0
   47.3744    8.6471   12.7040 C   0  0  0  0  0  0  0  0  0  0  0  0
   46.1160   11.1093   11.9141 C   0  0  0  0  0  0  0  0  0  0  0  0
   47.4990   11.0844   12.2342 C   0  0  0  0  0  0  0  0  0  0  0  0
   41.8543   11.1548   10.9558 C   0  0  0  0  0  0  0  0  0  0  0  0
   48.0827    9.8583   12.6204 C   0  0  0  0  0  0  0  0  0  0  0  0
   43.9739    9.9732   11.6746 C   0  0  0  0  0  0  0  0  0  0  0  0
   47.9962    7.4270   13.0950 C   0  0  0  0  0  0  0  0  0  0  0  0
   43.3225   11.1576   11.2964 C   0  0  0  0  0  0  0  0  0  0  0  0
   47.2842    6.2333   13.1743 C   0  0  0  0  0  0  0  0  0  0  0  0
   45.4355   12.2858   11.5154 C   0  0  0  0  0  0  0  0  0  0  0  0
   45.3074    7.4223   12.4828 C   0  0  0  0  0  0  0  0  0  0  0  0
   45.9390    6.2383   12.8666 C   0  0  0  0  0  0  0  0  0  0  0  0
   48.4564   12.2820   12.2523 C   0  0  2  0  0  0  0  0  0  0  0  0
   48.6412   12.9031   13.6530 C   0  0  0  0  0  0  0  0  0  0  0  0
   44.0748   12.3171   11.2104 C   0  0  0  0  0  0  0  0  0  0  0  0
   41.6185   10.7630    9.6740 F   0  0  0  0  0  0  0  0  0  0  0  0
   41.2677   12.3773   11.0893 F   0  0  0  0  0  0  0  0  0  0  0  0
   41.1312   10.3099   11.7435 F   0  0  0  0  0  0  0  0  0  0  0  0
   49.6812    7.3352   13.5059 Cl  0  0  0  0  0  0  0  0  0  0  0  0
   47.4801   13.7754   14.1498 C   0  0  0  0  0  0  0  0  0  0  0  0
   47.2162   14.9611   13.3055 N   0  0  0  0  0  0  0  0  0  0  0  0
   45.0351    4.7772   12.9597 Cl  0  0  0  0  0  0  0  0  0  0  0  0
   48.2058   13.2501   11.2426 O   0  0  0  0  0  0  0  0  0  0  0  0
   48.2703   15.9961   13.3950 C   0  0  0  0  0  0  0  0  0  0  0  0
   45.8604   15.4793   13.5926 C   0  0  0  0  0  0  0  0  0  0  0  0
   48.4172   16.7330   14.7348 C   0  0  0  0  0  0  0  0  0  0  0  0
   45.4104   16.5799   12.6215 C   0  0  0  0  0  0  0  0  0  0  0  0
   49.5547   17.7562   14.6718 C   0  0  0  0  0  0  0  0  0  0  0  0
   43.9224   16.9215   12.7482 C   0  0  0  0  0  0  0  0  0  0  0  0
   49.7027   18.5057   15.9861 C   0  0  0  0  0  0  0  0  0  0  0  0
   43.5453   17.4975   14.1042 C   0  0  0  0  0  0  0  0  0  0  0  0
   49.1461    9.8649   12.8642 H   0  0  0  0  0  0  0  0  0  0  0  0
   43.3513    9.0817   11.7163 H   0  0  0  0  0  0  0  0  0  0  0  0
   47.7769    5.3123   13.4737 H   0  0  0  0  0  0  0  0  0  0  0  0
   45.9573   13.2311   11.4218 H   0  0  0  0  0  0  0  0  0  0  0  0
   44.2476    7.3526   12.2549 H   0  0  0  0  0  0  0  0  0  0  0  0
   49.4402   11.8835   11.9696 H   0  0  0  0  0  0  0  0  0  0  0  0
   49.5596   13.5016   13.6474 H   0  0  0  0  0  0  0  0  0  0  0  0
   48.8112   12.1066   14.3888 H   0  0  0  0  0  0  0  0  0  0  0  0
   43.6191   13.2571   10.9043 H   0  0  0  0  0  0  0  0  0  0  0  0
   47.6637   14.0689   15.1900 H   0  0  0  0  0  0  0  0  0  0  0  0
   46.5894   13.1354   14.1808 H   0  0  0  0  0  0  0  0  0  0  0  0
   47.9000   14.0592   11.7023 H   0  0  0  0  0  0  0  0  0  0  0  0
   48.0988   16.7335   12.6010 H   0  0  0  0  0  0  0  0  0  0  0  0
   49.2360   15.5518   13.1273 H   0  0  0  0  0  0  0  0  0  0  0  0
   45.1436   14.6543   13.4964 H   0  0  0  0  0  0  0  0  0  0  0  0
   45.7903   15.8275   14.6293 H   0  0  0  0  0  0  0  0  0  0  0  0
   48.6243   16.0228   15.5429 H   0  0  0  0  0  0  0  0  0  0  0  0
   47.4873   17.2559   14.9867 H   0  0  0  0  0  0  0  0  0  0  0  0
   45.9944   17.4938   12.7793 H   0  0  0  0  0  0  0  0  0  0  0  0
   45.5976   16.2516   11.5911 H   0  0  0  0  0  0  0  0  0  0  0  0
   49.3643   18.4764   13.8674 H   0  0  0  0  0  0  0  0  0  0  0  0
   50.4985   17.2499   14.4390 H   0  0  0  0  0  0  0  0  0  0  0  0
   43.6686   17.6554   11.9738 H   0  0  0  0  0  0  0  0  0  0  0  0
   43.3165   16.0298   12.5493 H   0  0  0  0  0  0  0  0  0  0  0  0
   48.7875   19.0541   16.2293 H   0  0  0  0  0  0  0  0  0  0  0  0
   50.5231   19.2267   15.9213 H   0  0  0  0  0  0  0  0  0  0  0  0
   49.9197   17.8172   16.8084 H   0  0  0  0  0  0  0  0  0  0  0  0
   43.6510   16.7532   14.8981 H   0  0  0  0  0  0  0  0  0  0  0  0
   42.5008   17.8251   14.0953 H   0  0  0  0  0  0  0  0  0  0  0  0
   44.1691   18.3614   14.3530 H   0  0  0  0  0  0  0  0  0  0  0  0
  2  1  2  0
  3  2  1  0
  4  1  1  0
  5  4  2  0
  6 10  1  0
  7  5  1  0
  8  1  1  0
  9  3  1  0
 10  8  2  0
 11 14  1  0
 12  4  1  0
 13  2  1  0
 14 13  2  0
 15  5  1  0
 16 15  1  0
 17 10  1  0
 18  6  1  0
 19  6  1  0
 20  6  1  0
 21  9  1  0
 22 16  1  0
 23 22  1  0
 24 14  1  0
 25 15  1  0
 26 23  1  0
 27 23  1  0
 28 26  1  0
 29 27  1  0
 30 28  1  0
 31 29  1  0
 32 30  1  0
 33 31  1  0
 17 12  2  0
  7  3  2  0
  9 11  2  0
  7 34  1  0
  8 35  1  0
 11 36  1  0
 12 37  1  0
 13 38  1  0
 15 39  1  6
 16 40  1  0
 16 41  1  0
 17 42  1  0
 22 43  1  0
 22 44  1  0
 25 45  1  0
 26 46  1  0
 26 47  1  0
 27 48  1  0
 27 49  1  0
 28 50  1  0
 28 51  1  0
 29 52  1  0
 29 53  1  0
 30 54  1  0
 30 55  1  0
 31 56  1  0
 31 57  1  0
 32 58  1  0
 32 59  1  0
 32 60  1  0
 33 61  1  0
 33 62  1  0
 33 63  1  0
M  END
> <Uni-Dock RESULT> 
ENERGY=   -5.004  LOWER_BOUND=    3.240  UPPER_BOUND=    4.794
INTER + INTRA:          -5.004
INTER:                  -5.004
INTRA:                   0.000
UNBOUND:                 0.000

$$$$

     RDKit          3D

 63 65  0  0  0  0  0  0  0  0999 V2000
   54.9264    5.3286   10.7930 C   0  0  0  0  0  0  0  0  0  0  0  0
   55.6029    4.1903   11.3722 C   0  0  0  0  0  0  0  0  0  0  0  0
   56.1149    4.2687   12.6897 C   0  0  0  0  0  0  0  0  0  0  0  0
   54.7757    6.5378   11.5373 C   0  0  0  0  0  0  0  0  0  0  0  0
   55.2914    6.6076   12.8583 C   0  0  0  0  0  0  0  0  0  0  0  0
   53.1825    6.2824    7.4779 C   0  0  0  0  0  0  0  0  0  0  0  0
   55.9408    5.4735   13.3925 C   0  0  0  0  0  0  0  0  0  0  0  0
   54.3845    5.2987    9.4762 C   0  0  0  0  0  0  0  0  0  0  0  0
   56.7778    3.1442   13.2590 C   0  0  0  0  0  0  0  0  0  0  0  0
   53.7149    6.3813    8.8844 C   0  0  0  0  0  0  0  0  0  0  0  0
   56.9443    1.9559   12.5531 C   0  0  0  0  0  0  0  0  0  0  0  0
   54.1090    7.6183   10.9093 C   0  0  0  0  0  0  0  0  0  0  0  0
   55.7945    2.9581   10.6894 C   0  0  0  0  0  0  0  0  0  0  0  0
   56.4496    1.8698   11.2677 C   0  0  0  0  0  0  0  0  0  0  0  0
   55.1844    7.7959   13.8215 C   0  0  2  0  0  0  0  0  0  0  0  0
   54.0040    7.6849   14.8095 C   0  0  0  0  0  0  0  0  0  0  0  0
   53.5913    7.5506    9.6159 C   0  0  0  0  0  0  0  0  0  0  0  0
   54.1398    6.5236    6.5412 F   0  0  0  0  0  0  0  0  0  0  0  0
   52.1742    7.1620    7.2203 F   0  0  0  0  0  0  0  0  0  0  0  0
   52.6798    5.0490    7.1891 F   0  0  0  0  0  0  0  0  0  0  0  0
   57.4224    3.1665   14.8716 Cl  0  0  0  0  0  0  0  0  0  0  0  0
   52.6180    7.9866   14.2231 C   0  0  0  0  0  0  0  0  0  0  0  0
   52.4730    9.3641   13.7036 N   0  0  0  0  0  0  0  0  0  0  0  0
   56.6390    0.4114   10.3745 Cl  0  0  0  0  0  0  0  0  0  0  0  0
   55.2689    9.0690   13.1959 O   0  0  0  0  0  0  0  0  0  0  0  0
   52.4482   10.3956   14.7646 C   0  0  0  0  0  0  0  0  0  0  0  0
   51.3062    9.4289   12.7961 C   0  0  0  0  0  0  0  0  0  0  0  0
   51.2323   10.4065   15.7034 C   0  0  0  0  0  0  0  0  0  0  0  0
   51.1937   10.7616   12.0424 C   0  0  0  0  0  0  0  0  0  0  0  0
   51.3625   11.5164   16.7503 C   0  0  0  0  0  0  0  0  0  0  0  0
   50.1565   10.7289   10.9155 C   0  0  0  0  0  0  0  0  0  0  0  0
   50.1585   11.5506   17.6779 C   0  0  0  0  0  0  0  0  0  0  0  0
   48.7349   10.5009   11.4054 C   0  0  0  0  0  0  0  0  0  0  0  0
   56.3262    5.5504   14.4103 H   0  0  0  0  0  0  0  0  0  0  0  0
   54.4732    4.4036    8.8639 H   0  0  0  0  0  0  0  0  0  0  0  0
   57.4539    1.1092   13.0046 H   0  0  0  0  0  0  0  0  0  0  0  0
   53.9766    8.5667   11.4168 H   0  0  0  0  0  0  0  0  0  0  0  0
   55.4314    2.8201    9.6750 H   0  0  0  0  0  0  0  0  0  0  0  0
   56.0936    7.7655   14.4371 H   0  0  0  0  0  0  0  0  0  0  0  0
   54.1911    8.3638   15.6494 H   0  0  0  0  0  0  0  0  0  0  0  0
   53.9810    6.6767   15.2430 H   0  0  0  0  0  0  0  0  0  0  0  0
   53.0961    8.4234    9.1941 H   0  0  0  0  0  0  0  0  0  0  0  0
   51.8492    7.7685   14.9735 H   0  0  0  0  0  0  0  0  0  0  0  0
   52.4486    7.2646   13.4144 H   0  0  0  0  0  0  0  0  0  0  0  0
   54.3883    9.4865   13.2938 H   0  0  0  0  0  0  0  0  0  0  0  0
   52.5399   11.3808   14.2908 H   0  0  0  0  0  0  0  0  0  0  0  0
   53.3604   10.3155   15.3673 H   0  0  0  0  0  0  0  0  0  0  0  0
   51.4079    8.6405   12.0398 H   0  0  0  0  0  0  0  0  0  0  0  0
   50.3797    9.2143   13.3405 H   0  0  0  0  0  0  0  0  0  0  0  0
   51.1359    9.4441   16.2179 H   0  0  0  0  0  0  0  0  0  0  0  0
   50.3108   10.5680   15.1323 H   0  0  0  0  0  0  0  0  0  0  0  0
   50.9357   11.5728   12.7327 H   0  0  0  0  0  0  0  0  0  0  0  0
   52.1674   11.0110   11.6016 H   0  0  0  0  0  0  0  0  0  0  0  0
   51.4601   12.4886   16.2530 H   0  0  0  0  0  0  0  0  0  0  0  0
   52.2700   11.3624   17.3454 H   0  0  0  0  0  0  0  0  0  0  0  0
   50.1932   11.6871   10.3832 H   0  0  0  0  0  0  0  0  0  0  0  0
   50.4204    9.9527   10.1876 H   0  0  0  0  0  0  0  0  0  0  0  0
   49.2380   11.7408   17.1178 H   0  0  0  0  0  0  0  0  0  0  0  0
   50.2743   12.3459   18.4203 H   0  0  0  0  0  0  0  0  0  0  0  0
   50.0467   10.6017   18.2112 H   0  0  0  0  0  0  0  0  0  0  0  0
   48.6122    9.4981   11.8235 H   0  0  0  0  0  0  0  0  0  0  0  0
   48.0308   10.6005   10.5733 H   0  0  0  0  0  0  0  0  0  0  0  0
   48.4597   11.2324   12.1714 H   0  0  0  0  0  0  0  0  0  0  0  0
  2  1  2  0
  3  2  1  0
  4  1  1  0
  5  4  2  0
  6 10  1  0
  7  5  1  0
  8  1  1  0
  9  3  1  0
 10  8  2  0
 11 14  1  0
 12  4  1  0
 13  2  1  0
 14 13  2  0
 15  5  1  0
 16 15  1  0
 17 10  1  0
 18  6  1  0
 19  6  1  0
 20  6  1  0
 21  9  1  0
 22 16  1  0
 23 22  1  0
 24 14  1  0
 25 15  1  0
 26 23  1  0
 27 23  1  0
 28 26  1  0
 29 27  1  0
 30 28  1  0
 31 29  1  0
 32 30  1  0
 33 31  1  0
 17 12  2  0
  7  3  2  0
  9 11  2  0
  7 34  1  0
  8 35  1  0
 11 36  1  0
 12 37  1  0
 13 38  1  0
 15 39  1  6
 16 40  1  0
 16 41  1  0
 17 42  1  0
 22 43  1  0
 22 44  1  0
 25 45  1  0
 26 46  1  0
 26 47  1  0
 27 48  1  0
 27 49  1  0
 28 50  1  0
 28 51  1  0
 29 52  1  0
 29 53  1  0
 30 54  1  0
 30 55  1  0
 31 56  1  0
 31 57  1  0
 32 58  1  0
 32 59  1  0
 32 60  1  0
 33 61  1  0
 33 62  1  0
 33 63  1  0
M  END
> <Uni-Dock RESULT> 
ENERGY=   -4.944  LOWER_BOUND=    6.596  UPPER_BOUND=    8.483
INTER + INTRA:          -4.944
INTER:                  -4.944
INTRA:                   0.000
UNBOUND:                 0.000

$$$$

     RDKit          3D

 63 65  0  0  0  0  0  0  0  0999 V2000
   46.3114    9.1519   12.3488 C   0  0  0  0  0  0  0  0  0  0  0  0
   45.8387    7.7919   12.4742 C   0  0  0  0  0  0  0  0  0  0  0  0
   44.5430    7.4501   12.0178 C   0  0  0  0  0  0  0  0  0  0  0  0
   45.4780   10.1586   11.7736 C   0  0  0  0  0  0  0  0  0  0  0  0
   44.1802    9.8070   11.3178 C   0  0  0  0  0  0  0  0  0  0  0  0
   49.4845   11.2019   13.1673 C   0  0  0  0  0  0  0  0  0  0  0  0
   43.7554    8.4673   11.4514 C   0  0  0  0  0  0  0  0  0  0  0  0
   47.6096    9.5459   12.7825 C   0  0  0  0  0  0  0  0  0  0  0  0
   44.0813    6.1083   12.1394 C   0  0  0  0  0  0  0  0  0  0  0  0
   48.1049   10.8545   12.6696 C   0  0  0  0  0  0  0  0  0  0  0  0
   44.8705    5.1091   12.7022 C   0  0  0  0  0  0  0  0  0  0  0  0
   45.9987   11.4729   11.6862 C   0  0  0  0  0  0  0  0  0  0  0  0
   46.6098    6.7402   13.0406 C   0  0  0  0  0  0  0  0  0  0  0  0
   46.1348    5.4324   13.1509 C   0  0  0  0  0  0  0  0  0  0  0  0
   43.1674   10.7337   10.6346 C   0  0  2  0  0  0  0  0  0  0  0  0
   43.1997   10.6539    9.0937 C   0  0  0  0  0  0  0  0  0  0  0  0
   47.2770   11.8206   12.1228 C   0  0  0  0  0  0  0  0  0  0  0  0
   49.5091   11.4415   14.5068 F   0  0  0  0  0  0  0  0  0  0  0  0
   50.0063   12.3135   12.5769 F   0  0  0  0  0  0  0  0  0  0  0  0
   50.3905   10.2076   12.9490 F   0  0  0  0  0  0  0  0  0  0  0  0
   42.5077    5.6163   11.5934 Cl  0  0  0  0  0  0  0  0  0  0  0  0
   44.3734   11.3751    8.4169 C   0  0  0  0  0  0  0  0  0  0  0  0
   44.4041   12.8335    8.6632 N   0  0  0  0  0  0  0  0  0  0  0  0
   47.1321    4.2155   13.8476 Cl  0  0  0  0  0  0  0  0  0  0  0  0
   43.1690   12.0681   11.1231 O   0  0  0  0  0  0  0  0  0  0  0  0
   43.3196   13.5711    7.9773 C   0  0  0  0  0  0  0  0  0  0  0  0
   45.7536   13.3573    8.3570 C   0  0  0  0  0  0  0  0  0  0  0  0
   43.3708   13.6259    6.4430 C   0  0  0  0  0  0  0  0  0  0  0  0
   45.9493   14.8205    8.7785 C   0  0  0  0  0  0  0  0  0  0  0  0
   42.1777   14.4077    5.8859 C   0  0  0  0  0  0  0  0  0  0  0  0
   47.4108   15.2747    8.7112 C   0  0  0  0  0  0  0  0  0  0  0  0
   42.2223   14.4847    4.3683 C   0  0  0  0  0  0  0  0  0  0  0  0
   47.9895   15.2516    7.3050 C   0  0  0  0  0  0  0  0  0  0  0  0
   42.7554    8.2209   11.0915 H   0  0  0  0  0  0  0  0  0  0  0  0
   48.2850    8.8199   13.2304 H   0  0  0  0  0  0  0  0  0  0  0  0
   44.4999    4.0913   12.7871 H   0  0  0  0  0  0  0  0  0  0  0  0
   45.4093   12.2833   11.2734 H   0  0  0  0  0  0  0  0  0  0  0  0
   47.6131    6.9230   13.4145 H   0  0  0  0  0  0  0  0  0  0  0  0
   42.1761   10.3659   10.9325 H   0  0  0  0  0  0  0  0  0  0  0  0
   42.2592   11.0626    8.7065 H   0  0  0  0  0  0  0  0  0  0  0  0
   43.2167    9.6021    8.7802 H   0  0  0  0  0  0  0  0  0  0  0  0
   47.6090   12.8531   12.0302 H   0  0  0  0  0  0  0  0  0  0  0  0
   44.3626   11.1601    7.3420 H   0  0  0  0  0  0  0  0  0  0  0  0
   45.2940   10.9145    8.7967 H   0  0  0  0  0  0  0  0  0  0  0  0
   43.5006   12.6314   10.3935 H   0  0  0  0  0  0  0  0  0  0  0  0
   43.2974   14.5956    8.3688 H   0  0  0  0  0  0  0  0  0  0  0  0
   42.3518   13.1584    8.2850 H   0  0  0  0  0  0  0  0  0  0  0  0
   46.4923   12.7631    8.9093 H   0  0  0  0  0  0  0  0  0  0  0  0
   45.9876   13.2274    7.2944 H   0  0  0  0  0  0  0  0  0  0  0  0
   43.3590   12.6145    6.0221 H   0  0  0  0  0  0  0  0  0  0  0  0
   44.2955   14.1105    6.1091 H   0  0  0  0  0  0  0  0  0  0  0  0
   45.3464   15.4854    8.1496 H   0  0  0  0  0  0  0  0  0  0  0  0
   45.6002   14.9492    9.8110 H   0  0  0  0  0  0  0  0  0  0  0  0
   42.1731   15.4241    6.2970 H   0  0  0  0  0  0  0  0  0  0  0  0
   41.2416   13.9277    6.1937 H   0  0  0  0  0  0  0  0  0  0  0  0
   47.4731   16.2991    9.0979 H   0  0  0  0  0  0  0  0  0  0  0  0
   48.0265   14.6505    9.3693 H   0  0  0  0  0  0  0  0  0  0  0  0
   43.1294   14.9937    4.0286 H   0  0  0  0  0  0  0  0  0  0  0  0
   41.3594   15.0417    3.9913 H   0  0  0  0  0  0  0  0  0  0  0  0
   42.2019   13.4850    3.9237 H   0  0  0  0  0  0  0  0  0  0  0  0
   48.0767   14.2299    6.9253 H   0  0  0  0  0  0  0  0  0  0  0  0
   48.9920   15.6911    7.3045 H   0  0  0  0  0  0  0  0  0  0  0  0
   47.3670   15.8270    6.6129 H   0  0  0  0  0  0  0  0  0  0  0  0
  2  1  2  0
  3  2  1  0
  4  1  1  0
  5  4  2  0
  6 10  1  0
  7  5  1  0
  8  1  1  0
  9  3  1  0
 10  8  2  0
 11 14  1  0
 12  4  1  0
 13  2  1  0
 14 13  2  0
 15  5  1  0
 16 15  1  0
 17 10  1  0
 18  6  1  0
 19  6  1  0
 20  6  1  0
 21  9  1  0
 22 16  1  0
 23 22  1  0
 24 14  1  0
 25 15  1  0
 26 23  1  0
 27 23  1  0
 28 26  1  0
 29 27  1  0
 30 28  1  0
 31 29  1  0
 32 30  1  0
 33 31  1  0
 17 12  2  0
  7  3  2  0
  9 11  2  0
  7 34  1  0
  8 35  1  0
 11 36  1  0
 12 37  1  0
 13 38  1  0
 15 39  1  6
 16 40  1  0
 16 41  1  0
 17 42  1  0
 22 43  1  0
 22 44  1  0
 25 45  1  0
 26 46  1  0
 26 47  1  0
 27 48  1  0
 27 49  1  0
 28 50  1  0
 28 51  1  0
 29 52  1  0
 29 53  1  0
 30 54  1  0
 30 55  1  0
 31 56  1  0
 31 57  1  0
 32 58  1  0
 32 59  1  0
 32 60  1  0
 33 61  1  0
 33 62  1  0
 33 63  1  0
M  END
> <Uni-Dock RESULT> 
ENERGY=   -4.826  LOWER_BOUND=    4.014  UPPER_BOUND=    7.759
INTER + INTRA:          -4.826
INTER:                  -4.826
INTRA:                   0.000
UNBOUND:                 0.000

$$$$

     RDKit          3D

 63 65  0  0  0  0  0  0  0  0999 V2000
   46.9676    5.2844   14.4167 C   0  0  0  0  0  0  0  0  0  0  0  0
   45.9293    5.2594   13.4116 C   0  0  0  0  0  0  0  0  0  0  0  0
   45.6249    6.4337   12.6820 C   0  0  0  0  0  0  0  0  0  0  0  0
   47.6864    6.4884   14.6862 C   0  0  0  0  0  0  0  0  0  0  0  0
   47.3752    7.6614   13.9492 C   0  0  0  0  0  0  0  0  0  0  0  0
   48.6329    2.8563   16.9211 C   0  0  0  0  0  0  0  0  0  0  0  0
   46.3590    7.5969   12.9714 C   0  0  0  0  0  0  0  0  0  0  0  0
   47.3198    4.1290   15.1713 C   0  0  0  0  0  0  0  0  0  0  0  0
   44.6037    6.4051   11.6897 C   0  0  0  0  0  0  0  0  0  0  0  0
   48.3270    4.1140   16.1489 C   0  0  0  0  0  0  0  0  0  0  0  0
   43.8832    5.2468   11.4117 C   0  0  0  0  0  0  0  0  0  0  0  0
   48.6868    6.4472   15.6881 C   0  0  0  0  0  0  0  0  0  0  0  0
   45.1697    4.1003   13.0941 C   0  0  0  0  0  0  0  0  0  0  0  0
   44.1719    4.0971   12.1183 C   0  0  0  0  0  0  0  0  0  0  0  0
   48.0663    9.0253   14.0642 C   0  0  2  0  0  0  0  0  0  0  0  0
   49.1746    9.2460   13.0132 C   0  0  0  0  0  0  0  0  0  0  0  0
   49.0033    5.2946   16.4070 C   0  0  0  0  0  0  0  0  0  0  0  0
   47.7856    2.6708   17.9697 F   0  0  0  0  0  0  0  0  0  0  0  0
   49.8902    2.8385   17.4459 F   0  0  0  0  0  0  0  0  0  0  0  0
   48.5349    1.7313   16.1582 F   0  0  0  0  0  0  0  0  0  0  0  0
   44.1836    7.8047   10.7510 Cl  0  0  0  0  0  0  0  0  0  0  0  0
   50.4960    8.5117   13.2788 C   0  0  0  0  0  0  0  0  0  0  0  0
   51.1628    8.9124   14.5371 N   0  0  0  0  0  0  0  0  0  0  0  0
   43.2984    2.6509   11.7919 Cl  0  0  0  0  0  0  0  0  0  0  0  0
   48.4721    9.3694   15.3819 O   0  0  0  0  0  0  0  0  0  0  0  0
   51.7224   10.2820   14.4985 C   0  0  0  0  0  0  0  0  0  0  0  0
   52.1562    7.8841   14.9181 C   0  0  0  0  0  0  0  0  0  0  0  0
   52.9098   10.5277   13.5554 C   0  0  0  0  0  0  0  0  0  0  0  0
   52.7527    8.1017   16.3158 C   0  0  0  0  0  0  0  0  0  0  0  0
   53.3618   11.9895   13.6183 C   0  0  0  0  0  0  0  0  0  0  0  0
   53.5675    6.9039   16.8144 C   0  0  0  0  0  0  0  0  0  0  0  0
   54.5473   12.2454   12.7017 C   0  0  0  0  0  0  0  0  0  0  0  0
   54.7967    6.6115   15.9681 C   0  0  0  0  0  0  0  0  0  0  0  0
   46.1397    8.5103   12.4163 H   0  0  0  0  0  0  0  0  0  0  0  0
   46.8025    3.1856   15.0085 H   0  0  0  0  0  0  0  0  0  0  0  0
   43.1070    5.2453   10.6514 H   0  0  0  0  0  0  0  0  0  0  0  0
   49.2562    7.3317   15.9487 H   0  0  0  0  0  0  0  0  0  0  0  0
   45.3432    3.1608   13.6109 H   0  0  0  0  0  0  0  0  0  0  0  0
   47.2922    9.7730   13.8442 H   0  0  0  0  0  0  0  0  0  0  0  0
   49.3730   10.3216   12.9405 H   0  0  0  0  0  0  0  0  0  0  0  0
   48.8078    8.9450   12.0234 H   0  0  0  0  0  0  0  0  0  0  0  0
   49.7803    5.3381   17.1681 H   0  0  0  0  0  0  0  0  0  0  0  0
   51.1659    8.6448   12.4214 H   0  0  0  0  0  0  0  0  0  0  0  0
   50.2663    7.4391   13.3050 H   0  0  0  0  0  0  0  0  0  0  0  0
   49.4516    9.3752   15.3791 H   0  0  0  0  0  0  0  0  0  0  0  0
   52.0137   10.5650   15.5176 H   0  0  0  0  0  0  0  0  0  0  0  0
   50.9233   10.9916   14.2544 H   0  0  0  0  0  0  0  0  0  0  0  0
   51.6591    6.9060   14.9305 H   0  0  0  0  0  0  0  0  0  0  0  0
   52.9503    7.8154   14.1662 H   0  0  0  0  0  0  0  0  0  0  0  0
   52.6361   10.2859   12.5225 H   0  0  0  0  0  0  0  0  0  0  0  0
   53.7548    9.8861   13.8306 H   0  0  0  0  0  0  0  0  0  0  0  0
   53.3942    8.9903   16.3258 H   0  0  0  0  0  0  0  0  0  0  0  0
   51.9405    8.2823   17.0316 H   0  0  0  0  0  0  0  0  0  0  0  0
   53.6401   12.2499   14.6463 H   0  0  0  0  0  0  0  0  0  0  0  0
   52.5349   12.6477   13.3281 H   0  0  0  0  0  0  0  0  0  0  0  0
   53.8914    7.1092   17.8419 H   0  0  0  0  0  0  0  0  0  0  0  0
   52.9322    6.0115   16.8557 H   0  0  0  0  0  0  0  0  0  0  0  0
   55.4046   11.6292   12.9891 H   0  0  0  0  0  0  0  0  0  0  0  0
   54.8502   13.2953   12.7577 H   0  0  0  0  0  0  0  0  0  0  0  0
   54.2950   12.0197   11.6611 H   0  0  0  0  0  0  0  0  0  0  0  0
   54.5206    6.2670   14.9678 H   0  0  0  0  0  0  0  0  0  0  0  0
   55.3953    5.8232   16.4356 H   0  0  0  0  0  0  0  0  0  0  0  0
   55.4268    7.5005   15.8673 H   0  0  0  0  0  0  0  0  0  0  0  0
  2  1  2  0
  3  2  1  0
  4  1  1  0
  5  4  2  0
  6 10  1  0
  7  5  1  0
  8  1  1  0
  9  3  1  0
 10  8  2  0
 11 14  1  0
 12  4  1  0
 13  2  1  0
 14 13  2  0
 15  5  1  0
 16 15  1  0
 17 10  1  0
 18  6  1  0
 19  6  1  0
 20  6  1  0
 21  9  1  0
 22 16  1  0
 23 22  1  0
 24 14  1  0
 25 15  1  0
 26 23  1  0
 27 23  1  0
 28 26  1  0
 29 27  1  0
 30 28  1  0
 31 29  1  0
 32 30  1  0
 33 31  1  0
 17 12  2  0
  7  3  2  0
  9 11  2  0
  7 34  1  0
  8 35  1  0
 11 36  1  0
 12 37  1  0
 13 38  1  0
 15 39  1  6
 16 40  1  0
 16 41  1  0
 17 42  1  0
 22 43  1  0
 22 44  1  0
 25 45  1  0
 26 46  1  0
 26 47  1  0
 27 48  1  0
 27 49  1  0
 28 50  1  0
 28 51  1  0
 29 52  1  0
 29 53  1  0
 30 54  1  0
 30 55  1  0
 31 56  1  0
 31 57  1  0
 32 58  1  0
 32 59  1  0
 32 60  1  0
 33 61  1  0
 33 62  1  0
 33 63  1  0
M  END
> <Uni-Dock RESULT> 
ENERGY=   -4.794  LOWER_BOUND=    4.498  UPPER_BOUND=    6.086
INTER + INTRA:          -4.794
INTER:                  -4.794
INTRA:                   0.000
UNBOUND:                 0.000

$$$$

     RDKit          3D

 63 65  0  0  0  0  0  0  0  0999 V2000
   51.4029    4.0150   17.7208 C   0  0  0  0  0  0  0  0  0  0  0  0
   52.5751    3.1857   17.8852 C   0  0  0  0  0  0  0  0  0  0  0  0
   53.8576    3.7813   17.9508 C   0  0  0  0  0  0  0  0  0  0  0  0
   51.5277    5.4335   17.6163 C   0  0  0  0  0  0  0  0  0  0  0  0
   52.8176    6.0228   17.6839 C   0  0  0  0  0  0  0  0  0  0  0  0
   47.5718    3.5897   17.4330 C   0  0  0  0  0  0  0  0  0  0  0  0
   53.9387    5.1811   17.8510 C   0  0  0  0  0  0  0  0  0  0  0  0
   50.0896    3.4671   17.6591 C   0  0  0  0  0  0  0  0  0  0  0  0
   55.0105    2.9619   18.1165 C   0  0  0  0  0  0  0  0  0  0  0  0
   48.9286    4.2416   17.5080 C   0  0  0  0  0  0  0  0  0  0  0  0
   54.9177    1.5763   18.2142 C   0  0  0  0  0  0  0  0  0  0  0  0
   50.3406    6.1880   17.4497 C   0  0  0  0  0  0  0  0  0  0  0  0
   52.5276    1.7686   17.9904 C   0  0  0  0  0  0  0  0  0  0  0  0
   53.6720    0.9859   18.1504 C   0  0  0  0  0  0  0  0  0  0  0  0
   53.1437    7.5204   17.6386 C   0  0  2  0  0  0  0  0  0  0  0  0
   53.3134    8.1574   19.0341 C   0  0  0  0  0  0  0  0  0  0  0  0
   49.0704    5.6144   17.3936 C   0  0  0  0  0  0  0  0  0  0  0  0
   47.2813    3.1358   16.1834 F   0  0  0  0  0  0  0  0  0  0  0  0
   46.5523    4.4263   17.7756 F   0  0  0  0  0  0  0  0  0  0  0  0
   47.4578    2.5111   18.2581 F   0  0  0  0  0  0  0  0  0  0  0  0
   56.6129    3.6247   18.2138 Cl  0  0  0  0  0  0  0  0  0  0  0  0
   52.0124    8.4252   19.8033 C   0  0  0  0  0  0  0  0  0  0  0  0
   51.0996    9.3728   19.1270 N   0  0  0  0  0  0  0  0  0  0  0  0
   53.5291   -0.7245   18.2719 Cl  0  0  0  0  0  0  0  0  0  0  0  0
   52.3044    8.2790   16.7787 O   0  0  0  0  0  0  0  0  0  0  0  0
   51.5954   10.7673   19.1203 C   0  0  0  0  0  0  0  0  0  0  0  0
   49.7395    9.2372   19.6936 C   0  0  0  0  0  0  0  0  0  0  0  0
   51.6695   11.4914   20.4731 C   0  0  0  0  0  0  0  0  0  0  0  0
   48.6751   10.0263   18.9183 C   0  0  0  0  0  0  0  0  0  0  0  0
   52.2136   12.9124   20.3010 C   0  0  0  0  0  0  0  0  0  0  0  0
   47.2437    9.6740   19.3353 C   0  0  0  0  0  0  0  0  0  0  0  0
   52.2782   13.6484   21.6297 C   0  0  0  0  0  0  0  0  0  0  0  0
   46.9300   10.0219   20.7822 C   0  0  0  0  0  0  0  0  0  0  0  0
   54.9190    5.6573   17.9029 H   0  0  0  0  0  0  0  0  0  0  0  0
   49.9369    2.3922   17.7310 H   0  0  0  0  0  0  0  0  0  0  0  0
   55.8093    0.9680   18.3393 H   0  0  0  0  0  0  0  0  0  0  0  0
   50.3711    7.2667   17.3494 H   0  0  0  0  0  0  0  0  0  0  0  0
   51.5810    1.2375   17.9478 H   0  0  0  0  0  0  0  0  0  0  0  0
   54.1257    7.5988   17.1526 H   0  0  0  0  0  0  0  0  0  0  0  0
   53.8603    9.1004   18.9195 H   0  0  0  0  0  0  0  0  0  0  0  0
   53.9535    7.5174   19.6550 H   0  0  0  0  0  0  0  0  0  0  0  0
   48.2018    6.2560   17.2571 H   0  0  0  0  0  0  0  0  0  0  0  0
   52.2520    8.7683   20.8165 H   0  0  0  0  0  0  0  0  0  0  0  0
   51.5129    7.4571   19.9342 H   0  0  0  0  0  0  0  0  0  0  0  0
   51.7755    8.8687   17.3549 H   0  0  0  0  0  0  0  0  0  0  0  0
   50.9681   11.3537   18.4375 H   0  0  0  0  0  0  0  0  0  0  0  0
   52.5843   10.7965   18.6481 H   0  0  0  0  0  0  0  0  0  0  0  0
   49.4480    8.1802   19.6528 H   0  0  0  0  0  0  0  0  0  0  0  0
   49.7317    9.5171   20.7530 H   0  0  0  0  0  0  0  0  0  0  0  0
   52.3190   10.9451   21.1658 H   0  0  0  0  0  0  0  0  0  0  0  0
   50.6750   11.5485   20.9303 H   0  0  0  0  0  0  0  0  0  0  0  0
   48.8234   11.1041   19.0508 H   0  0  0  0  0  0  0  0  0  0  0  0
   48.7786    9.8161   17.8461 H   0  0  0  0  0  0  0  0  0  0  0  0
   51.5751   13.4751   19.6097 H   0  0  0  0  0  0  0  0  0  0  0  0
   53.2170   12.8763   19.8614 H   0  0  0  0  0  0  0  0  0  0  0  0
   46.5494   10.2208   18.6860 H   0  0  0  0  0  0  0  0  0  0  0  0
   47.0583    8.6065   19.1684 H   0  0  0  0  0  0  0  0  0  0  0  0
   51.2838   13.7349   22.0781 H   0  0  0  0  0  0  0  0  0  0  0  0
   52.6741   14.6580   21.4851 H   0  0  0  0  0  0  0  0  0  0  0  0
   52.9299   13.1259   22.3366 H   0  0  0  0  0  0  0  0  0  0  0  0
   47.5024    9.4003   21.4760 H   0  0  0  0  0  0  0  0  0  0  0  0
   45.8679    9.8536   20.9868 H   0  0  0  0  0  0  0  0  0  0  0  0
   47.1531   11.0724   20.9924 H   0  0  0  0  0  0  0  0  0  0  0  0
  2  1  2  0
  3  2  1  0
  4  1  1  0
  5  4  2  0
  6 10  1  0
  7  5  1  0
  8  1  1  0
  9  3  1  0
 10  8  2  0
 11 14  1  0
 12  4  1  0
 13  2  1  0
 14 13  2  0
 15  5  1  0
 16 15  1  0
 17 10  1  0
 18  6  1  0
 19  6  1  0
 20  6  1  0
 21  9  1  0
 22 16  1  0
 23 22  1  0
 24 14  1  0
 25 15  1  0
 26 23  1  0
 27 23  1  0
 28 26  1  0
 29 27  1  0
 30 28  1  0
 31 29  1  0
 32 30  1  0
 33 31  1  0
 17 12  2  0
  7  3  2  0
  9 11  2  0
  7 34  1  0
  8 35  1  0
 11 36  1  0
 12 37  1  0
 13 38  1  0
 15 39  1  6
 16 40  1  0
 16 41  1  0
 17 42  1  0
 22 43  1  0
 22 44  1  0
 25 45  1  0
 26 46  1  0
 26 47  1  0
 27 48  1  0
 27 49  1  0
 28 50  1  0
 28 51  1  0
 29 52  1  0
 29 53  1  0
 30 54  1  0
 30 55  1  0
 31 56  1  0
 31 57  1  0
 32 58  1  0
 32 59  1  0
 32 60  1  0
 33 61  1  0
 33 62  1  0
 33 63  1  0
M  END
> <Uni-Dock RESULT> 
ENERGY=   -4.782  LOWER_BOUND=    6.393  UPPER_BOUND=    8.215
INTER + INTRA:          -4.782
INTER:                  -4.782
INTRA:                   0.000
UNBOUND:                 0.000

$$$$

     RDKit          3D

 63 65  0  0  0  0  0  0  0  0999 V2000
   45.5556    8.7189   12.1609 C   0  0  0  0  0  0  0  0  0  0  0  0
   46.8399    9.0315   12.7455 C   0  0  0  0  0  0  0  0  0  0  0  0
   47.3913   10.3256   12.5871 C   0  0  0  0  0  0  0  0  0  0  0  0
   44.8390    9.7045   11.4166 C   0  0  0  0  0  0  0  0  0  0  0  0
   45.3989   11.0002   11.2633 C   0  0  0  0  0  0  0  0  0  0  0  0
   43.1353    5.7144   11.9249 C   0  0  0  0  0  0  0  0  0  0  0  0
   46.6526   11.2702   11.8537 C   0  0  0  0  0  0  0  0  0  0  0  0
   44.9521    7.4362   12.2991 C   0  0  0  0  0  0  0  0  0  0  0  0
   48.6553   10.6318   13.1674 C   0  0  0  0  0  0  0  0  0  0  0  0
   43.7039    7.0994   11.7523 C   0  0  0  0  0  0  0  0  0  0  0  0
   49.3778    9.6878   13.8919 C   0  0  0  0  0  0  0  0  0  0  0  0
   43.5892    9.3318   10.8640 C   0  0  0  0  0  0  0  0  0  0  0  0
   47.6112    8.1003   13.4933 C   0  0  0  0  0  0  0  0  0  0  0  0
   48.8493    8.4231   14.0511 C   0  0  0  0  0  0  0  0  0  0  0  0
   44.7604   12.1945   10.5441 C   0  0  2  0  0  0  0  0  0  0  0  0
   44.0166   13.1594   11.4914 C   0  0  0  0  0  0  0  0  0  0  0  0
   43.0303    8.0636   11.0212 C   0  0  0  0  0  0  0  0  0  0  0  0
   43.6319    4.8314   11.0161 F   0  0  0  0  0  0  0  0  0  0  0  0
   41.7799    5.6678   11.7926 F   0  0  0  0  0  0  0  0  0  0  0  0
   43.4056    5.1815   13.1497 F   0  0  0  0  0  0  0  0  0  0  0  0
   49.3874   12.1999   13.0208 Cl  0  0  0  0  0  0  0  0  0  0  0  0
   42.6465   12.6769   11.9872 C   0  0  0  0  0  0  0  0  0  0  0  0
   41.6586   12.4629   10.9069 N   0  0  0  0  0  0  0  0  0  0  0  0
   49.7203    7.2386   14.9450 Cl  0  0  0  0  0  0  0  0  0  0  0  0
   44.0024   11.8503    9.3925 O   0  0  0  0  0  0  0  0  0  0  0  0
   41.1908   13.7181   10.2776 C   0  0  0  0  0  0  0  0  0  0  0  0
   40.5564   11.6123   11.4078 C   0  0  0  0  0  0  0  0  0  0  0  0
   40.3409   14.6613   11.1423 C   0  0  0  0  0  0  0  0  0  0  0  0
   39.5876   11.1593   10.3063 C   0  0  0  0  0  0  0  0  0  0  0  0
   39.9500   15.9163   10.3566 C   0  0  0  0  0  0  0  0  0  0  0  0
   38.6150   10.0712   10.7720 C   0  0  0  0  0  0  0  0  0  0  0  0
   39.0946   16.8534   11.1940 C   0  0  0  0  0  0  0  0  0  0  0  0
   37.6750   10.5295   11.8762 C   0  0  0  0  0  0  0  0  0  0  0  0
   47.0611   12.2736   11.7245 H   0  0  0  0  0  0  0  0  0  0  0  0
   45.4556    6.6472   12.8539 H   0  0  0  0  0  0  0  0  0  0  0  0
   50.3413    9.9403   14.3262 H   0  0  0  0  0  0  0  0  0  0  0  0
   43.0050   10.0306   10.2767 H   0  0  0  0  0  0  0  0  0  0  0  0
   47.2566    7.0869   13.6578 H   0  0  0  0  0  0  0  0  0  0  0  0
   45.5948   12.7721   10.1235 H   0  0  0  0  0  0  0  0  0  0  0  0
   43.8919   14.1200   10.9783 H   0  0  0  0  0  0  0  0  0  0  0  0
   44.6434   13.3707   12.3674 H   0  0  0  0  0  0  0  0  0  0  0  0
   42.0676    7.8452   10.5625 H   0  0  0  0  0  0  0  0  0  0  0  0
   42.2616   13.3792   12.7358 H   0  0  0  0  0  0  0  0  0  0  0  0
   42.8147   11.7375   12.5286 H   0  0  0  0  0  0  0  0  0  0  0  0
   43.0674   12.0511    9.6042 H   0  0  0  0  0  0  0  0  0  0  0  0
   40.6268   13.4613    9.3723 H   0  0  0  0  0  0  0  0  0  0  0  0
   42.0545   14.2724    9.8924 H   0  0  0  0  0  0  0  0  0  0  0  0
   40.9881   10.7048   11.8481 H   0  0  0  0  0  0  0  0  0  0  0  0
   40.0138   12.1170   12.2150 H   0  0  0  0  0  0  0  0  0  0  0  0
   40.8937   14.9628   12.0388 H   0  0  0  0  0  0  0  0  0  0  0  0
   39.4270   14.1552   11.4740 H   0  0  0  0  0  0  0  0  0  0  0  0
   39.0079   12.0102    9.9308 H   0  0  0  0  0  0  0  0  0  0  0  0
   40.1626   10.7622    9.4600 H   0  0  0  0  0  0  0  0  0  0  0  0
   39.3950   15.6336    9.4543 H   0  0  0  0  0  0  0  0  0  0  0  0
   40.8517   16.4477   10.0311 H   0  0  0  0  0  0  0  0  0  0  0  0
   38.0142    9.7526    9.9115 H   0  0  0  0  0  0  0  0  0  0  0  0
   39.1738    9.1909   11.1105 H   0  0  0  0  0  0  0  0  0  0  0  0
   38.1664   16.3639   11.5043 H   0  0  0  0  0  0  0  0  0  0  0  0
   38.8315   17.7445   10.6165 H   0  0  0  0  0  0  0  0  0  0  0  0
   39.6299   17.1764   12.0921 H   0  0  0  0  0  0  0  0  0  0  0  0
   38.2165   10.7287   12.8050 H   0  0  0  0  0  0  0  0  0  0  0  0
   36.9346    9.7509   12.0858 H   0  0  0  0  0  0  0  0  0  0  0  0
   37.1384   11.4378   11.5856 H   0  0  0  0  0  0  0  0  0  0  0  0
  2  1  2  0
  3  2  1  0
  4  1  1  0
  5  4  2  0
  6 10  1  0
  7  5  1  0
  8  1  1  0
  9  3  1  0
 10  8  2  0
 11 14  1  0
 12  4  1  0
 13  2  1  0
 14 13  2  0
 15  5  1  0
 16 15  1  0
 17 10  1  0
 18  6  1  0
 19  6  1  0
 20  6  1  0
 21  9  1  0
 22 16  1  0
 23 22  1  0
 24 14  1  0
 25 15  1  0
 26 23  1  0
 27 23  1  0
 28 26  1  0
 29 27  1  0
 30 28  1  0
 31 29  1  0
 32 30  1  0
 33 31  1  0
 17 12  2  0
  7  3  2  0
  9 11  2  0
  7 34  1  0
  8 35  1  0
 11 36  1  0
 12 37  1  0
 13 38  1  0
 15 39  1  6
 16 40  1  0
 16 41  1  0
 17 42  1  0
 22 43  1  0
 22 44  1  0
 25 45  1  0
 26 46  1  0
 26 47  1  0
 27 48  1  0
 27 49  1  0
 28 50  1  0
 28 51  1  0
 29 52  1  0
 29 53  1  0
 30 54  1  0
 30 55  1  0
 31 56  1  0
 31 57  1  0
 32 58  1  0
 32 59  1  0
 32 60  1  0
 33 61  1  0
 33 62  1  0
 33 63  1  0
M  END
> <Uni-Dock RESULT> 
ENERGY=   -4.664  LOWER_BOUND=    4.748  UPPER_BOUND=    8.765
INTER + INTRA:          -4.664
INTER:                  -4.664
INTRA:                   0.000
UNBOUND:                 0.000

$$$$

     RDKit          3D

 63 65  0  0  0  0  0  0  0  0999 V2000
   46.6861    5.8050   13.7720 C   0  0  0  0  0  0  0  0  0  0  0  0
   47.4853    5.4221   14.9137 C   0  0  0  0  0  0  0  0  0  0  0  0
   48.6676    6.1381   15.2197 C   0  0  0  0  0  0  0  0  0  0  0  0
   47.0833    6.8976   12.9431 C   0  0  0  0  0  0  0  0  0  0  0  0
   48.2701    7.6108   13.2575 C   0  0  0  0  0  0  0  0  0  0  0  0
   43.4264    4.6954   12.0159 C   0  0  0  0  0  0  0  0  0  0  0  0
   49.0216    7.2115   14.3840 C   0  0  0  0  0  0  0  0  0  0  0  0
   45.4834    5.1248   13.4266 C   0  0  0  0  0  0  0  0  0  0  0  0
   49.4512    5.7608   16.3474 C   0  0  0  0  0  0  0  0  0  0  0  0
   44.6783    5.4733   12.3308 C   0  0  0  0  0  0  0  0  0  0  0  0
   49.0906    4.6956   17.1680 C   0  0  0  0  0  0  0  0  0  0  0  0
   46.2595    7.2171   11.8360 C   0  0  0  0  0  0  0  0  0  0  0  0
   47.1551    4.3433   15.7788 C   0  0  0  0  0  0  0  0  0  0  0  0
   47.9402    3.9908   16.8776 C   0  0  0  0  0  0  0  0  0  0  0  0
   48.8275    8.8326   12.5175 C   0  0  2  0  0  0  0  0  0  0  0  0
   48.4291   10.1779   13.1601 C   0  0  0  0  0  0  0  0  0  0  0  0
   45.0872    6.5263   11.5296 C   0  0  0  0  0  0  0  0  0  0  0  0
   43.6828    3.5618   11.3077 F   0  0  0  0  0  0  0  0  0  0  0  0
   42.5235    5.4023   11.2799 F   0  0  0  0  0  0  0  0  0  0  0  0
   42.7587    4.2943   13.1341 F   0  0  0  0  0  0  0  0  0  0  0  0
   50.9075    6.5990   16.7868 Cl  0  0  0  0  0  0  0  0  0  0  0  0
   46.9859   10.6336   12.9036 C   0  0  0  0  0  0  0  0  0  0  0  0
   46.6713   10.8548   11.4751 N   0  0  0  0  0  0  0  0  0  0  0  0
   47.4700    2.6720   17.8778 Cl  0  0  0  0  0  0  0  0  0  0  0  0
   48.6306    8.8077   11.1103 O   0  0  0  0  0  0  0  0  0  0  0  0
   47.3404   12.0432   10.9004 C   0  0  0  0  0  0  0  0  0  0  0  0
   45.2035   10.8611   11.2884 C   0  0  0  0  0  0  0  0  0  0  0  0
   46.8938   13.4184   11.4191 C   0  0  0  0  0  0  0  0  0  0  0  0
   44.7770   10.8744    9.8137 C   0  0  0  0  0  0  0  0  0  0  0  0
   47.6866   14.5398   10.7417 C   0  0  0  0  0  0  0  0  0  0  0  0
   43.2807   10.6095    9.6187 C   0  0  0  0  0  0  0  0  0  0  0  0
   47.2450   15.9090   11.2332 C   0  0  0  0  0  0  0  0  0  0  0  0
   42.3901   11.6777   10.2340 C   0  0  0  0  0  0  0  0  0  0  0  0
   49.9280    7.7764   14.6069 H   0  0  0  0  0  0  0  0  0  0  0  0
   45.1354    4.2835   14.0225 H   0  0  0  0  0  0  0  0  0  0  0  0
   49.7022    4.4224   18.0235 H   0  0  0  0  0  0  0  0  0  0  0  0
   46.5155    8.0257   11.1614 H   0  0  0  0  0  0  0  0  0  0  0  0
   46.2643    3.7453   15.6097 H   0  0  0  0  0  0  0  0  0  0  0  0
   49.9200    8.7677   12.6122 H   0  0  0  0  0  0  0  0  0  0  0  0
   49.1166   10.9511   12.7980 H   0  0  0  0  0  0  0  0  0  0  0  0
   48.5851   10.1275   14.2454 H   0  0  0  0  0  0  0  0  0  0  0  0
   44.5063    6.8231   10.6581 H   0  0  0  0  0  0  0  0  0  0  0  0
   46.7773   11.5333   13.4940 H   0  0  0  0  0  0  0  0  0  0  0  0
   46.3276    9.8573   13.3133 H   0  0  0  0  0  0  0  0  0  0  0  0
   48.0019    9.5300   10.9042 H   0  0  0  0  0  0  0  0  0  0  0  0
   47.2154   12.0169    9.8108 H   0  0  0  0  0  0  0  0  0  0  0  0
   48.4240   11.9482   11.0360 H   0  0  0  0  0  0  0  0  0  0  0  0
   44.7910    9.9469   11.7332 H   0  0  0  0  0  0  0  0  0  0  0  0
   44.7480   11.6983   11.8292 H   0  0  0  0  0  0  0  0  0  0  0  0
   47.0402   13.4860   12.5027 H   0  0  0  0  0  0  0  0  0  0  0  0
   45.8268   13.5729   11.2211 H   0  0  0  0  0  0  0  0  0  0  0  0
   45.0260   11.8359    9.3504 H   0  0  0  0  0  0  0  0  0  0  0  0
   45.3333   10.1005    9.2694 H   0  0  0  0  0  0  0  0  0  0  0  0
   47.5519   14.4878    9.6549 H   0  0  0  0  0  0  0  0  0  0  0  0
   48.7565   14.4138   10.9436 H   0  0  0  0  0  0  0  0  0  0  0  0
   43.0752   10.5605    8.5426 H   0  0  0  0  0  0  0  0  0  0  0  0
   43.0174    9.6304   10.0357 H   0  0  0  0  0  0  0  0  0  0  0  0
   46.1873   16.0818   11.0123 H   0  0  0  0  0  0  0  0  0  0  0  0
   47.8270   16.6942   10.7414 H   0  0  0  0  0  0  0  0  0  0  0  0
   47.3908   16.0042   12.3135 H   0  0  0  0  0  0  0  0  0  0  0  0
   42.4564   11.6736   11.3253 H   0  0  0  0  0  0  0  0  0  0  0  0
   41.3447   11.4948    9.9657 H   0  0  0  0  0  0  0  0  0  0  0  0
   42.6628   12.6743    9.8735 H   0  0  0  0  0  0  0  0  0  0  0  0
  2  1  2  0
  3  2  1  0
  4  1  1  0
  5  4  2  0
  6 10  1  0
  7  5  1  0
  8  1  1  0
  9  3  1  0
 10  8  2  0
 11 14  1  0
 12  4  1  0
 13  2  1  0
 14 13  2  0
 15  5  1  0
 16 15  1  0
 17 10  1  0
 18  6  1  0
 19  6  1  0
 20  6  1  0
 21  9  1  0
 22 16  1  0
 23 22  1  0
 24 14  1  0
 25 15  1  0
 26 23  1  0
 27 23  1  0
 28 26  1  0
 29 27  1  0
 30 28  1  0
 31 29  1  0
 32 30  1  0
 33 31  1  0
 17 12  2  0
  7  3  2  0
  9 11  2  0
  7 34  1  0
  8 35  1  0
 11 36  1  0
 12 37  1  0
 13 38  1  0
 15 39  1  6
 16 40  1  0
 16 41  1  0
 17 42  1  0
 22 43  1  0
 22 44  1  0
 25 45  1  0
 26 46  1  0
 26 47  1  0
 27 48  1  0
 27 49  1  0
 28 50  1  0
 28 51  1  0
 29 52  1  0
 29 53  1  0
 30 54  1  0
 30 55  1  0
 31 56  1  0
 31 57  1  0
 32 58  1  0
 32 59  1  0
 32 60  1  0
 33 61  1  0
 33 62  1  0
 33 63  1  0
M  END
> <Uni-Dock RESULT> 
ENERGY=   -4.509  LOWER_BOUND=    4.037  UPPER_BOUND=    6.268
INTER + INTRA:          -4.509
INTER:                  -4.509
INTRA:                   0.000
UNBOUND:                 0.000

$$$$
