
     RDKit          3D

 63 65  0  0  0  0  0  0  0  0999 V2000
   45.8251    7.3966   12.6732 C   0  0  0  0  0  0  0  0  0  0  0  0
   45.8226    8.8004   12.3235 C   0  0  0  0  0  0  0  0  0  0  0  0
   46.9438    9.6080   12.6363 C   0  0  0  0  0  0  0  0  0  0  0  0
   46.9579    6.8141   13.3142 C   0  0  0  0  0  0  0  0  0  0  0  0
   48.0812    7.6281   13.6037 C   0  0  0  0  0  0  0  0  0  0  0  0
   43.4965    4.3227   12.4048 C   0  0  0  0  0  0  0  0  0  0  0  0
   48.0382    8.9960   13.2694 C   0  0  0  0  0  0  0  0  0  0  0  0
   44.7210    6.5410   12.4043 C   0  0  0  0  0  0  0  0  0  0  0  0
   46.9336   10.9925   12.3018 C   0  0  0  0  0  0  0  0  0  0  0  0
   44.6931    5.1788   12.7441 C   0  0  0  0  0  0  0  0  0  0  0  0
   45.8485   11.5828   11.6579 C   0  0  0  0  0  0  0  0  0  0  0  0
   46.9135    5.4344   13.6385 C   0  0  0  0  0  0  0  0  0  0  0  0
   44.7386    9.4459   11.6673 C   0  0  0  0  0  0  0  0  0  0  0  0
   44.7553   10.8030   11.3416 C   0  0  0  0  0  0  0  0  0  0  0  0
   49.3480    7.1198   14.2868 C   0  0  2  0  0  0  0  0  0  0  0  0
   49.4384    7.5255   15.7651 C   0  0  0  0  0  0  0  0  0  0  0  0
   45.8088    4.6311   13.3596 C   0  0  0  0  0  0  0  0  0  0  0  0
   43.6104    3.7369   11.1765 F   0  0  0  0  0  0  0  0  0  0  0  0
   42.3268    5.0260   12.3804 F   0  0  0  0  0  0  0  0  0  0  0  0
   43.3009    3.3061   13.2889 F   0  0  0  0  0  0  0  0  0  0  0  0
   48.2621   12.0516   12.6725 Cl  0  0  0  0  0  0  0  0  0  0  0  0
   48.4733    6.7366   16.6570 C   0  0  0  0  0  0  0  0  0  0  0  0
   48.6334    7.1370   18.0682 N   0  0  0  0  0  0  0  0  0  0  0  0
   43.4043   11.5093   10.5431 Cl  0  0  0  0  0  0  0  0  0  0  0  0
   50.4821    7.6771   13.6052 O   0  0  0  0  0  0  0  0  0  0  0  0
   48.3005    6.0225   18.9804 C   0  0  0  0  0  0  0  0  0  0  0  0
   47.8171    8.3294   18.3675 C   0  0  0  0  0  0  0  0  0  0  0  0
   49.4631    5.0262   19.1344 C   0  0  0  0  0  0  0  0  0  0  0  0
   48.4026    9.1266   19.5424 C   0  0  0  0  0  0  0  0  0  0  0  0
   50.7346    5.6822   19.6829 C   0  0  0  0  0  0  0  0  0  0  0  0
   47.5503   10.3343   19.9446 C   0  0  0  0  0  0  0  0  0  0  0  0
   51.8665    4.6767   19.8355 C   0  0  0  0  0  0  0  0  0  0  0  0
   47.4191   11.3879   18.8522 C   0  0  0  0  0  0  0  0  0  0  0  0
   48.9196    9.5910   13.5067 H   0  0  0  0  0  0  0  0  0  0  0  0
   43.8312    6.9287   11.9116 H   0  0  0  0  0  0  0  0  0  0  0  0
   45.8617   12.6393   11.4056 H   0  0  0  0  0  0  0  0  0  0  0  0
   47.7483    4.9394   14.1256 H   0  0  0  0  0  0  0  0  0  0  0  0
   43.8472    8.8928   11.3862 H   0  0  0  0  0  0  0  0  0  0  0  0
   49.4572    6.0385   14.1780 H   0  0  0  0  0  0  0  0  0  0  0  0
   50.4665    7.3583   16.1141 H   0  0  0  0  0  0  0  0  0  0  0  0
   49.2756    8.6046   15.8650 H   0  0  0  0  0  0  0  0  0  0  0  0
   45.8297    3.5762   13.6264 H   0  0  0  0  0  0  0  0  0  0  0  0
   48.7156    5.6746   16.5273 H   0  0  0  0  0  0  0  0  0  0  0  0
   47.4309    6.8567   16.3385 H   0  0  0  0  0  0  0  0  0  0  0  0
   51.2492    7.1440   13.8539 H   0  0  0  0  0  0  0  0  0  0  0  0
   48.0671    6.3938   19.9847 H   0  0  0  0  0  0  0  0  0  0  0  0
   47.3981    5.4973   18.6362 H   0  0  0  0  0  0  0  0  0  0  0  0
   46.7769    8.0491   18.5671 H   0  0  0  0  0  0  0  0  0  0  0  0
   47.7977    8.9924   17.4991 H   0  0  0  0  0  0  0  0  0  0  0  0
   49.1431    4.2292   19.8180 H   0  0  0  0  0  0  0  0  0  0  0  0
   49.6837    4.5406   18.1776 H   0  0  0  0  0  0  0  0  0  0  0  0
   48.5033    8.4880   20.4270 H   0  0  0  0  0  0  0  0  0  0  0  0
   49.4153    9.4651   19.2876 H   0  0  0  0  0  0  0  0  0  0  0  0
   50.5251    6.1416   20.6570 H   0  0  0  0  0  0  0  0  0  0  0  0
   51.0668    6.4827   19.0108 H   0  0  0  0  0  0  0  0  0  0  0  0
   46.5521   10.0001   20.2509 H   0  0  0  0  0  0  0  0  0  0  0  0
   48.0106   10.8014   20.8222 H   0  0  0  0  0  0  0  0  0  0  0  0
   52.7704    5.1837   20.1912 H   0  0  0  0  0  0  0  0  0  0  0  0
   52.1011    4.1979   18.8768 H   0  0  0  0  0  0  0  0  0  0  0  0
   51.6063    3.8948   20.5591 H   0  0  0  0  0  0  0  0  0  0  0  0
   46.8178   11.0236   18.0123 H   0  0  0  0  0  0  0  0  0  0  0  0
   48.4021   11.6889   18.4734 H   0  0  0  0  0  0  0  0  0  0  0  0
   46.9227   12.2776   19.2487 H   0  0  0  0  0  0  0  0  0  0  0  0
  2  1  2  0
  3  2  1  0
  4  1  1  0
  5  4  2  0
  6 10  1  0
  7  5  1  0
  8  1  1  0
  9  3  1  0
 10  8  2  0
 11 14  1  0
 12  4  1  0
 13  2  1  0
 14 13  2  0
 15  5  1  0
 16 15  1  0
 17 10  1  0
 18  6  1  0
 19  6  1  0
 20  6  1  0
 21  9  1  0
 22 16  1  0
 23 22  1  0
 24 14  1  0
 25 15  1  0
 26 23  1  0
 27 23  1  0
 28 26  1  0
 29 27  1  0
 30 28  1  0
 31 29  1  0
 32 30  1  0
 33 31  1  0
 17 12  2  0
  7  3  2  0
  9 11  2  0
  7 34  1  0
  8 35  1  0
 11 36  1  0
 12 37  1  0
 13 38  1  0
 15 39  1  6
 16 40  1  0
 16 41  1  0
 17 42  1  0
 22 43  1  0
 22 44  1  0
 25 45  1  0
 26 46  1  0
 26 47  1  0
 27 48  1  0
 27 49  1  0
 28 50  1  0
 28 51  1  0
 29 52  1  0
 29 53  1  0
 30 54  1  0
 30 55  1  0
 31 56  1  0
 31 57  1  0
 32 58  1  0
 32 59  1  0
 32 60  1  0
 33 61  1  0
 33 62  1  0
 33 63  1  0
M  END
> <Uni-Dock RESULT> 
ENERGY=   -6.527  LOWER_BOUND=    0.000  UPPER_BOUND=    0.000
INTER + INTRA:          -6.527
INTER:                  -6.527
INTRA:                   0.000
UNBOUND:                 0.000

$$$$

     RDKit          3D

 63 65  0  0  0  0  0  0  0  0999 V2000
   49.3930    7.2593   14.0268 C   0  0  0  0  0  0  0  0  0  0  0  0
   50.1992    7.1256   15.2206 C   0  0  0  0  0  0  0  0  0  0  0  0
   51.5090    7.6648   15.2522 C   0  0  0  0  0  0  0  0  0  0  0  0
   49.9006    7.9482   12.8861 C   0  0  0  0  0  0  0  0  0  0  0  0
   51.2046    8.5004   12.9372 C   0  0  0  0  0  0  0  0  0  0  0  0
   45.8855    6.2521   12.7516 C   0  0  0  0  0  0  0  0  0  0  0  0
   51.9717    8.3341   14.1072 C   0  0  0  0  0  0  0  0  0  0  0  0
   48.0802    6.7207   13.9281 C   0  0  0  0  0  0  0  0  0  0  0  0
   52.3050    7.5209   16.4246 C   0  0  0  0  0  0  0  0  0  0  0  0
   47.2819    6.8259   12.7776 C   0  0  0  0  0  0  0  0  0  0  0  0
   51.8269    6.8701   17.5596 C   0  0  0  0  0  0  0  0  0  0  0  0
   49.0739    8.0527   11.7387 C   0  0  0  0  0  0  0  0  0  0  0  0
   49.7542    6.4696   16.4013 C   0  0  0  0  0  0  0  0  0  0  0  0
   50.5497    6.3488   17.5417 C   0  0  0  0  0  0  0  0  0  0  0  0
   51.8555    9.2563   11.7819 C   0  0  2  0  0  0  0  0  0  0  0  0
   52.8988    8.4194   11.0275 C   0  0  0  0  0  0  0  0  0  0  0  0
   47.7923    7.5071   11.6826 C   0  0  0  0  0  0  0  0  0  0  0  0
   44.9464    7.1565   13.1578 F   0  0  0  0  0  0  0  0  0  0  0  0
   45.7398    5.1655   13.5649 F   0  0  0  0  0  0  0  0  0  0  0  0
   45.5008    5.8427   11.5115 F   0  0  0  0  0  0  0  0  0  0  0  0
   53.9280    8.1361   16.5314 Cl  0  0  0  0  0  0  0  0  0  0  0  0
   52.2663    7.3364   10.1463 C   0  0  0  0  0  0  0  0  0  0  0  0
   53.3107    6.5936    9.4150 N   0  0  0  0  0  0  0  0  0  0  0  0
   49.9360    5.5433   18.9332 Cl  0  0  0  0  0  0  0  0  0  0  0  0
   52.5184   10.4123   12.3164 O   0  0  0  0  0  0  0  0  0  0  0  0
   52.7983    6.0814    8.1265 C   0  0  0  0  0  0  0  0  0  0  0  0
   53.8494    5.4986   10.2447 C   0  0  0  0  0  0  0  0  0  0  0  0
   52.7990    7.1585    7.0276 C   0  0  0  0  0  0  0  0  0  0  0  0
   55.2823    5.1353    9.8283 C   0  0  0  0  0  0  0  0  0  0  0  0
   54.1971    7.7231    6.7547 C   0  0  0  0  0  0  0  0  0  0  0  0
   55.8622    3.9512   10.6083 C   0  0  0  0  0  0  0  0  0  0  0  0
   54.1744    8.7785    5.6587 C   0  0  0  0  0  0  0  0  0  0  0  0
   55.9981    4.2050   12.1042 C   0  0  0  0  0  0  0  0  0  0  0  0
   52.9695    8.7719   14.1107 H   0  0  0  0  0  0  0  0  0  0  0  0
   47.6382    6.1898   14.7693 H   0  0  0  0  0  0  0  0  0  0  0  0
   52.4469    6.7755   18.4465 H   0  0  0  0  0  0  0  0  0  0  0  0
   49.4093    8.5675   10.8433 H   0  0  0  0  0  0  0  0  0  0  0  0
   48.7591    6.0382   16.4587 H   0  0  0  0  0  0  0  0  0  0  0  0
   51.1092    9.6539   11.0906 H   0  0  0  0  0  0  0  0  0  0  0  0
   53.4985    9.0894   10.3965 H   0  0  0  0  0  0  0  0  0  0  0  0
   53.6106    7.9843   11.7380 H   0  0  0  0  0  0  0  0  0  0  0  0
   47.1985    7.6206   10.7775 H   0  0  0  0  0  0  0  0  0  0  0  0
   51.5942    7.8477    9.4461 H   0  0  0  0  0  0  0  0  0  0  0  0
   51.6409    6.6489   10.7284 H   0  0  0  0  0  0  0  0  0  0  0  0
   52.6763   11.0131   11.5757 H   0  0  0  0  0  0  0  0  0  0  0  0
   53.4166    5.2544    7.7592 H   0  0  0  0  0  0  0  0  0  0  0  0
   51.7863    5.6695    8.2489 H   0  0  0  0  0  0  0  0  0  0  0  0
   53.1966    4.6197   10.2012 H   0  0  0  0  0  0  0  0  0  0  0  0
   53.8812    5.8088   11.2920 H   0  0  0  0  0  0  0  0  0  0  0  0
   52.4041    6.7092    6.1072 H   0  0  0  0  0  0  0  0  0  0  0  0
   52.1174    7.9754    7.2882 H   0  0  0  0  0  0  0  0  0  0  0  0
   55.3185    4.8757    8.7645 H   0  0  0  0  0  0  0  0  0  0  0  0
   55.9343    6.0092    9.9565 H   0  0  0  0  0  0  0  0  0  0  0  0
   54.8748    6.9116    6.4614 H   0  0  0  0  0  0  0  0  0  0  0  0
   54.6066    8.1750    7.6663 H   0  0  0  0  0  0  0  0  0  0  0  0
   55.2458    3.0596   10.4441 H   0  0  0  0  0  0  0  0  0  0  0  0
   56.8555    3.7279   10.2037 H   0  0  0  0  0  0  0  0  0  0  0  0
   55.1800    9.1894    5.5157 H   0  0  0  0  0  0  0  0  0  0  0  0
   53.5041    9.6061    5.9215 H   0  0  0  0  0  0  0  0  0  0  0  0
   53.8411    8.3516    4.7051 H   0  0  0  0  0  0  0  0  0  0  0  0
   55.0193    4.2708   12.5915 H   0  0  0  0  0  0  0  0  0  0  0  0
   56.5483    5.1321   12.2993 H   0  0  0  0  0  0  0  0  0  0  0  0
   56.5435    3.3827   12.5749 H   0  0  0  0  0  0  0  0  0  0  0  0
  2  1  2  0
  3  2  1  0
  4  1  1  0
  5  4  2  0
  6 10  1  0
  7  5  1  0
  8  1  1  0
  9  3  1  0
 10  8  2  0
 11 14  1  0
 12  4  1  0
 13  2  1  0
 14 13  2  0
 15  5  1  0
 16 15  1  0
 17 10  1  0
 18  6  1  0
 19  6  1  0
 20  6  1  0
 21  9  1  0
 22 16  1  0
 23 22  1  0
 24 14  1  0
 25 15  1  0
 26 23  1  0
 27 23  1  0
 28 26  1  0
 29 27  1  0
 30 28  1  0
 31 29  1  0
 32 30  1  0
 33 31  1  0
 17 12  2  0
  7  3  2  0
  9 11  2  0
  7 34  1  0
  8 35  1  0
 11 36  1  0
 12 37  1  0
 13 38  1  0
 15 39  1  6
 16 40  1  0
 16 41  1  0
 17 42  1  0
 22 43  1  0
 22 44  1  0
 25 45  1  0
 26 46  1  0
 26 47  1  0
 27 48  1  0
 27 49  1  0
 28 50  1  0
 28 51  1  0
 29 52  1  0
 29 53  1  0
 30 54  1  0
 30 55  1  0
 31 56  1  0
 31 57  1  0
 32 58  1  0
 32 59  1  0
 32 60  1  0
 33 61  1  0
 33 62  1  0
 33 63  1  0
M  END
> <Uni-Dock RESULT> 
ENERGY=   -5.394  LOWER_BOUND=    5.294  UPPER_BOUND=    8.338
INTER + INTRA:          -5.394
INTER:                  -5.394
INTRA:                   0.000
UNBOUND:                 0.000

$$$$

     RDKit          3D

 63 65  0  0  0  0  0  0  0  0999 V2000
   48.0015    8.5797   12.0852 C   0  0  0  0  0  0  0  0  0  0  0  0
   49.3301    8.9491   11.6478 C   0  0  0  0  0  0  0  0  0  0  0  0
   49.6163   10.2975   11.3207 C   0  0  0  0  0  0  0  0  0  0  0  0
   46.9809    9.5680   12.2084 C   0  0  0  0  0  0  0  0  0  0  0  0
   47.2853   10.9166   11.8973 C   0  0  0  0  0  0  0  0  0  0  0  0
   46.0664    5.4147   13.1723 C   0  0  0  0  0  0  0  0  0  0  0  0
   48.5829   11.2395   11.4537 C   0  0  0  0  0  0  0  0  0  0  0  0
   47.6487    7.2397   12.4068 C   0  0  0  0  0  0  0  0  0  0  0  0
   50.9220   10.6562   10.8785 C   0  0  0  0  0  0  0  0  0  0  0  0
   46.3641    6.8529   12.8217 C   0  0  0  0  0  0  0  0  0  0  0  0
   51.9427    9.7146   10.7680 C   0  0  0  0  0  0  0  0  0  0  0  0
   45.6939    9.1579   12.6397 C   0  0  0  0  0  0  0  0  0  0  0  0
   50.4020    8.0234   11.5193 C   0  0  0  0  0  0  0  0  0  0  0  0
   51.6761    8.4004   11.0923 C   0  0  0  0  0  0  0  0  0  0  0  0
   46.2783   12.0601   11.9890 C   0  0  2  0  0  0  0  0  0  0  0  0
   45.7439   12.5022   10.6190 C   0  0  0  0  0  0  0  0  0  0  0  0
   45.3890    7.8317   12.9424 C   0  0  0  0  0  0  0  0  0  0  0  0
   46.2798    5.1493   14.4948 F   0  0  0  0  0  0  0  0  0  0  0  0
   46.8373    4.5260   12.4799 F   0  0  0  0  0  0  0  0  0  0  0  0
   44.7757    5.0616   12.9219 F   0  0  0  0  0  0  0  0  0  0  0  0
   51.3433   12.2849   10.4385 Cl  0  0  0  0  0  0  0  0  0  0  0  0
   44.7578   11.4967   10.0141 C   0  0  0  0  0  0  0  0  0  0  0  0
   44.2460   11.9921    8.7218 N   0  0  0  0  0  0  0  0  0  0  0  0
   52.9221    7.2199   10.9668 Cl  0  0  0  0  0  0  0  0  0  0  0  0
   46.9303   13.1872   12.5940 O   0  0  0  0  0  0  0  0  0  0  0  0
   42.8830   11.4845    8.4575 C   0  0  0  0  0  0  0  0  0  0  0  0
   45.1668   11.6353    7.6251 C   0  0  0  0  0  0  0  0  0  0  0  0
   41.8037   12.2979    9.1933 C   0  0  0  0  0  0  0  0  0  0  0  0
   45.0392   12.6136    6.4482 C   0  0  0  0  0  0  0  0  0  0  0  0
   41.8086   13.7786    8.7991 C   0  0  0  0  0  0  0  0  0  0  0  0
   45.9195   12.2440    5.2501 C   0  0  0  0  0  0  0  0  0  0  0  0
   40.7277   14.5602    9.5315 C   0  0  0  0  0  0  0  0  0  0  0  0
   47.4127   12.2684    5.5508 C   0  0  0  0  0  0  0  0  0  0  0  0
   48.7808   12.2860   11.2238 H   0  0  0  0  0  0  0  0  0  0  0  0
   48.3881    6.4439   12.3370 H   0  0  0  0  0  0  0  0  0  0  0  0
   52.9338   10.0084   10.4346 H   0  0  0  0  0  0  0  0  0  0  0  0
   44.8805    9.8686   12.7523 H   0  0  0  0  0  0  0  0  0  0  0  0
   50.2644    6.9733   11.7600 H   0  0  0  0  0  0  0  0  0  0  0  0
   45.4538   11.8165   12.6626 H   0  0  0  0  0  0  0  0  0  0  0  0
   45.2413   13.4723   10.7332 H   0  0  0  0  0  0  0  0  0  0  0  0
   46.5806   12.6933    9.9376 H   0  0  0  0  0  0  0  0  0  0  0  0
   44.3851    7.5726   13.2736 H   0  0  0  0  0  0  0  0  0  0  0  0
   43.9388   11.3807   10.7347 H   0  0  0  0  0  0  0  0  0  0  0  0
   45.2074   10.5036    9.8951 H   0  0  0  0  0  0  0  0  0  0  0  0
   46.2339   13.7850   12.8975 H   0  0  0  0  0  0  0  0  0  0  0  0
   42.6451   11.5371    7.3890 H   0  0  0  0  0  0  0  0  0  0  0  0
   42.8058   10.4226    8.7314 H   0  0  0  0  0  0  0  0  0  0  0  0
   44.9979   10.6044    7.2947 H   0  0  0  0  0  0  0  0  0  0  0  0
   46.1996   11.6814    7.9790 H   0  0  0  0  0  0  0  0  0  0  0  0
   40.8246   11.8630    8.9544 H   0  0  0  0  0  0  0  0  0  0  0  0
   41.9246   12.2062   10.2781 H   0  0  0  0  0  0  0  0  0  0  0  0
   44.0035   12.6538    6.0932 H   0  0  0  0  0  0  0  0  0  0  0  0
   45.2911   13.6276    6.7850 H   0  0  0  0  0  0  0  0  0  0  0  0
   41.6549   13.8757    7.7171 H   0  0  0  0  0  0  0  0  0  0  0  0
   42.7820   14.2280    9.0306 H   0  0  0  0  0  0  0  0  0  0  0  0
   45.6393   11.2531    4.8739 H   0  0  0  0  0  0  0  0  0  0  0  0
   45.7173   12.9572    4.4435 H   0  0  0  0  0  0  0  0  0  0  0  0
   40.7835   15.6198    9.2581 H   0  0  0  0  0  0  0  0  0  0  0  0
   40.8529   14.4833   10.6186 H   0  0  0  0  0  0  0  0  0  0  0  0
   39.7280   14.1924    9.2707 H   0  0  0  0  0  0  0  0  0  0  0  0
   47.6990   11.4599    6.2321 H   0  0  0  0  0  0  0  0  0  0  0  0
   47.7102   13.2235    5.9977 H   0  0  0  0  0  0  0  0  0  0  0  0
   47.9822   12.1355    4.6271 H   0  0  0  0  0  0  0  0  0  0  0  0
  2  1  2  0
  3  2  1  0
  4  1  1  0
  5  4  2  0
  6 10  1  0
  7  5  1  0
  8  1  1  0
  9  3  1  0
 10  8  2  0
 11 14  1  0
 12  4  1  0
 13  2  1  0
 14 13  2  0
 15  5  1  0
 16 15  1  0
 17 10  1  0
 18  6  1  0
 19  6  1  0
 20  6  1  0
 21  9  1  0
 22 16  1  0
 23 22  1  0
 24 14  1  0
 25 15  1  0
 26 23  1  0
 27 23  1  0
 28 26  1  0
 29 27  1  0
 30 28  1  0
 31 29  1  0
 32 30  1  0
 33 31  1  0
 17 12  2  0
  7  3  2  0
  9 11  2  0
  7 34  1  0
  8 35  1  0
 11 36  1  0
 12 37  1  0
 13 38  1  0
 15 39  1  6
 16 40  1  0
 16 41  1  0
 17 42  1  0
 22 43  1  0
 22 44  1  0
 25 45  1  0
 26 46  1  0
 26 47  1  0
 27 48  1  0
 27 49  1  0
 28 50  1  0
 28 51  1  0
 29 52  1  0
 29 53  1  0
 30 54  1  0
 30 55  1  0
 31 56  1  0
 31 57  1  0
 32 58  1  0
 32 59  1  0
 32 60  1  0
 33 61  1  0
 33 62  1  0
 33 63  1  0
M  END
> <Uni-Dock RESULT> 
ENERGY=   -4.827  LOWER_BOUND=    4.792  UPPER_BOUND=    8.680
INTER + INTRA:          -4.827
INTER:                  -4.827
INTRA:                   0.000
UNBOUND:                 0.000

$$$$

     RDKit          3D

 63 65  0  0  0  0  0  0  0  0999 V2000
   45.7130    9.0257   12.0717 C   0  0  0  0  0  0  0  0  0  0  0  0
   47.0138    9.4134   12.5725 C   0  0  0  0  0  0  0  0  0  0  0  0
   47.4394   10.7603   12.4640 C   0  0  0  0  0  0  0  0  0  0  0  0
   44.8464    9.9950   11.4862 C   0  0  0  0  0  0  0  0  0  0  0  0
   45.2757   11.3429   11.4016 C   0  0  0  0  0  0  0  0  0  0  0  0
   43.5380    5.8447   11.7657 C   0  0  0  0  0  0  0  0  0  0  0  0
   46.5567   11.6833   11.8792 C   0  0  0  0  0  0  0  0  0  0  0  0
   45.2397    7.6857   12.1332 C   0  0  0  0  0  0  0  0  0  0  0  0
   48.7256   11.1367   12.9467 C   0  0  0  0  0  0  0  0  0  0  0  0
   43.9872    7.2811   11.6439 C   0  0  0  0  0  0  0  0  0  0  0  0
   49.5841   10.2144   13.5407 C   0  0  0  0  0  0  0  0  0  0  0  0
   43.5816    9.5674   11.0086 C   0  0  0  0  0  0  0  0  0  0  0  0
   47.9231    8.5076   13.1849 C   0  0  0  0  0  0  0  0  0  0  0  0
   49.1754    8.9020   13.6585 C   0  0  0  0  0  0  0  0  0  0  0  0
   44.4392   12.4668   10.7960 C   0  0  2  0  0  0  0  0  0  0  0  0
   44.9016   12.8691    9.3880 C   0  0  0  0  0  0  0  0  0  0  0  0
   43.1572    8.2417   11.0857 C   0  0  0  0  0  0  0  0  0  0  0  0
   42.8584    5.6114   12.9270 F   0  0  0  0  0  0  0  0  0  0  0  0
   44.5758    4.9579   11.7511 F   0  0  0  0  0  0  0  0  0  0  0  0
   42.7056    5.4597   10.7596 F   0  0  0  0  0  0  0  0  0  0  0  0
   49.3265   12.7643   12.8293 Cl  0  0  0  0  0  0  0  0  0  0  0  0
   44.5317   11.8310    8.3228 C   0  0  0  0  0  0  0  0  0  0  0  0
   44.9618   12.2886    6.9875 N   0  0  0  0  0  0  0  0  0  0  0  0
   50.2174    7.7451   14.3918 Cl  0  0  0  0  0  0  0  0  0  0  0  0
   44.5516   13.6196   11.6445 O   0  0  0  0  0  0  0  0  0  0  0  0
   44.0830   11.7475    5.9291 C   0  0  0  0  0  0  0  0  0  0  0  0
   46.3716   11.9282    6.7421 C   0  0  0  0  0  0  0  0  0  0  0  0
   42.7804   12.5535    5.7824 C   0  0  0  0  0  0  0  0  0  0  0  0
   47.0225   12.8788    5.7265 C   0  0  0  0  0  0  0  0  0  0  0  0
   43.0320   14.0255    5.4390 C   0  0  0  0  0  0  0  0  0  0  0  0
   48.4660   12.5026    5.3776 C   0  0  0  0  0  0  0  0  0  0  0  0
   41.7304   14.7995    5.2896 C   0  0  0  0  0  0  0  0  0  0  0  0
   49.4229   12.5643    6.5612 C   0  0  0  0  0  0  0  0  0  0  0  0
   46.8530   12.7286   11.7979 H   0  0  0  0  0  0  0  0  0  0  0  0
   45.8553    6.9041   12.5748 H   0  0  0  0  0  0  0  0  0  0  0  0
   50.5589   10.5217   13.9082 H   0  0  0  0  0  0  0  0  0  0  0  0
   42.8819   10.2632   10.5553 H   0  0  0  0  0  0  0  0  0  0  0  0
   47.6663    7.4602   13.3130 H   0  0  0  0  0  0  0  0  0  0  0  0
   43.3752   12.2203   10.7950 H   0  0  0  0  0  0  0  0  0  0  0  0
   44.4394   13.8308    9.1267 H   0  0  0  0  0  0  0  0  0  0  0  0
   45.9801   13.0633    9.3923 H   0  0  0  0  0  0  0  0  0  0  0  0
   42.1738    7.9689   10.7073 H   0  0  0  0  0  0  0  0  0  0  0  0
   43.4416   11.7130    8.3578 H   0  0  0  0  0  0  0  0  0  0  0  0
   44.9563   10.8451    8.5473 H   0  0  0  0  0  0  0  0  0  0  0  0
   43.8203   14.2090   11.4160 H   0  0  0  0  0  0  0  0  0  0  0  0
   44.5821   11.7728    4.9537 H   0  0  0  0  0  0  0  0  0  0  0  0
   43.8515   10.6901    6.1216 H   0  0  0  0  0  0  0  0  0  0  0  0
   46.4554   10.8873    6.4102 H   0  0  0  0  0  0  0  0  0  0  0  0
   46.9403   12.0030    7.6721 H   0  0  0  0  0  0  0  0  0  0  0  0
   42.1807   12.0935    4.9865 H   0  0  0  0  0  0  0  0  0  0  0  0
   42.1810   12.4869    6.6969 H   0  0  0  0  0  0  0  0  0  0  0  0
   46.4520   12.8901    4.7913 H   0  0  0  0  0  0  0  0  0  0  0  0
   46.9985   13.9047    6.1168 H   0  0  0  0  0  0  0  0  0  0  0  0
   43.6044   14.0967    4.5056 H   0  0  0  0  0  0  0  0  0  0  0  0
   43.6320   14.4996    6.2252 H   0  0  0  0  0  0  0  0  0  0  0  0
   48.4931   11.4985    4.9384 H   0  0  0  0  0  0  0  0  0  0  0  0
   48.8236   13.1946    4.6071 H   0  0  0  0  0  0  0  0  0  0  0  0
   41.9452   15.8541    5.0839 H   0  0  0  0  0  0  0  0  0  0  0  0
   41.1329   14.7480    6.2080 H   0  0  0  0  0  0  0  0  0  0  0  0
   41.1286   14.4057    4.4617 H   0  0  0  0  0  0  0  0  0  0  0  0
   49.2103   11.7763    7.2917 H   0  0  0  0  0  0  0  0  0  0  0  0
   49.3640   13.5345    7.0668 H   0  0  0  0  0  0  0  0  0  0  0  0
   50.4514   12.4240    6.2181 H   0  0  0  0  0  0  0  0  0  0  0  0
  2  1  2  0
  3  2  1  0
  4  1  1  0
  5  4  2  0
  6 10  1  0
  7  5  1  0
  8  1  1  0
  9  3  1  0
 10  8  2  0
 11 14  1  0
 12  4  1  0
 13  2  1  0
 14 13  2  0
 15  5  1  0
 16 15  1  0
 17 10  1  0
 18  6  1  0
 19  6  1  0
 20  6  1  0
 21  9  1  0
 22 16  1  0
 23 22  1  0
 24 14  1  0
 25 15  1  0
 26 23  1  0
 27 23  1  0
 28 26  1  0
 29 27  1  0
 30 28  1  0
 31 29  1  0
 32 30  1  0
 33 31  1  0
 17 12  2  0
  7  3  2  0
  9 11  2  0
  7 34  1  0
  8 35  1  0
 11 36  1  0
 12 37  1  0
 13 38  1  0
 15 39  1  6
 16 40  1  0
 16 41  1  0
 17 42  1  0
 22 43  1  0
 22 44  1  0
 25 45  1  0
 26 46  1  0
 26 47  1  0
 27 48  1  0
 27 49  1  0
 28 50  1  0
 28 51  1  0
 29 52  1  0
 29 53  1  0
 30 54  1  0
 30 55  1  0
 31 56  1  0
 31 57  1  0
 32 58  1  0
 32 59  1  0
 32 60  1  0
 33 61  1  0
 33 62  1  0
 33 63  1  0
M  END
> <Uni-Dock RESULT> 
ENERGY=   -4.594  LOWER_BOUND=    4.543  UPPER_BOUND=    9.182
INTER + INTRA:          -4.594
INTER:                  -4.594
INTRA:                   0.000
UNBOUND:                 0.000

$$$$

     RDKit          3D

 63 65  0  0  0  0  0  0  0  0999 V2000
   48.1259    7.0779   18.3263 C   0  0  0  0  0  0  0  0  0  0  0  0
   47.9346    8.0780   19.3540 C   0  0  0  0  0  0  0  0  0  0  0  0
   48.1435    9.4469   19.0546 C   0  0  0  0  0  0  0  0  0  0  0  0
   48.5051    7.4621   17.0064 C   0  0  0  0  0  0  0  0  0  0  0  0
   48.6916    8.8362   16.7145 C   0  0  0  0  0  0  0  0  0  0  0  0
   47.9154    3.2394   17.9207 C   0  0  0  0  0  0  0  0  0  0  0  0
   48.5181    9.7830   17.7432 C   0  0  0  0  0  0  0  0  0  0  0  0
   47.9520    5.6877   18.5722 C   0  0  0  0  0  0  0  0  0  0  0  0
   47.9663   10.4283   20.0717 C   0  0  0  0  0  0  0  0  0  0  0  0
   48.1431    4.6963   17.5962 C   0  0  0  0  0  0  0  0  0  0  0  0
   47.5773   10.0826   21.3638 C   0  0  0  0  0  0  0  0  0  0  0  0
   48.6818    6.4461   16.0331 C   0  0  0  0  0  0  0  0  0  0  0  0
   47.5392    7.7725   20.6854 C   0  0  0  0  0  0  0  0  0  0  0  0
   47.3634    8.7530   21.6630 C   0  0  0  0  0  0  0  0  0  0  0  0
   49.0979    9.3681   15.3427 C   0  0  2  0  0  0  0  0  0  0  0  0
   50.5761    9.7778   15.2702 C   0  0  0  0  0  0  0  0  0  0  0  0
   48.5038    5.0930   16.3172 C   0  0  0  0  0  0  0  0  0  0  0  0
   46.6292    2.8497   17.6780 F   0  0  0  0  0  0  0  0  0  0  0  0
   48.1599    2.9395   19.2298 F   0  0  0  0  0  0  0  0  0  0  0  0
   48.7050    2.4020   17.1936 F   0  0  0  0  0  0  0  0  0  0  0  0
   48.2250   12.1242   19.7868 Cl  0  0  0  0  0  0  0  0  0  0  0  0
   51.5246    8.5742   15.2392 C   0  0  0  0  0  0  0  0  0  0  0  0
   52.9249    9.0257   15.1269 N   0  0  0  0  0  0  0  0  0  0  0  0
   46.8790    8.3019   23.2516 Cl  0  0  0  0  0  0  0  0  0  0  0  0
   48.3028   10.5287   15.0558 O   0  0  0  0  0  0  0  0  0  0  0  0
   53.7541    8.0238   14.4243 C   0  0  0  0  0  0  0  0  0  0  0  0
   53.4812    9.3351   16.4583 C   0  0  0  0  0  0  0  0  0  0  0  0
   53.6063    8.1116   12.8951 C   0  0  0  0  0  0  0  0  0  0  0  0
   54.6225   10.3583   16.3627 C   0  0  0  0  0  0  0  0  0  0  0  0
   54.0053    9.4833   12.3409 C   0  0  0  0  0  0  0  0  0  0  0  0
   55.2872   10.6578   17.7100 C   0  0  0  0  0  0  0  0  0  0  0  0
   53.8602    9.5433   10.8273 C   0  0  0  0  0  0  0  0  0  0  0  0
   54.3513   11.2887   18.7329 C   0  0  0  0  0  0  0  0  0  0  0  0
   48.6697   10.8300   17.4824 H   0  0  0  0  0  0  0  0  0  0  0  0
   47.6572    5.3359   19.5592 H   0  0  0  0  0  0  0  0  0  0  0  0
   47.4416   10.8460   22.1245 H   0  0  0  0  0  0  0  0  0  0  0  0
   48.9686    6.6823   15.0127 H   0  0  0  0  0  0  0  0  0  0  0  0
   47.3510    6.7473   20.9903 H   0  0  0  0  0  0  0  0  0  0  0  0
   48.8568    8.6579   14.5487 H   0  0  0  0  0  0  0  0  0  0  0  0
   50.7309   10.3792   14.3640 H   0  0  0  0  0  0  0  0  0  0  0  0
   50.8170   10.4490   16.1022 H   0  0  0  0  0  0  0  0  0  0  0  0
   48.6484    4.3547   15.5306 H   0  0  0  0  0  0  0  0  0  0  0  0
   51.2431    7.9690   14.3686 H   0  0  0  0  0  0  0  0  0  0  0  0
   51.3969    7.9299   16.1174 H   0  0  0  0  0  0  0  0  0  0  0  0
   48.3629   10.6819   14.1032 H   0  0  0  0  0  0  0  0  0  0  0  0
   54.8172    8.1678   14.6480 H   0  0  0  0  0  0  0  0  0  0  0  0
   53.5087    7.0088   14.7682 H   0  0  0  0  0  0  0  0  0  0  0  0
   53.8180    8.4220   16.9614 H   0  0  0  0  0  0  0  0  0  0  0  0
   52.7044    9.7691   17.0924 H   0  0  0  0  0  0  0  0  0  0  0  0
   54.2435    7.3398   12.4444 H   0  0  0  0  0  0  0  0  0  0  0  0
   52.5796    7.8779   12.5931 H   0  0  0  0  0  0  0  0  0  0  0  0
   55.4045    9.9986   15.6848 H   0  0  0  0  0  0  0  0  0  0  0  0
   54.2423   11.2926   15.9294 H   0  0  0  0  0  0  0  0  0  0  0  0
   55.0444    9.7064   12.6138 H   0  0  0  0  0  0  0  0  0  0  0  0
   53.3778   10.2666   12.7832 H   0  0  0  0  0  0  0  0  0  0  0  0
   55.7160    9.7386   18.1261 H   0  0  0  0  0  0  0  0  0  0  0  0
   56.1222   11.3451   17.5348 H   0  0  0  0  0  0  0  0  0  0  0  0
   54.1146   10.5465   10.4677 H   0  0  0  0  0  0  0  0  0  0  0  0
   52.8301    9.3241   10.5205 H   0  0  0  0  0  0  0  0  0  0  0  0
   54.5284    8.8251   10.3370 H   0  0  0  0  0  0  0  0  0  0  0  0
   53.5876   10.5797   19.0704 H   0  0  0  0  0  0  0  0  0  0  0  0
   53.8504   12.1709   18.3190 H   0  0  0  0  0  0  0  0  0  0  0  0
   54.9175   11.6037   19.6135 H   0  0  0  0  0  0  0  0  0  0  0  0
  2  1  2  0
  3  2  1  0
  4  1  1  0
  5  4  2  0
  6 10  1  0
  7  5  1  0
  8  1  1  0
  9  3  1  0
 10  8  2  0
 11 14  1  0
 12  4  1  0
 13  2  1  0
 14 13  2  0
 15  5  1  0
 16 15  1  0
 17 10  1  0
 18  6  1  0
 19  6  1  0
 20  6  1  0
 21  9  1  0
 22 16  1  0
 23 22  1  0
 24 14  1  0
 25 15  1  0
 26 23  1  0
 27 23  1  0
 28 26  1  0
 29 27  1  0
 30 28  1  0
 31 29  1  0
 32 30  1  0
 33 31  1  0
 17 12  2  0
  7  3  2  0
  9 11  2  0
  7 34  1  0
  8 35  1  0
 11 36  1  0
 12 37  1  0
 13 38  1  0
 15 39  1  6
 16 40  1  0
 16 41  1  0
 17 42  1  0
 22 43  1  0
 22 44  1  0
 25 45  1  0
 26 46  1  0
 26 47  1  0
 27 48  1  0
 27 49  1  0
 28 50  1  0
 28 51  1  0
 29 52  1  0
 29 53  1  0
 30 54  1  0
 30 55  1  0
 31 56  1  0
 31 57  1  0
 32 58  1  0
 32 59  1  0
 32 60  1  0
 33 61  1  0
 33 62  1  0
 33 63  1  0
M  END
> <Uni-Dock RESULT> 
ENERGY=   -4.477  LOWER_BOUND=    4.587  UPPER_BOUND=    7.208
INTER + INTRA:          -4.477
INTER:                  -4.477
INTRA:                   0.000
UNBOUND:                 0.000

$$$$

     RDKit          3D

 63 65  0  0  0  0  0  0  0  0999 V2000
   48.4020   10.4963   17.2979 C   0  0  0  0  0  0  0  0  0  0  0  0
   48.9300   11.4077   16.3061 C   0  0  0  0  0  0  0  0  0  0  0  0
   49.6601   10.9036   15.2016 C   0  0  0  0  0  0  0  0  0  0  0  0
   48.5947    9.0900   17.1615 C   0  0  0  0  0  0  0  0  0  0  0  0
   49.3096    8.5969   16.0418 C   0  0  0  0  0  0  0  0  0  0  0  0
   46.3876   10.6254   20.5947 C   0  0  0  0  0  0  0  0  0  0  0  0
   49.8290    9.5124   15.1054 C   0  0  0  0  0  0  0  0  0  0  0  0
   47.6800   10.9443   18.4387 C   0  0  0  0  0  0  0  0  0  0  0  0
   50.1892   11.8042   14.2331 C   0  0  0  0  0  0  0  0  0  0  0  0
   47.1679   10.0821   19.4217 C   0  0  0  0  0  0  0  0  0  0  0  0
   49.9990   13.1806   14.3314 C   0  0  0  0  0  0  0  0  0  0  0  0
   48.0597    8.2364   18.1595 C   0  0  0  0  0  0  0  0  0  0  0  0
   48.7617   12.8185   16.3652 C   0  0  0  0  0  0  0  0  0  0  0  0
   49.2823   13.6806   15.3989 C   0  0  0  0  0  0  0  0  0  0  0  0
   49.5804    7.1162   15.7888 C   0  0  2  0  0  0  0  0  0  0  0  0
   51.0211    6.7026   16.1227 C   0  0  0  0  0  0  0  0  0  0  0  0
   47.3599    8.7176   19.2649 C   0  0  0  0  0  0  0  0  0  0  0  0
   45.0478   10.6921   20.3391 F   0  0  0  0  0  0  0  0  0  0  0  0
   46.7673   11.8877   20.9497 F   0  0  0  0  0  0  0  0  0  0  0  0
   46.5183    9.8679   21.7182 F   0  0  0  0  0  0  0  0  0  0  0  0
   51.1136   11.2633   12.8631 Cl  0  0  0  0  0  0  0  0  0  0  0  0
   51.2849    6.6365   17.6312 C   0  0  0  0  0  0  0  0  0  0  0  0
   52.6683    6.1944   17.8925 N   0  0  0  0  0  0  0  0  0  0  0  0
   49.0315   15.3774   15.5399 Cl  0  0  0  0  0  0  0  0  0  0  0  0
   49.3551    6.8483   14.3963 O   0  0  0  0  0  0  0  0  0  0  0  0
   52.7642    5.4735   19.1794 C   0  0  0  0  0  0  0  0  0  0  0  0
   53.5974    7.3403   17.8558 C   0  0  0  0  0  0  0  0  0  0  0  0
   52.3204    4.0049   19.0610 C   0  0  0  0  0  0  0  0  0  0  0  0
   55.0208    6.8938   17.4905 C   0  0  0  0  0  0  0  0  0  0  0  0
   53.1559    3.2151   18.0481 C   0  0  0  0  0  0  0  0  0  0  0  0
   56.0424    8.0351   17.5132 C   0  0  0  0  0  0  0  0  0  0  0  0
   52.7054    1.7645   17.9553 C   0  0  0  0  0  0  0  0  0  0  0  0
   55.7613    9.1350   16.4976 C   0  0  0  0  0  0  0  0  0  0  0  0
   50.3729    9.0975   14.2573 H   0  0  0  0  0  0  0  0  0  0  0  0
   47.4970   12.0063   18.5923 H   0  0  0  0  0  0  0  0  0  0  0  0
   50.4053   13.8511   13.5797 H   0  0  0  0  0  0  0  0  0  0  0  0
   48.1757    7.1580   18.1048 H   0  0  0  0  0  0  0  0  0  0  0  0
   48.2063   13.2809   17.1760 H   0  0  0  0  0  0  0  0  0  0  0  0
   48.8662    6.4809   16.3172 H   0  0  0  0  0  0  0  0  0  0  0  0
   51.2155    5.7156   15.6816 H   0  0  0  0  0  0  0  0  0  0  0  0
   51.7264    7.3798   15.6280 H   0  0  0  0  0  0  0  0  0  0  0  0
   46.9665    8.0170   19.9992 H   0  0  0  0  0  0  0  0  0  0  0  0
   50.5657    5.9216   18.0494 H   0  0  0  0  0  0  0  0  0  0  0  0
   51.0879    7.5965   18.1235 H   0  0  0  0  0  0  0  0  0  0  0  0
   49.2541    5.8911   14.3071 H   0  0  0  0  0  0  0  0  0  0  0  0
   53.7964    5.4633   19.5474 H   0  0  0  0  0  0  0  0  0  0  0  0
   52.1734    5.9837   19.9536 H   0  0  0  0  0  0  0  0  0  0  0  0
   53.5909    7.8777   18.8106 H   0  0  0  0  0  0  0  0  0  0  0  0
   53.2734    8.0556   17.0960 H   0  0  0  0  0  0  0  0  0  0  0  0
   52.4140    3.5379   20.0500 H   0  0  0  0  0  0  0  0  0  0  0  0
   51.2606    3.9431   18.7907 H   0  0  0  0  0  0  0  0  0  0  0  0
   55.3727    6.1256   18.1880 H   0  0  0  0  0  0  0  0  0  0  0  0
   55.0158    6.4302   16.4954 H   0  0  0  0  0  0  0  0  0  0  0  0
   54.2147    3.2474   18.3341 H   0  0  0  0  0  0  0  0  0  0  0  0
   53.0738    3.6705   17.0537 H   0  0  0  0  0  0  0  0  0  0  0  0
   56.0920    8.4704   18.5182 H   0  0  0  0  0  0  0  0  0  0  0  0
   57.0314    7.6137   17.3020 H   0  0  0  0  0  0  0  0  0  0  0  0
   53.2950    1.2387   17.1960 H   0  0  0  0  0  0  0  0  0  0  0  0
   51.6482    1.6970   17.6707 H   0  0  0  0  0  0  0  0  0  0  0  0
   52.8408    1.2462   18.9122 H   0  0  0  0  0  0  0  0  0  0  0  0
   54.8616    9.7027   16.7584 H   0  0  0  0  0  0  0  0  0  0  0  0
   55.6333    8.7206   15.4915 H   0  0  0  0  0  0  0  0  0  0  0  0
   56.5964    9.8399   16.4691 H   0  0  0  0  0  0  0  0  0  0  0  0
  2  1  2  0
  3  2  1  0
  4  1  1  0
  5  4  2  0
  6 10  1  0
  7  5  1  0
  8  1  1  0
  9  3  1  0
 10  8  2  0
 11 14  1  0
 12  4  1  0
 13  2  1  0
 14 13  2  0
 15  5  1  0
 16 15  1  0
 17 10  1  0
 18  6  1  0
 19  6  1  0
 20  6  1  0
 21  9  1  0
 22 16  1  0
 23 22  1  0
 24 14  1  0
 25 15  1  0
 26 23  1  0
 27 23  1  0
 28 26  1  0
 29 27  1  0
 30 28  1  0
 31 29  1  0
 32 30  1  0
 33 31  1  0
 17 12  2  0
  7  3  2  0
  9 11  2  0
  7 34  1  0
  8 35  1  0
 11 36  1  0
 12 37  1  0
 13 38  1  0
 15 39  1  6
 16 40  1  0
 16 41  1  0
 17 42  1  0
 22 43  1  0
 22 44  1  0
 25 45  1  0
 26 46  1  0
 26 47  1  0
 27 48  1  0
 27 49  1  0
 28 50  1  0
 28 51  1  0
 29 52  1  0
 29 53  1  0
 30 54  1  0
 30 55  1  0
 31 56  1  0
 31 57  1  0
 32 58  1  0
 32 59  1  0
 32 60  1  0
 33 61  1  0
 33 62  1  0
 33 63  1  0
M  END
> <Uni-Dock RESULT> 
ENERGY=   -4.402  LOWER_BOUND=    5.048  UPPER_BOUND=    6.560
INTER + INTRA:          -4.402
INTER:                  -4.402
INTRA:                   0.000
UNBOUND:                 0.000

$$$$

     RDKit          3D

 63 65  0  0  0  0  0  0  0  0999 V2000
   48.0114    6.8440   19.1158 C   0  0  0  0  0  0  0  0  0  0  0  0
   47.8446    7.4400   20.4235 C   0  0  0  0  0  0  0  0  0  0  0  0
   47.9683    8.8424   20.5813 C   0  0  0  0  0  0  0  0  0  0  0  0
   48.2806    7.6614   17.9787 C   0  0  0  0  0  0  0  0  0  0  0  0
   48.3823    9.0649   18.1464 C   0  0  0  0  0  0  0  0  0  0  0  0
   47.9528    3.3417   17.4807 C   0  0  0  0  0  0  0  0  0  0  0  0
   48.2359    9.6114   19.4366 C   0  0  0  0  0  0  0  0  0  0  0  0
   47.9198    5.4412   18.8989 C   0  0  0  0  0  0  0  0  0  0  0  0
   47.8158    9.4251   21.8721 C   0  0  0  0  0  0  0  0  0  0  0  0
   48.0895    4.8366   17.6429 C   0  0  0  0  0  0  0  0  0  0  0  0
   47.5330    8.6524   22.9961 C   0  0  0  0  0  0  0  0  0  0  0  0
   48.4374    7.0318   16.7179 C   0  0  0  0  0  0  0  0  0  0  0  0
   47.5563    6.6920   21.5981 C   0  0  0  0  0  0  0  0  0  0  0  0
   47.4023    7.2867   22.8513 C   0  0  0  0  0  0  0  0  0  0  0  0
   48.6683   10.0402   17.0076 C   0  0  2  0  0  0  0  0  0  0  0  0
   50.1172   10.5487   17.0008 C   0  0  0  0  0  0  0  0  0  0  0  0
   48.3427    5.6512   16.5493 C   0  0  0  0  0  0  0  0  0  0  0  0
   46.6727    2.9675   17.1874 F   0  0  0  0  0  0  0  0  0  0  0  0
   48.3004    2.6490   18.6045 F   0  0  0  0  0  0  0  0  0  0  0  0
   48.7289    2.8412   16.4804 F   0  0  0  0  0  0  0  0  0  0  0  0
   47.9749   11.1346   22.1486 Cl  0  0  0  0  0  0  0  0  0  0  0  0
   51.1165    9.4868   16.5285 C   0  0  0  0  0  0  0  0  0  0  0  0
   52.4832   10.0425   16.5018 N   0  0  0  0  0  0  0  0  0  0  0  0
   47.0498    6.3117   24.2250 Cl  0  0  0  0  0  0  0  0  0  0  0  0
   47.8020   11.1753   17.1583 O   0  0  0  0  0  0  0  0  0  0  0  0
   53.3081    9.3814   15.4684 C   0  0  0  0  0  0  0  0  0  0  0  0
   53.1146    9.9378   17.8316 C   0  0  0  0  0  0  0  0  0  0  0  0
   53.0517    9.9523   14.0627 C   0  0  0  0  0  0  0  0  0  0  0  0
   54.1976   11.0100   18.0215 C   0  0  0  0  0  0  0  0  0  0  0  0
   53.3473   11.4531   13.9716 C   0  0  0  0  0  0  0  0  0  0  0  0
   54.9386   10.8981   19.3577 C   0  0  0  0  0  0  0  0  0  0  0  0
   53.0960   11.9928   12.5711 C   0  0  0  0  0  0  0  0  0  0  0  0
   54.0466   11.0978   20.5763 C   0  0  0  0  0  0  0  0  0  0  0  0
   48.3202   10.6938   19.5276 H   0  0  0  0  0  0  0  0  0  0  0  0
   47.7103    4.7683   19.7285 H   0  0  0  0  0  0  0  0  0  0  0  0
   47.4143    9.1157   23.9713 H   0  0  0  0  0  0  0  0  0  0  0  0
   48.6421    7.6059   15.8191 H   0  0  0  0  0  0  0  0  0  0  0  0
   47.4374    5.6132   21.5576 H   0  0  0  0  0  0  0  0  0  0  0  0
   48.4066    9.6129   16.0371 H   0  0  0  0  0  0  0  0  0  0  0  0
   50.1812   11.4213   16.3365 H   0  0  0  0  0  0  0  0  0  0  0  0
   50.3831   10.9269   17.9943 H   0  0  0  0  0  0  0  0  0  0  0  0
   48.4672    5.2206   15.5575 H   0  0  0  0  0  0  0  0  0  0  0  0
   50.8045    9.1807   15.5224 H   0  0  0  0  0  0  0  0  0  0  0  0
   51.0797    8.5847   17.1510 H   0  0  0  0  0  0  0  0  0  0  0  0
   47.7893   11.6339   16.3074 H   0  0  0  0  0  0  0  0  0  0  0  0
   54.3762    9.5153   15.6742 H   0  0  0  0  0  0  0  0  0  0  0  0
   53.1345    8.2958   15.4710 H   0  0  0  0  0  0  0  0  0  0  0  0
   53.5274    8.9352   17.9888 H   0  0  0  0  0  0  0  0  0  0  0  0
   52.3637   10.0890   18.6109 H   0  0  0  0  0  0  0  0  0  0  0  0
   53.6918    9.4135   13.3521 H   0  0  0  0  0  0  0  0  0  0  0  0
   52.0187    9.7619   13.7518 H   0  0  0  0  0  0  0  0  0  0  0  0
   54.9471   10.9435   17.2251 H   0  0  0  0  0  0  0  0  0  0  0  0
   53.7453   12.0070   17.9392 H   0  0  0  0  0  0  0  0  0  0  0  0
   54.3910   11.6439   14.2508 H   0  0  0  0  0  0  0  0  0  0  0  0
   52.7157   12.0061   14.6775 H   0  0  0  0  0  0  0  0  0  0  0  0
   55.4373    9.9242   19.4263 H   0  0  0  0  0  0  0  0  0  0  0  0
   55.7265   11.6590   19.3772 H   0  0  0  0  0  0  0  0  0  0  0  0
   53.2780   13.0731   12.5495 H   0  0  0  0  0  0  0  0  0  0  0  0
   52.0586   11.8173   12.2608 H   0  0  0  0  0  0  0  0  0  0  0  0
   53.7617   11.5195   11.8393 H   0  0  0  0  0  0  0  0  0  0  0  0
   53.3418   10.2684   20.6990 H   0  0  0  0  0  0  0  0  0  0  0  0
   53.4778   12.0312   20.5010 H   0  0  0  0  0  0  0  0  0  0  0  0
   54.6567   11.1459   21.4822 H   0  0  0  0  0  0  0  0  0  0  0  0
  2  1  2  0
  3  2  1  0
  4  1  1  0
  5  4  2  0
  6 10  1  0
  7  5  1  0
  8  1  1  0
  9  3  1  0
 10  8  2  0
 11 14  1  0
 12  4  1  0
 13  2  1  0
 14 13  2  0
 15  5  1  0
 16 15  1  0
 17 10  1  0
 18  6  1  0
 19  6  1  0
 20  6  1  0
 21  9  1  0
 22 16  1  0
 23 22  1  0
 24 14  1  0
 25 15  1  0
 26 23  1  0
 27 23  1  0
 28 26  1  0
 29 27  1  0
 30 28  1  0
 31 29  1  0
 32 30  1  0
 33 31  1  0
 17 12  2  0
  7  3  2  0
  9 11  2  0
  7 34  1  0
  8 35  1  0
 11 36  1  0
 12 37  1  0
 13 38  1  0
 15 39  1  6
 16 40  1  0
 16 41  1  0
 17 42  1  0
 22 43  1  0
 22 44  1  0
 25 45  1  0
 26 46  1  0
 26 47  1  0
 27 48  1  0
 27 49  1  0
 28 50  1  0
 28 51  1  0
 29 52  1  0
 29 53  1  0
 30 54  1  0
 30 55  1  0
 31 56  1  0
 31 57  1  0
 32 58  1  0
 32 59  1  0
 32 60  1  0
 33 61  1  0
 33 62  1  0
 33 63  1  0
M  END
> <Uni-Dock RESULT> 
ENERGY=   -4.374  LOWER_BOUND=    5.131  UPPER_BOUND=    7.757
INTER + INTRA:          -4.374
INTER:                  -4.374
INTRA:                   0.000
UNBOUND:                 0.000

$$$$

     RDKit          3D

 63 65  0  0  0  0  0  0  0  0999 V2000
   48.5667    6.3280   15.3419 C   0  0  0  0  0  0  0  0  0  0  0  0
   47.9473    7.0405   14.2456 C   0  0  0  0  0  0  0  0  0  0  0  0
   48.5132    8.2542   13.7830 C   0  0  0  0  0  0  0  0  0  0  0  0
   49.7559    6.8291   15.9487 C   0  0  0  0  0  0  0  0  0  0  0  0
   50.3232    8.0336   15.4636 C   0  0  0  0  0  0  0  0  0  0  0  0
   48.0017    3.1178   17.4200 C   0  0  0  0  0  0  0  0  0  0  0  0
   49.6835    8.7142   14.4089 C   0  0  0  0  0  0  0  0  0  0  0  0
   48.0332    5.1169   15.8635 C   0  0  0  0  0  0  0  0  0  0  0  0
   47.8943    8.9599   12.7115 C   0  0  0  0  0  0  0  0  0  0  0  0
   48.6076    4.4126   16.9339 C   0  0  0  0  0  0  0  0  0  0  0  0
   46.7436    8.4830   12.0879 C   0  0  0  0  0  0  0  0  0  0  0  0
   50.3258    6.0965   17.0207 C   0  0  0  0  0  0  0  0  0  0  0  0
   46.7731    6.5931   13.5798 C   0  0  0  0  0  0  0  0  0  0  0  0
   46.1897    7.2978   12.5258 C   0  0  0  0  0  0  0  0  0  0  0  0
   51.5900    8.6678   16.0319 C   0  0  2  0  0  0  0  0  0  0  0  0
   51.3046    9.8787   16.9323 C   0  0  0  0  0  0  0  0  0  0  0  0
   49.7684    4.9136   17.5039 C   0  0  0  0  0  0  0  0  0  0  0  0
   48.5208    2.0300   16.7782 F   0  0  0  0  0  0  0  0  0  0  0  0
   46.6508    3.0573   17.2328 F   0  0  0  0  0  0  0  0  0  0  0  0
   48.2030    2.9013   18.7489 F   0  0  0  0  0  0  0  0  0  0  0  0
   48.5168   10.4655   12.1035 Cl  0  0  0  0  0  0  0  0  0  0  0  0
   50.7247    9.4816   18.2944 C   0  0  0  0  0  0  0  0  0  0  0  0
   50.5107   10.6783   19.1308 N   0  0  0  0  0  0  0  0  0  0  0  0
   44.7700    6.6871   11.7686 Cl  0  0  0  0  0  0  0  0  0  0  0  0
   52.4016    9.1142   14.9349 O   0  0  0  0  0  0  0  0  0  0  0  0
   50.6345   10.3543   20.5678 C   0  0  0  0  0  0  0  0  0  0  0  0
   49.2017   11.2928   18.8364 C   0  0  0  0  0  0  0  0  0  0  0  0
   52.1012   10.2974   21.0298 C   0  0  0  0  0  0  0  0  0  0  0  0
   49.2019   12.7926   19.1665 C   0  0  0  0  0  0  0  0  0  0  0  0
   52.8419   11.6205   20.8091 C   0  0  0  0  0  0  0  0  0  0  0  0
   47.8421   13.4644   18.9511 C   0  0  0  0  0  0  0  0  0  0  0  0
   54.2862   11.5432   21.2818 C   0  0  0  0  0  0  0  0  0  0  0  0
   47.3619   13.4356   17.5057 C   0  0  0  0  0  0  0  0  0  0  0  0
   50.1480    9.6366   14.0619 H   0  0  0  0  0  0  0  0  0  0  0  0
   47.1306    4.6838   15.4362 H   0  0  0  0  0  0  0  0  0  0  0  0
   46.2894    9.0324   11.2684 H   0  0  0  0  0  0  0  0  0  0  0  0
   51.2313    6.4313   17.5180 H   0  0  0  0  0  0  0  0  0  0  0  0
   46.2854    5.6672   13.8701 H   0  0  0  0  0  0  0  0  0  0  0  0
   52.2055    7.9347   16.5579 H   0  0  0  0  0  0  0  0  0  0  0  0
   52.2418   10.4299   17.0889 H   0  0  0  0  0  0  0  0  0  0  0  0
   50.6442   10.5814   16.4118 H   0  0  0  0  0  0  0  0  0  0  0  0
   50.2501    4.3889   18.3269 H   0  0  0  0  0  0  0  0  0  0  0  0
   51.4501    8.8065   18.7650 H   0  0  0  0  0  0  0  0  0  0  0  0
   49.7934    8.9116   18.1923 H   0  0  0  0  0  0  0  0  0  0  0  0
   53.2938    9.2486   15.2819 H   0  0  0  0  0  0  0  0  0  0  0  0
   50.1377   11.1115   21.1849 H   0  0  0  0  0  0  0  0  0  0  0  0
   50.1315    9.4034   20.7946 H   0  0  0  0  0  0  0  0  0  0  0  0
   48.3991   10.7758   19.3741 H   0  0  0  0  0  0  0  0  0  0  0  0
   48.9762   11.1916   17.7721 H   0  0  0  0  0  0  0  0  0  0  0  0
   52.1143   10.0491   22.0989 H   0  0  0  0  0  0  0  0  0  0  0  0
   52.6349    9.4882   20.5195 H   0  0  0  0  0  0  0  0  0  0  0  0
   49.4852   12.9552   20.2123 H   0  0  0  0  0  0  0  0  0  0  0  0
   49.9596   13.3023   18.5571 H   0  0  0  0  0  0  0  0  0  0  0  0
   52.3283   12.4278   21.3460 H   0  0  0  0  0  0  0  0  0  0  0  0
   52.8365   11.8835   19.7443 H   0  0  0  0  0  0  0  0  0  0  0  0
   47.0890   12.9955   19.5951 H   0  0  0  0  0  0  0  0  0  0  0  0
   47.9225   14.5100   19.2681 H   0  0  0  0  0  0  0  0  0  0  0  0
   54.7977   12.4898   21.0743 H   0  0  0  0  0  0  0  0  0  0  0  0
   54.8291   10.7435   20.7632 H   0  0  0  0  0  0  0  0  0  0  0  0
   54.3399   11.3555   22.3610 H   0  0  0  0  0  0  0  0  0  0  0  0
   47.1054   12.4194   17.1874 H   0  0  0  0  0  0  0  0  0  0  0  0
   48.1258   13.8318   16.8275 H   0  0  0  0  0  0  0  0  0  0  0  0
   46.4634   14.0491   17.3980 H   0  0  0  0  0  0  0  0  0  0  0  0
  2  1  2  0
  3  2  1  0
  4  1  1  0
  5  4  2  0
  6 10  1  0
  7  5  1  0
  8  1  1  0
  9  3  1  0
 10  8  2  0
 11 14  1  0
 12  4  1  0
 13  2  1  0
 14 13  2  0
 15  5  1  0
 16 15  1  0
 17 10  1  0
 18  6  1  0
 19  6  1  0
 20  6  1  0
 21  9  1  0
 22 16  1  0
 23 22  1  0
 24 14  1  0
 25 15  1  0
 26 23  1  0
 27 23  1  0
 28 26  1  0
 29 27  1  0
 30 28  1  0
 31 29  1  0
 32 30  1  0
 33 31  1  0
 17 12  2  0
  7  3  2  0
  9 11  2  0
  7 34  1  0
  8 35  1  0
 11 36  1  0
 12 37  1  0
 13 38  1  0
 15 39  1  6
 16 40  1  0
 16 41  1  0
 17 42  1  0
 22 43  1  0
 22 44  1  0
 25 45  1  0
 26 46  1  0
 26 47  1  0
 27 48  1  0
 27 49  1  0
 28 50  1  0
 28 51  1  0
 29 52  1  0
 29 53  1  0
 30 54  1  0
 30 55  1  0
 31 56  1  0
 31 57  1  0
 32 58  1  0
 32 59  1  0
 32 60  1  0
 33 61  1  0
 33 62  1  0
 33 63  1  0
M  END
> <Uni-Dock RESULT> 
ENERGY=   -4.353  LOWER_BOUND=    3.248  UPPER_BOUND=    4.676
INTER + INTRA:          -4.353
INTER:                  -4.353
INTRA:                   0.000
UNBOUND:                 0.000

$$$$

     RDKit          3D

 63 65  0  0  0  0  0  0  0  0999 V2000
   46.1980    9.7986   12.2979 C   0  0  0  0  0  0  0  0  0  0  0  0
   46.9877    8.7137   12.8388 C   0  0  0  0  0  0  0  0  0  0  0  0
   48.2991    8.9633   13.3132 C   0  0  0  0  0  0  0  0  0  0  0  0
   46.7235   11.1235   12.2566 C   0  0  0  0  0  0  0  0  0  0  0  0
   48.0291   11.3637   12.7524 C   0  0  0  0  0  0  0  0  0  0  0  0
   42.7036   10.3669   10.7458 C   0  0  0  0  0  0  0  0  0  0  0  0
   48.7799   10.2817   13.2528 C   0  0  0  0  0  0  0  0  0  0  0  0
   44.8843    9.6058   11.7875 C   0  0  0  0  0  0  0  0  0  0  0  0
   49.0789    7.8910   13.8339 C   0  0  0  0  0  0  0  0  0  0  0  0
   44.1019   10.6387   11.2464 C   0  0  0  0  0  0  0  0  0  0  0  0
   48.5830    6.5911   13.9042 C   0  0  0  0  0  0  0  0  0  0  0  0
   45.9127   12.1538   11.7164 C   0  0  0  0  0  0  0  0  0  0  0  0
   46.5242    7.3724   12.9299 C   0  0  0  0  0  0  0  0  0  0  0  0
   47.3040    6.3395   13.4524 C   0  0  0  0  0  0  0  0  0  0  0  0
   48.6985   12.7355   12.7598 C   0  0  2  0  0  0  0  0  0  0  0  0
   49.7482   12.8985   11.6510 C   0  0  0  0  0  0  0  0  0  0  0  0
   44.6297   11.9211   11.2234 C   0  0  0  0  0  0  0  0  0  0  0  0
   41.7629   10.5312   11.7220 F   0  0  0  0  0  0  0  0  0  0  0  0
   42.5424    9.0951   10.2767 F   0  0  0  0  0  0  0  0  0  0  0  0
   42.3337   11.1891    9.7257 F   0  0  0  0  0  0  0  0  0  0  0  0
   50.7028    8.1145   14.4141 Cl  0  0  0  0  0  0  0  0  0  0  0  0
   49.1230   13.0563   10.2605 C   0  0  0  0  0  0  0  0  0  0  0  0
   50.1739   13.2512    9.2431 N   0  0  0  0  0  0  0  0  0  0  0  0
   46.6684    4.7421   13.5322 Cl  0  0  0  0  0  0  0  0  0  0  0  0
   49.3591   12.9078   14.0229 O   0  0  0  0  0  0  0  0  0  0  0  0
   49.6765   14.0597    8.1100 C   0  0  0  0  0  0  0  0  0  0  0  0
   50.6969   11.9518    8.7785 C   0  0  0  0  0  0  0  0  0  0  0  0
   49.6964   15.5679    8.4151 C   0  0  0  0  0  0  0  0  0  0  0  0
   52.1337   12.0840    8.2524 C   0  0  0  0  0  0  0  0  0  0  0  0
   51.1004   16.0853    8.7453 C   0  0  0  0  0  0  0  0  0  0  0  0
   52.6981   10.7772    7.6860 C   0  0  0  0  0  0  0  0  0  0  0  0
   51.0967   17.5794    9.0337 C   0  0  0  0  0  0  0  0  0  0  0  0
   52.8152    9.6591    8.7139 C   0  0  0  0  0  0  0  0  0  0  0  0
   49.7793   10.5037   13.6257 H   0  0  0  0  0  0  0  0  0  0  0  0
   44.4289    8.6172   11.7986 H   0  0  0  0  0  0  0  0  0  0  0  0
   49.1907    5.7875   14.3100 H   0  0  0  0  0  0  0  0  0  0  0  0
   46.2621   13.1805   11.6619 H   0  0  0  0  0  0  0  0  0  0  0  0
   45.5266    7.1027   12.5956 H   0  0  0  0  0  0  0  0  0  0  0  0
   47.9631   13.5418   12.7141 H   0  0  0  0  0  0  0  0  0  0  0  0
   50.3591   13.7844   11.8717 H   0  0  0  0  0  0  0  0  0  0  0  0
   50.4487   12.0561   11.6755 H   0  0  0  0  0  0  0  0  0  0  0  0
   44.0485   12.7499   10.8236 H   0  0  0  0  0  0  0  0  0  0  0  0
   48.4624   13.9310   10.3056 H   0  0  0  0  0  0  0  0  0  0  0  0
   48.4870   12.2022    9.9985 H   0  0  0  0  0  0  0  0  0  0  0  0
   49.5293   13.8539   14.1242 H   0  0  0  0  0  0  0  0  0  0  0  0
   50.2962   13.9092    7.2187 H   0  0  0  0  0  0  0  0  0  0  0  0
   48.6613   13.7465    7.8274 H   0  0  0  0  0  0  0  0  0  0  0  0
   50.0411   11.5185    8.0152 H   0  0  0  0  0  0  0  0  0  0  0  0
   50.7161   11.2420    9.6090 H   0  0  0  0  0  0  0  0  0  0  0  0
   49.3119   16.1004    7.5356 H   0  0  0  0  0  0  0  0  0  0  0  0
   49.0148   15.8033    9.2396 H   0  0  0  0  0  0  0  0  0  0  0  0
   52.1830   12.8343    7.4555 H   0  0  0  0  0  0  0  0  0  0  0  0
   52.7876   12.4435    9.0576 H   0  0  0  0  0  0  0  0  0  0  0  0
   51.7785   15.8803    7.9075 H   0  0  0  0  0  0  0  0  0  0  0  0
   51.4996   15.5614    9.6222 H   0  0  0  0  0  0  0  0  0  0  0  0
   52.0803   10.4378    6.8464 H   0  0  0  0  0  0  0  0  0  0  0  0
   53.6958   10.9816    7.2821 H   0  0  0  0  0  0  0  0  0  0  0  0
   52.1059   17.9096    9.3042 H   0  0  0  0  0  0  0  0  0  0  0  0
   50.4264   17.8187    9.8684 H   0  0  0  0  0  0  0  0  0  0  0  0
   50.7744   18.1512    8.1552 H   0  0  0  0  0  0  0  0  0  0  0  0
   51.8302    9.2994    9.0307 H   0  0  0  0  0  0  0  0  0  0  0  0
   53.3667    9.9929    9.5998 H   0  0  0  0  0  0  0  0  0  0  0  0
   53.3509    8.8093    8.2825 H   0  0  0  0  0  0  0  0  0  0  0  0
  2  1  2  0
  3  2  1  0
  4  1  1  0
  5  4  2  0
  6 10  1  0
  7  5  1  0
  8  1  1  0
  9  3  1  0
 10  8  2  0
 11 14  1  0
 12  4  1  0
 13  2  1  0
 14 13  2  0
 15  5  1  0
 16 15  1  0
 17 10  1  0
 18  6  1  0
 19  6  1  0
 20  6  1  0
 21  9  1  0
 22 16  1  0
 23 22  1  0
 24 14  1  0
 25 15  1  0
 26 23  1  0
 27 23  1  0
 28 26  1  0
 29 27  1  0
 30 28  1  0
 31 29  1  0
 32 30  1  0
 33 31  1  0
 17 12  2  0
  7  3  2  0
  9 11  2  0
  7 34  1  0
  8 35  1  0
 11 36  1  0
 12 37  1  0
 13 38  1  0
 15 39  1  6
 16 40  1  0
 16 41  1  0
 17 42  1  0
 22 43  1  0
 22 44  1  0
 25 45  1  0
 26 46  1  0
 26 47  1  0
 27 48  1  0
 27 49  1  0
 28 50  1  0
 28 51  1  0
 29 52  1  0
 29 53  1  0
 30 54  1  0
 30 55  1  0
 31 56  1  0
 31 57  1  0
 32 58  1  0
 32 59  1  0
 32 60  1  0
 33 61  1  0
 33 62  1  0
 33 63  1  0
M  END
> <Uni-Dock RESULT> 
ENERGY=   -4.266  LOWER_BOUND=    4.745  UPPER_BOUND=    8.482
INTER + INTRA:          -4.266
INTER:                  -4.266
INTRA:                   0.000
UNBOUND:                 0.000

$$$$
