
     RDKit          3D

 63 65  0  0  0  0  0  0  0  0999 V2000
   46.5405    8.5273   12.4433 C   0  0  0  0  0  0  0  0  0  0  0  0
   45.9309    7.2261   12.5978 C   0  0  0  0  0  0  0  0  0  0  0  0
   46.6951    6.1403   13.0971 C   0  0  0  0  0  0  0  0  0  0  0  0
   47.9104    8.7212   12.7817 C   0  0  0  0  0  0  0  0  0  0  0  0
   48.6653    7.6268   13.2757 C   0  0  0  0  0  0  0  0  0  0  0  0
   45.5807   12.0872   11.2852 C   0  0  0  0  0  0  0  0  0  0  0  0
   48.0429    6.3741   13.4241 C   0  0  0  0  0  0  0  0  0  0  0  0
   45.8265    9.6591   11.9572 C   0  0  0  0  0  0  0  0  0  0  0  0
   46.0864    4.8626   13.2510 C   0  0  0  0  0  0  0  0  0  0  0  0
   46.4045   10.9278   11.7870 C   0  0  0  0  0  0  0  0  0  0  0  0
   44.7520    4.6417   12.9199 C   0  0  0  0  0  0  0  0  0  0  0  0
   48.4715   10.0102   12.6079 C   0  0  0  0  0  0  0  0  0  0  0  0
   44.5756    6.9539   12.2699 C   0  0  0  0  0  0  0  0  0  0  0  0
   44.0029    5.6917   12.4280 C   0  0  0  0  0  0  0  0  0  0  0  0
   50.1356    7.7069   13.6936 C   0  0  2  0  0  0  0  0  0  0  0  0
   50.3210    8.4785   15.0110 C   0  0  0  0  0  0  0  0  0  0  0  0
   47.7395   11.0932   12.1253 C   0  0  0  0  0  0  0  0  0  0  0  0
   44.9086   12.7153   12.2887 F   0  0  0  0  0  0  0  0  0  0  0  0
   44.6353   11.7119   10.3795 F   0  0  0  0  0  0  0  0  0  0  0  0
   46.3218   13.0499   10.6701 F   0  0  0  0  0  0  0  0  0  0  0  0
   46.9577    3.4867   13.8585 Cl  0  0  0  0  0  0  0  0  0  0  0  0
   51.5898    8.0851   15.7956 C   0  0  0  0  0  0  0  0  0  0  0  0
   52.8847    8.3330   15.1452 N   0  0  0  0  0  0  0  0  0  0  0  0
   42.3525    5.4422   12.0074 Cl  0  0  0  0  0  0  0  0  0  0  0  0
   50.9031    8.2655   12.6320 O   0  0  0  0  0  0  0  0  0  0  0  0
   53.0685    9.7267   14.6948 C   0  0  0  0  0  0  0  0  0  0  0  0
   54.0237    7.8836   15.9673 C   0  0  0  0  0  0  0  0  0  0  0  0
   53.0418   10.8029   15.7918 C   0  0  0  0  0  0  0  0  0  0  0  0
   54.1552    6.3548   16.0185 C   0  0  0  0  0  0  0  0  0  0  0  0
   53.2461   12.2185   15.2427 C   0  0  0  0  0  0  0  0  0  0  0  0
   55.3731    5.8844   16.8228 C   0  0  0  0  0  0  0  0  0  0  0  0
   52.0923   12.7052   14.3773 C   0  0  0  0  0  0  0  0  0  0  0  0
   56.7057    6.2005   16.1598 C   0  0  0  0  0  0  0  0  0  0  0  0
   48.6457    5.5532   13.8138 H   0  0  0  0  0  0  0  0  0  0  0  0
   44.7743    9.5753   11.6917 H   0  0  0  0  0  0  0  0  0  0  0  0
   44.3058    3.6595   13.0442 H   0  0  0  0  0  0  0  0  0  0  0  0
   49.5170   10.2010   12.8418 H   0  0  0  0  0  0  0  0  0  0  0  0
   43.9303    7.7331   11.8744 H   0  0  0  0  0  0  0  0  0  0  0  0
   50.5208    6.6890   13.8291 H   0  0  0  0  0  0  0  0  0  0  0  0
   50.3111    9.5598   14.8442 H   0  0  0  0  0  0  0  0  0  0  0  0
   49.4716    8.2645   15.6740 H   0  0  0  0  0  0  0  0  0  0  0  0
   48.2269   12.0601   12.0149 H   0  0  0  0  0  0  0  0  0  0  0  0
   51.4937    7.0155   16.0129 H   0  0  0  0  0  0  0  0  0  0  0  0
   51.5567    8.5897   16.7698 H   0  0  0  0  0  0  0  0  0  0  0  0
   50.6017    7.8459   11.8083 H   0  0  0  0  0  0  0  0  0  0  0  0
   54.0220    9.7955   14.1540 H   0  0  0  0  0  0  0  0  0  0  0  0
   52.3162    9.9568   13.9352 H   0  0  0  0  0  0  0  0  0  0  0  0
   54.9484    8.2791   15.5320 H   0  0  0  0  0  0  0  0  0  0  0  0
   53.9553    8.2863   16.9849 H   0  0  0  0  0  0  0  0  0  0  0  0
   52.0949   10.7739   16.3420 H   0  0  0  0  0  0  0  0  0  0  0  0
   53.8397   10.6058   16.5173 H   0  0  0  0  0  0  0  0  0  0  0  0
   53.2678    5.9165   16.4880 H   0  0  0  0  0  0  0  0  0  0  0  0
   54.2086    5.9502   15.0003 H   0  0  0  0  0  0  0  0  0  0  0  0
   54.1798   12.2688   14.6714 H   0  0  0  0  0  0  0  0  0  0  0  0
   53.3552   12.9049   16.0908 H   0  0  0  0  0  0  0  0  0  0  0  0
   55.3500    6.3227   17.8266 H   0  0  0  0  0  0  0  0  0  0  0  0
   55.3037    4.7984   16.9512 H   0  0  0  0  0  0  0  0  0  0  0  0
   51.1379   12.6167   14.9069 H   0  0  0  0  0  0  0  0  0  0  0  0
   52.2381   13.7589   14.1145 H   0  0  0  0  0  0  0  0  0  0  0  0
   52.0239   12.1391   13.4431 H   0  0  0  0  0  0  0  0  0  0  0  0
   56.7516    5.7760   15.1523 H   0  0  0  0  0  0  0  0  0  0  0  0
   57.5269    5.7722   16.7439 H   0  0  0  0  0  0  0  0  0  0  0  0
   56.8790    7.2773   16.0911 H   0  0  0  0  0  0  0  0  0  0  0  0
  2  1  2  0
  3  2  1  0
  4  1  1  0
  5  4  2  0
  6 10  1  0
  7  5  1  0
  8  1  1  0
  9  3  1  0
 10  8  2  0
 11 14  1  0
 12  4  1  0
 13  2  1  0
 14 13  2  0
 15  5  1  0
 16 15  1  0
 17 10  1  0
 18  6  1  0
 19  6  1  0
 20  6  1  0
 21  9  1  0
 22 16  1  0
 23 22  1  0
 24 14  1  0
 25 15  1  0
 26 23  1  0
 27 23  1  0
 28 26  1  0
 29 27  1  0
 30 28  1  0
 31 29  1  0
 32 30  1  0
 33 31  1  0
 17 12  2  0
  7  3  2  0
  9 11  2  0
  7 34  1  0
  8 35  1  0
 11 36  1  0
 12 37  1  0
 13 38  1  0
 15 39  1  1
 16 40  1  0
 16 41  1  0
 17 42  1  0
 22 43  1  0
 22 44  1  0
 25 45  1  0
 26 46  1  0
 26 47  1  0
 27 48  1  0
 27 49  1  0
 28 50  1  0
 28 51  1  0
 29 52  1  0
 29 53  1  0
 30 54  1  0
 30 55  1  0
 31 56  1  0
 31 57  1  0
 32 58  1  0
 32 59  1  0
 32 60  1  0
 33 61  1  0
 33 62  1  0
 33 63  1  0
M  END
> <Uni-Dock RESULT> 
ENERGY=   -5.463  LOWER_BOUND=    0.000  UPPER_BOUND=    0.000
INTER + INTRA:          -5.463
INTER:                  -5.463
INTRA:                   0.000
UNBOUND:                 0.000

$$$$

     RDKit          3D

 63 65  0  0  0  0  0  0  0  0999 V2000
   45.4233    7.7515   12.2697 C   0  0  0  0  0  0  0  0  0  0  0  0
   45.3714    6.3185   12.4498 C   0  0  0  0  0  0  0  0  0  0  0  0
   46.3608    5.6659   13.2290 C   0  0  0  0  0  0  0  0  0  0  0  0
   46.4717    8.5106   12.8644 C   0  0  0  0  0  0  0  0  0  0  0  0
   47.4578    7.8460   13.6374 C   0  0  0  0  0  0  0  0  0  0  0  0
   43.4263   10.5516   10.5071 C   0  0  0  0  0  0  0  0  0  0  0  0
   47.3764    6.4515   13.8030 C   0  0  0  0  0  0  0  0  0  0  0  0
   44.4564    8.4673   11.5084 C   0  0  0  0  0  0  0  0  0  0  0  0
   46.3004    4.2545   13.4058 C   0  0  0  0  0  0  0  0  0  0  0  0
   44.4974    9.8572   11.3103 C   0  0  0  0  0  0  0  0  0  0  0  0
   45.2924    3.4861   12.8291 C   0  0  0  0  0  0  0  0  0  0  0  0
   46.4905    9.9117   12.6567 C   0  0  0  0  0  0  0  0  0  0  0  0
   44.3648    5.4948   11.8780 C   0  0  0  0  0  0  0  0  0  0  0  0
   44.3287    4.1128   12.0646 C   0  0  0  0  0  0  0  0  0  0  0  0
   48.6212    8.5458   14.3443 C   0  0  2  0  0  0  0  0  0  0  0  0
   48.1532    9.3538   15.5663 C   0  0  0  0  0  0  0  0  0  0  0  0
   45.5265   10.5757   11.9010 C   0  0  0  0  0  0  0  0  0  0  0  0
   42.3359   10.8621   11.2607 F   0  0  0  0  0  0  0  0  0  0  0  0
   42.9638    9.7933    9.4746 F   0  0  0  0  0  0  0  0  0  0  0  0
   43.8427   11.7221    9.9498 F   0  0  0  0  0  0  0  0  0  0  0  0
   47.4748    3.3861   14.3481 Cl  0  0  0  0  0  0  0  0  0  0  0  0
   49.2399    9.5478   16.6442 C   0  0  0  0  0  0  0  0  0  0  0  0
   50.4413   10.3017   16.2576 N   0  0  0  0  0  0  0  0  0  0  0  0
   43.0753    3.1837   11.3377 Cl  0  0  0  0  0  0  0  0  0  0  0  0
   49.3324    9.3506   13.4093 O   0  0  0  0  0  0  0  0  0  0  0  0
   50.1525   11.6329   15.6890 C   0  0  0  0  0  0  0  0  0  0  0  0
   51.4269   10.3912   17.3512 C   0  0  0  0  0  0  0  0  0  0  0  0
   49.4285   12.6232   16.6151 C   0  0  0  0  0  0  0  0  0  0  0  0
   52.1456    9.0606   17.6160 C   0  0  0  0  0  0  0  0  0  0  0  0
   49.1731   13.9807   15.9525 C   0  0  0  0  0  0  0  0  0  0  0  0
   53.2136    9.1637   18.7117 C   0  0  0  0  0  0  0  0  0  0  0  0
   48.1701   13.9178   14.8093 C   0  0  0  0  0  0  0  0  0  0  0  0
   54.4239    9.9950   18.3125 C   0  0  0  0  0  0  0  0  0  0  0  0
   48.1437    5.9689   14.4091 H   0  0  0  0  0  0  0  0  0  0  0  0
   43.6263    7.9433   11.0382 H   0  0  0  0  0  0  0  0  0  0  0  0
   45.2635    2.4104   12.9754 H   0  0  0  0  0  0  0  0  0  0  0  0
   47.2793   10.5292   13.0817 H   0  0  0  0  0  0  0  0  0  0  0  0
   43.5782    5.9217   11.2624 H   0  0  0  0  0  0  0  0  0  0  0  0
   49.3376    7.7872   14.6821 H   0  0  0  0  0  0  0  0  0  0  0  0
   47.7501   10.3269   15.2700 H   0  0  0  0  0  0  0  0  0  0  0  0
   47.3282    8.8181   16.0554 H   0  0  0  0  0  0  0  0  0  0  0  0
   45.5944   11.6551   11.7787 H   0  0  0  0  0  0  0  0  0  0  0  0
   49.5326    8.5420   16.9656 H   0  0  0  0  0  0  0  0  0  0  0  0
   48.7702   10.0140   17.5199 H   0  0  0  0  0  0  0  0  0  0  0  0
   49.4360    8.8245   12.5982 H   0  0  0  0  0  0  0  0  0  0  0  0
   51.0981   12.0835   15.3583 H   0  0  0  0  0  0  0  0  0  0  0  0
   49.5813   11.5084   14.7649 H   0  0  0  0  0  0  0  0  0  0  0  0
   52.1898   11.1283   17.0766 H   0  0  0  0  0  0  0  0  0  0  0  0
   50.9565   10.7510   18.2740 H   0  0  0  0  0  0  0  0  0  0  0  0
   48.4706   12.2118   16.9514 H   0  0  0  0  0  0  0  0  0  0  0  0
   50.0351   12.7961   17.5117 H   0  0  0  0  0  0  0  0  0  0  0  0
   51.4245    8.3010   17.9369 H   0  0  0  0  0  0  0  0  0  0  0  0
   52.6037    8.6926   16.6897 H   0  0  0  0  0  0  0  0  0  0  0  0
   50.1160   14.4055   15.5903 H   0  0  0  0  0  0  0  0  0  0  0  0
   48.7865   14.6687   16.7138 H   0  0  0  0  0  0  0  0  0  0  0  0
   52.7722    9.5746   19.6262 H   0  0  0  0  0  0  0  0  0  0  0  0
   53.5580    8.1522   18.9545 H   0  0  0  0  0  0  0  0  0  0  0  0
   47.2344   13.4489   15.1313 H   0  0  0  0  0  0  0  0  0  0  0  0
   47.9388   14.9290   14.4563 H   0  0  0  0  0  0  0  0  0  0  0  0
   48.5652   13.3542   13.9584 H   0  0  0  0  0  0  0  0  0  0  0  0
   54.8808    9.6061   17.3974 H   0  0  0  0  0  0  0  0  0  0  0  0
   55.1786    9.9647   19.1053 H   0  0  0  0  0  0  0  0  0  0  0  0
   54.1603   11.0431   18.1506 H   0  0  0  0  0  0  0  0  0  0  0  0
  2  1  2  0
  3  2  1  0
  4  1  1  0
  5  4  2  0
  6 10  1  0
  7  5  1  0
  8  1  1  0
  9  3  1  0
 10  8  2  0
 11 14  1  0
 12  4  1  0
 13  2  1  0
 14 13  2  0
 15  5  1  0
 16 15  1  0
 17 10  1  0
 18  6  1  0
 19  6  1  0
 20  6  1  0
 21  9  1  0
 22 16  1  0
 23 22  1  0
 24 14  1  0
 25 15  1  0
 26 23  1  0
 27 23  1  0
 28 26  1  0
 29 27  1  0
 30 28  1  0
 31 29  1  0
 32 30  1  0
 33 31  1  0
 17 12  2  0
  7  3  2  0
  9 11  2  0
  7 34  1  0
  8 35  1  0
 11 36  1  0
 12 37  1  0
 13 38  1  0
 15 39  1  1
 16 40  1  0
 16 41  1  0
 17 42  1  0
 22 43  1  0
 22 44  1  0
 25 45  1  0
 26 46  1  0
 26 47  1  0
 27 48  1  0
 27 49  1  0
 28 50  1  0
 28 51  1  0
 29 52  1  0
 29 53  1  0
 30 54  1  0
 30 55  1  0
 31 56  1  0
 31 57  1  0
 32 58  1  0
 32 59  1  0
 32 60  1  0
 33 61  1  0
 33 62  1  0
 33 63  1  0
M  END
> <Uni-Dock RESULT> 
ENERGY=   -5.346  LOWER_BOUND=    2.247  UPPER_BOUND=    2.730
INTER + INTRA:          -5.346
INTER:                  -5.346
INTRA:                   0.000
UNBOUND:                 0.000

$$$$

     RDKit          3D

 63 65  0  0  0  0  0  0  0  0999 V2000
   48.3719    8.3526   18.0330 C   0  0  0  0  0  0  0  0  0  0  0  0
   48.5063    7.0027   18.5315 C   0  0  0  0  0  0  0  0  0  0  0  0
   49.0622    5.9938   17.7038 C   0  0  0  0  0  0  0  0  0  0  0  0
   48.7869    8.6716   16.7083 C   0  0  0  0  0  0  0  0  0  0  0  0
   49.3370    7.6531   15.8888 C   0  0  0  0  0  0  0  0  0  0  0  0
   47.1173   11.8035   19.2382 C   0  0  0  0  0  0  0  0  0  0  0  0
   49.4641    6.3504   16.4039 C   0  0  0  0  0  0  0  0  0  0  0  0
   47.8316    9.4120   18.8157 C   0  0  0  0  0  0  0  0  0  0  0  0
   49.1959    4.6674   18.2034 C   0  0  0  0  0  0  0  0  0  0  0  0
   47.6799   10.7266   18.3448 C   0  0  0  0  0  0  0  0  0  0  0  0
   48.7906    4.3248   19.4908 C   0  0  0  0  0  0  0  0  0  0  0  0
   48.6304   10.0048   16.2558 C   0  0  0  0  0  0  0  0  0  0  0  0
   48.1036    6.6072   19.8353 C   0  0  0  0  0  0  0  0  0  0  0  0
   48.2433    5.2996   20.3008 C   0  0  0  0  0  0  0  0  0  0  0  0
   49.8385    7.8683   14.4587 C   0  0  2  0  0  0  0  0  0  0  0  0
   51.1551    8.6624   14.4212 C   0  0  0  0  0  0  0  0  0  0  0  0
   48.0932   11.0140   17.0522 C   0  0  0  0  0  0  0  0  0  0  0  0
   48.0724   12.3751   20.0219 F   0  0  0  0  0  0  0  0  0  0  0  0
   46.1628   11.3383   20.0911 F   0  0  0  0  0  0  0  0  0  0  0  0
   46.5347   12.8249   18.5516 F   0  0  0  0  0  0  0  0  0  0  0  0
   49.8694    3.3798   17.2495 Cl  0  0  0  0  0  0  0  0  0  0  0  0
   52.0167    8.3905   13.1706 C   0  0  0  0  0  0  0  0  0  0  0  0
   51.4397    8.7498   11.8671 N   0  0  0  0  0  0  0  0  0  0  0  0
   47.7307    4.8993   21.8945 Cl  0  0  0  0  0  0  0  0  0  0  0  0
   48.8167    8.4867   13.6832 O   0  0  0  0  0  0  0  0  0  0  0  0
   50.9839   10.1513   11.7828 C   0  0  0  0  0  0  0  0  0  0  0  0
   52.3318    8.4105   10.7428 C   0  0  0  0  0  0  0  0  0  0  0  0
   52.0645   11.2281   11.9705 C   0  0  0  0  0  0  0  0  0  0  0  0
   52.4089    6.9002   10.4779 C   0  0  0  0  0  0  0  0  0  0  0  0
   51.5112   12.6526   11.8619 C   0  0  0  0  0  0  0  0  0  0  0  0
   53.2883    6.5470    9.2723 C   0  0  0  0  0  0  0  0  0  0  0  0
   50.5745   13.0273   13.0018 C   0  0  0  0  0  0  0  0  0  0  0  0
   52.7000    6.9776    7.9367 C   0  0  0  0  0  0  0  0  0  0  0  0
   49.8980    5.5899   15.7539 H   0  0  0  0  0  0  0  0  0  0  0  0
   47.5064    9.2318   19.8387 H   0  0  0  0  0  0  0  0  0  0  0  0
   48.9006    3.3072   19.8537 H   0  0  0  0  0  0  0  0  0  0  0  0
   48.9223   10.2907   15.2472 H   0  0  0  0  0  0  0  0  0  0  0  0
   47.6620    7.3223   20.5234 H   0  0  0  0  0  0  0  0  0  0  0  0
   50.0084    6.8903   13.9924 H   0  0  0  0  0  0  0  0  0  0  0  0
   50.9750    9.7373   14.5181 H   0  0  0  0  0  0  0  0  0  0  0  0
   51.7702    8.3772   15.2855 H   0  0  0  0  0  0  0  0  0  0  0  0
   47.9996   12.0201   16.6479 H   0  0  0  0  0  0  0  0  0  0  0  0
   52.2409    7.3180   13.1830 H   0  0  0  0  0  0  0  0  0  0  0  0
   52.9812    8.8966   13.3062 H   0  0  0  0  0  0  0  0  0  0  0  0
   47.9820    8.0361   13.8967 H   0  0  0  0  0  0  0  0  0  0  0  0
   50.4986   10.3022   10.8091 H   0  0  0  0  0  0  0  0  0  0  0  0
   50.1792   10.3074   12.5066 H   0  0  0  0  0  0  0  0  0  0  0  0
   51.9462    8.8848    9.8333 H   0  0  0  0  0  0  0  0  0  0  0  0
   53.3388    8.8123   10.9068 H   0  0  0  0  0  0  0  0  0  0  0  0
   52.5591   11.1174   12.9417 H   0  0  0  0  0  0  0  0  0  0  0  0
   52.8374   11.1086   11.2023 H   0  0  0  0  0  0  0  0  0  0  0  0
   52.8314    6.3868   11.3486 H   0  0  0  0  0  0  0  0  0  0  0  0
   51.4005    6.4952   10.3286 H   0  0  0  0  0  0  0  0  0  0  0  0
   50.9945   12.7831   10.9045 H   0  0  0  0  0  0  0  0  0  0  0  0
   52.3559   13.3517   11.8650 H   0  0  0  0  0  0  0  0  0  0  0  0
   54.2836    6.9882    9.3937 H   0  0  0  0  0  0  0  0  0  0  0  0
   53.4254    5.4601    9.2515 H   0  0  0  0  0  0  0  0  0  0  0  0
   51.0488   12.8567   13.9739 H   0  0  0  0  0  0  0  0  0  0  0  0
   50.3080   14.0880   12.9358 H   0  0  0  0  0  0  0  0  0  0  0  0
   49.6448   12.4511   12.9640 H   0  0  0  0  0  0  0  0  0  0  0  0
   51.7020    6.5522    7.7936 H   0  0  0  0  0  0  0  0  0  0  0  0
   53.3359    6.6291    7.1162 H   0  0  0  0  0  0  0  0  0  0  0  0
   52.6285    8.0651    7.8569 H   0  0  0  0  0  0  0  0  0  0  0  0
  2  1  2  0
  3  2  1  0
  4  1  1  0
  5  4  2  0
  6 10  1  0
  7  5  1  0
  8  1  1  0
  9  3  1  0
 10  8  2  0
 11 14  1  0
 12  4  1  0
 13  2  1  0
 14 13  2  0
 15  5  1  0
 16 15  1  0
 17 10  1  0
 18  6  1  0
 19  6  1  0
 20  6  1  0
 21  9  1  0
 22 16  1  0
 23 22  1  0
 24 14  1  0
 25 15  1  0
 26 23  1  0
 27 23  1  0
 28 26  1  0
 29 27  1  0
 30 28  1  0
 31 29  1  0
 32 30  1  0
 33 31  1  0
 17 12  2  0
  7  3  2  0
  9 11  2  0
  7 34  1  0
  8 35  1  0
 11 36  1  0
 12 37  1  0
 13 38  1  0
 15 39  1  1
 16 40  1  0
 16 41  1  0
 17 42  1  0
 22 43  1  0
 22 44  1  0
 25 45  1  0
 26 46  1  0
 26 47  1  0
 27 48  1  0
 27 49  1  0
 28 50  1  0
 28 51  1  0
 29 52  1  0
 29 53  1  0
 30 54  1  0
 30 55  1  0
 31 56  1  0
 31 57  1  0
 32 58  1  0
 32 59  1  0
 32 60  1  0
 33 61  1  0
 33 62  1  0
 33 63  1  0
M  END
> <Uni-Dock RESULT> 
ENERGY=   -4.937  LOWER_BOUND=    4.705  UPPER_BOUND=    6.135
INTER + INTRA:          -4.937
INTER:                  -4.937
INTRA:                   0.000
UNBOUND:                 0.000

$$$$

     RDKit          3D

 63 65  0  0  0  0  0  0  0  0999 V2000
   46.6281    5.9752   13.7090 C   0  0  0  0  0  0  0  0  0  0  0  0
   47.4228    5.5435   14.8362 C   0  0  0  0  0  0  0  0  0  0  0  0
   48.5761    6.2784   15.2131 C   0  0  0  0  0  0  0  0  0  0  0  0
   47.0048    7.1318   12.9681 C   0  0  0  0  0  0  0  0  0  0  0  0
   48.1626    7.8556   13.3518 C   0  0  0  0  0  0  0  0  0  0  0  0
   43.4347    4.9177   11.8064 C   0  0  0  0  0  0  0  0  0  0  0  0
   48.9115    7.4171   14.4588 C   0  0  0  0  0  0  0  0  0  0  0  0
   45.4551    5.2880   13.2858 C   0  0  0  0  0  0  0  0  0  0  0  0
   49.3514    5.8497   16.3276 C   0  0  0  0  0  0  0  0  0  0  0  0
   44.6776    5.6836   12.1851 C   0  0  0  0  0  0  0  0  0  0  0  0
   49.0120    4.7180   17.0646 C   0  0  0  0  0  0  0  0  0  0  0  0
   46.2031    7.5163   11.8653 C   0  0  0  0  0  0  0  0  0  0  0  0
   47.1170    4.3945   15.6141 C   0  0  0  0  0  0  0  0  0  0  0  0
   47.8943    3.9939   16.7009 C   0  0  0  0  0  0  0  0  0  0  0  0
   48.6628    9.1229   12.6541 C   0  0  2  0  0  0  0  0  0  0  0  0
   47.7623   10.3357   12.9431 C   0  0  0  0  0  0  0  0  0  0  0  0
   45.0628    6.8144   11.4800 C   0  0  0  0  0  0  0  0  0  0  0  0
   42.3427    5.3263   12.5088 F   0  0  0  0  0  0  0  0  0  0  0  0
   43.5474    3.5798   12.0349 F   0  0  0  0  0  0  0  0  0  0  0  0
   43.1033    5.0425   10.4915 F   0  0  0  0  0  0  0  0  0  0  0  0
   50.7747    6.6997   16.8499 Cl  0  0  0  0  0  0  0  0  0  0  0  0
   48.4841   11.6946   12.8300 C   0  0  0  0  0  0  0  0  0  0  0  0
   49.0252   12.0593   11.5127 N   0  0  0  0  0  0  0  0  0  0  0  0
   47.4572    2.5888   17.5939 Cl  0  0  0  0  0  0  0  0  0  0  0  0
   48.7991    8.8763   11.2582 O   0  0  0  0  0  0  0  0  0  0  0  0
   48.0301   12.0054   10.4237 C   0  0  0  0  0  0  0  0  0  0  0  0
   49.7263   13.3567   11.5307 C   0  0  0  0  0  0  0  0  0  0  0  0
   46.8270   12.9525   10.5572 C   0  0  0  0  0  0  0  0  0  0  0  0
   51.0798   13.2927   12.2526 C   0  0  0  0  0  0  0  0  0  0  0  0
   45.8470   12.8396    9.3850 C   0  0  0  0  0  0  0  0  0  0  0  0
   51.8393   14.6246   12.2219 C   0  0  0  0  0  0  0  0  0  0  0  0
   45.1180   11.5044    9.3312 C   0  0  0  0  0  0  0  0  0  0  0  0
   52.3424   15.0122   10.8391 C   0  0  0  0  0  0  0  0  0  0  0  0
   49.7919    7.9980   14.7355 H   0  0  0  0  0  0  0  0  0  0  0  0
   45.1115    4.4033   13.8187 H   0  0  0  0  0  0  0  0  0  0  0  0
   49.6164    4.4069   17.9115 H   0  0  0  0  0  0  0  0  0  0  0  0
   46.4601    8.3858   11.2635 H   0  0  0  0  0  0  0  0  0  0  0  0
   46.2542    3.7770   15.3812 H   0  0  0  0  0  0  0  0  0  0  0  0
   49.6749    9.3476   13.0118 H   0  0  0  0  0  0  0  0  0  0  0  0
   46.8753   10.3351   12.3024 H   0  0  0  0  0  0  0  0  0  0  0  0
   47.3928   10.2696   13.9755 H   0  0  0  0  0  0  0  0  0  0  0  0
   44.4869    7.1605   10.6238 H   0  0  0  0  0  0  0  0  0  0  0  0
   49.3003   11.6672   13.5607 H   0  0  0  0  0  0  0  0  0  0  0  0
   47.7968   12.4745   13.1822 H   0  0  0  0  0  0  0  0  0  0  0  0
   49.2237    8.0071   11.1605 H   0  0  0  0  0  0  0  0  0  0  0  0
   48.5410   12.2131    9.4738 H   0  0  0  0  0  0  0  0  0  0  0  0
   47.6777   10.9759   10.3150 H   0  0  0  0  0  0  0  0  0  0  0  0
   49.9189   13.6660   10.4972 H   0  0  0  0  0  0  0  0  0  0  0  0
   49.0992   14.1346   11.9824 H   0  0  0  0  0  0  0  0  0  0  0  0
   46.2828   12.7611   11.4884 H   0  0  0  0  0  0  0  0  0  0  0  0
   47.1806   13.9893   10.6004 H   0  0  0  0  0  0  0  0  0  0  0  0
   50.9324   13.0280   13.3053 H   0  0  0  0  0  0  0  0  0  0  0  0
   51.7019   12.5046   11.8108 H   0  0  0  0  0  0  0  0  0  0  0  0
   46.3722   13.0092    8.4384 H   0  0  0  0  0  0  0  0  0  0  0  0
   45.1006   13.6370    9.4816 H   0  0  0  0  0  0  0  0  0  0  0  0
   51.2059   15.4252   12.6192 H   0  0  0  0  0  0  0  0  0  0  0  0
   52.7036   14.5448   12.8907 H   0  0  0  0  0  0  0  0  0  0  0  0
   44.6263   11.2851   10.2848 H   0  0  0  0  0  0  0  0  0  0  0  0
   44.3495   11.5270    8.5505 H   0  0  0  0  0  0  0  0  0  0  0  0
   45.8015   10.6824    9.0968 H   0  0  0  0  0  0  0  0  0  0  0  0
   52.9755   14.2249   10.4185 H   0  0  0  0  0  0  0  0  0  0  0  0
   52.9392   15.9283   10.8996 H   0  0  0  0  0  0  0  0  0  0  0  0
   51.5188   15.2025   10.1466 H   0  0  0  0  0  0  0  0  0  0  0  0
  2  1  2  0
  3  2  1  0
  4  1  1  0
  5  4  2  0
  6 10  1  0
  7  5  1  0
  8  1  1  0
  9  3  1  0
 10  8  2  0
 11 14  1  0
 12  4  1  0
 13  2  1  0
 14 13  2  0
 15  5  1  0
 16 15  1  0
 17 10  1  0
 18  6  1  0
 19  6  1  0
 20  6  1  0
 21  9  1  0
 22 16  1  0
 23 22  1  0
 24 14  1  0
 25 15  1  0
 26 23  1  0
 27 23  1  0
 28 26  1  0
 29 27  1  0
 30 28  1  0
 31 29  1  0
 32 30  1  0
 33 31  1  0
 17 12  2  0
  7  3  2  0
  9 11  2  0
  7 34  1  0
  8 35  1  0
 11 36  1  0
 12 37  1  0
 13 38  1  0
 15 39  1  1
 16 40  1  0
 16 41  1  0
 17 42  1  0
 22 43  1  0
 22 44  1  0
 25 45  1  0
 26 46  1  0
 26 47  1  0
 27 48  1  0
 27 49  1  0
 28 50  1  0
 28 51  1  0
 29 52  1  0
 29 53  1  0
 30 54  1  0
 30 55  1  0
 31 56  1  0
 31 57  1  0
 32 58  1  0
 32 59  1  0
 32 60  1  0
 33 61  1  0
 33 62  1  0
 33 63  1  0
M  END
> <Uni-Dock RESULT> 
ENERGY=   -4.754  LOWER_BOUND=    4.099  UPPER_BOUND=    6.419
INTER + INTRA:          -4.754
INTER:                  -4.754
INTRA:                   0.000
UNBOUND:                 0.000

$$$$

     RDKit          3D

 63 65  0  0  0  0  0  0  0  0999 V2000
   46.9040    8.4907   12.4017 C   0  0  0  0  0  0  0  0  0  0  0  0
   46.2455    7.2221   12.6158 C   0  0  0  0  0  0  0  0  0  0  0  0
   44.8546    7.0950   12.3683 C   0  0  0  0  0  0  0  0  0  0  0  0
   46.1583    9.6178   11.9520 C   0  0  0  0  0  0  0  0  0  0  0  0
   44.7673    9.4794   11.7124 C   0  0  0  0  0  0  0  0  0  0  0  0
   50.4377   10.0328   12.6675 C   0  0  0  0  0  0  0  0  0  0  0  0
   44.1551    8.2302   11.9207 C   0  0  0  0  0  0  0  0  0  0  0  0
   48.2975    8.6816   12.6221 C   0  0  0  0  0  0  0  0  0  0  0  0
   44.2137    5.8410   12.5769 C   0  0  0  0  0  0  0  0  0  0  0  0
   48.9529    9.9094   12.4332 C   0  0  0  0  0  0  0  0  0  0  0  0
   44.9157    4.7247   13.0245 C   0  0  0  0  0  0  0  0  0  0  0  0
   46.8403   10.8448   11.7623 C   0  0  0  0  0  0  0  0  0  0  0  0
   46.9201    6.0589   13.0745 C   0  0  0  0  0  0  0  0  0  0  0  0
   46.2686    4.8414   13.2732 C   0  0  0  0  0  0  0  0  0  0  0  0
   43.8587   10.6040   11.2095 C   0  0  2  0  0  0  0  0  0  0  0  0
   44.1186   10.9397    9.7313 C   0  0  0  0  0  0  0  0  0  0  0  0
   48.2065   10.9924   11.9926 C   0  0  0  0  0  0  0  0  0  0  0  0
   51.1644    9.6702   11.5751 F   0  0  0  0  0  0  0  0  0  0  0  0
   50.8794    9.2468   13.6883 F   0  0  0  0  0  0  0  0  0  0  0  0
   50.8320   11.2988   12.9771 F   0  0  0  0  0  0  0  0  0  0  0  0
   42.5148    5.6083   12.2929 Cl  0  0  0  0  0  0  0  0  0  0  0  0
   42.9055   11.5575    9.0052 C   0  0  0  0  0  0  0  0  0  0  0  0
   42.4147   12.8517    9.5008 N   0  0  0  0  0  0  0  0  0  0  0  0
   47.1568    3.4768   13.8314 Cl  0  0  0  0  0  0  0  0  0  0  0  0
   44.0002   11.7437   12.0515 O   0  0  0  0  0  0  0  0  0  0  0  0
   43.4552   13.8963    9.5719 C   0  0  0  0  0  0  0  0  0  0  0  0
   41.2314   13.3270    8.7598 C   0  0  0  0  0  0  0  0  0  0  0  0
   44.1175   14.2853    8.2406 C   0  0  0  0  0  0  0  0  0  0  0  0
   39.9611   12.5312    9.0916 C   0  0  0  0  0  0  0  0  0  0  0  0
   45.1790   15.3784    8.4003 C   0  0  0  0  0  0  0  0  0  0  0  0
   38.7163   13.0601    8.3689 C   0  0  0  0  0  0  0  0  0  0  0  0
   46.4075   14.9215    9.1745 C   0  0  0  0  0  0  0  0  0  0  0  0
   38.2573   14.4261    8.8572 C   0  0  0  0  0  0  0  0  0  0  0  0
   43.0861    8.1515   11.7205 H   0  0  0  0  0  0  0  0  0  0  0  0
   48.9215    7.8548   12.9564 H   0  0  0  0  0  0  0  0  0  0  0  0
   44.4088    3.7766   13.1779 H   0  0  0  0  0  0  0  0  0  0  0  0
   46.3083   11.7348   11.4318 H   0  0  0  0  0  0  0  0  0  0  0  0
   47.9838    6.0809   13.2931 H   0  0  0  0  0  0  0  0  0  0  0  0
   42.8137   10.2890   11.3164 H   0  0  0  0  0  0  0  0  0  0  0  0
   44.9883   11.5940    9.6182 H   0  0  0  0  0  0  0  0  0  0  0  0
   44.3609   10.0144    9.1910 H   0  0  0  0  0  0  0  0  0  0  0  0
   48.6740   11.9613   11.8275 H   0  0  0  0  0  0  0  0  0  0  0  0
   42.1011   10.8165    9.0723 H   0  0  0  0  0  0  0  0  0  0  0  0
   43.1509   11.6331    7.9381 H   0  0  0  0  0  0  0  0  0  0  0  0
   43.9998   11.4239   12.9697 H   0  0  0  0  0  0  0  0  0  0  0  0
   43.0164   14.7953   10.0254 H   0  0  0  0  0  0  0  0  0  0  0  0
   44.2218   13.5862   10.2875 H   0  0  0  0  0  0  0  0  0  0  0  0
   41.0448   14.3725    9.0300 H   0  0  0  0  0  0  0  0  0  0  0  0
   41.4123   13.3069    7.6785 H   0  0  0  0  0  0  0  0  0  0  0  0
   44.5814   13.4129    7.7676 H   0  0  0  0  0  0  0  0  0  0  0  0
   43.3542   14.6574    7.5472 H   0  0  0  0  0  0  0  0  0  0  0  0
   40.0861   11.4835    8.7972 H   0  0  0  0  0  0  0  0  0  0  0  0
   39.7881   12.5385   10.1748 H   0  0  0  0  0  0  0  0  0  0  0  0
   44.7432   16.2570    8.8891 H   0  0  0  0  0  0  0  0  0  0  0  0
   45.4991   15.6968    7.4011 H   0  0  0  0  0  0  0  0  0  0  0  0
   38.8993   13.0992    7.2895 H   0  0  0  0  0  0  0  0  0  0  0  0
   37.8981   12.3481    8.5245 H   0  0  0  0  0  0  0  0  0  0  0  0
   46.8336   14.0126    8.7369 H   0  0  0  0  0  0  0  0  0  0  0  0
   47.1768   15.7014    9.1528 H   0  0  0  0  0  0  0  0  0  0  0  0
   46.1700   14.7222   10.2241 H   0  0  0  0  0  0  0  0  0  0  0  0
   38.0716   14.4138    9.9355 H   0  0  0  0  0  0  0  0  0  0  0  0
   37.3250   14.7099    8.3578 H   0  0  0  0  0  0  0  0  0  0  0  0
   38.9948   15.2029    8.6408 H   0  0  0  0  0  0  0  0  0  0  0  0
  2  1  2  0
  3  2  1  0
  4  1  1  0
  5  4  2  0
  6 10  1  0
  7  5  1  0
  8  1  1  0
  9  3  1  0
 10  8  2  0
 11 14  1  0
 12  4  1  0
 13  2  1  0
 14 13  2  0
 15  5  1  0
 16 15  1  0
 17 10  1  0
 18  6  1  0
 19  6  1  0
 20  6  1  0
 21  9  1  0
 22 16  1  0
 23 22  1  0
 24 14  1  0
 25 15  1  0
 26 23  1  0
 27 23  1  0
 28 26  1  0
 29 27  1  0
 30 28  1  0
 31 29  1  0
 32 30  1  0
 33 31  1  0
 17 12  2  0
  7  3  2  0
  9 11  2  0
  7 34  1  0
  8 35  1  0
 11 36  1  0
 12 37  1  0
 13 38  1  0
 15 39  1  1
 16 40  1  0
 16 41  1  0
 17 42  1  0
 22 43  1  0
 22 44  1  0
 25 45  1  0
 26 46  1  0
 26 47  1  0
 27 48  1  0
 27 49  1  0
 28 50  1  0
 28 51  1  0
 29 52  1  0
 29 53  1  0
 30 54  1  0
 30 55  1  0
 31 56  1  0
 31 57  1  0
 32 58  1  0
 32 59  1  0
 32 60  1  0
 33 61  1  0
 33 62  1  0
 33 63  1  0
M  END
> <Uni-Dock RESULT> 
ENERGY=   -4.717  LOWER_BOUND=    4.343  UPPER_BOUND=    8.974
INTER + INTRA:          -4.717
INTER:                  -4.717
INTRA:                   0.000
UNBOUND:                 0.000

$$$$

     RDKit          3D

 63 65  0  0  0  0  0  0  0  0999 V2000
   48.0507    7.3744   19.5746 C   0  0  0  0  0  0  0  0  0  0  0  0
   48.1601    6.8647   18.2267 C   0  0  0  0  0  0  0  0  0  0  0  0
   48.4096    7.7545   17.1506 C   0  0  0  0  0  0  0  0  0  0  0  0
   48.1827    8.7703   19.8254 C   0  0  0  0  0  0  0  0  0  0  0  0
   48.4274    9.6506   18.7405 C   0  0  0  0  0  0  0  0  0  0  0  0
   47.4536    6.0589   23.1590 C   0  0  0  0  0  0  0  0  0  0  0  0
   48.5382    9.1248   17.4406 C   0  0  0  0  0  0  0  0  0  0  0  0
   47.8111    6.5339   20.6985 C   0  0  0  0  0  0  0  0  0  0  0  0
   48.5208    7.2445   15.8261 C   0  0  0  0  0  0  0  0  0  0  0  0
   47.6878    7.0115   22.0135 C   0  0  0  0  0  0  0  0  0  0  0  0
   48.3874    5.8860   15.5503 C   0  0  0  0  0  0  0  0  0  0  0  0
   48.0608    9.2297   21.1598 C   0  0  0  0  0  0  0  0  0  0  0  0
   48.0276    5.4888   17.8982 C   0  0  0  0  0  0  0  0  0  0  0  0
   48.1389    5.0140   16.5912 C   0  0  0  0  0  0  0  0  0  0  0  0
   48.6089   11.1643   18.8772 C   0  0  2  0  0  0  0  0  0  0  0  0
   49.9546   11.5290   19.5263 C   0  0  0  0  0  0  0  0  0  0  0  0
   47.8223    8.3745   22.2336 C   0  0  0  0  0  0  0  0  0  0  0  0
   48.6141    5.5338   23.6391 F   0  0  0  0  0  0  0  0  0  0  0  0
   46.6770    4.9951   22.8123 F   0  0  0  0  0  0  0  0  0  0  0  0
   46.8346    6.6378   24.2248 F   0  0  0  0  0  0  0  0  0  0  0  0
   48.8277    8.2723   14.4585 Cl  0  0  0  0  0  0  0  0  0  0  0  0
   50.4773   12.9291   19.1433 C   0  0  0  0  0  0  0  0  0  0  0  0
   49.6571   14.0830   19.5398 N   0  0  0  0  0  0  0  0  0  0  0  0
   47.9656    3.3310   16.2746 Cl  0  0  0  0  0  0  0  0  0  0  0  0
   47.5040   11.7146   19.5874 O   0  0  0  0  0  0  0  0  0  0  0  0
   49.3360   14.1194   20.9801 C   0  0  0  0  0  0  0  0  0  0  0  0
   50.2314   15.3644   19.0888 C   0  0  0  0  0  0  0  0  0  0  0  0
   50.5326   14.2232   21.9391 C   0  0  0  0  0  0  0  0  0  0  0  0
   50.0954   15.5784   17.5746 C   0  0  0  0  0  0  0  0  0  0  0  0
   50.1138   14.2623   23.4123 C   0  0  0  0  0  0  0  0  0  0  0  0
   50.6373   16.9355   17.1097 C   0  0  0  0  0  0  0  0  0  0  0  0
   49.5034   12.9572   23.9035 C   0  0  0  0  0  0  0  0  0  0  0  0
   49.8061   18.1210   17.5778 C   0  0  0  0  0  0  0  0  0  0  0  0
   48.7347    9.8244   16.6275 H   0  0  0  0  0  0  0  0  0  0  0  0
   47.7112    5.4576   20.5711 H   0  0  0  0  0  0  0  0  0  0  0  0
   48.4753    5.5162   14.5330 H   0  0  0  0  0  0  0  0  0  0  0  0
   48.1422   10.2888   21.3960 H   0  0  0  0  0  0  0  0  0  0  0  0
   47.8279    4.7485   18.6677 H   0  0  0  0  0  0  0  0  0  0  0  0
   48.5698   11.6168   17.8789 H   0  0  0  0  0  0  0  0  0  0  0  0
   49.9093   11.4377   20.6157 H   0  0  0  0  0  0  0  0  0  0  0  0
   50.7189   10.8142   19.1919 H   0  0  0  0  0  0  0  0  0  0  0  0
   47.7397    8.7879   23.2370 H   0  0  0  0  0  0  0  0  0  0  0  0
   50.5905   12.9240   18.0534 H   0  0  0  0  0  0  0  0  0  0  0  0
   51.4927   13.0345   19.5464 H   0  0  0  0  0  0  0  0  0  0  0  0
   46.6993   11.3009   19.2315 H   0  0  0  0  0  0  0  0  0  0  0  0
   48.6591   14.9644   21.1652 H   0  0  0  0  0  0  0  0  0  0  0  0
   48.7370   13.2402   21.2330 H   0  0  0  0  0  0  0  0  0  0  0  0
   49.6980   16.1824   19.5860 H   0  0  0  0  0  0  0  0  0  0  0  0
   51.2842   15.4474   19.3841 H   0  0  0  0  0  0  0  0  0  0  0  0
   51.2219   13.3845   21.7930 H   0  0  0  0  0  0  0  0  0  0  0  0
   51.0944   15.1401   21.7254 H   0  0  0  0  0  0  0  0  0  0  0  0
   50.6518   14.8049   17.0340 H   0  0  0  0  0  0  0  0  0  0  0  0
   49.0443   15.4807   17.2765 H   0  0  0  0  0  0  0  0  0  0  0  0
   49.4082   15.0836   23.5807 H   0  0  0  0  0  0  0  0  0  0  0  0
   51.0023   14.4776   24.0177 H   0  0  0  0  0  0  0  0  0  0  0  0
   51.6730   17.0590   17.4448 H   0  0  0  0  0  0  0  0  0  0  0  0
   50.6572   16.9425   16.0142 H   0  0  0  0  0  0  0  0  0  0  0  0
   50.1673   12.1105   23.6999 H   0  0  0  0  0  0  0  0  0  0  0  0
   49.3358   13.0045   24.9853 H   0  0  0  0  0  0  0  0  0  0  0  0
   48.5369   12.7617   23.4287 H   0  0  0  0  0  0  0  0  0  0  0  0
   48.7645   18.0187   17.2583 H   0  0  0  0  0  0  0  0  0  0  0  0
   50.2004   19.0486   17.1499 H   0  0  0  0  0  0  0  0  0  0  0  0
   49.8270   18.2267   18.6652 H   0  0  0  0  0  0  0  0  0  0  0  0
  2  1  2  0
  3  2  1  0
  4  1  1  0
  5  4  2  0
  6 10  1  0
  7  5  1  0
  8  1  1  0
  9  3  1  0
 10  8  2  0
 11 14  1  0
 12  4  1  0
 13  2  1  0
 14 13  2  0
 15  5  1  0
 16 15  1  0
 17 10  1  0
 18  6  1  0
 19  6  1  0
 20  6  1  0
 21  9  1  0
 22 16  1  0
 23 22  1  0
 24 14  1  0
 25 15  1  0
 26 23  1  0
 27 23  1  0
 28 26  1  0
 29 27  1  0
 30 28  1  0
 31 29  1  0
 32 30  1  0
 33 31  1  0
 17 12  2  0
  7  3  2  0
  9 11  2  0
  7 34  1  0
  8 35  1  0
 11 36  1  0
 12 37  1  0
 13 38  1  0
 15 39  1  1
 16 40  1  0
 16 41  1  0
 17 42  1  0
 22 43  1  0
 22 44  1  0
 25 45  1  0
 26 46  1  0
 26 47  1  0
 27 48  1  0
 27 49  1  0
 28 50  1  0
 28 51  1  0
 29 52  1  0
 29 53  1  0
 30 54  1  0
 30 55  1  0
 31 56  1  0
 31 57  1  0
 32 58  1  0
 32 59  1  0
 32 60  1  0
 33 61  1  0
 33 62  1  0
 33 63  1  0
M  END
> <Uni-Dock RESULT> 
ENERGY=   -4.659  LOWER_BOUND=    6.983  UPPER_BOUND=    9.029
INTER + INTRA:          -4.659
INTER:                  -4.659
INTRA:                   0.000
UNBOUND:                 0.000

$$$$

     RDKit          3D

 63 65  0  0  0  0  0  0  0  0999 V2000
   46.8343    4.8592   14.0735 C   0  0  0  0  0  0  0  0  0  0  0  0
   45.9733    4.5318   12.9599 C   0  0  0  0  0  0  0  0  0  0  0  0
   45.9487    5.3671   11.8137 C   0  0  0  0  0  0  0  0  0  0  0  0
   47.6517    6.0248   14.0284 C   0  0  0  0  0  0  0  0  0  0  0  0
   47.6148    6.8547   12.8788 C   0  0  0  0  0  0  0  0  0  0  0  0
   47.7791    3.4593   17.5496 C   0  0  0  0  0  0  0  0  0  0  0  0
   46.7740    6.5060   11.8063 C   0  0  0  0  0  0  0  0  0  0  0  0
   46.9127    4.0578   15.2476 C   0  0  0  0  0  0  0  0  0  0  0  0
   45.1016    5.0356   10.7186 C   0  0  0  0  0  0  0  0  0  0  0  0
   47.7322    4.3665   16.3457 C   0  0  0  0  0  0  0  0  0  0  0  0
   44.2853    3.9075   10.7388 C   0  0  0  0  0  0  0  0  0  0  0  0
   48.4751    6.3140   15.1442 C   0  0  0  0  0  0  0  0  0  0  0  0
   45.1220    3.3945   12.9380 C   0  0  0  0  0  0  0  0  0  0  0  0
   44.2992    3.0923   11.8528 C   0  0  0  0  0  0  0  0  0  0  0  0
   48.4562    8.1203   12.6966 C   0  0  2  0  0  0  0  0  0  0  0  0
   49.9419    7.7981   12.4632 C   0  0  0  0  0  0  0  0  0  0  0  0
   48.5211    5.5055   16.2779 C   0  0  0  0  0  0  0  0  0  0  0  0
   48.6650    2.4378   17.3918 F   0  0  0  0  0  0  0  0  0  0  0  0
   46.5787    2.8751   17.8190 F   0  0  0  0  0  0  0  0  0  0  0  0
   48.1449    4.0997   18.6943 F   0  0  0  0  0  0  0  0  0  0  0  0
   45.0195    6.0089    9.2809 Cl  0  0  0  0  0  0  0  0  0  0  0  0
   50.7046    8.8865   11.6796 C   0  0  0  0  0  0  0  0  0  0  0  0
   50.8039   10.2152   12.3008 N   0  0  0  0  0  0  0  0  0  0  0  0
   43.2956    1.6948   11.9030 Cl  0  0  0  0  0  0  0  0  0  0  0  0
   48.2635    8.9853   13.8112 O   0  0  0  0  0  0  0  0  0  0  0  0
   51.3614   10.1943   13.6674 C   0  0  0  0  0  0  0  0  0  0  0  0
   51.5177   11.1842   11.4483 C   0  0  0  0  0  0  0  0  0  0  0  0
   52.7958    9.6599   13.8064 C   0  0  0  0  0  0  0  0  0  0  0  0
   50.6917   11.6315   10.2340 C   0  0  0  0  0  0  0  0  0  0  0  0
   53.3008    9.6780   15.2527 C   0  0  0  0  0  0  0  0  0  0  0  0
   51.4062   12.6839    9.3775 C   0  0  0  0  0  0  0  0  0  0  0  0
   52.5723    8.6977   16.1612 C   0  0  0  0  0  0  0  0  0  0  0  0
   51.5493   14.0363   10.0600 C   0  0  0  0  0  0  0  0  0  0  0  0
   46.7726    7.1582   10.9325 H   0  0  0  0  0  0  0  0  0  0  0  0
   46.3193    3.1496   15.3363 H   0  0  0  0  0  0  0  0  0  0  0  0
   43.6457    3.6716    9.8935 H   0  0  0  0  0  0  0  0  0  0  0  0
   49.1064    7.2003   15.1582 H   0  0  0  0  0  0  0  0  0  0  0  0
   45.0805    2.7128   13.7826 H   0  0  0  0  0  0  0  0  0  0  0  0
   48.0793    8.6737   11.8280 H   0  0  0  0  0  0  0  0  0  0  0  0
   50.4579    7.5927   13.4059 H   0  0  0  0  0  0  0  0  0  0  0  0
   50.0196    6.8791   11.8664 H   0  0  0  0  0  0  0  0  0  0  0  0
   49.1754    5.7802   17.1032 H   0  0  0  0  0  0  0  0  0  0  0  0
   50.1973    8.9770   10.7125 H   0  0  0  0  0  0  0  0  0  0  0  0
   51.7076    8.5023   11.4536 H   0  0  0  0  0  0  0  0  0  0  0  0
   47.3104    8.9980   14.0033 H   0  0  0  0  0  0  0  0  0  0  0  0
   51.3216   11.2131   14.0759 H   0  0  0  0  0  0  0  0  0  0  0  0
   50.6914    9.6229   14.3158 H   0  0  0  0  0  0  0  0  0  0  0  0
   51.7396   12.0777   12.0426 H   0  0  0  0  0  0  0  0  0  0  0  0
   52.4804   10.7782   11.1154 H   0  0  0  0  0  0  0  0  0  0  0  0
   52.8682    8.6363   13.4228 H   0  0  0  0  0  0  0  0  0  0  0  0
   53.4754   10.2756   13.2057 H   0  0  0  0  0  0  0  0  0  0  0  0
   50.4818   10.7740    9.5854 H   0  0  0  0  0  0  0  0  0  0  0  0
   49.7225   12.0239   10.5655 H   0  0  0  0  0  0  0  0  0  0  0  0
   53.2211   10.6898   15.6659 H   0  0  0  0  0  0  0  0  0  0  0  0
   54.3663    9.4193   15.2491 H   0  0  0  0  0  0  0  0  0  0  0  0
   52.3949   12.3163    9.0816 H   0  0  0  0  0  0  0  0  0  0  0  0
   50.8329   12.8251    8.4544 H   0  0  0  0  0  0  0  0  0  0  0  0
   52.5919    7.6852   15.7446 H   0  0  0  0  0  0  0  0  0  0  0  0
   53.0532    8.6690   17.1453 H   0  0  0  0  0  0  0  0  0  0  0  0
   51.5285    8.9898   16.3129 H   0  0  0  0  0  0  0  0  0  0  0  0
   50.5736   14.4233   10.3693 H   0  0  0  0  0  0  0  0  0  0  0  0
   51.9957   14.7600    9.3701 H   0  0  0  0  0  0  0  0  0  0  0  0
   52.1953   13.9802   10.9396 H   0  0  0  0  0  0  0  0  0  0  0  0
  2  1  2  0
  3  2  1  0
  4  1  1  0
  5  4  2  0
  6 10  1  0
  7  5  1  0
  8  1  1  0
  9  3  1  0
 10  8  2  0
 11 14  1  0
 12  4  1  0
 13  2  1  0
 14 13  2  0
 15  5  1  0
 16 15  1  0
 17 10  1  0
 18  6  1  0
 19  6  1  0
 20  6  1  0
 21  9  1  0
 22 16  1  0
 23 22  1  0
 24 14  1  0
 25 15  1  0
 26 23  1  0
 27 23  1  0
 28 26  1  0
 29 27  1  0
 30 28  1  0
 31 29  1  0
 32 30  1  0
 33 31  1  0
 17 12  2  0
  7  3  2  0
  9 11  2  0
  7 34  1  0
  8 35  1  0
 11 36  1  0
 12 37  1  0
 13 38  1  0
 15 39  1  1
 16 40  1  0
 16 41  1  0
 17 42  1  0
 22 43  1  0
 22 44  1  0
 25 45  1  0
 26 46  1  0
 26 47  1  0
 27 48  1  0
 27 49  1  0
 28 50  1  0
 28 51  1  0
 29 52  1  0
 29 53  1  0
 30 54  1  0
 30 55  1  0
 31 56  1  0
 31 57  1  0
 32 58  1  0
 32 59  1  0
 32 60  1  0
 33 61  1  0
 33 62  1  0
 33 63  1  0
M  END
> <Uni-Dock RESULT> 
ENERGY=   -4.632  LOWER_BOUND=    4.361  UPPER_BOUND=    6.256
INTER + INTRA:          -4.632
INTER:                  -4.632
INTRA:                   0.000
UNBOUND:                 0.000

$$$$

     RDKit          3D

 63 65  0  0  0  0  0  0  0  0999 V2000
   48.1164    6.5432   19.3760 C   0  0  0  0  0  0  0  0  0  0  0  0
   47.9346    6.8971   20.7654 C   0  0  0  0  0  0  0  0  0  0  0  0
   48.2184    8.2160   21.2037 C   0  0  0  0  0  0  0  0  0  0  0  0
   48.5897    7.5126   18.4460 C   0  0  0  0  0  0  0  0  0  0  0  0
   48.8744    8.8268   18.8972 C   0  0  0  0  0  0  0  0  0  0  0  0
   47.6916    3.4794   17.0591 C   0  0  0  0  0  0  0  0  0  0  0  0
   48.6793    9.1449   20.2534 C   0  0  0  0  0  0  0  0  0  0  0  0
   47.8406    5.2410   18.8709 C   0  0  0  0  0  0  0  0  0  0  0  0
   48.0324    8.5585   22.5730 C   0  0  0  0  0  0  0  0  0  0  0  0
   48.0240    4.8739   17.5276 C   0  0  0  0  0  0  0  0  0  0  0  0
   47.5796    7.6292   23.5059 C   0  0  0  0  0  0  0  0  0  0  0  0
   48.7618    7.1227   17.0951 C   0  0  0  0  0  0  0  0  0  0  0  0
   47.4787    5.9820   21.7520 C   0  0  0  0  0  0  0  0  0  0  0  0
   47.3065    6.3419   23.0887 C   0  0  0  0  0  0  0  0  0  0  0  0
   49.3677    9.9635   17.9985 C   0  0  2  0  0  0  0  0  0  0  0  0
   48.2621   10.4829   17.0640 C   0  0  0  0  0  0  0  0  0  0  0  0
   48.4837    5.8355   16.6398 C   0  0  0  0  0  0  0  0  0  0  0  0
   46.3754    3.3421   16.7401 F   0  0  0  0  0  0  0  0  0  0  0  0
   47.9494    2.5294   18.0004 F   0  0  0  0  0  0  0  0  0  0  0  0
   48.3875    3.1018   15.9512 F   0  0  0  0  0  0  0  0  0  0  0  0
   48.3566   10.1536   23.1829 Cl  0  0  0  0  0  0  0  0  0  0  0  0
   48.4556   11.9463   16.6155 C   0  0  0  0  0  0  0  0  0  0  0  0
   49.6548   12.2519   15.8220 N   0  0  0  0  0  0  0  0  0  0  0  0
   46.7500    5.1743   24.2243 Cl  0  0  0  0  0  0  0  0  0  0  0  0
   50.5209    9.5369   17.2802 O   0  0  0  0  0  0  0  0  0  0  0  0
   49.8062   11.4071   14.6210 C   0  0  0  0  0  0  0  0  0  0  0  0
   49.7569   13.6837   15.4832 C   0  0  0  0  0  0  0  0  0  0  0  0
   48.6858   11.5100   13.5740 C   0  0  0  0  0  0  0  0  0  0  0  0
   50.1311   14.5564   16.6897 C   0  0  0  0  0  0  0  0  0  0  0  0
   48.9220   10.6085   12.3581 C   0  0  0  0  0  0  0  0  0  0  0  0
   50.2970   16.0377   16.3297 C   0  0  0  0  0  0  0  0  0  0  0  0
   48.8374    9.1230   12.6796 C   0  0  0  0  0  0  0  0  0  0  0  0
   51.5126   16.3257   15.4610 C   0  0  0  0  0  0  0  0  0  0  0  0
   48.8986   10.1651   20.5699 H   0  0  0  0  0  0  0  0  0  0  0  0
   47.4671    4.4607   19.5314 H   0  0  0  0  0  0  0  0  0  0  0  0
   47.4443    7.9097   24.5463 H   0  0  0  0  0  0  0  0  0  0  0  0
   49.1327    7.8268   16.3529 H   0  0  0  0  0  0  0  0  0  0  0  0
   47.2489    4.9523   21.4936 H   0  0  0  0  0  0  0  0  0  0  0  0
   49.7069   10.7926   18.6311 H   0  0  0  0  0  0  0  0  0  0  0  0
   48.1481    9.8402   16.1859 H   0  0  0  0  0  0  0  0  0  0  0  0
   47.3002   10.4489   17.5937 H   0  0  0  0  0  0  0  0  0  0  0  0
   48.6350    5.5968   15.5888 H   0  0  0  0  0  0  0  0  0  0  0  0
   48.4665   12.5466   17.5322 H   0  0  0  0  0  0  0  0  0  0  0  0
   47.5554   12.2559   16.0692 H   0  0  0  0  0  0  0  0  0  0  0  0
   51.0921    9.0640   17.9090 H   0  0  0  0  0  0  0  0  0  0  0  0
   50.7634   11.6517   14.1410 H   0  0  0  0  0  0  0  0  0  0  0  0
   49.9247   10.3654   14.9320 H   0  0  0  0  0  0  0  0  0  0  0  0
   50.5417   13.8108   14.7291 H   0  0  0  0  0  0  0  0  0  0  0  0
   48.8248   14.0475   15.0346 H   0  0  0  0  0  0  0  0  0  0  0  0
   47.7162   11.2555   14.0157 H   0  0  0  0  0  0  0  0  0  0  0  0
   48.6131   12.5438   13.2164 H   0  0  0  0  0  0  0  0  0  0  0  0
   49.3501   14.4944   17.4553 H   0  0  0  0  0  0  0  0  0  0  0  0
   51.0555   14.1837   17.1479 H   0  0  0  0  0  0  0  0  0  0  0  0
   49.8960   10.8316   11.9084 H   0  0  0  0  0  0  0  0  0  0  0  0
   48.1623   10.8422   11.6027 H   0  0  0  0  0  0  0  0  0  0  0  0
   49.3939   16.4042   15.8295 H   0  0  0  0  0  0  0  0  0  0  0  0
   50.3970   16.6098   17.2589 H   0  0  0  0  0  0  0  0  0  0  0  0
   47.8929    8.8809   13.1782 H   0  0  0  0  0  0  0  0  0  0  0  0
   48.8943    8.5350   11.7568 H   0  0  0  0  0  0  0  0  0  0  0  0
   49.6616    8.8038   13.3250 H   0  0  0  0  0  0  0  0  0  0  0  0
   52.4287   15.9646   15.9382 H   0  0  0  0  0  0  0  0  0  0  0  0
   51.6162   17.4046   15.3055 H   0  0  0  0  0  0  0  0  0  0  0  0
   51.4269   15.8592   14.4765 H   0  0  0  0  0  0  0  0  0  0  0  0
  2  1  2  0
  3  2  1  0
  4  1  1  0
  5  4  2  0
  6 10  1  0
  7  5  1  0
  8  1  1  0
  9  3  1  0
 10  8  2  0
 11 14  1  0
 12  4  1  0
 13  2  1  0
 14 13  2  0
 15  5  1  0
 16 15  1  0
 17 10  1  0
 18  6  1  0
 19  6  1  0
 20  6  1  0
 21  9  1  0
 22 16  1  0
 23 22  1  0
 24 14  1  0
 25 15  1  0
 26 23  1  0
 27 23  1  0
 28 26  1  0
 29 27  1  0
 30 28  1  0
 31 29  1  0
 32 30  1  0
 33 31  1  0
 17 12  2  0
  7  3  2  0
  9 11  2  0
  7 34  1  0
  8 35  1  0
 11 36  1  0
 12 37  1  0
 13 38  1  0
 15 39  1  1
 16 40  1  0
 16 41  1  0
 17 42  1  0
 22 43  1  0
 22 44  1  0
 25 45  1  0
 26 46  1  0
 26 47  1  0
 27 48  1  0
 27 49  1  0
 28 50  1  0
 28 51  1  0
 29 52  1  0
 29 53  1  0
 30 54  1  0
 30 55  1  0
 31 56  1  0
 31 57  1  0
 32 58  1  0
 32 59  1  0
 32 60  1  0
 33 61  1  0
 33 62  1  0
 33 63  1  0
M  END
> <Uni-Dock RESULT> 
ENERGY=   -4.625  LOWER_BOUND=    6.272  UPPER_BOUND=    8.540
INTER + INTRA:          -4.625
INTER:                  -4.625
INTRA:                   0.000
UNBOUND:                 0.000

$$$$

     RDKit          3D

 63 65  0  0  0  0  0  0  0  0999 V2000
   45.0344    9.5227   11.8980 C   0  0  0  0  0  0  0  0  0  0  0  0
   43.9949   10.4258   11.4592 C   0  0  0  0  0  0  0  0  0  0  0  0
   44.3012   11.7862   11.1993 C   0  0  0  0  0  0  0  0  0  0  0  0
   46.3651    9.9968   12.0803 C   0  0  0  0  0  0  0  0  0  0  0  0
   46.6580   11.3602   11.8216 C   0  0  0  0  0  0  0  0  0  0  0  0
   45.4653    5.8025   12.8519 C   0  0  0  0  0  0  0  0  0  0  0  0
   45.6280   12.2138   11.3867 C   0  0  0  0  0  0  0  0  0  0  0  0
   44.7948    8.1452   12.1661 C   0  0  0  0  0  0  0  0  0  0  0  0
   43.2730   12.6688   10.7628 C   0  0  0  0  0  0  0  0  0  0  0  0
   45.7881    7.2552   12.6065 C   0  0  0  0  0  0  0  0  0  0  0  0
   41.9617   12.2351   10.5846 C   0  0  0  0  0  0  0  0  0  0  0  0
   47.3525    9.0809   12.5192 C   0  0  0  0  0  0  0  0  0  0  0  0
   42.6442   10.0289   11.2676 C   0  0  0  0  0  0  0  0  0  0  0  0
   41.6540   10.9140   10.8409 C   0  0  0  0  0  0  0  0  0  0  0  0
   48.0468   11.9890   11.9585 C   0  0  2  0  0  0  0  0  0  0  0  0
   49.0007   11.5327   10.8417 C   0  0  0  0  0  0  0  0  0  0  0  0
   47.0771    7.7392   12.7747 C   0  0  0  0  0  0  0  0  0  0  0  0
   45.5412    5.0578   11.7149 F   0  0  0  0  0  0  0  0  0  0  0  0
   44.2073    5.6149   13.3387 F   0  0  0  0  0  0  0  0  0  0  0  0
   46.3016    5.2073   13.7467 F   0  0  0  0  0  0  0  0  0  0  0  0
   43.5727   14.3468   10.4226 Cl  0  0  0  0  0  0  0  0  0  0  0  0
   50.1343   12.5338   10.5364 C   0  0  0  0  0  0  0  0  0  0  0  0
   51.0893   12.8161   11.6178 N   0  0  0  0  0  0  0  0  0  0  0  0
   40.0392   10.3556   10.6323 Cl  0  0  0  0  0  0  0  0  0  0  0  0
   48.5685   11.7148   13.2549 O   0  0  0  0  0  0  0  0  0  0  0  0
   51.7193   11.6086   12.1871 C   0  0  0  0  0  0  0  0  0  0  0  0
   52.1035   13.8135   11.2282 C   0  0  0  0  0  0  0  0  0  0  0  0
   52.5616   10.7626   11.2190 C   0  0  0  0  0  0  0  0  0  0  0  0
   51.5349   15.2365   11.1352 C   0  0  0  0  0  0  0  0  0  0  0  0
   53.1846    9.5338   11.8890 C   0  0  0  0  0  0  0  0  0  0  0  0
   52.5983   16.2857   10.7888 C   0  0  0  0  0  0  0  0  0  0  0  0
   52.1604    8.4919   12.3160 C   0  0  0  0  0  0  0  0  0  0  0  0
   53.6110   16.5227   11.8994 C   0  0  0  0  0  0  0  0  0  0  0  0
   45.8844   13.2548   11.1878 H   0  0  0  0  0  0  0  0  0  0  0  0
   43.8003    7.7225   12.0353 H   0  0  0  0  0  0  0  0  0  0  0  0
   41.1911   12.9239   10.2512 H   0  0  0  0  0  0  0  0  0  0  0  0
   48.3792    9.4020   12.6836 H   0  0  0  0  0  0  0  0  0  0  0  0
   42.3319    9.0054   11.4543 H   0  0  0  0  0  0  0  0  0  0  0  0
   47.9478   13.0800   11.9076 H   0  0  0  0  0  0  0  0  0  0  0  0
   49.4266   10.5485   11.0589 H   0  0  0  0  0  0  0  0  0  0  0  0
   48.4318   11.4196    9.9088 H   0  0  0  0  0  0  0  0  0  0  0  0
   47.8793    7.0839   13.1089 H   0  0  0  0  0  0  0  0  0  0  0  0
   49.6438   13.4662   10.2353 H   0  0  0  0  0  0  0  0  0  0  0  0
   50.6697   12.1794    9.6462 H   0  0  0  0  0  0  0  0  0  0  0  0
   47.8480   11.8619   13.8911 H   0  0  0  0  0  0  0  0  0  0  0  0
   52.3498   11.9106   13.0343 H   0  0  0  0  0  0  0  0  0  0  0  0
   50.9450   10.9849   12.6426 H   0  0  0  0  0  0  0  0  0  0  0  0
   52.8947   13.8242   11.9863 H   0  0  0  0  0  0  0  0  0  0  0  0
   52.5784   13.5389   10.2788 H   0  0  0  0  0  0  0  0  0  0  0  0
   51.9579   10.4293   10.3678 H   0  0  0  0  0  0  0  0  0  0  0  0
   53.3767   11.3735   10.8136 H   0  0  0  0  0  0  0  0  0  0  0  0
   50.7666   15.2843   10.3557 H   0  0  0  0  0  0  0  0  0  0  0  0
   51.0465   15.5061   12.0797 H   0  0  0  0  0  0  0  0  0  0  0  0
   53.7799    9.8401   12.7564 H   0  0  0  0  0  0  0  0  0  0  0  0
   53.8764    9.0670   11.1778 H   0  0  0  0  0  0  0  0  0  0  0  0
   53.1219   15.9980    9.8705 H   0  0  0  0  0  0  0  0  0  0  0  0
   52.0918   17.2345   10.5790 H   0  0  0  0  0  0  0  0  0  0  0  0
   51.5164    8.2056   11.4778 H   0  0  0  0  0  0  0  0  0  0  0  0
   52.6689    7.5907   12.6763 H   0  0  0  0  0  0  0  0  0  0  0  0
   51.5273    8.8603   13.1292 H   0  0  0  0  0  0  0  0  0  0  0  0
   53.1111   16.8079   12.8301 H   0  0  0  0  0  0  0  0  0  0  0  0
   54.2919   17.3336   11.6202 H   0  0  0  0  0  0  0  0  0  0  0  0
   54.2190   15.6349   12.0898 H   0  0  0  0  0  0  0  0  0  0  0  0
  2  1  2  0
  3  2  1  0
  4  1  1  0
  5  4  2  0
  6 10  1  0
  7  5  1  0
  8  1  1  0
  9  3  1  0
 10  8  2  0
 11 14  1  0
 12  4  1  0
 13  2  1  0
 14 13  2  0
 15  5  1  0
 16 15  1  0
 17 10  1  0
 18  6  1  0
 19  6  1  0
 20  6  1  0
 21  9  1  0
 22 16  1  0
 23 22  1  0
 24 14  1  0
 25 15  1  0
 26 23  1  0
 27 23  1  0
 28 26  1  0
 29 27  1  0
 30 28  1  0
 31 29  1  0
 32 30  1  0
 33 31  1  0
 17 12  2  0
  7  3  2  0
  9 11  2  0
  7 34  1  0
  8 35  1  0
 11 36  1  0
 12 37  1  0
 13 38  1  0
 15 39  1  1
 16 40  1  0
 16 41  1  0
 17 42  1  0
 22 43  1  0
 22 44  1  0
 25 45  1  0
 26 46  1  0
 26 47  1  0
 27 48  1  0
 27 49  1  0
 28 50  1  0
 28 51  1  0
 29 52  1  0
 29 53  1  0
 30 54  1  0
 30 55  1  0
 31 56  1  0
 31 57  1  0
 32 58  1  0
 32 59  1  0
 32 60  1  0
 33 61  1  0
 33 62  1  0
 33 63  1  0
M  END
> <Uni-Dock RESULT> 
ENERGY=   -4.500  LOWER_BOUND=    4.130  UPPER_BOUND=    6.595
INTER + INTRA:          -4.500
INTER:                  -4.500
INTRA:                   0.000
UNBOUND:                 0.000

$$$$
