
     RDKit          3D

 63 65  0  0  0  0  0  0  0  0999 V2000
   45.6666    7.4418   12.5217 C   0  0  0  0  0  0  0  0  0  0  0  0
   45.6271    8.8397   12.1574 C   0  0  0  0  0  0  0  0  0  0  0  0
   46.7381    9.6747   12.4363 C   0  0  0  0  0  0  0  0  0  0  0  0
   46.8191    6.8987   13.1592 C   0  0  0  0  0  0  0  0  0  0  0  0
   47.9276    7.7404   13.4264 C   0  0  0  0  0  0  0  0  0  0  0  0
   43.4224    4.3031   12.3149 C   0  0  0  0  0  0  0  0  0  0  0  0
   47.8575    9.0978   13.0616 C   0  0  0  0  0  0  0  0  0  0  0  0
   44.5849    6.5516   12.2725 C   0  0  0  0  0  0  0  0  0  0  0  0
   46.6905   11.0526   12.0829 C   0  0  0  0  0  0  0  0  0  0  0  0
   44.5989    5.1930   12.6298 C   0  0  0  0  0  0  0  0  0  0  0  0
   45.5775   11.6116   11.4601 C   0  0  0  0  0  0  0  0  0  0  0  0
   46.8177    5.5239   13.5038 C   0  0  0  0  0  0  0  0  0  0  0  0
   44.5138    9.4519   11.5213 C   0  0  0  0  0  0  0  0  0  0  0  0
   44.4930   10.8048   11.1811 C   0  0  0  0  0  0  0  0  0  0  0  0
   49.1917    7.2403   14.1221 C   0  0  2  0  0  0  0  0  0  0  0  0
   49.0622    7.1306   15.6513 C   0  0  0  0  0  0  0  0  0  0  0  0
   45.7346    4.6853   13.2449 C   0  0  0  0  0  0  0  0  0  0  0  0
   43.4796    3.7998   11.0515 F   0  0  0  0  0  0  0  0  0  0  0  0
   42.2270    4.9503   12.4060 F   0  0  0  0  0  0  0  0  0  0  0  0
   43.3259    3.2262   13.1436 F   0  0  0  0  0  0  0  0  0  0  0  0
   48.0062   12.1403   12.4042 Cl  0  0  0  0  0  0  0  0  0  0  0  0
   48.7860    8.4765   16.3419 C   0  0  0  0  0  0  0  0  0  0  0  0
   48.7272    8.3307   17.8127 N   0  0  0  0  0  0  0  0  0  0  0  0
   43.1061   11.4723   10.4109 Cl  0  0  0  0  0  0  0  0  0  0  0  0
   50.3136    8.0709   13.8054 O   0  0  0  0  0  0  0  0  0  0  0  0
   50.0798    8.3172   18.4033 C   0  0  0  0  0  0  0  0  0  0  0  0
   47.8224    9.3331   18.4078 C   0  0  0  0  0  0  0  0  0  0  0  0
   50.0958    8.0104   19.9088 C   0  0  0  0  0  0  0  0  0  0  0  0
   48.2643   10.8000   18.2951 C   0  0  0  0  0  0  0  0  0  0  0  0
   51.5103    7.9422   20.4952 C   0  0  0  0  0  0  0  0  0  0  0  0
   47.2151   11.7360   18.9000 C   0  0  0  0  0  0  0  0  0  0  0  0
   52.3270    6.7626   19.9895 C   0  0  0  0  0  0  0  0  0  0  0  0
   47.6417   13.1917   18.7950 C   0  0  0  0  0  0  0  0  0  0  0  0
   48.7228    9.7230   13.2840 H   0  0  0  0  0  0  0  0  0  0  0  0
   43.6809    6.9080   11.7824 H   0  0  0  0  0  0  0  0  0  0  0  0
   45.5608   12.6656   11.1974 H   0  0  0  0  0  0  0  0  0  0  0  0
   47.6746    5.0649   13.9912 H   0  0  0  0  0  0  0  0  0  0  0  0
   43.6262    8.8764   11.2753 H   0  0  0  0  0  0  0  0  0  0  0  0
   49.4493    6.2596   13.7071 H   0  0  0  0  0  0  0  0  0  0  0  0
   48.2660    6.4245   15.9158 H   0  0  0  0  0  0  0  0  0  0  0  0
   50.0001    6.7100   16.0315 H   0  0  0  0  0  0  0  0  0  0  0  0
   45.7888    3.6357   13.5302 H   0  0  0  0  0  0  0  0  0  0  0  0
   47.8156    8.8348   15.9778 H   0  0  0  0  0  0  0  0  0  0  0  0
   49.5295    9.2294   16.0526 H   0  0  0  0  0  0  0  0  0  0  0  0
   51.1088    7.6164   14.1314 H   0  0  0  0  0  0  0  0  0  0  0  0
   50.6667    7.5397   17.9055 H   0  0  0  0  0  0  0  0  0  0  0  0
   50.6019    9.2629   18.2140 H   0  0  0  0  0  0  0  0  0  0  0  0
   46.8325    9.2217   17.9446 H   0  0  0  0  0  0  0  0  0  0  0  0
   47.6480    9.0844   19.4612 H   0  0  0  0  0  0  0  0  0  0  0  0
   49.5716    7.0666   20.1029 H   0  0  0  0  0  0  0  0  0  0  0  0
   49.5605    8.7943   20.4560 H   0  0  0  0  0  0  0  0  0  0  0  0
   49.2155   10.9518   18.8176 H   0  0  0  0  0  0  0  0  0  0  0  0
   48.4214   11.0701   17.2443 H   0  0  0  0  0  0  0  0  0  0  0  0
   51.4275    7.8618   21.5859 H   0  0  0  0  0  0  0  0  0  0  0  0
   52.0467    8.8754   20.2867 H   0  0  0  0  0  0  0  0  0  0  0  0
   46.2563   11.6047   18.3850 H   0  0  0  0  0  0  0  0  0  0  0  0
   47.0552   11.4834   19.9549 H   0  0  0  0  0  0  0  0  0  0  0  0
   53.2785    6.7073   20.5286 H   0  0  0  0  0  0  0  0  0  0  0  0
   52.5580    6.8588   18.9246 H   0  0  0  0  0  0  0  0  0  0  0  0
   51.7940    5.8191   20.1460 H   0  0  0  0  0  0  0  0  0  0  0  0
   46.8821   13.8424   19.2398 H   0  0  0  0  0  0  0  0  0  0  0  0
   48.5862   13.3632   19.3212 H   0  0  0  0  0  0  0  0  0  0  0  0
   47.7721   13.4875   17.7490 H   0  0  0  0  0  0  0  0  0  0  0  0
  2  1  2  0
  3  2  1  0
  4  1  1  0
  5  4  2  0
  6 10  1  0
  7  5  1  0
  8  1  1  0
  9  3  1  0
 10  8  2  0
 11 14  1  0
 12  4  1  0
 13  2  1  0
 14 13  2  0
 15  5  1  0
 16 15  1  0
 17 10  1  0
 18  6  1  0
 19  6  1  0
 20  6  1  0
 21  9  1  0
 22 16  1  0
 23 22  1  0
 24 14  1  0
 25 15  1  0
 26 23  1  0
 27 23  1  0
 28 26  1  0
 29 27  1  0
 30 28  1  0
 31 29  1  0
 32 30  1  0
 33 31  1  0
 17 12  2  0
  7  3  2  0
  9 11  2  0
  7 34  1  0
  8 35  1  0
 11 36  1  0
 12 37  1  0
 13 38  1  0
 15 39  1  6
 16 40  1  0
 16 41  1  0
 17 42  1  0
 22 43  1  0
 22 44  1  0
 25 45  1  0
 26 46  1  0
 26 47  1  0
 27 48  1  0
 27 49  1  0
 28 50  1  0
 28 51  1  0
 29 52  1  0
 29 53  1  0
 30 54  1  0
 30 55  1  0
 31 56  1  0
 31 57  1  0
 32 58  1  0
 32 59  1  0
 32 60  1  0
 33 61  1  0
 33 62  1  0
 33 63  1  0
M  END
> <Uni-Dock RESULT> 
ENERGY=   -6.485  LOWER_BOUND=    0.000  UPPER_BOUND=    0.000
INTER + INTRA:          -6.485
INTER:                  -6.485
INTRA:                   0.000
UNBOUND:                 0.000

$$$$

     RDKit          3D

 63 65  0  0  0  0  0  0  0  0999 V2000
   45.7377    7.5467   12.5639 C   0  0  0  0  0  0  0  0  0  0  0  0
   45.7109    8.9395   12.1799 C   0  0  0  0  0  0  0  0  0  0  0  0
   46.8275    9.7694   12.4515 C   0  0  0  0  0  0  0  0  0  0  0  0
   46.8833    7.0033   13.2135 C   0  0  0  0  0  0  0  0  0  0  0  0
   47.9976    7.8398   13.4733 C   0  0  0  0  0  0  0  0  0  0  0  0
   43.4690    4.4235   12.3922 C   0  0  0  0  0  0  0  0  0  0  0  0
   47.9398    9.1924   13.0893 C   0  0  0  0  0  0  0  0  0  0  0  0
   44.6498    6.6618   12.3229 C   0  0  0  0  0  0  0  0  0  0  0  0
   46.7925   11.1426   12.0786 C   0  0  0  0  0  0  0  0  0  0  0  0
   44.6514    5.3082   12.6992 C   0  0  0  0  0  0  0  0  0  0  0  0
   45.6864   11.7017   11.4437 C   0  0  0  0  0  0  0  0  0  0  0  0
   46.8695    5.6336   13.5773 C   0  0  0  0  0  0  0  0  0  0  0  0
   44.6050    9.5517   11.5308 C   0  0  0  0  0  0  0  0  0  0  0  0
   44.5965   10.8998   11.1716 C   0  0  0  0  0  0  0  0  0  0  0  0
   49.2549    7.3393   14.1810 C   0  0  2  0  0  0  0  0  0  0  0  0
   49.1185    7.2521   15.7110 C   0  0  0  0  0  0  0  0  0  0  0  0
   45.7806    4.8001   13.3259 C   0  0  0  0  0  0  0  0  0  0  0  0
   43.5270    3.9020   11.1362 F   0  0  0  0  0  0  0  0  0  0  0  0
   42.2786    5.0815   12.4694 F   0  0  0  0  0  0  0  0  0  0  0  0
   43.3606    3.3592   13.2355 F   0  0  0  0  0  0  0  0  0  0  0  0
   48.1156   12.2240   12.3899 Cl  0  0  0  0  0  0  0  0  0  0  0  0
   48.8506    8.6098   16.3815 C   0  0  0  0  0  0  0  0  0  0  0  0
   48.7850    8.4851   17.8540 N   0  0  0  0  0  0  0  0  0  0  0  0
   43.2180   11.5675   10.3867 Cl  0  0  0  0  0  0  0  0  0  0  0  0
   50.3846    8.1564   13.8571 O   0  0  0  0  0  0  0  0  0  0  0  0
   50.1351    8.4690   18.4501 C   0  0  0  0  0  0  0  0  0  0  0  0
   47.8860    9.5030   18.4314 C   0  0  0  0  0  0  0  0  0  0  0  0
   50.1428    8.1833   19.9598 C   0  0  0  0  0  0  0  0  0  0  0  0
   48.3402   10.9645   18.3000 C   0  0  0  0  0  0  0  0  0  0  0  0
   51.5545    8.1119   20.5527 C   0  0  0  0  0  0  0  0  0  0  0  0
   47.2962   11.9174   18.8876 C   0  0  0  0  0  0  0  0  0  0  0  0
   52.3635    6.9188   20.0669 C   0  0  0  0  0  0  0  0  0  0  0  0
   47.7350   13.3680   18.7638 C   0  0  0  0  0  0  0  0  0  0  0  0
   48.8092    9.8137   13.3063 H   0  0  0  0  0  0  0  0  0  0  0  0
   43.7506    7.0185   11.8243 H   0  0  0  0  0  0  0  0  0  0  0  0
   45.6793   12.7521   11.1662 H   0  0  0  0  0  0  0  0  0  0  0  0
   47.7207    5.1745   14.0745 H   0  0  0  0  0  0  0  0  0  0  0  0
   43.7137    8.9800   11.2894 H   0  0  0  0  0  0  0  0  0  0  0  0
   49.5061    6.3508   13.7807 H   0  0  0  0  0  0  0  0  0  0  0  0
   48.3157    6.5562   15.9822 H   0  0  0  0  0  0  0  0  0  0  0  0
   50.0516    6.8294   16.1007 H   0  0  0  0  0  0  0  0  0  0  0  0
   45.8252    3.7542   13.6260 H   0  0  0  0  0  0  0  0  0  0  0  0
   47.8846    8.9707   16.0086 H   0  0  0  0  0  0  0  0  0  0  0  0
   49.6012    9.3525   16.0848 H   0  0  0  0  0  0  0  0  0  0  0  0
   51.1749    7.7001   14.1926 H   0  0  0  0  0  0  0  0  0  0  0  0
   50.7176    7.6799   17.9655 H   0  0  0  0  0  0  0  0  0  0  0  0
   50.6655    9.4078   18.2496 H   0  0  0  0  0  0  0  0  0  0  0  0
   46.8970    9.3930   17.9660 H   0  0  0  0  0  0  0  0  0  0  0  0
   47.7056    9.2704   19.4875 H   0  0  0  0  0  0  0  0  0  0  0  0
   49.6103    7.2465   20.1651 H   0  0  0  0  0  0  0  0  0  0  0  0
   49.6118    8.9790   20.4939 H   0  0  0  0  0  0  0  0  0  0  0  0
   49.2906   11.1161   18.8241 H   0  0  0  0  0  0  0  0  0  0  0  0
   48.5035   11.2186   17.2461 H   0  0  0  0  0  0  0  0  0  0  0  0
   51.4668    8.0475   21.6441 H   0  0  0  0  0  0  0  0  0  0  0  0
   52.0992    9.0378   20.3333 H   0  0  0  0  0  0  0  0  0  0  0  0
   46.3384   11.7866   18.3706 H   0  0  0  0  0  0  0  0  0  0  0  0
   47.1302   11.6809   19.9452 H   0  0  0  0  0  0  0  0  0  0  0  0
   53.3125    6.8635   20.6104 H   0  0  0  0  0  0  0  0  0  0  0  0
   52.5994    6.9982   19.0017 H   0  0  0  0  0  0  0  0  0  0  0  0
   51.8223    5.9819   20.2344 H   0  0  0  0  0  0  0  0  0  0  0  0
   46.9790   14.0309   19.1965 H   0  0  0  0  0  0  0  0  0  0  0  0
   48.6788   13.5393   19.2914 H   0  0  0  0  0  0  0  0  0  0  0  0
   47.8719   13.6480   17.7143 H   0  0  0  0  0  0  0  0  0  0  0  0
  2  1  2  0
  3  2  1  0
  4  1  1  0
  5  4  2  0
  6 10  1  0
  7  5  1  0
  8  1  1  0
  9  3  1  0
 10  8  2  0
 11 14  1  0
 12  4  1  0
 13  2  1  0
 14 13  2  0
 15  5  1  0
 16 15  1  0
 17 10  1  0
 18  6  1  0
 19  6  1  0
 20  6  1  0
 21  9  1  0
 22 16  1  0
 23 22  1  0
 24 14  1  0
 25 15  1  0
 26 23  1  0
 27 23  1  0
 28 26  1  0
 29 27  1  0
 30 28  1  0
 31 29  1  0
 32 30  1  0
 33 31  1  0
 17 12  2  0
  7  3  2  0
  9 11  2  0
  7 34  1  0
  8 35  1  0
 11 36  1  0
 12 37  1  0
 13 38  1  0
 15 39  1  6
 16 40  1  0
 16 41  1  0
 17 42  1  0
 22 43  1  0
 22 44  1  0
 25 45  1  0
 26 46  1  0
 26 47  1  0
 27 48  1  0
 27 49  1  0
 28 50  1  0
 28 51  1  0
 29 52  1  0
 29 53  1  0
 30 54  1  0
 30 55  1  0
 31 56  1  0
 31 57  1  0
 32 58  1  0
 32 59  1  0
 32 60  1  0
 33 61  1  0
 33 62  1  0
 33 63  1  0
M  END
> <Uni-Dock RESULT> 
ENERGY=   -6.443  LOWER_BOUND=    0.154  UPPER_BOUND=    0.154
INTER + INTRA:          -6.443
INTER:                  -6.443
INTRA:                   0.000
UNBOUND:                 0.000

$$$$

     RDKit          3D

 63 65  0  0  0  0  0  0  0  0999 V2000
   51.4574    4.0318   18.2297 C   0  0  0  0  0  0  0  0  0  0  0  0
   51.5472    5.3986   18.6899 C   0  0  0  0  0  0  0  0  0  0  0  0
   50.3882    6.2144   18.7135 C   0  0  0  0  0  0  0  0  0  0  0  0
   50.2073    3.4998   17.8005 C   0  0  0  0  0  0  0  0  0  0  0  0
   49.0531    4.3215   17.8355 C   0  0  0  0  0  0  0  0  0  0  0  0
   53.7499    0.9639   17.7169 C   0  0  0  0  0  0  0  0  0  0  0  0
   49.1737    5.6490   18.2867 C   0  0  0  0  0  0  0  0  0  0  0  0
   52.5825    3.1623   18.1787 C   0  0  0  0  0  0  0  0  0  0  0  0
   50.4840    7.5625   19.1599 C   0  0  0  0  0  0  0  0  0  0  0  0
   52.5184    1.8348   17.7232 C   0  0  0  0  0  0  0  0  0  0  0  0
   51.6921    8.1101   19.5841 C   0  0  0  0  0  0  0  0  0  0  0  0
   50.1612    2.1558   17.3529 C   0  0  0  0  0  0  0  0  0  0  0  0
   52.7574    5.9983   19.1315 C   0  0  0  0  0  0  0  0  0  0  0  0
   52.8247    7.3215   19.5685 C   0  0  0  0  0  0  0  0  0  0  0  0
   47.6811    3.8330   17.3759 C   0  0  2  0  0  0  0  0  0  0  0  0
   47.4928    3.8436   15.8489 C   0  0  0  0  0  0  0  0  0  0  0  0
   51.2889    1.3370   17.3153 C   0  0  0  0  0  0  0  0  0  0  0  0
   53.9646    0.3649   18.9202 F   0  0  0  0  0  0  0  0  0  0  0  0
   54.8890    1.6561   17.4351 F   0  0  0  0  0  0  0  0  0  0  0  0
   53.6913   -0.0434   16.8017 F   0  0  0  0  0  0  0  0  0  0  0  0
   49.1116    8.6263   19.2045 Cl  0  0  0  0  0  0  0  0  0  0  0  0
   47.5965    5.2464   15.2275 C   0  0  0  0  0  0  0  0  0  0  0  0
   47.3516    5.2142   13.7691 N   0  0  0  0  0  0  0  0  0  0  0  0
   54.3293    7.9753   20.0890 Cl  0  0  0  0  0  0  0  0  0  0  0  0
   46.6350    4.5990   17.9822 O   0  0  0  0  0  0  0  0  0  0  0  0
   45.9064    5.1997   13.4695 C   0  0  0  0  0  0  0  0  0  0  0  0
   48.0959    6.2886   13.0840 C   0  0  0  0  0  0  0  0  0  0  0  0
   45.5841    5.0072   11.9796 C   0  0  0  0  0  0  0  0  0  0  0  0
   47.6615    7.7270   13.4033 C   0  0  0  0  0  0  0  0  0  0  0  0
   44.0802    4.9358   11.6925 C   0  0  0  0  0  0  0  0  0  0  0  0
   48.5461    8.7410   12.6736 C   0  0  0  0  0  0  0  0  0  0  0  0
   43.4066    3.6945   12.2578 C   0  0  0  0  0  0  0  0  0  0  0  0
   48.1253   10.1693   12.9814 C   0  0  0  0  0  0  0  0  0  0  0  0
   48.2704    6.2597   18.2979 H   0  0  0  0  0  0  0  0  0  0  0  0
   53.5621    3.5109   18.5001 H   0  0  0  0  0  0  0  0  0  0  0  0
   51.7445    9.1412   19.9222 H   0  0  0  0  0  0  0  0  0  0  0  0
   49.2301    1.7063   17.0162 H   0  0  0  0  0  0  0  0  0  0  0  0
   53.6866    5.4361   19.1427 H   0  0  0  0  0  0  0  0  0  0  0  0
   47.5323    2.8156   17.7542 H   0  0  0  0  0  0  0  0  0  0  0  0
   48.2290    3.1867   15.3704 H   0  0  0  0  0  0  0  0  0  0  0  0
   46.5039    3.4215   15.6366 H   0  0  0  0  0  0  0  0  0  0  0  0
   51.1950    0.3108   16.9633 H   0  0  0  0  0  0  0  0  0  0  0  0
   48.6148    5.6087   15.4125 H   0  0  0  0  0  0  0  0  0  0  0  0
   46.9161    5.9497   15.7231 H   0  0  0  0  0  0  0  0  0  0  0  0
   45.7975    4.1438   17.7907 H   0  0  0  0  0  0  0  0  0  0  0  0
   45.4491    4.3674   14.0127 H   0  0  0  0  0  0  0  0  0  0  0  0
   45.4186    6.1103   13.8379 H   0  0  0  0  0  0  0  0  0  0  0  0
   49.1621    6.1760   13.3236 H   0  0  0  0  0  0  0  0  0  0  0  0
   48.0524    6.1262   12.0007 H   0  0  0  0  0  0  0  0  0  0  0  0
   46.0730    4.0989   11.6063 H   0  0  0  0  0  0  0  0  0  0  0  0
   45.9806    5.8478   11.3994 H   0  0  0  0  0  0  0  0  0  0  0  0
   46.6201    7.8858   13.1011 H   0  0  0  0  0  0  0  0  0  0  0  0
   47.7210    7.9115   14.4823 H   0  0  0  0  0  0  0  0  0  0  0  0
   43.9365    4.9409   10.6051 H   0  0  0  0  0  0  0  0  0  0  0  0
   43.5825    5.8320   12.0814 H   0  0  0  0  0  0  0  0  0  0  0  0
   49.5929    8.6035   12.9686 H   0  0  0  0  0  0  0  0  0  0  0  0
   48.4883    8.5743   11.5915 H   0  0  0  0  0  0  0  0  0  0  0  0
   42.3652    3.6481   11.9229 H   0  0  0  0  0  0  0  0  0  0  0  0
   43.3998    3.7022   13.3517 H   0  0  0  0  0  0  0  0  0  0  0  0
   43.9120    2.7840   11.9195 H   0  0  0  0  0  0  0  0  0  0  0  0
   48.7648   10.8770   12.4443 H   0  0  0  0  0  0  0  0  0  0  0  0
   47.0894   10.3482   12.6758 H   0  0  0  0  0  0  0  0  0  0  0  0
   48.2094   10.3807   14.0523 H   0  0  0  0  0  0  0  0  0  0  0  0
  2  1  2  0
  3  2  1  0
  4  1  1  0
  5  4  2  0
  6 10  1  0
  7  5  1  0
  8  1  1  0
  9  3  1  0
 10  8  2  0
 11 14  1  0
 12  4  1  0
 13  2  1  0
 14 13  2  0
 15  5  1  0
 16 15  1  0
 17 10  1  0
 18  6  1  0
 19  6  1  0
 20  6  1  0
 21  9  1  0
 22 16  1  0
 23 22  1  0
 24 14  1  0
 25 15  1  0
 26 23  1  0
 27 23  1  0
 28 26  1  0
 29 27  1  0
 30 28  1  0
 31 29  1  0
 32 30  1  0
 33 31  1  0
 17 12  2  0
  7  3  2  0
  9 11  2  0
  7 34  1  0
  8 35  1  0
 11 36  1  0
 12 37  1  0
 13 38  1  0
 15 39  1  6
 16 40  1  0
 16 41  1  0
 17 42  1  0
 22 43  1  0
 22 44  1  0
 25 45  1  0
 26 46  1  0
 26 47  1  0
 27 48  1  0
 27 49  1  0
 28 50  1  0
 28 51  1  0
 29 52  1  0
 29 53  1  0
 30 54  1  0
 30 55  1  0
 31 56  1  0
 31 57  1  0
 32 58  1  0
 32 59  1  0
 32 60  1  0
 33 61  1  0
 33 62  1  0
 33 63  1  0
M  END
> <Uni-Dock RESULT> 
ENERGY=   -6.066  LOWER_BOUND=    5.339  UPPER_BOUND=    9.225
INTER + INTRA:          -6.066
INTER:                  -6.066
INTRA:                   0.000
UNBOUND:                 0.000

$$$$

     RDKit          3D

 63 65  0  0  0  0  0  0  0  0999 V2000
   45.3699    7.6296   11.9951 C   0  0  0  0  0  0  0  0  0  0  0  0
   46.5788    8.3404   12.3439 C   0  0  0  0  0  0  0  0  0  0  0  0
   46.6061    9.7567   12.2925 C   0  0  0  0  0  0  0  0  0  0  0  0
   44.2040    8.3472   11.6009 C   0  0  0  0  0  0  0  0  0  0  0  0
   44.2396    9.7635   11.5604 C   0  0  0  0  0  0  0  0  0  0  0  0
   44.0847    3.9939   11.7497 C   0  0  0  0  0  0  0  0  0  0  0  0
   45.4325   10.4263   11.9036 C   0  0  0  0  0  0  0  0  0  0  0  0
   45.2775    6.2100   12.0232 C   0  0  0  0  0  0  0  0  0  0  0  0
   47.8020   10.4514   12.6291 C   0  0  0  0  0  0  0  0  0  0  0  0
   44.1159    5.5001   11.6762 C   0  0  0  0  0  0  0  0  0  0  0  0
   48.9570    9.7770   13.0169 C   0  0  0  0  0  0  0  0  0  0  0  0
   43.0393    7.6136   11.2631 C   0  0  0  0  0  0  0  0  0  0  0  0
   47.7791    7.6941   12.7447 C   0  0  0  0  0  0  0  0  0  0  0  0
   48.9379    8.3981   13.0737 C   0  0  0  0  0  0  0  0  0  0  0  0
   43.0394   10.6047   11.1314 C   0  0  2  0  0  0  0  0  0  0  0  0
   42.8469   10.6880    9.6072 C   0  0  0  0  0  0  0  0  0  0  0  0
   42.9911    6.2208   11.3005 C   0  0  0  0  0  0  0  0  0  0  0  0
   43.7853    3.5443   12.9992 F   0  0  0  0  0  0  0  0  0  0  0  0
   45.2763    3.4208   11.4215 F   0  0  0  0  0  0  0  0  0  0  0  0
   43.1618    3.4341   10.9186 F   0  0  0  0  0  0  0  0  0  0  0  0
   47.9162   12.1838   12.5771 Cl  0  0  0  0  0  0  0  0  0  0  0  0
   44.0253   11.3515    8.8752 C   0  0  0  0  0  0  0  0  0  0  0  0
   43.7701   11.4613    7.4223 N   0  0  0  0  0  0  0  0  0  0  0  0
   50.3526    7.5421   13.5511 Cl  0  0  0  0  0  0  0  0  0  0  0  0
   43.1254   11.9298   11.6658 O   0  0  0  0  0  0  0  0  0  0  0  0
   42.9308   12.6357    7.1139 C   0  0  0  0  0  0  0  0  0  0  0  0
   45.0314   11.4077    6.6582 C   0  0  0  0  0  0  0  0  0  0  0  0
   42.4978   12.7187    5.6420 C   0  0  0  0  0  0  0  0  0  0  0  0
   45.9973   12.5856    6.8567 C   0  0  0  0  0  0  0  0  0  0  0  0
   41.5794   13.9106    5.3501 C   0  0  0  0  0  0  0  0  0  0  0  0
   47.2844   12.3796    6.0542 C   0  0  0  0  0  0  0  0  0  0  0  0
   40.2122   13.8065    6.0089 C   0  0  0  0  0  0  0  0  0  0  0  0
   48.2488   13.5400    6.2422 C   0  0  0  0  0  0  0  0  0  0  0  0
   45.4327   11.5158   11.8586 H   0  0  0  0  0  0  0  0  0  0  0  0
   46.1339    5.6089   12.3228 H   0  0  0  0  0  0  0  0  0  0  0  0
   49.8597   10.3254   13.2708 H   0  0  0  0  0  0  0  0  0  0  0  0
   42.1257    8.1176   10.9568 H   0  0  0  0  0  0  0  0  0  0  0  0
   47.8350    6.6114   12.8085 H   0  0  0  0  0  0  0  0  0  0  0  0
   42.1391   10.1808   11.5897 H   0  0  0  0  0  0  0  0  0  0  0  0
   42.6858    9.6872    9.1890 H   0  0  0  0  0  0  0  0  0  0  0  0
   41.9315   11.2615    9.4222 H   0  0  0  0  0  0  0  0  0  0  0  0
   42.0682    5.7088   11.0320 H   0  0  0  0  0  0  0  0  0  0  0  0
   44.9060   10.7189    9.0379 H   0  0  0  0  0  0  0  0  0  0  0  0
   44.2571   12.3329    9.3070 H   0  0  0  0  0  0  0  0  0  0  0  0
   42.2686   12.3605   11.5053 H   0  0  0  0  0  0  0  0  0  0  0  0
   42.0212   12.5790    7.7191 H   0  0  0  0  0  0  0  0  0  0  0  0
   43.4336   13.5663    7.4036 H   0  0  0  0  0  0  0  0  0  0  0  0
   45.5498   10.4736    6.9143 H   0  0  0  0  0  0  0  0  0  0  0  0
   44.8048   11.2973    5.5913 H   0  0  0  0  0  0  0  0  0  0  0  0
   41.9972   11.7883    5.3472 H   0  0  0  0  0  0  0  0  0  0  0  0
   43.3779   12.8284    4.9987 H   0  0  0  0  0  0  0  0  0  0  0  0
   45.5270   13.5215    6.5348 H   0  0  0  0  0  0  0  0  0  0  0  0
   46.2508   12.6947    7.9177 H   0  0  0  0  0  0  0  0  0  0  0  0
   41.4349   13.9764    4.2648 H   0  0  0  0  0  0  0  0  0  0  0  0
   42.0661   14.8425    5.6614 H   0  0  0  0  0  0  0  0  0  0  0  0
   47.7749   11.4506    6.3673 H   0  0  0  0  0  0  0  0  0  0  0  0
   47.0463   12.2788    4.9887 H   0  0  0  0  0  0  0  0  0  0  0  0
   39.5702   14.6266    5.6709 H   0  0  0  0  0  0  0  0  0  0  0  0
   40.2834   13.8729    7.0984 H   0  0  0  0  0  0  0  0  0  0  0  0
   39.7211   12.8630    5.7492 H   0  0  0  0  0  0  0  0  0  0  0  0
   49.1577   13.3765    5.6544 H   0  0  0  0  0  0  0  0  0  0  0  0
   47.7979   14.4824    5.9152 H   0  0  0  0  0  0  0  0  0  0  0  0
   48.5378   13.6433    7.2931 H   0  0  0  0  0  0  0  0  0  0  0  0
  2  1  2  0
  3  2  1  0
  4  1  1  0
  5  4  2  0
  6 10  1  0
  7  5  1  0
  8  1  1  0
  9  3  1  0
 10  8  2  0
 11 14  1  0
 12  4  1  0
 13  2  1  0
 14 13  2  0
 15  5  1  0
 16 15  1  0
 17 10  1  0
 18  6  1  0
 19  6  1  0
 20  6  1  0
 21  9  1  0
 22 16  1  0
 23 22  1  0
 24 14  1  0
 25 15  1  0
 26 23  1  0
 27 23  1  0
 28 26  1  0
 29 27  1  0
 30 28  1  0
 31 29  1  0
 32 30  1  0
 33 31  1  0
 17 12  2  0
  7  3  2  0
  9 11  2  0
  7 34  1  0
  8 35  1  0
 11 36  1  0
 12 37  1  0
 13 38  1  0
 15 39  1  6
 16 40  1  0
 16 41  1  0
 17 42  1  0
 22 43  1  0
 22 44  1  0
 25 45  1  0
 26 46  1  0
 26 47  1  0
 27 48  1  0
 27 49  1  0
 28 50  1  0
 28 51  1  0
 29 52  1  0
 29 53  1  0
 30 54  1  0
 30 55  1  0
 31 56  1  0
 31 57  1  0
 32 58  1  0
 32 59  1  0
 32 60  1  0
 33 61  1  0
 33 62  1  0
 33 63  1  0
M  END
> <Uni-Dock RESULT> 
ENERGY=   -5.455  LOWER_BOUND=    4.402  UPPER_BOUND=    8.775
INTER + INTRA:          -5.455
INTER:                  -5.455
INTRA:                   0.000
UNBOUND:                 0.000

$$$$

     RDKit          3D

 63 65  0  0  0  0  0  0  0  0999 V2000
   46.6912    5.7207   13.5587 C   0  0  0  0  0  0  0  0  0  0  0  0
   47.4417    5.4424   14.7618 C   0  0  0  0  0  0  0  0  0  0  0  0
   48.2955    6.4336   15.3076 C   0  0  0  0  0  0  0  0  0  0  0  0
   46.8047    6.9887   12.9192 C   0  0  0  0  0  0  0  0  0  0  0  0
   47.6551    7.9755   13.4776 C   0  0  0  0  0  0  0  0  0  0  0  0
   44.1696    3.9653   11.2154 C   0  0  0  0  0  0  0  0  0  0  0  0
   48.3745    7.6732   14.6487 C   0  0  0  0  0  0  0  0  0  0  0  0
   45.8199    4.7690   12.9588 C   0  0  0  0  0  0  0  0  0  0  0  0
   49.0389    6.1513   16.4882 C   0  0  0  0  0  0  0  0  0  0  0  0
   45.0913    5.0157   11.7832 C   0  0  0  0  0  0  0  0  0  0  0  0
   48.9490    4.9210   17.1343 C   0  0  0  0  0  0  0  0  0  0  0  0
   46.0549    7.2216   11.7393 C   0  0  0  0  0  0  0  0  0  0  0  0
   47.3809    4.2028   15.4535 C   0  0  0  0  0  0  0  0  0  0  0  0
   48.1169    3.9517   16.6120 C   0  0  0  0  0  0  0  0  0  0  0  0
   47.8459    9.3516   12.8435 C   0  0  2  0  0  0  0  0  0  0  0  0
   48.8196    9.3616   11.6523 C   0  0  0  0  0  0  0  0  0  0  0  0
   45.2139    6.2600   11.1811 C   0  0  0  0  0  0  0  0  0  0  0  0
   42.9354    3.9974   11.7886 F   0  0  0  0  0  0  0  0  0  0  0  0
   44.6334    2.6972   11.3964 F   0  0  0  0  0  0  0  0  0  0  0  0
   43.9642    4.0981    9.8753 F   0  0  0  0  0  0  0  0  0  0  0  0
   50.1147    7.3095   17.2081 Cl  0  0  0  0  0  0  0  0  0  0  0  0
   50.2509    8.9416   12.0259 C   0  0  0  0  0  0  0  0  0  0  0  0
   51.1619    9.0222   10.8635 N   0  0  0  0  0  0  0  0  0  0  0  0
   47.9881    2.4235   17.3931 Cl  0  0  0  0  0  0  0  0  0  0  0  0
   48.2845   10.3069   13.8150 O   0  0  0  0  0  0  0  0  0  0  0  0
   51.6346   10.4039   10.6491 C   0  0  0  0  0  0  0  0  0  0  0  0
   52.2461    8.0268   10.9711 C   0  0  0  0  0  0  0  0  0  0  0  0
   52.4580   10.5852    9.3646 C   0  0  0  0  0  0  0  0  0  0  0  0
   53.2466    8.2325   12.1183 C   0  0  0  0  0  0  0  0  0  0  0  0
   52.8918   12.0358    9.1262 C   0  0  0  0  0  0  0  0  0  0  0  0
   54.2820    7.1056   12.1507 C   0  0  0  0  0  0  0  0  0  0  0  0
   51.7375   12.9781    8.8200 C   0  0  0  0  0  0  0  0  0  0  0  0
   55.2790    7.2986   13.2824 C   0  0  0  0  0  0  0  0  0  0  0  0
   49.0250    8.4493   15.0531 H   0  0  0  0  0  0  0  0  0  0  0  0
   45.6876    3.7858   13.4061 H   0  0  0  0  0  0  0  0  0  0  0  0
   49.5240    4.7251   18.0350 H   0  0  0  0  0  0  0  0  0  0  0  0
   46.1089    8.1737   11.2167 H   0  0  0  0  0  0  0  0  0  0  0  0
   46.7486    3.3953   15.0963 H   0  0  0  0  0  0  0  0  0  0  0  0
   46.8671    9.7202   12.5172 H   0  0  0  0  0  0  0  0  0  0  0  0
   48.4521    8.7044   10.8552 H   0  0  0  0  0  0  0  0  0  0  0  0
   48.8313   10.3794   11.2457 H   0  0  0  0  0  0  0  0  0  0  0  0
   44.6598    6.4940   10.2733 H   0  0  0  0  0  0  0  0  0  0  0  0
   50.2037    7.9026   12.3735 H   0  0  0  0  0  0  0  0  0  0  0  0
   50.6320    9.5380   12.8640 H   0  0  0  0  0  0  0  0  0  0  0  0
   48.2265   11.1849   13.4013 H   0  0  0  0  0  0  0  0  0  0  0  0
   50.7624   11.0598   10.5731 H   0  0  0  0  0  0  0  0  0  0  0  0
   52.2117   10.7610   11.5107 H   0  0  0  0  0  0  0  0  0  0  0  0
   51.7914    7.0314   11.0678 H   0  0  0  0  0  0  0  0  0  0  0  0
   52.7876    7.9759   10.0192 H   0  0  0  0  0  0  0  0  0  0  0  0
   51.8855   10.2261    8.5005 H   0  0  0  0  0  0  0  0  0  0  0  0
   53.3718    9.9831    9.4179 H   0  0  0  0  0  0  0  0  0  0  0  0
   53.7693    9.1884   12.0003 H   0  0  0  0  0  0  0  0  0  0  0  0
   52.7212    8.2634   13.0801 H   0  0  0  0  0  0  0  0  0  0  0  0
   53.5853   12.0527    8.2765 H   0  0  0  0  0  0  0  0  0  0  0  0
   53.4474   12.4074    9.9953 H   0  0  0  0  0  0  0  0  0  0  0  0
   53.7788    6.1398   12.2761 H   0  0  0  0  0  0  0  0  0  0  0  0
   54.8225    7.0697   11.1974 H   0  0  0  0  0  0  0  0  0  0  0  0
   52.1227   13.9668    8.5496 H   0  0  0  0  0  0  0  0  0  0  0  0
   51.0814   13.1068    9.6857 H   0  0  0  0  0  0  0  0  0  0  0  0
   51.1386   12.6073    7.9817 H   0  0  0  0  0  0  0  0  0  0  0  0
   56.0139    6.4873   13.2825 H   0  0  0  0  0  0  0  0  0  0  0  0
   55.8181    8.2451   13.1739 H   0  0  0  0  0  0  0  0  0  0  0  0
   54.7740    7.2996   14.2538 H   0  0  0  0  0  0  0  0  0  0  0  0
  2  1  2  0
  3  2  1  0
  4  1  1  0
  5  4  2  0
  6 10  1  0
  7  5  1  0
  8  1  1  0
  9  3  1  0
 10  8  2  0
 11 14  1  0
 12  4  1  0
 13  2  1  0
 14 13  2  0
 15  5  1  0
 16 15  1  0
 17 10  1  0
 18  6  1  0
 19  6  1  0
 20  6  1  0
 21  9  1  0
 22 16  1  0
 23 22  1  0
 24 14  1  0
 25 15  1  0
 26 23  1  0
 27 23  1  0
 28 26  1  0
 29 27  1  0
 30 28  1  0
 31 29  1  0
 32 30  1  0
 33 31  1  0
 17 12  2  0
  7  3  2  0
  9 11  2  0
  7 34  1  0
  8 35  1  0
 11 36  1  0
 12 37  1  0
 13 38  1  0
 15 39  1  6
 16 40  1  0
 16 41  1  0
 17 42  1  0
 22 43  1  0
 22 44  1  0
 25 45  1  0
 26 46  1  0
 26 47  1  0
 27 48  1  0
 27 49  1  0
 28 50  1  0
 28 51  1  0
 29 52  1  0
 29 53  1  0
 30 54  1  0
 30 55  1  0
 31 56  1  0
 31 57  1  0
 32 58  1  0
 32 59  1  0
 32 60  1  0
 33 61  1  0
 33 62  1  0
 33 63  1  0
M  END
> <Uni-Dock RESULT> 
ENERGY=   -5.097  LOWER_BOUND=    4.051  UPPER_BOUND=    6.930
INTER + INTRA:          -5.097
INTER:                  -5.097
INTRA:                   0.000
UNBOUND:                 0.000

$$$$

     RDKit          3D

 63 65  0  0  0  0  0  0  0  0999 V2000
   47.8326    7.4130   13.0443 C   0  0  0  0  0  0  0  0  0  0  0  0
   48.5941    8.6208   12.8215 C   0  0  0  0  0  0  0  0  0  0  0  0
   49.6212    8.9863   13.7276 C   0  0  0  0  0  0  0  0  0  0  0  0
   48.1112    6.5866   14.1709 C   0  0  0  0  0  0  0  0  0  0  0  0
   49.1454    6.9570   15.0663 C   0  0  0  0  0  0  0  0  0  0  0  0
   44.9482    5.4324   11.4047 C   0  0  0  0  0  0  0  0  0  0  0  0
   49.8674    8.1403   14.8233 C   0  0  0  0  0  0  0  0  0  0  0  0
   46.7878    6.9918   12.1751 C   0  0  0  0  0  0  0  0  0  0  0  0
   50.3626   10.1813   13.5080 C   0  0  0  0  0  0  0  0  0  0  0  0
   46.0280    5.8281   12.3808 C   0  0  0  0  0  0  0  0  0  0  0  0
   50.1122   11.0091   12.4166 C   0  0  0  0  0  0  0  0  0  0  0  0
   47.3398    5.4121   14.3564 C   0  0  0  0  0  0  0  0  0  0  0  0
   48.3734    9.4943   11.7228 C   0  0  0  0  0  0  0  0  0  0  0  0
   49.1167   10.6586   11.5271 C   0  0  0  0  0  0  0  0  0  0  0  0
   49.4936    6.1360   16.3060 C   0  0  2  0  0  0  0  0  0  0  0  0
   48.5469    6.3686   17.4963 C   0  0  0  0  0  0  0  0  0  0  0  0
   46.3211    5.0361   13.4821 C   0  0  0  0  0  0  0  0  0  0  0  0
   45.4394    4.7250   10.3506 F   0  0  0  0  0  0  0  0  0  0  0  0
   44.2996    6.5030   10.8670 F   0  0  0  0  0  0  0  0  0  0  0  0
   43.9800    4.6524   11.9613 F   0  0  0  0  0  0  0  0  0  0  0  0
   51.6259   10.7014   14.5806 Cl  0  0  0  0  0  0  0  0  0  0  0  0
   48.5572    7.8162   18.0149 C   0  0  0  0  0  0  0  0  0  0  0  0
   47.6777    7.9776   19.1932 N   0  0  0  0  0  0  0  0  0  0  0  0
   48.7891   11.6650   10.1699 Cl  0  0  0  0  0  0  0  0  0  0  0  0
   50.8402    6.3841   16.7231 O   0  0  0  0  0  0  0  0  0  0  0  0
   48.3547    7.5407   20.4299 C   0  0  0  0  0  0  0  0  0  0  0  0
   47.1293    9.3460   19.2604 C   0  0  0  0  0  0  0  0  0  0  0  0
   47.4429    7.5341   21.6665 C   0  0  0  0  0  0  0  0  0  0  0  0
   48.1417   10.4723   19.5176 C   0  0  0  0  0  0  0  0  0  0  0  0
   48.1441    7.0228   22.9299 C   0  0  0  0  0  0  0  0  0  0  0  0
   47.4536   11.8396   19.5082 C   0  0  0  0  0  0  0  0  0  0  0  0
   48.5048    5.5460   22.8755 C   0  0  0  0  0  0  0  0  0  0  0  0
   48.4459   12.9634   19.7625 C   0  0  0  0  0  0  0  0  0  0  0  0
   50.6538    8.4033   15.5314 H   0  0  0  0  0  0  0  0  0  0  0  0
   46.5344    7.5791   11.2947 H   0  0  0  0  0  0  0  0  0  0  0  0
   50.6897   11.9168   12.2658 H   0  0  0  0  0  0  0  0  0  0  0  0
   47.5161    4.7505   15.2011 H   0  0  0  0  0  0  0  0  0  0  0  0
   47.6043    9.2806   10.9863 H   0  0  0  0  0  0  0  0  0  0  0  0
   49.4811    5.0752   16.0324 H   0  0  0  0  0  0  0  0  0  0  0  0
   47.5204    6.0947   17.2248 H   0  0  0  0  0  0  0  0  0  0  0  0
   48.8556    5.6899   18.2995 H   0  0  0  0  0  0  0  0  0  0  0  0
   45.7612    4.1217   13.6726 H   0  0  0  0  0  0  0  0  0  0  0  0
   48.1895    8.4544   17.2026 H   0  0  0  0  0  0  0  0  0  0  0  0
   49.5781    8.1483   18.2402 H   0  0  0  0  0  0  0  0  0  0  0  0
   51.0581    5.7211   17.4001 H   0  0  0  0  0  0  0  0  0  0  0  0
   48.7147    6.5180   20.2842 H   0  0  0  0  0  0  0  0  0  0  0  0
   49.2430    8.1521   20.6298 H   0  0  0  0  0  0  0  0  0  0  0  0
   46.5981    9.5507   18.3208 H   0  0  0  0  0  0  0  0  0  0  0  0
   46.3404    9.3836   20.0207 H   0  0  0  0  0  0  0  0  0  0  0  0
   46.5513    6.9261   21.4696 H   0  0  0  0  0  0  0  0  0  0  0  0
   47.0976    8.5513   21.8822 H   0  0  0  0  0  0  0  0  0  0  0  0
   48.6305   10.3301   20.4880 H   0  0  0  0  0  0  0  0  0  0  0  0
   48.9257   10.4611   18.7513 H   0  0  0  0  0  0  0  0  0  0  0  0
   47.4749    7.1830   23.7841 H   0  0  0  0  0  0  0  0  0  0  0  0
   49.0477    7.6137   23.1210 H   0  0  0  0  0  0  0  0  0  0  0  0
   46.9641   12.0047   18.5414 H   0  0  0  0  0  0  0  0  0  0  0  0
   46.6729   11.8684   20.2775 H   0  0  0  0  0  0  0  0  0  0  0  0
   48.8964    5.2201   23.8447 H   0  0  0  0  0  0  0  0  0  0  0  0
   49.2760    5.3465   22.1258 H   0  0  0  0  0  0  0  0  0  0  0  0
   47.6267    4.9348   22.6424 H   0  0  0  0  0  0  0  0  0  0  0  0
   47.9327   13.9302   19.7595 H   0  0  0  0  0  0  0  0  0  0  0  0
   48.9363   12.8422   20.7337 H   0  0  0  0  0  0  0  0  0  0  0  0
   49.2188   12.9867   18.9875 H   0  0  0  0  0  0  0  0  0  0  0  0
  2  1  2  0
  3  2  1  0
  4  1  1  0
  5  4  2  0
  6 10  1  0
  7  5  1  0
  8  1  1  0
  9  3  1  0
 10  8  2  0
 11 14  1  0
 12  4  1  0
 13  2  1  0
 14 13  2  0
 15  5  1  0
 16 15  1  0
 17 10  1  0
 18  6  1  0
 19  6  1  0
 20  6  1  0
 21  9  1  0
 22 16  1  0
 23 22  1  0
 24 14  1  0
 25 15  1  0
 26 23  1  0
 27 23  1  0
 28 26  1  0
 29 27  1  0
 30 28  1  0
 31 29  1  0
 32 30  1  0
 33 31  1  0
 17 12  2  0
  7  3  2  0
  9 11  2  0
  7 34  1  0
  8 35  1  0
 11 36  1  0
 12 37  1  0
 13 38  1  0
 15 39  1  6
 16 40  1  0
 16 41  1  0
 17 42  1  0
 22 43  1  0
 22 44  1  0
 25 45  1  0
 26 46  1  0
 26 47  1  0
 27 48  1  0
 27 49  1  0
 28 50  1  0
 28 51  1  0
 29 52  1  0
 29 53  1  0
 30 54  1  0
 30 55  1  0
 31 56  1  0
 31 57  1  0
 32 58  1  0
 32 59  1  0
 32 60  1  0
 33 61  1  0
 33 62  1  0
 33 63  1  0
M  END
> <Uni-Dock RESULT> 
ENERGY=   -4.830  LOWER_BOUND=    2.282  UPPER_BOUND=    2.978
INTER + INTRA:          -4.830
INTER:                  -4.830
INTRA:                   0.000
UNBOUND:                 0.000

$$$$

     RDKit          3D

 63 65  0  0  0  0  0  0  0  0999 V2000
   47.3405   12.4496    7.7875 C   0  0  0  0  0  0  0  0  0  0  0  0
   45.9475   12.1408    7.5584 C   0  0  0  0  0  0  0  0  0  0  0  0
   45.0607   12.0170    8.6573 C   0  0  0  0  0  0  0  0  0  0  0  0
   47.8263   12.6317    9.1144 C   0  0  0  0  0  0  0  0  0  0  0  0
   46.9296   12.5135   10.2056 C   0  0  0  0  0  0  0  0  0  0  0  0
   50.5794   13.0213    5.7593 C   0  0  0  0  0  0  0  0  0  0  0  0
   45.5796   12.2097    9.9499 C   0  0  0  0  0  0  0  0  0  0  0  0
   48.2822   12.5845    6.7294 C   0  0  0  0  0  0  0  0  0  0  0  0
   43.6914   11.7045    8.4264 C   0  0  0  0  0  0  0  0  0  0  0  0
   49.6423   12.8720    6.9319 C   0  0  0  0  0  0  0  0  0  0  0  0
   43.1884   11.5199    7.1411 C   0  0  0  0  0  0  0  0  0  0  0  0
   49.1997   12.9301    9.2977 C   0  0  0  0  0  0  0  0  0  0  0  0
   45.3914   11.9445    6.2657 C   0  0  0  0  0  0  0  0  0  0  0  0
   44.0441   11.6427    6.0651 C   0  0  0  0  0  0  0  0  0  0  0  0
   47.3745   12.6759   11.6574 C   0  0  2  0  0  0  0  0  0  0  0  0
   48.0604   11.4301   12.2444 C   0  0  0  0  0  0  0  0  0  0  0  0
   50.0913   13.0506    8.2328 C   0  0  0  0  0  0  0  0  0  0  0  0
   50.5618   14.2801    5.2417 F   0  0  0  0  0  0  0  0  0  0  0  0
   50.2746   12.1876    4.7259 F   0  0  0  0  0  0  0  0  0  0  0  0
   51.8794   12.7633    6.0739 F   0  0  0  0  0  0  0  0  0  0  0  0
   42.5484   11.5236    9.7217 Cl  0  0  0  0  0  0  0  0  0  0  0  0
   47.1498   10.1918   12.2887 C   0  0  0  0  0  0  0  0  0  0  0  0
   47.8323    9.0373   12.9126 N   0  0  0  0  0  0  0  0  0  0  0  0
   43.4458   11.4202    4.4668 Cl  0  0  0  0  0  0  0  0  0  0  0  0
   46.2715   13.0411   12.4934 O   0  0  0  0  0  0  0  0  0  0  0  0
   47.7790    9.1163   14.3855 C   0  0  0  0  0  0  0  0  0  0  0  0
   47.3293    7.7642   12.3612 C   0  0  0  0  0  0  0  0  0  0  0  0
   48.6047    8.0319   15.0948 C   0  0  0  0  0  0  0  0  0  0  0  0
   45.8655    7.4190   12.6738 C   0  0  0  0  0  0  0  0  0  0  0  0
   48.5865    8.1627   16.6219 C   0  0  0  0  0  0  0  0  0  0  0  0
   45.4563    6.1070   11.9998 C   0  0  0  0  0  0  0  0  0  0  0  0
   49.3013    9.4017   17.1394 C   0  0  0  0  0  0  0  0  0  0  0  0
   44.0086    5.7541   12.3026 C   0  0  0  0  0  0  0  0  0  0  0  0
   44.9136   12.1196   10.8085 H   0  0  0  0  0  0  0  0  0  0  0  0
   47.9679   12.4629    5.6946 H   0  0  0  0  0  0  0  0  0  0  0  0
   42.1397   11.2827    6.9855 H   0  0  0  0  0  0  0  0  0  0  0  0
   49.6159   13.0778   10.2914 H   0  0  0  0  0  0  0  0  0  0  0  0
   46.0082   12.0237    5.3753 H   0  0  0  0  0  0  0  0  0  0  0  0
   48.0586   13.5298   11.7155 H   0  0  0  0  0  0  0  0  0  0  0  0
   48.9635   11.1878   11.6716 H   0  0  0  0  0  0  0  0  0  0  0  0
   48.3856   11.6816   13.2603 H   0  0  0  0  0  0  0  0  0  0  0  0
   51.1364   13.2829    8.4320 H   0  0  0  0  0  0  0  0  0  0  0  0
   46.8937    9.9401   11.2526 H   0  0  0  0  0  0  0  0  0  0  0  0
   46.2062   10.4129   12.8025 H   0  0  0  0  0  0  0  0  0  0  0  0
   46.6374   13.2926   13.3584 H   0  0  0  0  0  0  0  0  0  0  0  0
   48.1798   10.0862   14.6944 H   0  0  0  0  0  0  0  0  0  0  0  0
   46.7431    9.0851   14.7444 H   0  0  0  0  0  0  0  0  0  0  0  0
   47.4672    7.7825   11.2715 H   0  0  0  0  0  0  0  0  0  0  0  0
   47.9767    6.9442   12.6933 H   0  0  0  0  0  0  0  0  0  0  0  0
   49.6410    8.0576   14.7362 H   0  0  0  0  0  0  0  0  0  0  0  0
   48.2053    7.0404   14.8543 H   0  0  0  0  0  0  0  0  0  0  0  0
   45.7208    7.3199   13.7555 H   0  0  0  0  0  0  0  0  0  0  0  0
   45.2034    8.2211   12.3271 H   0  0  0  0  0  0  0  0  0  0  0  0
   49.0757    7.2788   17.0491 H   0  0  0  0  0  0  0  0  0  0  0  0
   47.5520    8.1580   16.9851 H   0  0  0  0  0  0  0  0  0  0  0  0
   45.5867    6.1884   10.9144 H   0  0  0  0  0  0  0  0  0  0  0  0
   46.1047    5.2933   12.3454 H   0  0  0  0  0  0  0  0  0  0  0  0
   49.3504    9.3765   18.2330 H   0  0  0  0  0  0  0  0  0  0  0  0
   48.7763   10.3184   16.8554 H   0  0  0  0  0  0  0  0  0  0  0  0
   50.3254    9.4543   16.7556 H   0  0  0  0  0  0  0  0  0  0  0  0
   43.7394    4.8100   11.8183 H   0  0  0  0  0  0  0  0  0  0  0  0
   43.8489    5.6409   13.3796 H   0  0  0  0  0  0  0  0  0  0  0  0
   43.3305    6.5305   11.9339 H   0  0  0  0  0  0  0  0  0  0  0  0
  2  1  2  0
  3  2  1  0
  4  1  1  0
  5  4  2  0
  6 10  1  0
  7  5  1  0
  8  1  1  0
  9  3  1  0
 10  8  2  0
 11 14  1  0
 12  4  1  0
 13  2  1  0
 14 13  2  0
 15  5  1  0
 16 15  1  0
 17 10  1  0
 18  6  1  0
 19  6  1  0
 20  6  1  0
 21  9  1  0
 22 16  1  0
 23 22  1  0
 24 14  1  0
 25 15  1  0
 26 23  1  0
 27 23  1  0
 28 26  1  0
 29 27  1  0
 30 28  1  0
 31 29  1  0
 32 30  1  0
 33 31  1  0
 17 12  2  0
  7  3  2  0
  9 11  2  0
  7 34  1  0
  8 35  1  0
 11 36  1  0
 12 37  1  0
 13 38  1  0
 15 39  1  6
 16 40  1  0
 16 41  1  0
 17 42  1  0
 22 43  1  0
 22 44  1  0
 25 45  1  0
 26 46  1  0
 26 47  1  0
 27 48  1  0
 27 49  1  0
 28 50  1  0
 28 51  1  0
 29 52  1  0
 29 53  1  0
 30 54  1  0
 30 55  1  0
 31 56  1  0
 31 57  1  0
 32 58  1  0
 32 59  1  0
 32 60  1  0
 33 61  1  0
 33 62  1  0
 33 63  1  0
M  END
> <Uni-Dock RESULT> 
ENERGY=   -4.647  LOWER_BOUND=    5.397  UPPER_BOUND=    7.932
INTER + INTRA:          -4.647
INTER:                  -4.647
INTRA:                   0.000
UNBOUND:                 0.000

$$$$

     RDKit          3D

 63 65  0  0  0  0  0  0  0  0999 V2000
   47.9598    6.7917   19.0799 C   0  0  0  0  0  0  0  0  0  0  0  0
   47.7944    7.4961   20.3308 C   0  0  0  0  0  0  0  0  0  0  0  0
   47.8897    8.9101   20.3640 C   0  0  0  0  0  0  0  0  0  0  0  0
   48.2170    7.5132   17.8787 C   0  0  0  0  0  0  0  0  0  0  0  0
   48.3026    8.9273   17.9215 C   0  0  0  0  0  0  0  0  0  0  0  0
   47.9284    3.1675   17.7403 C   0  0  0  0  0  0  0  0  0  0  0  0
   48.1392    9.5839   19.1554 C   0  0  0  0  0  0  0  0  0  0  0  0
   47.8788    5.3747   18.9791 C   0  0  0  0  0  0  0  0  0  0  0  0
   47.7342    9.5982   21.6002 C   0  0  0  0  0  0  0  0  0  0  0  0
   48.0488    4.6707   17.7753 C   0  0  0  0  0  0  0  0  0  0  0  0
   47.4832    8.9199   22.7902 C   0  0  0  0  0  0  0  0  0  0  0  0
   48.3766    6.7858   16.6728 C   0  0  0  0  0  0  0  0  0  0  0  0
   47.5372    6.8457   21.5676 C   0  0  0  0  0  0  0  0  0  0  0  0
   47.3846    7.5434   22.7662 C   0  0  0  0  0  0  0  0  0  0  0  0
   48.5933    9.7719   16.6828 C   0  0  2  0  0  0  0  0  0  0  0  0
   50.0804    9.8159   16.2909 C   0  0  0  0  0  0  0  0  0  0  0  0
   48.2932    5.3952   16.6172 C   0  0  0  0  0  0  0  0  0  0  0  0
   46.6380    2.7561   17.6049 F   0  0  0  0  0  0  0  0  0  0  0  0
   48.3945    2.5704   18.8727 F   0  0  0  0  0  0  0  0  0  0  0  0
   48.6138    2.5971   16.7104 F   0  0  0  0  0  0  0  0  0  0  0  0
   47.8507   11.3270   21.7224 Cl  0  0  0  0  0  0  0  0  0  0  0  0
   50.9806   10.4440   17.3680 C   0  0  0  0  0  0  0  0  0  0  0  0
   52.3895   10.5173   16.9237 N   0  0  0  0  0  0  0  0  0  0  0  0
   47.0739    6.6826   24.2238 Cl  0  0  0  0  0  0  0  0  0  0  0  0
   48.1133   11.1098   16.8509 O   0  0  0  0  0  0  0  0  0  0  0  0
   52.6181   11.6935   16.0617 C   0  0  0  0  0  0  0  0  0  0  0  0
   53.3117   10.4266   18.0721 C   0  0  0  0  0  0  0  0  0  0  0  0
   54.0216   11.7418   15.4383 C   0  0  0  0  0  0  0  0  0  0  0  0
   53.2766   11.5969   19.0665 C   0  0  0  0  0  0  0  0  0  0  0  0
   54.2238   12.9370   14.5003 C   0  0  0  0  0  0  0  0  0  0  0  0
   54.2358   11.3525   20.2340 C   0  0  0  0  0  0  0  0  0  0  0  0
   53.3874   12.8686   13.2315 C   0  0  0  0  0  0  0  0  0  0  0  0
   54.2104   12.5051   21.2254 C   0  0  0  0  0  0  0  0  0  0  0  0
   48.2153   10.6716   19.1595 H   0  0  0  0  0  0  0  0  0  0  0  0
   47.6779    4.7711   19.8620 H   0  0  0  0  0  0  0  0  0  0  0  0
   47.3667    9.4634   23.7236 H   0  0  0  0  0  0  0  0  0  0  0  0
   48.5740    7.2929   15.7313 H   0  0  0  0  0  0  0  0  0  0  0  0
   47.4503    5.7645   21.6216 H   0  0  0  0  0  0  0  0  0  0  0  0
   48.0080    9.3723   15.8473 H   0  0  0  0  0  0  0  0  0  0  0  0
   50.4447    8.8062   16.0667 H   0  0  0  0  0  0  0  0  0  0  0  0
   50.1593   10.3959   15.3644 H   0  0  0  0  0  0  0  0  0  0  0  0
   48.4225    4.8879   15.6623 H   0  0  0  0  0  0  0  0  0  0  0  0
   50.9174    9.8047   18.2567 H   0  0  0  0  0  0  0  0  0  0  0  0
   50.6116   11.4337   17.6639 H   0  0  0  0  0  0  0  0  0  0  0  0
   48.1715   11.5470   15.9844 H   0  0  0  0  0  0  0  0  0  0  0  0
   51.8966   11.6651   15.2398 H   0  0  0  0  0  0  0  0  0  0  0  0
   52.4242   12.6251   16.6069 H   0  0  0  0  0  0  0  0  0  0  0  0
   53.0996    9.4932   18.6113 H   0  0  0  0  0  0  0  0  0  0  0  0
   54.3357   10.2900   17.7052 H   0  0  0  0  0  0  0  0  0  0  0  0
   54.2208   10.8102   14.8946 H   0  0  0  0  0  0  0  0  0  0  0  0
   54.7784   11.8226   16.2265 H   0  0  0  0  0  0  0  0  0  0  0  0
   53.5603   12.5297   18.5662 H   0  0  0  0  0  0  0  0  0  0  0  0
   52.2619   11.7317   19.4593 H   0  0  0  0  0  0  0  0  0  0  0  0
   55.2819   12.9750   14.2140 H   0  0  0  0  0  0  0  0  0  0  0  0
   54.0065   13.8707   15.0324 H   0  0  0  0  0  0  0  0  0  0  0  0
   53.9637   10.4262   20.7532 H   0  0  0  0  0  0  0  0  0  0  0  0
   55.2572   11.2258   19.8560 H   0  0  0  0  0  0  0  0  0  0  0  0
   53.6611   13.6873   12.5579 H   0  0  0  0  0  0  0  0  0  0  0  0
   52.3191   12.9638   13.4470 H   0  0  0  0  0  0  0  0  0  0  0  0
   53.5526   11.9247   12.7018 H   0  0  0  0  0  0  0  0  0  0  0  0
   54.9081   12.3140   22.0469 H   0  0  0  0  0  0  0  0  0  0  0  0
   54.5019   13.4440   20.7438 H   0  0  0  0  0  0  0  0  0  0  0  0
   53.2103   12.6334   21.6520 H   0  0  0  0  0  0  0  0  0  0  0  0
  2  1  2  0
  3  2  1  0
  4  1  1  0
  5  4  2  0
  6 10  1  0
  7  5  1  0
  8  1  1  0
  9  3  1  0
 10  8  2  0
 11 14  1  0
 12  4  1  0
 13  2  1  0
 14 13  2  0
 15  5  1  0
 16 15  1  0
 17 10  1  0
 18  6  1  0
 19  6  1  0
 20  6  1  0
 21  9  1  0
 22 16  1  0
 23 22  1  0
 24 14  1  0
 25 15  1  0
 26 23  1  0
 27 23  1  0
 28 26  1  0
 29 27  1  0
 30 28  1  0
 31 29  1  0
 32 30  1  0
 33 31  1  0
 17 12  2  0
  7  3  2  0
  9 11  2  0
  7 34  1  0
  8 35  1  0
 11 36  1  0
 12 37  1  0
 13 38  1  0
 15 39  1  6
 16 40  1  0
 16 41  1  0
 17 42  1  0
 22 43  1  0
 22 44  1  0
 25 45  1  0
 26 46  1  0
 26 47  1  0
 27 48  1  0
 27 49  1  0
 28 50  1  0
 28 51  1  0
 29 52  1  0
 29 53  1  0
 30 54  1  0
 30 55  1  0
 31 56  1  0
 31 57  1  0
 32 58  1  0
 32 59  1  0
 32 60  1  0
 33 61  1  0
 33 62  1  0
 33 63  1  0
M  END
> <Uni-Dock RESULT> 
ENERGY=   -4.592  LOWER_BOUND=    5.231  UPPER_BOUND=    7.604
INTER + INTRA:          -4.592
INTER:                  -4.592
INTRA:                   0.000
UNBOUND:                 0.000

$$$$

     RDKit          3D

 63 65  0  0  0  0  0  0  0  0999 V2000
   48.0658    8.5464   18.8515 C   0  0  0  0  0  0  0  0  0  0  0  0
   47.8858    9.9764   18.7469 C   0  0  0  0  0  0  0  0  0  0  0  0
   48.1721   10.6377   17.5262 C   0  0  0  0  0  0  0  0  0  0  0  0
   48.5289    7.7977   17.7313 C   0  0  0  0  0  0  0  0  0  0  0  0
   48.8047    8.4674   16.5131 C   0  0  0  0  0  0  0  0  0  0  0  0
   47.6564    5.7328   21.4680 C   0  0  0  0  0  0  0  0  0  0  0  0
   48.6217    9.8610   16.4438 C   0  0  0  0  0  0  0  0  0  0  0  0
   47.7994    7.8235   20.0477 C   0  0  0  0  0  0  0  0  0  0  0  0
   48.0010   12.0475   17.4312 C   0  0  0  0  0  0  0  0  0  0  0  0
   47.9797    6.4360   20.1733 C   0  0  0  0  0  0  0  0  0  0  0  0
   47.5510   12.8056   18.5092 C   0  0  0  0  0  0  0  0  0  0  0  0
   48.6959    6.3976   17.8750 C   0  0  0  0  0  0  0  0  0  0  0  0
   47.4294   10.7887   19.8197 C   0  0  0  0  0  0  0  0  0  0  0  0
   47.2659   12.1692   19.7003 C   0  0  0  0  0  0  0  0  0  0  0  0
   49.3213    7.7407   15.2733 C   0  0  2  0  0  0  0  0  0  0  0  0
   50.8297    7.4400   15.3077 C   0  0  0  0  0  0  0  0  0  0  0  0
   48.4265    5.7270   19.0672 C   0  0  0  0  0  0  0  0  0  0  0  0
   46.3393    5.4020   21.5608 F   0  0  0  0  0  0  0  0  0  0  0  0
   47.9302    6.4901   22.5669 F   0  0  0  0  0  0  0  0  0  0  0  0
   48.3476    4.5710   21.6359 F   0  0  0  0  0  0  0  0  0  0  0  0
   48.3436   12.9291   15.9743 Cl  0  0  0  0  0  0  0  0  0  0  0  0
   51.7059    8.7022   15.3700 C   0  0  0  0  0  0  0  0  0  0  0  0
   53.1460    8.3660   15.3428 N   0  0  0  0  0  0  0  0  0  0  0  0
   46.7074   13.0843   21.0467 Cl  0  0  0  0  0  0  0  0  0  0  0  0
   49.0174    8.4772   14.0841 O   0  0  0  0  0  0  0  0  0  0  0  0
   53.6127    8.1229   13.9637 C   0  0  0  0  0  0  0  0  0  0  0  0
   53.9381    9.3726   16.0757 C   0  0  0  0  0  0  0  0  0  0  0  0
   55.0604    7.6152   13.8796 C   0  0  0  0  0  0  0  0  0  0  0  0
   53.9744   10.7831   15.4684 C   0  0  0  0  0  0  0  0  0  0  0  0
   55.5106    7.3118   12.4462 C   0  0  0  0  0  0  0  0  0  0  0  0
   54.7800   11.7391   16.3517 C   0  0  0  0  0  0  0  0  0  0  0  0
   54.7922    6.1285   11.8158 C   0  0  0  0  0  0  0  0  0  0  0  0
   54.8237   13.1392   15.7604 C   0  0  0  0  0  0  0  0  0  0  0  0
   48.8466   10.3506   15.4958 H   0  0  0  0  0  0  0  0  0  0  0  0
   47.4372    8.3410   20.9340 H   0  0  0  0  0  0  0  0  0  0  0  0
   47.4260   13.8807   18.4165 H   0  0  0  0  0  0  0  0  0  0  0  0
   49.0465    5.7847   17.0480 H   0  0  0  0  0  0  0  0  0  0  0  0
   47.1893   10.3538   20.7854 H   0  0  0  0  0  0  0  0  0  0  0  0
   48.7652    6.8028   15.1660 H   0  0  0  0  0  0  0  0  0  0  0  0
   51.0699    6.7972   16.1630 H   0  0  0  0  0  0  0  0  0  0  0  0
   51.0723    6.8705   14.4033 H   0  0  0  0  0  0  0  0  0  0  0  0
   48.5712    4.6489   19.1206 H   0  0  0  0  0  0  0  0  0  0  0  0
   51.4741    9.2118   16.3129 H   0  0  0  0  0  0  0  0  0  0  0  0
   51.4517    9.4003   14.5629 H   0  0  0  0  0  0  0  0  0  0  0  0
   49.2143    7.8974   13.3288 H   0  0  0  0  0  0  0  0  0  0  0  0
   52.9723    7.3597   13.5117 H   0  0  0  0  0  0  0  0  0  0  0  0
   53.5004    9.0218   13.3456 H   0  0  0  0  0  0  0  0  0  0  0  0
   53.5507    9.4353   17.1018 H   0  0  0  0  0  0  0  0  0  0  0  0
   54.9626    9.0043   16.2047 H   0  0  0  0  0  0  0  0  0  0  0  0
   55.1778    6.7177   14.4993 H   0  0  0  0  0  0  0  0  0  0  0  0
   55.7459    8.3721   14.2764 H   0  0  0  0  0  0  0  0  0  0  0  0
   54.4287   10.7565   14.4716 H   0  0  0  0  0  0  0  0  0  0  0  0
   52.9565   11.1740   15.3538 H   0  0  0  0  0  0  0  0  0  0  0  0
   56.5855    7.0942   12.4616 H   0  0  0  0  0  0  0  0  0  0  0  0
   55.3767    8.1995   11.8167 H   0  0  0  0  0  0  0  0  0  0  0  0
   54.3362   11.7858   17.3530 H   0  0  0  0  0  0  0  0  0  0  0  0
   55.8042   11.3652   16.4668 H   0  0  0  0  0  0  0  0  0  0  0  0
   55.2367    5.8956   10.8426 H   0  0  0  0  0  0  0  0  0  0  0  0
   53.7322    6.3418   11.6500 H   0  0  0  0  0  0  0  0  0  0  0  0
   54.8730    5.2373   12.4468 H   0  0  0  0  0  0  0  0  0  0  0  0
   55.4103   13.8038   16.4026 H   0  0  0  0  0  0  0  0  0  0  0  0
   55.2848   13.1322   14.7676 H   0  0  0  0  0  0  0  0  0  0  0  0
   53.8161   13.5577   15.6687 H   0  0  0  0  0  0  0  0  0  0  0  0
  2  1  2  0
  3  2  1  0
  4  1  1  0
  5  4  2  0
  6 10  1  0
  7  5  1  0
  8  1  1  0
  9  3  1  0
 10  8  2  0
 11 14  1  0
 12  4  1  0
 13  2  1  0
 14 13  2  0
 15  5  1  0
 16 15  1  0
 17 10  1  0
 18  6  1  0
 19  6  1  0
 20  6  1  0
 21  9  1  0
 22 16  1  0
 23 22  1  0
 24 14  1  0
 25 15  1  0
 26 23  1  0
 27 23  1  0
 28 26  1  0
 29 27  1  0
 30 28  1  0
 31 29  1  0
 32 30  1  0
 33 31  1  0
 17 12  2  0
  7  3  2  0
  9 11  2  0
  7 34  1  0
  8 35  1  0
 11 36  1  0
 12 37  1  0
 13 38  1  0
 15 39  1  6
 16 40  1  0
 16 41  1  0
 17 42  1  0
 22 43  1  0
 22 44  1  0
 25 45  1  0
 26 46  1  0
 26 47  1  0
 27 48  1  0
 27 49  1  0
 28 50  1  0
 28 51  1  0
 29 52  1  0
 29 53  1  0
 30 54  1  0
 30 55  1  0
 31 56  1  0
 31 57  1  0
 32 58  1  0
 32 59  1  0
 32 60  1  0
 33 61  1  0
 33 62  1  0
 33 63  1  0
M  END
> <Uni-Dock RESULT> 
ENERGY=   -4.583  LOWER_BOUND=    5.086  UPPER_BOUND=    7.244
INTER + INTRA:          -4.583
INTER:                  -4.583
INTRA:                   0.000
UNBOUND:                 0.000

$$$$
