
     RDKit          3D

 25 26  0  0  0  0  0  0  0  0999 V2000
   -0.1666   -0.5174    1.4748 C   0  0  0  0  0  0  0  0  0  0  0  0
    0.9738    0.1746    0.7257 C   0  0  0  0  0  0  0  0  0  0  0  0
    2.1751   -0.0350    1.1774 N   0  0  0  0  0  0  0  0  0  0  0  0
   -1.5088   -0.5244    0.8597 C   0  0  0  0  0  0  0  0  0  0  0  0
    3.5596    0.0490   -0.7796 C   0  0  0  0  0  0  0  0  0  0  0  0
    0.5714    1.0481   -0.4120 C   0  0  0  0  0  0  0  0  0  0  0  0
   -0.6860    1.0682   -0.8678 C   0  0  0  0  0  0  0  0  0  0  0  0
    3.2598    0.4771    0.5040 N   0  0  0  0  0  0  0  0  0  0  0  0
   -1.7441    0.2475   -0.2823 C   0  0  0  0  0  0  0  0  0  0  0  0
    0.0261   -1.0421    2.5643 O   0  0  0  0  0  0  0  0  0  0  0  0
    2.8522   -0.6125   -1.5269 O   0  0  0  0  0  0  0  0  0  0  0  0
    4.7894    0.4828   -1.1846 N   0  0  0  0  0  0  0  0  0  0  0  0
   -2.5340   -1.2887    1.4315 C   0  0  0  0  0  0  0  0  0  0  0  0
   -3.0237    0.2402   -0.8520 C   0  0  0  0  0  0  0  0  0  0  0  0
   -3.8028   -1.2897    0.8543 C   0  0  0  0  0  0  0  0  0  0  0  0
   -4.0466   -0.5269   -0.2867 C   0  0  0  0  0  0  0  0  0  0  0  0
    1.3365    1.6568   -0.8751 H   0  0  0  0  0  0  0  0  0  0  0  0
   -0.9413    1.7033   -1.7115 H   0  0  0  0  0  0  0  0  0  0  0  0
    4.0884    0.4674    1.0916 H   0  0  0  0  0  0  0  0  0  0  0  0
    4.9736    0.2831   -2.1605 H   0  0  0  0  0  0  0  0  0  0  0  0
    5.0677    1.4058   -0.8832 H   0  0  0  0  0  0  0  0  0  0  0  0
   -2.3439   -1.8835    2.3231 H   0  0  0  0  0  0  0  0  0  0  0  0
   -3.2398    0.8290   -1.7410 H   0  0  0  0  0  0  0  0  0  0  0  0
   -4.5994   -1.8848    1.2944 H   0  0  0  0  0  0  0  0  0  0  0  0
   -5.0365   -0.5279   -0.7376 H   0  0  0  0  0  0  0  0  0  0  0  0
  2  1  1  0
  3  2  2  0
  4  1  1  0
  5  8  1  0
  6  2  1  0
  7  9  1  0
  8  3  1  0
  9  4  2  0
 10  1  2  0
 11  5  2  0
 12  5  1  0
 13  4  1  0
 14  9  1  0
 15 13  2  0
 16 15  1  0
  6  7  2  0
 14 16  2  0
  6 17  1  0
  7 18  1  0
  8 19  1  0
 12 20  1  0
 12 21  1  0
 13 22  1  0
 14 23  1  0
 15 24  1  0
 16 25  1  0
M  END
$$$$
