
     RDKit          3D

 25 26  0  0  0  0  0  0  0  0999 V2000
   -0.5379   -1.4739    0.0939 C   0  0  0  0  0  0  0  0  0  0  0  0
    0.8498   -0.8739    0.3287 C   0  0  0  0  0  0  0  0  0  0  0  0
    1.8652   -1.6124   -0.0102 N   0  0  0  0  0  0  0  0  0  0  0  0
   -1.7148   -0.5910    0.2173 C   0  0  0  0  0  0  0  0  0  0  0  0
    3.5347   -0.0328   -0.6970 C   0  0  0  0  0  0  0  0  0  0  0  0
    0.8790    0.4740    0.9624 C   0  0  0  0  0  0  0  0  0  0  0  0
   -0.2371    1.1913    1.1325 C   0  0  0  0  0  0  0  0  0  0  0  0
    3.1415   -1.1080    0.0842 N   0  0  0  0  0  0  0  0  0  0  0  0
   -1.5514    0.7041    0.7188 C   0  0  0  0  0  0  0  0  0  0  0  0
   -0.6704   -2.6605   -0.1774 O   0  0  0  0  0  0  0  0  0  0  0  0
    2.8190    0.7068   -1.3581 O   0  0  0  0  0  0  0  0  0  0  0  0
    4.8842    0.1676   -0.6415 N   0  0  0  0  0  0  0  0  0  0  0  0
   -2.9812   -1.0612   -0.1533 C   0  0  0  0  0  0  0  0  0  0  0  0
   -2.6765    1.5297    0.8398 C   0  0  0  0  0  0  0  0  0  0  0  0
   -4.0931   -0.2296   -0.0303 C   0  0  0  0  0  0  0  0  0  0  0  0
   -3.9402    1.0646    0.4646 C   0  0  0  0  0  0  0  0  0  0  0  0
    1.8399    0.8672    1.2663 H   0  0  0  0  0  0  0  0  0  0  0  0
   -0.1776    2.1788    1.5814 H   0  0  0  0  0  0  0  0  0  0  0  0
    3.8296   -1.8543    0.0455 H   0  0  0  0  0  0  0  0  0  0  0  0
    5.3324    0.0004    0.2481 H   0  0  0  0  0  0  0  0  0  0  0  0
    5.1734    1.0195   -1.1071 H   0  0  0  0  0  0  0  0  0  0  0  0
   -3.1007   -2.0721   -0.5387 H   0  0  0  0  0  0  0  0  0  0  0  0
   -2.5836    2.5427    1.2256 H   0  0  0  0  0  0  0  0  0  0  0  0
   -5.0768   -0.5912   -0.3204 H   0  0  0  0  0  0  0  0  0  0  0  0
   -4.8077    1.7139    0.5602 H   0  0  0  0  0  0  0  0  0  0  0  0
  2  1  1  0
  3  2  2  0
  4  1  1  0
  5  8  1  0
  6  2  1  0
  7  9  1  0
  8  3  1  0
  9  4  2  0
 10  1  2  0
 11  5  2  0
 12  5  1  0
 13  4  1  0
 14  9  1  0
 15 13  2  0
 16 15  1  0
  6  7  2  0
 14 16  2  0
  6 17  1  0
  7 18  1  0
  8 19  1  0
 12 20  1  0
 12 21  1  0
 13 22  1  0
 14 23  1  0
 15 24  1  0
 16 25  1  0
M  END
$$$$
