
     RDKit          3D

 25 26  0  0  0  0  0  0  0  0999 V2000
   -0.4924   -1.2604    0.1755 C   0  0  0  0  0  0  0  0  0  0  0  0
    0.7800   -0.4526   -0.0931 C   0  0  0  0  0  0  0  0  0  0  0  0
    1.9119   -1.0249    0.1822 N   0  0  0  0  0  0  0  0  0  0  0  0
   -1.7743   -0.5314    0.2441 C   0  0  0  0  0  0  0  0  0  0  0  0
    4.2681   -0.9007    0.4114 C   0  0  0  0  0  0  0  0  0  0  0  0
    0.5792    0.9128   -0.6559 C   0  0  0  0  0  0  0  0  0  0  0  0
   -0.6323    1.4803   -0.6779 C   0  0  0  0  0  0  0  0  0  0  0  0
    3.0756   -0.3239    0.0260 N   0  0  0  0  0  0  0  0  0  0  0  0
   -1.8236    0.8058   -0.1634 C   0  0  0  0  0  0  0  0  0  0  0  0
   -0.4535   -2.4732    0.3255 O   0  0  0  0  0  0  0  0  0  0  0  0
    4.4539   -2.0254    0.8519 O   0  0  0  0  0  0  0  0  0  0  0  0
    5.3233   -0.0473    0.2379 N   0  0  0  0  0  0  0  0  0  0  0  0
   -2.9254   -1.1850    0.7009 C   0  0  0  0  0  0  0  0  0  0  0  0
   -3.0459    1.4867   -0.1021 C   0  0  0  0  0  0  0  0  0  0  0  0
   -4.1353   -0.4957    0.7611 C   0  0  0  0  0  0  0  0  0  0  0  0
   -4.1947    0.8386    0.3613 C   0  0  0  0  0  0  0  0  0  0  0  0
    1.4369    1.4374   -1.0540 H   0  0  0  0  0  0  0  0  0  0  0  0
   -0.7548    2.4778   -1.0917 H   0  0  0  0  0  0  0  0  0  0  0  0
    3.0444    0.6820    0.1136 H   0  0  0  0  0  0  0  0  0  0  0  0
    5.3308    0.4466   -0.6428 H   0  0  0  0  0  0  0  0  0  0  0  0
    6.1994   -0.5207    0.4303 H   0  0  0  0  0  0  0  0  0  0  0  0
   -2.8793   -2.2279    1.0101 H   0  0  0  0  0  0  0  0  0  0  0  0
   -3.1215    2.5260   -0.4148 H   0  0  0  0  0  0  0  0  0  0  0  0
   -5.0305   -1.0000    1.1176 H   0  0  0  0  0  0  0  0  0  0  0  0
   -5.1400    1.3751    0.4065 H   0  0  0  0  0  0  0  0  0  0  0  0
  2  1  1  0
  3  2  2  0
  4  1  1  0
  5  8  1  0
  6  2  1  0
  7  9  1  0
  8  3  1  0
  9  4  2  0
 10  1  2  0
 11  5  2  0
 12  5  1  0
 13  4  1  0
 14  9  1  0
 15 13  2  0
 16 15  1  0
  6  7  2  0
 14 16  2  0
  6 17  1  0
  7 18  1  0
  8 19  1  0
 12 20  1  0
 12 21  1  0
 13 22  1  0
 14 23  1  0
 15 24  1  0
 16 25  1  0
M  END
$$$$
