
     RDKit          3D

 25 26  0  0  0  0  0  0  0  0999 V2000
   -0.3846   -0.8538    1.1607 C   0  0  0  0  0  0  0  0  0  0  0  0
    0.9081   -0.1720    0.7085 C   0  0  0  0  0  0  0  0  0  0  0  0
    2.0198   -0.6963    1.1350 N   0  0  0  0  0  0  0  0  0  0  0  0
   -1.6561   -0.4383    0.5355 C   0  0  0  0  0  0  0  0  0  0  0  0
    3.5797   -0.3047   -0.6423 C   0  0  0  0  0  0  0  0  0  0  0  0
    0.7449    1.0465   -0.1331 C   0  0  0  0  0  0  0  0  0  0  0  0
   -0.4505    1.4176   -0.6045 C   0  0  0  0  0  0  0  0  0  0  0  0
    3.2203   -0.1941    0.6917 N   0  0  0  0  0  0  0  0  0  0  0  0
   -1.6709    0.6646   -0.3241 C   0  0  0  0  0  0  0  0  0  0  0  0
   -0.3666   -1.7175    2.0288 O   0  0  0  0  0  0  0  0  0  0  0  0
    2.8422   -0.5621   -1.5850 O   0  0  0  0  0  0  0  0  0  0  0  0
    4.8946   -0.0096   -0.8581 N   0  0  0  0  0  0  0  0  0  0  0  0
   -2.8343   -1.1416    0.8179 C   0  0  0  0  0  0  0  0  0  0  0  0
   -2.8847    1.0537   -0.9050 C   0  0  0  0  0  0  0  0  0  0  0  0
   -4.0359   -0.7461    0.2324 C   0  0  0  0  0  0  0  0  0  0  0  0
   -4.0604    0.3497   -0.6288 C   0  0  0  0  0  0  0  0  0  0  0  0
    1.6332    1.6185   -0.3687 H   0  0  0  0  0  0  0  0  0  0  0  0
   -0.5288    2.3026   -1.2298 H   0  0  0  0  0  0  0  0  0  0  0  0
    3.9731   -0.4251    1.3289 H   0  0  0  0  0  0  0  0  0  0  0  0
    5.5709   -0.2900   -0.1641 H   0  0  0  0  0  0  0  0  0  0  0  0
    5.1805   -0.1783   -1.8153 H   0  0  0  0  0  0  0  0  0  0  0  0
   -2.8157   -1.9967    1.4910 H   0  0  0  0  0  0  0  0  0  0  0  0
   -2.9300    1.9068   -1.5788 H   0  0  0  0  0  0  0  0  0  0  0  0
   -4.9511   -1.2923    0.4479 H   0  0  0  0  0  0  0  0  0  0  0  0
   -4.9977    0.6584   -1.0863 H   0  0  0  0  0  0  0  0  0  0  0  0
  2  1  1  0
  3  2  2  0
  4  1  1  0
  5  8  1  0
  6  2  1  0
  7  9  1  0
  8  3  1  0
  9  4  2  0
 10  1  2  0
 11  5  2  0
 12  5  1  0
 13  4  1  0
 14  9  1  0
 15 13  2  0
 16 15  1  0
  6  7  2  0
 14 16  2  0
  6 17  1  0
  7 18  1  0
  8 19  1  0
 12 20  1  0
 12 21  1  0
 13 22  1  0
 14 23  1  0
 15 24  1  0
 16 25  1  0
M  END
$$$$
