
     RDKit          3D

 25 26  0  0  0  0  0  0  0  0999 V2000
   -0.3343    1.3109    0.0143 C   0  0  0  0  0  0  0  0  0  0  0  0
    0.8308    0.3543    0.2814 C   0  0  0  0  0  0  0  0  0  0  0  0
    2.0229    0.7817   -0.0030 N   0  0  0  0  0  0  0  0  0  0  0  0
   -1.6964    0.7447   -0.0436 C   0  0  0  0  0  0  0  0  0  0  0  0
    4.3446    0.3677   -0.2431 C   0  0  0  0  0  0  0  0  0  0  0  0
    0.4669   -0.9730    0.8534 C   0  0  0  0  0  0  0  0  0  0  0  0
   -0.8050   -1.3872    0.8847 C   0  0  0  0  0  0  0  0  0  0  0  0
    3.0924   -0.0561    0.1516 N   0  0  0  0  0  0  0  0  0  0  0  0
   -1.9073   -0.5742    0.3721 C   0  0  0  0  0  0  0  0  0  0  0  0
   -0.1475    2.5090   -0.1433 O   0  0  0  0  0  0  0  0  0  0  0  0
    4.6646    1.4587   -0.6914 O   0  0  0  0  0  0  0  0  0  0  0  0
    5.2879   -0.6080   -0.0698 N   0  0  0  0  0  0  0  0  0  0  0  0
   -2.7610    1.5323   -0.4987 C   0  0  0  0  0  0  0  0  0  0  0  0
   -3.2043   -1.1000    0.3209 C   0  0  0  0  0  0  0  0  0  0  0  0
   -4.0467    0.9965   -0.5488 C   0  0  0  0  0  0  0  0  0  0  0  0
   -4.2674   -0.3182   -0.1407 C   0  0  0  0  0  0  0  0  0  0  0  0
    1.2559   -1.5969    1.2503 H   0  0  0  0  0  0  0  0  0  0  0  0
   -1.0467   -2.3599    1.3052 H   0  0  0  0  0  0  0  0  0  0  0  0
    2.9374   -1.0510    0.0703 H   0  0  0  0  0  0  0  0  0  0  0  0
    5.2397   -1.0943    0.8139 H   0  0  0  0  0  0  0  0  0  0  0  0
    6.2144   -0.2469   -0.2694 H   0  0  0  0  0  0  0  0  0  0  0  0
   -2.5889    2.5599   -0.8144 H   0  0  0  0  0  0  0  0  0  0  0  0
   -3.4052   -2.1205    0.6402 H   0  0  0  0  0  0  0  0  0  0  0  0
   -4.8752    1.6051   -0.9038 H   0  0  0  0  0  0  0  0  0  0  0  0
   -5.2717   -0.7347   -0.1780 H   0  0  0  0  0  0  0  0  0  0  0  0
  2  1  1  0
  3  2  2  0
  4  1  1  0
  5  8  1  0
  6  2  1  0
  7  9  1  0
  8  3  1  0
  9  4  2  0
 10  1  2  0
 11  5  2  0
 12  5  1  0
 13  4  1  0
 14  9  1  0
 15 13  2  0
 16 15  1  0
  6  7  2  0
 14 16  2  0
  6 17  1  0
  7 18  1  0
  8 19  1  0
 12 20  1  0
 12 21  1  0
 13 22  1  0
 14 23  1  0
 15 24  1  0
 16 25  1  0
M  END
$$$$
