
     RDKit          3D

 16 17  0  0  0  0  0  0  0  0999 V2000
   -0.4761   -0.7444    1.1802 C   0  0  0  0  0  0  0  0  0  0  0  0
    0.7367   -0.5700    0.3988 C   0  0  0  0  0  0  0  0  0  0  0  0
    1.8814   -1.0446    0.7944 N   0  0  0  0  0  0  0  0  0  0  0  0
   -1.7275   -0.1866    0.6788 C   0  0  0  0  0  0  0  0  0  0  0  0
    3.8950    0.2568    0.2434 C   0  0  0  0  0  0  0  0  0  0  0  0
    0.6527    0.1558   -0.8552 C   0  0  0  0  0  0  0  0  0  0  0  0
   -0.5013    0.6497   -1.2813 C   0  0  0  0  0  0  0  0  0  0  0  0
    3.0279   -0.8408   -0.0133 N   0  0  0  0  0  0  0  0  0  0  0  0
   -1.7420    0.4951   -0.5241 C   0  0  0  0  0  0  0  0  0  0  0  0
   -0.4104   -1.3650    2.2548 O   0  0  0  0  0  0  0  0  0  0  0  0
    3.5668    1.0052    1.2163 O   0  0  0  0  0  0  0  0  0  0  0  0
    5.0602    0.5320   -0.5149 N   0  0  0  0  0  0  0  0  0  0  0  0
   -2.8611   -0.3555    1.4196 C   0  0  0  0  0  0  0  0  0  0  0  0
   -2.9437    1.0109   -0.9705 C   0  0  0  0  0  0  0  0  0  0  0  0
   -4.0647    0.1565    0.9808 C   0  0  0  0  0  0  0  0  0  0  0  0
   -4.0938    0.8448   -0.2281 C   0  0  0  0  0  0  0  0  0  0  0  0
  2  1  1  0
  3  2  2  0
  4  1  1  0
  5  8  1  0
  6  2  1  0
  7  9  1  0
  8  3  1  0
  9  4  2  0
 10  1  2  0
 11  5  2  0
 12  5  1  0
 13  4  1  0
 14  9  1  0
 15 13  2  0
 16 15  1  0
  6  7  2  0
 14 16  2  0
M  END
