
     RDKit          3D

 25 26  0  0  0  0  0  0  0  0999 V2000
   -0.3266   -1.3101    0.1034 C   0  0  0  0  0  0  0  0  0  0  0  0
    0.8393   -0.3217    0.1901 C   0  0  0  0  0  0  0  0  0  0  0  0
    2.0244   -0.7821   -0.0710 N   0  0  0  0  0  0  0  0  0  0  0  0
   -1.6943   -0.7619    0.0119 C   0  0  0  0  0  0  0  0  0  0  0  0
    4.3333   -0.4002   -0.4481 C   0  0  0  0  0  0  0  0  0  0  0  0
    0.4846    1.0729    0.5780 C   0  0  0  0  0  0  0  0  0  0  0  0
   -0.7887    1.4837    0.5935 C   0  0  0  0  0  0  0  0  0  0  0  0
    3.0920    0.0723   -0.0752 N   0  0  0  0  0  0  0  0  0  0  0  0
   -1.9013    0.6023    0.2412 C   0  0  0  0  0  0  0  0  0  0  0  0
   -0.1360   -2.5178    0.1129 O   0  0  0  0  0  0  0  0  0  0  0  0
    4.6466   -1.5434   -0.7459 O   0  0  0  0  0  0  0  0  0  0  0  0
    5.2744    0.5929   -0.4491 N   0  0  0  0  0  0  0  0  0  0  0  0
   -2.7675   -1.6098   -0.2885 C   0  0  0  0  0  0  0  0  0  0  0  0
   -3.2034    1.1117    0.1600 C   0  0  0  0  0  0  0  0  0  0  0  0
   -4.0583   -1.0904   -0.3704 C   0  0  0  0  0  0  0  0  0  0  0  0
   -4.2753    0.2686   -0.1478 C   0  0  0  0  0  0  0  0  0  0  0  0
    1.2816    1.7497    0.8539 H   0  0  0  0  0  0  0  0  0  0  0  0
   -1.0236    2.5060    0.8782 H   0  0  0  0  0  0  0  0  0  0  0  0
    2.9266    1.0447   -0.2930 H   0  0  0  0  0  0  0  0  0  0  0  0
    5.2522    1.2011    0.3568 H   0  0  0  0  0  0  0  0  0  0  0  0
    6.1964    0.2096   -0.6267 H   0  0  0  0  0  0  0  0  0  0  0  0
   -2.5982   -2.6716   -0.4592 H   0  0  0  0  0  0  0  0  0  0  0  0
   -3.4013    2.1669    0.3363 H   0  0  0  0  0  0  0  0  0  0  0  0
   -4.8936   -1.7461   -0.6057 H   0  0  0  0  0  0  0  0  0  0  0  0
   -5.2835    0.6726   -0.2097 H   0  0  0  0  0  0  0  0  0  0  0  0
  2  1  1  0
  3  2  2  0
  4  1  1  0
  5  8  1  0
  6  2  1  0
  7  9  1  0
  8  3  1  0
  9  4  2  0
 10  1  2  0
 11  5  2  0
 12  5  1  0
 13  4  1  0
 14  9  1  0
 15 13  2  0
 16 15  1  0
  6  7  2  0
 14 16  2  0
  6 17  1  0
  7 18  1  0
  8 19  1  0
 12 20  1  0
 12 21  1  0
 13 22  1  0
 14 23  1  0
 15 24  1  0
 16 25  1  0
M  END
$$$$
