
     RDKit          3D

 25 26  0  0  0  0  0  0  0  0999 V2000
   -0.3664   -1.2818   -0.2171 C   0  0  0  0  0  0  0  0  0  0  0  0
    0.8242   -0.3935    0.1534 C   0  0  0  0  0  0  0  0  0  0  0  0
    2.0023   -0.8073   -0.2006 N   0  0  0  0  0  0  0  0  0  0  0  0
   -1.7152   -0.6826   -0.1823 C   0  0  0  0  0  0  0  0  0  0  0  0
    4.3303   -0.4176   -0.4194 C   0  0  0  0  0  0  0  0  0  0  0  0
    0.4988    0.8572    0.8958 C   0  0  0  0  0  0  0  0  0  0  0  0
   -0.7625    1.2921    0.9983 C   0  0  0  0  0  0  0  0  0  0  0  0
    3.0933   -0.0202    0.0444 N   0  0  0  0  0  0  0  0  0  0  0  0
   -1.8897    0.5763    0.4019 C   0  0  0  0  0  0  0  0  0  0  0  0
   -0.2102   -2.4535   -0.5294 O   0  0  0  0  0  0  0  0  0  0  0  0
    4.6190   -1.4489   -1.0082 O   0  0  0  0  0  0  0  0  0  0  0  0
    5.2987    0.5065   -0.1363 N   0  0  0  0  0  0  0  0  0  0  0  0
   -2.8036   -1.3815   -0.7190 C   0  0  0  0  0  0  0  0  0  0  0  0
   -3.1743    1.1331    0.4373 C   0  0  0  0  0  0  0  0  0  0  0  0
   -4.0766   -0.8153   -0.6813 C   0  0  0  0  0  0  0  0  0  0  0  0
   -4.2610    0.4408   -0.1052 C   0  0  0  0  0  0  0  0  0  0  0  0
    1.3069    1.4073    1.3578 H   0  0  0  0  0  0  0  0  0  0  0  0
   -0.9760    2.2080    1.5433 H   0  0  0  0  0  0  0  0  0  0  0  0
    2.9612    0.9801    0.0933 H   0  0  0  0  0  0  0  0  0  0  0  0
    6.2139    0.1535   -0.3938 H   0  0  0  0  0  0  0  0  0  0  0  0
    5.2723    0.8765    0.8029 H   0  0  0  0  0  0  0  0  0  0  0  0
   -2.6597   -2.3637   -1.1660 H   0  0  0  0  0  0  0  0  0  0  0  0
   -3.3470    2.1084    0.8875 H   0  0  0  0  0  0  0  0  0  0  0  0
   -4.9234   -1.3547   -1.0993 H   0  0  0  0  0  0  0  0  0  0  0  0
   -5.2554    0.8809   -0.0743 H   0  0  0  0  0  0  0  0  0  0  0  0
  2  1  1  0
  3  2  2  0
  4  1  1  0
  5  8  1  0
  6  2  1  0
  7  9  1  0
  8  3  1  0
  9  4  2  0
 10  1  2  0
 11  5  2  0
 12  5  1  0
 13  4  1  0
 14  9  1  0
 15 13  2  0
 16 15  1  0
  6  7  2  0
 14 16  2  0
  6 17  1  0
  7 18  1  0
  8 19  1  0
 12 20  1  0
 12 21  1  0
 13 22  1  0
 14 23  1  0
 15 24  1  0
 16 25  1  0
M  END
$$$$
