
     RDKit          3D

 41 43  0  0  0  0  0  0  0  0999 V2000
   50.2298  -17.3291   -7.5733 C   0  0  0  0  0  0  0  0  0  0  0  0
   48.7612  -17.1926   -7.1917 C   0  0  0  0  0  0  0  0  0  0  0  0
   51.1607  -16.5867   -6.6188 C   0  0  0  0  0  0  0  0  0  0  0  0
   48.7837  -14.6591   -7.3091 C   0  0  0  0  0  0  0  0  0  0  0  0
   50.0506  -14.3391   -7.0058 C   0  0  0  0  0  0  0  0  0  0  0  0
   48.1165  -15.9469   -7.0752 C   0  0  0  0  0  0  0  0  0  0  0  0
   51.0549  -15.2047   -6.3727 C   0  0  0  0  0  0  0  0  0  0  0  0
   49.5843  -18.4613  -12.4713 N   0  0  0  0  0  0  0  0  0  0  0  0
   50.5339  -16.9844   -9.0524 C   0  0  0  0  0  0  0  0  0  0  0  0
   48.0152  -18.3674   -6.9607 C   0  0  0  0  0  0  0  0  0  0  0  0
   52.1824  -17.3155   -5.9748 C   0  0  0  0  0  0  0  0  0  0  0  0
   46.7467  -15.9087   -6.7607 C   0  0  0  0  0  0  0  0  0  0  0  0
   51.9797  -14.5873   -5.5127 C   0  0  0  0  0  0  0  0  0  0  0  0
   50.2595  -17.6168  -11.4826 C   0  0  0  0  0  0  0  0  0  0  0  0
   50.0933  -19.8267  -12.4855 C   0  0  0  0  0  0  0  0  0  0  0  0
   49.8656  -17.9516  -10.0405 C   0  0  0  0  0  0  0  0  0  0  0  0
   46.6602  -18.3117   -6.6366 C   0  0  0  0  0  0  0  0  0  0  0  0
   53.0835  -16.6901   -5.1138 C   0  0  0  0  0  0  0  0  0  0  0  0
   52.9837  -15.3241   -4.8840 C   0  0  0  0  0  0  0  0  0  0  0  0
   46.0243  -17.0811   -6.5390 C   0  0  0  0  0  0  0  0  0  0  0  0
   50.4792  -18.3952   -7.4658 H   0  0  0  0  0  0  0  0  0  0  0  0
   48.1574  -13.8885   -7.7546 H   0  0  0  0  0  0  0  0  0  0  0  0
   50.3834  -13.3256   -7.2213 H   0  0  0  0  0  0  0  0  0  0  0  0
   49.7266  -18.0540  -13.3958 H   0  0  0  0  0  0  0  0  0  0  0  0
   50.2307  -15.9613   -9.2995 H   0  0  0  0  0  0  0  0  0  0  0  0
   51.6203  -17.0264   -9.2101 H   0  0  0  0  0  0  0  0  0  0  0  0
   48.4894  -19.3434   -7.0414 H   0  0  0  0  0  0  0  0  0  0  0  0
   52.2840  -18.3855   -6.1441 H   0  0  0  0  0  0  0  0  0  0  0  0
   46.2299  -14.9552   -6.6737 H   0  0  0  0  0  0  0  0  0  0  0  0
   51.9168  -13.5194   -5.3144 H   0  0  0  0  0  0  0  0  0  0  0  0
   51.3476  -17.6701  -11.6111 H   0  0  0  0  0  0  0  0  0  0  0  0
   49.9731  -16.5781  -11.6872 H   0  0  0  0  0  0  0  0  0  0  0  0
   51.1728  -19.8530  -12.6655 H   0  0  0  0  0  0  0  0  0  0  0  0
   49.6072  -20.3835  -13.2931 H   0  0  0  0  0  0  0  0  0  0  0  0
   49.8693  -20.3546  -11.5543 H   0  0  0  0  0  0  0  0  0  0  0  0
   50.1643  -18.9759   -9.7914 H   0  0  0  0  0  0  0  0  0  0  0  0
   48.7753  -17.8939   -9.9416 H   0  0  0  0  0  0  0  0  0  0  0  0
   46.1033  -19.2290   -6.4655 H   0  0  0  0  0  0  0  0  0  0  0  0
   53.8621  -17.2701   -4.6257 H   0  0  0  0  0  0  0  0  0  0  0  0
   53.6831  -14.8301   -4.2152 H   0  0  0  0  0  0  0  0  0  0  0  0
   44.9680  -17.0303   -6.2898 H   0  0  0  0  0  0  0  0  0  0  0  0
  2  1  1  0
  3  1  1  0
  4  6  1  0
  5  7  1  0
  6  2  2  0
  7  3  2  0
  8 14  1  0
  9  1  1  0
 10  2  1  0
 11  3  1  0
 12  6  1  0
 13  7  1  0
 14 16  1  0
 15  8  1  0
 16  9  1  0
 17 10  2  0
 18 11  2  0
 19 18  1  0
 20 17  1  0
  5  4  2  0
 19 13  2  0
 20 12  2  0
  1 21  1  0
  4 22  1  0
  5 23  1  0
  8 24  1  0
  9 25  1  0
  9 26  1  0
 10 27  1  0
 11 28  1  0
 12 29  1  0
 13 30  1  0
 14 31  1  0
 14 32  1  0
 15 33  1  0
 15 34  1  0
 15 35  1  0
 16 36  1  0
 16 37  1  0
 17 38  1  0
 18 39  1  0
 19 40  1  0
 20 41  1  0
M  END
> <Uni-Dock RESULT> 
ENERGY=   -6.183  LOWER_BOUND=    0.000  UPPER_BOUND=    0.000
INTER + INTRA:          -6.183
INTER:                  -6.183
INTRA:                   0.000
UNBOUND:                 0.000

$$$$

     RDKit          3D

 41 43  0  0  0  0  0  0  0  0999 V2000
   50.6055  -16.9687   -7.5151 C   0  0  0  0  0  0  0  0  0  0  0  0
   51.3851  -17.3306   -6.2572 C   0  0  0  0  0  0  0  0  0  0  0  0
   49.1029  -16.8630   -7.2702 C   0  0  0  0  0  0  0  0  0  0  0  0
   50.1052  -19.4859   -5.8710 C   0  0  0  0  0  0  0  0  0  0  0  0
   48.8998  -19.2387   -6.4053 C   0  0  0  0  0  0  0  0  0  0  0  0
   51.1339  -18.4995   -5.5146 C   0  0  0  0  0  0  0  0  0  0  0  0
   48.3386  -17.9266   -6.7543 C   0  0  0  0  0  0  0  0  0  0  0  0
   54.0096  -18.5312  -10.9297 N   0  0  0  0  0  0  0  0  0  0  0  0
   50.9240  -17.8657   -8.7369 C   0  0  0  0  0  0  0  0  0  0  0  0
   52.4118  -16.4624   -5.8302 C   0  0  0  0  0  0  0  0  0  0  0  0
   48.4529  -15.6543   -7.5960 C   0  0  0  0  0  0  0  0  0  0  0  0
   51.9274  -18.7825   -4.3891 C   0  0  0  0  0  0  0  0  0  0  0  0
   46.9510  -17.7633   -6.5991 C   0  0  0  0  0  0  0  0  0  0  0  0
   52.6176  -18.5688  -10.4744 C   0  0  0  0  0  0  0  0  0  0  0  0
   54.3696  -17.2540  -11.5321 C   0  0  0  0  0  0  0  0  0  0  0  0
   52.3749  -17.7237   -9.2198 C   0  0  0  0  0  0  0  0  0  0  0  0
   53.1812  -16.7512   -4.7038 C   0  0  0  0  0  0  0  0  0  0  0  0
   47.0773  -15.5041   -7.4233 C   0  0  0  0  0  0  0  0  0  0  0  0
   46.3250  -16.5604   -6.9264 C   0  0  0  0  0  0  0  0  0  0  0  0
   52.9407  -17.9139   -3.9837 C   0  0  0  0  0  0  0  0  0  0  0  0
   50.9337  -15.9587   -7.8022 H   0  0  0  0  0  0  0  0  0  0  0  0
   50.3594  -20.5201   -5.6464 H   0  0  0  0  0  0  0  0  0  0  0  0
   48.2409  -20.0861   -6.5846 H   0  0  0  0  0  0  0  0  0  0  0  0
   54.1424  -19.2652  -11.6256 H   0  0  0  0  0  0  0  0  0  0  0  0
   50.7234  -18.9216   -8.5264 H   0  0  0  0  0  0  0  0  0  0  0  0
   50.2566  -17.5881   -9.5642 H   0  0  0  0  0  0  0  0  0  0  0  0
   52.6253  -15.5506   -6.3843 H   0  0  0  0  0  0  0  0  0  0  0  0
   49.0206  -14.8149   -7.9926 H   0  0  0  0  0  0  0  0  0  0  0  0
   51.7526  -19.6850   -3.8072 H   0  0  0  0  0  0  0  0  0  0  0  0
   46.3432  -18.5759   -6.2066 H   0  0  0  0  0  0  0  0  0  0  0  0
   51.9407  -18.2675  -11.2834 H   0  0  0  0  0  0  0  0  0  0  0  0
   52.3765  -19.6128  -10.2403 H   0  0  0  0  0  0  0  0  0  0  0  0
   53.7096  -17.0020  -12.3683 H   0  0  0  0  0  0  0  0  0  0  0  0
   55.3913  -17.3148  -11.9207 H   0  0  0  0  0  0  0  0  0  0  0  0
   54.3541  -16.4403  -10.8016 H   0  0  0  0  0  0  0  0  0  0  0  0
   52.5785  -16.6671   -9.4263 H   0  0  0  0  0  0  0  0  0  0  0  0
   53.0654  -18.0433   -8.4305 H   0  0  0  0  0  0  0  0  0  0  0  0
   53.9692  -16.0702   -4.3937 H   0  0  0  0  0  0  0  0  0  0  0  0
   46.5961  -14.5638   -7.6783 H   0  0  0  0  0  0  0  0  0  0  0  0
   45.2526  -16.4508   -6.7903 H   0  0  0  0  0  0  0  0  0  0  0  0
   53.5383  -18.1468   -3.1068 H   0  0  0  0  0  0  0  0  0  0  0  0
  2  1  1  0
  3  1  1  0
  4  6  1  0
  5  7  1  0
  6  2  2  0
  7  3  2  0
  8 14  1  0
  9  1  1  0
 10  2  1  0
 11  3  1  0
 12  6  1  0
 13  7  1  0
 14 16  1  0
 15  8  1  0
 16  9  1  0
 17 10  2  0
 18 11  2  0
 19 18  1  0
 20 17  1  0
  5  4  2  0
 19 13  2  0
 20 12  2  0
  1 21  1  0
  4 22  1  0
  5 23  1  0
  8 24  1  0
  9 25  1  0
  9 26  1  0
 10 27  1  0
 11 28  1  0
 12 29  1  0
 13 30  1  0
 14 31  1  0
 14 32  1  0
 15 33  1  0
 15 34  1  0
 15 35  1  0
 16 36  1  0
 16 37  1  0
 17 38  1  0
 18 39  1  0
 19 40  1  0
 20 41  1  0
M  END
> <Uni-Dock RESULT> 
ENERGY=   -5.295  LOWER_BOUND=    1.936  UPPER_BOUND=    4.895
INTER + INTRA:          -5.295
INTER:                  -5.295
INTRA:                   0.000
UNBOUND:                 0.000

$$$$

     RDKit          3D

 41 43  0  0  0  0  0  0  0  0999 V2000
   48.0619  -16.9661   -7.9961 C   0  0  0  0  0  0  0  0  0  0  0  0
   49.1611  -16.1127   -7.3761 C   0  0  0  0  0  0  0  0  0  0  0  0
   47.5262  -18.0277   -7.0395 C   0  0  0  0  0  0  0  0  0  0  0  0
   50.6580  -18.0961   -6.8679 C   0  0  0  0  0  0  0  0  0  0  0  0
   49.7946  -19.1072   -6.6894 C   0  0  0  0  0  0  0  0  0  0  0  0
   50.3513  -16.6594   -6.8608 C   0  0  0  0  0  0  0  0  0  0  0  0
   48.3491  -19.0045   -6.4476 C   0  0  0  0  0  0  0  0  0  0  0  0
   49.2186  -16.1776  -12.8673 N   0  0  0  0  0  0  0  0  0  0  0  0
   48.4314  -17.5713   -9.3731 C   0  0  0  0  0  0  0  0  0  0  0  0
   48.9815  -14.7142   -7.3320 C   0  0  0  0  0  0  0  0  0  0  0  0
   46.1445  -18.0404   -6.7561 C   0  0  0  0  0  0  0  0  0  0  0  0
   51.3357  -15.7988   -6.3441 C   0  0  0  0  0  0  0  0  0  0  0  0
   47.7705  -19.9750   -5.6113 C   0  0  0  0  0  0  0  0  0  0  0  0
   48.9289  -17.1542  -11.8144 C   0  0  0  0  0  0  0  0  0  0  0  0
   48.0344  -15.4431  -13.2938 C   0  0  0  0  0  0  0  0  0  0  0  0
   48.6439  -16.5041  -10.4568 C   0  0  0  0  0  0  0  0  0  0  0  0
   49.9623  -13.8754   -6.8041 C   0  0  0  0  0  0  0  0  0  0  0  0
   45.5884  -19.0022   -5.9134 C   0  0  0  0  0  0  0  0  0  0  0  0
   46.4018  -19.9721   -5.3419 C   0  0  0  0  0  0  0  0  0  0  0  0
   51.1420  -14.4178   -6.3119 C   0  0  0  0  0  0  0  0  0  0  0  0
   47.2184  -16.2880   -8.1933 H   0  0  0  0  0  0  0  0  0  0  0  0
   51.7082  -18.3436   -7.0105 H   0  0  0  0  0  0  0  0  0  0  0  0
   50.1915  -20.1205   -6.6962 H   0  0  0  0  0  0  0  0  0  0  0  0
   49.5983  -16.6741  -13.6736 H   0  0  0  0  0  0  0  0  0  0  0  0
   49.3286  -18.1965   -9.3122 H   0  0  0  0  0  0  0  0  0  0  0  0
   47.6190  -18.2356   -9.6980 H   0  0  0  0  0  0  0  0  0  0  0  0
   48.0698  -14.2655   -7.7211 H   0  0  0  0  0  0  0  0  0  0  0  0
   45.4865  -17.2943   -7.1971 H   0  0  0  0  0  0  0  0  0  0  0  0
   52.2650  -16.2029   -5.9482 H   0  0  0  0  0  0  0  0  0  0  0  0
   48.3898  -20.7408   -5.1490 H   0  0  0  0  0  0  0  0  0  0  0  0
   48.1007  -17.8080  -12.1142 H   0  0  0  0  0  0  0  0  0  0  0  0
   49.8110  -17.7978  -11.7114 H   0  0  0  0  0  0  0  0  0  0  0  0
   47.2425  -16.1175  -13.6351 H   0  0  0  0  0  0  0  0  0  0  0  0
   48.2989  -14.7891  -14.1310 H   0  0  0  0  0  0  0  0  0  0  0  0
   47.6448  -14.8014  -12.4986 H   0  0  0  0  0  0  0  0  0  0  0  0
   47.7487  -15.8749  -10.5155 H   0  0  0  0  0  0  0  0  0  0  0  0
   49.4843  -15.8553  -10.1838 H   0  0  0  0  0  0  0  0  0  0  0  0
   49.8049  -12.8004   -6.7823 H   0  0  0  0  0  0  0  0  0  0  0  0
   44.5218  -18.9932   -5.7060 H   0  0  0  0  0  0  0  0  0  0  0  0
   45.9751  -20.7252   -4.6852 H   0  0  0  0  0  0  0  0  0  0  0  0
   51.9118  -13.7700   -5.9018 H   0  0  0  0  0  0  0  0  0  0  0  0
  2  1  1  0
  3  1  1  0
  4  6  1  0
  5  7  1  0
  6  2  2  0
  7  3  2  0
  8 14  1  0
  9  1  1  0
 10  2  1  0
 11  3  1  0
 12  6  1  0
 13  7  1  0
 14 16  1  0
 15  8  1  0
 16  9  1  0
 17 10  2  0
 18 11  2  0
 19 18  1  0
 20 17  1  0
  5  4  2  0
 19 13  2  0
 20 12  2  0
  1 21  1  0
  4 22  1  0
  5 23  1  0
  8 24  1  0
  9 25  1  0
  9 26  1  0
 10 27  1  0
 11 28  1  0
 12 29  1  0
 13 30  1  0
 14 31  1  0
 14 32  1  0
 15 33  1  0
 15 34  1  0
 15 35  1  0
 16 36  1  0
 16 37  1  0
 17 38  1  0
 18 39  1  0
 19 40  1  0
 20 41  1  0
M  END
> <Uni-Dock RESULT> 
ENERGY=   -5.286  LOWER_BOUND=    1.580  UPPER_BOUND=    4.686
INTER + INTRA:          -5.286
INTER:                  -5.286
INTRA:                   0.000
UNBOUND:                 0.000

$$$$

     RDKit          3D

 41 43  0  0  0  0  0  0  0  0999 V2000
   50.1295  -16.7481   -8.4464 C   0  0  0  0  0  0  0  0  0  0  0  0
   48.7778  -16.7764   -7.7441 C   0  0  0  0  0  0  0  0  0  0  0  0
   50.1093  -17.4574   -9.7975 C   0  0  0  0  0  0  0  0  0  0  0  0
   48.6360  -19.3087   -7.7373 C   0  0  0  0  0  0  0  0  0  0  0  0
   49.3385  -19.6682   -8.8221 C   0  0  0  0  0  0  0  0  0  0  0  0
   48.1077  -17.9731   -7.4283 C   0  0  0  0  0  0  0  0  0  0  0  0
   49.7375  -18.8072   -9.9437 C   0  0  0  0  0  0  0  0  0  0  0  0
   53.0320  -15.9884   -4.3615 N   0  0  0  0  0  0  0  0  0  0  0  0
   51.3101  -17.2280   -7.5662 C   0  0  0  0  0  0  0  0  0  0  0  0
   48.1827  -15.5494   -7.3829 C   0  0  0  0  0  0  0  0  0  0  0  0
   50.5010  -16.7325  -10.9424 C   0  0  0  0  0  0  0  0  0  0  0  0
   46.8831  -17.9142   -6.7404 C   0  0  0  0  0  0  0  0  0  0  0  0
   49.7876  -19.3994  -11.2176 C   0  0  0  0  0  0  0  0  0  0  0  0
   52.7908  -16.7831   -5.5684 C   0  0  0  0  0  0  0  0  0  0  0  0
   53.5448  -14.6570   -4.6585 C   0  0  0  0  0  0  0  0  0  0  0  0
   51.5676  -16.3114   -6.3612 C   0  0  0  0  0  0  0  0  0  0  0  0
   46.9609  -15.5079   -6.7123 C   0  0  0  0  0  0  0  0  0  0  0  0
   50.5323  -17.3313  -12.2013 C   0  0  0  0  0  0  0  0  0  0  0  0
   50.1774  -18.6669  -12.3390 C   0  0  0  0  0  0  0  0  0  0  0  0
   46.3114  -16.6916   -6.3882 C   0  0  0  0  0  0  0  0  0  0  0  0
   50.3414  -15.6912   -8.6664 H   0  0  0  0  0  0  0  0  0  0  0  0
   48.3995  -20.0795   -7.0063 H   0  0  0  0  0  0  0  0  0  0  0  0
   49.6334  -20.7119   -8.9126 H   0  0  0  0  0  0  0  0  0  0  0  0
   53.7169  -16.4767   -3.7841 H   0  0  0  0  0  0  0  0  0  0  0  0
   51.1559  -18.2507   -7.2057 H   0  0  0  0  0  0  0  0  0  0  0  0
   52.2212  -17.2555   -8.1793 H   0  0  0  0  0  0  0  0  0  0  0  0
   48.6779  -14.6092   -7.6172 H   0  0  0  0  0  0  0  0  0  0  0  0
   50.7893  -15.6866  -10.8581 H   0  0  0  0  0  0  0  0  0  0  0  0
   46.3544  -18.8292   -6.4814 H   0  0  0  0  0  0  0  0  0  0  0  0
   49.5088  -20.4428  -11.3492 H   0  0  0  0  0  0  0  0  0  0  0  0
   53.6846  -16.7971   -6.2041 H   0  0  0  0  0  0  0  0  0  0  0  0
   52.6190  -17.8188   -5.2510 H   0  0  0  0  0  0  0  0  0  0  0  0
   54.4644  -14.7017   -5.2509 H   0  0  0  0  0  0  0  0  0  0  0  0
   53.7779  -14.1436   -3.7200 H   0  0  0  0  0  0  0  0  0  0  0  0
   52.8066  -14.0437   -5.1827 H   0  0  0  0  0  0  0  0  0  0  0  0
   51.7174  -15.2871   -6.7201 H   0  0  0  0  0  0  0  0  0  0  0  0
   50.6914  -16.3040   -5.7022 H   0  0  0  0  0  0  0  0  0  0  0  0
   46.5213  -14.5519   -6.4408 H   0  0  0  0  0  0  0  0  0  0  0  0
   50.8349  -16.7547  -13.0711 H   0  0  0  0  0  0  0  0  0  0  0  0
   50.2005  -19.1403  -13.3167 H   0  0  0  0  0  0  0  0  0  0  0  0
   45.3605  -16.6668   -5.8631 H   0  0  0  0  0  0  0  0  0  0  0  0
  2  1  1  0
  3  1  1  0
  4  6  1  0
  5  7  1  0
  6  2  2  0
  7  3  2  0
  8 14  1  0
  9  1  1  0
 10  2  1  0
 11  3  1  0
 12  6  1  0
 13  7  1  0
 14 16  1  0
 15  8  1  0
 16  9  1  0
 17 10  2  0
 18 11  2  0
 19 18  1  0
 20 17  1  0
  5  4  2  0
 19 13  2  0
 20 12  2  0
  1 21  1  0
  4 22  1  0
  5 23  1  0
  8 24  1  0
  9 25  1  0
  9 26  1  0
 10 27  1  0
 11 28  1  0
 12 29  1  0
 13 30  1  0
 14 31  1  0
 14 32  1  0
 15 33  1  0
 15 34  1  0
 15 35  1  0
 16 36  1  0
 16 37  1  0
 17 38  1  0
 18 39  1  0
 19 40  1  0
 20 41  1  0
M  END
> <Uni-Dock RESULT> 
ENERGY=   -4.596  LOWER_BOUND=    2.268  UPPER_BOUND=    5.420
INTER + INTRA:          -4.596
INTER:                  -4.596
INTRA:                   0.000
UNBOUND:                 0.000

$$$$

     RDKit          3D

 41 43  0  0  0  0  0  0  0  0999 V2000
   47.0716  -15.7708  -10.7981 C   0  0  0  0  0  0  0  0  0  0  0  0
   46.8276  -16.1626   -9.3462 C   0  0  0  0  0  0  0  0  0  0  0  0
   45.7899  -15.3819  -11.5295 C   0  0  0  0  0  0  0  0  0  0  0  0
   45.2040  -18.0197   -9.9356 C   0  0  0  0  0  0  0  0  0  0  0  0
   44.6554  -17.6071  -11.0882 C   0  0  0  0  0  0  0  0  0  0  0  0
   45.9587  -17.2052   -8.9737 C   0  0  0  0  0  0  0  0  0  0  0  0
   44.6871  -16.2487  -11.6471 C   0  0  0  0  0  0  0  0  0  0  0  0
   51.4836  -18.1792  -11.4475 N   0  0  0  0  0  0  0  0  0  0  0  0
   47.8976  -16.8051  -11.6023 C   0  0  0  0  0  0  0  0  0  0  0  0
   47.5151  -15.4581   -8.3357 C   0  0  0  0  0  0  0  0  0  0  0  0
   45.7198  -14.1074  -12.1300 C   0  0  0  0  0  0  0  0  0  0  0  0
   45.8215  -17.5327   -7.6134 C   0  0  0  0  0  0  0  0  0  0  0  0
   43.5595  -15.8309  -12.3752 C   0  0  0  0  0  0  0  0  0  0  0  0
   50.1304  -17.9336  -11.9523 C   0  0  0  0  0  0  0  0  0  0  0  0
   52.3701  -17.0383  -11.6376 C   0  0  0  0  0  0  0  0  0  0  0  0
   49.3326  -16.9610  -11.0779 C   0  0  0  0  0  0  0  0  0  0  0  0
   47.3579  -15.7869   -6.9899 C   0  0  0  0  0  0  0  0  0  0  0  0
   44.5882  -13.7032  -12.8375 C   0  0  0  0  0  0  0  0  0  0  0  0
   43.5076  -14.5665  -12.9623 C   0  0  0  0  0  0  0  0  0  0  0  0
   46.5122  -16.8271   -6.6281 C   0  0  0  0  0  0  0  0  0  0  0  0
   47.6897  -14.8610  -10.7730 H   0  0  0  0  0  0  0  0  0  0  0  0
   45.0659  -19.0611   -9.6510 H   0  0  0  0  0  0  0  0  0  0  0  0
   44.1013  -18.3363  -11.6760 H   0  0  0  0  0  0  0  0  0  0  0  0
   51.8748  -18.9787  -11.9462 H   0  0  0  0  0  0  0  0  0  0  0  0
   47.4157  -17.7886  -11.6108 H   0  0  0  0  0  0  0  0  0  0  0  0
   47.9470  -16.4812  -12.6509 H   0  0  0  0  0  0  0  0  0  0  0  0
   48.1909  -14.6458   -8.5956 H   0  0  0  0  0  0  0  0  0  0  0  0
   46.5565  -13.4162  -12.0508 H   0  0  0  0  0  0  0  0  0  0  0  0
   45.1600  -18.3405   -7.3073 H   0  0  0  0  0  0  0  0  0  0  0  0
   42.6997  -16.4891  -12.4811 H   0  0  0  0  0  0  0  0  0  0  0  0
   50.1658  -17.5834  -12.9913 H   0  0  0  0  0  0  0  0  0  0  0  0
   49.6053  -18.8963  -11.9668 H   0  0  0  0  0  0  0  0  0  0  0  0
   52.4259  -16.7417  -12.6899 H   0  0  0  0  0  0  0  0  0  0  0  0
   53.3802  -17.3097  -11.3141 H   0  0  0  0  0  0  0  0  0  0  0  0
   52.0625  -16.1787  -11.0356 H   0  0  0  0  0  0  0  0  0  0  0  0
   49.8144  -15.9770  -11.0644 H   0  0  0  0  0  0  0  0  0  0  0  0
   49.3162  -17.3331  -10.0468 H   0  0  0  0  0  0  0  0  0  0  0  0
   47.8992  -15.2332   -6.2275 H   0  0  0  0  0  0  0  0  0  0  0  0
   44.5533  -12.7162  -13.2908 H   0  0  0  0  0  0  0  0  0  0  0  0
   42.6231  -14.2586  -13.5131 H   0  0  0  0  0  0  0  0  0  0  0  0
   46.3872  -17.0908   -5.5816 H   0  0  0  0  0  0  0  0  0  0  0  0
  2  1  1  0
  3  1  1  0
  4  6  1  0
  5  7  1  0
  6  2  2  0
  7  3  2  0
  8 14  1  0
  9  1  1  0
 10  2  1  0
 11  3  1  0
 12  6  1  0
 13  7  1  0
 14 16  1  0
 15  8  1  0
 16  9  1  0
 17 10  2  0
 18 11  2  0
 19 18  1  0
 20 17  1  0
  5  4  2  0
 19 13  2  0
 20 12  2  0
  1 21  1  0
  4 22  1  0
  5 23  1  0
  8 24  1  0
  9 25  1  0
  9 26  1  0
 10 27  1  0
 11 28  1  0
 12 29  1  0
 13 30  1  0
 14 31  1  0
 14 32  1  0
 15 33  1  0
 15 34  1  0
 15 35  1  0
 16 36  1  0
 16 37  1  0
 17 38  1  0
 18 39  1  0
 19 40  1  0
 20 41  1  0
M  END
> <Uni-Dock RESULT> 
ENERGY=   -4.537  LOWER_BOUND=    3.922  UPPER_BOUND=    6.387
INTER + INTRA:          -4.537
INTER:                  -4.537
INTRA:                   0.000
UNBOUND:                 0.000

$$$$

     RDKit          3D

 41 43  0  0  0  0  0  0  0  0999 V2000
   47.6689  -17.3201   -7.9875 C   0  0  0  0  0  0  0  0  0  0  0  0
   48.1323  -18.2113   -9.1330 C   0  0  0  0  0  0  0  0  0  0  0  0
   48.7602  -16.3737   -7.4952 C   0  0  0  0  0  0  0  0  0  0  0  0
   50.0477  -19.2173   -7.8094 C   0  0  0  0  0  0  0  0  0  0  0  0
   50.3797  -18.2466   -6.9451 C   0  0  0  0  0  0  0  0  0  0  0  0
   49.2355  -19.0787   -9.0257 C   0  0  0  0  0  0  0  0  0  0  0  0
   50.0051  -16.8280   -7.0205 C   0  0  0  0  0  0  0  0  0  0  0  0
   43.8280  -20.2000   -6.3619 N   0  0  0  0  0  0  0  0  0  0  0  0
   47.0067  -18.0878   -6.8166 C   0  0  0  0  0  0  0  0  0  0  0  0
   47.4136  -18.1738  -10.3463 C   0  0  0  0  0  0  0  0  0  0  0  0
   48.4982  -14.9877   -7.4974 C   0  0  0  0  0  0  0  0  0  0  0  0
   49.5723  -19.9003  -10.1157 C   0  0  0  0  0  0  0  0  0  0  0  0
   50.9407  -15.8937   -6.5432 C   0  0  0  0  0  0  0  0  0  0  0  0
   45.0416  -19.4570   -6.0132 C   0  0  0  0  0  0  0  0  0  0  0  0
   42.7049  -19.3262   -6.6760 C   0  0  0  0  0  0  0  0  0  0  0  0
   45.6965  -18.7793   -7.2211 C   0  0  0  0  0  0  0  0  0  0  0  0
   47.7688  -18.9858  -11.4227 C   0  0  0  0  0  0  0  0  0  0  0  0
   49.4426  -14.0730   -7.0329 C   0  0  0  0  0  0  0  0  0  0  0  0
   50.6645  -14.5264   -6.5532 C   0  0  0  0  0  0  0  0  0  0  0  0
   48.8478  -19.8521  -11.3066 C   0  0  0  0  0  0  0  0  0  0  0  0
   46.8770  -16.6761   -8.3979 H   0  0  0  0  0  0  0  0  0  0  0  0
   50.4314  -20.2183   -7.6217 H   0  0  0  0  0  0  0  0  0  0  0  0
   51.0157  -18.5129   -6.1030 H   0  0  0  0  0  0  0  0  0  0  0  0
   43.5687  -20.7866   -5.5685 H   0  0  0  0  0  0  0  0  0  0  0  0
   47.6835  -18.8355   -6.3894 H   0  0  0  0  0  0  0  0  0  0  0  0
   46.7866  -17.3786   -6.0071 H   0  0  0  0  0  0  0  0  0  0  0  0
   46.5582  -17.5104  -10.4573 H   0  0  0  0  0  0  0  0  0  0  0  0
   47.5456  -14.6094   -7.8628 H   0  0  0  0  0  0  0  0  0  0  0  0
   50.4173  -20.5823  -10.0484 H   0  0  0  0  0  0  0  0  0  0  0  0
   51.9062  -16.2265   -6.1678 H   0  0  0  0  0  0  0  0  0  0  0  0
   44.8305  -18.7253   -5.2237 H   0  0  0  0  0  0  0  0  0  0  0  0
   45.7555  -20.1738   -5.5896 H   0  0  0  0  0  0  0  0  0  0  0  0
   42.4840  -18.6408   -5.8514 H   0  0  0  0  0  0  0  0  0  0  0  0
   41.8125  -19.9360   -6.8504 H   0  0  0  0  0  0  0  0  0  0  0  0
   42.8803  -18.7493   -7.5883 H   0  0  0  0  0  0  0  0  0  0  0  0
   45.0201  -18.0332   -7.6531 H   0  0  0  0  0  0  0  0  0  0  0  0
   45.8930  -19.5314   -7.9942 H   0  0  0  0  0  0  0  0  0  0  0  0
   47.1998  -18.9434  -12.3475 H   0  0  0  0  0  0  0  0  0  0  0  0
   49.2221  -13.0091   -7.0452 H   0  0  0  0  0  0  0  0  0  0  0  0
   51.4047  -13.8193   -6.1887 H   0  0  0  0  0  0  0  0  0  0  0  0
   49.1284  -20.4899  -12.1402 H   0  0  0  0  0  0  0  0  0  0  0  0
  2  1  1  0
  3  1  1  0
  4  6  1  0
  5  7  1  0
  6  2  2  0
  7  3  2  0
  8 14  1  0
  9  1  1  0
 10  2  1  0
 11  3  1  0
 12  6  1  0
 13  7  1  0
 14 16  1  0
 15  8  1  0
 16  9  1  0
 17 10  2  0
 18 11  2  0
 19 18  1  0
 20 17  1  0
  5  4  2  0
 19 13  2  0
 20 12  2  0
  1 21  1  0
  4 22  1  0
  5 23  1  0
  8 24  1  0
  9 25  1  0
  9 26  1  0
 10 27  1  0
 11 28  1  0
 12 29  1  0
 13 30  1  0
 14 31  1  0
 14 32  1  0
 15 33  1  0
 15 34  1  0
 15 35  1  0
 16 36  1  0
 16 37  1  0
 17 38  1  0
 18 39  1  0
 19 40  1  0
 20 41  1  0
M  END
> <Uni-Dock RESULT> 
ENERGY=   -4.267  LOWER_BOUND=    2.572  UPPER_BOUND=    5.053
INTER + INTRA:          -4.267
INTER:                  -4.267
INTRA:                   0.000
UNBOUND:                 0.000

$$$$

     RDKit          3D

 41 43  0  0  0  0  0  0  0  0999 V2000
   46.0815  -16.3118  -10.3878 C   0  0  0  0  0  0  0  0  0  0  0  0
   46.2174  -15.4127  -11.6102 C   0  0  0  0  0  0  0  0  0  0  0  0
   47.1507  -16.0419   -9.3328 C   0  0  0  0  0  0  0  0  0  0  0  0
   48.5848  -16.1662  -12.1203 C   0  0  0  0  0  0  0  0  0  0  0  0
   49.0779  -16.4977  -10.9176 C   0  0  0  0  0  0  0  0  0  0  0  0
   47.3855  -15.3630  -12.3938 C   0  0  0  0  0  0  0  0  0  0  0  0
   48.5289  -16.1327   -9.6047 C   0  0  0  0  0  0  0  0  0  0  0  0
   43.4467  -20.0591  -12.5566 N   0  0  0  0  0  0  0  0  0  0  0  0
   45.9747  -17.8206  -10.7207 C   0  0  0  0  0  0  0  0  0  0  0  0
   45.1183  -14.6086  -11.9781 C   0  0  0  0  0  0  0  0  0  0  0  0
   46.7361  -15.7089   -8.0264 C   0  0  0  0  0  0  0  0  0  0  0  0
   47.4150  -14.5383  -13.5320 C   0  0  0  0  0  0  0  0  0  0  0  0
   49.4499  -15.9114   -8.5659 C   0  0  0  0  0  0  0  0  0  0  0  0
   44.6038  -19.6808  -11.7415 C   0  0  0  0  0  0  0  0  0  0  0  0
   42.1864  -19.9335  -11.8359 C   0  0  0  0  0  0  0  0  0  0  0  0
   44.7019  -18.1702  -11.5057 C   0  0  0  0  0  0  0  0  0  0  0  0
   45.1685  -13.7859  -13.1028 C   0  0  0  0  0  0  0  0  0  0  0  0
   47.6632  -15.4792   -7.0104 C   0  0  0  0  0  0  0  0  0  0  0  0
   49.0216  -15.5828   -7.2797 C   0  0  0  0  0  0  0  0  0  0  0  0
   46.3171  -13.7525  -13.8823 C   0  0  0  0  0  0  0  0  0  0  0  0
   45.1228  -16.0493   -9.9162 H   0  0  0  0  0  0  0  0  0  0  0  0
   49.1304  -16.4968  -13.0022 H   0  0  0  0  0  0  0  0  0  0  0  0
   49.9975  -17.0790  -10.8890 H   0  0  0  0  0  0  0  0  0  0  0  0
   43.5582  -21.0313  -12.8451 H   0  0  0  0  0  0  0  0  0  0  0  0
   46.8453  -18.1728  -11.2843 H   0  0  0  0  0  0  0  0  0  0  0  0
   45.9684  -18.3913   -9.7820 H   0  0  0  0  0  0  0  0  0  0  0  0
   44.2040  -14.6257  -11.3884 H   0  0  0  0  0  0  0  0  0  0  0  0
   45.6769  -15.6281   -7.7902 H   0  0  0  0  0  0  0  0  0  0  0  0
   48.3066  -14.4926  -14.1537 H   0  0  0  0  0  0  0  0  0  0  0  0
   50.5189  -15.9821   -8.7559 H   0  0  0  0  0  0  0  0  0  0  0  0
   44.5961  -20.2236  -10.7883 H   0  0  0  0  0  0  0  0  0  0  0  0
   45.5037  -20.0065  -12.2772 H   0  0  0  0  0  0  0  0  0  0  0  0
   42.1877  -20.5249  -10.9147 H   0  0  0  0  0  0  0  0  0  0  0  0
   41.3722  -20.3029  -12.4678 H   0  0  0  0  0  0  0  0  0  0  0  0
   41.9563  -18.8916  -11.5961 H   0  0  0  0  0  0  0  0  0  0  0  0
   43.8302  -17.8142  -10.9453 H   0  0  0  0  0  0  0  0  0  0  0  0
   44.7044  -17.6535  -12.4726 H   0  0  0  0  0  0  0  0  0  0  0  0
   44.3093  -13.1765  -13.3701 H   0  0  0  0  0  0  0  0  0  0  0  0
   47.3230  -15.2216   -6.0111 H   0  0  0  0  0  0  0  0  0  0  0  0
   49.7496  -15.4062   -6.4926 H   0  0  0  0  0  0  0  0  0  0  0  0
   46.3621  -13.1161  -14.7617 H   0  0  0  0  0  0  0  0  0  0  0  0
  2  1  1  0
  3  1  1  0
  4  6  1  0
  5  7  1  0
  6  2  2  0
  7  3  2  0
  8 14  1  0
  9  1  1  0
 10  2  1  0
 11  3  1  0
 12  6  1  0
 13  7  1  0
 14 16  1  0
 15  8  1  0
 16  9  1  0
 17 10  2  0
 18 11  2  0
 19 18  1  0
 20 17  1  0
  5  4  2  0
 19 13  2  0
 20 12  2  0
  1 21  1  0
  4 22  1  0
  5 23  1  0
  8 24  1  0
  9 25  1  0
  9 26  1  0
 10 27  1  0
 11 28  1  0
 12 29  1  0
 13 30  1  0
 14 31  1  0
 14 32  1  0
 15 33  1  0
 15 34  1  0
 15 35  1  0
 16 36  1  0
 16 37  1  0
 17 38  1  0
 18 39  1  0
 19 40  1  0
 20 41  1  0
M  END
> <Uni-Dock RESULT> 
ENERGY=   -4.114  LOWER_BOUND=    4.305  UPPER_BOUND=    5.917
INTER + INTRA:          -4.114
INTER:                  -4.114
INTRA:                   0.000
UNBOUND:                 0.000

$$$$

     RDKit          3D

 41 43  0  0  0  0  0  0  0  0999 V2000
   50.0468  -17.7923   -7.0295 C   0  0  0  0  0  0  0  0  0  0  0  0
   50.4827  -17.7120   -8.4871 C   0  0  0  0  0  0  0  0  0  0  0  0
   48.5568  -18.0823   -6.8725 C   0  0  0  0  0  0  0  0  0  0  0  0
   48.8590  -15.8478   -9.0538 C   0  0  0  0  0  0  0  0  0  0  0  0
   47.8417  -16.0438   -8.2016 C   0  0  0  0  0  0  0  0  0  0  0  0
   49.9172  -16.8052   -9.4030 C   0  0  0  0  0  0  0  0  0  0  0  0
   47.5582  -17.2590   -7.4262 C   0  0  0  0  0  0  0  0  0  0  0  0
   53.8429  -15.1099   -5.0088 N   0  0  0  0  0  0  0  0  0  0  0  0
   50.4876  -16.5818   -6.1697 C   0  0  0  0  0  0  0  0  0  0  0  0
   51.5073  -18.5745   -8.9304 C   0  0  0  0  0  0  0  0  0  0  0  0
   48.1679  -19.2115   -6.1220 C   0  0  0  0  0  0  0  0  0  0  0  0
   50.4057  -16.7646  -10.7207 C   0  0  0  0  0  0  0  0  0  0  0  0
   46.2065  -17.5712   -7.1987 C   0  0  0  0  0  0  0  0  0  0  0  0
   52.3948  -15.3084   -5.1103 C   0  0  0  0  0  0  0  0  0  0  0  0
   54.4990  -16.1489   -4.2254 C   0  0  0  0  0  0  0  0  0  0  0  0
   52.0131  -16.4714   -6.0316 C   0  0  0  0  0  0  0  0  0  0  0  0
   51.9714  -18.5306  -10.2445 C   0  0  0  0  0  0  0  0  0  0  0  0
   46.8223  -19.5147   -5.9170 C   0  0  0  0  0  0  0  0  0  0  0  0
   45.8403  -18.6925   -6.4540 C   0  0  0  0  0  0  0  0  0  0  0  0
   51.4220  -17.6229  -11.1402 C   0  0  0  0  0  0  0  0  0  0  0  0
   50.5677  -18.6603   -6.5986 H   0  0  0  0  0  0  0  0  0  0  0  0
   48.9111  -14.8922   -9.5721 H   0  0  0  0  0  0  0  0  0  0  0  0
   47.1230  -15.2364   -8.0752 H   0  0  0  0  0  0  0  0  0  0  0  0
   54.0154  -14.2099   -4.5603 H   0  0  0  0  0  0  0  0  0  0  0  0
   50.1000  -15.6390   -6.5702 H   0  0  0  0  0  0  0  0  0  0  0  0
   50.0570  -16.6854   -5.1644 H   0  0  0  0  0  0  0  0  0  0  0  0
   51.9600  -19.2871   -8.2439 H   0  0  0  0  0  0  0  0  0  0  0  0
   48.9195  -19.8669   -5.6864 H   0  0  0  0  0  0  0  0  0  0  0  0
   49.9858  -16.0651  -11.4404 H   0  0  0  0  0  0  0  0  0  0  0  0
   45.4208  -16.9437   -7.6144 H   0  0  0  0  0  0  0  0  0  0  0  0
   51.9545  -15.4404   -4.1143 H   0  0  0  0  0  0  0  0  0  0  0  0
   51.9647  -14.3866   -5.5204 H   0  0  0  0  0  0  0  0  0  0  0  0
   54.0738  -16.2248   -3.2194 H   0  0  0  0  0  0  0  0  0  0  0  0
   55.5609  -15.9038   -4.1206 H   0  0  0  0  0  0  0  0  0  0  0  0
   54.4438  -17.1248   -4.7157 H   0  0  0  0  0  0  0  0  0  0  0  0
   52.4029  -17.4157   -5.6354 H   0  0  0  0  0  0  0  0  0  0  0  0
   52.4681  -16.3156   -7.0168 H   0  0  0  0  0  0  0  0  0  0  0  0
   52.7637  -19.2020  -10.5645 H   0  0  0  0  0  0  0  0  0  0  0  0
   46.5438  -20.3907   -5.3377 H   0  0  0  0  0  0  0  0  0  0  0  0
   44.7899  -18.9220   -6.2974 H   0  0  0  0  0  0  0  0  0  0  0  0
   51.7809  -17.5812  -12.1648 H   0  0  0  0  0  0  0  0  0  0  0  0
  2  1  1  0
  3  1  1  0
  4  6  1  0
  5  7  1  0
  6  2  2  0
  7  3  2  0
  8 14  1  0
  9  1  1  0
 10  2  1  0
 11  3  1  0
 12  6  1  0
 13  7  1  0
 14 16  1  0
 15  8  1  0
 16  9  1  0
 17 10  2  0
 18 11  2  0
 19 18  1  0
 20 17  1  0
  5  4  2  0
 19 13  2  0
 20 12  2  0
  1 21  1  0
  4 22  1  0
  5 23  1  0
  8 24  1  0
  9 25  1  0
  9 26  1  0
 10 27  1  0
 11 28  1  0
 12 29  1  0
 13 30  1  0
 14 31  1  0
 14 32  1  0
 15 33  1  0
 15 34  1  0
 15 35  1  0
 16 36  1  0
 16 37  1  0
 17 38  1  0
 18 39  1  0
 19 40  1  0
 20 41  1  0
M  END
> <Uni-Dock RESULT> 
ENERGY=   -4.064  LOWER_BOUND=    2.462  UPPER_BOUND=    5.650
INTER + INTRA:          -4.064
INTER:                  -4.064
INTRA:                   0.000
UNBOUND:                 0.000

$$$$

     RDKit          3D

 41 43  0  0  0  0  0  0  0  0999 V2000
   47.1472  -15.6715  -10.6033 C   0  0  0  0  0  0  0  0  0  0  0  0
   47.7742  -16.7562  -11.4702 C   0  0  0  0  0  0  0  0  0  0  0  0
   46.8575  -16.1440   -9.1815 C   0  0  0  0  0  0  0  0  0  0  0  0
   45.8512  -18.3770  -11.1419 C   0  0  0  0  0  0  0  0  0  0  0  0
   45.3676  -18.0542   -9.9330 C   0  0  0  0  0  0  0  0  0  0  0  0
   47.1553  -17.9987  -11.7028 C   0  0  0  0  0  0  0  0  0  0  0  0
   46.0331  -17.2497   -8.8994 C   0  0  0  0  0  0  0  0  0  0  0  0
   45.2786  -12.7845  -14.3265 N   0  0  0  0  0  0  0  0  0  0  0  0
   45.9131  -14.9865  -11.2410 C   0  0  0  0  0  0  0  0  0  0  0  0
   49.0210  -16.4948  -12.0760 C   0  0  0  0  0  0  0  0  0  0  0  0
   47.4239  -15.4269   -8.1070 C   0  0  0  0  0  0  0  0  0  0  0  0
   47.7803  -18.9298  -12.5506 C   0  0  0  0  0  0  0  0  0  0  0  0
   45.7803  -17.5942   -7.5602 C   0  0  0  0  0  0  0  0  0  0  0  0
   45.0218  -13.4818  -13.0639 C   0  0  0  0  0  0  0  0  0  0  0  0
   46.0917  -11.5878  -14.1523 C   0  0  0  0  0  0  0  0  0  0  0  0
   46.2573  -14.2037  -12.5166 C   0  0  0  0  0  0  0  0  0  0  0  0
   49.6340  -17.4345  -12.9039 C   0  0  0  0  0  0  0  0  0  0  0  0
   47.1740  -15.7901   -6.7841 C   0  0  0  0  0  0  0  0  0  0  0  0
   46.3495  -16.8736   -6.5101 C   0  0  0  0  0  0  0  0  0  0  0  0
   49.0119  -18.6525  -13.1438 C   0  0  0  0  0  0  0  0  0  0  0  0
   47.9029  -14.8779  -10.5068 H   0  0  0  0  0  0  0  0  0  0  0  0
   45.2379  -19.0072  -11.7832 H   0  0  0  0  0  0  0  0  0  0  0  0
   44.3879  -18.4409   -9.6587 H   0  0  0  0  0  0  0  0  0  0  0  0
   44.3837  -12.5105  -14.7326 H   0  0  0  0  0  0  0  0  0  0  0  0
   45.1239  -15.7099  -11.4725 H   0  0  0  0  0  0  0  0  0  0  0  0
   45.4805  -14.2866  -10.5131 H   0  0  0  0  0  0  0  0  0  0  0  0
   49.5228  -15.5434  -11.9109 H   0  0  0  0  0  0  0  0  0  0  0  0
   48.0682  -14.5708   -8.2970 H   0  0  0  0  0  0  0  0  0  0  0  0
   47.3132  -19.8925  -12.7478 H   0  0  0  0  0  0  0  0  0  0  0  0
   45.1417  -18.4424   -7.3228 H   0  0  0  0  0  0  0  0  0  0  0  0
   44.6142  -12.7883  -12.3181 H   0  0  0  0  0  0  0  0  0  0  0  0
   44.2408  -14.2282  -13.2536 H   0  0  0  0  0  0  0  0  0  0  0  0
   45.6366  -10.8908  -13.4412 H   0  0  0  0  0  0  0  0  0  0  0  0
   46.1823  -11.0713  -15.1133 H   0  0  0  0  0  0  0  0  0  0  0  0
   47.1062  -11.8290  -13.8230 H   0  0  0  0  0  0  0  0  0  0  0  0
   47.0500  -13.4828  -12.2875 H   0  0  0  0  0  0  0  0  0  0  0  0
   46.6449  -14.8863  -13.2819 H   0  0  0  0  0  0  0  0  0  0  0  0
   50.5934  -17.2117  -13.3631 H   0  0  0  0  0  0  0  0  0  0  0  0
   47.6220  -15.2259   -5.9707 H   0  0  0  0  0  0  0  0  0  0  0  0
   46.1495  -17.1615   -5.4816 H   0  0  0  0  0  0  0  0  0  0  0  0
   49.4823  -19.3882  -13.7903 H   0  0  0  0  0  0  0  0  0  0  0  0
  2  1  1  0
  3  1  1  0
  4  6  1  0
  5  7  1  0
  6  2  2  0
  7  3  2  0
  8 14  1  0
  9  1  1  0
 10  2  1  0
 11  3  1  0
 12  6  1  0
 13  7  1  0
 14 16  1  0
 15  8  1  0
 16  9  1  0
 17 10  2  0
 18 11  2  0
 19 18  1  0
 20 17  1  0
  5  4  2  0
 19 13  2  0
 20 12  2  0
  1 21  1  0
  4 22  1  0
  5 23  1  0
  8 24  1  0
  9 25  1  0
  9 26  1  0
 10 27  1  0
 11 28  1  0
 12 29  1  0
 13 30  1  0
 14 31  1  0
 14 32  1  0
 15 33  1  0
 15 34  1  0
 15 35  1  0
 16 36  1  0
 16 37  1  0
 17 38  1  0
 18 39  1  0
 19 40  1  0
 20 41  1  0
M  END
> <Uni-Dock RESULT> 
ENERGY=   -3.963  LOWER_BOUND=    3.886  UPPER_BOUND=    6.362
INTER + INTRA:          -3.963
INTER:                  -3.963
INTRA:                   0.000
UNBOUND:                 0.000

$$$$
