
     RDKit          3D

 41 43  0  0  0  0  0  0  0  0999 V2000
   50.2316  -17.5731   -7.4249 C   0  0  0  0  0  0  0  0  0  0  0  0
   48.7496  -17.4503   -7.0757 C   0  0  0  0  0  0  0  0  0  0  0  0
   51.1218  -16.7075   -6.5420 C   0  0  0  0  0  0  0  0  0  0  0  0
   48.6882  -14.9401   -7.4362 C   0  0  0  0  0  0  0  0  0  0  0  0
   49.9400  -14.5485   -7.1560 C   0  0  0  0  0  0  0  0  0  0  0  0
   48.0622  -16.2219   -7.0859 C   0  0  0  0  0  0  0  0  0  0  0  0
   50.9657  -15.3129   -6.4339 C   0  0  0  0  0  0  0  0  0  0  0  0
   53.5547  -19.5827   -9.7833 N   0  0  0  0  0  0  0  0  0  0  0  0
   50.4757  -17.3886   -8.9445 C   0  0  0  0  0  0  0  0  0  0  0  0
   48.0375  -18.6243   -6.7510 C   0  0  0  0  0  0  0  0  0  0  0  0
   52.1577  -17.3318   -5.8156 C   0  0  0  0  0  0  0  0  0  0  0  0
   46.6869  -16.2018   -6.7942 C   0  0  0  0  0  0  0  0  0  0  0  0
   51.8575  -14.5812   -5.6299 C   0  0  0  0  0  0  0  0  0  0  0  0
   52.1997  -19.2446   -9.3384 C   0  0  0  0  0  0  0  0  0  0  0  0
   53.7245  -19.4524  -11.2252 C   0  0  0  0  0  0  0  0  0  0  0  0
   51.8896  -17.7466   -9.4319 C   0  0  0  0  0  0  0  0  0  0  0  0
   46.6762  -18.5848   -6.4509 C   0  0  0  0  0  0  0  0  0  0  0  0
   53.0262  -16.5931   -5.0129 C   0  0  0  0  0  0  0  0  0  0  0  0
   52.8775  -15.2157   -4.9214 C   0  0  0  0  0  0  0  0  0  0  0  0
   45.9994  -17.3726   -6.4746 C   0  0  0  0  0  0  0  0  0  0  0  0
   50.4945  -18.6145   -7.1985 H   0  0  0  0  0  0  0  0  0  0  0  0
   48.0421  -14.2374   -7.9590 H   0  0  0  0  0  0  0  0  0  0  0  0
   50.2414  -13.5499   -7.4668 H   0  0  0  0  0  0  0  0  0  0  0  0
   53.7505  -20.5495   -9.5232 H   0  0  0  0  0  0  0  0  0  0  0  0
   50.2794  -16.3539   -9.2464 H   0  0  0  0  0  0  0  0  0  0  0  0
   49.7538  -18.0002   -9.5027 H   0  0  0  0  0  0  0  0  0  0  0  0
   48.5443  -19.5869   -6.7314 H   0  0  0  0  0  0  0  0  0  0  0  0
   52.3023  -18.4083   -5.8793 H   0  0  0  0  0  0  0  0  0  0  0  0
   46.1381  -15.2622   -6.8024 H   0  0  0  0  0  0  0  0  0  0  0  0
   51.7561  -13.5016   -5.5401 H   0  0  0  0  0  0  0  0  0  0  0  0
   51.4570  -19.8278   -9.8961 H   0  0  0  0  0  0  0  0  0  0  0  0
   52.1252  -19.5635   -8.2941 H   0  0  0  0  0  0  0  0  0  0  0  0
   53.6541  -18.4111  -11.5516 H   0  0  0  0  0  0  0  0  0  0  0  0
   54.7228  -19.8061  -11.5027 H   0  0  0  0  0  0  0  0  0  0  0  0
   52.9934  -20.0548  -11.7739 H   0  0  0  0  0  0  0  0  0  0  0  0
   52.6397  -17.1686   -8.8800 H   0  0  0  0  0  0  0  0  0  0  0  0
   51.9588  -17.4240  -10.4775 H   0  0  0  0  0  0  0  0  0  0  0  0
   46.1469  -19.5004   -6.2010 H   0  0  0  0  0  0  0  0  0  0  0  0
   53.8198  -17.0944   -4.4653 H   0  0  0  0  0  0  0  0  0  0  0  0
   53.5524  -14.6335   -4.3002 H   0  0  0  0  0  0  0  0  0  0  0  0
   44.9386  -17.3343   -6.2431 H   0  0  0  0  0  0  0  0  0  0  0  0
  2  1  1  0
  3  1  1  0
  4  6  1  0
  5  7  1  0
  6  2  2  0
  7  3  2  0
  8 14  1  0
  9  1  1  0
 10  2  1  0
 11  3  1  0
 12  6  1  0
 13  7  1  0
 14 16  1  0
 15  8  1  0
 16  9  1  0
 17 10  2  0
 18 11  2  0
 19 18  1  0
 20 17  1  0
  5  4  2  0
 19 13  2  0
 20 12  2  0
  1 21  1  0
  4 22  1  0
  5 23  1  0
  8 24  1  0
  9 25  1  0
  9 26  1  0
 10 27  1  0
 11 28  1  0
 12 29  1  0
 13 30  1  0
 14 31  1  0
 14 32  1  0
 15 33  1  0
 15 34  1  0
 15 35  1  0
 16 36  1  0
 16 37  1  0
 17 38  1  0
 18 39  1  0
 19 40  1  0
 20 41  1  0
M  END
> <Uni-Dock RESULT> 
ENERGY=   -6.100  LOWER_BOUND=    0.000  UPPER_BOUND=    0.000
INTER + INTRA:          -6.100
INTER:                  -6.100
INTRA:                   0.000
UNBOUND:                 0.000

$$$$

     RDKit          3D

 41 43  0  0  0  0  0  0  0  0999 V2000
   49.4326  -18.0391   -7.4616 C   0  0  0  0  0  0  0  0  0  0  0  0
   48.1639  -18.5316   -6.7679 C   0  0  0  0  0  0  0  0  0  0  0  0
   49.7578  -16.5860   -7.1394 C   0  0  0  0  0  0  0  0  0  0  0  0
   46.6921  -16.7367   -7.7911 C   0  0  0  0  0  0  0  0  0  0  0  0
   47.5334  -15.7108   -7.9883 C   0  0  0  0  0  0  0  0  0  0  0  0
   46.9121  -17.9100   -6.9351 C   0  0  0  0  0  0  0  0  0  0  0  0
   48.8629  -15.5292   -7.3909 C   0  0  0  0  0  0  0  0  0  0  0  0
   53.1179  -18.9007   -9.9756 N   0  0  0  0  0  0  0  0  0  0  0  0
   49.4149  -18.3628   -8.9775 C   0  0  0  0  0  0  0  0  0  0  0  0
   48.2507  -19.6725   -5.9423 C   0  0  0  0  0  0  0  0  0  0  0  0
   51.0185  -16.2881   -6.5804 C   0  0  0  0  0  0  0  0  0  0  0  0
   45.7843  -18.4529   -6.2946 C   0  0  0  0  0  0  0  0  0  0  0  0
   49.2577  -14.2105   -7.1037 C   0  0  0  0  0  0  0  0  0  0  0  0
   51.8424  -19.1257   -9.2896 C   0  0  0  0  0  0  0  0  0  0  0  0
   53.0748  -19.2730  -11.3842 C   0  0  0  0  0  0  0  0  0  0  0  0
   50.7469  -18.1410   -9.7131 C   0  0  0  0  0  0  0  0  0  0  0  0
   47.1245  -20.1902   -5.3033 C   0  0  0  0  0  0  0  0  0  0  0  0
   51.3899  -14.9759   -6.2900 C   0  0  0  0  0  0  0  0  0  0  0  0
   50.5095  -13.9352   -6.5538 C   0  0  0  0  0  0  0  0  0  0  0  0
   45.8894  -19.5812   -5.4813 C   0  0  0  0  0  0  0  0  0  0  0  0
   50.2458  -18.6382   -7.0319 H   0  0  0  0  0  0  0  0  0  0  0  0
   45.7266  -16.7043   -8.2924 H   0  0  0  0  0  0  0  0  0  0  0  0
   47.2048  -14.9024   -8.6387 H   0  0  0  0  0  0  0  0  0  0  0  0
   53.8368  -19.4610   -9.5174 H   0  0  0  0  0  0  0  0  0  0  0  0
   48.6548  -17.7657   -9.4931 H   0  0  0  0  0  0  0  0  0  0  0  0
   49.1132  -19.4096   -9.1193 H   0  0  0  0  0  0  0  0  0  0  0  0
   49.2062  -20.1707   -5.7918 H   0  0  0  0  0  0  0  0  0  0  0  0
   51.7307  -17.0844   -6.3747 H   0  0  0  0  0  0  0  0  0  0  0  0
   44.8077  -17.9888   -6.4164 H   0  0  0  0  0  0  0  0  0  0  0  0
   48.5816  -13.3805   -7.2981 H   0  0  0  0  0  0  0  0  0  0  0  0
   51.5078  -20.1602   -9.4333 H   0  0  0  0  0  0  0  0  0  0  0  0
   52.0384  -19.0080   -8.2192 H   0  0  0  0  0  0  0  0  0  0  0  0
   52.4133  -18.6187  -11.9588 H   0  0  0  0  0  0  0  0  0  0  0  0
   54.0765  -19.1696  -11.8139 H   0  0  0  0  0  0  0  0  0  0  0  0
   52.7611  -20.3133  -11.5174 H   0  0  0  0  0  0  0  0  0  0  0  0
   51.0902  -17.1092   -9.5753 H   0  0  0  0  0  0  0  0  0  0  0  0
   50.5444  -18.2589  -10.7842 H   0  0  0  0  0  0  0  0  0  0  0  0
   47.2135  -21.0685   -4.6696 H   0  0  0  0  0  0  0  0  0  0  0  0
   52.3678  -14.7690   -5.8634 H   0  0  0  0  0  0  0  0  0  0  0  0
   50.7934  -12.9101   -6.3330 H   0  0  0  0  0  0  0  0  0  0  0  0
   45.0073  -19.9797   -4.9876 H   0  0  0  0  0  0  0  0  0  0  0  0
  2  1  1  0
  3  1  1  0
  4  6  1  0
  5  7  1  0
  6  2  2  0
  7  3  2  0
  8 14  1  0
  9  1  1  0
 10  2  1  0
 11  3  1  0
 12  6  1  0
 13  7  1  0
 14 16  1  0
 15  8  1  0
 16  9  1  0
 17 10  2  0
 18 11  2  0
 19 18  1  0
 20 17  1  0
  5  4  2  0
 19 13  2  0
 20 12  2  0
  1 21  1  0
  4 22  1  0
  5 23  1  0
  8 24  1  0
  9 25  1  0
  9 26  1  0
 10 27  1  0
 11 28  1  0
 12 29  1  0
 13 30  1  0
 14 31  1  0
 14 32  1  0
 15 33  1  0
 15 34  1  0
 15 35  1  0
 16 36  1  0
 16 37  1  0
 17 38  1  0
 18 39  1  0
 19 40  1  0
 20 41  1  0
M  END
> <Uni-Dock RESULT> 
ENERGY=   -5.186  LOWER_BOUND=    1.149  UPPER_BOUND=    2.014
INTER + INTRA:          -5.186
INTER:                  -5.186
INTRA:                   0.000
UNBOUND:                 0.000

$$$$

     RDKit          3D

 41 43  0  0  0  0  0  0  0  0999 V2000
   49.3674  -16.7203   -7.6641 C   0  0  0  0  0  0  0  0  0  0  0  0
   50.5302  -16.3649   -6.7395 C   0  0  0  0  0  0  0  0  0  0  0  0
   48.3489  -17.6432   -7.0067 C   0  0  0  0  0  0  0  0  0  0  0  0
   51.1998  -18.7815   -6.3569 C   0  0  0  0  0  0  0  0  0  0  0  0
   50.0492  -19.4560   -6.4992 C   0  0  0  0  0  0  0  0  0  0  0  0
   51.3587  -17.3364   -6.1470 C   0  0  0  0  0  0  0  0  0  0  0  0
   48.6894  -18.9011   -6.4751 C   0  0  0  0  0  0  0  0  0  0  0  0
   47.1526  -16.1353  -11.5878 N   0  0  0  0  0  0  0  0  0  0  0  0
   49.8685  -17.2125   -9.0459 C   0  0  0  0  0  0  0  0  0  0  0  0
   50.7956  -15.0019   -6.4891 C   0  0  0  0  0  0  0  0  0  0  0  0
   47.0034  -17.2231   -6.9451 C   0  0  0  0  0  0  0  0  0  0  0  0
   52.4354  -16.9231   -5.3427 C   0  0  0  0  0  0  0  0  0  0  0  0
   47.6805  -19.7107   -5.9236 C   0  0  0  0  0  0  0  0  0  0  0  0
   48.2002  -16.0033  -10.5714 C   0  0  0  0  0  0  0  0  0  0  0  0
   47.6740  -16.5425  -12.8867 C   0  0  0  0  0  0  0  0  0  0  0  0
   48.7847  -17.3490  -10.1283 C   0  0  0  0  0  0  0  0  0  0  0  0
   51.8597  -14.6094   -5.6778 C   0  0  0  0  0  0  0  0  0  0  0  0
   46.0169  -18.0330   -6.3837 C   0  0  0  0  0  0  0  0  0  0  0  0
   46.3552  -19.2794   -5.8742 C   0  0  0  0  0  0  0  0  0  0  0  0
   52.6820  -15.5709   -5.1055 C   0  0  0  0  0  0  0  0  0  0  0  0
   48.8473  -15.7715   -7.8490 H   0  0  0  0  0  0  0  0  0  0  0  0
   52.1269  -19.3514   -6.3724 H   0  0  0  0  0  0  0  0  0  0  0  0
   50.1054  -20.5359   -6.6226 H   0  0  0  0  0  0  0  0  0  0  0  0
   46.6896  -15.2328  -11.6966 H   0  0  0  0  0  0  0  0  0  0  0  0
   50.3629  -18.1859   -8.9555 H   0  0  0  0  0  0  0  0  0  0  0  0
   50.6400  -16.5236   -9.4161 H   0  0  0  0  0  0  0  0  0  0  0  0
   50.1690  -14.2297   -6.9307 H   0  0  0  0  0  0  0  0  0  0  0  0
   46.7106  -16.2556   -7.3476 H   0  0  0  0  0  0  0  0  0  0  0  0
   53.0895  -17.6598   -4.8806 H   0  0  0  0  0  0  0  0  0  0  0  0
   47.9244  -20.6890   -5.5143 H   0  0  0  0  0  0  0  0  0  0  0  0
   48.9949  -15.3354  -10.9253 H   0  0  0  0  0  0  0  0  0  0  0  0
   47.7394  -15.5094   -9.7102 H   0  0  0  0  0  0  0  0  0  0  0  0
   48.0705  -17.5615  -12.8656 H   0  0  0  0  0  0  0  0  0  0  0  0
   46.8606  -16.5326  -13.6195 H   0  0  0  0  0  0  0  0  0  0  0  0
   48.4510  -15.8583  -13.2424 H   0  0  0  0  0  0  0  0  0  0  0  0
   47.9851  -18.0150   -9.7838 H   0  0  0  0  0  0  0  0  0  0  0  0
   49.2513  -17.8451  -10.9875 H   0  0  0  0  0  0  0  0  0  0  0  0
   52.0453  -13.5543   -5.4956 H   0  0  0  0  0  0  0  0  0  0  0  0
   44.9860  -17.6909   -6.3505 H   0  0  0  0  0  0  0  0  0  0  0  0
   45.5913  -19.9170   -5.4381 H   0  0  0  0  0  0  0  0  0  0  0  0
   53.5138  -15.2726   -4.4733 H   0  0  0  0  0  0  0  0  0  0  0  0
  2  1  1  0
  3  1  1  0
  4  6  1  0
  5  7  1  0
  6  2  2  0
  7  3  2  0
  8 14  1  0
  9  1  1  0
 10  2  1  0
 11  3  1  0
 12  6  1  0
 13  7  1  0
 14 16  1  0
 15  8  1  0
 16  9  1  0
 17 10  2  0
 18 11  2  0
 19 18  1  0
 20 17  1  0
  5  4  2  0
 19 13  2  0
 20 12  2  0
  1 21  1  0
  4 22  1  0
  5 23  1  0
  8 24  1  0
  9 25  1  0
  9 26  1  0
 10 27  1  0
 11 28  1  0
 12 29  1  0
 13 30  1  0
 14 31  1  0
 14 32  1  0
 15 33  1  0
 15 34  1  0
 15 35  1  0
 16 36  1  0
 16 37  1  0
 17 38  1  0
 18 39  1  0
 19 40  1  0
 20 41  1  0
M  END
> <Uni-Dock RESULT> 
ENERGY=   -5.096  LOWER_BOUND=    2.354  UPPER_BOUND=    5.336
INTER + INTRA:          -5.096
INTER:                  -5.096
INTRA:                   0.000
UNBOUND:                 0.000

$$$$

     RDKit          3D

 41 43  0  0  0  0  0  0  0  0999 V2000
   49.9113  -17.0751   -7.5005 C   0  0  0  0  0  0  0  0  0  0  0  0
   50.9997  -17.0202   -6.4302 C   0  0  0  0  0  0  0  0  0  0  0  0
   48.5996  -17.6513   -6.9823 C   0  0  0  0  0  0  0  0  0  0  0  0
   50.9091  -19.5103   -5.9549 C   0  0  0  0  0  0  0  0  0  0  0  0
   49.6432  -19.8435   -6.2476 C   0  0  0  0  0  0  0  0  0  0  0  0
   51.4395  -18.1592   -5.7297 C   0  0  0  0  0  0  0  0  0  0  0  0
   48.5024  -18.9319   -6.4065 C   0  0  0  0  0  0  0  0  0  0  0  0
   48.4681  -16.0552  -11.6863 N   0  0  0  0  0  0  0  0  0  0  0  0
   50.4256  -17.7422   -8.8018 C   0  0  0  0  0  0  0  0  0  0  0  0
   51.6031  -15.7759   -6.1504 C   0  0  0  0  0  0  0  0  0  0  0  0
   47.4299  -16.8715   -7.1020 C   0  0  0  0  0  0  0  0  0  0  0  0
   52.4774  -18.0296   -4.7901 C   0  0  0  0  0  0  0  0  0  0  0  0
   47.2452  -19.4063   -5.9924 C   0  0  0  0  0  0  0  0  0  0  0  0
   49.3724  -16.1791  -10.5396 C   0  0  0  0  0  0  0  0  0  0  0  0
   49.0149  -16.6432  -12.9028 C   0  0  0  0  0  0  0  0  0  0  0  0
   49.4940  -17.6154  -10.0187 C   0  0  0  0  0  0  0  0  0  0  0  0
   52.6224  -15.6625   -5.2055 C   0  0  0  0  0  0  0  0  0  0  0  0
   46.1925  -17.3520   -6.6749 C   0  0  0  0  0  0  0  0  0  0  0  0
   46.0993  -18.6219   -6.1213 C   0  0  0  0  0  0  0  0  0  0  0  0
   53.0617  -16.7909   -4.5260 C   0  0  0  0  0  0  0  0  0  0  0  0
   49.7067  -16.0274   -7.7559 H   0  0  0  0  0  0  0  0  0  0  0  0
   51.6329  -20.3157   -5.8450 H   0  0  0  0  0  0  0  0  0  0  0  0
   49.4091  -20.9005   -6.3593 H   0  0  0  0  0  0  0  0  0  0  0  0
   48.2950  -15.0647  -11.8584 H   0  0  0  0  0  0  0  0  0  0  0  0
   50.6109  -18.8103   -8.6436 H   0  0  0  0  0  0  0  0  0  0  0  0
   51.4001  -17.3104   -9.0677 H   0  0  0  0  0  0  0  0  0  0  0  0
   51.2802  -14.8783   -6.6738 H   0  0  0  0  0  0  0  0  0  0  0  0
   47.4743  -15.8777   -7.5426 H   0  0  0  0  0  0  0  0  0  0  0  0
   52.8339  -18.9000   -4.2428 H   0  0  0  0  0  0  0  0  0  0  0  0
   47.1502  -20.3965   -5.5515 H   0  0  0  0  0  0  0  0  0  0  0  0
   50.3610  -15.7732  -10.7862 H   0  0  0  0  0  0  0  0  0  0  0  0
   48.9632  -15.5425   -9.7490 H   0  0  0  0  0  0  0  0  0  0  0  0
   49.1032  -17.7305  -12.8262 H   0  0  0  0  0  0  0  0  0  0  0  0
   48.3373  -16.4369  -13.7376 H   0  0  0  0  0  0  0  0  0  0  0  0
   49.9916  -16.2169  -13.1536 H   0  0  0  0  0  0  0  0  0  0  0  0
   48.5025  -18.0184   -9.7821 H   0  0  0  0  0  0  0  0  0  0  0  0
   49.9079  -18.2557  -10.8066 H   0  0  0  0  0  0  0  0  0  0  0  0
   53.0721  -14.6941   -5.0031 H   0  0  0  0  0  0  0  0  0  0  0  0
   45.3037  -16.7357   -6.7805 H   0  0  0  0  0  0  0  0  0  0  0  0
   45.1380  -19.0039   -5.7893 H   0  0  0  0  0  0  0  0  0  0  0  0
   53.8563  -16.7105   -3.7893 H   0  0  0  0  0  0  0  0  0  0  0  0
  2  1  1  0
  3  1  1  0
  4  6  1  0
  5  7  1  0
  6  2  2  0
  7  3  2  0
  8 14  1  0
  9  1  1  0
 10  2  1  0
 11  3  1  0
 12  6  1  0
 13  7  1  0
 14 16  1  0
 15  8  1  0
 16  9  1  0
 17 10  2  0
 18 11  2  0
 19 18  1  0
 20 17  1  0
  5  4  2  0
 19 13  2  0
 20 12  2  0
  1 21  1  0
  4 22  1  0
  5 23  1  0
  8 24  1  0
  9 25  1  0
  9 26  1  0
 10 27  1  0
 11 28  1  0
 12 29  1  0
 13 30  1  0
 14 31  1  0
 14 32  1  0
 15 33  1  0
 15 34  1  0
 15 35  1  0
 16 36  1  0
 16 37  1  0
 17 38  1  0
 18 39  1  0
 19 40  1  0
 20 41  1  0
M  END
> <Uni-Dock RESULT> 
ENERGY=   -5.043  LOWER_BOUND=    2.103  UPPER_BOUND=    5.225
INTER + INTRA:          -5.043
INTER:                  -5.043
INTRA:                   0.000
UNBOUND:                 0.000

$$$$

     RDKit          3D

 41 43  0  0  0  0  0  0  0  0999 V2000
   47.7606  -17.1668   -7.9083 C   0  0  0  0  0  0  0  0  0  0  0  0
   48.8603  -16.2402   -7.3931 C   0  0  0  0  0  0  0  0  0  0  0  0
   47.3632  -18.2341   -6.8963 C   0  0  0  0  0  0  0  0  0  0  0  0
   50.4985  -18.1285   -6.9627 C   0  0  0  0  0  0  0  0  0  0  0  0
   49.7086  -19.1807   -6.7020 C   0  0  0  0  0  0  0  0  0  0  0  0
   50.1142  -16.7108   -6.9598 C   0  0  0  0  0  0  0  0  0  0  0  0
   48.2820  -19.1514   -6.3530 C   0  0  0  0  0  0  0  0  0  0  0  0
   44.6896  -18.2260  -11.0848 N   0  0  0  0  0  0  0  0  0  0  0  0
   48.0975  -17.7228   -9.3155 C   0  0  0  0  0  0  0  0  0  0  0  0
   48.6123  -14.8514   -7.3730 C   0  0  0  0  0  0  0  0  0  0  0  0
   46.0111  -18.3149   -6.5016 C   0  0  0  0  0  0  0  0  0  0  0  0
   51.0876  -15.7867   -6.5410 C   0  0  0  0  0  0  0  0  0  0  0  0
   47.8250  -20.1338   -5.4567 C   0  0  0  0  0  0  0  0  0  0  0  0
   45.7953  -17.5251  -10.4258 C   0  0  0  0  0  0  0  0  0  0  0  0
   45.0292  -18.6802  -12.4276 C   0  0  0  0  0  0  0  0  0  0  0  0
   46.9469  -18.4543  -10.0266 C   0  0  0  0  0  0  0  0  0  0  0  0
   49.5842  -13.9492   -6.9418 C   0  0  0  0  0  0  0  0  0  0  0  0
   45.5762  -19.2875   -5.6021 C   0  0  0  0  0  0  0  0  0  0  0  0
   46.4837  -20.1997   -5.0804 C   0  0  0  0  0  0  0  0  0  0  0  0
   50.8242  -14.4170   -6.5272 C   0  0  0  0  0  0  0  0  0  0  0  0
   46.8806  -16.5237   -8.0377 H   0  0  0  0  0  0  0  0  0  0  0  0
   51.5472  -18.3231   -7.1794 H   0  0  0  0  0  0  0  0  0  0  0  0
   50.1592  -20.1713   -6.7216 H   0  0  0  0  0  0  0  0  0  0  0  0
   43.8955  -17.5892  -11.1528 H   0  0  0  0  0  0  0  0  0  0  0  0
   48.9436  -18.4170   -9.2664 H   0  0  0  0  0  0  0  0  0  0  0  0
   48.4308  -16.8973   -9.9592 H   0  0  0  0  0  0  0  0  0  0  0  0
   47.6506  -14.4599   -7.6984 H   0  0  0  0  0  0  0  0  0  0  0  0
   45.2782  -17.6190   -6.9046 H   0  0  0  0  0  0  0  0  0  0  0  0
   52.0642  -16.1318   -6.2076 H   0  0  0  0  0  0  0  0  0  0  0  0
   48.5200  -20.8554   -5.0323 H   0  0  0  0  0  0  0  0  0  0  0  0
   46.1611  -16.7072  -11.0584 H   0  0  0  0  0  0  0  0  0  0  0  0
   45.3788  -17.0605   -9.5266 H   0  0  0  0  0  0  0  0  0  0  0  0
   45.7908  -19.4649  -12.4121 H   0  0  0  0  0  0  0  0  0  0  0  0
   44.1387  -19.1103  -12.8973 H   0  0  0  0  0  0  0  0  0  0  0  0
   45.3725  -17.8541  -13.0585 H   0  0  0  0  0  0  0  0  0  0  0  0
   46.5738  -19.2741   -9.4020 H   0  0  0  0  0  0  0  0  0  0  0  0
   47.3698  -18.9184  -10.9254 H   0  0  0  0  0  0  0  0  0  0  0  0
   49.3720  -12.8835   -6.9318 H   0  0  0  0  0  0  0  0  0  0  0  0
   44.5291  -19.3339   -5.3151 H   0  0  0  0  0  0  0  0  0  0  0  0
   46.1514  -20.9622   -4.3815 H   0  0  0  0  0  0  0  0  0  0  0  0
   51.5869  -13.7200   -6.1910 H   0  0  0  0  0  0  0  0  0  0  0  0
  2  1  1  0
  3  1  1  0
  4  6  1  0
  5  7  1  0
  6  2  2  0
  7  3  2  0
  8 14  1  0
  9  1  1  0
 10  2  1  0
 11  3  1  0
 12  6  1  0
 13  7  1  0
 14 16  1  0
 15  8  1  0
 16  9  1  0
 17 10  2  0
 18 11  2  0
 19 18  1  0
 20 17  1  0
  5  4  2  0
 19 13  2  0
 20 12  2  0
  1 21  1  0
  4 22  1  0
  5 23  1  0
  8 24  1  0
  9 25  1  0
  9 26  1  0
 10 27  1  0
 11 28  1  0
 12 29  1  0
 13 30  1  0
 14 31  1  0
 14 32  1  0
 15 33  1  0
 15 34  1  0
 15 35  1  0
 16 36  1  0
 16 37  1  0
 17 38  1  0
 18 39  1  0
 19 40  1  0
 20 41  1  0
M  END
> <Uni-Dock RESULT> 
ENERGY=   -4.996  LOWER_BOUND=    2.955  UPPER_BOUND=    5.633
INTER + INTRA:          -4.996
INTER:                  -4.996
INTRA:                   0.000
UNBOUND:                 0.000

$$$$

     RDKit          3D

 41 43  0  0  0  0  0  0  0  0999 V2000
   49.2520  -17.0791   -8.1261 C   0  0  0  0  0  0  0  0  0  0  0  0
   48.5107  -16.5847   -9.3668 C   0  0  0  0  0  0  0  0  0  0  0  0
   48.4113  -18.0163   -7.2681 C   0  0  0  0  0  0  0  0  0  0  0  0
   46.5972  -15.5758   -8.0418 C   0  0  0  0  0  0  0  0  0  0  0  0
   46.5457  -16.3303   -6.9340 C   0  0  0  0  0  0  0  0  0  0  0  0
   47.2850  -15.8958   -9.2997 C   0  0  0  0  0  0  0  0  0  0  0  0
   47.1641  -17.6471   -6.7306 C   0  0  0  0  0  0  0  0  0  0  0  0
   53.0806  -17.3678   -5.6966 N   0  0  0  0  0  0  0  0  0  0  0  0
   49.8933  -15.9065   -7.3409 C   0  0  0  0  0  0  0  0  0  0  0  0
   49.0942  -16.8109  -10.6313 C   0  0  0  0  0  0  0  0  0  0  0  0
   48.9158  -19.3038   -6.9878 C   0  0  0  0  0  0  0  0  0  0  0  0
   46.6894  -15.4360  -10.4874 C   0  0  0  0  0  0  0  0  0  0  0  0
   46.4711  -18.5569   -5.9126 C   0  0  0  0  0  0  0  0  0  0  0  0
   52.1581  -16.9574   -6.7590 C   0  0  0  0  0  0  0  0  0  0  0  0
   53.7061  -16.2362   -5.0236 C   0  0  0  0  0  0  0  0  0  0  0  0
   50.8711  -16.3172   -6.2274 C   0  0  0  0  0  0  0  0  0  0  0  0
   48.4833  -16.3598  -11.8009 C   0  0  0  0  0  0  0  0  0  0  0  0
   48.2102  -20.1989   -6.1845 C   0  0  0  0  0  0  0  0  0  0  0  0
   46.9872  -19.8245   -5.6443 C   0  0  0  0  0  0  0  0  0  0  0  0
   47.2805  -15.6696  -11.7290 C   0  0  0  0  0  0  0  0  0  0  0  0
   50.0860  -17.6803   -8.5106 H   0  0  0  0  0  0  0  0  0  0  0  0
   46.0579  -14.6305   -8.0370 H   0  0  0  0  0  0  0  0  0  0  0  0
   45.9679  -15.9561   -6.0910 H   0  0  0  0  0  0  0  0  0  0  0  0
   53.8159  -17.9426   -6.1085 H   0  0  0  0  0  0  0  0  0  0  0  0
   49.1218  -15.2788   -6.8817 H   0  0  0  0  0  0  0  0  0  0  0  0
   50.4267  -15.2512   -8.0432 H   0  0  0  0  0  0  0  0  0  0  0  0
   50.0391  -17.3442  -10.7133 H   0  0  0  0  0  0  0  0  0  0  0  0
   49.8770  -19.6172   -7.3898 H   0  0  0  0  0  0  0  0  0  0  0  0
   45.7446  -14.8971  -10.4545 H   0  0  0  0  0  0  0  0  0  0  0  0
   45.5088  -18.2860   -5.4829 H   0  0  0  0  0  0  0  0  0  0  0  0
   52.6612  -16.2843   -7.4638 H   0  0  0  0  0  0  0  0  0  0  0  0
   51.9052  -17.8626   -7.3200 H   0  0  0  0  0  0  0  0  0  0  0  0
   52.9810  -15.6500   -4.4522 H   0  0  0  0  0  0  0  0  0  0  0  0
   54.4481  -16.6083   -4.3096 H   0  0  0  0  0  0  0  0  0  0  0  0
   54.2243  -15.5816   -5.7316 H   0  0  0  0  0  0  0  0  0  0  0  0
   50.3775  -16.9907   -5.5173 H   0  0  0  0  0  0  0  0  0  0  0  0
   51.1199  -15.4073   -5.6684 H   0  0  0  0  0  0  0  0  0  0  0  0
   48.9483  -16.5466  -12.7652 H   0  0  0  0  0  0  0  0  0  0  0  0
   48.6196  -21.1841   -5.9784 H   0  0  0  0  0  0  0  0  0  0  0  0
   46.4334  -20.5156   -5.0151 H   0  0  0  0  0  0  0  0  0  0  0  0
   46.7993  -15.3140  -12.6359 H   0  0  0  0  0  0  0  0  0  0  0  0
  2  1  1  0
  3  1  1  0
  4  6  1  0
  5  7  1  0
  6  2  2  0
  7  3  2  0
  8 14  1  0
  9  1  1  0
 10  2  1  0
 11  3  1  0
 12  6  1  0
 13  7  1  0
 14 16  1  0
 15  8  1  0
 16  9  1  0
 17 10  2  0
 18 11  2  0
 19 18  1  0
 20 17  1  0
  5  4  2  0
 19 13  2  0
 20 12  2  0
  1 21  1  0
  4 22  1  0
  5 23  1  0
  8 24  1  0
  9 25  1  0
  9 26  1  0
 10 27  1  0
 11 28  1  0
 12 29  1  0
 13 30  1  0
 14 31  1  0
 14 32  1  0
 15 33  1  0
 15 34  1  0
 15 35  1  0
 16 36  1  0
 16 37  1  0
 17 38  1  0
 18 39  1  0
 19 40  1  0
 20 41  1  0
M  END
> <Uni-Dock RESULT> 
ENERGY=   -4.947  LOWER_BOUND=    2.243  UPPER_BOUND=    4.589
INTER + INTRA:          -4.947
INTER:                  -4.947
INTRA:                   0.000
UNBOUND:                 0.000

$$$$

     RDKit          3D

 41 43  0  0  0  0  0  0  0  0999 V2000
   46.7253  -16.2925  -10.7741 C   0  0  0  0  0  0  0  0  0  0  0  0
   46.5884  -16.4904   -9.2656 C   0  0  0  0  0  0  0  0  0  0  0  0
   45.3809  -16.2413  -11.4891 C   0  0  0  0  0  0  0  0  0  0  0  0
   45.2846  -18.6551   -9.4866 C   0  0  0  0  0  0  0  0  0  0  0  0
   44.6487  -18.5241  -10.6603 C   0  0  0  0  0  0  0  0  0  0  0  0
   45.9155  -17.5886   -8.6977 C   0  0  0  0  0  0  0  0  0  0  0  0
   44.4386  -17.2843  -11.4195 C   0  0  0  0  0  0  0  0  0  0  0  0
   49.3294  -15.4588  -14.4027 N   0  0  0  0  0  0  0  0  0  0  0  0
   47.7326  -17.2964  -11.3909 C   0  0  0  0  0  0  0  0  0  0  0  0
   47.1827  -15.5406   -8.4079 C   0  0  0  0  0  0  0  0  0  0  0  0
   45.0776  -15.1047  -12.2680 C   0  0  0  0  0  0  0  0  0  0  0  0
   45.8724  -17.7193   -7.2985 C   0  0  0  0  0  0  0  0  0  0  0  0
   43.2388  -17.1768  -12.1448 C   0  0  0  0  0  0  0  0  0  0  0  0
   48.9657  -15.7383  -13.0107 C   0  0  0  0  0  0  0  0  0  0  0  0
   50.3221  -16.3898  -14.9248 C   0  0  0  0  0  0  0  0  0  0  0  0
   48.1330  -17.0147  -12.8486 C   0  0  0  0  0  0  0  0  0  0  0  0
   47.1191  -15.6782   -7.0217 C   0  0  0  0  0  0  0  0  0  0  0  0
   43.8776  -15.0083  -12.9715 C   0  0  0  0  0  0  0  0  0  0  0  0
   42.9576  -16.0465  -12.9118 C   0  0  0  0  0  0  0  0  0  0  0  0
   46.4651  -16.7699   -6.4661 C   0  0  0  0  0  0  0  0  0  0  0  0
   47.1746  -15.2982  -10.8936 H   0  0  0  0  0  0  0  0  0  0  0  0
   45.3289  -19.6474   -9.0418 H   0  0  0  0  0  0  0  0  0  0  0  0
   44.2120  -19.4170  -11.1037 H   0  0  0  0  0  0  0  0  0  0  0  0
   49.7152  -14.5159  -14.4550 H   0  0  0  0  0  0  0  0  0  0  0  0
   47.3359  -18.3169  -11.3536 H   0  0  0  0  0  0  0  0  0  0  0  0
   48.6455  -17.3128  -10.7800 H   0  0  0  0  0  0  0  0  0  0  0  0
   47.7057  -14.6797   -8.8193 H   0  0  0  0  0  0  0  0  0  0  0  0
   45.7865  -14.2825  -12.3403 H   0  0  0  0  0  0  0  0  0  0  0  0
   45.3612  -18.5644   -6.8419 H   0  0  0  0  0  0  0  0  0  0  0  0
   42.5018  -17.9766  -12.1082 H   0  0  0  0  0  0  0  0  0  0  0  0
   49.8632  -15.7806  -12.3818 H   0  0  0  0  0  0  0  0  0  0  0  0
   48.3819  -14.8806  -12.6623 H   0  0  0  0  0  0  0  0  0  0  0  0
   49.9223  -17.4037  -15.0156 H   0  0  0  0  0  0  0  0  0  0  0  0
   50.6179  -16.0731  -15.9302 H   0  0  0  0  0  0  0  0  0  0  0  0
   51.2232  -16.4097  -14.3034 H   0  0  0  0  0  0  0  0  0  0  0  0
   47.2423  -16.9702  -13.4858 H   0  0  0  0  0  0  0  0  0  0  0  0
   48.7162  -17.8771  -13.1926 H   0  0  0  0  0  0  0  0  0  0  0  0
   47.5814  -14.9340   -6.3788 H   0  0  0  0  0  0  0  0  0  0  0  0
   43.6664  -14.1252  -13.5686 H   0  0  0  0  0  0  0  0  0  0  0  0
   42.0220  -15.9796  -13.4598 H   0  0  0  0  0  0  0  0  0  0  0  0
   46.4125  -16.8843   -5.3869 H   0  0  0  0  0  0  0  0  0  0  0  0
  2  1  1  0
  3  1  1  0
  4  6  1  0
  5  7  1  0
  6  2  2  0
  7  3  2  0
  8 14  1  0
  9  1  1  0
 10  2  1  0
 11  3  1  0
 12  6  1  0
 13  7  1  0
 14 16  1  0
 15  8  1  0
 16  9  1  0
 17 10  2  0
 18 11  2  0
 19 18  1  0
 20 17  1  0
  5  4  2  0
 19 13  2  0
 20 12  2  0
  1 21  1  0
  4 22  1  0
  5 23  1  0
  8 24  1  0
  9 25  1  0
  9 26  1  0
 10 27  1  0
 11 28  1  0
 12 29  1  0
 13 30  1  0
 14 31  1  0
 14 32  1  0
 15 33  1  0
 15 34  1  0
 15 35  1  0
 16 36  1  0
 16 37  1  0
 17 38  1  0
 18 39  1  0
 19 40  1  0
 20 41  1  0
M  END
> <Uni-Dock RESULT> 
ENERGY=   -4.305  LOWER_BOUND=    4.652  UPPER_BOUND=    7.017
INTER + INTRA:          -4.305
INTER:                  -4.305
INTRA:                   0.000
UNBOUND:                 0.000

$$$$

     RDKit          3D

 41 43  0  0  0  0  0  0  0  0999 V2000
   48.3622  -18.1715   -7.4674 C   0  0  0  0  0  0  0  0  0  0  0  0
   49.7280  -17.8217   -6.8796 C   0  0  0  0  0  0  0  0  0  0  0  0
   48.2258  -17.7671   -8.9300 C   0  0  0  0  0  0  0  0  0  0  0  0
   49.5221  -15.3491   -7.4075 C   0  0  0  0  0  0  0  0  0  0  0  0
   48.7285  -15.3203   -8.4884 C   0  0  0  0  0  0  0  0  0  0  0  0
   50.2408  -16.5108   -6.8675 C   0  0  0  0  0  0  0  0  0  0  0  0
   48.4013  -16.4439   -9.3762 C   0  0  0  0  0  0  0  0  0  0  0  0
   44.3170  -20.2000   -7.0605 N   0  0  0  0  0  0  0  0  0  0  0  0
   47.2076  -17.6714   -6.5620 C   0  0  0  0  0  0  0  0  0  0  0  0
   50.4958  -18.8566   -6.3050 C   0  0  0  0  0  0  0  0  0  0  0  0
   47.8920  -18.7618   -9.8733 C   0  0  0  0  0  0  0  0  0  0  0  0
   51.4886  -16.2667   -6.2673 C   0  0  0  0  0  0  0  0  0  0  0  0
   48.2150  -16.1468  -10.7379 C   0  0  0  0  0  0  0  0  0  0  0  0
   45.6433  -19.6984   -6.6895 C   0  0  0  0  0  0  0  0  0  0  0  0
   43.2697  -19.7544   -6.1498 C   0  0  0  0  0  0  0  0  0  0  0  0
   45.8091  -18.1939   -6.9305 C   0  0  0  0  0  0  0  0  0  0  0  0
   51.7379  -18.5994   -5.7257 C   0  0  0  0  0  0  0  0  0  0  0  0
   47.7228  -18.4527  -11.2224 C   0  0  0  0  0  0  0  0  0  0  0  0
   47.8823  -17.1431  -11.6553 C   0  0  0  0  0  0  0  0  0  0  0  0
   52.2342  -17.3027   -5.7048 C   0  0  0  0  0  0  0  0  0  0  0  0
   48.3127  -19.2678   -7.4462 H   0  0  0  0  0  0  0  0  0  0  0  0
   49.6830  -14.4156   -6.8715 H   0  0  0  0  0  0  0  0  0  0  0  0
   48.2887  -14.3655   -8.7703 H   0  0  0  0  0  0  0  0  0  0  0  0
   44.3401  -21.2198   -7.0485 H   0  0  0  0  0  0  0  0  0  0  0  0
   47.1576  -16.5770   -6.5655 H   0  0  0  0  0  0  0  0  0  0  0  0
   47.4174  -17.9533   -5.5212 H   0  0  0  0  0  0  0  0  0  0  0  0
   50.1260  -19.8799   -6.3039 H   0  0  0  0  0  0  0  0  0  0  0  0
   47.7504  -19.7934   -9.5577 H   0  0  0  0  0  0  0  0  0  0  0  0
   51.8985  -15.2590   -6.2441 H   0  0  0  0  0  0  0  0  0  0  0  0
   48.3398  -15.1281  -11.0994 H   0  0  0  0  0  0  0  0  0  0  0  0
   45.8692  -19.9491   -5.6460 H   0  0  0  0  0  0  0  0  0  0  0  0
   46.3665  -20.2436   -7.3040 H   0  0  0  0  0  0  0  0  0  0  0  0
   43.1069  -18.6749   -6.2125 H   0  0  0  0  0  0  0  0  0  0  0  0
   42.3255  -20.2353   -6.4254 H   0  0  0  0  0  0  0  0  0  0  0  0
   43.4926  -20.0280   -5.1135 H   0  0  0  0  0  0  0  0  0  0  0  0
   45.5737  -17.9484   -7.9725 H   0  0  0  0  0  0  0  0  0  0  0  0
   45.0891  -17.6438   -6.3131 H   0  0  0  0  0  0  0  0  0  0  0  0
   52.3146  -19.4113   -5.2907 H   0  0  0  0  0  0  0  0  0  0  0  0
   47.4617  -19.2341  -11.9310 H   0  0  0  0  0  0  0  0  0  0  0  0
   47.7490  -16.8945  -12.7044 H   0  0  0  0  0  0  0  0  0  0  0  0
   53.2006  -17.0945   -5.2541 H   0  0  0  0  0  0  0  0  0  0  0  0
  2  1  1  0
  3  1  1  0
  4  6  1  0
  5  7  1  0
  6  2  2  0
  7  3  2  0
  8 14  1  0
  9  1  1  0
 10  2  1  0
 11  3  1  0
 12  6  1  0
 13  7  1  0
 14 16  1  0
 15  8  1  0
 16  9  1  0
 17 10  2  0
 18 11  2  0
 19 18  1  0
 20 17  1  0
  5  4  2  0
 19 13  2  0
 20 12  2  0
  1 21  1  0
  4 22  1  0
  5 23  1  0
  8 24  1  0
  9 25  1  0
  9 26  1  0
 10 27  1  0
 11 28  1  0
 12 29  1  0
 13 30  1  0
 14 31  1  0
 14 32  1  0
 15 33  1  0
 15 34  1  0
 15 35  1  0
 16 36  1  0
 16 37  1  0
 17 38  1  0
 18 39  1  0
 19 40  1  0
 20 41  1  0
M  END
> <Uni-Dock RESULT> 
ENERGY=   -4.040  LOWER_BOUND=    2.993  UPPER_BOUND=    5.927
INTER + INTRA:          -4.040
INTER:                  -4.040
INTRA:                   0.000
UNBOUND:                 0.000

$$$$
