
     RDKit          3D

 41 43  0  0  0  0  0  0  0  0999 V2000
   50.2269  -17.5699   -7.4464 C   0  0  0  0  0  0  0  0  0  0  0  0
   51.1144  -16.7043   -6.5609 C   0  0  0  0  0  0  0  0  0  0  0  0
   48.7480  -17.4636   -7.0854 C   0  0  0  0  0  0  0  0  0  0  0  0
   49.9140  -14.5521   -7.1601 C   0  0  0  0  0  0  0  0  0  0  0  0
   48.6638  -14.9529   -7.4359 C   0  0  0  0  0  0  0  0  0  0  0  0
   50.9488  -15.3114   -6.4455 C   0  0  0  0  0  0  0  0  0  0  0  0
   48.0500  -16.2412   -7.0862 C   0  0  0  0  0  0  0  0  0  0  0  0
   53.3616  -18.0868  -11.3310 N   0  0  0  0  0  0  0  0  0  0  0  0
   50.4607  -17.3708   -8.9645 C   0  0  0  0  0  0  0  0  0  0  0  0
   52.1543  -17.3265   -5.8388 C   0  0  0  0  0  0  0  0  0  0  0  0
   48.0498  -18.6449   -6.7585 C   0  0  0  0  0  0  0  0  0  0  0  0
   51.8376  -14.5780   -5.6402 C   0  0  0  0  0  0  0  0  0  0  0  0
   46.6771  -16.2340   -6.7841 C   0  0  0  0  0  0  0  0  0  0  0  0
   52.0209  -17.6588  -10.9305 C   0  0  0  0  0  0  0  0  0  0  0  0
   53.5389  -17.9713  -12.7719 C   0  0  0  0  0  0  0  0  0  0  0  0
   51.8641  -17.7998   -9.4142 C   0  0  0  0  0  0  0  0  0  0  0  0
   53.0193  -16.5862   -5.0339 C   0  0  0  0  0  0  0  0  0  0  0  0
   46.6907  -18.6184   -6.4480 C   0  0  0  0  0  0  0  0  0  0  0  0
   46.0027  -17.4121   -6.4629 C   0  0  0  0  0  0  0  0  0  0  0  0
   52.8629  -15.2100   -4.9364 C   0  0  0  0  0  0  0  0  0  0  0  0
   50.5108  -18.6130   -7.2431 H   0  0  0  0  0  0  0  0  0  0  0  0
   50.2062  -13.5499   -7.4683 H   0  0  0  0  0  0  0  0  0  0  0  0
   48.0091  -14.2537   -7.9526 H   0  0  0  0  0  0  0  0  0  0  0  0
   53.5100  -19.0550  -11.0489 H   0  0  0  0  0  0  0  0  0  0  0  0
   49.7231  -17.9683   -9.5176 H   0  0  0  0  0  0  0  0  0  0  0  0
   50.2961  -16.3309   -9.2665 H   0  0  0  0  0  0  0  0  0  0  0  0
   52.3025  -18.4024   -5.9068 H   0  0  0  0  0  0  0  0  0  0  0  0
   48.5662  -19.6026   -6.7462 H   0  0  0  0  0  0  0  0  0  0  0  0
   51.7296  -13.4995   -5.5449 H   0  0  0  0  0  0  0  0  0  0  0  0
   46.1198  -15.2994   -6.7848 H   0  0  0  0  0  0  0  0  0  0  0  0
   51.2626  -18.2689  -11.4360 H   0  0  0  0  0  0  0  0  0  0  0  0
   51.8611  -16.6121  -11.2157 H   0  0  0  0  0  0  0  0  0  0  0  0
   52.8317  -18.6058  -13.3158 H   0  0  0  0  0  0  0  0  0  0  0  0
   53.4195  -16.9348  -13.1039 H   0  0  0  0  0  0  0  0  0  0  0  0
   54.5514  -18.2882  -13.0410 H   0  0  0  0  0  0  0  0  0  0  0  0
   52.6220  -17.1858   -8.9131 H   0  0  0  0  0  0  0  0  0  0  0  0
   52.0393  -18.8416   -9.1181 H   0  0  0  0  0  0  0  0  0  0  0  0
   53.8157  -17.0849   -4.4881 H   0  0  0  0  0  0  0  0  0  0  0  0
   46.1716  -19.5395   -6.1967 H   0  0  0  0  0  0  0  0  0  0  0  0
   44.9434  -17.3842   -6.2230 H   0  0  0  0  0  0  0  0  0  0  0  0
   53.5350  -14.6264   -4.3136 H   0  0  0  0  0  0  0  0  0  0  0  0
  2  1  1  0
  3  1  1  0
  4  6  1  0
  5  7  1  0
  6  2  2  0
  7  3  2  0
  8 14  1  0
  9  1  1  0
 10  2  1  0
 11  3  1  0
 12  6  1  0
 13  7  1  0
 14 16  1  0
 15  8  1  0
 16  9  1  0
 17 10  2  0
 18 11  2  0
 19 18  1  0
 20 17  1  0
  5  4  2  0
 19 13  2  0
 20 12  2  0
  1 21  1  0
  4 22  1  0
  5 23  1  0
  8 24  1  0
  9 25  1  0
  9 26  1  0
 10 27  1  0
 11 28  1  0
 12 29  1  0
 13 30  1  0
 14 31  1  0
 14 32  1  0
 15 33  1  0
 15 34  1  0
 15 35  1  0
 16 36  1  0
 16 37  1  0
 17 38  1  0
 18 39  1  0
 19 40  1  0
 20 41  1  0
M  END
> <Uni-Dock RESULT> 
ENERGY=   -6.208  LOWER_BOUND=    0.000  UPPER_BOUND=    0.000
INTER + INTRA:          -6.208
INTER:                  -6.208
INTRA:                   0.000
UNBOUND:                 0.000

$$$$

     RDKit          3D

 41 43  0  0  0  0  0  0  0  0999 V2000
   50.1250  -16.3480   -7.5526 C   0  0  0  0  0  0  0  0  0  0  0  0
   48.6878  -16.6854   -7.1761 C   0  0  0  0  0  0  0  0  0  0  0  0
   51.1202  -16.6806   -6.4445 C   0  0  0  0  0  0  0  0  0  0  0  0
   49.1891  -19.1344   -6.7479 C   0  0  0  0  0  0  0  0  0  0  0  0
   50.4734  -19.1317   -6.3602 C   0  0  0  0  0  0  0  0  0  0  0  0
   48.2809  -17.9812   -6.8073 C   0  0  0  0  0  0  0  0  0  0  0  0
   51.2595  -17.9751   -5.9095 C   0  0  0  0  0  0  0  0  0  0  0  0
   49.5744  -16.2926  -12.5403 N   0  0  0  0  0  0  0  0  0  0  0  0
   50.5744  -16.9265   -8.9172 C   0  0  0  0  0  0  0  0  0  0  0  0
   47.7240  -15.6561   -7.2140 C   0  0  0  0  0  0  0  0  0  0  0  0
   51.9479  -15.6493   -5.9534 C   0  0  0  0  0  0  0  0  0  0  0  0
   46.9263  -18.2193   -6.5158 C   0  0  0  0  0  0  0  0  0  0  0  0
   52.2308  -18.2087   -4.9204 C   0  0  0  0  0  0  0  0  0  0  0  0
   50.3264  -16.8800  -11.4309 C   0  0  0  0  0  0  0  0  0  0  0  0
   50.0629  -16.7838  -13.8214 C   0  0  0  0  0  0  0  0  0  0  0  0
   49.7949  -16.3382  -10.1014 C   0  0  0  0  0  0  0  0  0  0  0  0
   46.3865  -15.9061   -6.9091 C   0  0  0  0  0  0  0  0  0  0  0  0
   52.8974  -15.8952   -4.9622 C   0  0  0  0  0  0  0  0  0  0  0  0
   53.0407  -17.1767   -4.4465 C   0  0  0  0  0  0  0  0  0  0  0  0
   45.9864  -17.1897   -6.5624 C   0  0  0  0  0  0  0  0  0  0  0  0
   50.1647  -15.2553   -7.6730 H   0  0  0  0  0  0  0  0  0  0  0  0
   48.7450  -20.0874   -7.0293 H   0  0  0  0  0  0  0  0  0  0  0  0
   51.0016  -20.0832   -6.3476 H   0  0  0  0  0  0  0  0  0  0  0  0
   49.6612  -15.2773  -12.5125 H   0  0  0  0  0  0  0  0  0  0  0  0
   51.6408  -16.7053   -9.0616 H   0  0  0  0  0  0  0  0  0  0  0  0
   50.4851  -18.0178   -8.9435 H   0  0  0  0  0  0  0  0  0  0  0  0
   48.0120  -14.6442   -7.4921 H   0  0  0  0  0  0  0  0  0  0  0  0
   51.8581  -14.6387   -6.3464 H   0  0  0  0  0  0  0  0  0  0  0  0
   46.5920  -19.2163   -6.2362 H   0  0  0  0  0  0  0  0  0  0  0  0
   52.3564  -19.2040   -4.4988 H   0  0  0  0  0  0  0  0  0  0  0  0
   51.3917  -16.6378  -11.5262 H   0  0  0  0  0  0  0  0  0  0  0  0
   50.2229  -17.9716  -11.4449 H   0  0  0  0  0  0  0  0  0  0  0  0
   51.1133  -16.5185  -13.9792 H   0  0  0  0  0  0  0  0  0  0  0  0
   49.9522  -17.8704  -13.8973 H   0  0  0  0  0  0  0  0  0  0  0  0
   49.4774  -16.3362  -14.6305 H   0  0  0  0  0  0  0  0  0  0  0  0
   48.7306  -16.5854  -10.0090 H   0  0  0  0  0  0  0  0  0  0  0  0
   49.8791  -15.2444  -10.0860 H   0  0  0  0  0  0  0  0  0  0  0  0
   45.6595  -15.0993   -6.9470 H   0  0  0  0  0  0  0  0  0  0  0  0
   53.5239  -15.0864   -4.5958 H   0  0  0  0  0  0  0  0  0  0  0  0
   53.7791  -17.3757   -3.6747 H   0  0  0  0  0  0  0  0  0  0  0  0
   44.9454  -17.3926   -6.3266 H   0  0  0  0  0  0  0  0  0  0  0  0
  2  1  1  0
  3  1  1  0
  4  6  1  0
  5  7  1  0
  6  2  2  0
  7  3  2  0
  8 14  1  0
  9  1  1  0
 10  2  1  0
 11  3  1  0
 12  6  1  0
 13  7  1  0
 14 16  1  0
 15  8  1  0
 16  9  1  0
 17 10  2  0
 18 11  2  0
 19 18  1  0
 20 17  1  0
  5  4  2  0
 19 13  2  0
 20 12  2  0
  1 21  1  0
  4 22  1  0
  5 23  1  0
  8 24  1  0
  9 25  1  0
  9 26  1  0
 10 27  1  0
 11 28  1  0
 12 29  1  0
 13 30  1  0
 14 31  1  0
 14 32  1  0
 15 33  1  0
 15 34  1  0
 15 35  1  0
 16 36  1  0
 16 37  1  0
 17 38  1  0
 18 39  1  0
 19 40  1  0
 20 41  1  0
M  END
> <Uni-Dock RESULT> 
ENERGY=   -5.762  LOWER_BOUND=    1.625  UPPER_BOUND=    4.799
INTER + INTRA:          -5.762
INTER:                  -5.762
INTRA:                   0.000
UNBOUND:                 0.000

$$$$

     RDKit          3D

 41 43  0  0  0  0  0  0  0  0999 V2000
   49.1214  -17.1457   -8.3453 C   0  0  0  0  0  0  0  0  0  0  0  0
   48.3127  -18.0347   -7.4090 C   0  0  0  0  0  0  0  0  0  0  0  0
   48.3030  -16.6322   -9.5267 C   0  0  0  0  0  0  0  0  0  0  0  0
   46.5684  -16.2544   -6.9400 C   0  0  0  0  0  0  0  0  0  0  0  0
   46.5623  -15.5144   -8.0590 C   0  0  0  0  0  0  0  0  0  0  0  0
   47.1357  -17.5990   -6.7721 C   0  0  0  0  0  0  0  0  0  0  0  0
   47.1226  -15.8823   -9.3665 C   0  0  0  0  0  0  0  0  0  0  0  0
   52.7652  -15.8488   -5.1478 N   0  0  0  0  0  0  0  0  0  0  0  0
   49.8783  -15.9980   -7.6322 C   0  0  0  0  0  0  0  0  0  0  0  0
   48.7742  -19.3444   -7.1606 C   0  0  0  0  0  0  0  0  0  0  0  0
   48.7637  -16.9045  -10.8318 C   0  0  0  0  0  0  0  0  0  0  0  0
   46.4710  -18.4669   -5.8881 C   0  0  0  0  0  0  0  0  0  0  0  0
   46.4499  -15.4084  -10.5063 C   0  0  0  0  0  0  0  0  0  0  0  0
   51.7327  -15.3363   -6.0492 C   0  0  0  0  0  0  0  0  0  0  0  0
   53.5228  -14.7596   -4.5472 C   0  0  0  0  0  0  0  0  0  0  0  0
   50.9611  -16.5041   -6.6692 C   0  0  0  0  0  0  0  0  0  0  0  0
   48.0957  -20.1975   -6.2911 C   0  0  0  0  0  0  0  0  0  0  0  0
   48.0770  -16.4382  -11.9523 C   0  0  0  0  0  0  0  0  0  0  0  0
   46.9199  -15.6875  -11.7896 C   0  0  0  0  0  0  0  0  0  0  0  0
   46.9443  -19.7575   -5.6517 C   0  0  0  0  0  0  0  0  0  0  0  0
   49.9047  -17.7850   -8.7788 H   0  0  0  0  0  0  0  0  0  0  0  0
   46.0842  -15.8433   -6.0561 H   0  0  0  0  0  0  0  0  0  0  0  0
   46.0728  -14.5430   -8.0223 H   0  0  0  0  0  0  0  0  0  0  0  0
   53.3994  -16.4566   -5.6648 H   0  0  0  0  0  0  0  0  0  0  0  0
   50.3591  -15.3657   -8.3911 H   0  0  0  0  0  0  0  0  0  0  0  0
   49.1946  -15.3432   -7.0812 H   0  0  0  0  0  0  0  0  0  0  0  0
   49.6793  -19.7082   -7.6428 H   0  0  0  0  0  0  0  0  0  0  0  0
   49.6710  -17.4854  -10.9840 H   0  0  0  0  0  0  0  0  0  0  0  0
   45.5638  -18.1447   -5.3810 H   0  0  0  0  0  0  0  0  0  0  0  0
   45.5388  -14.8228  -10.4020 H   0  0  0  0  0  0  0  0  0  0  0  0
   52.1898  -14.7352   -6.8445 H   0  0  0  0  0  0  0  0  0  0  0  0
   51.0366  -14.6953   -5.4953 H   0  0  0  0  0  0  0  0  0  0  0  0
   54.0378  -14.1621   -5.3065 H   0  0  0  0  0  0  0  0  0  0  0  0
   52.8745  -14.1054   -3.9551 H   0  0  0  0  0  0  0  0  0  0  0  0
   54.2796  -15.1710   -3.8722 H   0  0  0  0  0  0  0  0  0  0  0  0
   50.5034  -17.1004   -5.8709 H   0  0  0  0  0  0  0  0  0  0  0  0
   51.6533  -17.1603   -7.2115 H   0  0  0  0  0  0  0  0  0  0  0  0
   48.4697  -21.2018   -6.1117 H   0  0  0  0  0  0  0  0  0  0  0  0
   48.4473  -16.6608  -12.9494 H   0  0  0  0  0  0  0  0  0  0  0  0
   46.3804  -15.3201  -12.6582 H   0  0  0  0  0  0  0  0  0  0  0  0
   46.4122  -20.4157   -4.9705 H   0  0  0  0  0  0  0  0  0  0  0  0
  2  1  1  0
  3  1  1  0
  4  6  1  0
  5  7  1  0
  6  2  2  0
  7  3  2  0
  8 14  1  0
  9  1  1  0
 10  2  1  0
 11  3  1  0
 12  6  1  0
 13  7  1  0
 14 16  1  0
 15  8  1  0
 16  9  1  0
 17 10  2  0
 18 11  2  0
 19 18  1  0
 20 17  1  0
  5  4  2  0
 19 13  2  0
 20 12  2  0
  1 21  1  0
  4 22  1  0
  5 23  1  0
  8 24  1  0
  9 25  1  0
  9 26  1  0
 10 27  1  0
 11 28  1  0
 12 29  1  0
 13 30  1  0
 14 31  1  0
 14 32  1  0
 15 33  1  0
 15 34  1  0
 15 35  1  0
 16 36  1  0
 16 37  1  0
 17 38  1  0
 18 39  1  0
 19 40  1  0
 20 41  1  0
M  END
> <Uni-Dock RESULT> 
ENERGY=   -5.292  LOWER_BOUND=    2.555  UPPER_BOUND=    4.949
INTER + INTRA:          -5.292
INTER:                  -5.292
INTRA:                   0.000
UNBOUND:                 0.000

$$$$

     RDKit          3D

 41 43  0  0  0  0  0  0  0  0999 V2000
   46.8346  -15.7201  -10.5390 C   0  0  0  0  0  0  0  0  0  0  0  0
   45.5397  -15.6191  -11.3353 C   0  0  0  0  0  0  0  0  0  0  0  0
   46.6192  -16.2519   -9.1249 C   0  0  0  0  0  0  0  0  0  0  0  0
   44.9854  -18.0809  -11.0813 C   0  0  0  0  0  0  0  0  0  0  0  0
   45.5544  -18.4148   -9.9133 C   0  0  0  0  0  0  0  0  0  0  0  0
   44.7022  -16.7253  -11.5715 C   0  0  0  0  0  0  0  0  0  0  0  0
   46.0229  -17.4999   -8.8634 C   0  0  0  0  0  0  0  0  0  0  0  0
   50.0502  -15.8067  -14.3907 N   0  0  0  0  0  0  0  0  0  0  0  0
   47.9693  -16.4805  -11.2692 C   0  0  0  0  0  0  0  0  0  0  0  0
   45.1753  -14.3653  -11.8693 C   0  0  0  0  0  0  0  0  0  0  0  0
   47.0567  -15.4663   -8.0380 C   0  0  0  0  0  0  0  0  0  0  0  0
   43.5460  -16.5573  -12.3534 C   0  0  0  0  0  0  0  0  0  0  0  0
   45.9002  -17.9372   -7.5330 C   0  0  0  0  0  0  0  0  0  0  0  0
   49.6136  -16.5146  -13.1868 C   0  0  0  0  0  0  0  0  0  0  0  0
   51.1714  -16.4895  -15.0214 C   0  0  0  0  0  0  0  0  0  0  0  0
   48.4414  -15.7685  -12.5443 C   0  0  0  0  0  0  0  0  0  0  0  0
   44.0179  -14.2128  -12.6318 C   0  0  0  0  0  0  0  0  0  0  0  0
   46.9152  -15.9092   -6.7233 C   0  0  0  0  0  0  0  0  0  0  0  0
   46.3383  -17.1469   -6.4703 C   0  0  0  0  0  0  0  0  0  0  0  0
   43.2036  -15.3105  -12.8767 C   0  0  0  0  0  0  0  0  0  0  0  0
   47.2048  -14.6912  -10.4190 H   0  0  0  0  0  0  0  0  0  0  0  0
   44.6691  -18.8864  -11.7414 H   0  0  0  0  0  0  0  0  0  0  0  0
   45.6684  -19.4736   -9.6887 H   0  0  0  0  0  0  0  0  0  0  0  0
   50.3271  -14.8564  -14.1471 H   0  0  0  0  0  0  0  0  0  0  0  0
   48.8267  -16.5754  -10.5889 H   0  0  0  0  0  0  0  0  0  0  0  0
   47.6715  -17.5028  -11.5258 H   0  0  0  0  0  0  0  0  0  0  0  0
   45.8027  -13.4927  -11.6988 H   0  0  0  0  0  0  0  0  0  0  0  0
   47.5171  -14.4959   -8.2118 H   0  0  0  0  0  0  0  0  0  0  0  0
   42.8906  -17.4027  -12.5528 H   0  0  0  0  0  0  0  0  0  0  0  0
   45.4466  -18.9012   -7.3118 H   0  0  0  0  0  0  0  0  0  0  0  0
   50.4402  -16.5862  -12.4697 H   0  0  0  0  0  0  0  0  0  0  0  0
   49.2977  -17.5325  -13.4448 H   0  0  0  0  0  0  0  0  0  0  0  0
   52.0384  -16.5385  -14.3546 H   0  0  0  0  0  0  0  0  0  0  0  0
   50.8962  -17.5043  -15.3268 H   0  0  0  0  0  0  0  0  0  0  0  0
   51.4699  -15.9444  -15.9222 H   0  0  0  0  0  0  0  0  0  0  0  0
   47.6163  -15.7021  -13.2636 H   0  0  0  0  0  0  0  0  0  0  0  0
   48.7440  -14.7429  -12.2984 H   0  0  0  0  0  0  0  0  0  0  0  0
   43.7569  -13.2386  -13.0362 H   0  0  0  0  0  0  0  0  0  0  0  0
   47.2567  -15.2878   -5.8998 H   0  0  0  0  0  0  0  0  0  0  0  0
   46.2259  -17.4987   -5.4485 H   0  0  0  0  0  0  0  0  0  0  0  0
   42.3018  -15.1998  -13.4725 H   0  0  0  0  0  0  0  0  0  0  0  0
  2  1  1  0
  3  1  1  0
  4  6  1  0
  5  7  1  0
  6  2  2  0
  7  3  2  0
  8 14  1  0
  9  1  1  0
 10  2  1  0
 11  3  1  0
 12  6  1  0
 13  7  1  0
 14 16  1  0
 15  8  1  0
 16  9  1  0
 17 10  2  0
 18 11  2  0
 19 18  1  0
 20 17  1  0
  5  4  2  0
 19 13  2  0
 20 12  2  0
  1 21  1  0
  4 22  1  0
  5 23  1  0
  8 24  1  0
  9 25  1  0
  9 26  1  0
 10 27  1  0
 11 28  1  0
 12 29  1  0
 13 30  1  0
 14 31  1  0
 14 32  1  0
 15 33  1  0
 15 34  1  0
 15 35  1  0
 16 36  1  0
 16 37  1  0
 17 38  1  0
 18 39  1  0
 19 40  1  0
 20 41  1  0
M  END
> <Uni-Dock RESULT> 
ENERGY=   -4.844  LOWER_BOUND=    4.267  UPPER_BOUND=    6.599
INTER + INTRA:          -4.844
INTER:                  -4.844
INTRA:                   0.000
UNBOUND:                 0.000

$$$$

     RDKit          3D

 41 43  0  0  0  0  0  0  0  0999 V2000
   49.6099  -18.1540   -7.2962 C   0  0  0  0  0  0  0  0  0  0  0  0
   49.5857  -17.9023   -8.7986 C   0  0  0  0  0  0  0  0  0  0  0  0
   50.6711  -17.3277   -6.5752 C   0  0  0  0  0  0  0  0  0  0  0  0
   49.1650  -15.4134   -8.5524 C   0  0  0  0  0  0  0  0  0  0  0  0
   49.7394  -15.1097   -7.3787 C   0  0  0  0  0  0  0  0  0  0  0  0
   49.3786  -16.6258   -9.3540 C   0  0  0  0  0  0  0  0  0  0  0  0
   50.7095  -15.9217   -6.6316 C   0  0  0  0  0  0  0  0  0  0  0  0
   44.9743  -20.0105   -6.7970 N   0  0  0  0  0  0  0  0  0  0  0  0
   48.2262  -18.0308   -6.6112 C   0  0  0  0  0  0  0  0  0  0  0  0
   49.7641  -18.9997   -9.6668 C   0  0  0  0  0  0  0  0  0  0  0  0
   51.6393  -18.0039   -5.8037 C   0  0  0  0  0  0  0  0  0  0  0  0
   49.3271  -16.4846  -10.7518 C   0  0  0  0  0  0  0  0  0  0  0  0
   51.6941  -15.2318   -5.9031 C   0  0  0  0  0  0  0  0  0  0  0  0
   45.9018  -18.9796   -6.3297 C   0  0  0  0  0  0  0  0  0  0  0  0
   43.7058  -19.9339   -6.0857 C   0  0  0  0  0  0  0  0  0  0  0  0
   47.2259  -19.0920   -7.0898 C   0  0  0  0  0  0  0  0  0  0  0  0
   49.7234  -18.8405  -11.0514 C   0  0  0  0  0  0  0  0  0  0  0  0
   52.6176  -17.3047   -5.0977 C   0  0  0  0  0  0  0  0  0  0  0  0
   52.6439  -15.9170   -5.1454 C   0  0  0  0  0  0  0  0  0  0  0  0
   49.5018  -17.5821  -11.5949 C   0  0  0  0  0  0  0  0  0  0  0  0
   49.9071  -19.2048   -7.1636 H   0  0  0  0  0  0  0  0  0  0  0  0
   48.4826  -14.6858   -8.9877 H   0  0  0  0  0  0  0  0  0  0  0  0
   49.4922  -14.1514   -6.9256 H   0  0  0  0  0  0  0  0  0  0  0  0
   45.3868  -20.9316   -6.6540 H   0  0  0  0  0  0  0  0  0  0  0  0
   48.3570  -18.1437   -5.5263 H   0  0  0  0  0  0  0  0  0  0  0  0
   47.7869  -17.0388   -6.7618 H   0  0  0  0  0  0  0  0  0  0  0  0
   49.9297  -19.9970   -9.2641 H   0  0  0  0  0  0  0  0  0  0  0  0
   51.6350  -19.0904   -5.7463 H   0  0  0  0  0  0  0  0  0  0  0  0
   49.1605  -15.5067  -11.1990 H   0  0  0  0  0  0  0  0  0  0  0  0
   51.7363  -14.1448   -5.9305 H   0  0  0  0  0  0  0  0  0  0  0  0
   46.0850  -19.0951   -5.2547 H   0  0  0  0  0  0  0  0  0  0  0  0
   45.4713  -17.9851   -6.4967 H   0  0  0  0  0  0  0  0  0  0  0  0
   43.8376  -20.0946   -5.0108 H   0  0  0  0  0  0  0  0  0  0  0  0
   43.2191  -18.9664   -6.2466 H   0  0  0  0  0  0  0  0  0  0  0  0
   43.0300  -20.7085   -6.4615 H   0  0  0  0  0  0  0  0  0  0  0  0
   47.0384  -18.9728   -8.1636 H   0  0  0  0  0  0  0  0  0  0  0  0
   47.6554  -20.0908   -6.9418 H   0  0  0  0  0  0  0  0  0  0  0  0
   49.8606  -19.6997  -11.7024 H   0  0  0  0  0  0  0  0  0  0  0  0
   53.3559  -17.8446   -4.5109 H   0  0  0  0  0  0  0  0  0  0  0  0
   53.4027  -15.3657   -4.5969 H   0  0  0  0  0  0  0  0  0  0  0  0
   49.4657  -17.4510  -12.6728 H   0  0  0  0  0  0  0  0  0  0  0  0
  2  1  1  0
  3  1  1  0
  4  6  1  0
  5  7  1  0
  6  2  2  0
  7  3  2  0
  8 14  1  0
  9  1  1  0
 10  2  1  0
 11  3  1  0
 12  6  1  0
 13  7  1  0
 14 16  1  0
 15  8  1  0
 16  9  1  0
 17 10  2  0
 18 11  2  0
 19 18  1  0
 20 17  1  0
  5  4  2  0
 19 13  2  0
 20 12  2  0
  1 21  1  0
  4 22  1  0
  5 23  1  0
  8 24  1  0
  9 25  1  0
  9 26  1  0
 10 27  1  0
 11 28  1  0
 12 29  1  0
 13 30  1  0
 14 31  1  0
 14 32  1  0
 15 33  1  0
 15 34  1  0
 15 35  1  0
 16 36  1  0
 16 37  1  0
 17 38  1  0
 18 39  1  0
 19 40  1  0
 20 41  1  0
M  END
> <Uni-Dock RESULT> 
ENERGY=   -4.325  LOWER_BOUND=    2.695  UPPER_BOUND=    5.824
INTER + INTRA:          -4.325
INTER:                  -4.325
INTRA:                   0.000
UNBOUND:                 0.000

$$$$

     RDKit          3D

 41 43  0  0  0  0  0  0  0  0999 V2000
   46.2362  -18.4546  -10.2157 C   0  0  0  0  0  0  0  0  0  0  0  0
   46.3568  -17.6424   -8.9324 C   0  0  0  0  0  0  0  0  0  0  0  0
   45.0430  -18.0364  -11.0703 C   0  0  0  0  0  0  0  0  0  0  0  0
   46.5058  -15.4199  -10.1449 C   0  0  0  0  0  0  0  0  0  0  0  0
   45.8109  -15.6276  -11.2734 C   0  0  0  0  0  0  0  0  0  0  0  0
   46.4798  -16.2404   -8.9266 C   0  0  0  0  0  0  0  0  0  0  0  0
   44.8693  -16.7224  -11.5443 C   0  0  0  0  0  0  0  0  0  0  0  0
   50.9780  -20.0730  -10.4982 N   0  0  0  0  0  0  0  0  0  0  0  0
   47.5406  -18.5204  -11.0482 C   0  0  0  0  0  0  0  0  0  0  0  0
   46.3596  -18.3293   -7.7002 C   0  0  0  0  0  0  0  0  0  0  0  0
   44.0878  -19.0154  -11.4150 C   0  0  0  0  0  0  0  0  0  0  0  0
   46.6300  -15.5688   -7.7007 C   0  0  0  0  0  0  0  0  0  0  0  0
   43.7651  -16.4280  -12.3630 C   0  0  0  0  0  0  0  0  0  0  0  0
   49.9176  -19.3605  -11.2117 C   0  0  0  0  0  0  0  0  0  0  0  0
   52.1709  -20.1990  -11.3242 C   0  0  0  0  0  0  0  0  0  0  0  0
   48.6772  -19.2521  -10.3210 C   0  0  0  0  0  0  0  0  0  0  0  0
   46.4962  -17.6468   -6.4921 C   0  0  0  0  0  0  0  0  0  0  0  0
   42.9907  -18.7034  -12.2172 C   0  0  0  0  0  0  0  0  0  0  0  0
   42.8300  -17.4089  -12.6937 C   0  0  0  0  0  0  0  0  0  0  0  0
   46.6345  -16.2651   -6.4921 C   0  0  0  0  0  0  0  0  0  0  0  0
   46.0355  -19.4914   -9.9077 H   0  0  0  0  0  0  0  0  0  0  0  0
   47.1453  -14.5405  -10.0962 H   0  0  0  0  0  0  0  0  0  0  0  0
   45.9238  -14.9047  -12.0792 H   0  0  0  0  0  0  0  0  0  0  0  0
   50.6493  -21.0014  -10.2356 H   0  0  0  0  0  0  0  0  0  0  0  0
   47.3344  -19.0504  -11.9881 H   0  0  0  0  0  0  0  0  0  0  0  0
   47.8896  -17.5222  -11.3335 H   0  0  0  0  0  0  0  0  0  0  0  0
   46.2621  -19.4128   -7.6756 H   0  0  0  0  0  0  0  0  0  0  0  0
   44.1958  -20.0377  -11.0585 H   0  0  0  0  0  0  0  0  0  0  0  0
   46.7340  -14.4859   -7.6773 H   0  0  0  0  0  0  0  0  0  0  0  0
   43.6171  -15.4192  -12.7429 H   0  0  0  0  0  0  0  0  0  0  0  0
   49.6604  -19.8923  -12.1357 H   0  0  0  0  0  0  0  0  0  0  0  0
   50.2589  -18.3541  -11.4819 H   0  0  0  0  0  0  0  0  0  0  0  0
   51.9691  -20.7691  -12.2369 H   0  0  0  0  0  0  0  0  0  0  0  0
   52.5700  -19.2164  -11.5962 H   0  0  0  0  0  0  0  0  0  0  0  0
   52.9487  -20.7261  -10.7630 H   0  0  0  0  0  0  0  0  0  0  0  0
   48.9382  -18.7171   -9.4001 H   0  0  0  0  0  0  0  0  0  0  0  0
   48.3389  -20.2550  -10.0319 H   0  0  0  0  0  0  0  0  0  0  0  0
   46.4985  -18.1954   -5.5541 H   0  0  0  0  0  0  0  0  0  0  0  0
   42.2648  -19.4718  -12.4695 H   0  0  0  0  0  0  0  0  0  0  0  0
   41.9782  -17.1590  -13.3201 H   0  0  0  0  0  0  0  0  0  0  0  0
   46.7444  -15.7270   -5.5548 H   0  0  0  0  0  0  0  0  0  0  0  0
  2  1  1  0
  3  1  1  0
  4  6  1  0
  5  7  1  0
  6  2  2  0
  7  3  2  0
  8 14  1  0
  9  1  1  0
 10  2  1  0
 11  3  1  0
 12  6  1  0
 13  7  1  0
 14 16  1  0
 15  8  1  0
 16  9  1  0
 17 10  2  0
 18 11  2  0
 19 18  1  0
 20 17  1  0
  5  4  2  0
 19 13  2  0
 20 12  2  0
  1 21  1  0
  4 22  1  0
  5 23  1  0
  8 24  1  0
  9 25  1  0
  9 26  1  0
 10 27  1  0
 11 28  1  0
 12 29  1  0
 13 30  1  0
 14 31  1  0
 14 32  1  0
 15 33  1  0
 15 34  1  0
 15 35  1  0
 16 36  1  0
 16 37  1  0
 17 38  1  0
 18 39  1  0
 19 40  1  0
 20 41  1  0
M  END
> <Uni-Dock RESULT> 
ENERGY=   -4.037  LOWER_BOUND=    4.006  UPPER_BOUND=    5.342
INTER + INTRA:          -4.037
INTER:                  -4.037
INTRA:                   0.000
UNBOUND:                 0.000

$$$$

     RDKit          3D

 41 43  0  0  0  0  0  0  0  0999 V2000
   45.9839  -15.1739  -12.4819 C   0  0  0  0  0  0  0  0  0  0  0  0
   44.4801  -15.2883  -12.6979 C   0  0  0  0  0  0  0  0  0  0  0  0
   46.6279  -14.1052  -13.3605 C   0  0  0  0  0  0  0  0  0  0  0  0
   44.0334  -12.8622  -12.1090 C   0  0  0  0  0  0  0  0  0  0  0  0
   45.1673  -12.2372  -12.4602 C   0  0  0  0  0  0  0  0  0  0  0  0
   43.6001  -14.2046  -12.5194 C   0  0  0  0  0  0  0  0  0  0  0  0
   46.2300  -12.7552  -13.3325 C   0  0  0  0  0  0  0  0  0  0  0  0
   46.2261  -17.2831   -7.9347 N   0  0  0  0  0  0  0  0  0  0  0  0
   46.4006  -15.0215  -10.9979 C   0  0  0  0  0  0  0  0  0  0  0  0
   43.9492  -16.5385  -13.0787 C   0  0  0  0  0  0  0  0  0  0  0  0
   47.6798  -14.4863  -14.2195 C   0  0  0  0  0  0  0  0  0  0  0  0
   42.2198  -14.4038  -12.6969 C   0  0  0  0  0  0  0  0  0  0  0  0
   46.9036  -11.8237  -14.1417 C   0  0  0  0  0  0  0  0  0  0  0  0
   46.5563  -16.0891   -8.7136 C   0  0  0  0  0  0  0  0  0  0  0  0
   46.6968  -17.1589   -6.5621 C   0  0  0  0  0  0  0  0  0  0  0  0
   46.0561  -16.2543  -10.1510 C   0  0  0  0  0  0  0  0  0  0  0  0
   42.5786  -16.7161  -13.2636 C   0  0  0  0  0  0  0  0  0  0  0  0
   48.3287  -13.5518  -15.0259 C   0  0  0  0  0  0  0  0  0  0  0  0
   47.9418  -12.2185  -14.9855 C   0  0  0  0  0  0  0  0  0  0  0  0
   41.7123  -15.6484  -13.0697 C   0  0  0  0  0  0  0  0  0  0  0  0
   46.4168  -16.1310  -12.8083 H   0  0  0  0  0  0  0  0  0  0  0  0
   43.3333  -12.3252  -11.4719 H   0  0  0  0  0  0  0  0  0  0  0  0
   45.3253  -11.2262  -12.0891 H   0  0  0  0  0  0  0  0  0  0  0  0
   46.6540  -18.1016   -8.3659 H   0  0  0  0  0  0  0  0  0  0  0  0
   47.4864  -14.8617  -10.9497 H   0  0  0  0  0  0  0  0  0  0  0  0
   45.9436  -14.1388  -10.5378 H   0  0  0  0  0  0  0  0  0  0  0  0
   44.6074  -17.3922  -13.2272 H   0  0  0  0  0  0  0  0  0  0  0  0
   48.0044  -15.5239  -14.2638 H   0  0  0  0  0  0  0  0  0  0  0  0
   41.5236  -13.5794  -12.5559 H   0  0  0  0  0  0  0  0  0  0  0  0
   46.6134  -10.7751  -14.1297 H   0  0  0  0  0  0  0  0  0  0  0  0
   47.6412  -15.9293   -8.7187 H   0  0  0  0  0  0  0  0  0  0  0  0
   46.0844  -15.2069   -8.2647 H   0  0  0  0  0  0  0  0  0  0  0  0
   47.7851  -17.0475   -6.5192 H   0  0  0  0  0  0  0  0  0  0  0  0
   46.2290  -16.3067   -6.0585 H   0  0  0  0  0  0  0  0  0  0  0  0
   46.4283  -18.0599   -6.0019 H   0  0  0  0  0  0  0  0  0  0  0  0
   44.9708  -16.4107  -10.1411 H   0  0  0  0  0  0  0  0  0  0  0  0
   46.5107  -17.1452  -10.6022 H   0  0  0  0  0  0  0  0  0  0  0  0
   42.1900  -17.6884  -13.5544 H   0  0  0  0  0  0  0  0  0  0  0  0
   49.1354  -13.8662  -15.6825 H   0  0  0  0  0  0  0  0  0  0  0  0
   48.4437  -11.4849  -15.6103 H   0  0  0  0  0  0  0  0  0  0  0  0
   40.6429  -15.7802  -13.2090 H   0  0  0  0  0  0  0  0  0  0  0  0
  2  1  1  0
  3  1  1  0
  4  6  1  0
  5  7  1  0
  6  2  2  0
  7  3  2  0
  8 14  1  0
  9  1  1  0
 10  2  1  0
 11  3  1  0
 12  6  1  0
 13  7  1  0
 14 16  1  0
 15  8  1  0
 16  9  1  0
 17 10  2  0
 18 11  2  0
 19 18  1  0
 20 17  1  0
  5  4  2  0
 19 13  2  0
 20 12  2  0
  1 21  1  0
  4 22  1  0
  5 23  1  0
  8 24  1  0
  9 25  1  0
  9 26  1  0
 10 27  1  0
 11 28  1  0
 12 29  1  0
 13 30  1  0
 14 31  1  0
 14 32  1  0
 15 33  1  0
 15 34  1  0
 15 35  1  0
 16 36  1  0
 16 37  1  0
 17 38  1  0
 18 39  1  0
 19 40  1  0
 20 41  1  0
M  END
> <Uni-Dock RESULT> 
ENERGY=   -4.036  LOWER_BOUND=    6.441  UPPER_BOUND=    9.145
INTER + INTRA:          -4.036
INTER:                  -4.036
INTRA:                   0.000
UNBOUND:                 0.000

$$$$

     RDKit          3D

 41 43  0  0  0  0  0  0  0  0999 V2000
   46.7745  -16.0539   -9.6591 C   0  0  0  0  0  0  0  0  0  0  0  0
   48.0680  -16.0258   -8.8547 C   0  0  0  0  0  0  0  0  0  0  0  0
   46.9834  -15.6942  -11.1274 C   0  0  0  0  0  0  0  0  0  0  0  0
   49.2267  -17.7357  -10.3264 C   0  0  0  0  0  0  0  0  0  0  0  0
   48.6548  -17.5596  -11.5270 C   0  0  0  0  0  0  0  0  0  0  0  0
   49.1875  -16.8126   -9.1842 C   0  0  0  0  0  0  0  0  0  0  0  0
   47.8602  -16.4052  -11.9682 C   0  0  0  0  0  0  0  0  0  0  0  0
   44.0902  -19.0042   -6.6138 N   0  0  0  0  0  0  0  0  0  0  0  0
   45.9589  -17.3611   -9.5011 C   0  0  0  0  0  0  0  0  0  0  0  0
   48.1379  -15.1855   -7.7238 C   0  0  0  0  0  0  0  0  0  0  0  0
   46.2491  -14.6168  -11.6659 C   0  0  0  0  0  0  0  0  0  0  0  0
   50.3288  -16.7611   -8.3650 C   0  0  0  0  0  0  0  0  0  0  0  0
   47.9633  -16.0378  -13.3212 C   0  0  0  0  0  0  0  0  0  0  0  0
   44.5785  -18.8346   -7.9828 C   0  0  0  0  0  0  0  0  0  0  0  0
   43.2572  -20.1933   -6.4991 C   0  0  0  0  0  0  0  0  0  0  0  0
   45.4425  -17.5740   -8.0715 C   0  0  0  0  0  0  0  0  0  0  0  0
   49.2826  -15.1361   -6.9292 C   0  0  0  0  0  0  0  0  0  0  0  0
   46.3733  -14.2568  -13.0074 C   0  0  0  0  0  0  0  0  0  0  0  0
   47.2297  -14.9693  -13.8367 C   0  0  0  0  0  0  0  0  0  0  0  0
   50.3785  -15.9269   -7.2482 C   0  0  0  0  0  0  0  0  0  0  0  0
   46.1352  -15.2607   -9.2443 H   0  0  0  0  0  0  0  0  0  0  0  0
   49.8081  -18.6421  -10.1682 H   0  0  0  0  0  0  0  0  0  0  0  0
   48.8037  -18.3329  -12.2783 H   0  0  0  0  0  0  0  0  0  0  0  0
   43.5490  -18.1849   -6.3399 H   0  0  0  0  0  0  0  0  0  0  0  0
   45.0948  -17.3233  -10.1785 H   0  0  0  0  0  0  0  0  0  0  0  0
   46.5404  -18.2397   -9.8004 H   0  0  0  0  0  0  0  0  0  0  0  0
   47.2884  -14.5638   -7.4485 H   0  0  0  0  0  0  0  0  0  0  0  0
   45.5676  -14.0477  -11.0370 H   0  0  0  0  0  0  0  0  0  0  0  0
   51.2010  -17.3679   -8.5999 H   0  0  0  0  0  0  0  0  0  0  0  0
   48.6321  -16.5791  -13.9875 H   0  0  0  0  0  0  0  0  0  0  0  0
   43.7341  -18.7504   -8.6775 H   0  0  0  0  0  0  0  0  0  0  0  0
   45.1763  -19.7053   -8.2776 H   0  0  0  0  0  0  0  0  0  0  0  0
   42.3731  -20.1279   -7.1416 H   0  0  0  0  0  0  0  0  0  0  0  0
   43.8198  -21.0973   -6.7543 H   0  0  0  0  0  0  0  0  0  0  0  0
   42.9148  -20.3000   -5.4651 H   0  0  0  0  0  0  0  0  0  0  0  0
   46.2869  -17.6640   -7.3777 H   0  0  0  0  0  0  0  0  0  0  0  0
   44.8565  -16.6997   -7.7616 H   0  0  0  0  0  0  0  0  0  0  0  0
   49.3147  -14.4838   -6.0607 H   0  0  0  0  0  0  0  0  0  0  0  0
   45.8004  -13.4221  -13.4023 H   0  0  0  0  0  0  0  0  0  0  0  0
   47.3305  -14.6950  -14.8832 H   0  0  0  0  0  0  0  0  0  0  0  0
   51.2726  -15.8960   -6.6318 H   0  0  0  0  0  0  0  0  0  0  0  0
  2  1  1  0
  3  1  1  0
  4  6  1  0
  5  7  1  0
  6  2  2  0
  7  3  2  0
  8 14  1  0
  9  1  1  0
 10  2  1  0
 11  3  1  0
 12  6  1  0
 13  7  1  0
 14 16  1  0
 15  8  1  0
 16  9  1  0
 17 10  2  0
 18 11  2  0
 19 18  1  0
 20 17  1  0
  5  4  2  0
 19 13  2  0
 20 12  2  0
  1 21  1  0
  4 22  1  0
  5 23  1  0
  8 24  1  0
  9 25  1  0
  9 26  1  0
 10 27  1  0
 11 28  1  0
 12 29  1  0
 13 30  1  0
 14 31  1  0
 14 32  1  0
 15 33  1  0
 15 34  1  0
 15 35  1  0
 16 36  1  0
 16 37  1  0
 17 38  1  0
 18 39  1  0
 19 40  1  0
 20 41  1  0
M  END
> <Uni-Dock RESULT> 
ENERGY=   -4.012  LOWER_BOUND=    4.059  UPPER_BOUND=    6.357
INTER + INTRA:          -4.012
INTER:                  -4.012
INTRA:                   0.000
UNBOUND:                 0.000

$$$$
