
     RDKit          3D

 41 43  0  0  0  0  0  0  0  0999 V2000
   50.0802  -17.0304   -8.0314 C   0  0  0  0  0  0  0  0  0  0  0  0
   48.6334  -16.9258   -7.5651 C   0  0  0  0  0  0  0  0  0  0  0  0
   51.0798  -16.5659   -6.9742 C   0  0  0  0  0  0  0  0  0  0  0  0
   48.7768  -14.4383   -7.0892 C   0  0  0  0  0  0  0  0  0  0  0  0
   50.0671  -14.2486   -6.7761 C   0  0  0  0  0  0  0  0  0  0  0  0
   48.0556  -15.7172   -7.1336 C   0  0  0  0  0  0  0  0  0  0  0  0
   51.0495  -15.2771   -6.4090 C   0  0  0  0  0  0  0  0  0  0  0  0
   49.2592  -18.8521  -12.1092 N   0  0  0  0  0  0  0  0  0  0  0  0
   50.3518  -16.3635   -9.4041 C   0  0  0  0  0  0  0  0  0  0  0  0
   47.8360  -18.0895   -7.5843 C   0  0  0  0  0  0  0  0  0  0  0  0
   52.0890  -17.4632   -6.5653 C   0  0  0  0  0  0  0  0  0  0  0  0
   46.7001  -15.6976   -6.7602 C   0  0  0  0  0  0  0  0  0  0  0  0
   52.0337  -14.9141   -5.4728 C   0  0  0  0  0  0  0  0  0  0  0  0
   49.9886  -18.3927  -10.9265 C   0  0  0  0  0  0  0  0  0  0  0  0
   49.6640  -20.1990  -12.4867 C   0  0  0  0  0  0  0  0  0  0  0  0
   49.5719  -16.9590  -10.5868 C   0  0  0  0  0  0  0  0  0  0  0  0
   46.4962  -18.0556   -7.1991 C   0  0  0  0  0  0  0  0  0  0  0  0
   53.0497  -17.0916   -5.6254 C   0  0  0  0  0  0  0  0  0  0  0  0
   53.0236  -15.8150   -5.0800 C   0  0  0  0  0  0  0  0  0  0  0  0
   45.9266  -16.8578   -6.7886 C   0  0  0  0  0  0  0  0  0  0  0  0
   50.2824  -18.1006   -8.1683 H   0  0  0  0  0  0  0  0  0  0  0  0
   48.1743  -13.5601   -7.3141 H   0  0  0  0  0  0  0  0  0  0  0  0
   50.4410  -13.2265   -6.7638 H   0  0  0  0  0  0  0  0  0  0  0  0
   49.4336  -18.2162  -12.8873 H   0  0  0  0  0  0  0  0  0  0  0  0
   50.1246  -15.2923   -9.3693 H   0  0  0  0  0  0  0  0  0  0  0  0
   51.4248  -16.4298   -9.6308 H   0  0  0  0  0  0  0  0  0  0  0  0
   48.2554  -19.0384   -7.9122 H   0  0  0  0  0  0  0  0  0  0  0  0
   52.1339  -18.4671   -6.9826 H   0  0  0  0  0  0  0  0  0  0  0  0
   46.2349  -14.7709   -6.4305 H   0  0  0  0  0  0  0  0  0  0  0  0
   52.0291  -13.9206   -5.0291 H   0  0  0  0  0  0  0  0  0  0  0  0
   51.0691  -18.4239  -11.1112 H   0  0  0  0  0  0  0  0  0  0  0  0
   49.7667  -19.0589  -10.0870 H   0  0  0  0  0  0  0  0  0  0  0  0
   50.7280  -20.2421  -12.7412 H   0  0  0  0  0  0  0  0  0  0  0  0
   49.4583  -20.9141  -11.6835 H   0  0  0  0  0  0  0  0  0  0  0  0
   49.0945  -20.5181  -13.3650 H   0  0  0  0  0  0  0  0  0  0  0  0
   48.4939  -16.9117  -10.3926 H   0  0  0  0  0  0  0  0  0  0  0  0
   49.7554  -16.3191  -11.4604 H   0  0  0  0  0  0  0  0  0  0  0  0
   45.8996  -18.9634   -7.2255 H   0  0  0  0  0  0  0  0  0  0  0  0
   53.8171  -17.7988   -5.3224 H   0  0  0  0  0  0  0  0  0  0  0  0
   53.7696  -15.5180   -4.3479 H   0  0  0  0  0  0  0  0  0  0  0  0
   44.8826  -16.8235   -6.4899 H   0  0  0  0  0  0  0  0  0  0  0  0
  2  1  1  0
  3  1  1  0
  4  6  1  0
  5  7  1  0
  6  2  2  0
  7  3  2  0
  8 14  1  0
  9  1  1  0
 10  2  1  0
 11  3  1  0
 12  6  1  0
 13  7  1  0
 14 16  1  0
 15  8  1  0
 16  9  1  0
 17 10  2  0
 18 11  2  0
 19 18  1  0
 20 17  1  0
  5  4  2  0
 19 13  2  0
 20 12  2  0
  1 21  1  0
  4 22  1  0
  5 23  1  0
  8 24  1  0
  9 25  1  0
  9 26  1  0
 10 27  1  0
 11 28  1  0
 12 29  1  0
 13 30  1  0
 14 31  1  0
 14 32  1  0
 15 33  1  0
 15 34  1  0
 15 35  1  0
 16 36  1  0
 16 37  1  0
 17 38  1  0
 18 39  1  0
 19 40  1  0
 20 41  1  0
M  END
> <Uni-Dock RESULT> 
ENERGY=   -5.729  LOWER_BOUND=    0.000  UPPER_BOUND=    0.000
INTER + INTRA:          -5.729
INTER:                  -5.729
INTRA:                   0.000
UNBOUND:                 0.000

$$$$

     RDKit          3D

 41 43  0  0  0  0  0  0  0  0999 V2000
   50.0909  -17.0256   -8.0346 C   0  0  0  0  0  0  0  0  0  0  0  0
   48.6430  -16.9400   -7.5679 C   0  0  0  0  0  0  0  0  0  0  0  0
   51.0848  -16.5487   -6.9774 C   0  0  0  0  0  0  0  0  0  0  0  0
   48.7543  -14.4510   -7.0910 C   0  0  0  0  0  0  0  0  0  0  0  0
   50.0421  -14.2447   -6.7782 C   0  0  0  0  0  0  0  0  0  0  0  0
   48.0497  -15.7392   -7.1357 C   0  0  0  0  0  0  0  0  0  0  0  0
   51.0379  -15.2606   -6.4117 C   0  0  0  0  0  0  0  0  0  0  0  0
   49.2925  -18.8563  -12.1129 N   0  0  0  0  0  0  0  0  0  0  0  0
   50.3535  -16.3548   -9.4071 C   0  0  0  0  0  0  0  0  0  0  0  0
   47.8607  -18.1139   -7.5872 C   0  0  0  0  0  0  0  0  0  0  0  0
   52.1056  -17.4330   -6.5692 C   0  0  0  0  0  0  0  0  0  0  0  0
   46.6942  -15.7372   -6.7620 C   0  0  0  0  0  0  0  0  0  0  0  0
   52.0176  -14.8853   -5.4757 C   0  0  0  0  0  0  0  0  0  0  0  0
   50.0162  -18.3879  -10.9302 C   0  0  0  0  0  0  0  0  0  0  0  0
   49.7146  -20.1977  -12.4909 C   0  0  0  0  0  0  0  0  0  0  0  0
   49.5811  -16.9599  -10.5898 C   0  0  0  0  0  0  0  0  0  0  0  0
   46.5208  -18.0975   -7.2017 C   0  0  0  0  0  0  0  0  0  0  0  0
   53.0617  -17.0494   -5.6294 C   0  0  0  0  0  0  0  0  0  0  0  0
   53.0191  -15.7734   -5.0834 C   0  0  0  0  0  0  0  0  0  0  0  0
   45.9358  -16.9073   -6.7906 C   0  0  0  0  0  0  0  0  0  0  0  0
   50.3070  -18.0931   -8.1719 H   0  0  0  0  0  0  0  0  0  0  0  0
   48.1404  -13.5806   -7.3154 H   0  0  0  0  0  0  0  0  0  0  0  0
   50.4028  -13.2179   -6.7656 H   0  0  0  0  0  0  0  0  0  0  0  0
   49.4584  -18.2179  -12.8907 H   0  0  0  0  0  0  0  0  0  0  0  0
   50.1124  -15.2866   -9.3718 H   0  0  0  0  0  0  0  0  0  0  0  0
   51.4272  -16.4071   -9.6340 H   0  0  0  0  0  0  0  0  0  0  0  0
   48.2924  -19.0572   -7.9156 H   0  0  0  0  0  0  0  0  0  0  0  0
   52.1633  -18.4361   -6.9869 H   0  0  0  0  0  0  0  0  0  0  0  0
   46.2171  -14.8167   -6.4318 H   0  0  0  0  0  0  0  0  0  0  0  0
   52.0002  -13.8920   -5.0316 H   0  0  0  0  0  0  0  0  0  0  0  0
   51.0970  -18.4051  -11.1152 H   0  0  0  0  0  0  0  0  0  0  0  0
   49.8032  -19.0573  -10.0909 H   0  0  0  0  0  0  0  0  0  0  0  0
   50.7790  -20.2269  -12.7458 H   0  0  0  0  0  0  0  0  0  0  0  0
   49.5184  -20.9158  -11.6880 H   0  0  0  0  0  0  0  0  0  0  0  0
   49.1490  -20.5238  -13.3692 H   0  0  0  0  0  0  0  0  0  0  0  0
   48.5026  -16.9266  -10.3953 H   0  0  0  0  0  0  0  0  0  0  0  0
   49.7560  -16.3173  -11.4632 H   0  0  0  0  0  0  0  0  0  0  0  0
   45.9360  -19.0129   -7.2283 H   0  0  0  0  0  0  0  0  0  0  0  0
   53.8382  -17.7467   -5.3268 H   0  0  0  0  0  0  0  0  0  0  0  0
   53.7614  -15.4670   -4.3515 H   0  0  0  0  0  0  0  0  0  0  0  0
   44.8915  -16.8866   -6.4916 H   0  0  0  0  0  0  0  0  0  0  0  0
  2  1  1  0
  3  1  1  0
  4  6  1  0
  5  7  1  0
  6  2  2  0
  7  3  2  0
  8 14  1  0
  9  1  1  0
 10  2  1  0
 11  3  1  0
 12  6  1  0
 13  7  1  0
 14 16  1  0
 15  8  1  0
 16  9  1  0
 17 10  2  0
 18 11  2  0
 19 18  1  0
 20 17  1  0
  5  4  2  0
 19 13  2  0
 20 12  2  0
  1 21  1  0
  4 22  1  0
  5 23  1  0
  8 24  1  0
  9 25  1  0
  9 26  1  0
 10 27  1  0
 11 28  1  0
 12 29  1  0
 13 30  1  0
 14 31  1  0
 14 32  1  0
 15 33  1  0
 15 34  1  0
 15 35  1  0
 16 36  1  0
 16 37  1  0
 17 38  1  0
 18 39  1  0
 19 40  1  0
 20 41  1  0
M  END
> <Uni-Dock RESULT> 
ENERGY=   -5.720  LOWER_BOUND=    0.033  UPPER_BOUND=    0.033
INTER + INTRA:          -5.720
INTER:                  -5.720
INTRA:                   0.000
UNBOUND:                 0.000

$$$$

     RDKit          3D

 41 43  0  0  0  0  0  0  0  0999 V2000
   47.8500  -17.1066   -7.9361 C   0  0  0  0  0  0  0  0  0  0  0  0
   48.9396  -16.1922   -7.3900 C   0  0  0  0  0  0  0  0  0  0  0  0
   47.4223  -18.1819   -6.9392 C   0  0  0  0  0  0  0  0  0  0  0  0
   50.5586  -18.0918   -6.9368 C   0  0  0  0  0  0  0  0  0  0  0  0
   49.7582  -19.1411   -6.6976 C   0  0  0  0  0  0  0  0  0  0  0  0
   50.1814  -16.6721   -6.9335 C   0  0  0  0  0  0  0  0  0  0  0  0
   48.3244  -19.1068   -6.3804 C   0  0  0  0  0  0  0  0  0  0  0  0
   47.3106  -15.0549  -11.9511 N   0  0  0  0  0  0  0  0  0  0  0  0
   48.1717  -17.7137   -9.3256 C   0  0  0  0  0  0  0  0  0  0  0  0
   48.6964  -14.8029   -7.3578 C   0  0  0  0  0  0  0  0  0  0  0  0
   46.0596  -18.2619   -6.5826 C   0  0  0  0  0  0  0  0  0  0  0  0
   51.1498  -15.7566   -6.4848 C   0  0  0  0  0  0  0  0  0  0  0  0
   47.8412  -20.0935   -5.5030 C   0  0  0  0  0  0  0  0  0  0  0  0
   47.0680  -15.9434  -10.8138 C   0  0  0  0  0  0  0  0  0  0  0  0
   46.0937  -14.3577  -12.3431 C   0  0  0  0  0  0  0  0  0  0  0  0
   48.3554  -16.6927  -10.4593 C   0  0  0  0  0  0  0  0  0  0  0  0
   49.6631  -13.9091   -6.8983 C   0  0  0  0  0  0  0  0  0  0  0  0
   45.5991  -19.2385   -5.7001 C   0  0  0  0  0  0  0  0  0  0  0  0
   46.4903  -20.1568   -5.1612 C   0  0  0  0  0  0  0  0  0  0  0  0
   50.8923  -14.3861   -6.4632 C   0  0  0  0  0  0  0  0  0  0  0  0
   46.9624  -16.4764   -8.0780 H   0  0  0  0  0  0  0  0  0  0  0  0
   51.6108  -18.2897   -7.1325 H   0  0  0  0  0  0  0  0  0  0  0  0
   50.2051  -20.1335   -6.7121 H   0  0  0  0  0  0  0  0  0  0  0  0
   47.6587  -15.5976  -12.7413 H   0  0  0  0  0  0  0  0  0  0  0  0
   49.0815  -18.3227   -9.2841 H   0  0  0  0  0  0  0  0  0  0  0  0
   47.3672  -18.4051   -9.6117 H   0  0  0  0  0  0  0  0  0  0  0  0
   47.7454  -14.4027   -7.7034 H   0  0  0  0  0  0  0  0  0  0  0  0
   45.3409  -17.5572   -6.9960 H   0  0  0  0  0  0  0  0  0  0  0  0
   52.1178  -16.1091   -6.1348 H   0  0  0  0  0  0  0  0  0  0  0  0
   48.5229  -20.8200   -5.0654 H   0  0  0  0  0  0  0  0  0  0  0  0
   46.2810  -16.6668  -11.0586 H   0  0  0  0  0  0  0  0  0  0  0  0
   46.7304  -15.3484   -9.9594 H   0  0  0  0  0  0  0  0  0  0  0  0
   45.3129  -15.0581  -12.6567 H   0  0  0  0  0  0  0  0  0  0  0  0
   45.7118  -13.7375  -11.5257 H   0  0  0  0  0  0  0  0  0  0  0  0
   46.3093  -13.6942  -13.1863 H   0  0  0  0  0  0  0  0  0  0  0  0
   49.1514  -15.9828  -10.2052 H   0  0  0  0  0  0  0  0  0  0  0  0
   48.7032  -17.2405  -11.3454 H   0  0  0  0  0  0  0  0  0  0  0  0
   49.4557  -12.8426   -6.8861 H   0  0  0  0  0  0  0  0  0  0  0  0
   44.5457  -19.2812   -5.4366 H   0  0  0  0  0  0  0  0  0  0  0  0
   46.1386  -20.9212   -4.4739 H   0  0  0  0  0  0  0  0  0  0  0  0
   51.6512  -13.6952   -6.1066 H   0  0  0  0  0  0  0  0  0  0  0  0
  2  1  1  0
  3  1  1  0
  4  6  1  0
  5  7  1  0
  6  2  2  0
  7  3  2  0
  8 14  1  0
  9  1  1  0
 10  2  1  0
 11  3  1  0
 12  6  1  0
 13  7  1  0
 14 16  1  0
 15  8  1  0
 16  9  1  0
 17 10  2  0
 18 11  2  0
 19 18  1  0
 20 17  1  0
  5  4  2  0
 19 13  2  0
 20 12  2  0
  1 21  1  0
  4 22  1  0
  5 23  1  0
  8 24  1  0
  9 25  1  0
  9 26  1  0
 10 27  1  0
 11 28  1  0
 12 29  1  0
 13 30  1  0
 14 31  1  0
 14 32  1  0
 15 33  1  0
 15 34  1  0
 15 35  1  0
 16 36  1  0
 16 37  1  0
 17 38  1  0
 18 39  1  0
 19 40  1  0
 20 41  1  0
M  END
> <Uni-Dock RESULT> 
ENERGY=   -5.517  LOWER_BOUND=    2.117  UPPER_BOUND=    4.849
INTER + INTRA:          -5.517
INTER:                  -5.517
INTRA:                   0.000
UNBOUND:                 0.000

$$$$

     RDKit          3D

 41 43  0  0  0  0  0  0  0  0999 V2000
   47.9733  -17.0729   -7.8638 C   0  0  0  0  0  0  0  0  0  0  0  0
   49.0139  -16.1024   -7.3189 C   0  0  0  0  0  0  0  0  0  0  0  0
   47.5980  -18.1644   -6.8635 C   0  0  0  0  0  0  0  0  0  0  0  0
   50.7257  -17.9159   -6.8544 C   0  0  0  0  0  0  0  0  0  0  0  0
   49.9788  -19.0034   -6.6127 C   0  0  0  0  0  0  0  0  0  0  0  0
   50.2772  -16.5171   -6.8577 C   0  0  0  0  0  0  0  0  0  0  0  0
   48.5443  -19.0404   -6.2989 C   0  0  0  0  0  0  0  0  0  0  0  0
   47.3409  -15.0670  -11.8884 N   0  0  0  0  0  0  0  0  0  0  0  0
   48.3287  -17.6685   -9.2500 C   0  0  0  0  0  0  0  0  0  0  0  0
   48.7008  -14.7270   -7.2930 C   0  0  0  0  0  0  0  0  0  0  0  0
   46.2402  -18.3118   -6.5096 C   0  0  0  0  0  0  0  0  0  0  0  0
   51.1971  -15.5521   -6.4106 C   0  0  0  0  0  0  0  0  0  0  0  0
   48.1094  -20.0467   -5.4185 C   0  0  0  0  0  0  0  0  0  0  0  0
   47.1406  -15.9621  -10.7480 C   0  0  0  0  0  0  0  0  0  0  0  0
   46.0913  -14.4338  -12.2860 C   0  0  0  0  0  0  0  0  0  0  0  0
   48.4633  -16.6439  -10.3875 C   0  0  0  0  0  0  0  0  0  0  0  0
   49.6200  -13.7837   -6.8350 C   0  0  0  0  0  0  0  0  0  0  0  0
   45.8274  -19.3069   -5.6242 C   0  0  0  0  0  0  0  0  0  0  0  0
   46.7626  -20.1768   -5.0795 C   0  0  0  0  0  0  0  0  0  0  0  0
   50.8706  -14.1963   -6.3952 C   0  0  0  0  0  0  0  0  0  0  0  0
   47.0554  -16.4889   -8.0103 H   0  0  0  0  0  0  0  0  0  0  0  0
   51.7871  -18.0613   -7.0469 H   0  0  0  0  0  0  0  0  0  0  0  0
   50.4753  -19.9720   -6.6221 H   0  0  0  0  0  0  0  0  0  0  0  0
   47.7178  -15.5946  -12.6756 H   0  0  0  0  0  0  0  0  0  0  0  0
   49.2680  -18.2306   -9.2040 H   0  0  0  0  0  0  0  0  0  0  0  0
   47.5609  -18.4007   -9.5351 H   0  0  0  0  0  0  0  0  0  0  0  0
   47.7317  -14.3768   -7.6424 H   0  0  0  0  0  0  0  0  0  0  0  0
   45.4879  -17.6459   -6.9276 H   0  0  0  0  0  0  0  0  0  0  0  0
   52.1808  -15.8538   -6.0569 H   0  0  0  0  0  0  0  0  0  0  0  0
   48.8258  -20.7360   -4.9764 H   0  0  0  0  0  0  0  0  0  0  0  0
   46.3918  -16.7253  -10.9916 H   0  0  0  0  0  0  0  0  0  0  0  0
   46.7713  -15.3815   -9.8968 H   0  0  0  0  0  0  0  0  0  0  0  0
   45.3476  -15.1740  -12.5985 H   0  0  0  0  0  0  0  0  0  0  0  0
   45.6764  -13.8304  -11.4720 H   0  0  0  0  0  0  0  0  0  0  0  0
   46.2751  -13.7636  -13.1314 H   0  0  0  0  0  0  0  0  0  0  0  0
   49.2218  -15.8938  -10.1345 H   0  0  0  0  0  0  0  0  0  0  0  0
   48.8406  -17.1771  -11.2706 H   0  0  0  0  0  0  0  0  0  0  0  0
   49.3589  -12.7290   -6.8277 H   0  0  0  0  0  0  0  0  0  0  0  0
   44.7770  -19.4017   -5.3629 H   0  0  0  0  0  0  0  0  0  0  0  0
   46.4482  -20.9553   -4.3898 H   0  0  0  0  0  0  0  0  0  0  0  0
   51.5927  -13.4665   -6.0397 H   0  0  0  0  0  0  0  0  0  0  0  0
  2  1  1  0
  3  1  1  0
  4  6  1  0
  5  7  1  0
  6  2  2  0
  7  3  2  0
  8 14  1  0
  9  1  1  0
 10  2  1  0
 11  3  1  0
 12  6  1  0
 13  7  1  0
 14 16  1  0
 15  8  1  0
 16  9  1  0
 17 10  2  0
 18 11  2  0
 19 18  1  0
 20 17  1  0
  5  4  2  0
 19 13  2  0
 20 12  2  0
  1 21  1  0
  4 22  1  0
  5 23  1  0
  8 24  1  0
  9 25  1  0
  9 26  1  0
 10 27  1  0
 11 28  1  0
 12 29  1  0
 13 30  1  0
 14 31  1  0
 14 32  1  0
 15 33  1  0
 15 34  1  0
 15 35  1  0
 16 36  1  0
 16 37  1  0
 17 38  1  0
 18 39  1  0
 19 40  1  0
 20 41  1  0
M  END
> <Uni-Dock RESULT> 
ENERGY=   -5.366  LOWER_BOUND=    2.106  UPPER_BOUND=    4.766
INTER + INTRA:          -5.366
INTER:                  -5.366
INTRA:                   0.000
UNBOUND:                 0.000

$$$$

     RDKit          3D

 41 43  0  0  0  0  0  0  0  0999 V2000
   45.7530  -18.9997   -9.0060 C   0  0  0  0  0  0  0  0  0  0  0  0
   46.3316  -17.6894   -8.4865 C   0  0  0  0  0  0  0  0  0  0  0  0
   44.3987  -19.3379   -8.3862 C   0  0  0  0  0  0  0  0  0  0  0  0
   46.2960  -18.4263   -6.0595 C   0  0  0  0  0  0  0  0  0  0  0  0
   45.2754  -19.2949   -6.0062 C   0  0  0  0  0  0  0  0  0  0  0  0
   46.5718  -17.4489   -7.1209 C   0  0  0  0  0  0  0  0  0  0  0  0
   44.2052  -19.4654   -6.9978 C   0  0  0  0  0  0  0  0  0  0  0  0
   49.0543  -19.9731  -11.9683 N   0  0  0  0  0  0  0  0  0  0  0  0
   46.7318  -20.1990   -8.9255 C   0  0  0  0  0  0  0  0  0  0  0  0
   46.6557  -16.6819   -9.4195 C   0  0  0  0  0  0  0  0  0  0  0  0
   43.3019  -19.5526   -9.2473 C   0  0  0  0  0  0  0  0  0  0  0  0
   47.1488  -16.2281   -6.7285 C   0  0  0  0  0  0  0  0  0  0  0  0
   42.9353  -19.8222   -6.5110 C   0  0  0  0  0  0  0  0  0  0  0  0
   47.7749  -20.0366  -11.2605 C   0  0  0  0  0  0  0  0  0  0  0  0
   48.8594  -20.0039  -13.4111 C   0  0  0  0  0  0  0  0  0  0  0  0
   48.0204  -20.0487   -9.7492 C   0  0  0  0  0  0  0  0  0  0  0  0
   47.2162  -15.4716   -9.0127 C   0  0  0  0  0  0  0  0  0  0  0  0
   42.0454  -19.8927   -8.7471 C   0  0  0  0  0  0  0  0  0  0  0  0
   41.8622  -20.0299   -7.3776 C   0  0  0  0  0  0  0  0  0  0  0  0
   47.4653  -15.2450   -7.6657 C   0  0  0  0  0  0  0  0  0  0  0  0
   45.5502  -18.8443  -10.0736 H   0  0  0  0  0  0  0  0  0  0  0  0
   46.9935  -18.4102   -5.2241 H   0  0  0  0  0  0  0  0  0  0  0  0
   45.2005  -19.9361   -5.1299 H   0  0  0  0  0  0  0  0  0  0  0  0
   49.6392  -20.7606  -11.6894 H   0  0  0  0  0  0  0  0  0  0  0  0
   47.0278  -20.3921   -7.8884 H   0  0  0  0  0  0  0  0  0  0  0  0
   46.2143  -21.1093   -9.2584 H   0  0  0  0  0  0  0  0  0  0  0  0
   46.4805  -16.8389  -10.4818 H   0  0  0  0  0  0  0  0  0  0  0  0
   43.4218  -19.4566  -10.3246 H   0  0  0  0  0  0  0  0  0  0  0  0
   47.3479  -16.0277   -5.6777 H   0  0  0  0  0  0  0  0  0  0  0  0
   42.7682  -19.9303   -5.4412 H   0  0  0  0  0  0  0  0  0  0  0  0
   47.2268  -20.9419  -11.5479 H   0  0  0  0  0  0  0  0  0  0  0  0
   47.1685  -19.1685  -11.5372 H   0  0  0  0  0  0  0  0  0  0  0  0
   48.3727  -20.9309  -13.7309 H   0  0  0  0  0  0  0  0  0  0  0  0
   48.2621  -19.1505  -13.7484 H   0  0  0  0  0  0  0  0  0  0  0  0
   49.8308  -19.9436  -13.9115 H   0  0  0  0  0  0  0  0  0  0  0  0
   48.5623  -19.1458   -9.4443 H   0  0  0  0  0  0  0  0  0  0  0  0
   48.6725  -20.8972   -9.5018 H   0  0  0  0  0  0  0  0  0  0  0  0
   47.4617  -14.7112   -9.7490 H   0  0  0  0  0  0  0  0  0  0  0  0
   41.2132  -20.0514   -9.4276 H   0  0  0  0  0  0  0  0  0  0  0  0
   40.8863  -20.2958   -6.9807 H   0  0  0  0  0  0  0  0  0  0  0  0
   47.9046  -14.3055   -7.3420 H   0  0  0  0  0  0  0  0  0  0  0  0
  2  1  1  0
  3  1  1  0
  4  6  1  0
  5  7  1  0
  6  2  2  0
  7  3  2  0
  8 14  1  0
  9  1  1  0
 10  2  1  0
 11  3  1  0
 12  6  1  0
 13  7  1  0
 14 16  1  0
 15  8  1  0
 16  9  1  0
 17 10  2  0
 18 11  2  0
 19 18  1  0
 20 17  1  0
  5  4  2  0
 19 13  2  0
 20 12  2  0
  1 21  1  0
  4 22  1  0
  5 23  1  0
  8 24  1  0
  9 25  1  0
  9 26  1  0
 10 27  1  0
 11 28  1  0
 12 29  1  0
 13 30  1  0
 14 31  1  0
 14 32  1  0
 15 33  1  0
 15 34  1  0
 15 35  1  0
 16 36  1  0
 16 37  1  0
 17 38  1  0
 18 39  1  0
 19 40  1  0
 20 41  1  0
M  END
> <Uni-Dock RESULT> 
ENERGY=   -4.946  LOWER_BOUND=    3.291  UPPER_BOUND=    6.263
INTER + INTRA:          -4.946
INTER:                  -4.946
INTRA:                   0.000
UNBOUND:                 0.000

$$$$

     RDKit          3D

 41 43  0  0  0  0  0  0  0  0999 V2000
   50.2918  -17.7786   -7.4846 C   0  0  0  0  0  0  0  0  0  0  0  0
   50.9553  -18.2998   -6.2158 C   0  0  0  0  0  0  0  0  0  0  0  0
   48.8933  -17.2173   -7.2357 C   0  0  0  0  0  0  0  0  0  0  0  0
   49.0962  -19.9482   -5.7044 C   0  0  0  0  0  0  0  0  0  0  0  0
   48.0081  -19.3765   -6.2412 C   0  0  0  0  0  0  0  0  0  0  0  0
   50.3819  -19.3014   -5.4104 C   0  0  0  0  0  0  0  0  0  0  0  0
   47.8581  -17.9758   -6.6574 C   0  0  0  0  0  0  0  0  0  0  0  0
   53.7475  -18.5596  -10.3252 N   0  0  0  0  0  0  0  0  0  0  0  0
   50.2998  -18.7866   -8.6621 C   0  0  0  0  0  0  0  0  0  0  0  0
   52.2069  -17.7652   -5.8443 C   0  0  0  0  0  0  0  0  0  0  0  0
   48.6256  -15.8875   -7.6239 C   0  0  0  0  0  0  0  0  0  0  0  0
   51.0804  -19.7576   -4.2784 C   0  0  0  0  0  0  0  0  0  0  0  0
   46.5861  -17.3969   -6.5028 C   0  0  0  0  0  0  0  0  0  0  0  0
   52.4716  -18.0594   -9.8117 C   0  0  0  0  0  0  0  0  0  0  0  0
   54.4954  -17.5042  -10.9941 C   0  0  0  0  0  0  0  0  0  0  0  0
   51.6935  -19.2041   -9.1569 C   0  0  0  0  0  0  0  0  0  0  0  0
   52.8811  -18.2200   -4.7116 C   0  0  0  0  0  0  0  0  0  0  0  0
   47.3617  -15.3241   -7.4510 C   0  0  0  0  0  0  0  0  0  0  0  0
   46.3401  -16.0802   -6.8919 C   0  0  0  0  0  0  0  0  0  0  0  0
   52.3184  -19.2190   -3.9287 C   0  0  0  0  0  0  0  0  0  0  0  0
   50.8917  -16.9207   -7.8149 H   0  0  0  0  0  0  0  0  0  0  0  0
   49.0331  -20.9986   -5.4262 H   0  0  0  0  0  0  0  0  0  0  0  0
   47.1213  -19.9944   -6.3690 H   0  0  0  0  0  0  0  0  0  0  0  0
   53.5774  -19.3213  -10.9815 H   0  0  0  0  0  0  0  0  0  0  0  0
   49.7601  -19.7021   -8.3957 H   0  0  0  0  0  0  0  0  0  0  0  0
   49.7485  -18.3555   -9.5091 H   0  0  0  0  0  0  0  0  0  0  0  0
   52.6744  -16.9892   -6.4470 H   0  0  0  0  0  0  0  0  0  0  0  0
   49.4082  -15.2768   -8.0695 H   0  0  0  0  0  0  0  0  0  0  0  0
   50.6556  -20.5360   -3.6481 H   0  0  0  0  0  0  0  0  0  0  0  0
   45.7725  -17.9697   -6.0624 H   0  0  0  0  0  0  0  0  0  0  0  0
   51.8752  -17.6332  -10.6273 H   0  0  0  0  0  0  0  0  0  0  0  0
   52.6646  -17.2679   -9.0808 H   0  0  0  0  0  0  0  0  0  0  0  0
   53.9477  -17.1076  -11.8551 H   0  0  0  0  0  0  0  0  0  0  0  0
   54.7245  -16.6839  -10.3060 H   0  0  0  0  0  0  0  0  0  0  0  0
   55.4472  -17.9052  -11.3561 H   0  0  0  0  0  0  0  0  0  0  0  0
   52.2742  -19.6372   -8.3339 H   0  0  0  0  0  0  0  0  0  0  0  0
   51.5568  -20.0076   -9.8930 H   0  0  0  0  0  0  0  0  0  0  0  0
   53.8461  -17.7967   -4.4466 H   0  0  0  0  0  0  0  0  0  0  0  0
   47.1772  -14.2972   -7.7546 H   0  0  0  0  0  0  0  0  0  0  0  0
   45.3525  -15.6483   -6.7551 H   0  0  0  0  0  0  0  0  0  0  0  0
   52.8395  -19.5802   -3.0464 H   0  0  0  0  0  0  0  0  0  0  0  0
  2  1  1  0
  3  1  1  0
  4  6  1  0
  5  7  1  0
  6  2  2  0
  7  3  2  0
  8 14  1  0
  9  1  1  0
 10  2  1  0
 11  3  1  0
 12  6  1  0
 13  7  1  0
 14 16  1  0
 15  8  1  0
 16  9  1  0
 17 10  2  0
 18 11  2  0
 19 18  1  0
 20 17  1  0
  5  4  2  0
 19 13  2  0
 20 12  2  0
  1 21  1  0
  4 22  1  0
  5 23  1  0
  8 24  1  0
  9 25  1  0
  9 26  1  0
 10 27  1  0
 11 28  1  0
 12 29  1  0
 13 30  1  0
 14 31  1  0
 14 32  1  0
 15 33  1  0
 15 34  1  0
 15 35  1  0
 16 36  1  0
 16 37  1  0
 17 38  1  0
 18 39  1  0
 19 40  1  0
 20 41  1  0
M  END
> <Uni-Dock RESULT> 
ENERGY=   -4.918  LOWER_BOUND=    2.352  UPPER_BOUND=    5.020
INTER + INTRA:          -4.918
INTER:                  -4.918
INTRA:                   0.000
UNBOUND:                 0.000

$$$$

     RDKit          3D

 41 43  0  0  0  0  0  0  0  0999 V2000
   49.7692  -18.0118   -7.5964 C   0  0  0  0  0  0  0  0  0  0  0  0
   50.8169  -17.6492   -6.5511 C   0  0  0  0  0  0  0  0  0  0  0  0
   48.4069  -18.3332   -6.9851 C   0  0  0  0  0  0  0  0  0  0  0  0
   50.5766  -19.8364   -5.2889 C   0  0  0  0  0  0  0  0  0  0  0  0
   49.3048  -20.1966   -5.5167 C   0  0  0  0  0  0  0  0  0  0  0  0
   51.1708  -18.5089   -5.4945 C   0  0  0  0  0  0  0  0  0  0  0  0
   48.2209  -19.3452   -6.0246 C   0  0  0  0  0  0  0  0  0  0  0  0
   52.3647  -17.4057  -11.2730 N   0  0  0  0  0  0  0  0  0  0  0  0
   50.2217  -19.1123   -8.5898 C   0  0  0  0  0  0  0  0  0  0  0  0
   51.4710  -16.4040   -6.6599 C   0  0  0  0  0  0  0  0  0  0  0  0
   47.2855  -17.5962   -7.4210 C   0  0  0  0  0  0  0  0  0  0  0  0
   52.1792  -18.1163   -4.5967 C   0  0  0  0  0  0  0  0  0  0  0  0
   46.9257  -19.6067   -5.5441 C   0  0  0  0  0  0  0  0  0  0  0  0
   51.1786  -17.6247  -10.4442 C   0  0  0  0  0  0  0  0  0  0  0  0
   52.1299  -16.3635  -12.2625 C   0  0  0  0  0  0  0  0  0  0  0  0
   51.4459  -18.7563   -9.4479 C   0  0  0  0  0  0  0  0  0  0  0  0
   52.4606  -16.0243   -5.7538 C   0  0  0  0  0  0  0  0  0  0  0  0
   46.0094  -17.8593   -6.9241 C   0  0  0  0  0  0  0  0  0  0  0  0
   45.8287  -18.8671   -5.9862 C   0  0  0  0  0  0  0  0  0  0  0  0
   52.8170  -16.8824   -4.7221 C   0  0  0  0  0  0  0  0  0  0  0  0
   49.6088  -17.1073   -8.1974 H   0  0  0  0  0  0  0  0  0  0  0  0
   51.2525  -20.5876   -4.8844 H   0  0  0  0  0  0  0  0  0  0  0  0
   49.0183  -21.2206   -5.2842 H   0  0  0  0  0  0  0  0  0  0  0  0
   52.6152  -18.2726  -11.7481 H   0  0  0  0  0  0  0  0  0  0  0  0
   50.4531  -20.0437   -8.0614 H   0  0  0  0  0  0  0  0  0  0  0  0
   49.3880  -19.3549   -9.2630 H   0  0  0  0  0  0  0  0  0  0  0  0
   51.2178  -15.7181   -7.4658 H   0  0  0  0  0  0  0  0  0  0  0  0
   47.4008  -16.8054   -8.1595 H   0  0  0  0  0  0  0  0  0  0  0  0
   52.4706  -18.7710   -3.7780 H   0  0  0  0  0  0  0  0  0  0  0  0
   46.7620  -20.3884   -4.8052 H   0  0  0  0  0  0  0  0  0  0  0  0
   50.3197  -17.8883  -11.0730 H   0  0  0  0  0  0  0  0  0  0  0  0
   50.9388  -16.7003   -9.9095 H   0  0  0  0  0  0  0  0  0  0  0  0
   51.3186  -16.6342  -12.9460 H   0  0  0  0  0  0  0  0  0  0  0  0
   51.8912  -15.4085  -11.7831 H   0  0  0  0  0  0  0  0  0  0  0  0
   53.0362  -16.2152  -12.8578 H   0  0  0  0  0  0  0  0  0  0  0  0
   52.2987  -18.5051   -8.8063 H   0  0  0  0  0  0  0  0  0  0  0  0
   51.7345  -19.6585  -10.0038 H   0  0  0  0  0  0  0  0  0  0  0  0
   52.9541  -15.0620   -5.8591 H   0  0  0  0  0  0  0  0  0  0  0  0
   45.1594  -17.2783   -7.2714 H   0  0  0  0  0  0  0  0  0  0  0  0
   44.8372  -19.0786   -5.5954 H   0  0  0  0  0  0  0  0  0  0  0  0
   53.5892  -16.5943   -4.0142 H   0  0  0  0  0  0  0  0  0  0  0  0
  2  1  1  0
  3  1  1  0
  4  6  1  0
  5  7  1  0
  6  2  2  0
  7  3  2  0
  8 14  1  0
  9  1  1  0
 10  2  1  0
 11  3  1  0
 12  6  1  0
 13  7  1  0
 14 16  1  0
 15  8  1  0
 16  9  1  0
 17 10  2  0
 18 11  2  0
 19 18  1  0
 20 17  1  0
  5  4  2  0
 19 13  2  0
 20 12  2  0
  1 21  1  0
  4 22  1  0
  5 23  1  0
  8 24  1  0
  9 25  1  0
  9 26  1  0
 10 27  1  0
 11 28  1  0
 12 29  1  0
 13 30  1  0
 14 31  1  0
 14 32  1  0
 15 33  1  0
 15 34  1  0
 15 35  1  0
 16 36  1  0
 16 37  1  0
 17 38  1  0
 18 39  1  0
 19 40  1  0
 20 41  1  0
M  END
> <Uni-Dock RESULT> 
ENERGY=   -4.410  LOWER_BOUND=    1.978  UPPER_BOUND=    5.120
INTER + INTRA:          -4.410
INTER:                  -4.410
INTRA:                   0.000
UNBOUND:                 0.000

$$$$

     RDKit          3D

 41 43  0  0  0  0  0  0  0  0999 V2000
   48.9347  -16.7371   -7.6158 C   0  0  0  0  0  0  0  0  0  0  0  0
   49.5138  -16.8990   -9.0159 C   0  0  0  0  0  0  0  0  0  0  0  0
   47.5909  -17.4423   -7.4438 C   0  0  0  0  0  0  0  0  0  0  0  0
   47.4931  -15.8837  -10.1651 C   0  0  0  0  0  0  0  0  0  0  0  0
   46.4784  -16.1716   -9.3365 C   0  0  0  0  0  0  0  0  0  0  0  0
   48.8273  -16.4981  -10.1772 C   0  0  0  0  0  0  0  0  0  0  0  0
   46.4738  -17.1643   -8.2538 C   0  0  0  0  0  0  0  0  0  0  0  0
   52.3682  -14.3660   -5.8241 N   0  0  0  0  0  0  0  0  0  0  0  0
   48.8748  -15.2689   -7.1223 C   0  0  0  0  0  0  0  0  0  0  0  0
   50.8014  -17.4598   -9.1492 C   0  0  0  0  0  0  0  0  0  0  0  0
   47.4616  -18.3971   -6.4131 C   0  0  0  0  0  0  0  0  0  0  0  0
   49.4508  -16.6427  -11.4292 C   0  0  0  0  0  0  0  0  0  0  0  0
   45.2598  -17.8271   -8.0011 C   0  0  0  0  0  0  0  0  0  0  0  0
   51.1340  -15.1467   -5.9188 C   0  0  0  0  0  0  0  0  0  0  0  0
   53.2302  -14.8709   -4.7646 C   0  0  0  0  0  0  0  0  0  0  0  0
   50.2338  -14.5602   -7.0098 C   0  0  0  0  0  0  0  0  0  0  0  0
   51.4009  -17.6077  -10.3995 C   0  0  0  0  0  0  0  0  0  0  0  0
   46.2538  -19.0555   -6.1844 C   0  0  0  0  0  0  0  0  0  0  0  0
   45.1509  -18.7688   -6.9778 C   0  0  0  0  0  0  0  0  0  0  0  0
   50.7258  -17.1967  -11.5410 C   0  0  0  0  0  0  0  0  0  0  0  0
   49.6222  -17.2580   -6.9367 H   0  0  0  0  0  0  0  0  0  0  0  0
   47.3226  -15.1341  -10.9356 H   0  0  0  0  0  0  0  0  0  0  0  0
   45.5398  -15.6396   -9.4803 H   0  0  0  0  0  0  0  0  0  0  0  0
   52.1419  -13.3889   -5.6389 H   0  0  0  0  0  0  0  0  0  0  0  0
   48.2434  -14.6616   -7.7801 H   0  0  0  0  0  0  0  0  0  0  0  0
   48.3884  -15.2394   -6.1376 H   0  0  0  0  0  0  0  0  0  0  0  0
   51.3559  -17.7798   -8.2693 H   0  0  0  0  0  0  0  0  0  0  0  0
   48.3100  -18.6347   -5.7744 H   0  0  0  0  0  0  0  0  0  0  0  0
   48.9378  -16.3319  -12.3370 H   0  0  0  0  0  0  0  0  0  0  0  0
   44.3844  -17.6213   -8.6137 H   0  0  0  0  0  0  0  0  0  0  0  0
   50.6014  -15.1322   -4.9603 H   0  0  0  0  0  0  0  0  0  0  0  0
   51.3840  -16.1858   -6.1544 H   0  0  0  0  0  0  0  0  0  0  0  0
   52.7443  -14.8045   -3.7858 H   0  0  0  0  0  0  0  0  0  0  0  0
   53.5200  -15.9101   -4.9512 H   0  0  0  0  0  0  0  0  0  0  0  0
   54.1476  -14.2755   -4.7262 H   0  0  0  0  0  0  0  0  0  0  0  0
   50.7498  -14.5736   -7.9770 H   0  0  0  0  0  0  0  0  0  0  0  0
   50.0386  -13.5041   -6.7799 H   0  0  0  0  0  0  0  0  0  0  0  0
   52.3953  -18.0386  -10.4783 H   0  0  0  0  0  0  0  0  0  0  0  0
   46.1762  -19.7893   -5.3868 H   0  0  0  0  0  0  0  0  0  0  0  0
   44.2063  -19.2770   -6.8048 H   0  0  0  0  0  0  0  0  0  0  0  0
   51.1880  -17.3062  -12.5181 H   0  0  0  0  0  0  0  0  0  0  0  0
  2  1  1  0
  3  1  1  0
  4  6  1  0
  5  7  1  0
  6  2  2  0
  7  3  2  0
  8 14  1  0
  9  1  1  0
 10  2  1  0
 11  3  1  0
 12  6  1  0
 13  7  1  0
 14 16  1  0
 15  8  1  0
 16  9  1  0
 17 10  2  0
 18 11  2  0
 19 18  1  0
 20 17  1  0
  5  4  2  0
 19 13  2  0
 20 12  2  0
  1 21  1  0
  4 22  1  0
  5 23  1  0
  8 24  1  0
  9 25  1  0
  9 26  1  0
 10 27  1  0
 11 28  1  0
 12 29  1  0
 13 30  1  0
 14 31  1  0
 14 32  1  0
 15 33  1  0
 15 34  1  0
 15 35  1  0
 16 36  1  0
 16 37  1  0
 17 38  1  0
 18 39  1  0
 19 40  1  0
 20 41  1  0
M  END
> <Uni-Dock RESULT> 
ENERGY=   -4.289  LOWER_BOUND=    2.395  UPPER_BOUND=    5.730
INTER + INTRA:          -4.289
INTER:                  -4.289
INTRA:                   0.000
UNBOUND:                 0.000

$$$$

     RDKit          3D

 41 43  0  0  0  0  0  0  0  0999 V2000
   50.1269  -17.1560   -8.4657 C   0  0  0  0  0  0  0  0  0  0  0  0
   48.7374  -16.9165   -7.8882 C   0  0  0  0  0  0  0  0  0  0  0  0
   50.0950  -17.5869   -9.9306 C   0  0  0  0  0  0  0  0  0  0  0  0
   47.9186  -19.2598   -8.4111 C   0  0  0  0  0  0  0  0  0  0  0  0
   48.6337  -19.6130   -9.4895 C   0  0  0  0  0  0  0  0  0  0  0  0
   47.7348  -17.9041   -7.8762 C   0  0  0  0  0  0  0  0  0  0  0  0
   49.3954  -18.7239  -10.3767 C   0  0  0  0  0  0  0  0  0  0  0  0
   52.5098  -15.9995   -4.7771 N   0  0  0  0  0  0  0  0  0  0  0  0
   51.0116  -18.1011   -7.6131 C   0  0  0  0  0  0  0  0  0  0  0  0
   48.4521  -15.6542   -7.3263 C   0  0  0  0  0  0  0  0  0  0  0  0
   50.8173  -16.8218  -10.8706 C   0  0  0  0  0  0  0  0  0  0  0  0
   46.4922  -17.6157   -7.2847 C   0  0  0  0  0  0  0  0  0  0  0  0
   49.4528  -19.0762  -11.7367 C   0  0  0  0  0  0  0  0  0  0  0  0
   52.2007  -16.3548   -6.1627 C   0  0  0  0  0  0  0  0  0  0  0  0
   53.3855  -14.8377   -4.7147 C   0  0  0  0  0  0  0  0  0  0  0  0
   51.3177  -17.6054   -6.1911 C   0  0  0  0  0  0  0  0  0  0  0  0
   47.2103  -15.3802   -6.7544 C   0  0  0  0  0  0  0  0  0  0  0  0
   50.8528  -17.1775  -12.2185 C   0  0  0  0  0  0  0  0  0  0  0  0
   50.1716  -18.3072  -12.6519 C   0  0  0  0  0  0  0  0  0  0  0  0
   46.2296  -16.3627   -6.7314 C   0  0  0  0  0  0  0  0  0  0  0  0
   50.6329  -16.1818   -8.4631 H   0  0  0  0  0  0  0  0  0  0  0  0
   47.3888  -20.0442   -7.8739 H   0  0  0  0  0  0  0  0  0  0  0  0
   48.6449  -20.6650   -9.7684 H   0  0  0  0  0  0  0  0  0  0  0  0
   52.9611  -16.7882   -4.3140 H   0  0  0  0  0  0  0  0  0  0  0  0
   50.5502  -19.0906   -7.5217 H   0  0  0  0  0  0  0  0  0  0  0  0
   51.9653  -18.2677   -8.1325 H   0  0  0  0  0  0  0  0  0  0  0  0
   49.2072  -14.8708   -7.3220 H   0  0  0  0  0  0  0  0  0  0  0  0
   51.3637  -15.9355  -10.5543 H   0  0  0  0  0  0  0  0  0  0  0  0
   45.7077  -18.3693   -7.2603 H   0  0  0  0  0  0  0  0  0  0  0  0
   48.9225  -19.9546  -12.0988 H   0  0  0  0  0  0  0  0  0  0  0  0
   53.1251  -16.5488   -6.7199 H   0  0  0  0  0  0  0  0  0  0  0  0
   51.6837  -15.5171   -6.6411 H   0  0  0  0  0  0  0  0  0  0  0  0
   54.3439  -15.0303   -5.2075 H   0  0  0  0  0  0  0  0  0  0  0  0
   52.9154  -13.9622   -5.1744 H   0  0  0  0  0  0  0  0  0  0  0  0
   53.5888  -14.5903   -3.6682 H   0  0  0  0  0  0  0  0  0  0  0  0
   50.3852  -17.4255   -5.6432 H   0  0  0  0  0  0  0  0  0  0  0  0
   51.8340  -18.4171   -5.6612 H   0  0  0  0  0  0  0  0  0  0  0  0
   47.0138  -14.4021   -6.3238 H   0  0  0  0  0  0  0  0  0  0  0  0
   51.4132  -16.5731  -12.9265 H   0  0  0  0  0  0  0  0  0  0  0  0
   50.1957  -18.5911  -13.7004 H   0  0  0  0  0  0  0  0  0  0  0  0
   45.2607  -16.1571   -6.2848 H   0  0  0  0  0  0  0  0  0  0  0  0
  2  1  1  0
  3  1  1  0
  4  6  1  0
  5  7  1  0
  6  2  2  0
  7  3  2  0
  8 14  1  0
  9  1  1  0
 10  2  1  0
 11  3  1  0
 12  6  1  0
 13  7  1  0
 14 16  1  0
 15  8  1  0
 16  9  1  0
 17 10  2  0
 18 11  2  0
 19 18  1  0
 20 17  1  0
  5  4  2  0
 19 13  2  0
 20 12  2  0
  1 21  1  0
  4 22  1  0
  5 23  1  0
  8 24  1  0
  9 25  1  0
  9 26  1  0
 10 27  1  0
 11 28  1  0
 12 29  1  0
 13 30  1  0
 14 31  1  0
 14 32  1  0
 15 33  1  0
 15 34  1  0
 15 35  1  0
 16 36  1  0
 16 37  1  0
 17 38  1  0
 18 39  1  0
 19 40  1  0
 20 41  1  0
M  END
> <Uni-Dock RESULT> 
ENERGY=   -4.029  LOWER_BOUND=    2.223  UPPER_BOUND=    5.338
INTER + INTRA:          -4.029
INTER:                  -4.029
INTRA:                   0.000
UNBOUND:                 0.000

$$$$
