
     RDKit          3D

 41 43  0  0  0  0  0  0  0  0999 V2000
   50.2605  -17.0541   -7.8944 C   0  0  0  0  0  0  0  0  0  0  0  0
   51.1773  -16.4894   -6.8071 C   0  0  0  0  0  0  0  0  0  0  0  0
   48.8197  -17.1017   -7.3722 C   0  0  0  0  0  0  0  0  0  0  0  0
   50.0294  -14.2377   -7.0218 C   0  0  0  0  0  0  0  0  0  0  0  0
   48.7613  -14.5671   -7.3227 C   0  0  0  0  0  0  0  0  0  0  0  0
   51.0396  -15.1328   -6.4287 C   0  0  0  0  0  0  0  0  0  0  0  0
   48.1376  -15.8878   -7.1215 C   0  0  0  0  0  0  0  0  0  0  0  0
   53.6536  -19.3944  -10.8608 N   0  0  0  0  0  0  0  0  0  0  0  0
   50.7285  -18.3615   -8.5895 C   0  0  0  0  0  0  0  0  0  0  0  0
   52.1327  -17.2762   -6.1399 C   0  0  0  0  0  0  0  0  0  0  0  0
   48.1553  -18.3131   -7.1083 C   0  0  0  0  0  0  0  0  0  0  0  0
   51.8969  -14.5885   -5.4594 C   0  0  0  0  0  0  0  0  0  0  0  0
   46.8052  -15.9165   -6.6816 C   0  0  0  0  0  0  0  0  0  0  0  0
   52.3829  -19.4809  -10.1377 C   0  0  0  0  0  0  0  0  0  0  0  0
   53.5703  -18.5523  -12.0475 C   0  0  0  0  0  0  0  0  0  0  0  0
   51.9991  -18.1742   -9.4348 C   0  0  0  0  0  0  0  0  0  0  0  0
   52.9682  -16.7244   -5.1663 C   0  0  0  0  0  0  0  0  0  0  0  0
   46.8347  -18.3249   -6.6549 C   0  0  0  0  0  0  0  0  0  0  0  0
   46.1572  -17.1286   -6.4496 C   0  0  0  0  0  0  0  0  0  0  0  0
   52.8572  -15.3800   -4.8324 C   0  0  0  0  0  0  0  0  0  0  0  0
   50.2605  -16.3263   -8.7207 H   0  0  0  0  0  0  0  0  0  0  0  0
   50.3546  -13.2135   -7.1902 H   0  0  0  0  0  0  0  0  0  0  0  0
   48.1060  -13.7974   -7.7241 H   0  0  0  0  0  0  0  0  0  0  0  0
   53.9273  -20.3335  -11.1505 H   0  0  0  0  0  0  0  0  0  0  0  0
   49.9346  -18.7052   -9.2672 H   0  0  0  0  0  0  0  0  0  0  0  0
   50.8800  -19.1679   -7.8622 H   0  0  0  0  0  0  0  0  0  0  0  0
   52.2506  -18.3317   -6.3663 H   0  0  0  0  0  0  0  0  0  0  0  0
   48.6529  -19.2685   -7.2476 H   0  0  0  0  0  0  0  0  0  0  0  0
   51.8073  -13.5441   -5.1699 H   0  0  0  0  0  0  0  0  0  0  0  0
   46.2674  -14.9897   -6.4954 H   0  0  0  0  0  0  0  0  0  0  0  0
   52.4917  -20.2645   -9.3783 H   0  0  0  0  0  0  0  0  0  0  0  0
   51.5807  -19.8082  -10.8103 H   0  0  0  0  0  0  0  0  0  0  0  0
   52.7831  -18.8914  -12.7285 H   0  0  0  0  0  0  0  0  0  0  0  0
   54.5212  -18.5978  -12.5882 H   0  0  0  0  0  0  0  0  0  0  0  0
   53.3996  -17.5030  -11.7907 H   0  0  0  0  0  0  0  0  0  0  0  0
   52.8325  -17.8421   -8.8066 H   0  0  0  0  0  0  0  0  0  0  0  0
   51.8179  -17.3861  -10.1745 H   0  0  0  0  0  0  0  0  0  0  0  0
   53.7070  -17.3485   -4.6700 H   0  0  0  0  0  0  0  0  0  0  0  0
   46.3369  -19.2713   -6.4602 H   0  0  0  0  0  0  0  0  0  0  0  0
   45.1295  -17.1371   -6.0970 H   0  0  0  0  0  0  0  0  0  0  0  0
   53.5079  -14.9499   -4.0761 H   0  0  0  0  0  0  0  0  0  0  0  0
  2  1  1  0
  3  1  1  0
  4  6  1  0
  5  7  1  0
  6  2  2  0
  7  3  2  0
  8 14  1  0
  9  1  1  0
 10  2  1  0
 11  3  1  0
 12  6  1  0
 13  7  1  0
 14 16  1  0
 15  8  1  0
 16  9  1  0
 17 10  2  0
 18 11  2  0
 19 18  1  0
 20 17  1  0
  5  4  2  0
 19 13  2  0
 20 12  2  0
  1 21  1  0
  4 22  1  0
  5 23  1  0
  8 24  1  0
  9 25  1  0
  9 26  1  0
 10 27  1  0
 11 28  1  0
 12 29  1  0
 13 30  1  0
 14 31  1  0
 14 32  1  0
 15 33  1  0
 15 34  1  0
 15 35  1  0
 16 36  1  0
 16 37  1  0
 17 38  1  0
 18 39  1  0
 19 40  1  0
 20 41  1  0
M  END
> <Uni-Dock RESULT> 
ENERGY=   -6.179  LOWER_BOUND=    0.000  UPPER_BOUND=    0.000
INTER + INTRA:          -6.179
INTER:                  -6.179
INTRA:                   0.000
UNBOUND:                 0.000

$$$$

     RDKit          3D

 41 43  0  0  0  0  0  0  0  0999 V2000
   49.1409  -16.7938   -7.7222 C   0  0  0  0  0  0  0  0  0  0  0  0
   48.3561  -17.9091   -7.0280 C   0  0  0  0  0  0  0  0  0  0  0  0
   48.4732  -16.4577   -9.0608 C   0  0  0  0  0  0  0  0  0  0  0  0
   46.3958  -16.3282   -6.7250 C   0  0  0  0  0  0  0  0  0  0  0  0
   46.4572  -15.5498   -7.8193 C   0  0  0  0  0  0  0  0  0  0  0  0
   47.0497  -17.6386   -6.5561 C   0  0  0  0  0  0  0  0  0  0  0  0
   47.1934  -15.8546   -9.0597 C   0  0  0  0  0  0  0  0  0  0  0  0
   53.5924  -17.1325   -5.3016 N   0  0  0  0  0  0  0  0  0  0  0  0
   50.6808  -16.9757   -7.8075 C   0  0  0  0  0  0  0  0  0  0  0  0
   48.8686  -19.2089   -6.8700 C   0  0  0  0  0  0  0  0  0  0  0  0
   49.0776  -16.7500  -10.2968 C   0  0  0  0  0  0  0  0  0  0  0  0
   46.3296  -18.6390   -5.8842 C   0  0  0  0  0  0  0  0  0  0  0  0
   46.5880  -15.5051  -10.2767 C   0  0  0  0  0  0  0  0  0  0  0  0
   52.8913  -17.0544   -6.5851 C   0  0  0  0  0  0  0  0  0  0  0  0
   53.5773  -15.8698   -4.5738 C   0  0  0  0  0  0  0  0  0  0  0  0
   51.3718  -16.9231   -6.4350 C   0  0  0  0  0  0  0  0  0  0  0  0
   48.1341  -20.1985   -6.2131 C   0  0  0  0  0  0  0  0  0  0  0  0
   48.4550  -16.4110  -11.4997 C   0  0  0  0  0  0  0  0  0  0  0  0
   47.2155  -15.7816  -11.4902 C   0  0  0  0  0  0  0  0  0  0  0  0
   46.8696  -19.9122   -5.7124 C   0  0  0  0  0  0  0  0  0  0  0  0
   49.0370  -15.8940   -7.0961 H   0  0  0  0  0  0  0  0  0  0  0  0
   45.7864  -15.9990   -5.8862 H   0  0  0  0  0  0  0  0  0  0  0  0
   45.8953  -14.6185   -7.8265 H   0  0  0  0  0  0  0  0  0  0  0  0
   54.5634  -17.3919   -5.4769 H   0  0  0  0  0  0  0  0  0  0  0  0
   51.0998  -16.1609   -8.4142 H   0  0  0  0  0  0  0  0  0  0  0  0
   50.9446  -17.9071   -8.3223 H   0  0  0  0  0  0  0  0  0  0  0  0
   49.8500  -19.4774   -7.2493 H   0  0  0  0  0  0  0  0  0  0  0  0
   50.0413  -17.2487  -10.3468 H   0  0  0  0  0  0  0  0  0  0  0  0
   45.3296  -18.4380   -5.5072 H   0  0  0  0  0  0  0  0  0  0  0  0
   45.6089  -15.0317  -10.2880 H   0  0  0  0  0  0  0  0  0  0  0  0
   53.1073  -17.9800   -7.1323 H   0  0  0  0  0  0  0  0  0  0  0  0
   53.2925  -16.2333   -7.1916 H   0  0  0  0  0  0  0  0  0  0  0  0
   53.9966  -15.0543   -5.1717 H   0  0  0  0  0  0  0  0  0  0  0  0
   54.1875  -15.9683   -3.6701 H   0  0  0  0  0  0  0  0  0  0  0  0
   52.5686  -15.5992   -4.2492 H   0  0  0  0  0  0  0  0  0  0  0  0
   51.0008  -17.7246   -5.7875 H   0  0  0  0  0  0  0  0  0  0  0  0
   51.1206  -15.9731   -5.9496 H   0  0  0  0  0  0  0  0  0  0  0  0
   48.5535  -21.1941   -6.0930 H   0  0  0  0  0  0  0  0  0  0  0  0
   48.9397  -16.6417  -12.4449 H   0  0  0  0  0  0  0  0  0  0  0  0
   46.7305  -15.5174  -12.4260 H   0  0  0  0  0  0  0  0  0  0  0  0
   46.2984  -20.6812   -5.2000 H   0  0  0  0  0  0  0  0  0  0  0  0
  2  1  1  0
  3  1  1  0
  4  6  1  0
  5  7  1  0
  6  2  2  0
  7  3  2  0
  8 14  1  0
  9  1  1  0
 10  2  1  0
 11  3  1  0
 12  6  1  0
 13  7  1  0
 14 16  1  0
 15  8  1  0
 16  9  1  0
 17 10  2  0
 18 11  2  0
 19 18  1  0
 20 17  1  0
  5  4  2  0
 19 13  2  0
 20 12  2  0
  1 21  1  0
  4 22  1  0
  5 23  1  0
  8 24  1  0
  9 25  1  0
  9 26  1  0
 10 27  1  0
 11 28  1  0
 12 29  1  0
 13 30  1  0
 14 31  1  0
 14 32  1  0
 15 33  1  0
 15 34  1  0
 15 35  1  0
 16 36  1  0
 16 37  1  0
 17 38  1  0
 18 39  1  0
 19 40  1  0
 20 41  1  0
M  END
> <Uni-Dock RESULT> 
ENERGY=   -5.455  LOWER_BOUND=    2.405  UPPER_BOUND=    4.680
INTER + INTRA:          -5.455
INTER:                  -5.455
INTRA:                   0.000
UNBOUND:                 0.000

$$$$

     RDKit          3D

 41 43  0  0  0  0  0  0  0  0999 V2000
   49.3335  -17.0821   -7.9632 C   0  0  0  0  0  0  0  0  0  0  0  0
   48.3035  -17.8713   -7.1523 C   0  0  0  0  0  0  0  0  0  0  0  0
   50.3658  -16.4643   -7.0128 C   0  0  0  0  0  0  0  0  0  0  0  0
   50.1018  -19.5412   -6.5109 C   0  0  0  0  0  0  0  0  0  0  0  0
   51.2100  -18.7841   -6.4331 C   0  0  0  0  0  0  0  0  0  0  0  0
   48.7125  -19.0489   -6.4824 C   0  0  0  0  0  0  0  0  0  0  0  0
   51.2497  -17.3156   -6.3086 C   0  0  0  0  0  0  0  0  0  0  0  0
   46.7821  -16.3882  -12.2990 N   0  0  0  0  0  0  0  0  0  0  0  0
   48.7756  -16.0952   -9.0246 C   0  0  0  0  0  0  0  0  0  0  0  0
   46.9679  -17.4536   -7.0153 C   0  0  0  0  0  0  0  0  0  0  0  0
   50.4518  -15.0774   -6.7948 C   0  0  0  0  0  0  0  0  0  0  0  0
   47.7728  -19.8052   -5.7644 C   0  0  0  0  0  0  0  0  0  0  0  0
   52.2257  -16.7615   -5.4660 C   0  0  0  0  0  0  0  0  0  0  0  0
   47.5777  -15.7840  -11.2280 C   0  0  0  0  0  0  0  0  0  0  0  0
   47.5793  -17.2184  -13.1931 C   0  0  0  0  0  0  0  0  0  0  0  0
   48.0593  -16.8011  -10.1876 C   0  0  0  0  0  0  0  0  0  0  0  0
   46.0477  -18.2084   -6.2846 C   0  0  0  0  0  0  0  0  0  0  0  0
   51.4179  -14.5424   -5.9403 C   0  0  0  0  0  0  0  0  0  0  0  0
   52.3096  -15.3822   -5.2830 C   0  0  0  0  0  0  0  0  0  0  0  0
   46.4467  -19.3877   -5.6671 C   0  0  0  0  0  0  0  0  0  0  0  0
   49.8837  -17.8127   -8.5765 H   0  0  0  0  0  0  0  0  0  0  0  0
   50.2131  -20.6218   -6.5662 H   0  0  0  0  0  0  0  0  0  0  0  0
   52.1782  -19.2796   -6.4285 H   0  0  0  0  0  0  0  0  0  0  0  0
   46.3551  -15.6415  -12.8475 H   0  0  0  0  0  0  0  0  0  0  0  0
   49.6130  -15.5280   -9.4544 H   0  0  0  0  0  0  0  0  0  0  0  0
   48.1070  -15.3553   -8.5690 H   0  0  0  0  0  0  0  0  0  0  0  0
   46.6143  -16.5367   -7.4774 H   0  0  0  0  0  0  0  0  0  0  0  0
   49.7680  -14.3887   -7.2826 H   0  0  0  0  0  0  0  0  0  0  0  0
   48.0741  -20.7180   -5.2559 H   0  0  0  0  0  0  0  0  0  0  0  0
   52.9173  -17.4055   -4.9275 H   0  0  0  0  0  0  0  0  0  0  0  0
   46.9410  -15.0470  -10.7239 H   0  0  0  0  0  0  0  0  0  0  0  0
   48.4254  -15.2285  -11.6471 H   0  0  0  0  0  0  0  0  0  0  0  0
   48.4135  -16.6582  -13.6274 H   0  0  0  0  0  0  0  0  0  0  0  0
   46.9484  -17.5686  -14.0166 H   0  0  0  0  0  0  0  0  0  0  0  0
   47.9650  -18.1078  -12.6869 H   0  0  0  0  0  0  0  0  0  0  0  0
   47.2030  -17.3758   -9.8189 H   0  0  0  0  0  0  0  0  0  0  0  0
   48.7526  -17.5138  -10.6486 H   0  0  0  0  0  0  0  0  0  0  0  0
   45.0175  -17.8722   -6.1999 H   0  0  0  0  0  0  0  0  0  0  0  0
   51.4711  -13.4675   -5.7877 H   0  0  0  0  0  0  0  0  0  0  0  0
   53.0617  -14.9665   -4.6181 H   0  0  0  0  0  0  0  0  0  0  0  0
   45.7311  -19.9760   -5.0997 H   0  0  0  0  0  0  0  0  0  0  0  0
  2  1  1  0
  3  1  1  0
  4  6  1  0
  5  7  1  0
  6  2  2  0
  7  3  2  0
  8 14  1  0
  9  1  1  0
 10  2  1  0
 11  3  1  0
 12  6  1  0
 13  7  1  0
 14 16  1  0
 15  8  1  0
 16  9  1  0
 17 10  2  0
 18 11  2  0
 19 18  1  0
 20 17  1  0
  5  4  2  0
 19 13  2  0
 20 12  2  0
  1 21  1  0
  4 22  1  0
  5 23  1  0
  8 24  1  0
  9 25  1  0
  9 26  1  0
 10 27  1  0
 11 28  1  0
 12 29  1  0
 13 30  1  0
 14 31  1  0
 14 32  1  0
 15 33  1  0
 15 34  1  0
 15 35  1  0
 16 36  1  0
 16 37  1  0
 17 38  1  0
 18 39  1  0
 19 40  1  0
 20 41  1  0
M  END
> <Uni-Dock RESULT> 
ENERGY=   -5.201  LOWER_BOUND=    2.670  UPPER_BOUND=    5.334
INTER + INTRA:          -5.201
INTER:                  -5.201
INTRA:                   0.000
UNBOUND:                 0.000

$$$$

     RDKit          3D

 41 43  0  0  0  0  0  0  0  0999 V2000
   47.9980  -17.3248   -8.2061 C   0  0  0  0  0  0  0  0  0  0  0  0
   47.4702  -18.2604   -7.1163 C   0  0  0  0  0  0  0  0  0  0  0  0
   48.9569  -16.3045   -7.5815 C   0  0  0  0  0  0  0  0  0  0  0  0
   49.7996  -19.2214   -6.8262 C   0  0  0  0  0  0  0  0  0  0  0  0
   50.5988  -18.1690   -7.0735 C   0  0  0  0  0  0  0  0  0  0  0  0
   48.3654  -19.1602   -6.4905 C   0  0  0  0  0  0  0  0  0  0  0  0
   50.1942  -16.7514   -7.0606 C   0  0  0  0  0  0  0  0  0  0  0  0
   44.4985  -18.0243  -11.8191 N   0  0  0  0  0  0  0  0  0  0  0  0
   46.9428  -16.7039   -9.1613 C   0  0  0  0  0  0  0  0  0  0  0  0
   46.1324  -18.2388   -6.6839 C   0  0  0  0  0  0  0  0  0  0  0  0
   48.6409  -14.9373   -7.4841 C   0  0  0  0  0  0  0  0  0  0  0  0
   47.8908  -20.0511   -5.5150 C   0  0  0  0  0  0  0  0  0  0  0  0
   51.0984  -15.8228   -6.5223 C   0  0  0  0  0  0  0  0  0  0  0  0
   45.2687  -17.0695  -11.0189 C   0  0  0  0  0  0  0  0  0  0  0  0
   45.3093  -18.7000  -12.8243 C   0  0  0  0  0  0  0  0  0  0  0  0
   46.2587  -17.7443  -10.0632 C   0  0  0  0  0  0  0  0  0  0  0  0
   45.6781  -19.1208   -5.7010 C   0  0  0  0  0  0  0  0  0  0  0  0
   49.5447  -14.0282   -6.9306 C   0  0  0  0  0  0  0  0  0  0  0  0
   50.7755  -14.4685   -6.4578 C   0  0  0  0  0  0  0  0  0  0  0  0
   46.5536  -20.0324   -5.1232 C   0  0  0  0  0  0  0  0  0  0  0  0
   48.6086  -17.9397   -8.8856 H   0  0  0  0  0  0  0  0  0  0  0  0
   50.2348  -20.2183   -6.8351 H   0  0  0  0  0  0  0  0  0  0  0  0
   51.6520  -18.3524   -7.2737 H   0  0  0  0  0  0  0  0  0  0  0  0
   43.7496  -17.5203  -12.2946 H   0  0  0  0  0  0  0  0  0  0  0  0
   47.4443  -15.9816   -9.8204 H   0  0  0  0  0  0  0  0  0  0  0  0
   46.1863  -16.1371   -8.6058 H   0  0  0  0  0  0  0  0  0  0  0  0
   45.4156  -17.5403   -7.1050 H   0  0  0  0  0  0  0  0  0  0  0  0
   47.6862  -14.5553   -7.8339 H   0  0  0  0  0  0  0  0  0  0  0  0
   48.5680  -20.7547   -5.0364 H   0  0  0  0  0  0  0  0  0  0  0  0
   52.0568  -16.1533   -6.1284 H   0  0  0  0  0  0  0  0  0  0  0  0
   44.5529  -16.4893  -10.4242 H   0  0  0  0  0  0  0  0  0  0  0  0
   45.7858  -16.3537  -11.6693 H   0  0  0  0  0  0  0  0  0  0  0  0
   45.8092  -17.9857  -13.4863 H   0  0  0  0  0  0  0  0  0  0  0  0
   44.6630  -19.3315  -13.4425 H   0  0  0  0  0  0  0  0  0  0  0  0
   46.0565  -19.3569  -12.3701 H   0  0  0  0  0  0  0  0  0  0  0  0
   45.7290  -18.4879   -9.4582 H   0  0  0  0  0  0  0  0  0  0  0  0
   47.0281  -18.2790  -10.6317 H   0  0  0  0  0  0  0  0  0  0  0  0
   44.6373  -19.0938   -5.3887 H   0  0  0  0  0  0  0  0  0  0  0  0
   49.2839  -12.9748   -6.8676 H   0  0  0  0  0  0  0  0  0  0  0  0
   51.4793  -13.7614   -6.0271 H   0  0  0  0  0  0  0  0  0  0  0  0
   46.2004  -20.7197   -4.3596 H   0  0  0  0  0  0  0  0  0  0  0  0
  2  1  1  0
  3  1  1  0
  4  6  1  0
  5  7  1  0
  6  2  2  0
  7  3  2  0
  8 14  1  0
  9  1  1  0
 10  2  1  0
 11  3  1  0
 12  6  1  0
 13  7  1  0
 14 16  1  0
 15  8  1  0
 16  9  1  0
 17 10  2  0
 18 11  2  0
 19 18  1  0
 20 17  1  0
  5  4  2  0
 19 13  2  0
 20 12  2  0
  1 21  1  0
  4 22  1  0
  5 23  1  0
  8 24  1  0
  9 25  1  0
  9 26  1  0
 10 27  1  0
 11 28  1  0
 12 29  1  0
 13 30  1  0
 14 31  1  0
 14 32  1  0
 15 33  1  0
 15 34  1  0
 15 35  1  0
 16 36  1  0
 16 37  1  0
 17 38  1  0
 18 39  1  0
 19 40  1  0
 20 41  1  0
M  END
> <Uni-Dock RESULT> 
ENERGY=   -5.053  LOWER_BOUND=    3.107  UPPER_BOUND=    5.677
INTER + INTRA:          -5.053
INTER:                  -5.053
INTRA:                   0.000
UNBOUND:                 0.000

$$$$

     RDKit          3D

 41 43  0  0  0  0  0  0  0  0999 V2000
   49.8975  -18.4353   -7.4004 C   0  0  0  0  0  0  0  0  0  0  0  0
   48.7055  -17.5010   -7.1824 C   0  0  0  0  0  0  0  0  0  0  0  0
   50.4408  -18.8940   -6.0421 C   0  0  0  0  0  0  0  0  0  0  0  0
   47.3673  -19.4419   -6.2466 C   0  0  0  0  0  0  0  0  0  0  0  0
   48.2999  -20.1893   -5.6311 C   0  0  0  0  0  0  0  0  0  0  0  0
   47.5101  -18.0279   -6.6382 C   0  0  0  0  0  0  0  0  0  0  0  0
   49.6465  -19.7402   -5.2329 C   0  0  0  0  0  0  0  0  0  0  0  0
   51.1816  -17.2226  -12.1617 N   0  0  0  0  0  0  0  0  0  0  0  0
   50.9902  -17.9497   -8.3913 C   0  0  0  0  0  0  0  0  0  0  0  0
   48.7604  -16.1255   -7.4691 C   0  0  0  0  0  0  0  0  0  0  0  0
   51.6955  -18.4835   -5.5567 C   0  0  0  0  0  0  0  0  0  0  0  0
   46.3947  -17.1931   -6.4659 C   0  0  0  0  0  0  0  0  0  0  0  0
   50.1478  -20.2000   -4.0053 C   0  0  0  0  0  0  0  0  0  0  0  0
   51.6260  -17.4352  -10.7825 C   0  0  0  0  0  0  0  0  0  0  0  0
   50.8315  -18.4650  -12.8387 C   0  0  0  0  0  0  0  0  0  0  0  0
   50.4940  -17.8674   -9.8442 C   0  0  0  0  0  0  0  0  0  0  0  0
   47.6472  -15.3041   -7.2778 C   0  0  0  0  0  0  0  0  0  0  0  0
   52.1734  -18.9365   -4.3253 C   0  0  0  0  0  0  0  0  0  0  0  0
   51.4046  -19.8004   -3.5540 C   0  0  0  0  0  0  0  0  0  0  0  0
   46.4625  -15.8383   -6.7854 C   0  0  0  0  0  0  0  0  0  0  0  0
   49.5075  -19.3396   -7.8931 H   0  0  0  0  0  0  0  0  0  0  0  0
   46.3975  -19.8884   -6.4551 H   0  0  0  0  0  0  0  0  0  0  0  0
   48.0512  -21.2139   -5.3638 H   0  0  0  0  0  0  0  0  0  0  0  0
   51.9366  -16.7742  -12.6811 H   0  0  0  0  0  0  0  0  0  0  0  0
   51.8261  -18.6629   -8.3729 H   0  0  0  0  0  0  0  0  0  0  0  0
   51.4062  -16.9830   -8.0841 H   0  0  0  0  0  0  0  0  0  0  0  0
   49.6668  -15.6656   -7.8514 H   0  0  0  0  0  0  0  0  0  0  0  0
   52.3223  -17.8025   -6.1252 H   0  0  0  0  0  0  0  0  0  0  0  0
   45.4675  -17.5906   -6.0596 H   0  0  0  0  0  0  0  0  0  0  0  0
   49.5505  -20.8591   -3.3795 H   0  0  0  0  0  0  0  0  0  0  0  0
   52.0331  -16.4836  -10.4199 H   0  0  0  0  0  0  0  0  0  0  0  0
   52.4503  -18.1581  -10.7527 H   0  0  0  0  0  0  0  0  0  0  0  0
   51.6614  -19.1788  -12.8267 H   0  0  0  0  0  0  0  0  0  0  0  0
   50.5924  -18.2493  -13.8851 H   0  0  0  0  0  0  0  0  0  0  0  0
   49.9457  -18.9322  -12.3992 H   0  0  0  0  0  0  0  0  0  0  0  0
   49.6638  -17.1578   -9.9267 H   0  0  0  0  0  0  0  0  0  0  0  0
   50.1102  -18.8498  -10.1423 H   0  0  0  0  0  0  0  0  0  0  0  0
   47.7085  -14.2453   -7.5155 H   0  0  0  0  0  0  0  0  0  0  0  0
   53.1474  -18.6111   -3.9689 H   0  0  0  0  0  0  0  0  0  0  0  0
   51.7760  -20.1534   -2.5958 H   0  0  0  0  0  0  0  0  0  0  0  0
   45.5959  -15.2001   -6.6377 H   0  0  0  0  0  0  0  0  0  0  0  0
  2  1  1  0
  3  1  1  0
  4  6  1  0
  5  7  1  0
  6  2  2  0
  7  3  2  0
  8 14  1  0
  9  1  1  0
 10  2  1  0
 11  3  1  0
 12  6  1  0
 13  7  1  0
 14 16  1  0
 15  8  1  0
 16  9  1  0
 17 10  2  0
 18 11  2  0
 19 18  1  0
 20 17  1  0
  5  4  2  0
 19 13  2  0
 20 12  2  0
  1 21  1  0
  4 22  1  0
  5 23  1  0
  8 24  1  0
  9 25  1  0
  9 26  1  0
 10 27  1  0
 11 28  1  0
 12 29  1  0
 13 30  1  0
 14 31  1  0
 14 32  1  0
 15 33  1  0
 15 34  1  0
 15 35  1  0
 16 36  1  0
 16 37  1  0
 17 38  1  0
 18 39  1  0
 19 40  1  0
 20 41  1  0
M  END
> <Uni-Dock RESULT> 
ENERGY=   -5.019  LOWER_BOUND=    2.108  UPPER_BOUND=    4.572
INTER + INTRA:          -5.019
INTER:                  -5.019
INTRA:                   0.000
UNBOUND:                 0.000

$$$$

     RDKit          3D

 41 43  0  0  0  0  0  0  0  0999 V2000
   47.3978  -16.7073  -10.7428 C   0  0  0  0  0  0  0  0  0  0  0  0
   46.2345  -16.1118  -11.5387 C   0  0  0  0  0  0  0  0  0  0  0  0
   47.1243  -16.5469   -9.2428 C   0  0  0  0  0  0  0  0  0  0  0  0
   44.7116  -17.9421  -10.6643 C   0  0  0  0  0  0  0  0  0  0  0  0
   45.1883  -18.1739   -9.4289 C   0  0  0  0  0  0  0  0  0  0  0  0
   44.9688  -16.7421  -11.4811 C   0  0  0  0  0  0  0  0  0  0  0  0
   46.0633  -17.2749   -8.6545 C   0  0  0  0  0  0  0  0  0  0  0  0
   51.0300  -16.7653  -14.2915 N   0  0  0  0  0  0  0  0  0  0  0  0
   48.8273  -16.2838  -11.1774 C   0  0  0  0  0  0  0  0  0  0  0  0
   46.3627  -14.9374  -12.3013 C   0  0  0  0  0  0  0  0  0  0  0  0
   47.8768  -15.6801   -8.4297 C   0  0  0  0  0  0  0  0  0  0  0  0
   43.8999  -16.2308  -12.2340 C   0  0  0  0  0  0  0  0  0  0  0  0
   45.8271  -17.1681   -7.2752 C   0  0  0  0  0  0  0  0  0  0  0  0
   50.6491  -16.4014  -12.9250 C   0  0  0  0  0  0  0  0  0  0  0  0
   51.1816  -18.2039  -14.4698 C   0  0  0  0  0  0  0  0  0  0  0  0
   49.2130  -16.8036  -12.5720 C   0  0  0  0  0  0  0  0  0  0  0  0
   45.2859  -14.4317  -13.0328 C   0  0  0  0  0  0  0  0  0  0  0  0
   47.6187  -15.5724   -7.0617 C   0  0  0  0  0  0  0  0  0  0  0  0
   46.6008  -16.3216   -6.4830 C   0  0  0  0  0  0  0  0  0  0  0  0
   44.0581  -15.0821  -13.0070 C   0  0  0  0  0  0  0  0  0  0  0  0
   47.3957  -17.7910  -10.9381 H   0  0  0  0  0  0  0  0  0  0  0  0
   44.0451  -18.6767  -11.1108 H   0  0  0  0  0  0  0  0  0  0  0  0
   44.8904  -19.0880   -8.9202 H   0  0  0  0  0  0  0  0  0  0  0  0
   51.9202  -16.3178  -14.5110 H   0  0  0  0  0  0  0  0  0  0  0  0
   49.5516  -16.6999  -10.4633 H   0  0  0  0  0  0  0  0  0  0  0  0
   48.9501  -15.1950  -11.1382 H   0  0  0  0  0  0  0  0  0  0  0  0
   47.3023  -14.3949  -12.3464 H   0  0  0  0  0  0  0  0  0  0  0  0
   48.6746  -15.0714   -8.8455 H   0  0  0  0  0  0  0  0  0  0  0  0
   42.9263  -16.7146  -12.2061 H   0  0  0  0  0  0  0  0  0  0  0  0
   45.0209  -17.7309   -6.8101 H   0  0  0  0  0  0  0  0  0  0  0  0
   50.7347  -15.3113  -12.8412 H   0  0  0  0  0  0  0  0  0  0  0  0
   51.3580  -16.8258  -12.2036 H   0  0  0  0  0  0  0  0  0  0  0  0
   51.9045  -18.6242  -13.7634 H   0  0  0  0  0  0  0  0  0  0  0  0
   51.5492  -18.4041  -15.4816 H   0  0  0  0  0  0  0  0  0  0  0  0
   50.2279  -18.7294  -14.3676 H   0  0  0  0  0  0  0  0  0  0  0  0
   48.5291  -16.4095  -13.3313 H   0  0  0  0  0  0  0  0  0  0  0  0
   49.1129  -17.8950  -12.5820 H   0  0  0  0  0  0  0  0  0  0  0  0
   45.4098  -13.5279  -13.6238 H   0  0  0  0  0  0  0  0  0  0  0  0
   48.2137  -14.8999   -6.4492 H   0  0  0  0  0  0  0  0  0  0  0  0
   46.3996  -16.2383   -5.4185 H   0  0  0  0  0  0  0  0  0  0  0  0
   43.2205  -14.6900  -13.5770 H   0  0  0  0  0  0  0  0  0  0  0  0
  2  1  1  0
  3  1  1  0
  4  6  1  0
  5  7  1  0
  6  2  2  0
  7  3  2  0
  8 14  1  0
  9  1  1  0
 10  2  1  0
 11  3  1  0
 12  6  1  0
 13  7  1  0
 14 16  1  0
 15  8  1  0
 16  9  1  0
 17 10  2  0
 18 11  2  0
 19 18  1  0
 20 17  1  0
  5  4  2  0
 19 13  2  0
 20 12  2  0
  1 21  1  0
  4 22  1  0
  5 23  1  0
  8 24  1  0
  9 25  1  0
  9 26  1  0
 10 27  1  0
 11 28  1  0
 12 29  1  0
 13 30  1  0
 14 31  1  0
 14 32  1  0
 15 33  1  0
 15 34  1  0
 15 35  1  0
 16 36  1  0
 16 37  1  0
 17 38  1  0
 18 39  1  0
 19 40  1  0
 20 41  1  0
M  END
> <Uni-Dock RESULT> 
ENERGY=   -4.321  LOWER_BOUND=    4.217  UPPER_BOUND=    6.330
INTER + INTRA:          -4.321
INTER:                  -4.321
INTRA:                   0.000
UNBOUND:                 0.000

$$$$

     RDKit          3D

 41 43  0  0  0  0  0  0  0  0999 V2000
   46.7900  -15.9044   -9.8288 C   0  0  0  0  0  0  0  0  0  0  0  0
   48.1886  -16.3215  -10.2885 C   0  0  0  0  0  0  0  0  0  0  0  0
   46.3182  -16.8450   -8.7138 C   0  0  0  0  0  0  0  0  0  0  0  0
   49.1235  -15.6399   -8.0312 C   0  0  0  0  0  0  0  0  0  0  0  0
   48.1189  -15.9241   -7.1844 C   0  0  0  0  0  0  0  0  0  0  0  0
   49.2787  -16.1667   -9.3994 C   0  0  0  0  0  0  0  0  0  0  0  0
   46.9767  -16.8139   -7.4620 C   0  0  0  0  0  0  0  0  0  0  0  0
   45.2771  -13.1439  -13.8138 N   0  0  0  0  0  0  0  0  0  0  0  0
   45.7358  -15.6590  -10.9424 C   0  0  0  0  0  0  0  0  0  0  0  0
   48.4316  -16.8882  -11.5522 C   0  0  0  0  0  0  0  0  0  0  0  0
   45.2656  -17.7599   -8.8972 C   0  0  0  0  0  0  0  0  0  0  0  0
   50.5741  -16.5096   -9.8175 C   0  0  0  0  0  0  0  0  0  0  0  0
   46.5295  -17.6409   -6.4200 C   0  0  0  0  0  0  0  0  0  0  0  0
   44.9621  -14.2169  -12.8681 C   0  0  0  0  0  0  0  0  0  0  0  0
   45.2357  -11.8223  -13.2006 C   0  0  0  0  0  0  0  0  0  0  0  0
   46.0607  -14.4417  -11.8235 C   0  0  0  0  0  0  0  0  0  0  0  0
   49.7240  -17.2390  -11.9485 C   0  0  0  0  0  0  0  0  0  0  0  0
   44.8430  -18.5881   -7.8554 C   0  0  0  0  0  0  0  0  0  0  0  0
   45.4683  -18.5231   -6.6156 C   0  0  0  0  0  0  0  0  0  0  0  0
   50.7958  -17.0419  -11.0862 C   0  0  0  0  0  0  0  0  0  0  0  0
   46.8901  -14.9103   -9.3660 H   0  0  0  0  0  0  0  0  0  0  0  0
   49.9259  -14.9910   -7.6871 H   0  0  0  0  0  0  0  0  0  0  0  0
   48.1445  -15.4947   -6.1854 H   0  0  0  0  0  0  0  0  0  0  0  0
   44.5954  -13.1687  -14.5725 H   0  0  0  0  0  0  0  0  0  0  0  0
   44.7616  -15.4687  -10.4710 H   0  0  0  0  0  0  0  0  0  0  0  0
   45.6035  -16.5486  -11.5696 H   0  0  0  0  0  0  0  0  0  0  0  0
   47.6232  -17.0638  -12.2556 H   0  0  0  0  0  0  0  0  0  0  0  0
   44.7575  -17.8472   -9.8533 H   0  0  0  0  0  0  0  0  0  0  0  0
   51.4204  -16.3834   -9.1462 H   0  0  0  0  0  0  0  0  0  0  0  0
   47.0213  -17.6182   -5.4502 H   0  0  0  0  0  0  0  0  0  0  0  0
   44.8414  -15.1393  -13.4489 H   0  0  0  0  0  0  0  0  0  0  0  0
   43.9980  -14.0273  -12.3808 H   0  0  0  0  0  0  0  0  0  0  0  0
   44.2662  -11.6252  -12.7318 H   0  0  0  0  0  0  0  0  0  0  0  0
   45.3932  -11.0624  -13.9728 H   0  0  0  0  0  0  0  0  0  0  0  0
   46.0293  -11.6926  -12.4593 H   0  0  0  0  0  0  0  0  0  0  0  0
   47.0210  -14.5808  -12.3315 H   0  0  0  0  0  0  0  0  0  0  0  0
   46.1592  -13.5582  -11.1825 H   0  0  0  0  0  0  0  0  0  0  0  0
   49.8908  -17.6664  -12.9339 H   0  0  0  0  0  0  0  0  0  0  0  0
   44.0252  -19.2860   -8.0154 H   0  0  0  0  0  0  0  0  0  0  0  0
   45.1398  -19.1672   -5.8044 H   0  0  0  0  0  0  0  0  0  0  0  0
   51.8016  -17.3133  -11.3945 H   0  0  0  0  0  0  0  0  0  0  0  0
  2  1  1  0
  3  1  1  0
  4  6  1  0
  5  7  1  0
  6  2  2  0
  7  3  2  0
  8 14  1  0
  9  1  1  0
 10  2  1  0
 11  3  1  0
 12  6  1  0
 13  7  1  0
 14 16  1  0
 15  8  1  0
 16  9  1  0
 17 10  2  0
 18 11  2  0
 19 18  1  0
 20 17  1  0
  5  4  2  0
 19 13  2  0
 20 12  2  0
  1 21  1  0
  4 22  1  0
  5 23  1  0
  8 24  1  0
  9 25  1  0
  9 26  1  0
 10 27  1  0
 11 28  1  0
 12 29  1  0
 13 30  1  0
 14 31  1  0
 14 32  1  0
 15 33  1  0
 15 34  1  0
 15 35  1  0
 16 36  1  0
 16 37  1  0
 17 38  1  0
 18 39  1  0
 19 40  1  0
 20 41  1  0
M  END
> <Uni-Dock RESULT> 
ENERGY=   -4.278  LOWER_BOUND=    4.173  UPPER_BOUND=    5.823
INTER + INTRA:          -4.278
INTER:                  -4.278
INTRA:                   0.000
UNBOUND:                 0.000

$$$$

     RDKit          3D

 41 43  0  0  0  0  0  0  0  0999 V2000
   46.4220  -16.2529   -9.6448 C   0  0  0  0  0  0  0  0  0  0  0  0
   47.9347  -16.4753   -9.5847 C   0  0  0  0  0  0  0  0  0  0  0  0
   45.7122  -17.3612   -8.8583 C   0  0  0  0  0  0  0  0  0  0  0  0
   47.8991  -15.9814   -7.0970 C   0  0  0  0  0  0  0  0  0  0  0  0
   46.7053  -16.4604   -6.7060 C   0  0  0  0  0  0  0  0  0  0  0  0
   48.6028  -16.3234   -8.3464 C   0  0  0  0  0  0  0  0  0  0  0  0
   45.8681  -17.4166   -7.4532 C   0  0  0  0  0  0  0  0  0  0  0  0
   46.0829  -13.1947  -13.6848 N   0  0  0  0  0  0  0  0  0  0  0  0
   45.8140  -15.9790  -11.0472 C   0  0  0  0  0  0  0  0  0  0  0  0
   48.6876  -16.8607  -10.7079 C   0  0  0  0  0  0  0  0  0  0  0  0
   44.9274  -18.3448   -9.4869 C   0  0  0  0  0  0  0  0  0  0  0  0
   49.9954  -16.4873   -8.2804 C   0  0  0  0  0  0  0  0  0  0  0  0
   45.1921  -18.4015   -6.7165 C   0  0  0  0  0  0  0  0  0  0  0  0
   45.5963  -14.3984  -13.0071 C   0  0  0  0  0  0  0  0  0  0  0  0
   45.6484  -11.9662  -13.0320 C   0  0  0  0  0  0  0  0  0  0  0  0
   46.2673  -14.6395  -11.6505 C   0  0  0  0  0  0  0  0  0  0  0  0
   50.0706  -17.0354  -10.6235 C   0  0  0  0  0  0  0  0  0  0  0  0
   44.2743  -19.3284   -8.7414 C   0  0  0  0  0  0  0  0  0  0  0  0
   44.3993  -19.3522   -7.3572 C   0  0  0  0  0  0  0  0  0  0  0  0
   50.7258  -16.8403   -9.4136 C   0  0  0  0  0  0  0  0  0  0  0  0
   46.2159  -15.3163   -9.1037 H   0  0  0  0  0  0  0  0  0  0  0  0
   48.4305  -15.3039   -6.4323 H   0  0  0  0  0  0  0  0  0  0  0  0
   46.3138  -16.1530   -5.7390 H   0  0  0  0  0  0  0  0  0  0  0  0
   45.7280  -13.1943  -14.6413 H   0  0  0  0  0  0  0  0  0  0  0  0
   44.7195  -15.9413  -10.9567 H   0  0  0  0  0  0  0  0  0  0  0  0
   46.0352  -16.7958  -11.7444 H   0  0  0  0  0  0  0  0  0  0  0  0
   48.2160  -17.0281  -11.6717 H   0  0  0  0  0  0  0  0  0  0  0  0
   44.8120  -18.3658  -10.5668 H   0  0  0  0  0  0  0  0  0  0  0  0
   50.5201  -16.3613   -7.3362 H   0  0  0  0  0  0  0  0  0  0  0  0
   45.2961  -18.4475   -5.6348 H   0  0  0  0  0  0  0  0  0  0  0  0
   45.8159  -15.2521  -13.6595 H   0  0  0  0  0  0  0  0  0  0  0  0
   44.5055  -14.3624  -12.8981 H   0  0  0  0  0  0  0  0  0  0  0  0
   44.5584  -11.9209  -12.9416 H   0  0  0  0  0  0  0  0  0  0  0  0
   45.9691  -11.1077  -13.6311 H   0  0  0  0  0  0  0  0  0  0  0  0
   46.0989  -11.8500  -12.0422 H   0  0  0  0  0  0  0  0  0  0  0  0
   47.3551  -14.6236  -11.7762 H   0  0  0  0  0  0  0  0  0  0  0  0
   46.0107  -13.8336  -10.9534 H   0  0  0  0  0  0  0  0  0  0  0  0
   50.6348  -17.3238  -11.5067 H   0  0  0  0  0  0  0  0  0  0  0  0
   43.6691  -20.0778   -9.2451 H   0  0  0  0  0  0  0  0  0  0  0  0
   43.8912  -20.1172   -6.7765 H   0  0  0  0  0  0  0  0  0  0  0  0
   51.8018  -16.9746   -9.3477 H   0  0  0  0  0  0  0  0  0  0  0  0
  2  1  1  0
  3  1  1  0
  4  6  1  0
  5  7  1  0
  6  2  2  0
  7  3  2  0
  8 14  1  0
  9  1  1  0
 10  2  1  0
 11  3  1  0
 12  6  1  0
 13  7  1  0
 14 16  1  0
 15  8  1  0
 16  9  1  0
 17 10  2  0
 18 11  2  0
 19 18  1  0
 20 17  1  0
  5  4  2  0
 19 13  2  0
 20 12  2  0
  1 21  1  0
  4 22  1  0
  5 23  1  0
  8 24  1  0
  9 25  1  0
  9 26  1  0
 10 27  1  0
 11 28  1  0
 12 29  1  0
 13 30  1  0
 14 31  1  0
 14 32  1  0
 15 33  1  0
 15 34  1  0
 15 35  1  0
 16 36  1  0
 16 37  1  0
 17 38  1  0
 18 39  1  0
 19 40  1  0
 20 41  1  0
M  END
> <Uni-Dock RESULT> 
ENERGY=   -4.225  LOWER_BOUND=    3.987  UPPER_BOUND=    5.567
INTER + INTRA:          -4.225
INTER:                  -4.225
INTRA:                   0.000
UNBOUND:                 0.000

$$$$

     RDKit          3D

 41 43  0  0  0  0  0  0  0  0999 V2000
   46.0154  -14.4122  -11.8808 C   0  0  0  0  0  0  0  0  0  0  0  0
   44.5661  -14.7199  -12.2634 C   0  0  0  0  0  0  0  0  0  0  0  0
   46.7455  -13.8138  -13.0889 C   0  0  0  0  0  0  0  0  0  0  0  0
   44.1099  -12.2356  -12.4961 C   0  0  0  0  0  0  0  0  0  0  0  0
   45.2808  -11.7490  -12.9427 C   0  0  0  0  0  0  0  0  0  0  0  0
   43.6855  -13.6468  -12.5385 C   0  0  0  0  0  0  0  0  0  0  0  0
   46.3677  -12.5333  -13.5570 C   0  0  0  0  0  0  0  0  0  0  0  0
   46.5505  -17.3627   -7.7823 N   0  0  0  0  0  0  0  0  0  0  0  0
   46.7996  -15.5418  -11.1593 C   0  0  0  0  0  0  0  0  0  0  0  0
   44.0794  -16.0332  -12.3880 C   0  0  0  0  0  0  0  0  0  0  0  0
   47.7657  -14.5039  -13.7683 C   0  0  0  0  0  0  0  0  0  0  0  0
   42.3433  -13.9094  -12.8549 C   0  0  0  0  0  0  0  0  0  0  0  0
   47.0543  -11.9567  -14.6367 C   0  0  0  0  0  0  0  0  0  0  0  0
   47.0961  -16.9371   -9.0732 C   0  0  0  0  0  0  0  0  0  0  0  0
   46.6762  -16.3389   -6.7526 C   0  0  0  0  0  0  0  0  0  0  0  0
   46.2532  -15.8550   -9.7567 C   0  0  0  0  0  0  0  0  0  0  0  0
   42.7451  -16.2792  -12.7189 C   0  0  0  0  0  0  0  0  0  0  0  0
   48.4283  -13.9234  -14.8517 C   0  0  0  0  0  0  0  0  0  0  0  0
   48.0793  -12.6480  -15.2805 C   0  0  0  0  0  0  0  0  0  0  0  0
   41.8751  -15.2190  -12.9433 C   0  0  0  0  0  0  0  0  0  0  0  0
   45.9821  -13.6161  -11.1208 H   0  0  0  0  0  0  0  0  0  0  0  0
   43.3774  -11.5397  -12.0932 H   0  0  0  0  0  0  0  0  0  0  0  0
   45.4537  -10.6767  -12.8849 H   0  0  0  0  0  0  0  0  0  0  0  0
   47.0557  -18.1937   -7.4740 H   0  0  0  0  0  0  0  0  0  0  0  0
   47.8447  -15.2246  -11.0379 H   0  0  0  0  0  0  0  0  0  0  0  0
   46.8258  -16.4572  -11.7622 H   0  0  0  0  0  0  0  0  0  0  0  0
   44.7253  -16.8909  -12.2257 H   0  0  0  0  0  0  0  0  0  0  0  0
   48.0615  -15.5055  -13.4696 H   0  0  0  0  0  0  0  0  0  0  0  0
   41.6553  -13.0916  -13.0564 H   0  0  0  0  0  0  0  0  0  0  0  0
   46.7795  -10.9686  -14.9987 H   0  0  0  0  0  0  0  0  0  0  0  0
   47.1220  -17.8195   -9.7239 H   0  0  0  0  0  0  0  0  0  0  0  0
   48.1348  -16.6037   -8.9591 H   0  0  0  0  0  0  0  0  0  0  0  0
   47.7158  -16.0208   -6.6245 H   0  0  0  0  0  0  0  0  0  0  0  0
   46.3321  -16.7464   -5.7964 H   0  0  0  0  0  0  0  0  0  0  0  0
   46.0544  -15.4656   -6.9690 H   0  0  0  0  0  0  0  0  0  0  0  0
   45.2122  -16.1901   -9.8163 H   0  0  0  0  0  0  0  0  0  0  0  0
   46.2631  -14.9354   -9.1606 H   0  0  0  0  0  0  0  0  0  0  0  0
   42.3873  -17.3024  -12.8000 H   0  0  0  0  0  0  0  0  0  0  0  0
   49.2168  -14.4710  -15.3615 H   0  0  0  0  0  0  0  0  0  0  0  0
   48.5946  -12.1956  -16.1234 H   0  0  0  0  0  0  0  0  0  0  0  0
   40.8367  -15.4098  -13.1994 H   0  0  0  0  0  0  0  0  0  0  0  0
  2  1  1  0
  3  1  1  0
  4  6  1  0
  5  7  1  0
  6  2  2  0
  7  3  2  0
  8 14  1  0
  9  1  1  0
 10  2  1  0
 11  3  1  0
 12  6  1  0
 13  7  1  0
 14 16  1  0
 15  8  1  0
 16  9  1  0
 17 10  2  0
 18 11  2  0
 19 18  1  0
 20 17  1  0
  5  4  2  0
 19 13  2  0
 20 12  2  0
  1 21  1  0
  4 22  1  0
  5 23  1  0
  8 24  1  0
  9 25  1  0
  9 26  1  0
 10 27  1  0
 11 28  1  0
 12 29  1  0
 13 30  1  0
 14 31  1  0
 14 32  1  0
 15 33  1  0
 15 34  1  0
 15 35  1  0
 16 36  1  0
 16 37  1  0
 17 38  1  0
 18 39  1  0
 19 40  1  0
 20 41  1  0
M  END
> <Uni-Dock RESULT> 
ENERGY=   -4.113  LOWER_BOUND=    6.527  UPPER_BOUND=    8.980
INTER + INTRA:          -4.113
INTER:                  -4.113
INTRA:                   0.000
UNBOUND:                 0.000

$$$$
