
     RDKit          3D

 41 43  0  0  0  0  0  0  0  0999 V2000
   48.3360  -17.3249   -8.2147 C   0  0  0  0  0  0  0  0  0  0  0  0
   49.2783  -16.3301   -7.5332 C   0  0  0  0  0  0  0  0  0  0  0  0
   47.6718  -18.2097   -7.1529 C   0  0  0  0  0  0  0  0  0  0  0  0
   50.7840  -18.2476   -6.8333 C   0  0  0  0  0  0  0  0  0  0  0  0
   49.9206  -19.2571   -6.6275 C   0  0  0  0  0  0  0  0  0  0  0  0
   50.4435  -16.8144   -6.8929 C   0  0  0  0  0  0  0  0  0  0  0  0
   48.4664  -19.1263   -6.4248 C   0  0  0  0  0  0  0  0  0  0  0  0
   46.2860  -14.5891  -11.1865 N   0  0  0  0  0  0  0  0  0  0  0  0
   47.3495  -16.7404   -9.2633 C   0  0  0  0  0  0  0  0  0  0  0  0
   49.0155  -14.9492   -7.4884 C   0  0  0  0  0  0  0  0  0  0  0  0
   46.2991  -18.1276   -6.8570 C   0  0  0  0  0  0  0  0  0  0  0  0
   51.3369  -15.9120   -6.2944 C   0  0  0  0  0  0  0  0  0  0  0  0
   47.8645  -19.9705   -5.4787 C   0  0  0  0  0  0  0  0  0  0  0  0
   47.0917  -15.7345  -11.6115 C   0  0  0  0  0  0  0  0  0  0  0  0
   45.4461  -14.1105  -12.2773 C   0  0  0  0  0  0  0  0  0  0  0  0
   48.0587  -16.1886  -10.5116 C   0  0  0  0  0  0  0  0  0  0  0  0
   49.9063  -14.0652   -6.8758 C   0  0  0  0  0  0  0  0  0  0  0  0
   45.7180  -18.9631   -5.9010 C   0  0  0  0  0  0  0  0  0  0  0  0
   46.4976  -19.8896   -5.2183 C   0  0  0  0  0  0  0  0  0  0  0  0
   51.0700  -14.5443   -6.2865 C   0  0  0  0  0  0  0  0  0  0  0  0
   48.9648  -17.9966   -8.8194 H   0  0  0  0  0  0  0  0  0  0  0  0
   51.8417  -18.4805   -6.9342 H   0  0  0  0  0  0  0  0  0  0  0  0
   50.3110  -20.2707   -6.5695 H   0  0  0  0  0  0  0  0  0  0  0  0
   45.6880  -14.8597  -10.4072 H   0  0  0  0  0  0  0  0  0  0  0  0
   46.6747  -17.5401   -9.5985 H   0  0  0  0  0  0  0  0  0  0  0  0
   46.7142  -15.9710   -8.8117 H   0  0  0  0  0  0  0  0  0  0  0  0
   48.1174  -14.5315   -7.9346 H   0  0  0  0  0  0  0  0  0  0  0  0
   45.6576  -17.4111   -7.3619 H   0  0  0  0  0  0  0  0  0  0  0  0
   52.2409  -16.2728   -5.8092 H   0  0  0  0  0  0  0  0  0  0  0  0
   48.4636  -20.6862   -4.9202 H   0  0  0  0  0  0  0  0  0  0  0  0
   47.6873  -15.4592  -12.4904 H   0  0  0  0  0  0  0  0  0  0  0  0
   46.4436  -16.5712  -11.8990 H   0  0  0  0  0  0  0  0  0  0  0  0
   46.0513  -13.7726  -13.1247 H   0  0  0  0  0  0  0  0  0  0  0  0
   44.7513  -14.8850  -12.6183 H   0  0  0  0  0  0  0  0  0  0  0  0
   44.8554  -13.2556  -11.9337 H   0  0  0  0  0  0  0  0  0  0  0  0
   48.7021  -16.9724  -10.9307 H   0  0  0  0  0  0  0  0  0  0  0  0
   48.7183  -15.3550  -10.2469 H   0  0  0  0  0  0  0  0  0  0  0  0
   49.6876  -13.0005   -6.8618 H   0  0  0  0  0  0  0  0  0  0  0  0
   44.6546  -18.8869   -5.6892 H   0  0  0  0  0  0  0  0  0  0  0  0
   46.0462  -20.5401   -4.4744 H   0  0  0  0  0  0  0  0  0  0  0  0
   51.7638  -13.8567   -5.8108 H   0  0  0  0  0  0  0  0  0  0  0  0
  2  1  1  0
  3  1  1  0
  4  6  1  0
  5  7  1  0
  6  2  2  0
  7  3  2  0
  8 14  1  0
  9  1  1  0
 10  2  1  0
 11  3  1  0
 12  6  1  0
 13  7  1  0
 14 16  1  0
 15  8  1  0
 16  9  1  0
 17 10  2  0
 18 11  2  0
 19 18  1  0
 20 17  1  0
  5  4  2  0
 19 13  2  0
 20 12  2  0
  1 21  1  0
  4 22  1  0
  5 23  1  0
  8 24  1  0
  9 25  1  0
  9 26  1  0
 10 27  1  0
 11 28  1  0
 12 29  1  0
 13 30  1  0
 14 31  1  0
 14 32  1  0
 15 33  1  0
 15 34  1  0
 15 35  1  0
 16 36  1  0
 16 37  1  0
 17 38  1  0
 18 39  1  0
 19 40  1  0
 20 41  1  0
M  END
> <Uni-Dock RESULT> 
ENERGY=   -5.535  LOWER_BOUND=    0.000  UPPER_BOUND=    0.000
INTER + INTRA:          -5.535
INTER:                  -5.535
INTRA:                   0.000
UNBOUND:                 0.000

$$$$

     RDKit          3D

 41 43  0  0  0  0  0  0  0  0999 V2000
   50.1299  -16.5243   -8.5487 C   0  0  0  0  0  0  0  0  0  0  0  0
   48.7028  -16.5948   -8.0007 C   0  0  0  0  0  0  0  0  0  0  0  0
   51.1275  -16.5775   -7.3854 C   0  0  0  0  0  0  0  0  0  0  0  0
   49.0120  -14.3190   -6.9240 C   0  0  0  0  0  0  0  0  0  0  0  0
   50.3145  -14.3104   -6.5921 C   0  0  0  0  0  0  0  0  0  0  0  0
   48.2051  -15.5126   -7.2368 C   0  0  0  0  0  0  0  0  0  0  0  0
   51.1883  -15.4923   -6.4797 C   0  0  0  0  0  0  0  0  0  0  0  0
   49.8036  -19.4113  -12.0238 N   0  0  0  0  0  0  0  0  0  0  0  0
   50.4708  -17.4826   -9.7233 C   0  0  0  0  0  0  0  0  0  0  0  0
   47.8716  -17.7119   -8.1983 C   0  0  0  0  0  0  0  0  0  0  0  0
   51.9728  -17.6809   -7.1694 C   0  0  0  0  0  0  0  0  0  0  0  0
   46.8861  -15.5454   -6.7573 C   0  0  0  0  0  0  0  0  0  0  0  0
   52.1247  -15.5100   -5.4343 C   0  0  0  0  0  0  0  0  0  0  0  0
   50.1296  -17.9976  -12.2154 C   0  0  0  0  0  0  0  0  0  0  0  0
   50.1260  -20.1857  -13.2159 C   0  0  0  0  0  0  0  0  0  0  0  0
   49.7023  -17.1477  -11.0129 C   0  0  0  0  0  0  0  0  0  0  0  0
   46.5665  -17.7364   -7.7020 C   0  0  0  0  0  0  0  0  0  0  0  0
   52.8878  -17.6907   -6.1148 C   0  0  0  0  0  0  0  0  0  0  0  0
   52.9702  -16.6032   -5.2529 C   0  0  0  0  0  0  0  0  0  0  0  0
   46.0707  -16.6513   -6.9894 C   0  0  0  0  0  0  0  0  0  0  0  0
   50.2476  -15.5288   -9.0041 H   0  0  0  0  0  0  0  0  0  0  0  0
   48.4725  -13.3746   -6.9370 H   0  0  0  0  0  0  0  0  0  0  0  0
   50.7821  -13.3590   -6.3486 H   0  0  0  0  0  0  0  0  0  0  0  0
   50.3351  -19.7832  -11.2382 H   0  0  0  0  0  0  0  0  0  0  0  0
   51.5423  -17.3963   -9.9507 H   0  0  0  0  0  0  0  0  0  0  0  0
   50.3004  -18.5254   -9.4352 H   0  0  0  0  0  0  0  0  0  0  0  0
   48.2185  -18.5825   -8.7479 H   0  0  0  0  0  0  0  0  0  0  0  0
   51.9333  -18.5536   -7.8150 H   0  0  0  0  0  0  0  0  0  0  0  0
   46.4902  -14.7140   -6.1786 H   0  0  0  0  0  0  0  0  0  0  0  0
   52.1875  -14.6767   -4.7380 H   0  0  0  0  0  0  0  0  0  0  0  0
   49.6056  -17.6160  -13.1002 H   0  0  0  0  0  0  0  0  0  0  0  0
   51.2055  -17.8741  -12.3885 H   0  0  0  0  0  0  0  0  0  0  0  0
   49.5469  -19.8434  -14.0796 H   0  0  0  0  0  0  0  0  0  0  0  0
   51.1932  -20.1300  -13.4541 H   0  0  0  0  0  0  0  0  0  0  0  0
   49.8730  -21.2370  -13.0464 H   0  0  0  0  0  0  0  0  0  0  0  0
   49.8746  -16.0941  -11.2662 H   0  0  0  0  0  0  0  0  0  0  0  0
   48.6229  -17.2574  -10.8613 H   0  0  0  0  0  0  0  0  0  0  0  0
   45.9384  -18.6066   -7.8754 H   0  0  0  0  0  0  0  0  0  0  0  0
   53.5351  -18.5512   -5.9667 H   0  0  0  0  0  0  0  0  0  0  0  0
   53.6819  -16.6100   -4.4321 H   0  0  0  0  0  0  0  0  0  0  0  0
   45.0550  -16.6697   -6.6041 H   0  0  0  0  0  0  0  0  0  0  0  0
  2  1  1  0
  3  1  1  0
  4  6  1  0
  5  7  1  0
  6  2  2  0
  7  3  2  0
  8 14  1  0
  9  1  1  0
 10  2  1  0
 11  3  1  0
 12  6  1  0
 13  7  1  0
 14 16  1  0
 15  8  1  0
 16  9  1  0
 17 10  2  0
 18 11  2  0
 19 18  1  0
 20 17  1  0
  5  4  2  0
 19 13  2  0
 20 12  2  0
  1 21  1  0
  4 22  1  0
  5 23  1  0
  8 24  1  0
  9 25  1  0
  9 26  1  0
 10 27  1  0
 11 28  1  0
 12 29  1  0
 13 30  1  0
 14 31  1  0
 14 32  1  0
 15 33  1  0
 15 34  1  0
 15 35  1  0
 16 36  1  0
 16 37  1  0
 17 38  1  0
 18 39  1  0
 19 40  1  0
 20 41  1  0
M  END
> <Uni-Dock RESULT> 
ENERGY=   -5.292  LOWER_BOUND=    2.539  UPPER_BOUND=    4.879
INTER + INTRA:          -5.292
INTER:                  -5.292
INTRA:                   0.000
UNBOUND:                 0.000

$$$$

     RDKit          3D

 41 43  0  0  0  0  0  0  0  0999 V2000
   50.1236  -16.4910   -8.5584 C   0  0  0  0  0  0  0  0  0  0  0  0
   48.7043  -16.6423   -8.0065 C   0  0  0  0  0  0  0  0  0  0  0  0
   51.1245  -16.4717   -7.3969 C   0  0  0  0  0  0  0  0  0  0  0  0
   48.8768  -14.3409   -6.9538 C   0  0  0  0  0  0  0  0  0  0  0  0
   50.1769  -14.2499   -6.6249 C   0  0  0  0  0  0  0  0  0  0  0  0
   48.1432  -15.5844   -7.2525 C   0  0  0  0  0  0  0  0  0  0  0  0
   51.1209  -15.3755   -6.5025 C   0  0  0  0  0  0  0  0  0  0  0  0
   49.9673  -19.4281  -12.0033 N   0  0  0  0  0  0  0  0  0  0  0  0
   50.5201  -17.4389   -9.7240 C   0  0  0  0  0  0  0  0  0  0  0  0
   47.9420  -17.8096   -8.1909 C   0  0  0  0  0  0  0  0  0  0  0  0
   52.0355  -17.5196   -7.1716 C   0  0  0  0  0  0  0  0  0  0  0  0
   46.8294  -15.6920   -6.7698 C   0  0  0  0  0  0  0  0  0  0  0  0
   52.0584  -15.3257   -5.4590 C   0  0  0  0  0  0  0  0  0  0  0  0
   50.2066  -17.9993  -12.2100 C   0  0  0  0  0  0  0  0  0  0  0  0
   50.3340  -20.1938  -13.1881 C   0  0  0  0  0  0  0  0  0  0  0  0
   49.7306  -17.1645  -11.0151 C   0  0  0  0  0  0  0  0  0  0  0  0
   46.6416  -17.9080   -7.6914 C   0  0  0  0  0  0  0  0  0  0  0  0
   52.9512  -17.4631   -6.1190 C   0  0  0  0  0  0  0  0  0  0  0  0
   52.9689  -16.3637   -5.2684 C   0  0  0  0  0  0  0  0  0  0  0  0
   46.0822  -16.8477   -6.9887 C   0  0  0  0  0  0  0  0  0  0  0  0
   50.1800  -15.4950   -9.0242 H   0  0  0  0  0  0  0  0  0  0  0  0
   48.2810  -13.4311   -6.9751 H   0  0  0  0  0  0  0  0  0  0  0  0
   50.5864  -13.2695   -6.3921 H   0  0  0  0  0  0  0  0  0  0  0  0
   50.5216  -19.7590  -11.2150 H   0  0  0  0  0  0  0  0  0  0  0  0
   51.5840  -17.2903   -9.9547 H   0  0  0  0  0  0  0  0  0  0  0  0
   50.4136  -18.4871   -9.4249 H   0  0  0  0  0  0  0  0  0  0  0  0
   48.3402  -18.6632   -8.7323 H   0  0  0  0  0  0  0  0  0  0  0  0
   52.0479  -18.3996   -7.8082 H   0  0  0  0  0  0  0  0  0  0  0  0
   46.3848  -14.8803   -6.1987 H   0  0  0  0  0  0  0  0  0  0  0  0
   52.0717  -14.4830   -4.7714 H   0  0  0  0  0  0  0  0  0  0  0  0
   49.6590  -17.6593  -13.0974 H   0  0  0  0  0  0  0  0  0  0  0  0
   51.2728  -17.8126  -12.3867 H   0  0  0  0  0  0  0  0  0  0  0  0
   49.7339  -19.8961  -14.0539 H   0  0  0  0  0  0  0  0  0  0  0  0
   51.3955  -20.0760  -13.4292 H   0  0  0  0  0  0  0  0  0  0  0  0
   50.1455  -21.2566  -13.0073 H   0  0  0  0  0  0  0  0  0  0  0  0
   49.8383  -16.1051  -11.2796 H   0  0  0  0  0  0  0  0  0  0  0  0
   48.6600  -17.3378  -10.8601 H   0  0  0  0  0  0  0  0  0  0  0  0
   46.0671  -18.8164   -7.8545 H   0  0  0  0  0  0  0  0  0  0  0  0
   53.6496  -18.2812   -5.9636 H   0  0  0  0  0  0  0  0  0  0  0  0
   53.6811  -16.3189   -4.4492 H   0  0  0  0  0  0  0  0  0  0  0  0
   45.0701  -16.9236   -6.6010 H   0  0  0  0  0  0  0  0  0  0  0  0
  2  1  1  0
  3  1  1  0
  4  6  1  0
  5  7  1  0
  6  2  2  0
  7  3  2  0
  8 14  1  0
  9  1  1  0
 10  2  1  0
 11  3  1  0
 12  6  1  0
 13  7  1  0
 14 16  1  0
 15  8  1  0
 16  9  1  0
 17 10  2  0
 18 11  2  0
 19 18  1  0
 20 17  1  0
  5  4  2  0
 19 13  2  0
 20 12  2  0
  1 21  1  0
  4 22  1  0
  5 23  1  0
  8 24  1  0
  9 25  1  0
  9 26  1  0
 10 27  1  0
 11 28  1  0
 12 29  1  0
 13 30  1  0
 14 31  1  0
 14 32  1  0
 15 33  1  0
 15 34  1  0
 15 35  1  0
 16 36  1  0
 16 37  1  0
 17 38  1  0
 18 39  1  0
 19 40  1  0
 20 41  1  0
M  END
> <Uni-Dock RESULT> 
ENERGY=   -5.291  LOWER_BOUND=    2.549  UPPER_BOUND=    4.948
INTER + INTRA:          -5.291
INTER:                  -5.291
INTRA:                   0.000
UNBOUND:                 0.000

$$$$

     RDKit          3D

 41 43  0  0  0  0  0  0  0  0999 V2000
   49.7522  -18.5245   -7.4566 C   0  0  0  0  0  0  0  0  0  0  0  0
   50.3326  -18.9630   -6.1101 C   0  0  0  0  0  0  0  0  0  0  0  0
   48.5990  -17.5418   -7.2206 C   0  0  0  0  0  0  0  0  0  0  0  0
   48.1656  -20.1689   -5.5775 C   0  0  0  0  0  0  0  0  0  0  0  0
   47.2339  -19.4044   -6.1729 C   0  0  0  0  0  0  0  0  0  0  0  0
   49.5421  -19.7576   -5.2465 C   0  0  0  0  0  0  0  0  0  0  0  0
   47.4098  -18.0085   -6.6126 C   0  0  0  0  0  0  0  0  0  0  0  0
   53.5703  -17.7754   -9.7759 N   0  0  0  0  0  0  0  0  0  0  0  0
   50.7713  -18.0622   -8.5346 C   0  0  0  0  0  0  0  0  0  0  0  0
   51.6149  -18.5790   -5.6788 C   0  0  0  0  0  0  0  0  0  0  0  0
   48.6877  -16.1811   -7.5661 C   0  0  0  0  0  0  0  0  0  0  0  0
   50.0724  -20.1986   -4.0238 C   0  0  0  0  0  0  0  0  0  0  0  0
   46.3315  -17.1291   -6.4276 C   0  0  0  0  0  0  0  0  0  0  0  0
   52.5985  -18.7903  -10.1849 C   0  0  0  0  0  0  0  0  0  0  0  0
   54.4942  -17.4724  -10.8617 C   0  0  0  0  0  0  0  0  0  0  0  0
   51.6824  -19.1999   -9.0256 C   0  0  0  0  0  0  0  0  0  0  0  0
   52.1232  -19.0130   -4.4526 C   0  0  0  0  0  0  0  0  0  0  0  0
   47.6120  -15.3150   -7.3604 C   0  0  0  0  0  0  0  0  0  0  0  0
   46.4319  -15.7896   -6.7997 C   0  0  0  0  0  0  0  0  0  0  0  0
   51.3567  -19.8288   -3.6292 C   0  0  0  0  0  0  0  0  0  0  0  0
   49.3007  -19.4179   -7.9151 H   0  0  0  0  0  0  0  0  0  0  0  0
   47.8931  -21.1764   -5.2711 H   0  0  0  0  0  0  0  0  0  0  0  0
   46.2411  -19.8211   -6.3270 H   0  0  0  0  0  0  0  0  0  0  0  0
   53.0837  -16.9202   -9.5116 H   0  0  0  0  0  0  0  0  0  0  0  0
   50.2181  -17.6880   -9.4070 H   0  0  0  0  0  0  0  0  0  0  0  0
   51.3707  -17.2225   -8.1670 H   0  0  0  0  0  0  0  0  0  0  0  0
   52.2476  -17.9410   -6.2895 H   0  0  0  0  0  0  0  0  0  0  0  0
   49.5952  -15.7695   -7.9983 H   0  0  0  0  0  0  0  0  0  0  0  0
   49.4772  -20.8189   -3.3576 H   0  0  0  0  0  0  0  0  0  0  0  0
   45.4086  -17.4790   -5.9705 H   0  0  0  0  0  0  0  0  0  0  0  0
   53.1267  -19.6875  -10.5295 H   0  0  0  0  0  0  0  0  0  0  0  0
   51.9910  -18.4219  -11.0204 H   0  0  0  0  0  0  0  0  0  0  0  0
   55.0678  -18.3581  -11.1531 H   0  0  0  0  0  0  0  0  0  0  0  0
   53.9683  -17.0806  -11.7385 H   0  0  0  0  0  0  0  0  0  0  0  0
   55.2088  -16.7126  -10.5301 H   0  0  0  0  0  0  0  0  0  0  0  0
   51.0569  -20.0337   -9.3685 H   0  0  0  0  0  0  0  0  0  0  0  0
   52.2946  -19.5891   -8.2047 H   0  0  0  0  0  0  0  0  0  0  0  0
   53.1210  -18.7118   -4.1439 H   0  0  0  0  0  0  0  0  0  0  0  0
   47.6988  -14.2676   -7.6374 H   0  0  0  0  0  0  0  0  0  0  0  0
   45.5944  -15.1164   -6.6394 H   0  0  0  0  0  0  0  0  0  0  0  0
   51.7523  -20.1674   -2.6756 H   0  0  0  0  0  0  0  0  0  0  0  0
  2  1  1  0
  3  1  1  0
  4  6  1  0
  5  7  1  0
  6  2  2  0
  7  3  2  0
  8 14  1  0
  9  1  1  0
 10  2  1  0
 11  3  1  0
 12  6  1  0
 13  7  1  0
 14 16  1  0
 15  8  1  0
 16  9  1  0
 17 10  2  0
 18 11  2  0
 19 18  1  0
 20 17  1  0
  5  4  2  0
 19 13  2  0
 20 12  2  0
  1 21  1  0
  4 22  1  0
  5 23  1  0
  8 24  1  0
  9 25  1  0
  9 26  1  0
 10 27  1  0
 11 28  1  0
 12 29  1  0
 13 30  1  0
 14 31  1  0
 14 32  1  0
 15 33  1  0
 15 34  1  0
 15 35  1  0
 16 36  1  0
 16 37  1  0
 17 38  1  0
 18 39  1  0
 19 40  1  0
 20 41  1  0
M  END
> <Uni-Dock RESULT> 
ENERGY=   -5.239  LOWER_BOUND=    2.901  UPPER_BOUND=    4.839
INTER + INTRA:          -5.239
INTER:                  -5.239
INTRA:                   0.000
UNBOUND:                 0.000

$$$$

     RDKit          3D

 41 43  0  0  0  0  0  0  0  0999 V2000
   45.9388  -19.3324   -8.8507 C   0  0  0  0  0  0  0  0  0  0  0  0
   46.3427  -17.9398   -8.3614 C   0  0  0  0  0  0  0  0  0  0  0  0
   44.4902  -19.6193   -8.4376 C   0  0  0  0  0  0  0  0  0  0  0  0
   46.1931  -18.7481   -5.9617 C   0  0  0  0  0  0  0  0  0  0  0  0
   45.1967  -19.6494   -6.0025 C   0  0  0  0  0  0  0  0  0  0  0  0
   46.4623  -17.7074   -6.9707 C   0  0  0  0  0  0  0  0  0  0  0  0
   44.1828  -19.7732   -7.0653 C   0  0  0  0  0  0  0  0  0  0  0  0
   47.6308  -19.2342  -13.0514 N   0  0  0  0  0  0  0  0  0  0  0  0
   46.2547  -19.6656  -10.3352 C   0  0  0  0  0  0  0  0  0  0  0  0
   46.5694  -16.8660   -9.2408 C   0  0  0  0  0  0  0  0  0  0  0  0
   43.4453  -19.7124   -9.3748 C   0  0  0  0  0  0  0  0  0  0  0  0
   46.8669  -16.4459   -6.5065 C   0  0  0  0  0  0  0  0  0  0  0  0
   42.8686  -20.0761   -6.6763 C   0  0  0  0  0  0  0  0  0  0  0  0
   48.0885  -20.1994  -12.0511 C   0  0  0  0  0  0  0  0  0  0  0  0
   48.0363  -19.6413  -14.3909 C   0  0  0  0  0  0  0  0  0  0  0  0
   47.7634  -19.7380  -10.6255 C   0  0  0  0  0  0  0  0  0  0  0  0
   46.9566  -15.6122   -8.7631 C   0  0  0  0  0  0  0  0  0  0  0  0
   42.1396  -19.9979   -8.9705 C   0  0  0  0  0  0  0  0  0  0  0  0
   41.8524  -20.1881   -7.6238 C   0  0  0  0  0  0  0  0  0  0  0  0
   47.1136  -15.4038   -7.3982 C   0  0  0  0  0  0  0  0  0  0  0  0
   46.5601  -20.0562   -8.3008 H   0  0  0  0  0  0  0  0  0  0  0  0
   46.8550  -18.7435   -5.0986 H   0  0  0  0  0  0  0  0  0  0  0  0
   45.0884  -20.3418   -5.1706 H   0  0  0  0  0  0  0  0  0  0  0  0
   46.6146  -19.1659  -13.0234 H   0  0  0  0  0  0  0  0  0  0  0  0
   45.8290  -20.6496  -10.5753 H   0  0  0  0  0  0  0  0  0  0  0  0
   45.7692  -18.9484  -11.0056 H   0  0  0  0  0  0  0  0  0  0  0  0
   46.4568  -16.9836  -10.3149 H   0  0  0  0  0  0  0  0  0  0  0  0
   43.6267  -19.5618  -10.4350 H   0  0  0  0  0  0  0  0  0  0  0  0
   46.9727  -16.2599   -5.4401 H   0  0  0  0  0  0  0  0  0  0  0  0
   42.6224  -20.2067   -5.6249 H   0  0  0  0  0  0  0  0  0  0  0  0
   49.1762  -20.3190  -12.1262 H   0  0  0  0  0  0  0  0  0  0  0  0
   47.6339  -21.1809  -12.2320 H   0  0  0  0  0  0  0  0  0  0  0  0
   49.1265  -19.6910  -14.4772 H   0  0  0  0  0  0  0  0  0  0  0  0
   47.6099  -20.6129  -14.6613 H   0  0  0  0  0  0  0  0  0  0  0  0
   47.6823  -18.9039  -15.1182 H   0  0  0  0  0  0  0  0  0  0  0  0
   48.2263  -20.4471   -9.9277 H   0  0  0  0  0  0  0  0  0  0  0  0
   48.2408  -18.7688  -10.4444 H   0  0  0  0  0  0  0  0  0  0  0  0
   47.1361  -14.7992   -9.4620 H   0  0  0  0  0  0  0  0  0  0  0  0
   41.3465  -20.0694   -9.7103 H   0  0  0  0  0  0  0  0  0  0  0  0
   40.8368  -20.4104   -7.3084 H   0  0  0  0  0  0  0  0  0  0  0  0
   47.4159  -14.4287   -7.0263 H   0  0  0  0  0  0  0  0  0  0  0  0
  2  1  1  0
  3  1  1  0
  4  6  1  0
  5  7  1  0
  6  2  2  0
  7  3  2  0
  8 14  1  0
  9  1  1  0
 10  2  1  0
 11  3  1  0
 12  6  1  0
 13  7  1  0
 14 16  1  0
 15  8  1  0
 16  9  1  0
 17 10  2  0
 18 11  2  0
 19 18  1  0
 20 17  1  0
  5  4  2  0
 19 13  2  0
 20 12  2  0
  1 21  1  0
  4 22  1  0
  5 23  1  0
  8 24  1  0
  9 25  1  0
  9 26  1  0
 10 27  1  0
 11 28  1  0
 12 29  1  0
 13 30  1  0
 14 31  1  0
 14 32  1  0
 15 33  1  0
 15 34  1  0
 15 35  1  0
 16 36  1  0
 16 37  1  0
 17 38  1  0
 18 39  1  0
 19 40  1  0
 20 41  1  0
M  END
> <Uni-Dock RESULT> 
ENERGY=   -4.907  LOWER_BOUND=    3.096  UPPER_BOUND=    4.413
INTER + INTRA:          -4.907
INTER:                  -4.907
INTRA:                   0.000
UNBOUND:                 0.000

$$$$

     RDKit          3D

 41 43  0  0  0  0  0  0  0  0999 V2000
   50.0474  -17.9398   -8.2308 C   0  0  0  0  0  0  0  0  0  0  0  0
   51.0115  -17.9886   -7.0434 C   0  0  0  0  0  0  0  0  0  0  0  0
   48.7451  -17.2518   -7.8042 C   0  0  0  0  0  0  0  0  0  0  0  0
   49.4493  -19.5924   -5.8509 C   0  0  0  0  0  0  0  0  0  0  0  0
   48.2315  -19.1954   -6.2586 C   0  0  0  0  0  0  0  0  0  0  0  0
   50.6904  -18.8006   -5.9298 C   0  0  0  0  0  0  0  0  0  0  0  0
   47.9024  -17.8932   -6.8659 C   0  0  0  0  0  0  0  0  0  0  0  0
   52.8837  -16.6562  -11.5211 N   0  0  0  0  0  0  0  0  0  0  0  0
   50.6283  -17.4233   -9.5762 C   0  0  0  0  0  0  0  0  0  0  0  0
   52.1946  -17.2298   -6.9987 C   0  0  0  0  0  0  0  0  0  0  0  0
   48.3656  -15.9894   -8.2950 C   0  0  0  0  0  0  0  0  0  0  0  0
   51.5811  -18.8849   -4.8480 C   0  0  0  0  0  0  0  0  0  0  0  0
   46.6881  -17.2935   -6.4973 C   0  0  0  0  0  0  0  0  0  0  0  0
   52.1739  -17.9354  -11.5615 C   0  0  0  0  0  0  0  0  0  0  0  0
   53.4192  -16.3168  -12.8335 C   0  0  0  0  0  0  0  0  0  0  0  0
   51.6921  -18.3623  -10.1699 C   0  0  0  0  0  0  0  0  0  0  0  0
   53.0635  -17.3124   -5.9086 C   0  0  0  0  0  0  0  0  0  0  0  0
   47.1620  -15.3981   -7.9058 C   0  0  0  0  0  0  0  0  0  0  0  0
   46.3197  -16.0528   -7.0146 C   0  0  0  0  0  0  0  0  0  0  0  0
   52.7620  -18.1451   -4.8378 C   0  0  0  0  0  0  0  0  0  0  0  0
   49.7776  -18.9812   -8.4654 H   0  0  0  0  0  0  0  0  0  0  0  0
   49.5485  -20.5704   -5.3854 H   0  0  0  0  0  0  0  0  0  0  0  0
   47.3891  -19.8670   -6.1083 H   0  0  0  0  0  0  0  0  0  0  0  0
   52.2458  -15.9183  -11.2269 H   0  0  0  0  0  0  0  0  0  0  0  0
   49.8128  -17.3501  -10.3089 H   0  0  0  0  0  0  0  0  0  0  0  0
   51.0311  -16.4113   -9.4619 H   0  0  0  0  0  0  0  0  0  0  0  0
   52.4688  -16.5647   -7.8128 H   0  0  0  0  0  0  0  0  0  0  0  0
   48.9999  -15.4416   -8.9860 H   0  0  0  0  0  0  0  0  0  0  0  0
   51.3492  -19.5145   -3.9921 H   0  0  0  0  0  0  0  0  0  0  0  0
   46.0274  -17.7821   -5.7846 H   0  0  0  0  0  0  0  0  0  0  0  0
   52.8447  -18.7164  -11.9395 H   0  0  0  0  0  0  0  0  0  0  0  0
   51.3175  -17.8751  -12.2440 H   0  0  0  0  0  0  0  0  0  0  0  0
   54.1409  -17.0666  -13.1732 H   0  0  0  0  0  0  0  0  0  0  0  0
   52.6232  -16.2206  -13.5791 H   0  0  0  0  0  0  0  0  0  0  0  0
   53.9441  -15.3581  -12.7755 H   0  0  0  0  0  0  0  0  0  0  0  0
   51.2688  -19.3711  -10.2543 H   0  0  0  0  0  0  0  0  0  0  0  0
   52.5555  -18.4436   -9.5005 H   0  0  0  0  0  0  0  0  0  0  0  0
   53.9776  -16.7240   -5.9001 H   0  0  0  0  0  0  0  0  0  0  0  0
   46.8848  -14.4235   -8.2991 H   0  0  0  0  0  0  0  0  0  0  0  0
   45.3829  -15.5935   -6.7114 H   0  0  0  0  0  0  0  0  0  0  0  0
   53.4384  -18.2104   -3.9900 H   0  0  0  0  0  0  0  0  0  0  0  0
  2  1  1  0
  3  1  1  0
  4  6  1  0
  5  7  1  0
  6  2  2  0
  7  3  2  0
  8 14  1  0
  9  1  1  0
 10  2  1  0
 11  3  1  0
 12  6  1  0
 13  7  1  0
 14 16  1  0
 15  8  1  0
 16  9  1  0
 17 10  2  0
 18 11  2  0
 19 18  1  0
 20 17  1  0
  5  4  2  0
 19 13  2  0
 20 12  2  0
  1 21  1  0
  4 22  1  0
  5 23  1  0
  8 24  1  0
  9 25  1  0
  9 26  1  0
 10 27  1  0
 11 28  1  0
 12 29  1  0
 13 30  1  0
 14 31  1  0
 14 32  1  0
 15 33  1  0
 15 34  1  0
 15 35  1  0
 16 36  1  0
 16 37  1  0
 17 38  1  0
 18 39  1  0
 19 40  1  0
 20 41  1  0
M  END
> <Uni-Dock RESULT> 
ENERGY=   -4.706  LOWER_BOUND=    2.821  UPPER_BOUND=    4.039
INTER + INTRA:          -4.706
INTER:                  -4.706
INTRA:                   0.000
UNBOUND:                 0.000

$$$$

     RDKit          3D

 41 43  0  0  0  0  0  0  0  0999 V2000
   49.0011  -16.9599   -7.2505 C   0  0  0  0  0  0  0  0  0  0  0  0
   49.1784  -16.9276   -8.7702 C   0  0  0  0  0  0  0  0  0  0  0  0
   47.8093  -17.8563   -6.8937 C   0  0  0  0  0  0  0  0  0  0  0  0
   46.9743  -15.6922   -8.9933 C   0  0  0  0  0  0  0  0  0  0  0  0
   46.2382  -16.1923   -7.9859 C   0  0  0  0  0  0  0  0  0  0  0  0
   48.1890  -16.3017   -9.5649 C   0  0  0  0  0  0  0  0  0  0  0  0
   46.5050  -17.4451   -7.2563 C   0  0  0  0  0  0  0  0  0  0  0  0
   53.3091  -17.4668   -5.9458 N   0  0  0  0  0  0  0  0  0  0  0  0
   50.2777  -17.2338   -6.4081 C   0  0  0  0  0  0  0  0  0  0  0  0
   50.2745  -17.5268   -9.4161 C   0  0  0  0  0  0  0  0  0  0  0  0
   47.9664  -19.0902   -6.2368 C   0  0  0  0  0  0  0  0  0  0  0  0
   48.3540  -16.2314  -10.9572 C   0  0  0  0  0  0  0  0  0  0  0  0
   45.4017  -18.2363   -6.9002 C   0  0  0  0  0  0  0  0  0  0  0  0
   52.5165  -16.2946   -5.5726 C   0  0  0  0  0  0  0  0  0  0  0  0
   54.5000  -17.5763   -5.1125 C   0  0  0  0  0  0  0  0  0  0  0  0
   51.3141  -16.1014   -6.5043 C   0  0  0  0  0  0  0  0  0  0  0  0
   50.4173  -17.4621  -10.8038 C   0  0  0  0  0  0  0  0  0  0  0  0
   46.8598  -19.8742   -5.9041 C   0  0  0  0  0  0  0  0  0  0  0  0
   45.5780  -19.4443   -6.2275 C   0  0  0  0  0  0  0  0  0  0  0  0
   49.4629  -16.8080  -11.5735 C   0  0  0  0  0  0  0  0  0  0  0  0
   48.7184  -15.9418   -6.9409 H   0  0  0  0  0  0  0  0  0  0  0  0
   46.6455  -14.7716   -9.4702 H   0  0  0  0  0  0  0  0  0  0  0  0
   45.3401  -15.6581   -7.6839 H   0  0  0  0  0  0  0  0  0  0  0  0
   52.7500  -18.3107   -5.8304 H   0  0  0  0  0  0  0  0  0  0  0  0
   49.9914  -17.3248   -5.3512 H   0  0  0  0  0  0  0  0  0  0  0  0
   50.7291  -18.1916   -6.6881 H   0  0  0  0  0  0  0  0  0  0  0  0
   51.0432  -18.0497   -8.8540 H   0  0  0  0  0  0  0  0  0  0  0  0
   48.9514  -19.4655   -5.9747 H   0  0  0  0  0  0  0  0  0  0  0  0
   47.6049  -15.7429  -11.5762 H   0  0  0  0  0  0  0  0  0  0  0  0
   44.3935  -17.9252   -7.1647 H   0  0  0  0  0  0  0  0  0  0  0  0
   53.1393  -15.3941   -5.6361 H   0  0  0  0  0  0  0  0  0  0  0  0
   52.1676  -16.3839   -4.5367 H   0  0  0  0  0  0  0  0  0  0  0  0
   55.1507  -16.7044   -5.2345 H   0  0  0  0  0  0  0  0  0  0  0  0
   54.2406  -17.6857   -4.0544 H   0  0  0  0  0  0  0  0  0  0  0  0
   55.0737  -18.4590   -5.4118 H   0  0  0  0  0  0  0  0  0  0  0  0
   50.8304  -15.1531   -6.2384 H   0  0  0  0  0  0  0  0  0  0  0  0
   51.6720  -15.9888   -7.5335 H   0  0  0  0  0  0  0  0  0  0  0  0
   51.2780  -17.9239  -11.2809 H   0  0  0  0  0  0  0  0  0  0  0  0
   47.0017  -20.8230   -5.3932 H   0  0  0  0  0  0  0  0  0  0  0  0
   44.7166  -20.0536   -5.9689 H   0  0  0  0  0  0  0  0  0  0  0  0
   49.5742  -16.7566  -12.6530 H   0  0  0  0  0  0  0  0  0  0  0  0
  2  1  1  0
  3  1  1  0
  4  6  1  0
  5  7  1  0
  6  2  2  0
  7  3  2  0
  8 14  1  0
  9  1  1  0
 10  2  1  0
 11  3  1  0
 12  6  1  0
 13  7  1  0
 14 16  1  0
 15  8  1  0
 16  9  1  0
 17 10  2  0
 18 11  2  0
 19 18  1  0
 20 17  1  0
  5  4  2  0
 19 13  2  0
 20 12  2  0
  1 21  1  0
  4 22  1  0
  5 23  1  0
  8 24  1  0
  9 25  1  0
  9 26  1  0
 10 27  1  0
 11 28  1  0
 12 29  1  0
 13 30  1  0
 14 31  1  0
 14 32  1  0
 15 33  1  0
 15 34  1  0
 15 35  1  0
 16 36  1  0
 16 37  1  0
 17 38  1  0
 18 39  1  0
 19 40  1  0
 20 41  1  0
M  END
> <Uni-Dock RESULT> 
ENERGY=   -4.502  LOWER_BOUND=    2.532  UPPER_BOUND=    5.192
INTER + INTRA:          -4.502
INTER:                  -4.502
INTRA:                   0.000
UNBOUND:                 0.000

$$$$

     RDKit          3D

 41 43  0  0  0  0  0  0  0  0999 V2000
   46.9919  -16.0256   -9.7308 C   0  0  0  0  0  0  0  0  0  0  0  0
   45.9608  -17.1032   -9.3881 C   0  0  0  0  0  0  0  0  0  0  0  0
   48.3694  -16.4516   -9.2090 C   0  0  0  0  0  0  0  0  0  0  0  0
   46.2366  -16.5723   -6.9231 C   0  0  0  0  0  0  0  0  0  0  0  0
   47.5312  -16.2236   -6.8267 C   0  0  0  0  0  0  0  0  0  0  0  0
   45.6218  -17.3242   -8.0321 C   0  0  0  0  0  0  0  0  0  0  0  0
   48.5853  -16.5232   -7.8126 C   0  0  0  0  0  0  0  0  0  0  0  0
   45.8322  -15.1328  -14.0175 N   0  0  0  0  0  0  0  0  0  0  0  0
   46.9982  -15.5118  -11.1972 C   0  0  0  0  0  0  0  0  0  0  0  0
   45.3568  -17.9103  -10.3686 C   0  0  0  0  0  0  0  0  0  0  0  0
   49.4256  -16.7988  -10.0708 C   0  0  0  0  0  0  0  0  0  0  0  0
   44.6513  -18.2838   -7.7032 C   0  0  0  0  0  0  0  0  0  0  0  0
   49.8530  -16.8726   -7.3215 C   0  0  0  0  0  0  0  0  0  0  0  0
   45.7684  -14.1161  -12.9669 C   0  0  0  0  0  0  0  0  0  0  0  0
   45.7789  -14.5196  -15.3388 C   0  0  0  0  0  0  0  0  0  0  0  0
   45.7178  -14.7451  -11.5695 C   0  0  0  0  0  0  0  0  0  0  0  0
   44.4040  -18.8717  -10.0245 C   0  0  0  0  0  0  0  0  0  0  0  0
   50.6764  -17.1605   -9.5665 C   0  0  0  0  0  0  0  0  0  0  0  0
   50.8931  -17.1893   -8.1937 C   0  0  0  0  0  0  0  0  0  0  0  0
   44.0450  -19.0530   -8.6943 C   0  0  0  0  0  0  0  0  0  0  0  0
   46.7155  -15.1264   -9.1585 H   0  0  0  0  0  0  0  0  0  0  0  0
   45.5673  -16.3175   -6.1044 H   0  0  0  0  0  0  0  0  0  0  0  0
   47.8627  -15.6990   -5.9333 H   0  0  0  0  0  0  0  0  0  0  0  0
   46.7012  -15.6582  -13.9351 H   0  0  0  0  0  0  0  0  0  0  0  0
   47.8416  -14.8195  -11.3259 H   0  0  0  0  0  0  0  0  0  0  0  0
   47.1680  -16.3371  -11.8967 H   0  0  0  0  0  0  0  0  0  0  0  0
   45.6087  -17.8039  -11.4200 H   0  0  0  0  0  0  0  0  0  0  0  0
   49.2944  -16.7973  -11.1490 H   0  0  0  0  0  0  0  0  0  0  0  0
   44.3754  -18.4538   -6.6650 H   0  0  0  0  0  0  0  0  0  0  0  0
   50.0335  -16.9209   -6.2500 H   0  0  0  0  0  0  0  0  0  0  0  0
   44.8633  -13.5101  -13.0960 H   0  0  0  0  0  0  0  0  0  0  0  0
   46.6309  -13.4422  -13.0352 H   0  0  0  0  0  0  0  0  0  0  0  0
   44.8412  -13.9741  -15.4851 H   0  0  0  0  0  0  0  0  0  0  0  0
   46.6202  -13.8373  -15.4986 H   0  0  0  0  0  0  0  0  0  0  0  0
   45.8281  -15.3002  -16.1044 H   0  0  0  0  0  0  0  0  0  0  0  0
   45.5620  -13.9386  -10.8420 H   0  0  0  0  0  0  0  0  0  0  0  0
   44.8406  -15.3977  -11.5012 H   0  0  0  0  0  0  0  0  0  0  0  0
   43.9428  -19.4776  -10.8003 H   0  0  0  0  0  0  0  0  0  0  0  0
   51.4811  -17.4219  -10.2488 H   0  0  0  0  0  0  0  0  0  0  0  0
   51.8660  -17.4705   -7.8005 H   0  0  0  0  0  0  0  0  0  0  0  0
   43.3030  -19.8001   -8.4265 H   0  0  0  0  0  0  0  0  0  0  0  0
  2  1  1  0
  3  1  1  0
  4  6  1  0
  5  7  1  0
  6  2  2  0
  7  3  2  0
  8 14  1  0
  9  1  1  0
 10  2  1  0
 11  3  1  0
 12  6  1  0
 13  7  1  0
 14 16  1  0
 15  8  1  0
 16  9  1  0
 17 10  2  0
 18 11  2  0
 19 18  1  0
 20 17  1  0
  5  4  2  0
 19 13  2  0
 20 12  2  0
  1 21  1  0
  4 22  1  0
  5 23  1  0
  8 24  1  0
  9 25  1  0
  9 26  1  0
 10 27  1  0
 11 28  1  0
 12 29  1  0
 13 30  1  0
 14 31  1  0
 14 32  1  0
 15 33  1  0
 15 34  1  0
 15 35  1  0
 16 36  1  0
 16 37  1  0
 17 38  1  0
 18 39  1  0
 19 40  1  0
 20 41  1  0
M  END
> <Uni-Dock RESULT> 
ENERGY=   -4.222  LOWER_BOUND=    2.161  UPPER_BOUND=    4.879
INTER + INTRA:          -4.222
INTER:                  -4.222
INTRA:                   0.000
UNBOUND:                 0.000

$$$$
