
     RDKit          3D

 41 43  0  0  0  0  0  0  0  0999 V2000
   48.1215  -17.0014   -7.9958 C   0  0  0  0  0  0  0  0  0  0  0  0
   49.2215  -16.1572   -7.3579 C   0  0  0  0  0  0  0  0  0  0  0  0
   47.5505  -18.0465   -7.0426 C   0  0  0  0  0  0  0  0  0  0  0  0
   50.6777  -18.1567   -6.7987 C   0  0  0  0  0  0  0  0  0  0  0  0
   49.7953  -19.1517   -6.6231 C   0  0  0  0  0  0  0  0  0  0  0  0
   50.3937  -16.7156   -6.8153 C   0  0  0  0  0  0  0  0  0  0  0  0
   48.3458  -19.0251   -6.4169 C   0  0  0  0  0  0  0  0  0  0  0  0
   46.6031  -15.6259  -10.6721 N   0  0  0  0  0  0  0  0  0  0  0  0
   48.5659  -17.5826   -9.3642 C   0  0  0  0  0  0  0  0  0  0  0  0
   49.0612  -14.7557   -7.3342 C   0  0  0  0  0  0  0  0  0  0  0  0
   46.1632  -18.0338   -6.7870 C   0  0  0  0  0  0  0  0  0  0  0  0
   51.3813  -15.8630   -6.2917 C   0  0  0  0  0  0  0  0  0  0  0  0
   47.7343  -19.9747   -5.5795 C   0  0  0  0  0  0  0  0  0  0  0  0
   47.0095  -16.8802  -11.3058 C   0  0  0  0  0  0  0  0  0  0  0  0
   46.0960  -14.6844  -11.6635 C   0  0  0  0  0  0  0  0  0  0  0  0
   47.3958  -17.9615  -10.2875 C   0  0  0  0  0  0  0  0  0  0  0  0
   50.0444  -13.9250   -6.7981 C   0  0  0  0  0  0  0  0  0  0  0  0
   45.5742  -18.9748   -5.9435 C   0  0  0  0  0  0  0  0  0  0  0  0
   46.3602  -19.9480   -5.3406 C   0  0  0  0  0  0  0  0  0  0  0  0
   51.2074  -14.4789   -6.2792 C   0  0  0  0  0  0  0  0  0  0  0  0
   47.3004  -16.3041   -8.2029 H   0  0  0  0  0  0  0  0  0  0  0  0
   51.7267  -18.4230   -6.9142 H   0  0  0  0  0  0  0  0  0  0  0  0
   50.1762  -20.1712   -6.6071 H   0  0  0  0  0  0  0  0  0  0  0  0
   47.4145  -15.2068  -10.2178 H   0  0  0  0  0  0  0  0  0  0  0  0
   49.2181  -16.8704   -9.8867 H   0  0  0  0  0  0  0  0  0  0  0  0
   49.1724  -18.4831   -9.2154 H   0  0  0  0  0  0  0  0  0  0  0  0
   48.1584  -14.2994   -7.7359 H   0  0  0  0  0  0  0  0  0  0  0  0
   45.5272  -17.2854   -7.2570 H   0  0  0  0  0  0  0  0  0  0  0  0
   52.2965  -16.2759   -5.8725 H   0  0  0  0  0  0  0  0  0  0  0  0
   48.3319  -20.7425   -5.0924 H   0  0  0  0  0  0  0  0  0  0  0  0
   46.1855  -17.2749  -11.9132 H   0  0  0  0  0  0  0  0  0  0  0  0
   47.8555  -16.7003  -11.9807 H   0  0  0  0  0  0  0  0  0  0  0  0
   45.2045  -15.0771  -12.1631 H   0  0  0  0  0  0  0  0  0  0  0  0
   46.8546  -14.4464  -12.4163 H   0  0  0  0  0  0  0  0  0  0  0  0
   45.8104  -13.7522  -11.1664 H   0  0  0  0  0  0  0  0  0  0  0  0
   47.6944  -18.8479  -10.8623 H   0  0  0  0  0  0  0  0  0  0  0  0
   46.5149  -18.2607   -9.7091 H   0  0  0  0  0  0  0  0  0  0  0  0
   49.9001  -12.8481   -6.7861 H   0  0  0  0  0  0  0  0  0  0  0  0
   44.5033  -18.9469   -5.7619 H   0  0  0  0  0  0  0  0  0  0  0  0
   45.9078  -20.6853   -4.6834 H   0  0  0  0  0  0  0  0  0  0  0  0
   51.9781  -13.8379   -5.8601 H   0  0  0  0  0  0  0  0  0  0  0  0
  2  1  1  0
  3  1  1  0
  4  6  1  0
  5  7  1  0
  6  2  2  0
  7  3  2  0
  8 14  1  0
  9  1  1  0
 10  2  1  0
 11  3  1  0
 12  6  1  0
 13  7  1  0
 14 16  1  0
 15  8  1  0
 16  9  1  0
 17 10  2  0
 18 11  2  0
 19 18  1  0
 20 17  1  0
  5  4  2  0
 19 13  2  0
 20 12  2  0
  1 21  1  0
  4 22  1  0
  5 23  1  0
  8 24  1  0
  9 25  1  0
  9 26  1  0
 10 27  1  0
 11 28  1  0
 12 29  1  0
 13 30  1  0
 14 31  1  0
 14 32  1  0
 15 33  1  0
 15 34  1  0
 15 35  1  0
 16 36  1  0
 16 37  1  0
 17 38  1  0
 18 39  1  0
 19 40  1  0
 20 41  1  0
M  END
> <Uni-Dock RESULT> 
ENERGY=   -5.246  LOWER_BOUND=    0.000  UPPER_BOUND=    0.000
INTER + INTRA:          -5.246
INTER:                  -5.246
INTRA:                   0.000
UNBOUND:                 0.000

$$$$

     RDKit          3D

 41 43  0  0  0  0  0  0  0  0999 V2000
   49.9157  -17.1676   -8.2967 C   0  0  0  0  0  0  0  0  0  0  0  0
   48.4921  -17.0102   -7.7694 C   0  0  0  0  0  0  0  0  0  0  0  0
   50.9740  -16.8292   -7.2515 C   0  0  0  0  0  0  0  0  0  0  0  0
   48.7988  -14.5685   -7.1568 C   0  0  0  0  0  0  0  0  0  0  0  0
   50.1069  -14.4750   -6.8744 C   0  0  0  0  0  0  0  0  0  0  0  0
   48.0003  -15.7978   -7.2512 C   0  0  0  0  0  0  0  0  0  0  0  0
   51.0370  -15.5803   -6.6050 C   0  0  0  0  0  0  0  0  0  0  0  0
   50.2570  -19.1830  -10.9765 N   0  0  0  0  0  0  0  0  0  0  0  0
   50.1125  -16.4263   -9.6456 C   0  0  0  0  0  0  0  0  0  0  0  0
   47.6295  -18.1252   -7.8272 C   0  0  0  0  0  0  0  0  0  0  0  0
   51.9350  -17.8102   -6.9287 C   0  0  0  0  0  0  0  0  0  0  0  0
   46.6602  -15.7237   -6.8327 C   0  0  0  0  0  0  0  0  0  0  0  0
   52.0671  -15.3373   -5.6793 C   0  0  0  0  0  0  0  0  0  0  0  0
   50.8904  -17.9948  -11.5483 C   0  0  0  0  0  0  0  0  0  0  0  0
   50.0434  -20.2000  -11.9995 C   0  0  0  0  0  0  0  0  0  0  0  0
   51.2853  -16.9625  -10.4836 C   0  0  0  0  0  0  0  0  0  0  0  0
   46.3068  -18.0386   -7.3947 C   0  0  0  0  0  0  0  0  0  0  0  0
   52.9426  -17.5576   -5.9986 C   0  0  0  0  0  0  0  0  0  0  0  0
   53.0103  -16.3188   -5.3746 C   0  0  0  0  0  0  0  0  0  0  0  0
   45.8203  -16.8356   -6.8999 C   0  0  0  0  0  0  0  0  0  0  0  0
   50.0333  -18.2378   -8.5068 H   0  0  0  0  0  0  0  0  0  0  0  0
   48.2445  -13.6440   -7.3071 H   0  0  0  0  0  0  0  0  0  0  0  0
   50.5430  -13.4796   -6.8124 H   0  0  0  0  0  0  0  0  0  0  0  0
   49.3499  -18.9211  -10.5907 H   0  0  0  0  0  0  0  0  0  0  0  0
   49.1933  -16.4745  -10.2442 H   0  0  0  0  0  0  0  0  0  0  0  0
   50.2941  -15.3600   -9.4700 H   0  0  0  0  0  0  0  0  0  0  0  0
   47.9887  -19.0779   -8.2118 H   0  0  0  0  0  0  0  0  0  0  0  0
   51.9060  -18.7847   -7.4133 H   0  0  0  0  0  0  0  0  0  0  0  0
   46.2606  -14.7935   -6.4340 H   0  0  0  0  0  0  0  0  0  0  0  0
   52.1356  -14.3758   -5.1745 H   0  0  0  0  0  0  0  0  0  0  0  0
   51.8018  -18.2814  -12.0876 H   0  0  0  0  0  0  0  0  0  0  0  0
   50.2154  -17.5251  -12.2745 H   0  0  0  0  0  0  0  0  0  0  0  0
   50.9930  -20.5363  -12.4282 H   0  0  0  0  0  0  0  0  0  0  0  0
   49.3966  -19.8321  -12.8027 H   0  0  0  0  0  0  0  0  0  0  0  0
   49.5589  -21.0720  -11.5494 H   0  0  0  0  0  0  0  0  0  0  0  0
   51.7349  -16.1133  -11.0148 H   0  0  0  0  0  0  0  0  0  0  0  0
   52.0759  -17.3701   -9.8442 H   0  0  0  0  0  0  0  0  0  0  0  0
   45.6596  -18.9101   -7.4443 H   0  0  0  0  0  0  0  0  0  0  0  0
   53.6731  -18.3276   -5.7662 H   0  0  0  0  0  0  0  0  0  0  0  0
   53.7935  -16.1146   -4.6501 H   0  0  0  0  0  0  0  0  0  0  0  0
   44.7907  -16.7604   -6.5614 H   0  0  0  0  0  0  0  0  0  0  0  0
  2  1  1  0
  3  1  1  0
  4  6  1  0
  5  7  1  0
  6  2  2  0
  7  3  2  0
  8 14  1  0
  9  1  1  0
 10  2  1  0
 11  3  1  0
 12  6  1  0
 13  7  1  0
 14 16  1  0
 15  8  1  0
 16  9  1  0
 17 10  2  0
 18 11  2  0
 19 18  1  0
 20 17  1  0
  5  4  2  0
 19 13  2  0
 20 12  2  0
  1 21  1  0
  4 22  1  0
  5 23  1  0
  8 24  1  0
  9 25  1  0
  9 26  1  0
 10 27  1  0
 11 28  1  0
 12 29  1  0
 13 30  1  0
 14 31  1  0
 14 32  1  0
 15 33  1  0
 15 34  1  0
 15 35  1  0
 16 36  1  0
 16 37  1  0
 17 38  1  0
 18 39  1  0
 19 40  1  0
 20 41  1  0
M  END
> <Uni-Dock RESULT> 
ENERGY=   -5.237  LOWER_BOUND=    2.319  UPPER_BOUND=    4.903
INTER + INTRA:          -5.237
INTER:                  -5.237
INTRA:                   0.000
UNBOUND:                 0.000

$$$$

     RDKit          3D

 41 43  0  0  0  0  0  0  0  0999 V2000
   49.2201  -17.4295   -8.0417 C   0  0  0  0  0  0  0  0  0  0  0  0
   48.6320  -16.9032   -9.3481 C   0  0  0  0  0  0  0  0  0  0  0  0
   48.1909  -18.1538   -7.1796 C   0  0  0  0  0  0  0  0  0  0  0  0
   46.8674  -15.4945   -8.1934 C   0  0  0  0  0  0  0  0  0  0  0  0
   46.6278  -16.1595   -7.0533 C   0  0  0  0  0  0  0  0  0  0  0  0
   47.5474  -16.0076   -9.3901 C   0  0  0  0  0  0  0  0  0  0  0  0
   46.9989  -17.5467   -6.7412 C   0  0  0  0  0  0  0  0  0  0  0  0
   52.5649  -17.8437   -8.0177 N   0  0  0  0  0  0  0  0  0  0  0  0
   50.0052  -16.3278   -7.2816 C   0  0  0  0  0  0  0  0  0  0  0  0
   49.2195  -17.3179  -10.5619 C   0  0  0  0  0  0  0  0  0  0  0  0
   48.4537  -19.4868   -6.7999 C   0  0  0  0  0  0  0  0  0  0  0  0
   47.0986  -15.5313  -10.6343 C   0  0  0  0  0  0  0  0  0  0  0  0
   46.1201  -18.2736   -5.9189 C   0  0  0  0  0  0  0  0  0  0  0  0
   52.4712  -16.9721   -6.8466 C   0  0  0  0  0  0  0  0  0  0  0  0
   53.9553  -18.0297   -8.4159 C   0  0  0  0  0  0  0  0  0  0  0  0
   51.0442  -16.8777   -6.2900 C   0  0  0  0  0  0  0  0  0  0  0  0
   48.7529  -16.8468  -11.7885 C   0  0  0  0  0  0  0  0  0  0  0  0
   47.5652  -20.1981   -5.9944 C   0  0  0  0  0  0  0  0  0  0  0  0
   46.3980  -19.5903   -5.5514 C   0  0  0  0  0  0  0  0  0  0  0  0
   47.6934  -15.9497  -11.8249 C   0  0  0  0  0  0  0  0  0  0  0  0
   49.9532  -18.1905   -8.3364 H   0  0  0  0  0  0  0  0  0  0  0  0
   46.5013  -14.4726   -8.2716 H   0  0  0  0  0  0  0  0  0  0  0  0
   46.0816  -15.6403   -6.2679 H   0  0  0  0  0  0  0  0  0  0  0  0
   52.0647  -17.4100   -8.7937 H   0  0  0  0  0  0  0  0  0  0  0  0
   50.5080  -15.6591   -7.9928 H   0  0  0  0  0  0  0  0  0  0  0  0
   49.3153  -15.6914   -6.7161 H   0  0  0  0  0  0  0  0  0  0  0  0
   50.0515  -18.0196  -10.5577 H   0  0  0  0  0  0  0  0  0  0  0  0
   49.3676  -19.9791   -7.1281 H   0  0  0  0  0  0  0  0  0  0  0  0
   46.2645  -14.8344  -10.6867 H   0  0  0  0  0  0  0  0  0  0  0  0
   45.1971  -17.8188   -5.5651 H   0  0  0  0  0  0  0  0  0  0  0  0
   53.1160  -17.3541   -6.0453 H   0  0  0  0  0  0  0  0  0  0  0  0
   52.8276  -15.9661   -7.1007 H   0  0  0  0  0  0  0  0  0  0  0  0
   54.5321  -18.5188   -7.6243 H   0  0  0  0  0  0  0  0  0  0  0  0
   54.4310  -17.0772   -8.6711 H   0  0  0  0  0  0  0  0  0  0  0  0
   53.9971  -18.6746   -9.2992 H   0  0  0  0  0  0  0  0  0  0  0  0
   51.0822  -16.1958   -5.4303 H   0  0  0  0  0  0  0  0  0  0  0  0
   50.7350  -17.8494   -5.8897 H   0  0  0  0  0  0  0  0  0  0  0  0
   49.2169  -17.1812  -12.7124 H   0  0  0  0  0  0  0  0  0  0  0  0
   47.7886  -21.2236   -5.7131 H   0  0  0  0  0  0  0  0  0  0  0  0
   45.7020  -20.1380   -4.9223 H   0  0  0  0  0  0  0  0  0  0  0  0
   47.3246  -15.5780  -12.7769 H   0  0  0  0  0  0  0  0  0  0  0  0
  2  1  1  0
  3  1  1  0
  4  6  1  0
  5  7  1  0
  6  2  2  0
  7  3  2  0
  8 14  1  0
  9  1  1  0
 10  2  1  0
 11  3  1  0
 12  6  1  0
 13  7  1  0
 14 16  1  0
 15  8  1  0
 16  9  1  0
 17 10  2  0
 18 11  2  0
 19 18  1  0
 20 17  1  0
  5  4  2  0
 19 13  2  0
 20 12  2  0
  1 21  1  0
  4 22  1  0
  5 23  1  0
  8 24  1  0
  9 25  1  0
  9 26  1  0
 10 27  1  0
 11 28  1  0
 12 29  1  0
 13 30  1  0
 14 31  1  0
 14 32  1  0
 15 33  1  0
 15 34  1  0
 15 35  1  0
 16 36  1  0
 16 37  1  0
 17 38  1  0
 18 39  1  0
 19 40  1  0
 20 41  1  0
M  END
> <Uni-Dock RESULT> 
ENERGY=   -4.980  LOWER_BOUND=    2.114  UPPER_BOUND=    4.697
INTER + INTRA:          -4.980
INTER:                  -4.980
INTRA:                   0.000
UNBOUND:                 0.000

$$$$

     RDKit          3D

 41 43  0  0  0  0  0  0  0  0999 V2000
   50.2840  -18.2530   -7.2041 C   0  0  0  0  0  0  0  0  0  0  0  0
   50.7025  -18.8197   -5.8501 C   0  0  0  0  0  0  0  0  0  0  0  0
   48.9843  -17.4575   -7.1357 C   0  0  0  0  0  0  0  0  0  0  0  0
   48.5474  -20.1168   -5.5270 C   0  0  0  0  0  0  0  0  0  0  0  0
   47.6387  -19.3929   -6.1976 C   0  0  0  0  0  0  0  0  0  0  0  0
   49.8829  -19.6811   -5.0975 C   0  0  0  0  0  0  0  0  0  0  0  0
   47.7775  -18.0053   -6.6613 C   0  0  0  0  0  0  0  0  0  0  0  0
   52.7547  -17.9453   -9.4758 N   0  0  0  0  0  0  0  0  0  0  0  0
   50.2901  -19.3432   -8.3083 C   0  0  0  0  0  0  0  0  0  0  0  0
   51.9760  -18.4801   -5.3468 C   0  0  0  0  0  0  0  0  0  0  0  0
   48.9946  -16.1175   -7.5768 C   0  0  0  0  0  0  0  0  0  0  0  0
   50.3648  -20.1995   -3.8828 C   0  0  0  0  0  0  0  0  0  0  0  0
   46.6154  -17.2138   -6.6652 C   0  0  0  0  0  0  0  0  0  0  0  0
   51.8489  -18.7587  -10.2868 C   0  0  0  0  0  0  0  0  0  0  0  0
   54.0577  -17.8222  -10.1190 C   0  0  0  0  0  0  0  0  0  0  0  0
   50.4172  -18.7819   -9.7345 C   0  0  0  0  0  0  0  0  0  0  0  0
   52.4333  -18.9919   -4.1331 C   0  0  0  0  0  0  0  0  0  0  0  0
   47.8361  -15.3419   -7.5619 C   0  0  0  0  0  0  0  0  0  0  0  0
   46.6443  -15.8912   -7.1077 C   0  0  0  0  0  0  0  0  0  0  0  0
   51.6282  -19.8554   -3.4016 C   0  0  0  0  0  0  0  0  0  0  0  0
   51.0642  -17.5302   -7.4726 H   0  0  0  0  0  0  0  0  0  0  0  0
   48.2746  -21.1290   -5.2346 H   0  0  0  0  0  0  0  0  0  0  0  0
   46.6787  -19.8578   -6.4142 H   0  0  0  0  0  0  0  0  0  0  0  0
   52.8855  -18.3979   -8.5712 H   0  0  0  0  0  0  0  0  0  0  0  0
   51.1033  -20.0595   -8.1318 H   0  0  0  0  0  0  0  0  0  0  0  0
   49.3659  -19.9306   -8.2671 H   0  0  0  0  0  0  0  0  0  0  0  0
   52.6244  -17.8059   -5.9032 H   0  0  0  0  0  0  0  0  0  0  0  0
   49.9161  -15.6702   -7.9460 H   0  0  0  0  0  0  0  0  0  0  0  0
   49.7476  -20.8710   -3.2895 H   0  0  0  0  0  0  0  0  0  0  0  0
   45.6722  -17.6221   -6.3082 H   0  0  0  0  0  0  0  0  0  0  0  0
   51.8047  -18.3612  -11.3084 H   0  0  0  0  0  0  0  0  0  0  0  0
   52.2278  -19.7862  -10.3524 H   0  0  0  0  0  0  0  0  0  0  0  0
   53.9757  -17.3160  -11.0863 H   0  0  0  0  0  0  0  0  0  0  0  0
   54.5281  -18.8002  -10.2638 H   0  0  0  0  0  0  0  0  0  0  0  0
   54.7189  -17.2202   -9.4881 H   0  0  0  0  0  0  0  0  0  0  0  0
   49.8287  -19.4245  -10.4024 H   0  0  0  0  0  0  0  0  0  0  0  0
   49.9727  -17.7834   -9.8089 H   0  0  0  0  0  0  0  0  0  0  0  0
   53.4160  -18.7152   -3.7611 H   0  0  0  0  0  0  0  0  0  0  0  0
   47.8670  -14.3122   -7.9076 H   0  0  0  0  0  0  0  0  0  0  0  0
   45.7375  -15.2931   -7.0947 H   0  0  0  0  0  0  0  0  0  0  0  0
   51.9779  -20.2584   -2.4552 H   0  0  0  0  0  0  0  0  0  0  0  0
  2  1  1  0
  3  1  1  0
  4  6  1  0
  5  7  1  0
  6  2  2  0
  7  3  2  0
  8 14  1  0
  9  1  1  0
 10  2  1  0
 11  3  1  0
 12  6  1  0
 13  7  1  0
 14 16  1  0
 15  8  1  0
 16  9  1  0
 17 10  2  0
 18 11  2  0
 19 18  1  0
 20 17  1  0
  5  4  2  0
 19 13  2  0
 20 12  2  0
  1 21  1  0
  4 22  1  0
  5 23  1  0
  8 24  1  0
  9 25  1  0
  9 26  1  0
 10 27  1  0
 11 28  1  0
 12 29  1  0
 13 30  1  0
 14 31  1  0
 14 32  1  0
 15 33  1  0
 15 34  1  0
 15 35  1  0
 16 36  1  0
 16 37  1  0
 17 38  1  0
 18 39  1  0
 19 40  1  0
 20 41  1  0
M  END
> <Uni-Dock RESULT> 
ENERGY=   -4.818  LOWER_BOUND=    2.655  UPPER_BOUND=    4.503
INTER + INTRA:          -4.818
INTER:                  -4.818
INTRA:                   0.000
UNBOUND:                 0.000

$$$$

     RDKit          3D

 41 43  0  0  0  0  0  0  0  0999 V2000
   50.1324  -17.6180   -8.1299 C   0  0  0  0  0  0  0  0  0  0  0  0
   51.0725  -17.8435   -6.9488 C   0  0  0  0  0  0  0  0  0  0  0  0
   48.7435  -17.1562   -7.7002 C   0  0  0  0  0  0  0  0  0  0  0  0
   49.5584  -19.5494   -5.8402 C   0  0  0  0  0  0  0  0  0  0  0  0
   48.3285  -19.1811   -6.2291 C   0  0  0  0  0  0  0  0  0  0  0  0
   50.7850  -18.7438   -5.9062 C   0  0  0  0  0  0  0  0  0  0  0  0
   47.9329  -17.8935   -6.8165 C   0  0  0  0  0  0  0  0  0  0  0  0
   51.6339  -17.0965  -11.1019 N   0  0  0  0  0  0  0  0  0  0  0  0
   50.1145  -18.8377   -9.0891 C   0  0  0  0  0  0  0  0  0  0  0  0
   52.2909  -17.1329   -6.9177 C   0  0  0  0  0  0  0  0  0  0  0  0
   48.2503  -15.9413   -8.2206 C   0  0  0  0  0  0  0  0  0  0  0  0
   51.7284  -18.9301   -4.8807 C   0  0  0  0  0  0  0  0  0  0  0  0
   46.6496  -17.4141   -6.4996 C   0  0  0  0  0  0  0  0  0  0  0  0
   50.7922  -18.2223  -11.5073 C   0  0  0  0  0  0  0  0  0  0  0  0
   52.6006  -16.7701  -12.1438 C   0  0  0  0  0  0  0  0  0  0  0  0
   49.6533  -18.4984  -10.5165 C   0  0  0  0  0  0  0  0  0  0  0  0
   53.2097  -17.3190   -5.8855 C   0  0  0  0  0  0  0  0  0  0  0  0
   46.9803  -15.4733   -7.8860 C   0  0  0  0  0  0  0  0  0  0  0  0
   46.1778  -16.2116   -7.0261 C   0  0  0  0  0  0  0  0  0  0  0  0
   52.9298  -18.2212   -4.8675 C   0  0  0  0  0  0  0  0  0  0  0  0
   50.5653  -16.7823   -8.6931 H   0  0  0  0  0  0  0  0  0  0  0  0
   49.6767  -20.5371   -5.3987 H   0  0  0  0  0  0  0  0  0  0  0  0
   47.5162  -19.8907   -6.0833 H   0  0  0  0  0  0  0  0  0  0  0  0
   52.1465  -17.3537  -10.2585 H   0  0  0  0  0  0  0  0  0  0  0  0
   51.1090  -19.3008   -9.1348 H   0  0  0  0  0  0  0  0  0  0  0  0
   49.4451  -19.6147   -8.7030 H   0  0  0  0  0  0  0  0  0  0  0  0
   52.5318  -16.4213   -7.7052 H   0  0  0  0  0  0  0  0  0  0  0  0
   48.8592  -15.3517   -8.9041 H   0  0  0  0  0  0  0  0  0  0  0  0
   51.5262  -19.6257   -4.0688 H   0  0  0  0  0  0  0  0  0  0  0  0
   46.0064  -17.9736   -5.8234 H   0  0  0  0  0  0  0  0  0  0  0  0
   50.3395  -18.0160  -12.4851 H   0  0  0  0  0  0  0  0  0  0  0  0
   51.4047  -19.1261  -11.6153 H   0  0  0  0  0  0  0  0  0  0  0  0
   52.0992  -16.4601  -13.0664 H   0  0  0  0  0  0  0  0  0  0  0  0
   53.2595  -17.6173  -12.3601 H   0  0  0  0  0  0  0  0  0  0  0  0
   53.2242  -15.9343  -11.8119 H   0  0  0  0  0  0  0  0  0  0  0  0
   49.0965  -19.3617  -10.9040 H   0  0  0  0  0  0  0  0  0  0  0  0
   48.9476  -17.6606  -10.5167 H   0  0  0  0  0  0  0  0  0  0  0  0
   54.1410  -16.7592   -5.8781 H   0  0  0  0  0  0  0  0  0  0  0  0
   46.6203  -14.5353   -8.2998 H   0  0  0  0  0  0  0  0  0  0  0  0
   45.1866  -15.8538   -6.7623 H   0  0  0  0  0  0  0  0  0  0  0  0
   53.6411  -18.3717   -4.0601 H   0  0  0  0  0  0  0  0  0  0  0  0
  2  1  1  0
  3  1  1  0
  4  6  1  0
  5  7  1  0
  6  2  2  0
  7  3  2  0
  8 14  1  0
  9  1  1  0
 10  2  1  0
 11  3  1  0
 12  6  1  0
 13  7  1  0
 14 16  1  0
 15  8  1  0
 16  9  1  0
 17 10  2  0
 18 11  2  0
 19 18  1  0
 20 17  1  0
  5  4  2  0
 19 13  2  0
 20 12  2  0
  1 21  1  0
  4 22  1  0
  5 23  1  0
  8 24  1  0
  9 25  1  0
  9 26  1  0
 10 27  1  0
 11 28  1  0
 12 29  1  0
 13 30  1  0
 14 31  1  0
 14 32  1  0
 15 33  1  0
 15 34  1  0
 15 35  1  0
 16 36  1  0
 16 37  1  0
 17 38  1  0
 18 39  1  0
 19 40  1  0
 20 41  1  0
M  END
> <Uni-Dock RESULT> 
ENERGY=   -4.519  LOWER_BOUND=    2.309  UPPER_BOUND=    3.537
INTER + INTRA:          -4.519
INTER:                  -4.519
INTRA:                   0.000
UNBOUND:                 0.000

$$$$

     RDKit          3D

 41 43  0  0  0  0  0  0  0  0999 V2000
   49.8883  -18.1491   -7.5760 C   0  0  0  0  0  0  0  0  0  0  0  0
   50.9026  -17.7826   -6.4960 C   0  0  0  0  0  0  0  0  0  0  0  0
   48.4861  -18.3729   -7.0185 C   0  0  0  0  0  0  0  0  0  0  0  0
   50.4974  -19.8926   -5.1487 C   0  0  0  0  0  0  0  0  0  0  0  0
   49.2192  -20.1989   -5.4171 C   0  0  0  0  0  0  0  0  0  0  0  0
   51.1674  -18.6072   -5.3869 C   0  0  0  0  0  0  0  0  0  0  0  0
   48.2046  -19.3217   -6.0175 C   0  0  0  0  0  0  0  0  0  0  0  0
   50.7234  -17.2540  -10.7162 N   0  0  0  0  0  0  0  0  0  0  0  0
   50.3968  -19.3119   -8.4689 C   0  0  0  0  0  0  0  0  0  0  0  0
   51.6189  -16.5748   -6.6324 C   0  0  0  0  0  0  0  0  0  0  0  0
   47.4269  -17.5995   -7.5383 C   0  0  0  0  0  0  0  0  0  0  0  0
   52.1542  -18.2196   -4.4636 C   0  0  0  0  0  0  0  0  0  0  0  0
   46.8775  -19.4901   -5.5844 C   0  0  0  0  0  0  0  0  0  0  0  0
   50.5098  -18.6782  -10.9732 C   0  0  0  0  0  0  0  0  0  0  0  0
   51.3293  -16.6035  -11.8722 C   0  0  0  0  0  0  0  0  0  0  0  0
   49.7257  -19.3724   -9.8514 C   0  0  0  0  0  0  0  0  0  0  0  0
   52.5846  -16.1982   -5.6998 C   0  0  0  0  0  0  0  0  0  0  0  0
   46.1182  -17.7699   -7.0886 C   0  0  0  0  0  0  0  0  0  0  0  0
   45.8425  -18.7178   -6.1120 C   0  0  0  0  0  0  0  0  0  0  0  0
   52.8552  -17.0231   -4.6158 C   0  0  0  0  0  0  0  0  0  0  0  0
   49.8166  -17.2656   -8.2221 H   0  0  0  0  0  0  0  0  0  0  0  0
   51.1139  -20.6553   -4.6769 H   0  0  0  0  0  0  0  0  0  0  0  0
   48.8688  -21.1940   -5.1497 H   0  0  0  0  0  0  0  0  0  0  0  0
   51.3564  -17.1523   -9.9230 H   0  0  0  0  0  0  0  0  0  0  0  0
   51.4845  -19.2423   -8.6018 H   0  0  0  0  0  0  0  0  0  0  0  0
   50.2212  -20.2744   -7.9756 H   0  0  0  0  0  0  0  0  0  0  0  0
   51.4242  -15.9130   -7.4743 H   0  0  0  0  0  0  0  0  0  0  0  0
   47.6195  -16.8575   -8.3115 H   0  0  0  0  0  0  0  0  0  0  0  0
   52.3765  -18.8466   -3.6026 H   0  0  0  0  0  0  0  0  0  0  0  0
   46.6398  -20.2230   -4.8162 H   0  0  0  0  0  0  0  0  0  0  0  0
   49.9438  -18.8081  -11.9040 H   0  0  0  0  0  0  0  0  0  0  0  0
   51.4752  -19.1824  -11.1051 H   0  0  0  0  0  0  0  0  0  0  0  0
   50.6744  -16.6612  -12.7477 H   0  0  0  0  0  0  0  0  0  0  0  0
   52.2997  -17.0462  -12.1193 H   0  0  0  0  0  0  0  0  0  0  0  0
   51.4890  -15.5438  -11.6504 H   0  0  0  0  0  0  0  0  0  0  0  0
   49.6335  -20.4292  -10.1344 H   0  0  0  0  0  0  0  0  0  0  0  0
   48.7034  -18.9808   -9.8136 H   0  0  0  0  0  0  0  0  0  0  0  0
   53.1228  -15.2621   -5.8211 H   0  0  0  0  0  0  0  0  0  0  0  0
   45.3176  -17.1640   -7.5041 H   0  0  0  0  0  0  0  0  0  0  0  0
   44.8249  -18.8570   -5.7580 H   0  0  0  0  0  0  0  0  0  0  0  0
   53.6066  -16.7365   -3.8852 H   0  0  0  0  0  0  0  0  0  0  0  0
  2  1  1  0
  3  1  1  0
  4  6  1  0
  5  7  1  0
  6  2  2  0
  7  3  2  0
  8 14  1  0
  9  1  1  0
 10  2  1  0
 11  3  1  0
 12  6  1  0
 13  7  1  0
 14 16  1  0
 15  8  1  0
 16  9  1  0
 17 10  2  0
 18 11  2  0
 19 18  1  0
 20 17  1  0
  5  4  2  0
 19 13  2  0
 20 12  2  0
  1 21  1  0
  4 22  1  0
  5 23  1  0
  8 24  1  0
  9 25  1  0
  9 26  1  0
 10 27  1  0
 11 28  1  0
 12 29  1  0
 13 30  1  0
 14 31  1  0
 14 32  1  0
 15 33  1  0
 15 34  1  0
 15 35  1  0
 16 36  1  0
 16 37  1  0
 17 38  1  0
 18 39  1  0
 19 40  1  0
 20 41  1  0
M  END
> <Uni-Dock RESULT> 
ENERGY=   -4.259  LOWER_BOUND=    2.355  UPPER_BOUND=    2.841
INTER + INTRA:          -4.259
INTER:                  -4.259
INTRA:                   0.000
UNBOUND:                 0.000

$$$$

     RDKit          3D

 41 43  0  0  0  0  0  0  0  0999 V2000
   50.4364  -17.5216   -7.3429 C   0  0  0  0  0  0  0  0  0  0  0  0
   48.9842  -17.0679   -7.2208 C   0  0  0  0  0  0  0  0  0  0  0  0
   50.7003  -18.3237   -8.6133 C   0  0  0  0  0  0  0  0  0  0  0  0
   48.0521  -19.4235   -7.3372 C   0  0  0  0  0  0  0  0  0  0  0  0
   48.9530  -20.0841   -8.0799 C   0  0  0  0  0  0  0  0  0  0  0  0
   47.9019  -17.9672   -7.2174 C   0  0  0  0  0  0  0  0  0  0  0  0
   49.9973  -19.5006   -8.9334 C   0  0  0  0  0  0  0  0  0  0  0  0
   52.6671  -15.7519   -5.5396 N   0  0  0  0  0  0  0  0  0  0  0  0
   50.9283  -18.2234   -6.0493 C   0  0  0  0  0  0  0  0  0  0  0  0
   48.7231  -15.6883   -7.0829 C   0  0  0  0  0  0  0  0  0  0  0  0
   51.6995  -17.8676   -9.4985 C   0  0  0  0  0  0  0  0  0  0  0  0
   46.5975  -17.4705   -7.0497 C   0  0  0  0  0  0  0  0  0  0  0  0
   50.3274  -20.2000  -10.1076 C   0  0  0  0  0  0  0  0  0  0  0  0
   52.9982  -17.0746   -5.0095 C   0  0  0  0  0  0  0  0  0  0  0  0
   53.3312  -14.7045   -4.7724 C   0  0  0  0  0  0  0  0  0  0  0  0
   52.4570  -18.2156   -5.8814 C   0  0  0  0  0  0  0  0  0  0  0  0
   47.4219  -15.2108   -6.9317 C   0  0  0  0  0  0  0  0  0  0  0  0
   52.0058  -18.5661  -10.6657 C   0  0  0  0  0  0  0  0  0  0  0  0
   51.3206  -19.7350  -10.9698 C   0  0  0  0  0  0  0  0  0  0  0  0
   46.3578  -16.1031   -6.9116 C   0  0  0  0  0  0  0  0  0  0  0  0
   51.0234  -16.6003   -7.4426 H   0  0  0  0  0  0  0  0  0  0  0  0
   47.3266  -20.0111   -6.7778 H   0  0  0  0  0  0  0  0  0  0  0  0
   48.9101  -21.1716   -8.0816 H   0  0  0  0  0  0  0  0  0  0  0  0
   51.6594  -15.6103   -5.4698 H   0  0  0  0  0  0  0  0  0  0  0  0
   50.4688  -17.7599   -5.1663 H   0  0  0  0  0  0  0  0  0  0  0  0
   50.6013  -19.2692   -6.0368 H   0  0  0  0  0  0  0  0  0  0  0  0
   49.5414  -14.9707   -7.0949 H   0  0  0  0  0  0  0  0  0  0  0  0
   52.2556  -16.9587   -9.2744 H   0  0  0  0  0  0  0  0  0  0  0  0
   45.7484  -18.1508   -7.0394 H   0  0  0  0  0  0  0  0  0  0  0  0
   49.7993  -21.1149  -10.3682 H   0  0  0  0  0  0  0  0  0  0  0  0
   54.0876  -17.1900   -4.9496 H   0  0  0  0  0  0  0  0  0  0  0  0
   52.6025  -17.1783   -3.9916 H   0  0  0  0  0  0  0  0  0  0  0  0
   54.4202  -14.7958   -4.8374 H   0  0  0  0  0  0  0  0  0  0  0  0
   53.0307  -14.7259   -3.7198 H   0  0  0  0  0  0  0  0  0  0  0  0
   53.0584  -13.7266   -5.1810 H   0  0  0  0  0  0  0  0  0  0  0  0
   52.7463  -19.1549   -5.3921 H   0  0  0  0  0  0  0  0  0  0  0  0
   52.9628  -18.2145   -6.8531 H   0  0  0  0  0  0  0  0  0  0  0  0
   47.2416  -14.1441   -6.8305 H   0  0  0  0  0  0  0  0  0  0  0  0
   52.7803  -18.1970  -11.3325 H   0  0  0  0  0  0  0  0  0  0  0  0
   51.5551  -20.2851  -11.8767 H   0  0  0  0  0  0  0  0  0  0  0  0
   45.3411  -15.7385   -6.7938 H   0  0  0  0  0  0  0  0  0  0  0  0
  2  1  1  0
  3  1  1  0
  4  6  1  0
  5  7  1  0
  6  2  2  0
  7  3  2  0
  8 14  1  0
  9  1  1  0
 10  2  1  0
 11  3  1  0
 12  6  1  0
 13  7  1  0
 14 16  1  0
 15  8  1  0
 16  9  1  0
 17 10  2  0
 18 11  2  0
 19 18  1  0
 20 17  1  0
  5  4  2  0
 19 13  2  0
 20 12  2  0
  1 21  1  0
  4 22  1  0
  5 23  1  0
  8 24  1  0
  9 25  1  0
  9 26  1  0
 10 27  1  0
 11 28  1  0
 12 29  1  0
 13 30  1  0
 14 31  1  0
 14 32  1  0
 15 33  1  0
 15 34  1  0
 15 35  1  0
 16 36  1  0
 16 37  1  0
 17 38  1  0
 18 39  1  0
 19 40  1  0
 20 41  1  0
M  END
> <Uni-Dock RESULT> 
ENERGY=   -4.057  LOWER_BOUND=    2.841  UPPER_BOUND=    5.465
INTER + INTRA:          -4.057
INTER:                  -4.057
INTRA:                   0.000
UNBOUND:                 0.000

$$$$

     RDKit          3D

 41 43  0  0  0  0  0  0  0  0999 V2000
   46.6684  -16.7043  -10.2458 C   0  0  0  0  0  0  0  0  0  0  0  0
   46.3283  -17.3095   -8.8865 C   0  0  0  0  0  0  0  0  0  0  0  0
   48.1237  -16.9273  -10.6446 C   0  0  0  0  0  0  0  0  0  0  0  0
   48.1009  -15.9806   -7.6523 C   0  0  0  0  0  0  0  0  0  0  0  0
   49.0527  -15.7869   -8.5775 C   0  0  0  0  0  0  0  0  0  0  0  0
   47.0032  -16.9554   -7.7035 C   0  0  0  0  0  0  0  0  0  0  0  0
   49.2066  -16.4991   -9.8537 C   0  0  0  0  0  0  0  0  0  0  0  0
   44.0453  -16.1644  -12.2921 N   0  0  0  0  0  0  0  0  0  0  0  0
   46.2152  -15.2235  -10.3434 C   0  0  0  0  0  0  0  0  0  0  0  0
   45.2762  -18.2468   -8.8152 C   0  0  0  0  0  0  0  0  0  0  0  0
   48.3914  -17.5833  -11.8645 C   0  0  0  0  0  0  0  0  0  0  0  0
   46.5939  -17.5224   -6.4840 C   0  0  0  0  0  0  0  0  0  0  0  0
   50.5186  -16.7125  -10.3120 C   0  0  0  0  0  0  0  0  0  0  0  0
   44.5781  -14.8020  -12.2999 C   0  0  0  0  0  0  0  0  0  0  0  0
   42.7359  -16.2129  -12.9322 C   0  0  0  0  0  0  0  0  0  0  0  0
   46.0222  -14.7269  -11.7861 C   0  0  0  0  0  0  0  0  0  0  0  0
   44.8920  -18.8106   -7.5992 C   0  0  0  0  0  0  0  0  0  0  0  0
   49.6988  -17.7987  -12.2985 C   0  0  0  0  0  0  0  0  0  0  0  0
   50.7639  -17.3608  -11.5225 C   0  0  0  0  0  0  0  0  0  0  0  0
   45.5493  -18.4455   -6.4315 C   0  0  0  0  0  0  0  0  0  0  0  0
   46.0688  -17.2645  -10.9737 H   0  0  0  0  0  0  0  0  0  0  0  0
   48.1454  -15.3811   -6.7450 H   0  0  0  0  0  0  0  0  0  0  0  0
   49.8168  -15.0398   -8.3711 H   0  0  0  0  0  0  0  0  0  0  0  0
   43.9411  -16.4733  -11.3257 H   0  0  0  0  0  0  0  0  0  0  0  0
   45.2817  -15.0733   -9.7852 H   0  0  0  0  0  0  0  0  0  0  0  0
   46.9526  -14.5684   -9.8659 H   0  0  0  0  0  0  0  0  0  0  0  0
   44.7464  -18.5472   -9.7172 H   0  0  0  0  0  0  0  0  0  0  0  0
   47.5710  -17.9260  -12.4929 H   0  0  0  0  0  0  0  0  0  0  0  0
   47.1003  -17.2570   -5.5582 H   0  0  0  0  0  0  0  0  0  0  0  0
   51.3681  -16.3828   -9.7173 H   0  0  0  0  0  0  0  0  0  0  0  0
   44.5677  -14.4037  -13.3221 H   0  0  0  0  0  0  0  0  0  0  0  0
   43.9424  -14.1493  -11.6887 H   0  0  0  0  0  0  0  0  0  0  0  0
   42.7977  -15.9150  -13.9839 H   0  0  0  0  0  0  0  0  0  0  0  0
   42.0136  -15.5702  -12.4184 H   0  0  0  0  0  0  0  0  0  0  0  0
   42.3550  -17.2384  -12.9030 H   0  0  0  0  0  0  0  0  0  0  0  0
   46.3177  -13.6700  -11.8203 H   0  0  0  0  0  0  0  0  0  0  0  0
   46.6918  -15.2490  -12.4783 H   0  0  0  0  0  0  0  0  0  0  0  0
   44.0814  -19.5335   -7.5661 H   0  0  0  0  0  0  0  0  0  0  0  0
   49.8816  -18.3051  -13.2423 H   0  0  0  0  0  0  0  0  0  0  0  0
   51.7852  -17.5239  -11.8553 H   0  0  0  0  0  0  0  0  0  0  0  0
   45.2552  -18.8804   -5.4802 H   0  0  0  0  0  0  0  0  0  0  0  0
  2  1  1  0
  3  1  1  0
  4  6  1  0
  5  7  1  0
  6  2  2  0
  7  3  2  0
  8 14  1  0
  9  1  1  0
 10  2  1  0
 11  3  1  0
 12  6  1  0
 13  7  1  0
 14 16  1  0
 15  8  1  0
 16  9  1  0
 17 10  2  0
 18 11  2  0
 19 18  1  0
 20 17  1  0
  5  4  2  0
 19 13  2  0
 20 12  2  0
  1 21  1  0
  4 22  1  0
  5 23  1  0
  8 24  1  0
  9 25  1  0
  9 26  1  0
 10 27  1  0
 11 28  1  0
 12 29  1  0
 13 30  1  0
 14 31  1  0
 14 32  1  0
 15 33  1  0
 15 34  1  0
 15 35  1  0
 16 36  1  0
 16 37  1  0
 17 38  1  0
 18 39  1  0
 19 40  1  0
 20 41  1  0
M  END
> <Uni-Dock RESULT> 
ENERGY=   -3.924  LOWER_BOUND=    2.227  UPPER_BOUND=    5.018
INTER + INTRA:          -3.924
INTER:                  -3.924
INTRA:                   0.000
UNBOUND:                 0.000

$$$$

     RDKit          3D

 41 43  0  0  0  0  0  0  0  0999 V2000
   47.0065  -16.9704  -10.7918 C   0  0  0  0  0  0  0  0  0  0  0  0
   46.8520  -16.7012   -9.2974 C   0  0  0  0  0  0  0  0  0  0  0  0
   45.7123  -16.7512  -11.5689 C   0  0  0  0  0  0  0  0  0  0  0  0
   45.0004  -18.4085   -9.0004 C   0  0  0  0  0  0  0  0  0  0  0  0
   44.3930  -18.4280  -10.1963 C   0  0  0  0  0  0  0  0  0  0  0  0
   45.9200  -17.3818   -8.4922 C   0  0  0  0  0  0  0  0  0  0  0  0
   44.5173  -17.4326  -11.2701 C   0  0  0  0  0  0  0  0  0  0  0  0
   50.1574  -16.8114  -11.9777 N   0  0  0  0  0  0  0  0  0  0  0  0
   47.6692  -18.3475  -11.0607 C   0  0  0  0  0  0  0  0  0  0  0  0
   47.6981  -15.7442   -8.6984 C   0  0  0  0  0  0  0  0  0  0  0  0
   45.7203  -15.8315  -12.6386 C   0  0  0  0  0  0  0  0  0  0  0  0
   45.8766  -17.1103   -7.1136 C   0  0  0  0  0  0  0  0  0  0  0  0
   43.3774  -17.1984  -12.0592 C   0  0  0  0  0  0  0  0  0  0  0  0
   49.8438  -18.1609  -12.4471 C   0  0  0  0  0  0  0  0  0  0  0  0
   51.5760  -16.5195  -12.1481 C   0  0  0  0  0  0  0  0  0  0  0  0
   48.3378  -18.4560  -12.4414 C   0  0  0  0  0  0  0  0  0  0  0  0
   47.6324  -15.4766   -7.3316 C   0  0  0  0  0  0  0  0  0  0  0  0
   44.5774  -15.6011  -13.4033 C   0  0  0  0  0  0  0  0  0  0  0  0
   43.4050  -16.2870  -13.1149 C   0  0  0  0  0  0  0  0  0  0  0  0
   46.7230  -16.1628   -6.5374 C   0  0  0  0  0  0  0  0  0  0  0  0
   47.7072  -16.2087  -11.1554 H   0  0  0  0  0  0  0  0  0  0  0  0
   44.7792  -19.2164   -8.3054 H   0  0  0  0  0  0  0  0  0  0  0  0
   43.7132  -19.2515  -10.4070 H   0  0  0  0  0  0  0  0  0  0  0  0
   49.9340  -16.7463  -10.9846 H   0  0  0  0  0  0  0  0  0  0  0  0
   48.4131  -18.5702  -10.2843 H   0  0  0  0  0  0  0  0  0  0  0  0
   46.9236  -19.1476  -10.9924 H   0  0  0  0  0  0  0  0  0  0  0  0
   48.4189  -15.1949   -9.3010 H   0  0  0  0  0  0  0  0  0  0  0  0
   46.6316  -15.2902  -12.8879 H   0  0  0  0  0  0  0  0  0  0  0  0
   45.1662  -17.6301   -6.4740 H   0  0  0  0  0  0  0  0  0  0  0  0
   42.4466  -17.7206  -11.8473 H   0  0  0  0  0  0  0  0  0  0  0  0
   50.2042  -18.2910  -13.4751 H   0  0  0  0  0  0  0  0  0  0  0  0
   50.3598  -18.9020  -11.8240 H   0  0  0  0  0  0  0  0  0  0  0  0
   51.8626  -16.5500  -13.2043 H   0  0  0  0  0  0  0  0  0  0  0  0
   52.2008  -17.2210  -11.5857 H   0  0  0  0  0  0  0  0  0  0  0  0
   51.7862  -15.5107  -11.7795 H   0  0  0  0  0  0  0  0  0  0  0  0
   48.2143  -19.4882  -12.7946 H   0  0  0  0  0  0  0  0  0  0  0  0
   47.8312  -17.8232  -13.1783 H   0  0  0  0  0  0  0  0  0  0  0  0
   48.2905  -14.7330   -6.8902 H   0  0  0  0  0  0  0  0  0  0  0  0
   44.6068  -14.8890  -14.2235 H   0  0  0  0  0  0  0  0  0  0  0  0
   42.5111  -16.1136  -13.7075 H   0  0  0  0  0  0  0  0  0  0  0  0
   46.6663  -15.9598   -5.4715 H   0  0  0  0  0  0  0  0  0  0  0  0
  2  1  1  0
  3  1  1  0
  4  6  1  0
  5  7  1  0
  6  2  2  0
  7  3  2  0
  8 14  1  0
  9  1  1  0
 10  2  1  0
 11  3  1  0
 12  6  1  0
 13  7  1  0
 14 16  1  0
 15  8  1  0
 16  9  1  0
 17 10  2  0
 18 11  2  0
 19 18  1  0
 20 17  1  0
  5  4  2  0
 19 13  2  0
 20 12  2  0
  1 21  1  0
  4 22  1  0
  5 23  1  0
  8 24  1  0
  9 25  1  0
  9 26  1  0
 10 27  1  0
 11 28  1  0
 12 29  1  0
 13 30  1  0
 14 31  1  0
 14 32  1  0
 15 33  1  0
 15 34  1  0
 15 35  1  0
 16 36  1  0
 16 37  1  0
 17 38  1  0
 18 39  1  0
 19 40  1  0
 20 41  1  0
M  END
> <Uni-Dock RESULT> 
ENERGY=   -3.920  LOWER_BOUND=    2.823  UPPER_BOUND=    5.411
INTER + INTRA:          -3.920
INTER:                  -3.920
INTRA:                   0.000
UNBOUND:                 0.000

$$$$
