
     RDKit          3D

 41 43  0  0  0  0  0  0  0  0999 V2000
   50.2743  -16.7291   -8.1642 C   0  0  0  0  0  0  0  0  0  0  0  0
   51.2249  -16.4150   -7.0035 C   0  0  0  0  0  0  0  0  0  0  0  0
   48.8412  -16.8220   -7.6337 C   0  0  0  0  0  0  0  0  0  0  0  0
   50.1661  -14.1228   -6.7688 C   0  0  0  0  0  0  0  0  0  0  0  0
   48.8850  -14.3402   -7.1133 C   0  0  0  0  0  0  0  0  0  0  0  0
   51.1439  -15.1521   -6.3706 C   0  0  0  0  0  0  0  0  0  0  0  0
   48.2099  -15.6503   -7.1532 C   0  0  0  0  0  0  0  0  0  0  0  0
   51.7772  -19.0781  -11.7352 N   0  0  0  0  0  0  0  0  0  0  0  0
   50.7493  -17.8869   -9.0848 C   0  0  0  0  0  0  0  0  0  0  0  0
   52.1622  -17.3483   -6.5253 C   0  0  0  0  0  0  0  0  0  0  0  0
   48.1356  -18.0368   -7.5688 C   0  0  0  0  0  0  0  0  0  0  0  0
   52.0338  -14.8363   -5.3324 C   0  0  0  0  0  0  0  0  0  0  0  0
   46.8832  -15.7091   -6.6990 C   0  0  0  0  0  0  0  0  0  0  0  0
   50.3806  -19.1256  -11.3036 C   0  0  0  0  0  0  0  0  0  0  0  0
   52.0928  -20.1999  -12.6100 C   0  0  0  0  0  0  0  0  0  0  0  0
   50.0093  -17.9194  -10.4330 C   0  0  0  0  0  0  0  0  0  0  0  0
   53.0298  -17.0246   -5.4803 C   0  0  0  0  0  0  0  0  0  0  0  0
   46.8214  -18.0826   -7.0987 C   0  0  0  0  0  0  0  0  0  0  0  0
   46.1918  -16.9188   -6.6735 C   0  0  0  0  0  0  0  0  0  0  0  0
   52.9718  -15.7676   -4.8897 C   0  0  0  0  0  0  0  0  0  0  0  0
   50.3112  -15.8559   -8.8342 H   0  0  0  0  0  0  0  0  0  0  0  0
   50.5314  -13.0985   -6.7458 H   0  0  0  0  0  0  0  0  0  0  0  0
   48.2593  -13.4842   -7.3558 H   0  0  0  0  0  0  0  0  0  0  0  0
   52.3934  -19.1073  -10.9243 H   0  0  0  0  0  0  0  0  0  0  0  0
   51.8178  -17.7458   -9.2930 H   0  0  0  0  0  0  0  0  0  0  0  0
   50.6585  -18.8578   -8.5843 H   0  0  0  0  0  0  0  0  0  0  0  0
   52.2333  -18.3431   -6.9554 H   0  0  0  0  0  0  0  0  0  0  0  0
   48.5924  -18.9703   -7.8830 H   0  0  0  0  0  0  0  0  0  0  0  0
   51.9885  -13.8646   -4.8457 H   0  0  0  0  0  0  0  0  0  0  0  0
   46.3849  -14.8120   -6.3386 H   0  0  0  0  0  0  0  0  0  0  0  0
   49.7263  -19.1205  -12.1839 H   0  0  0  0  0  0  0  0  0  0  0  0
   50.1825  -20.0505  -10.7486 H   0  0  0  0  0  0  0  0  0  0  0  0
   51.9512  -21.1584  -12.1002 H   0  0  0  0  0  0  0  0  0  0  0  0
   51.4785  -20.1811  -13.5160 H   0  0  0  0  0  0  0  0  0  0  0  0
   53.1399  -20.1355  -12.9215 H   0  0  0  0  0  0  0  0  0  0  0  0
   50.2123  -16.9920  -10.9838 H   0  0  0  0  0  0  0  0  0  0  0  0
   48.9268  -17.9494  -10.2688 H   0  0  0  0  0  0  0  0  0  0  0  0
   53.7508  -17.7575   -5.1276 H   0  0  0  0  0  0  0  0  0  0  0  0
   46.2909  -19.0307   -7.0635 H   0  0  0  0  0  0  0  0  0  0  0  0
   45.1692  -16.9534   -6.3079 H   0  0  0  0  0  0  0  0  0  0  0  0
   53.6474  -15.5147   -4.0771 H   0  0  0  0  0  0  0  0  0  0  0  0
  2  1  1  0
  3  1  1  0
  4  6  1  0
  5  7  1  0
  6  2  2  0
  7  3  2  0
  8 14  1  0
  9  1  1  0
 10  2  1  0
 11  3  1  0
 12  6  1  0
 13  7  1  0
 14 16  1  0
 15  8  1  0
 16  9  1  0
 17 10  2  0
 18 11  2  0
 19 18  1  0
 20 17  1  0
  5  4  2  0
 19 13  2  0
 20 12  2  0
  1 21  1  0
  4 22  1  0
  5 23  1  0
  8 24  1  0
  9 25  1  0
  9 26  1  0
 10 27  1  0
 11 28  1  0
 12 29  1  0
 13 30  1  0
 14 31  1  0
 14 32  1  0
 15 33  1  0
 15 34  1  0
 15 35  1  0
 16 36  1  0
 16 37  1  0
 17 38  1  0
 18 39  1  0
 19 40  1  0
 20 41  1  0
M  END
> <Uni-Dock RESULT> 
ENERGY=   -5.882  LOWER_BOUND=    0.000  UPPER_BOUND=    0.000
INTER + INTRA:          -5.882
INTER:                  -5.882
INTRA:                   0.000
UNBOUND:                 0.000

$$$$

     RDKit          3D

 41 43  0  0  0  0  0  0  0  0999 V2000
   50.3936  -16.5813   -8.0679 C   0  0  0  0  0  0  0  0  0  0  0  0
   51.3356  -16.3074   -6.8901 C   0  0  0  0  0  0  0  0  0  0  0  0
   48.9467  -16.5878   -7.5676 C   0  0  0  0  0  0  0  0  0  0  0  0
   50.4026  -13.9570   -6.7023 C   0  0  0  0  0  0  0  0  0  0  0  0
   49.1188  -14.1064   -7.0723 C   0  0  0  0  0  0  0  0  0  0  0  0
   51.3124  -15.0348   -6.2723 C   0  0  0  0  0  0  0  0  0  0  0  0
   48.3722  -15.3771   -7.1132 C   0  0  0  0  0  0  0  0  0  0  0  0
   51.8372  -19.0519  -11.5809 N   0  0  0  0  0  0  0  0  0  0  0  0
   50.8221  -17.7745   -8.9659 C   0  0  0  0  0  0  0  0  0  0  0  0
   52.2087  -17.2861   -6.3821 C   0  0  0  0  0  0  0  0  0  0  0  0
   48.1727  -17.7603   -7.5055 C   0  0  0  0  0  0  0  0  0  0  0  0
   52.1965  -14.7572   -5.2183 C   0  0  0  0  0  0  0  0  0  0  0  0
   47.0349  -15.3563   -6.6873 C   0  0  0  0  0  0  0  0  0  0  0  0
   50.4313  -19.0161  -11.1792 C   0  0  0  0  0  0  0  0  0  0  0  0
   52.1076  -20.1996  -12.4369 C   0  0  0  0  0  0  0  0  0  0  0  0
   50.1101  -17.7811  -10.3294 C   0  0  0  0  0  0  0  0  0  0  0  0
   53.0709  -16.9994   -5.3219 C   0  0  0  0  0  0  0  0  0  0  0  0
   46.8484  -17.7271   -7.0636 C   0  0  0  0  0  0  0  0  0  0  0  0
   46.2763  -16.5251   -6.6642 C   0  0  0  0  0  0  0  0  0  0  0  0
   53.0712  -15.7343   -4.7458 C   0  0  0  0  0  0  0  0  0  0  0  0
   50.4936  -15.7194   -8.7460 H   0  0  0  0  0  0  0  0  0  0  0  0
   50.8242  -12.9545   -6.6820 H   0  0  0  0  0  0  0  0  0  0  0  0
   48.5474  -13.2196   -7.3372 H   0  0  0  0  0  0  0  0  0  0  0  0
   52.4335  -19.1060  -10.7565 H   0  0  0  0  0  0  0  0  0  0  0  0
   51.9010  -17.6957   -9.1523 H   0  0  0  0  0  0  0  0  0  0  0  0
   50.6664  -18.7329   -8.4575 H   0  0  0  0  0  0  0  0  0  0  0  0
   52.2329  -18.2882   -6.8002 H   0  0  0  0  0  0  0  0  0  0  0  0
   48.5829  -18.7215   -7.8000 H   0  0  0  0  0  0  0  0  0  0  0  0
   52.1956  -13.7789   -4.7429 H   0  0  0  0  0  0  0  0  0  0  0  0
   46.5804  -14.4287   -6.3472 H   0  0  0  0  0  0  0  0  0  0  0  0
   49.7970  -18.9847  -12.0735 H   0  0  0  0  0  0  0  0  0  0  0  0
   50.1700  -19.9221  -10.6191 H   0  0  0  0  0  0  0  0  0  0  0  0
   51.9017  -21.1427  -11.9204 H   0  0  0  0  0  0  0  0  0  0  0  0
   51.5146  -20.1569  -13.3562 H   0  0  0  0  0  0  0  0  0  0  0  0
   53.1630  -20.1974  -12.7263 H   0  0  0  0  0  0  0  0  0  0  0  0
   50.3764  -16.8730  -10.8853 H   0  0  0  0  0  0  0  0  0  0  0  0
   49.0243  -17.7486  -10.1884 H   0  0  0  0  0  0  0  0  0  0  0  0
   53.7421  -17.7673   -4.9461 H   0  0  0  0  0  0  0  0  0  0  0  0
   46.2649  -18.6436   -7.0301 H   0  0  0  0  0  0  0  0  0  0  0  0
   45.2459  -16.4982   -6.3206 H   0  0  0  0  0  0  0  0  0  0  0  0
   53.7427  -15.5102   -3.9214 H   0  0  0  0  0  0  0  0  0  0  0  0
  2  1  1  0
  3  1  1  0
  4  6  1  0
  5  7  1  0
  6  2  2  0
  7  3  2  0
  8 14  1  0
  9  1  1  0
 10  2  1  0
 11  3  1  0
 12  6  1  0
 13  7  1  0
 14 16  1  0
 15  8  1  0
 16  9  1  0
 17 10  2  0
 18 11  2  0
 19 18  1  0
 20 17  1  0
  5  4  2  0
 19 13  2  0
 20 12  2  0
  1 21  1  0
  4 22  1  0
  5 23  1  0
  8 24  1  0
  9 25  1  0
  9 26  1  0
 10 27  1  0
 11 28  1  0
 12 29  1  0
 13 30  1  0
 14 31  1  0
 14 32  1  0
 15 33  1  0
 15 34  1  0
 15 35  1  0
 16 36  1  0
 16 37  1  0
 17 38  1  0
 18 39  1  0
 19 40  1  0
 20 41  1  0
M  END
> <Uni-Dock RESULT> 
ENERGY=   -5.704  LOWER_BOUND=    0.257  UPPER_BOUND=    0.257
INTER + INTRA:          -5.704
INTER:                  -5.704
INTRA:                   0.000
UNBOUND:                 0.000

$$$$

     RDKit          3D

 41 43  0  0  0  0  0  0  0  0999 V2000
   47.8658  -17.2437   -8.1942 C   0  0  0  0  0  0  0  0  0  0  0  0
   47.3937  -18.2202   -7.1112 C   0  0  0  0  0  0  0  0  0  0  0  0
   48.8610  -16.2534   -7.5838 C   0  0  0  0  0  0  0  0  0  0  0  0
   49.7295  -19.1998   -6.9894 C   0  0  0  0  0  0  0  0  0  0  0  0
   50.5189  -18.1431   -7.2493 C   0  0  0  0  0  0  0  0  0  0  0  0
   48.3173  -19.1449   -6.5689 C   0  0  0  0  0  0  0  0  0  0  0  0
   50.1251  -16.7254   -7.1578 C   0  0  0  0  0  0  0  0  0  0  0  0
   45.1284  -16.2251  -11.6581 N   0  0  0  0  0  0  0  0  0  0  0  0
   46.7210  -16.6368   -9.0515 C   0  0  0  0  0  0  0  0  0  0  0  0
   46.0773  -18.2153   -6.6160 C   0  0  0  0  0  0  0  0  0  0  0  0
   48.5554  -14.8939   -7.3933 C   0  0  0  0  0  0  0  0  0  0  0  0
   47.8896  -20.0707   -5.6048 C   0  0  0  0  0  0  0  0  0  0  0  0
   51.0645  -15.8251   -6.6313 C   0  0  0  0  0  0  0  0  0  0  0  0
   46.1265  -15.2838  -11.1514 C   0  0  0  0  0  0  0  0  0  0  0  0
   44.1256  -15.5407  -12.4639 C   0  0  0  0  0  0  0  0  0  0  0  0
   47.2274  -15.9918  -10.3529 C   0  0  0  0  0  0  0  0  0  0  0  0
   45.6714  -19.1323   -5.6445 C   0  0  0  0  0  0  0  0  0  0  0  0
   49.4945  -14.0131   -6.8527 C   0  0  0  0  0  0  0  0  0  0  0  0
   50.7515  -14.4755   -6.4812 C   0  0  0  0  0  0  0  0  0  0  0  0
   46.5737  -20.0645   -5.1451 C   0  0  0  0  0  0  0  0  0  0  0  0
   48.4238  -17.8469   -8.9273 H   0  0  0  0  0  0  0  0  0  0  0  0
   50.1567  -20.1976   -7.0605 H   0  0  0  0  0  0  0  0  0  0  0  0
   51.5567  -18.3236   -7.5205 H   0  0  0  0  0  0  0  0  0  0  0  0
   44.6651  -16.6933  -10.8807 H   0  0  0  0  0  0  0  0  0  0  0  0
   46.0298  -17.4444   -9.3253 H   0  0  0  0  0  0  0  0  0  0  0  0
   46.1343  -15.9105   -8.4773 H   0  0  0  0  0  0  0  0  0  0  0  0
   45.3452  -17.4980   -6.9754 H   0  0  0  0  0  0  0  0  0  0  0  0
   47.5829  -14.4928   -7.6620 H   0  0  0  0  0  0  0  0  0  0  0  0
   48.5878  -20.7936   -5.1887 H   0  0  0  0  0  0  0  0  0  0  0  0
   52.0432  -16.1757   -6.3118 H   0  0  0  0  0  0  0  0  0  0  0  0
   46.6007  -14.7660  -11.9940 H   0  0  0  0  0  0  0  0  0  0  0  0
   45.6504  -14.5235  -10.5206 H   0  0  0  0  0  0  0  0  0  0  0  0
   43.5847  -14.7900  -11.8786 H   0  0  0  0  0  0  0  0  0  0  0  0
   44.5795  -15.0578  -13.3353 H   0  0  0  0  0  0  0  0  0  0  0  0
   43.3970  -16.2686  -12.8339 H   0  0  0  0  0  0  0  0  0  0  0  0
   47.7017  -16.7576  -10.9800 H   0  0  0  0  0  0  0  0  0  0  0  0
   48.0038  -15.2519  -10.1302 H   0  0  0  0  0  0  0  0  0  0  0  0
   44.6484  -19.1162   -5.2776 H   0  0  0  0  0  0  0  0  0  0  0  0
   49.2411  -12.9644   -6.7204 H   0  0  0  0  0  0  0  0  0  0  0  0
   51.4830  -13.7908   -6.0608 H   0  0  0  0  0  0  0  0  0  0  0  0
   46.2582  -20.7791   -4.3899 H   0  0  0  0  0  0  0  0  0  0  0  0
  2  1  1  0
  3  1  1  0
  4  6  1  0
  5  7  1  0
  6  2  2  0
  7  3  2  0
  8 14  1  0
  9  1  1  0
 10  2  1  0
 11  3  1  0
 12  6  1  0
 13  7  1  0
 14 16  1  0
 15  8  1  0
 16  9  1  0
 17 10  2  0
 18 11  2  0
 19 18  1  0
 20 17  1  0
  5  4  2  0
 19 13  2  0
 20 12  2  0
  1 21  1  0
  4 22  1  0
  5 23  1  0
  8 24  1  0
  9 25  1  0
  9 26  1  0
 10 27  1  0
 11 28  1  0
 12 29  1  0
 13 30  1  0
 14 31  1  0
 14 32  1  0
 15 33  1  0
 15 34  1  0
 15 35  1  0
 16 36  1  0
 16 37  1  0
 17 38  1  0
 18 39  1  0
 19 40  1  0
 20 41  1  0
M  END
> <Uni-Dock RESULT> 
ENERGY=   -5.401  LOWER_BOUND=    2.862  UPPER_BOUND=    5.360
INTER + INTRA:          -5.401
INTER:                  -5.401
INTRA:                   0.000
UNBOUND:                 0.000

$$$$

     RDKit          3D

 41 43  0  0  0  0  0  0  0  0999 V2000
   50.2149  -18.2968   -7.2752 C   0  0  0  0  0  0  0  0  0  0  0  0
   48.9747  -17.4068   -7.1358 C   0  0  0  0  0  0  0  0  0  0  0  0
   50.6425  -18.7895   -5.8902 C   0  0  0  0  0  0  0  0  0  0  0  0
   47.6218  -19.4227   -6.4036 C   0  0  0  0  0  0  0  0  0  0  0  0
   48.5202  -20.1696   -5.7384 C   0  0  0  0  0  0  0  0  0  0  0  0
   47.7528  -17.9895   -6.7242 C   0  0  0  0  0  0  0  0  0  0  0  0
   49.8070  -19.6966   -5.1963 C   0  0  0  0  0  0  0  0  0  0  0  0
   53.1124  -17.6052  -10.6892 N   0  0  0  0  0  0  0  0  0  0  0  0
   51.3326  -17.7003   -8.1745 C   0  0  0  0  0  0  0  0  0  0  0  0
   49.0116  -16.0220   -7.3785 C   0  0  0  0  0  0  0  0  0  0  0  0
   51.8189  -18.3468   -5.2594 C   0  0  0  0  0  0  0  0  0  0  0  0
   46.6002  -17.1943   -6.6298 C   0  0  0  0  0  0  0  0  0  0  0  0
   50.2015  -20.1888   -3.9424 C   0  0  0  0  0  0  0  0  0  0  0  0
   53.5407  -18.1555   -9.4035 C   0  0  0  0  0  0  0  0  0  0  0  0
   54.2500  -17.1010  -11.4473 C   0  0  0  0  0  0  0  0  0  0  0  0
   52.3672  -18.7497   -8.6158 C   0  0  0  0  0  0  0  0  0  0  0  0
   47.8596  -15.2414   -7.2643 C   0  0  0  0  0  0  0  0  0  0  0  0
   52.1902  -18.8328   -4.0040 C   0  0  0  0  0  0  0  0  0  0  0  0
   51.3880  -19.7604   -3.3500 C   0  0  0  0  0  0  0  0  0  0  0  0
   46.6533  -15.8276   -6.8985 C   0  0  0  0  0  0  0  0  0  0  0  0
   49.8928  -19.1828   -7.8444 H   0  0  0  0  0  0  0  0  0  0  0  0
   46.6911  -19.8885   -6.7198 H   0  0  0  0  0  0  0  0  0  0  0  0
   48.2839  -21.2125   -5.5393 H   0  0  0  0  0  0  0  0  0  0  0  0
   52.4511  -16.8447  -10.5395 H   0  0  0  0  0  0  0  0  0  0  0  0
   50.8651  -17.2903   -9.0792 H   0  0  0  0  0  0  0  0  0  0  0  0
   51.8369  -16.8616   -7.6811 H   0  0  0  0  0  0  0  0  0  0  0  0
   49.9361  -15.5257   -7.6591 H   0  0  0  0  0  0  0  0  0  0  0  0
   52.4698  -17.6170   -5.7312 H   0  0  0  0  0  0  0  0  0  0  0  0
   45.6527  -17.6332   -6.3253 H   0  0  0  0  0  0  0  0  0  0  0  0
   49.5723  -20.8954   -3.4061 H   0  0  0  0  0  0  0  0  0  0  0  0
   54.2718  -18.9551   -9.5742 H   0  0  0  0  0  0  0  0  0  0  0  0
   54.0303  -17.3818   -8.7999 H   0  0  0  0  0  0  0  0  0  0  0  0
   54.7627  -16.2948  -10.9127 H   0  0  0  0  0  0  0  0  0  0  0  0
   54.9664  -17.8995  -11.6653 H   0  0  0  0  0  0  0  0  0  0  0  0
   53.9014  -16.7018  -12.4048 H   0  0  0  0  0  0  0  0  0  0  0  0
   51.8714  -19.5202   -9.2201 H   0  0  0  0  0  0  0  0  0  0  0  0
   52.7807  -19.2631   -7.7411 H   0  0  0  0  0  0  0  0  0  0  0  0
   47.9067  -14.1734   -7.4608 H   0  0  0  0  0  0  0  0  0  0  0  0
   53.1073  -18.4833   -3.5368 H   0  0  0  0  0  0  0  0  0  0  0  0
   51.6762  -20.1395   -2.3734 H   0  0  0  0  0  0  0  0  0  0  0  0
   45.7562  -15.2208   -6.8105 H   0  0  0  0  0  0  0  0  0  0  0  0
  2  1  1  0
  3  1  1  0
  4  6  1  0
  5  7  1  0
  6  2  2  0
  7  3  2  0
  8 14  1  0
  9  1  1  0
 10  2  1  0
 11  3  1  0
 12  6  1  0
 13  7  1  0
 14 16  1  0
 15  8  1  0
 16  9  1  0
 17 10  2  0
 18 11  2  0
 19 18  1  0
 20 17  1  0
  5  4  2  0
 19 13  2  0
 20 12  2  0
  1 21  1  0
  4 22  1  0
  5 23  1  0
  8 24  1  0
  9 25  1  0
  9 26  1  0
 10 27  1  0
 11 28  1  0
 12 29  1  0
 13 30  1  0
 14 31  1  0
 14 32  1  0
 15 33  1  0
 15 34  1  0
 15 35  1  0
 16 36  1  0
 16 37  1  0
 17 38  1  0
 18 39  1  0
 19 40  1  0
 20 41  1  0
M  END
> <Uni-Dock RESULT> 
ENERGY=   -5.363  LOWER_BOUND=    2.330  UPPER_BOUND=    4.730
INTER + INTRA:          -5.363
INTER:                  -5.363
INTRA:                   0.000
UNBOUND:                 0.000

$$$$

     RDKit          3D

 41 43  0  0  0  0  0  0  0  0999 V2000
   49.1864  -17.1777   -7.0581 C   0  0  0  0  0  0  0  0  0  0  0  0
   48.0349  -18.0883   -6.6175 C   0  0  0  0  0  0  0  0  0  0  0  0
   49.1027  -16.9513   -8.5699 C   0  0  0  0  0  0  0  0  0  0  0  0
   46.3781  -16.2581   -7.1967 C   0  0  0  0  0  0  0  0  0  0  0  0
   46.9550  -15.6425   -8.2434 C   0  0  0  0  0  0  0  0  0  0  0  0
   46.7076  -17.6040   -6.6926 C   0  0  0  0  0  0  0  0  0  0  0  0
   48.0245  -16.1983   -9.0924 C   0  0  0  0  0  0  0  0  0  0  0  0
   53.0808  -17.1888   -4.7422 N   0  0  0  0  0  0  0  0  0  0  0  0
   50.5757  -17.5845   -6.4938 C   0  0  0  0  0  0  0  0  0  0  0  0
   48.2469  -19.4022   -6.1626 C   0  0  0  0  0  0  0  0  0  0  0  0
   50.0369  -17.4951   -9.4694 C   0  0  0  0  0  0  0  0  0  0  0  0
   45.6466  -18.4123   -6.2562 C   0  0  0  0  0  0  0  0  0  0  0  0
   47.9523  -15.9481  -10.4716 C   0  0  0  0  0  0  0  0  0  0  0  0
   53.0259  -16.8872   -6.1723 C   0  0  0  0  0  0  0  0  0  0  0  0
   54.4362  -17.5315   -4.3315 C   0  0  0  0  0  0  0  0  0  0  0  0
   51.6207  -16.4621   -6.6141 C   0  0  0  0  0  0  0  0  0  0  0  0
   47.1789  -20.2000   -5.7472 C   0  0  0  0  0  0  0  0  0  0  0  0
   49.9428  -17.2514  -10.8412 C   0  0  0  0  0  0  0  0  0  0  0  0
   48.9076  -16.4705  -11.3415 C   0  0  0  0  0  0  0  0  0  0  0  0
   45.8811  -19.7034   -5.7859 C   0  0  0  0  0  0  0  0  0  0  0  0
   49.0059  -16.2030   -6.5783 H   0  0  0  0  0  0  0  0  0  0  0  0
   45.5711  -15.7489   -6.6746 H   0  0  0  0  0  0  0  0  0  0  0  0
   46.5936  -14.6578   -8.5314 H   0  0  0  0  0  0  0  0  0  0  0  0
   52.4624  -17.9694   -4.5270 H   0  0  0  0  0  0  0  0  0  0  0  0
   50.4594  -17.8205   -5.4281 H   0  0  0  0  0  0  0  0  0  0  0  0
   50.9494  -18.4969   -6.9725 H   0  0  0  0  0  0  0  0  0  0  0  0
   49.2449  -19.8289   -6.1246 H   0  0  0  0  0  0  0  0  0  0  0  0
   50.8561  -18.1173   -9.1220 H   0  0  0  0  0  0  0  0  0  0  0  0
   44.6231  -18.0468   -6.2987 H   0  0  0  0  0  0  0  0  0  0  0  0
   47.1342  -15.3606  -10.8819 H   0  0  0  0  0  0  0  0  0  0  0  0
   53.7143  -16.0637   -6.3982 H   0  0  0  0  0  0  0  0  0  0  0  0
   53.3452  -17.7567   -6.7595 H   0  0  0  0  0  0  0  0  0  0  0  0
   54.8020  -18.4197   -4.8568 H   0  0  0  0  0  0  0  0  0  0  0  0
   55.1262  -16.7002   -4.5085 H   0  0  0  0  0  0  0  0  0  0  0  0
   54.4483  -17.7459   -3.2584 H   0  0  0  0  0  0  0  0  0  0  0  0
   51.2961  -15.5956   -6.0237 H   0  0  0  0  0  0  0  0  0  0  0  0
   51.6887  -16.1193   -7.6522 H   0  0  0  0  0  0  0  0  0  0  0  0
   47.3630  -21.2114   -5.3941 H   0  0  0  0  0  0  0  0  0  0  0  0
   50.6795  -17.6750  -11.5190 H   0  0  0  0  0  0  0  0  0  0  0  0
   48.8337  -16.2800  -12.4086 H   0  0  0  0  0  0  0  0  0  0  0  0
   45.0497  -20.3234   -5.4618 H   0  0  0  0  0  0  0  0  0  0  0  0
  2  1  1  0
  3  1  1  0
  4  6  1  0
  5  7  1  0
  6  2  2  0
  7  3  2  0
  8 14  1  0
  9  1  1  0
 10  2  1  0
 11  3  1  0
 12  6  1  0
 13  7  1  0
 14 16  1  0
 15  8  1  0
 16  9  1  0
 17 10  2  0
 18 11  2  0
 19 18  1  0
 20 17  1  0
  5  4  2  0
 19 13  2  0
 20 12  2  0
  1 21  1  0
  4 22  1  0
  5 23  1  0
  8 24  1  0
  9 25  1  0
  9 26  1  0
 10 27  1  0
 11 28  1  0
 12 29  1  0
 13 30  1  0
 14 31  1  0
 14 32  1  0
 15 33  1  0
 15 34  1  0
 15 35  1  0
 16 36  1  0
 16 37  1  0
 17 38  1  0
 18 39  1  0
 19 40  1  0
 20 41  1  0
M  END
> <Uni-Dock RESULT> 
ENERGY=   -5.024  LOWER_BOUND=    2.338  UPPER_BOUND=    5.167
INTER + INTRA:          -5.024
INTER:                  -5.024
INTRA:                   0.000
UNBOUND:                 0.000

$$$$

     RDKit          3D

 41 43  0  0  0  0  0  0  0  0999 V2000
   50.0607  -17.8284   -8.1019 C   0  0  0  0  0  0  0  0  0  0  0  0
   48.7174  -17.2287   -7.6714 C   0  0  0  0  0  0  0  0  0  0  0  0
   50.9945  -17.8996   -6.8909 C   0  0  0  0  0  0  0  0  0  0  0  0
   48.2614  -19.2860   -6.2609 C   0  0  0  0  0  0  0  0  0  0  0  0
   49.4869  -19.6507   -5.8455 C   0  0  0  0  0  0  0  0  0  0  0  0
   47.8844  -17.9648   -6.7961 C   0  0  0  0  0  0  0  0  0  0  0  0
   50.6885  -18.7965   -5.8401 C   0  0  0  0  0  0  0  0  0  0  0  0
   51.5180  -17.2697  -12.3556 N   0  0  0  0  0  0  0  0  0  0  0  0
   50.6520  -17.2086   -9.3981 C   0  0  0  0  0  0  0  0  0  0  0  0
   48.2907  -15.9574   -8.0957 C   0  0  0  0  0  0  0  0  0  0  0  0
   52.1296  -17.0795   -6.7613 C   0  0  0  0  0  0  0  0  0  0  0  0
   46.6347  -17.4454   -6.4244 C   0  0  0  0  0  0  0  0  0  0  0  0
   51.5537  -18.9032   -4.7400 C   0  0  0  0  0  0  0  0  0  0  0  0
   52.4396  -17.4171  -11.2295 C   0  0  0  0  0  0  0  0  0  0  0  0
   52.1947  -16.7023  -13.5146 C   0  0  0  0  0  0  0  0  0  0  0  0
   51.7640  -18.0714  -10.0188 C   0  0  0  0  0  0  0  0  0  0  0  0
   47.0515  -15.4474   -7.7038 C   0  0  0  0  0  0  0  0  0  0  0  0
   52.9723  -17.1851   -5.6529 C   0  0  0  0  0  0  0  0  0  0  0  0
   52.6908  -18.1028   -4.6477 C   0  0  0  0  0  0  0  0  0  0  0  0
   46.2205  -16.1934   -6.8759 C   0  0  0  0  0  0  0  0  0  0  0  0
   49.8492  -18.8661   -8.4041 H   0  0  0  0  0  0  0  0  0  0  0  0
   47.4492  -20.0049   -6.1776 H   0  0  0  0  0  0  0  0  0  0  0  0
   49.6224  -20.6509   -5.4403 H   0  0  0  0  0  0  0  0  0  0  0  0
   50.7433  -16.6617  -12.0941 H   0  0  0  0  0  0  0  0  0  0  0  0
   49.8452  -17.1202  -10.1372 H   0  0  0  0  0  0  0  0  0  0  0  0
   51.0213  -16.1918   -9.2219 H   0  0  0  0  0  0  0  0  0  0  0  0
   48.9144  -15.3410   -8.7367 H   0  0  0  0  0  0  0  0  0  0  0  0
   52.3816  -16.3439   -7.5191 H   0  0  0  0  0  0  0  0  0  0  0  0
   45.9810  -18.0071   -5.7610 H   0  0  0  0  0  0  0  0  0  0  0  0
   51.3338  -19.5979   -3.9326 H   0  0  0  0  0  0  0  0  0  0  0  0
   53.2831  -18.0511  -11.5289 H   0  0  0  0  0  0  0  0  0  0  0  0
   52.8459  -16.4413  -10.9370 H   0  0  0  0  0  0  0  0  0  0  0  0
   52.5928  -15.7055  -13.2985 H   0  0  0  0  0  0  0  0  0  0  0  0
   53.0106  -17.3490  -13.8532 H   0  0  0  0  0  0  0  0  0  0  0  0
   51.4842  -16.6092  -14.3417 H   0  0  0  0  0  0  0  0  0  0  0  0
   51.3511  -19.0457  -10.3102 H   0  0  0  0  0  0  0  0  0  0  0  0
   52.5419  -18.2766   -9.2754 H   0  0  0  0  0  0  0  0  0  0  0  0
   46.7368  -14.4649   -8.0459 H   0  0  0  0  0  0  0  0  0  0  0  0
   53.8488  -16.5470   -5.5753 H   0  0  0  0  0  0  0  0  0  0  0  0
   53.3460  -18.1860   -3.7849 H   0  0  0  0  0  0  0  0  0  0  0  0
   45.2555  -15.7975   -6.5715 H   0  0  0  0  0  0  0  0  0  0  0  0
  2  1  1  0
  3  1  1  0
  4  6  1  0
  5  7  1  0
  6  2  2  0
  7  3  2  0
  8 14  1  0
  9  1  1  0
 10  2  1  0
 11  3  1  0
 12  6  1  0
 13  7  1  0
 14 16  1  0
 15  8  1  0
 16  9  1  0
 17 10  2  0
 18 11  2  0
 19 18  1  0
 20 17  1  0
  5  4  2  0
 19 13  2  0
 20 12  2  0
  1 21  1  0
  4 22  1  0
  5 23  1  0
  8 24  1  0
  9 25  1  0
  9 26  1  0
 10 27  1  0
 11 28  1  0
 12 29  1  0
 13 30  1  0
 14 31  1  0
 14 32  1  0
 15 33  1  0
 15 34  1  0
 15 35  1  0
 16 36  1  0
 16 37  1  0
 17 38  1  0
 18 39  1  0
 19 40  1  0
 20 41  1  0
M  END
> <Uni-Dock RESULT> 
ENERGY=   -4.813  LOWER_BOUND=    1.684  UPPER_BOUND=    4.644
INTER + INTRA:          -4.813
INTER:                  -4.813
INTRA:                   0.000
UNBOUND:                 0.000

$$$$

     RDKit          3D

 41 43  0  0  0  0  0  0  0  0999 V2000
   49.6797  -14.9853   -7.4734 C   0  0  0  0  0  0  0  0  0  0  0  0
   48.5028  -15.9582   -7.3401 C   0  0  0  0  0  0  0  0  0  0  0  0
   50.8942  -15.5562   -6.7367 C   0  0  0  0  0  0  0  0  0  0  0  0
   49.7492  -17.6464   -8.7637 C   0  0  0  0  0  0  0  0  0  0  0  0
   51.0362  -17.4265   -8.4436 C   0  0  0  0  0  0  0  0  0  0  0  0
   48.5753  -17.2174   -7.9814 C   0  0  0  0  0  0  0  0  0  0  0  0
   51.5211  -16.7186   -7.2447 C   0  0  0  0  0  0  0  0  0  0  0  0
   48.8931  -10.5472   -7.9362 N   0  0  0  0  0  0  0  0  0  0  0  0
   49.3215  -13.5032   -7.1752 C   0  0  0  0  0  0  0  0  0  0  0  0
   47.3587  -15.6551   -6.5803 C   0  0  0  0  0  0  0  0  0  0  0  0
   51.3926  -14.9922   -5.5487 C   0  0  0  0  0  0  0  0  0  0  0  0
   47.4893  -18.1026   -7.9004 C   0  0  0  0  0  0  0  0  0  0  0  0
   52.6589  -17.2339   -6.6045 C   0  0  0  0  0  0  0  0  0  0  0  0
   50.1052  -11.0611   -7.2991 C   0  0  0  0  0  0  0  0  0  0  0  0
   48.6797   -9.1455   -7.6002 C   0  0  0  0  0  0  0  0  0  0  0  0
   50.3840  -12.5171   -7.6900 C   0  0  0  0  0  0  0  0  0  0  0  0
   46.2932  -16.5535   -6.4959 C   0  0  0  0  0  0  0  0  0  0  0  0
   52.5159  -15.5259   -4.9134 C   0  0  0  0  0  0  0  0  0  0  0  0
   53.1549  -16.6395   -5.4456 C   0  0  0  0  0  0  0  0  0  0  0  0
   46.3543  -17.7723   -7.1616 C   0  0  0  0  0  0  0  0  0  0  0  0
   49.9370  -14.9618   -8.5439 H   0  0  0  0  0  0  0  0  0  0  0  0
   49.5275  -18.2165   -9.6632 H   0  0  0  0  0  0  0  0  0  0  0  0
   51.8098  -17.8272   -9.0949 H   0  0  0  0  0  0  0  0  0  0  0  0
   48.0843  -11.0873   -7.6324 H   0  0  0  0  0  0  0  0  0  0  0  0
   48.3752  -13.2689   -7.6798 H   0  0  0  0  0  0  0  0  0  0  0  0
   49.1482  -13.3419   -6.1050 H   0  0  0  0  0  0  0  0  0  0  0  0
   47.2763  -14.7166   -6.0398 H   0  0  0  0  0  0  0  0  0  0  0  0
   50.9190  -14.1271   -5.0946 H   0  0  0  0  0  0  0  0  0  0  0  0
   47.5290  -19.0687   -8.3984 H   0  0  0  0  0  0  0  0  0  0  0  0
   53.1551  -18.1200   -6.9936 H   0  0  0  0  0  0  0  0  0  0  0  0
   50.9658  -10.4571   -7.6115 H   0  0  0  0  0  0  0  0  0  0  0  0
   50.0257  -10.9855   -6.2078 H   0  0  0  0  0  0  0  0  0  0  0  0
   48.5540   -9.0062   -6.5216 H   0  0  0  0  0  0  0  0  0  0  0  0
   49.5107   -8.5235   -7.9481 H   0  0  0  0  0  0  0  0  0  0  0  0
   47.7714   -8.7869   -8.0943 H   0  0  0  0  0  0  0  0  0  0  0  0
   50.4580  -12.5968   -8.7822 H   0  0  0  0  0  0  0  0  0  0  0  0
   51.3699  -12.7840   -7.2943 H   0  0  0  0  0  0  0  0  0  0  0  0
   45.4151  -16.2995   -5.9078 H   0  0  0  0  0  0  0  0  0  0  0  0
   52.8897  -15.0705   -3.9999 H   0  0  0  0  0  0  0  0  0  0  0  0
   54.0291  -17.0553   -4.9523 H   0  0  0  0  0  0  0  0  0  0  0  0
   45.5250  -18.4715   -7.0973 H   0  0  0  0  0  0  0  0  0  0  0  0
  2  1  1  0
  3  1  1  0
  4  6  1  0
  5  7  1  0
  6  2  2  0
  7  3  2  0
  8 14  1  0
  9  1  1  0
 10  2  1  0
 11  3  1  0
 12  6  1  0
 13  7  1  0
 14 16  1  0
 15  8  1  0
 16  9  1  0
 17 10  2  0
 18 11  2  0
 19 18  1  0
 20 17  1  0
  5  4  2  0
 19 13  2  0
 20 12  2  0
  1 21  1  0
  4 22  1  0
  5 23  1  0
  8 24  1  0
  9 25  1  0
  9 26  1  0
 10 27  1  0
 11 28  1  0
 12 29  1  0
 13 30  1  0
 14 31  1  0
 14 32  1  0
 15 33  1  0
 15 34  1  0
 15 35  1  0
 16 36  1  0
 16 37  1  0
 17 38  1  0
 18 39  1  0
 19 40  1  0
 20 41  1  0
M  END
> <Uni-Dock RESULT> 
ENERGY=   -4.685  LOWER_BOUND=    2.678  UPPER_BOUND=    6.287
INTER + INTRA:          -4.685
INTER:                  -4.685
INTRA:                   0.000
UNBOUND:                 0.000

$$$$

     RDKit          3D

 41 43  0  0  0  0  0  0  0  0999 V2000
   47.2590  -16.7569  -10.8391 C   0  0  0  0  0  0  0  0  0  0  0  0
   46.0683  -16.1516  -11.5911 C   0  0  0  0  0  0  0  0  0  0  0  0
   47.0359  -16.6050   -9.3321 C   0  0  0  0  0  0  0  0  0  0  0  0
   44.5724  -17.9851  -10.6797 C   0  0  0  0  0  0  0  0  0  0  0  0
   45.0962  -18.2334   -9.4667 C   0  0  0  0  0  0  0  0  0  0  0  0
   44.8031  -16.7773  -11.4934 C   0  0  0  0  0  0  0  0  0  0  0  0
   45.9978  -17.3418   -8.7144 C   0  0  0  0  0  0  0  0  0  0  0  0
   51.3578  -16.7989  -12.7698 N   0  0  0  0  0  0  0  0  0  0  0  0
   48.6476  -16.3200  -11.3821 C   0  0  0  0  0  0  0  0  0  0  0  0
   46.1810  -14.9780  -12.3581 C   0  0  0  0  0  0  0  0  0  0  0  0
   47.7997  -15.7307   -8.5384 C   0  0  0  0  0  0  0  0  0  0  0  0
   43.7128  -16.2567  -12.2075 C   0  0  0  0  0  0  0  0  0  0  0  0
   45.8034  -17.2447   -7.3277 C   0  0  0  0  0  0  0  0  0  0  0  0
   51.1807  -16.7358  -11.3193 C   0  0  0  0  0  0  0  0  0  0  0  0
   52.7033  -16.3895  -13.1507 C   0  0  0  0  0  0  0  0  0  0  0  0
   49.7917  -17.2232  -10.8906 C   0  0  0  0  0  0  0  0  0  0  0  0
   45.0828  -14.4632  -13.0497 C   0  0  0  0  0  0  0  0  0  0  0  0
   47.5837  -15.6322   -7.1623 C   0  0  0  0  0  0  0  0  0  0  0  0
   46.5935  -16.3955   -6.5553 C   0  0  0  0  0  0  0  0  0  0  0  0
   43.8520  -15.1058  -12.9816 C   0  0  0  0  0  0  0  0  0  0  0  0
   47.2418  -17.8360  -11.0578 H   0  0  0  0  0  0  0  0  0  0  0  0
   43.8892  -18.7141  -11.1098 H   0  0  0  0  0  0  0  0  0  0  0  0
   44.8175  -19.1537   -8.9583 H   0  0  0  0  0  0  0  0  0  0  0  0
   50.6835  -16.1891  -13.2297 H   0  0  0  0  0  0  0  0  0  0  0  0
   48.6231  -16.3776  -12.4780 H   0  0  0  0  0  0  0  0  0  0  0  0
   48.8626  -15.2745  -11.1332 H   0  0  0  0  0  0  0  0  0  0  0  0
   47.1235  -14.4430  -12.4302 H   0  0  0  0  0  0  0  0  0  0  0  0
   48.5775  -15.1104   -8.9733 H   0  0  0  0  0  0  0  0  0  0  0  0
   42.7379  -16.7355  -12.1490 H   0  0  0  0  0  0  0  0  0  0  0  0
   45.0158  -17.8157   -6.8414 H   0  0  0  0  0  0  0  0  0  0  0  0
   51.9276  -17.3746  -10.8324 H   0  0  0  0  0  0  0  0  0  0  0  0
   51.3348  -15.7115  -10.9590 H   0  0  0  0  0  0  0  0  0  0  0  0
   52.9082  -15.3565  -12.8512 H   0  0  0  0  0  0  0  0  0  0  0  0
   53.4581  -17.0478  -12.7086 H   0  0  0  0  0  0  0  0  0  0  0  0
   52.8089  -16.4522  -14.2382 H   0  0  0  0  0  0  0  0  0  0  0  0
   49.6323  -18.2461  -11.2552 H   0  0  0  0  0  0  0  0  0  0  0  0
   49.7834  -17.2814   -9.7969 H   0  0  0  0  0  0  0  0  0  0  0  0
   45.1905  -13.5578  -13.6413 H   0  0  0  0  0  0  0  0  0  0  0  0
   48.1900  -14.9556   -6.5654 H   0  0  0  0  0  0  0  0  0  0  0  0
   46.4249  -16.3198   -5.4846 H   0  0  0  0  0  0  0  0  0  0  0  0
   42.9972  -14.7063  -13.5204 H   0  0  0  0  0  0  0  0  0  0  0  0
  2  1  1  0
  3  1  1  0
  4  6  1  0
  5  7  1  0
  6  2  2  0
  7  3  2  0
  8 14  1  0
  9  1  1  0
 10  2  1  0
 11  3  1  0
 12  6  1  0
 13  7  1  0
 14 16  1  0
 15  8  1  0
 16  9  1  0
 17 10  2  0
 18 11  2  0
 19 18  1  0
 20 17  1  0
  5  4  2  0
 19 13  2  0
 20 12  2  0
  1 21  1  0
  4 22  1  0
  5 23  1  0
  8 24  1  0
  9 25  1  0
  9 26  1  0
 10 27  1  0
 11 28  1  0
 12 29  1  0
 13 30  1  0
 14 31  1  0
 14 32  1  0
 15 33  1  0
 15 34  1  0
 15 35  1  0
 16 36  1  0
 16 37  1  0
 17 38  1  0
 18 39  1  0
 19 40  1  0
 20 41  1  0
M  END
> <Uni-Dock RESULT> 
ENERGY=   -4.404  LOWER_BOUND=    3.751  UPPER_BOUND=    6.222
INTER + INTRA:          -4.404
INTER:                  -4.404
INTRA:                   0.000
UNBOUND:                 0.000

$$$$

     RDKit          3D

 41 43  0  0  0  0  0  0  0  0999 V2000
   47.0181  -16.0357   -9.7239 C   0  0  0  0  0  0  0  0  0  0  0  0
   48.3861  -16.4687   -9.1850 C   0  0  0  0  0  0  0  0  0  0  0  0
   45.9825  -17.1165   -9.4029 C   0  0  0  0  0  0  0  0  0  0  0  0
   47.5117  -16.2489   -6.8149 C   0  0  0  0  0  0  0  0  0  0  0  0
   46.2172  -16.5918   -6.9328 C   0  0  0  0  0  0  0  0  0  0  0  0
   48.5803  -16.5486   -7.7857 C   0  0  0  0  0  0  0  0  0  0  0  0
   45.6185  -17.3391   -8.0538 C   0  0  0  0  0  0  0  0  0  0  0  0
   46.7782  -13.3419  -13.3592 N   0  0  0  0  0  0  0  0  0  0  0  0
   47.0432  -15.5119  -11.1864 C   0  0  0  0  0  0  0  0  0  0  0  0
   49.4533  -16.8153  -10.0331 C   0  0  0  0  0  0  0  0  0  0  0  0
   45.4025  -17.9273  -10.3949 C   0  0  0  0  0  0  0  0  0  0  0  0
   49.8387  -16.9059   -7.2775 C   0  0  0  0  0  0  0  0  0  0  0  0
   44.6425  -18.2992   -7.7440 C   0  0  0  0  0  0  0  0  0  0  0  0
   45.7295  -14.3087  -13.0357 C   0  0  0  0  0  0  0  0  0  0  0  0
   46.6813  -12.9101  -14.7475 C   0  0  0  0  0  0  0  0  0  0  0  0
   45.7734  -14.7290  -11.5619 C   0  0  0  0  0  0  0  0  0  0  0  0
   50.6948  -17.1847   -9.5118 C   0  0  0  0  0  0  0  0  0  0  0  0
   44.4448  -18.8901  -10.0697 C   0  0  0  0  0  0  0  0  0  0  0  0
   44.0573  -19.0696   -8.7471 C   0  0  0  0  0  0  0  0  0  0  0  0
   50.8903  -17.2222   -8.1360 C   0  0  0  0  0  0  0  0  0  0  0  0
   46.7335  -15.1397   -9.1505 H   0  0  0  0  0  0  0  0  0  0  0  0
   47.8312  -15.7268   -5.9157 H   0  0  0  0  0  0  0  0  0  0  0  0
   45.5357  -16.3358   -6.1246 H   0  0  0  0  0  0  0  0  0  0  0  0
   47.6952  -13.7584  -13.2054 H   0  0  0  0  0  0  0  0  0  0  0  0
   47.8991  -14.8332  -11.2950 H   0  0  0  0  0  0  0  0  0  0  0  0
   47.2046  -16.3281  -11.9000 H   0  0  0  0  0  0  0  0  0  0  0  0
   49.3379  -16.8056  -11.1130 H   0  0  0  0  0  0  0  0  0  0  0  0
   45.6825  -17.8259  -11.4391 H   0  0  0  0  0  0  0  0  0  0  0  0
   50.0030  -16.9599   -6.2037 H   0  0  0  0  0  0  0  0  0  0  0  0
   44.3471  -18.4698   -6.7113 H   0  0  0  0  0  0  0  0  0  0  0  0
   44.7474  -13.8604  -13.2296 H   0  0  0  0  0  0  0  0  0  0  0  0
   45.8193  -15.1980  -13.6712 H   0  0  0  0  0  0  0  0  0  0  0  0
   46.8015  -13.7509  -15.4384 H   0  0  0  0  0  0  0  0  0  0  0  0
   45.7231  -12.4184  -14.9438 H   0  0  0  0  0  0  0  0  0  0  0  0
   47.4726  -12.1843  -14.9592 H   0  0  0  0  0  0  0  0  0  0  0  0
   45.6899  -13.8402  -10.9235 H   0  0  0  0  0  0  0  0  0  0  0  0
   44.8834  -15.3357  -11.3632 H   0  0  0  0  0  0  0  0  0  0  0  0
   51.5091  -17.4445  -10.1833 H   0  0  0  0  0  0  0  0  0  0  0  0
   44.0031  -19.5016  -10.8524 H   0  0  0  0  0  0  0  0  0  0  0  0
   43.3120  -19.8182   -8.4931 H   0  0  0  0  0  0  0  0  0  0  0  0
   51.8566  -17.5086   -7.7298 H   0  0  0  0  0  0  0  0  0  0  0  0
  2  1  1  0
  3  1  1  0
  4  6  1  0
  5  7  1  0
  6  2  2  0
  7  3  2  0
  8 14  1  0
  9  1  1  0
 10  2  1  0
 11  3  1  0
 12  6  1  0
 13  7  1  0
 14 16  1  0
 15  8  1  0
 16  9  1  0
 17 10  2  0
 18 11  2  0
 19 18  1  0
 20 17  1  0
  5  4  2  0
 19 13  2  0
 20 12  2  0
  1 21  1  0
  4 22  1  0
  5 23  1  0
  8 24  1  0
  9 25  1  0
  9 26  1  0
 10 27  1  0
 11 28  1  0
 12 29  1  0
 13 30  1  0
 14 31  1  0
 14 32  1  0
 15 33  1  0
 15 34  1  0
 15 35  1  0
 16 36  1  0
 16 37  1  0
 17 38  1  0
 18 39  1  0
 19 40  1  0
 20 41  1  0
M  END
> <Uni-Dock RESULT> 
ENERGY=   -4.395  LOWER_BOUND=    3.635  UPPER_BOUND=    4.793
INTER + INTRA:          -4.395
INTER:                  -4.395
INTRA:                   0.000
UNBOUND:                 0.000

$$$$
