
     RDKit          3D

 41 43  0  0  0  0  0  0  0  0999 V2000
   50.1938  -16.9439   -8.0881 C   0  0  0  0  0  0  0  0  0  0  0  0
   51.1222  -16.4145   -6.9925 C   0  0  0  0  0  0  0  0  0  0  0  0
   48.7822  -17.1202   -7.5188 C   0  0  0  0  0  0  0  0  0  0  0  0
   49.8433  -14.2246   -6.9811 C   0  0  0  0  0  0  0  0  0  0  0  0
   48.5837  -14.6054   -7.2562 C   0  0  0  0  0  0  0  0  0  0  0  0
   50.9277  -15.1014   -6.5029 C   0  0  0  0  0  0  0  0  0  0  0  0
   48.0449  -15.9731   -7.1407 C   0  0  0  0  0  0  0  0  0  0  0  0
   52.7732  -20.1971  -10.0287 N   0  0  0  0  0  0  0  0  0  0  0  0
   50.7115  -18.1588   -8.9069 C   0  0  0  0  0  0  0  0  0  0  0  0
   52.1417  -17.1969   -6.4218 C   0  0  0  0  0  0  0  0  0  0  0  0
   48.1979  -18.3863   -7.3355 C   0  0  0  0  0  0  0  0  0  0  0  0
   51.7945  -14.5855   -5.5269 C   0  0  0  0  0  0  0  0  0  0  0  0
   46.7363  -16.1169   -6.6542 C   0  0  0  0  0  0  0  0  0  0  0  0
   52.3624  -18.9645  -10.6995 C   0  0  0  0  0  0  0  0  0  0  0  0
   54.0227  -20.0568   -9.2969 C   0  0  0  0  0  0  0  0  0  0  0  0
   51.9315  -17.8154   -9.7778 C   0  0  0  0  0  0  0  0  0  0  0  0
   52.9862  -16.6757   -5.4394 C   0  0  0  0  0  0  0  0  0  0  0  0
   46.9007  -18.5134   -6.8349 C   0  0  0  0  0  0  0  0  0  0  0  0
   46.1674  -17.3803   -6.5019 C   0  0  0  0  0  0  0  0  0  0  0  0
   52.8200  -15.3680   -4.9994 C   0  0  0  0  0  0  0  0  0  0  0  0
   50.1162  -16.1529   -8.8502 H   0  0  0  0  0  0  0  0  0  0  0  0
   50.1010  -13.1722   -7.0774 H   0  0  0  0  0  0  0  0  0  0  0  0
   47.8681  -13.8471   -7.5666 H   0  0  0  0  0  0  0  0  0  0  0  0
   52.0397  -20.5253   -9.4038 H   0  0  0  0  0  0  0  0  0  0  0  0
   49.9131  -18.4960   -9.5822 H   0  0  0  0  0  0  0  0  0  0  0  0
   50.9363  -19.0052   -8.2492 H   0  0  0  0  0  0  0  0  0  0  0  0
   52.2994  -18.2261   -6.7290 H   0  0  0  0  0  0  0  0  0  0  0  0
   48.7403  -19.2960   -7.5771 H   0  0  0  0  0  0  0  0  0  0  0  0
   51.6611  -13.5732   -5.1521 H   0  0  0  0  0  0  0  0  0  0  0  0
   46.1556  -15.2422   -6.3703 H   0  0  0  0  0  0  0  0  0  0  0  0
   51.5250  -19.2121  -11.3629 H   0  0  0  0  0  0  0  0  0  0  0  0
   53.1688  -18.6175  -11.3574 H   0  0  0  0  0  0  0  0  0  0  0  0
   54.3214  -21.0334   -8.9030 H   0  0  0  0  0  0  0  0  0  0  0  0
   54.8298  -19.7075   -9.9489 H   0  0  0  0  0  0  0  0  0  0  0  0
   53.9269  -19.3749   -8.4472 H   0  0  0  0  0  0  0  0  0  0  0  0
   51.6816  -16.9558  -10.4128 H   0  0  0  0  0  0  0  0  0  0  0  0
   52.7764  -17.4988   -9.1584 H   0  0  0  0  0  0  0  0  0  0  0  0
   53.7729  -17.2951   -5.0164 H   0  0  0  0  0  0  0  0  0  0  0  0
   46.4643  -19.5004   -6.7045 H   0  0  0  0  0  0  0  0  0  0  0  0
   45.1575  -17.4788   -6.1131 H   0  0  0  0  0  0  0  0  0  0  0  0
   53.4763  -14.9614   -4.2349 H   0  0  0  0  0  0  0  0  0  0  0  0
  2  1  1  0
  3  1  1  0
  4  6  1  0
  5  7  1  0
  6  2  2  0
  7  3  2  0
  8 14  1  0
  9  1  1  0
 10  2  1  0
 11  3  1  0
 12  6  1  0
 13  7  1  0
 14 16  1  0
 15  8  1  0
 16  9  1  0
 17 10  2  0
 18 11  2  0
 19 18  1  0
 20 17  1  0
  5  4  2  0
 19 13  2  0
 20 12  2  0
  1 21  1  0
  4 22  1  0
  5 23  1  0
  8 24  1  0
  9 25  1  0
  9 26  1  0
 10 27  1  0
 11 28  1  0
 12 29  1  0
 13 30  1  0
 14 31  1  0
 14 32  1  0
 15 33  1  0
 15 34  1  0
 15 35  1  0
 16 36  1  0
 16 37  1  0
 17 38  1  0
 18 39  1  0
 19 40  1  0
 20 41  1  0
M  END
> <Uni-Dock RESULT> 
ENERGY=   -6.010  LOWER_BOUND=    0.000  UPPER_BOUND=    0.000
INTER + INTRA:          -6.010
INTER:                  -6.010
INTRA:                   0.000
UNBOUND:                 0.000

$$$$

     RDKit          3D

 41 43  0  0  0  0  0  0  0  0999 V2000
   50.1582  -16.9227   -8.0978 C   0  0  0  0  0  0  0  0  0  0  0  0
   51.0989  -16.4213   -6.9996 C   0  0  0  0  0  0  0  0  0  0  0  0
   48.7467  -17.0864   -7.5244 C   0  0  0  0  0  0  0  0  0  0  0  0
   49.8516  -14.2137   -6.9531 C   0  0  0  0  0  0  0  0  0  0  0  0
   48.5854  -14.5727   -7.2275 C   0  0  0  0  0  0  0  0  0  0  0  0
   50.9253  -15.1122   -6.4916 C   0  0  0  0  0  0  0  0  0  0  0  0
   48.0276  -15.9341   -7.1278 C   0  0  0  0  0  0  0  0  0  0  0  0
   52.6821  -20.1861  -10.0934 N   0  0  0  0  0  0  0  0  0  0  0  0
   50.6548  -18.1338   -8.9351 C   0  0  0  0  0  0  0  0  0  0  0  0
   52.1096  -17.2258   -6.4440 C   0  0  0  0  0  0  0  0  0  0  0  0
   48.1451  -18.3464   -7.3554 C   0  0  0  0  0  0  0  0  0  0  0  0
   51.8038  -14.6218   -5.5128 C   0  0  0  0  0  0  0  0  0  0  0  0
   46.7192  -16.0657   -6.6372 C   0  0  0  0  0  0  0  0  0  0  0  0
   52.2861  -18.9389  -10.7458 C   0  0  0  0  0  0  0  0  0  0  0  0
   53.9368  -20.0734   -9.3655 C   0  0  0  0  0  0  0  0  0  0  0  0
   51.8758  -17.7962   -9.8069 C   0  0  0  0  0  0  0  0  0  0  0  0
   52.9657  -16.7298   -5.4586 C   0  0  0  0  0  0  0  0  0  0  0  0
   46.8484  -18.4616   -6.8506 C   0  0  0  0  0  0  0  0  0  0  0  0
   46.1329  -17.3227   -6.4992 C   0  0  0  0  0  0  0  0  0  0  0  0
   52.8202  -15.4259   -5.0005 C   0  0  0  0  0  0  0  0  0  0  0  0
   50.0886  -16.1205   -8.8490 H   0  0  0  0  0  0  0  0  0  0  0  0
   50.1240  -13.1639   -7.0366 H   0  0  0  0  0  0  0  0  0  0  0  0
   47.8795  -13.8002   -7.5244 H   0  0  0  0  0  0  0  0  0  0  0  0
   51.9468  -20.5121   -9.4696 H   0  0  0  0  0  0  0  0  0  0  0  0
   49.8487  -18.4505   -9.6112 H   0  0  0  0  0  0  0  0  0  0  0  0
   50.8703  -18.9921   -8.2898 H   0  0  0  0  0  0  0  0  0  0  0  0
   52.2511  -18.2529   -6.7656 H   0  0  0  0  0  0  0  0  0  0  0  0
   48.6733  -19.2603   -7.6116 H   0  0  0  0  0  0  0  0  0  0  0  0
   51.6865  -13.6129   -5.1239 H   0  0  0  0  0  0  0  0  0  0  0  0
   46.1524  -15.1866   -6.3391 H   0  0  0  0  0  0  0  0  0  0  0  0
   51.4423  -19.1656  -11.4086 H   0  0  0  0  0  0  0  0  0  0  0  0
   53.0945  -18.5947  -11.4027 H   0  0  0  0  0  0  0  0  0  0  0  0
   54.2231  -21.0594   -8.9860 H   0  0  0  0  0  0  0  0  0  0  0  0
   54.7458  -19.7270  -10.0165 H   0  0  0  0  0  0  0  0  0  0  0  0
   53.8544  -19.4018   -8.5063 H   0  0  0  0  0  0  0  0  0  0  0  0
   51.6354  -16.9247  -10.4293 H   0  0  0  0  0  0  0  0  0  0  0  0
   52.7278  -17.5000   -9.1872 H   0  0  0  0  0  0  0  0  0  0  0  0
   53.7453  -17.3660   -5.0474 H   0  0  0  0  0  0  0  0  0  0  0  0
   46.3984  -19.4439   -6.7314 H   0  0  0  0  0  0  0  0  0  0  0  0
   45.1235  -17.4119   -6.1071 H   0  0  0  0  0  0  0  0  0  0  0  0
   53.4857  -15.0390   -4.2336 H   0  0  0  0  0  0  0  0  0  0  0  0
  2  1  1  0
  3  1  1  0
  4  6  1  0
  5  7  1  0
  6  2  2  0
  7  3  2  0
  8 14  1  0
  9  1  1  0
 10  2  1  0
 11  3  1  0
 12  6  1  0
 13  7  1  0
 14 16  1  0
 15  8  1  0
 16  9  1  0
 17 10  2  0
 18 11  2  0
 19 18  1  0
 20 17  1  0
  5  4  2  0
 19 13  2  0
 20 12  2  0
  1 21  1  0
  4 22  1  0
  5 23  1  0
  8 24  1  0
  9 25  1  0
  9 26  1  0
 10 27  1  0
 11 28  1  0
 12 29  1  0
 13 30  1  0
 14 31  1  0
 14 32  1  0
 15 33  1  0
 15 34  1  0
 15 35  1  0
 16 36  1  0
 16 37  1  0
 17 38  1  0
 18 39  1  0
 19 40  1  0
 20 41  1  0
M  END
> <Uni-Dock RESULT> 
ENERGY=   -5.999  LOWER_BOUND=    0.064  UPPER_BOUND=    0.064
INTER + INTRA:          -5.999
INTER:                  -5.999
INTRA:                   0.000
UNBOUND:                 0.000

$$$$

     RDKit          3D

 41 43  0  0  0  0  0  0  0  0999 V2000
   49.1854  -16.7543   -7.5891 C   0  0  0  0  0  0  0  0  0  0  0  0
   48.4023  -17.8985   -6.9411 C   0  0  0  0  0  0  0  0  0  0  0  0
   48.5855  -16.4403   -8.9637 C   0  0  0  0  0  0  0  0  0  0  0  0
   46.3744  -16.3878   -6.7483 C   0  0  0  0  0  0  0  0  0  0  0  0
   46.4690  -15.6092   -7.8402 C   0  0  0  0  0  0  0  0  0  0  0  0
   47.0642  -17.6740   -6.5400 C   0  0  0  0  0  0  0  0  0  0  0  0
   47.2855  -15.8861   -9.0364 C   0  0  0  0  0  0  0  0  0  0  0  0
   53.5209  -17.9596   -6.7211 N   0  0  0  0  0  0  0  0  0  0  0  0
   50.7339  -16.8824   -7.5793 C   0  0  0  0  0  0  0  0  0  0  0  0
   48.9478  -19.1821   -6.7622 C   0  0  0  0  0  0  0  0  0  0  0  0
   49.2724  -16.7046  -10.1622 C   0  0  0  0  0  0  0  0  0  0  0  0
   46.3442  -18.6998   -5.9080 C   0  0  0  0  0  0  0  0  0  0  0  0
   46.7388  -15.5574  -10.2865 C   0  0  0  0  0  0  0  0  0  0  0  0
   52.8650  -16.7832   -6.1521 C   0  0  0  0  0  0  0  0  0  0  0  0
   53.3373  -19.1577   -5.9165 C   0  0  0  0  0  0  0  0  0  0  0  0
   51.3304  -16.8042   -6.1641 C   0  0  0  0  0  0  0  0  0  0  0  0
   48.2136  -20.1981   -6.1466 C   0  0  0  0  0  0  0  0  0  0  0  0
   48.7079  -16.3867  -11.3990 C   0  0  0  0  0  0  0  0  0  0  0  0
   47.4461  -15.8066  -11.4615 C   0  0  0  0  0  0  0  0  0  0  0  0
   46.9168  -19.9548   -5.7103 C   0  0  0  0  0  0  0  0  0  0  0  0
   49.0121  -15.8592   -6.9716 H   0  0  0  0  0  0  0  0  0  0  0  0
   45.7062  -16.0805   -5.9469 H   0  0  0  0  0  0  0  0  0  0  0  0
   45.8745  -14.6992   -7.8819 H   0  0  0  0  0  0  0  0  0  0  0  0
   53.1950  -18.1259   -7.6711 H   0  0  0  0  0  0  0  0  0  0  0  0
   51.1611  -16.0531   -8.1597 H   0  0  0  0  0  0  0  0  0  0  0  0
   51.0523  -17.8037   -8.0788 H   0  0  0  0  0  0  0  0  0  0  0  0
   49.9530  -19.4176   -7.0976 H   0  0  0  0  0  0  0  0  0  0  0  0
   50.2571  -17.1632  -10.1563 H   0  0  0  0  0  0  0  0  0  0  0  0
   45.3188  -18.5342   -5.5851 H   0  0  0  0  0  0  0  0  0  0  0  0
   45.7449  -15.1212  -10.3548 H   0  0  0  0  0  0  0  0  0  0  0  0
   53.2061  -15.9079   -6.7180 H   0  0  0  0  0  0  0  0  0  0  0  0
   53.2167  -16.6270   -5.1248 H   0  0  0  0  0  0  0  0  0  0  0  0
   53.9303  -19.9729   -6.3432 H   0  0  0  0  0  0  0  0  0  0  0  0
   53.6838  -19.0054   -4.8894 H   0  0  0  0  0  0  0  0  0  0  0  0
   52.2938  -19.4847   -5.8988 H   0  0  0  0  0  0  0  0  0  0  0  0
   50.9816  -15.8807   -5.6843 H   0  0  0  0  0  0  0  0  0  0  0  0
   50.9649  -17.6260   -5.5405 H   0  0  0  0  0  0  0  0  0  0  0  0
   48.6566  -21.1814   -6.0114 H   0  0  0  0  0  0  0  0  0  0  0  0
   49.2560  -16.5944  -12.3145 H   0  0  0  0  0  0  0  0  0  0  0  0
   47.0068  -15.5583  -12.4238 H   0  0  0  0  0  0  0  0  0  0  0  0
   46.3446  -20.7446   -5.2314 H   0  0  0  0  0  0  0  0  0  0  0  0
  2  1  1  0
  3  1  1  0
  4  6  1  0
  5  7  1  0
  6  2  2  0
  7  3  2  0
  8 14  1  0
  9  1  1  0
 10  2  1  0
 11  3  1  0
 12  6  1  0
 13  7  1  0
 14 16  1  0
 15  8  1  0
 16  9  1  0
 17 10  2  0
 18 11  2  0
 19 18  1  0
 20 17  1  0
  5  4  2  0
 19 13  2  0
 20 12  2  0
  1 21  1  0
  4 22  1  0
  5 23  1  0
  8 24  1  0
  9 25  1  0
  9 26  1  0
 10 27  1  0
 11 28  1  0
 12 29  1  0
 13 30  1  0
 14 31  1  0
 14 32  1  0
 15 33  1  0
 15 34  1  0
 15 35  1  0
 16 36  1  0
 16 37  1  0
 17 38  1  0
 18 39  1  0
 19 40  1  0
 20 41  1  0
M  END
> <Uni-Dock RESULT> 
ENERGY=   -5.313  LOWER_BOUND=    2.173  UPPER_BOUND=    4.304
INTER + INTRA:          -5.313
INTER:                  -5.313
INTRA:                   0.000
UNBOUND:                 0.000

$$$$

     RDKit          3D

 41 43  0  0  0  0  0  0  0  0999 V2000
   49.5484  -17.2061   -7.9229 C   0  0  0  0  0  0  0  0  0  0  0  0
   48.4473  -17.9291   -7.1437 C   0  0  0  0  0  0  0  0  0  0  0  0
   50.5112  -16.5331   -6.9390 C   0  0  0  0  0  0  0  0  0  0  0  0
   50.1663  -19.5684   -6.2554 C   0  0  0  0  0  0  0  0  0  0  0  0
   51.2739  -18.8155   -6.1380 C   0  0  0  0  0  0  0  0  0  0  0  0
   48.7856  -19.0649   -6.3707 C   0  0  0  0  0  0  0  0  0  0  0  0
   51.3235  -17.3420   -6.1094 C   0  0  0  0  0  0  0  0  0  0  0  0
   47.1608  -15.1370  -11.2426 N   0  0  0  0  0  0  0  0  0  0  0  0
   49.0844  -16.2936   -9.0918 C   0  0  0  0  0  0  0  0  0  0  0  0
   47.1127  -17.4862   -7.1330 C   0  0  0  0  0  0  0  0  0  0  0  0
   50.6018  -15.1353   -6.8126 C   0  0  0  0  0  0  0  0  0  0  0  0
   47.7820  -19.7638   -5.6820 C   0  0  0  0  0  0  0  0  0  0  0  0
   52.2377  -16.7396   -5.2313 C   0  0  0  0  0  0  0  0  0  0  0  0
   48.1257  -16.2116  -11.4713 C   0  0  0  0  0  0  0  0  0  0  0  0
   45.8151  -15.6265  -10.9855 C   0  0  0  0  0  0  0  0  0  0  0  0
   48.4548  -17.0830  -10.2517 C   0  0  0  0  0  0  0  0  0  0  0  0
   46.1276  -18.1823   -6.4295 C   0  0  0  0  0  0  0  0  0  0  0  0
   51.5051  -14.5514   -5.9223 C   0  0  0  0  0  0  0  0  0  0  0  0
   52.3278  -15.3518   -5.1381 C   0  0  0  0  0  0  0  0  0  0  0  0
   46.4593  -19.3260   -5.7130 C   0  0  0  0  0  0  0  0  0  0  0  0
   50.1360  -17.9815   -8.4388 H   0  0  0  0  0  0  0  0  0  0  0  0
   50.2685  -20.6511   -6.2289 H   0  0  0  0  0  0  0  0  0  0  0  0
   52.2324  -19.3165   -6.0220 H   0  0  0  0  0  0  0  0  0  0  0  0
   47.4656  -14.5403  -10.4764 H   0  0  0  0  0  0  0  0  0  0  0  0
   49.9582  -15.7631   -9.4946 H   0  0  0  0  0  0  0  0  0  0  0  0
   48.3940  -15.5222   -8.7342 H   0  0  0  0  0  0  0  0  0  0  0  0
   46.8128  -16.5921   -7.6707 H   0  0  0  0  0  0  0  0  0  0  0  0
   49.9717  -14.4756   -7.4023 H   0  0  0  0  0  0  0  0  0  0  0  0
   48.0293  -20.6450   -5.0943 H   0  0  0  0  0  0  0  0  0  0  0  0
   52.8749  -17.3507   -4.5962 H   0  0  0  0  0  0  0  0  0  0  0  0
   49.0537  -15.7518  -11.8320 H   0  0  0  0  0  0  0  0  0  0  0  0
   47.7752  -16.8524  -12.2899 H   0  0  0  0  0  0  0  0  0  0  0  0
   45.1286  -14.7765  -10.9207 H   0  0  0  0  0  0  0  0  0  0  0  0
   45.4624  -16.2693  -11.7983 H   0  0  0  0  0  0  0  0  0  0  0  0
   45.7506  -16.1738  -10.0408 H   0  0  0  0  0  0  0  0  0  0  0  0
   49.1619  -17.8569  -10.5771 H   0  0  0  0  0  0  0  0  0  0  0  0
   47.5567  -17.6136   -9.9204 H   0  0  0  0  0  0  0  0  0  0  0  0
   45.1005  -17.8271   -6.4402 H   0  0  0  0  0  0  0  0  0  0  0  0
   51.5640  -13.4689   -5.8419 H   0  0  0  0  0  0  0  0  0  0  0  0
   53.0315  -14.8977   -4.4457 H   0  0  0  0  0  0  0  0  0  0  0  0
   45.6937  -19.8683   -5.1650 H   0  0  0  0  0  0  0  0  0  0  0  0
  2  1  1  0
  3  1  1  0
  4  6  1  0
  5  7  1  0
  6  2  2  0
  7  3  2  0
  8 14  1  0
  9  1  1  0
 10  2  1  0
 11  3  1  0
 12  6  1  0
 13  7  1  0
 14 16  1  0
 15  8  1  0
 16  9  1  0
 17 10  2  0
 18 11  2  0
 19 18  1  0
 20 17  1  0
  5  4  2  0
 19 13  2  0
 20 12  2  0
  1 21  1  0
  4 22  1  0
  5 23  1  0
  8 24  1  0
  9 25  1  0
  9 26  1  0
 10 27  1  0
 11 28  1  0
 12 29  1  0
 13 30  1  0
 14 31  1  0
 14 32  1  0
 15 33  1  0
 15 34  1  0
 15 35  1  0
 16 36  1  0
 16 37  1  0
 17 38  1  0
 18 39  1  0
 19 40  1  0
 20 41  1  0
M  END
> <Uni-Dock RESULT> 
ENERGY=   -5.235  LOWER_BOUND=    2.525  UPPER_BOUND=    5.492
INTER + INTRA:          -5.235
INTER:                  -5.235
INTRA:                   0.000
UNBOUND:                 0.000

$$$$

     RDKit          3D

 41 43  0  0  0  0  0  0  0  0999 V2000
   49.9724  -18.1398   -7.7362 C   0  0  0  0  0  0  0  0  0  0  0  0
   48.5580  -18.2754   -7.1675 C   0  0  0  0  0  0  0  0  0  0  0  0
   50.9218  -17.6612   -6.6328 C   0  0  0  0  0  0  0  0  0  0  0  0
   49.3386  -20.2000   -5.7121 C   0  0  0  0  0  0  0  0  0  0  0  0
   50.6071  -19.8654   -5.4183 C   0  0  0  0  0  0  0  0  0  0  0  0
   48.2959  -19.2856   -6.2121 C   0  0  0  0  0  0  0  0  0  0  0  0
   51.2031  -18.5228   -5.5460 C   0  0  0  0  0  0  0  0  0  0  0  0
   49.1891  -16.0617  -11.7449 N   0  0  0  0  0  0  0  0  0  0  0  0
   50.1081  -17.3683   -9.0781 C   0  0  0  0  0  0  0  0  0  0  0  0
   47.5115  -17.4081   -7.5280 C   0  0  0  0  0  0  0  0  0  0  0  0
   51.5088  -16.3832   -6.6477 C   0  0  0  0  0  0  0  0  0  0  0  0
   46.9956  -19.4499   -5.7098 C   0  0  0  0  0  0  0  0  0  0  0  0
   52.1010  -18.1129   -4.5482 C   0  0  0  0  0  0  0  0  0  0  0  0
   49.7011  -17.4248  -11.6117 C   0  0  0  0  0  0  0  0  0  0  0  0
   47.7357  -15.9998  -11.7647 C   0  0  0  0  0  0  0  0  0  0  0  0
   49.4493  -18.1024  -10.2579 C   0  0  0  0  0  0  0  0  0  0  0  0
   46.2264  -17.5734   -7.0074 C   0  0  0  0  0  0  0  0  0  0  0  0
   52.3875  -15.9842   -5.6387 C   0  0  0  0  0  0  0  0  0  0  0  0
   52.6898  -16.8503   -4.5942 C   0  0  0  0  0  0  0  0  0  0  0  0
   45.9655  -18.5995   -6.1072 C   0  0  0  0  0  0  0  0  0  0  0  0
   50.3070  -19.1541   -8.0044 H   0  0  0  0  0  0  0  0  0  0  0  0
   49.0179  -21.2250   -5.5392 H   0  0  0  0  0  0  0  0  0  0  0  0
   51.2672  -20.6325   -5.0193 H   0  0  0  0  0  0  0  0  0  0  0  0
   49.5518  -15.4695  -11.0007 H   0  0  0  0  0  0  0  0  0  0  0  0
   51.1750  -17.2589   -9.3167 H   0  0  0  0  0  0  0  0  0  0  0  0
   49.7074  -16.3531   -8.9867 H   0  0  0  0  0  0  0  0  0  0  0  0
   47.6744  -16.5876   -8.2198 H   0  0  0  0  0  0  0  0  0  0  0  0
   51.2929  -15.6748   -7.4425 H   0  0  0  0  0  0  0  0  0  0  0  0
   46.7807  -20.2308   -4.9838 H   0  0  0  0  0  0  0  0  0  0  0  0
   52.3334  -18.7703   -3.7135 H   0  0  0  0  0  0  0  0  0  0  0  0
   50.7829  -17.3907  -11.7887 H   0  0  0  0  0  0  0  0  0  0  0  0
   49.2898  -18.0520  -12.4123 H   0  0  0  0  0  0  0  0  0  0  0  0
   47.4214  -14.9704  -11.9637 H   0  0  0  0  0  0  0  0  0  0  0  0
   47.3205  -16.6270  -12.5601 H   0  0  0  0  0  0  0  0  0  0  0  0
   47.2987  -16.2977  -10.8074 H   0  0  0  0  0  0  0  0  0  0  0  0
   49.8584  -19.1194  -10.3140 H   0  0  0  0  0  0  0  0  0  0  0  0
   48.3733  -18.2175  -10.0941 H   0  0  0  0  0  0  0  0  0  0  0  0
   45.4297  -16.8964   -7.3047 H   0  0  0  0  0  0  0  0  0  0  0  0
   52.8349  -14.9940   -5.6699 H   0  0  0  0  0  0  0  0  0  0  0  0
   53.3742  -16.5404   -3.8092 H   0  0  0  0  0  0  0  0  0  0  0  0
   44.9660  -18.7289   -5.7012 H   0  0  0  0  0  0  0  0  0  0  0  0
  2  1  1  0
  3  1  1  0
  4  6  1  0
  5  7  1  0
  6  2  2  0
  7  3  2  0
  8 14  1  0
  9  1  1  0
 10  2  1  0
 11  3  1  0
 12  6  1  0
 13  7  1  0
 14 16  1  0
 15  8  1  0
 16  9  1  0
 17 10  2  0
 18 11  2  0
 19 18  1  0
 20 17  1  0
  5  4  2  0
 19 13  2  0
 20 12  2  0
  1 21  1  0
  4 22  1  0
  5 23  1  0
  8 24  1  0
  9 25  1  0
  9 26  1  0
 10 27  1  0
 11 28  1  0
 12 29  1  0
 13 30  1  0
 14 31  1  0
 14 32  1  0
 15 33  1  0
 15 34  1  0
 15 35  1  0
 16 36  1  0
 16 37  1  0
 17 38  1  0
 18 39  1  0
 19 40  1  0
 20 41  1  0
M  END
> <Uni-Dock RESULT> 
ENERGY=   -4.528  LOWER_BOUND=    2.279  UPPER_BOUND=    5.293
INTER + INTRA:          -4.528
INTER:                  -4.528
INTRA:                   0.000
UNBOUND:                 0.000

$$$$

     RDKit          3D

 41 43  0  0  0  0  0  0  0  0999 V2000
   45.9581  -17.1940  -10.3565 C   0  0  0  0  0  0  0  0  0  0  0  0
   46.6098  -16.5796   -9.1154 C   0  0  0  0  0  0  0  0  0  0  0  0
   45.8763  -16.1389  -11.4645 C   0  0  0  0  0  0  0  0  0  0  0  0
   48.8013  -16.3827  -10.3763 C   0  0  0  0  0  0  0  0  0  0  0  0
   48.4066  -16.1378  -11.6379 C   0  0  0  0  0  0  0  0  0  0  0  0
   47.9774  -16.2203   -9.1647 C   0  0  0  0  0  0  0  0  0  0  0  0
   47.0728  -15.6674  -12.0549 C   0  0  0  0  0  0  0  0  0  0  0  0
   42.4467  -19.5098   -8.5371 N   0  0  0  0  0  0  0  0  0  0  0  0
   44.6411  -17.9860  -10.1266 C   0  0  0  0  0  0  0  0  0  0  0  0
   45.8922  -16.3200   -7.9343 C   0  0  0  0  0  0  0  0  0  0  0  0
   44.6525  -15.6021  -11.9031 C   0  0  0  0  0  0  0  0  0  0  0  0
   48.6014  -15.6927   -8.0234 C   0  0  0  0  0  0  0  0  0  0  0  0
   47.0112  -14.7299  -13.0975 C   0  0  0  0  0  0  0  0  0  0  0  0
   43.5892  -20.1363   -9.2006 C   0  0  0  0  0  0  0  0  0  0  0  0
   42.6615  -19.2986   -7.1138 C   0  0  0  0  0  0  0  0  0  0  0  0
   44.8527  -19.2721   -9.3106 C   0  0  0  0  0  0  0  0  0  0  0  0
   46.5226  -15.7791   -6.8118 C   0  0  0  0  0  0  0  0  0  0  0  0
   44.6092  -14.6577  -12.9306 C   0  0  0  0  0  0  0  0  0  0  0  0
   45.7860  -14.2276  -13.5328 C   0  0  0  0  0  0  0  0  0  0  0  0
   47.8781  -15.4753   -6.8522 C   0  0  0  0  0  0  0  0  0  0  0  0
   46.6462  -17.9696  -10.7273 H   0  0  0  0  0  0  0  0  0  0  0  0
   49.8290  -16.6953  -10.2046 H   0  0  0  0  0  0  0  0  0  0  0  0
   49.1292  -16.2625  -12.4415 H   0  0  0  0  0  0  0  0  0  0  0  0
   42.2117  -18.6277   -8.9875 H   0  0  0  0  0  0  0  0  0  0  0  0
   44.2318  -18.2822  -11.1022 H   0  0  0  0  0  0  0  0  0  0  0  0
   43.8826  -17.3528   -9.6540 H   0  0  0  0  0  0  0  0  0  0  0  0
   44.8300  -16.5327   -7.8636 H   0  0  0  0  0  0  0  0  0  0  0  0
   43.7118  -15.9070  -11.4537 H   0  0  0  0  0  0  0  0  0  0  0  0
   49.6551  -15.4240   -8.0469 H   0  0  0  0  0  0  0  0  0  0  0  0
   47.9233  -14.3678  -13.5664 H   0  0  0  0  0  0  0  0  0  0  0  0
   43.2709  -20.4187  -10.2113 H   0  0  0  0  0  0  0  0  0  0  0  0
   43.8375  -21.0775   -8.6946 H   0  0  0  0  0  0  0  0  0  0  0  0
   41.7391  -18.9199   -6.6624 H   0  0  0  0  0  0  0  0  0  0  0  0
   42.9129  -20.2348   -6.6052 H   0  0  0  0  0  0  0  0  0  0  0  0
   43.4477  -18.5630   -6.9216 H   0  0  0  0  0  0  0  0  0  0  0  0
   45.6276  -19.8768   -9.7989 H   0  0  0  0  0  0  0  0  0  0  0  0
   45.2338  -19.0417   -8.3108 H   0  0  0  0  0  0  0  0  0  0  0  0
   45.9512  -15.5929   -5.9062 H   0  0  0  0  0  0  0  0  0  0  0  0
   43.6533  -14.2576  -13.2592 H   0  0  0  0  0  0  0  0  0  0  0  0
   45.7526  -13.4932  -14.3331 H   0  0  0  0  0  0  0  0  0  0  0  0
   48.3696  -15.0541   -5.9795 H   0  0  0  0  0  0  0  0  0  0  0  0
  2  1  1  0
  3  1  1  0
  4  6  1  0
  5  7  1  0
  6  2  2  0
  7  3  2  0
  8 14  1  0
  9  1  1  0
 10  2  1  0
 11  3  1  0
 12  6  1  0
 13  7  1  0
 14 16  1  0
 15  8  1  0
 16  9  1  0
 17 10  2  0
 18 11  2  0
 19 18  1  0
 20 17  1  0
  5  4  2  0
 19 13  2  0
 20 12  2  0
  1 21  1  0
  4 22  1  0
  5 23  1  0
  8 24  1  0
  9 25  1  0
  9 26  1  0
 10 27  1  0
 11 28  1  0
 12 29  1  0
 13 30  1  0
 14 31  1  0
 14 32  1  0
 15 33  1  0
 15 34  1  0
 15 35  1  0
 16 36  1  0
 16 37  1  0
 17 38  1  0
 18 39  1  0
 19 40  1  0
 20 41  1  0
M  END
> <Uni-Dock RESULT> 
ENERGY=   -4.490  LOWER_BOUND=    4.668  UPPER_BOUND=    6.719
INTER + INTRA:          -4.490
INTER:                  -4.490
INTRA:                   0.000
UNBOUND:                 0.000

$$$$

     RDKit          3D

 41 43  0  0  0  0  0  0  0  0999 V2000
   49.4092  -18.9314   -7.5587 C   0  0  0  0  0  0  0  0  0  0  0  0
   48.4112  -17.7853   -7.3773 C   0  0  0  0  0  0  0  0  0  0  0  0
   50.0440  -19.2733   -6.2067 C   0  0  0  0  0  0  0  0  0  0  0  0
   46.9201  -19.3139   -6.0092 C   0  0  0  0  0  0  0  0  0  0  0  0
   47.7988  -20.1086   -5.3738 C   0  0  0  0  0  0  0  0  0  0  0  0
   47.2254  -18.0175   -6.6411 C   0  0  0  0  0  0  0  0  0  0  0  0
   49.2377  -19.8421   -5.1925 C   0  0  0  0  0  0  0  0  0  0  0  0
   51.6253  -17.6671  -11.3657 N   0  0  0  0  0  0  0  0  0  0  0  0
   50.4247  -18.7868   -8.7259 C   0  0  0  0  0  0  0  0  0  0  0  0
   48.6432  -16.4934   -7.8816 C   0  0  0  0  0  0  0  0  0  0  0  0
   51.3990  -19.0207   -5.9267 C   0  0  0  0  0  0  0  0  0  0  0  0
   46.2804  -16.9894   -6.4988 C   0  0  0  0  0  0  0  0  0  0  0  0
   49.8141  -20.1962   -3.9628 C   0  0  0  0  0  0  0  0  0  0  0  0
   50.7591  -18.8412  -11.2701 C   0  0  0  0  0  0  0  0  0  0  0  0
   50.9057  -16.4585  -11.7369 C   0  0  0  0  0  0  0  0  0  0  0  0
   49.7551  -18.8365  -10.1093 C   0  0  0  0  0  0  0  0  0  0  0  0
   47.7012  -15.4756   -7.7179 C   0  0  0  0  0  0  0  0  0  0  0  0
   51.9537  -19.3640   -4.6923 C   0  0  0  0  0  0  0  0  0  0  0  0
   51.1648  -19.9582   -3.7140 C   0  0  0  0  0  0  0  0  0  0  0  0
   46.5162  -15.7255   -7.0364 C   0  0  0  0  0  0  0  0  0  0  0  0
   48.8265  -19.8184   -7.8524 H   0  0  0  0  0  0  0  0  0  0  0  0
   45.8755  -19.6155   -6.0418 H   0  0  0  0  0  0  0  0  0  0  0  0
   47.4332  -21.0254   -4.9164 H   0  0  0  0  0  0  0  0  0  0  0  0
   52.1245  -17.5193  -10.4910 H   0  0  0  0  0  0  0  0  0  0  0  0
   51.1385  -19.6208   -8.6788 H   0  0  0  0  0  0  0  0  0  0  0  0
   51.0146  -17.8703   -8.6185 H   0  0  0  0  0  0  0  0  0  0  0  0
   49.5599  -16.2527   -8.4109 H   0  0  0  0  0  0  0  0  0  0  0  0
   52.0469  -18.5519   -6.6618 H   0  0  0  0  0  0  0  0  0  0  0  0
   45.3602  -17.1606   -5.9448 H   0  0  0  0  0  0  0  0  0  0  0  0
   49.2071  -20.6438   -3.1792 H   0  0  0  0  0  0  0  0  0  0  0  0
   51.4050  -19.7217  -11.1689 H   0  0  0  0  0  0  0  0  0  0  0  0
   50.2188  -18.9775  -12.2152 H   0  0  0  0  0  0  0  0  0  0  0  0
   51.6217  -15.6440  -11.8857 H   0  0  0  0  0  0  0  0  0  0  0  0
   50.3622  -16.5909  -12.6779 H   0  0  0  0  0  0  0  0  0  0  0  0
   50.2051  -16.1421  -10.9589 H   0  0  0  0  0  0  0  0  0  0  0  0
   49.1599  -19.7559  -10.1809 H   0  0  0  0  0  0  0  0  0  0  0  0
   49.0495  -18.0088  -10.2313 H   0  0  0  0  0  0  0  0  0  0  0  0
   47.8970  -14.4857   -8.1219 H   0  0  0  0  0  0  0  0  0  0  0  0
   53.0042  -19.1651   -4.4959 H   0  0  0  0  0  0  0  0  0  0  0  0
   51.5964  -20.2263   -2.7535 H   0  0  0  0  0  0  0  0  0  0  0  0
   45.7827  -14.9342   -6.9082 H   0  0  0  0  0  0  0  0  0  0  0  0
  2  1  1  0
  3  1  1  0
  4  6  1  0
  5  7  1  0
  6  2  2  0
  7  3  2  0
  8 14  1  0
  9  1  1  0
 10  2  1  0
 11  3  1  0
 12  6  1  0
 13  7  1  0
 14 16  1  0
 15  8  1  0
 16  9  1  0
 17 10  2  0
 18 11  2  0
 19 18  1  0
 20 17  1  0
  5  4  2  0
 19 13  2  0
 20 12  2  0
  1 21  1  0
  4 22  1  0
  5 23  1  0
  8 24  1  0
  9 25  1  0
  9 26  1  0
 10 27  1  0
 11 28  1  0
 12 29  1  0
 13 30  1  0
 14 31  1  0
 14 32  1  0
 15 33  1  0
 15 34  1  0
 15 35  1  0
 16 36  1  0
 16 37  1  0
 17 38  1  0
 18 39  1  0
 19 40  1  0
 20 41  1  0
M  END
> <Uni-Dock RESULT> 
ENERGY=   -4.480  LOWER_BOUND=    2.340  UPPER_BOUND=    4.630
INTER + INTRA:          -4.480
INTER:                  -4.480
INTRA:                   0.000
UNBOUND:                 0.000

$$$$

     RDKit          3D

 41 43  0  0  0  0  0  0  0  0999 V2000
   49.7582  -18.2176   -8.4119 C   0  0  0  0  0  0  0  0  0  0  0  0
   48.5216  -17.4415   -7.9524 C   0  0  0  0  0  0  0  0  0  0  0  0
   50.8345  -18.1525   -7.3233 C   0  0  0  0  0  0  0  0  0  0  0  0
   48.1205  -19.1724   -6.1427 C   0  0  0  0  0  0  0  0  0  0  0  0
   49.3646  -19.5486   -5.7992 C   0  0  0  0  0  0  0  0  0  0  0  0
   47.7583  -17.9435   -6.8720 C   0  0  0  0  0  0  0  0  0  0  0  0
   50.6071  -18.8103   -6.0912 C   0  0  0  0  0  0  0  0  0  0  0  0
   50.1923  -16.8261  -12.7568 N   0  0  0  0  0  0  0  0  0  0  0  0
   50.2756  -17.9102   -9.8445 C   0  0  0  0  0  0  0  0  0  0  0  0
   48.1326  -16.2234   -8.5373 C   0  0  0  0  0  0  0  0  0  0  0  0
   52.0356  -17.4412   -7.4947 C   0  0  0  0  0  0  0  0  0  0  0  0
   46.5988  -17.2661   -6.4634 C   0  0  0  0  0  0  0  0  0  0  0  0
   51.6002  -18.7919   -5.0996 C   0  0  0  0  0  0  0  0  0  0  0  0
   49.8566  -18.1930  -12.3609 C   0  0  0  0  0  0  0  0  0  0  0  0
   49.0223  -15.9753  -12.9111 C   0  0  0  0  0  0  0  0  0  0  0  0
   49.2956  -18.3576  -10.9419 C   0  0  0  0  0  0  0  0  0  0  0  0
   46.9856  -15.5519   -8.1091 C   0  0  0  0  0  0  0  0  0  0  0  0
   53.0070  -17.4190   -6.4920 C   0  0  0  0  0  0  0  0  0  0  0  0
   52.7936  -18.0998   -5.2989 C   0  0  0  0  0  0  0  0  0  0  0  0
   46.2132  -16.0775   -7.0803 C   0  0  0  0  0  0  0  0  0  0  0  0
   49.4626  -19.2760   -8.4825 H   0  0  0  0  0  0  0  0  0  0  0  0
   47.2847  -19.7965   -5.8342 H   0  0  0  0  0  0  0  0  0  0  0  0
   49.4903  -20.4646   -5.2260 H   0  0  0  0  0  0  0  0  0  0  0  0
   50.8390  -16.4097  -12.0900 H   0  0  0  0  0  0  0  0  0  0  0  0
   51.2162  -18.4550  -10.0051 H   0  0  0  0  0  0  0  0  0  0  0  0
   50.5134  -16.8467   -9.9536 H   0  0  0  0  0  0  0  0  0  0  0  0
   48.7130  -15.7727   -9.3364 H   0  0  0  0  0  0  0  0  0  0  0  0
   52.2373  -16.8909   -8.4093 H   0  0  0  0  0  0  0  0  0  0  0  0
   45.9983  -17.6496   -5.6416 H   0  0  0  0  0  0  0  0  0  0  0  0
   51.4416  -19.3026   -4.1526 H   0  0  0  0  0  0  0  0  0  0  0  0
   50.7685  -18.7961  -12.4475 H   0  0  0  0  0  0  0  0  0  0  0  0
   49.1489  -18.6213  -13.0816 H   0  0  0  0  0  0  0  0  0  0  0  0
   49.3339  -15.0010  -13.3005 H   0  0  0  0  0  0  0  0  0  0  0  0
   48.3116  -16.4005  -13.6270 H   0  0  0  0  0  0  0  0  0  0  0  0
   48.5126  -15.8011  -11.9593 H   0  0  0  0  0  0  0  0  0  0  0  0
   49.0645  -19.4208  -10.7971 H   0  0  0  0  0  0  0  0  0  0  0  0
   48.3429  -17.8261  -10.8546 H   0  0  0  0  0  0  0  0  0  0  0  0
   46.6984  -14.6151   -8.5796 H   0  0  0  0  0  0  0  0  0  0  0  0
   53.9311  -16.8674   -6.6446 H   0  0  0  0  0  0  0  0  0  0  0  0
   53.5496  -18.0834   -4.5186 H   0  0  0  0  0  0  0  0  0  0  0  0
   45.3207  -15.5557   -6.7461 H   0  0  0  0  0  0  0  0  0  0  0  0
  2  1  1  0
  3  1  1  0
  4  6  1  0
  5  7  1  0
  6  2  2  0
  7  3  2  0
  8 14  1  0
  9  1  1  0
 10  2  1  0
 11  3  1  0
 12  6  1  0
 13  7  1  0
 14 16  1  0
 15  8  1  0
 16  9  1  0
 17 10  2  0
 18 11  2  0
 19 18  1  0
 20 17  1  0
  5  4  2  0
 19 13  2  0
 20 12  2  0
  1 21  1  0
  4 22  1  0
  5 23  1  0
  8 24  1  0
  9 25  1  0
  9 26  1  0
 10 27  1  0
 11 28  1  0
 12 29  1  0
 13 30  1  0
 14 31  1  0
 14 32  1  0
 15 33  1  0
 15 34  1  0
 15 35  1  0
 16 36  1  0
 16 37  1  0
 17 38  1  0
 18 39  1  0
 19 40  1  0
 20 41  1  0
M  END
> <Uni-Dock RESULT> 
ENERGY=   -4.245  LOWER_BOUND=    2.224  UPPER_BOUND=    4.938
INTER + INTRA:          -4.245
INTER:                  -4.245
INTRA:                   0.000
UNBOUND:                 0.000

$$$$

     RDKit          3D

 41 43  0  0  0  0  0  0  0  0999 V2000
   47.1903  -17.1407  -10.6903 C   0  0  0  0  0  0  0  0  0  0  0  0
   45.9499  -16.7275  -11.4860 C   0  0  0  0  0  0  0  0  0  0  0  0
   47.0165  -16.7281   -9.2249 C   0  0  0  0  0  0  0  0  0  0  0  0
   44.5719  -18.4235  -10.1990 C   0  0  0  0  0  0  0  0  0  0  0  0
   45.1408  -18.4177   -8.9809 C   0  0  0  0  0  0  0  0  0  0  0  0
   44.7206  -17.3790  -11.2287 C   0  0  0  0  0  0  0  0  0  0  0  0
   46.0286  -17.3710   -8.4419 C   0  0  0  0  0  0  0  0  0  0  0  0
   50.5847  -15.8670  -13.4936 N   0  0  0  0  0  0  0  0  0  0  0  0
   48.5657  -16.7600  -11.3050 C   0  0  0  0  0  0  0  0  0  0  0  0
   45.9727  -15.6949  -12.4402 C   0  0  0  0  0  0  0  0  0  0  0  0
   47.7901  -15.7140   -8.6323 C   0  0  0  0  0  0  0  0  0  0  0  0
   43.5821  -17.0407  -11.9768 C   0  0  0  0  0  0  0  0  0  0  0  0
   45.8844  -17.0308   -7.0879 C   0  0  0  0  0  0  0  0  0  0  0  0
   50.2772  -17.2552  -13.1525 C   0  0  0  0  0  0  0  0  0  0  0  0
   49.8454  -15.3892  -14.6520 C   0  0  0  0  0  0  0  0  0  0  0  0
   48.8636  -17.5120  -12.6128 C   0  0  0  0  0  0  0  0  0  0  0  0
   44.8279  -15.3578  -13.1653 C   0  0  0  0  0  0  0  0  0  0  0  0
   47.6233  -15.3758   -7.2879 C   0  0  0  0  0  0  0  0  0  0  0  0
   46.6774  -16.0384   -6.5141 C   0  0  0  0  0  0  0  0  0  0  0  0
   43.6360  -16.0367  -12.9417 C   0  0  0  0  0  0  0  0  0  0  0  0
   47.2193  -18.2414  -10.6935 H   0  0  0  0  0  0  0  0  0  0  0  0
   43.9079  -19.2450  -10.4588 H   0  0  0  0  0  0  0  0  0  0  0  0
   44.9173  -19.2358   -8.2997 H   0  0  0  0  0  0  0  0  0  0  0  0
   50.4138  -15.2571  -12.6968 H   0  0  0  0  0  0  0  0  0  0  0  0
   49.3574  -17.0227  -10.5899 H   0  0  0  0  0  0  0  0  0  0  0  0
   48.6376  -15.6782  -11.4602 H   0  0  0  0  0  0  0  0  0  0  0  0
   46.8798  -15.1324  -12.6384 H   0  0  0  0  0  0  0  0  0  0  0  0
   48.5347  -15.1680   -9.2046 H   0  0  0  0  0  0  0  0  0  0  0  0
   42.6349  -17.5435  -11.7951 H   0  0  0  0  0  0  0  0  0  0  0  0
   45.1359  -17.5253   -6.4731 H   0  0  0  0  0  0  0  0  0  0  0  0
   51.0031  -17.5788  -12.3967 H   0  0  0  0  0  0  0  0  0  0  0  0
   50.4532  -17.8960  -14.0253 H   0  0  0  0  0  0  0  0  0  0  0  0
   50.1918  -14.3838  -14.9111 H   0  0  0  0  0  0  0  0  0  0  0  0
   50.0153  -16.0277  -15.5248 H   0  0  0  0  0  0  0  0  0  0  0  0
   48.7711  -15.3265  -14.4565 H   0  0  0  0  0  0  0  0  0  0  0  0
   48.7683  -18.5900  -12.4301 H   0  0  0  0  0  0  0  0  0  0  0  0
   48.1226  -17.2684  -13.3806 H   0  0  0  0  0  0  0  0  0  0  0  0
   44.8688  -14.5611  -13.9035 H   0  0  0  0  0  0  0  0  0  0  0  0
   48.2338  -14.5922   -6.8463 H   0  0  0  0  0  0  0  0  0  0  0  0
   46.5479  -15.7761   -5.4676 H   0  0  0  0  0  0  0  0  0  0  0  0
   42.7446  -15.7751  -13.5052 H   0  0  0  0  0  0  0  0  0  0  0  0
  2  1  1  0
  3  1  1  0
  4  6  1  0
  5  7  1  0
  6  2  2  0
  7  3  2  0
  8 14  1  0
  9  1  1  0
 10  2  1  0
 11  3  1  0
 12  6  1  0
 13  7  1  0
 14 16  1  0
 15  8  1  0
 16  9  1  0
 17 10  2  0
 18 11  2  0
 19 18  1  0
 20 17  1  0
  5  4  2  0
 19 13  2  0
 20 12  2  0
  1 21  1  0
  4 22  1  0
  5 23  1  0
  8 24  1  0
  9 25  1  0
  9 26  1  0
 10 27  1  0
 11 28  1  0
 12 29  1  0
 13 30  1  0
 14 31  1  0
 14 32  1  0
 15 33  1  0
 15 34  1  0
 15 35  1  0
 16 36  1  0
 16 37  1  0
 17 38  1  0
 18 39  1  0
 19 40  1  0
 20 41  1  0
M  END
> <Uni-Dock RESULT> 
ENERGY=   -4.174  LOWER_BOUND=    4.337  UPPER_BOUND=    6.578
INTER + INTRA:          -4.174
INTER:                  -4.174
INTRA:                   0.000
UNBOUND:                 0.000

$$$$
