
     RDKit          3D

 41 43  0  0  0  0  0  0  0  0999 V2000
   50.1800  -17.3836   -7.7981 C   0  0  0  0  0  0  0  0  0  0  0  0
   48.7428  -17.4379   -7.2643 C   0  0  0  0  0  0  0  0  0  0  0  0
   51.0697  -16.6697   -6.7764 C   0  0  0  0  0  0  0  0  0  0  0  0
   48.5807  -14.9147   -7.4776 C   0  0  0  0  0  0  0  0  0  0  0  0
   49.8360  -14.5017   -7.2302 C   0  0  0  0  0  0  0  0  0  0  0  0
   48.0138  -16.2317   -7.1308 C   0  0  0  0  0  0  0  0  0  0  0  0
   50.8833  -15.2855   -6.5510 C   0  0  0  0  0  0  0  0  0  0  0  0
   50.9490  -17.9199  -11.2919 N   0  0  0  0  0  0  0  0  0  0  0  0
   50.7148  -18.7329   -8.3518 C   0  0  0  0  0  0  0  0  0  0  0  0
   48.1259  -18.6425   -6.8826 C   0  0  0  0  0  0  0  0  0  0  0  0
   52.0384  -17.3458   -6.0139 C   0  0  0  0  0  0  0  0  0  0  0  0
   46.6861  -16.2682   -6.6776 C   0  0  0  0  0  0  0  0  0  0  0  0
   51.7172  -14.6067   -5.6485 C   0  0  0  0  0  0  0  0  0  0  0  0
   52.0400  -17.7007  -10.3412 C   0  0  0  0  0  0  0  0  0  0  0  0
   51.0995  -19.1602  -12.0419 C   0  0  0  0  0  0  0  0  0  0  0  0
   52.0360  -18.6550   -9.1409 C   0  0  0  0  0  0  0  0  0  0  0  0
   46.8090  -18.6600   -6.4185 C   0  0  0  0  0  0  0  0  0  0  0  0
   52.8496  -16.6609   -5.1068 C   0  0  0  0  0  0  0  0  0  0  0  0
   52.6978  -15.2905   -4.9325 C   0  0  0  0  0  0  0  0  0  0  0  0
   46.0872  -17.4758   -6.3223 C   0  0  0  0  0  0  0  0  0  0  0  0
   50.1336  -16.7428   -8.6890 H   0  0  0  0  0  0  0  0  0  0  0  0
   47.8910  -14.2230   -7.9559 H   0  0  0  0  0  0  0  0  0  0  0  0
   50.1169  -13.4902   -7.5139 H   0  0  0  0  0  0  0  0  0  0  0  0
   50.9302  -17.1416  -11.9515 H   0  0  0  0  0  0  0  0  0  0  0  0
   49.9555  -19.1696   -9.0146 H   0  0  0  0  0  0  0  0  0  0  0  0
   50.8471  -19.4596   -7.5406 H   0  0  0  0  0  0  0  0  0  0  0  0
   48.6569  -19.5881   -6.9409 H   0  0  0  0  0  0  0  0  0  0  0  0
   52.1791  -18.4185   -6.1091 H   0  0  0  0  0  0  0  0  0  0  0  0
   46.1126  -15.3492   -6.5814 H   0  0  0  0  0  0  0  0  0  0  0  0
   51.5896  -13.5403   -5.4773 H   0  0  0  0  0  0  0  0  0  0  0  0
   51.9702  -16.6701   -9.9750 H   0  0  0  0  0  0  0  0  0  0  0  0
   53.0072  -17.7649  -10.8554 H   0  0  0  0  0  0  0  0  0  0  0  0
   50.2926  -19.2364  -12.7777 H   0  0  0  0  0  0  0  0  0  0  0  0
   51.0260  -20.0384  -11.3938 H   0  0  0  0  0  0  0  0  0  0  0  0
   52.0499  -19.1903  -12.5844 H   0  0  0  0  0  0  0  0  0  0  0  0
   52.8532  -18.3619   -8.4729 H   0  0  0  0  0  0  0  0  0  0  0  0
   52.2884  -19.6673   -9.4803 H   0  0  0  0  0  0  0  0  0  0  0  0
   46.3481  -19.6021   -6.1331 H   0  0  0  0  0  0  0  0  0  0  0  0
   53.5978  -17.2021   -4.5333 H   0  0  0  0  0  0  0  0  0  0  0  0
   53.3277  -14.7568   -4.2263 H   0  0  0  0  0  0  0  0  0  0  0  0
   45.0620  -17.4894   -5.9630 H   0  0  0  0  0  0  0  0  0  0  0  0
  2  1  1  0
  3  1  1  0
  4  6  1  0
  5  7  1  0
  6  2  2  0
  7  3  2  0
  8 14  1  0
  9  1  1  0
 10  2  1  0
 11  3  1  0
 12  6  1  0
 13  7  1  0
 14 16  1  0
 15  8  1  0
 16  9  1  0
 17 10  2  0
 18 11  2  0
 19 18  1  0
 20 17  1  0
  5  4  2  0
 19 13  2  0
 20 12  2  0
  1 21  1  0
  4 22  1  0
  5 23  1  0
  8 24  1  0
  9 25  1  0
  9 26  1  0
 10 27  1  0
 11 28  1  0
 12 29  1  0
 13 30  1  0
 14 31  1  0
 14 32  1  0
 15 33  1  0
 15 34  1  0
 15 35  1  0
 16 36  1  0
 16 37  1  0
 17 38  1  0
 18 39  1  0
 19 40  1  0
 20 41  1  0
M  END
> <Uni-Dock RESULT> 
ENERGY=   -6.092  LOWER_BOUND=    0.000  UPPER_BOUND=    0.000
INTER + INTRA:          -6.092
INTER:                  -6.092
INTRA:                   0.000
UNBOUND:                 0.000

$$$$

     RDKit          3D

 41 43  0  0  0  0  0  0  0  0999 V2000
   49.8819  -17.1510   -7.7700 C   0  0  0  0  0  0  0  0  0  0  0  0
   50.9051  -16.9281   -6.6488 C   0  0  0  0  0  0  0  0  0  0  0  0
   48.5559  -17.6107   -7.1572 C   0  0  0  0  0  0  0  0  0  0  0  0
   50.9051  -19.4198   -6.1695 C   0  0  0  0  0  0  0  0  0  0  0  0
   49.6453  -19.7906   -6.4575 C   0  0  0  0  0  0  0  0  0  0  0  0
   51.3695  -18.0436   -5.9113 C   0  0  0  0  0  0  0  0  0  0  0  0
   48.4830  -18.8898   -6.5570 C   0  0  0  0  0  0  0  0  0  0  0  0
   50.8775  -17.5221  -11.2279 N   0  0  0  0  0  0  0  0  0  0  0  0
   49.7972  -15.9965   -8.8060 C   0  0  0  0  0  0  0  0  0  0  0  0
   51.3866  -15.6508   -6.3113 C   0  0  0  0  0  0  0  0  0  0  0  0
   47.4139  -16.7914   -7.1239 C   0  0  0  0  0  0  0  0  0  0  0  0
   52.3319  -17.8609   -4.9063 C   0  0  0  0  0  0  0  0  0  0  0  0
   47.2648  -19.3438   -6.0274 C   0  0  0  0  0  0  0  0  0  0  0  0
   49.4546  -17.5259  -10.8852 C   0  0  0  0  0  0  0  0  0  0  0  0
   51.2118  -16.5121  -12.2236 C   0  0  0  0  0  0  0  0  0  0  0  0
   48.9924  -16.3029  -10.0838 C   0  0  0  0  0  0  0  0  0  0  0  0
   52.3325  -15.4839   -5.2977 C   0  0  0  0  0  0  0  0  0  0  0  0
   46.2129  -17.2496   -6.5781 C   0  0  0  0  0  0  0  0  0  0  0  0
   46.1345  -18.5290   -6.0409 C   0  0  0  0  0  0  0  0  0  0  0  0
   52.8101  -16.5877   -4.6004 C   0  0  0  0  0  0  0  0  0  0  0  0
   50.2749  -17.9921   -8.3571 H   0  0  0  0  0  0  0  0  0  0  0  0
   51.6682  -20.1907   -6.0897 H   0  0  0  0  0  0  0  0  0  0  0  0
   49.4328  -20.8479   -6.5974 H   0  0  0  0  0  0  0  0  0  0  0  0
   51.1256  -18.4394  -11.5995 H   0  0  0  0  0  0  0  0  0  0  0  0
   50.8153  -15.7192   -9.1112 H   0  0  0  0  0  0  0  0  0  0  0  0
   49.3738  -15.0944   -8.3472 H   0  0  0  0  0  0  0  0  0  0  0  0
   51.0365  -14.7637   -6.8309 H   0  0  0  0  0  0  0  0  0  0  0  0
   47.4369  -15.7803   -7.5196 H   0  0  0  0  0  0  0  0  0  0  0  0
   52.7043  -18.7117   -4.3405 H   0  0  0  0  0  0  0  0  0  0  0  0
   47.1956  -20.3304   -5.5747 H   0  0  0  0  0  0  0  0  0  0  0  0
   49.2474  -18.4306  -10.3024 H   0  0  0  0  0  0  0  0  0  0  0  0
   48.8477  -17.6170  -11.7948 H   0  0  0  0  0  0  0  0  0  0  0  0
   52.2711  -16.6007  -12.4850 H   0  0  0  0  0  0  0  0  0  0  0  0
   51.0599  -15.4986  -11.8412 H   0  0  0  0  0  0  0  0  0  0  0  0
   50.6295  -16.6429  -13.1415 H   0  0  0  0  0  0  0  0  0  0  0  0
   47.9348  -16.4415   -9.8348 H   0  0  0  0  0  0  0  0  0  0  0  0
   49.0247  -15.4140  -10.7260 H   0  0  0  0  0  0  0  0  0  0  0  0
   52.6961  -14.4889   -5.0551 H   0  0  0  0  0  0  0  0  0  0  0  0
   45.3398  -16.6023   -6.5699 H   0  0  0  0  0  0  0  0  0  0  0  0
   45.2009  -18.8862   -5.6151 H   0  0  0  0  0  0  0  0  0  0  0  0
   53.5475  -16.4584   -3.8131 H   0  0  0  0  0  0  0  0  0  0  0  0
  2  1  1  0
  3  1  1  0
  4  6  1  0
  5  7  1  0
  6  2  2  0
  7  3  2  0
  8 14  1  0
  9  1  1  0
 10  2  1  0
 11  3  1  0
 12  6  1  0
 13  7  1  0
 14 16  1  0
 15  8  1  0
 16  9  1  0
 17 10  2  0
 18 11  2  0
 19 18  1  0
 20 17  1  0
  5  4  2  0
 19 13  2  0
 20 12  2  0
  1 21  1  0
  4 22  1  0
  5 23  1  0
  8 24  1  0
  9 25  1  0
  9 26  1  0
 10 27  1  0
 11 28  1  0
 12 29  1  0
 13 30  1  0
 14 31  1  0
 14 32  1  0
 15 33  1  0
 15 34  1  0
 15 35  1  0
 16 36  1  0
 16 37  1  0
 17 38  1  0
 18 39  1  0
 19 40  1  0
 20 41  1  0
M  END
> <Uni-Dock RESULT> 
ENERGY=   -5.337  LOWER_BOUND=    1.416  UPPER_BOUND=    4.780
INTER + INTRA:          -5.337
INTER:                  -5.337
INTRA:                   0.000
UNBOUND:                 0.000

$$$$

     RDKit          3D

 41 43  0  0  0  0  0  0  0  0999 V2000
   48.8519  -16.9339   -8.1418 C   0  0  0  0  0  0  0  0  0  0  0  0
   49.8941  -16.2057   -7.2833 C   0  0  0  0  0  0  0  0  0  0  0  0
   47.9857  -17.8178   -7.2397 C   0  0  0  0  0  0  0  0  0  0  0  0
   51.0173  -18.4256   -6.7847 C   0  0  0  0  0  0  0  0  0  0  0  0
   49.9928  -19.2961   -6.7762 C   0  0  0  0  0  0  0  0  0  0  0  0
   50.9146  -16.9597   -6.6555 C   0  0  0  0  0  0  0  0  0  0  0  0
   48.5685  -18.9495   -6.6223 C   0  0  0  0  0  0  0  0  0  0  0  0
   49.1963  -17.2357  -11.7301 N   0  0  0  0  0  0  0  0  0  0  0  0
   48.0930  -16.0241   -9.1465 C   0  0  0  0  0  0  0  0  0  0  0  0
   49.8633  -14.8147   -7.0795 C   0  0  0  0  0  0  0  0  0  0  0  0
   46.6397  -17.5236   -6.9599 C   0  0  0  0  0  0  0  0  0  0  0  0
   51.8962  -16.3044   -5.8961 C   0  0  0  0  0  0  0  0  0  0  0  0
   47.7791  -19.7939   -5.8257 C   0  0  0  0  0  0  0  0  0  0  0  0
   48.0019  -17.7710  -11.0751 C   0  0  0  0  0  0  0  0  0  0  0  0
   48.8774  -16.2861  -12.7884 C   0  0  0  0  0  0  0  0  0  0  0  0
   47.2477  -16.7576  -10.2057 C   0  0  0  0  0  0  0  0  0  0  0  0
   50.8385  -14.1796   -6.3078 C   0  0  0  0  0  0  0  0  0  0  0  0
   45.8706  -18.3632   -6.1513 C   0  0  0  0  0  0  0  0  0  0  0  0
   46.4360  -19.5039   -5.5941 C   0  0  0  0  0  0  0  0  0  0  0  0
   51.8577  -14.9218   -5.7222 C   0  0  0  0  0  0  0  0  0  0  0  0
   49.4301  -17.6047   -8.7916 H   0  0  0  0  0  0  0  0  0  0  0  0
   52.0293  -18.8152   -6.8693 H   0  0  0  0  0  0  0  0  0  0  0  0
   50.2116  -20.3587   -6.8511 H   0  0  0  0  0  0  0  0  0  0  0  0
   49.7204  -18.0111  -12.1364 H   0  0  0  0  0  0  0  0  0  0  0  0
   48.8223  -15.3971   -9.6772 H   0  0  0  0  0  0  0  0  0  0  0  0
   47.4369  -15.3233   -8.6156 H   0  0  0  0  0  0  0  0  0  0  0  0
   49.0823  -14.2004   -7.5179 H   0  0  0  0  0  0  0  0  0  0  0  0
   46.1640  -16.6346   -7.3635 H   0  0  0  0  0  0  0  0  0  0  0  0
   52.6912  -16.8719   -5.4181 H   0  0  0  0  0  0  0  0  0  0  0  0
   48.2150  -20.6730   -5.3565 H   0  0  0  0  0  0  0  0  0  0  0  0
   48.3075  -18.6170  -10.4491 H   0  0  0  0  0  0  0  0  0  0  0  0
   47.3176  -18.1911  -11.8230 H   0  0  0  0  0  0  0  0  0  0  0  0
   49.8030  -15.9715  -13.2809 H   0  0  0  0  0  0  0  0  0  0  0  0
   48.4013  -15.3835  -12.3945 H   0  0  0  0  0  0  0  0  0  0  0  0
   48.2297  -16.7333  -13.5494 H   0  0  0  0  0  0  0  0  0  0  0  0
   46.4148  -17.2798   -9.7227 H   0  0  0  0  0  0  0  0  0  0  0  0
   46.7812  -16.0019  -10.8499 H   0  0  0  0  0  0  0  0  0  0  0  0
   50.8001  -13.1027   -6.1662 H   0  0  0  0  0  0  0  0  0  0  0  0
   44.8294  -18.1209   -5.9545 H   0  0  0  0  0  0  0  0  0  0  0  0
   45.8389  -20.1573   -4.9641 H   0  0  0  0  0  0  0  0  0  0  0  0
   52.6176  -14.4277   -5.1234 H   0  0  0  0  0  0  0  0  0  0  0  0
  2  1  1  0
  3  1  1  0
  4  6  1  0
  5  7  1  0
  6  2  2  0
  7  3  2  0
  8 14  1  0
  9  1  1  0
 10  2  1  0
 11  3  1  0
 12  6  1  0
 13  7  1  0
 14 16  1  0
 15  8  1  0
 16  9  1  0
 17 10  2  0
 18 11  2  0
 19 18  1  0
 20 17  1  0
  5  4  2  0
 19 13  2  0
 20 12  2  0
  1 21  1  0
  4 22  1  0
  5 23  1  0
  8 24  1  0
  9 25  1  0
  9 26  1  0
 10 27  1  0
 11 28  1  0
 12 29  1  0
 13 30  1  0
 14 31  1  0
 14 32  1  0
 15 33  1  0
 15 34  1  0
 15 35  1  0
 16 36  1  0
 16 37  1  0
 17 38  1  0
 18 39  1  0
 19 40  1  0
 20 41  1  0
M  END
> <Uni-Dock RESULT> 
ENERGY=   -5.103  LOWER_BOUND=    1.770  UPPER_BOUND=    4.834
INTER + INTRA:          -5.103
INTER:                  -5.103
INTRA:                   0.000
UNBOUND:                 0.000

$$$$

     RDKit          3D

 41 43  0  0  0  0  0  0  0  0999 V2000
   49.2427  -17.8677   -8.0252 C   0  0  0  0  0  0  0  0  0  0  0  0
   48.1031  -18.4114   -7.1538 C   0  0  0  0  0  0  0  0  0  0  0  0
   49.7578  -16.5583   -7.4206 C   0  0  0  0  0  0  0  0  0  0  0  0
   46.6614  -16.4347   -7.8261 C   0  0  0  0  0  0  0  0  0  0  0  0
   47.5529  -15.4409   -7.9847 C   0  0  0  0  0  0  0  0  0  0  0  0
   46.8842  -17.6943   -7.0914 C   0  0  0  0  0  0  0  0  0  0  0  0
   48.9226  -15.4166   -7.4408 C   0  0  0  0  0  0  0  0  0  0  0  0
   49.7724  -19.0057  -11.4179 N   0  0  0  0  0  0  0  0  0  0  0  0
   50.3202  -18.9187   -8.4091 C   0  0  0  0  0  0  0  0  0  0  0  0
   48.2302  -19.5894   -6.3964 C   0  0  0  0  0  0  0  0  0  0  0  0
   51.0152  -16.4549   -6.8002 C   0  0  0  0  0  0  0  0  0  0  0  0
   45.8200  -18.1971   -6.3269 C   0  0  0  0  0  0  0  0  0  0  0  0
   49.3942  -14.1977   -6.9284 C   0  0  0  0  0  0  0  0  0  0  0  0
   50.7021  -18.0400  -10.8302 C   0  0  0  0  0  0  0  0  0  0  0  0
   50.4440  -20.1995  -11.9150 C   0  0  0  0  0  0  0  0  0  0  0  0
   51.3195  -18.4841   -9.4987 C   0  0  0  0  0  0  0  0  0  0  0  0
   47.1670  -20.0681   -5.6281 C   0  0  0  0  0  0  0  0  0  0  0  0
   51.4648  -15.2399   -6.2790 C   0  0  0  0  0  0  0  0  0  0  0  0
   50.6604  -14.1090   -6.3534 C   0  0  0  0  0  0  0  0  0  0  0  0
   45.9610  -19.3771   -5.5983 C   0  0  0  0  0  0  0  0  0  0  0  0
   48.7764  -17.6171   -8.9877 H   0  0  0  0  0  0  0  0  0  0  0  0
   45.6669  -16.3128   -8.2491 H   0  0  0  0  0  0  0  0  0  0  0  0
   47.2478  -14.5492   -8.5273 H   0  0  0  0  0  0  0  0  0  0  0  0
   49.2865  -18.5585  -12.1957 H   0  0  0  0  0  0  0  0  0  0  0  0
   49.8171  -19.8292   -8.7618 H   0  0  0  0  0  0  0  0  0  0  0  0
   50.8943  -19.2256   -7.5261 H   0  0  0  0  0  0  0  0  0  0  0  0
   49.1566  -20.1563   -6.3914 H   0  0  0  0  0  0  0  0  0  0  0  0
   51.6682  -17.3178   -6.7083 H   0  0  0  0  0  0  0  0  0  0  0  0
   44.8752  -17.6606   -6.2800 H   0  0  0  0  0  0  0  0  0  0  0  0
   48.7641  -13.3114   -6.9503 H   0  0  0  0  0  0  0  0  0  0  0  0
   50.1619  -17.0993  -10.6743 H   0  0  0  0  0  0  0  0  0  0  0  0
   51.5022  -17.8046  -11.5432 H   0  0  0  0  0  0  0  0  0  0  0  0
   49.7090  -20.8514  -12.3980 H   0  0  0  0  0  0  0  0  0  0  0  0
   50.9003  -20.7760  -11.1052 H   0  0  0  0  0  0  0  0  0  0  0  0
   51.2093  -19.9516  -12.6577 H   0  0  0  0  0  0  0  0  0  0  0  0
   51.9455  -17.6659   -9.1264 H   0  0  0  0  0  0  0  0  0  0  0  0
   52.0094  -19.3181   -9.6780 H   0  0  0  0  0  0  0  0  0  0  0  0
   47.2833  -20.9833   -5.0535 H   0  0  0  0  0  0  0  0  0  0  0  0
   52.4439  -15.1805   -5.8106 H   0  0  0  0  0  0  0  0  0  0  0  0
   51.0088  -13.1634   -5.9473 H   0  0  0  0  0  0  0  0  0  0  0  0
   45.1330  -19.7504   -5.0022 H   0  0  0  0  0  0  0  0  0  0  0  0
  2  1  1  0
  3  1  1  0
  4  6  1  0
  5  7  1  0
  6  2  2  0
  7  3  2  0
  8 14  1  0
  9  1  1  0
 10  2  1  0
 11  3  1  0
 12  6  1  0
 13  7  1  0
 14 16  1  0
 15  8  1  0
 16  9  1  0
 17 10  2  0
 18 11  2  0
 19 18  1  0
 20 17  1  0
  5  4  2  0
 19 13  2  0
 20 12  2  0
  1 21  1  0
  4 22  1  0
  5 23  1  0
  8 24  1  0
  9 25  1  0
  9 26  1  0
 10 27  1  0
 11 28  1  0
 12 29  1  0
 13 30  1  0
 14 31  1  0
 14 32  1  0
 15 33  1  0
 15 34  1  0
 15 35  1  0
 16 36  1  0
 16 37  1  0
 17 38  1  0
 18 39  1  0
 19 40  1  0
 20 41  1  0
M  END
> <Uni-Dock RESULT> 
ENERGY=   -4.989  LOWER_BOUND=    1.158  UPPER_BOUND=    1.841
INTER + INTRA:          -4.989
INTER:                  -4.989
INTRA:                   0.000
UNBOUND:                 0.000

$$$$

     RDKit          3D

 41 43  0  0  0  0  0  0  0  0999 V2000
   50.1335  -17.5280   -7.7855 C   0  0  0  0  0  0  0  0  0  0  0  0
   51.0211  -17.6642   -6.5416 C   0  0  0  0  0  0  0  0  0  0  0  0
   48.6961  -17.2319   -7.3480 C   0  0  0  0  0  0  0  0  0  0  0  0
   49.7786  -19.7818   -5.9012 C   0  0  0  0  0  0  0  0  0  0  0  0
   48.5310  -19.5561   -6.3485 C   0  0  0  0  0  0  0  0  0  0  0  0
   50.8179  -18.7608   -5.6697 C   0  0  0  0  0  0  0  0  0  0  0  0
   47.9595  -18.2387   -6.6808 C   0  0  0  0  0  0  0  0  0  0  0  0
   51.1668  -18.7676  -11.0230 N   0  0  0  0  0  0  0  0  0  0  0  0
   50.7162  -16.6134   -8.8977 C   0  0  0  0  0  0  0  0  0  0  0  0
   52.0201  -16.7274   -6.2227 C   0  0  0  0  0  0  0  0  0  0  0  0
   48.0901  -15.9780   -7.5408 C   0  0  0  0  0  0  0  0  0  0  0  0
   51.6448  -18.9189   -4.5468 C   0  0  0  0  0  0  0  0  0  0  0  0
   46.6271  -17.9988   -6.3097 C   0  0  0  0  0  0  0  0  0  0  0  0
   49.8904  -18.0625  -10.8972 C   0  0  0  0  0  0  0  0  0  0  0  0
   52.0415  -18.1695  -12.0233 C   0  0  0  0  0  0  0  0  0  0  0  0
   49.9945  -16.6725  -10.2579 C   0  0  0  0  0  0  0  0  0  0  0  0
   52.8242  -16.8906   -5.0928 C   0  0  0  0  0  0  0  0  0  0  0  0
   46.7691  -15.7476   -7.1509 C   0  0  0  0  0  0  0  0  0  0  0  0
   46.0338  -16.7604   -6.5466 C   0  0  0  0  0  0  0  0  0  0  0  0
   52.6420  -17.9882   -4.2593 C   0  0  0  0  0  0  0  0  0  0  0  0
   50.1310  -18.5237   -8.2494 H   0  0  0  0  0  0  0  0  0  0  0  0
   50.0662  -20.8018   -5.6566 H   0  0  0  0  0  0  0  0  0  0  0  0
   47.8525  -20.4002   -6.4471 H   0  0  0  0  0  0  0  0  0  0  0  0
   50.9801  -19.7343  -11.2909 H   0  0  0  0  0  0  0  0  0  0  0  0
   51.7672  -16.8854   -9.0655 H   0  0  0  0  0  0  0  0  0  0  0  0
   50.7342  -15.5669   -8.5691 H   0  0  0  0  0  0  0  0  0  0  0  0
   52.1920  -15.8556   -6.8472 H   0  0  0  0  0  0  0  0  0  0  0  0
   48.6344  -15.1557   -7.9957 H   0  0  0  0  0  0  0  0  0  0  0  0
   51.5052  -19.7633   -3.8758 H   0  0  0  0  0  0  0  0  0  0  0  0
   46.0487  -18.7706   -5.8070 H   0  0  0  0  0  0  0  0  0  0  0  0
   49.2180  -18.6814  -10.2923 H   0  0  0  0  0  0  0  0  0  0  0  0
   49.4078  -17.9776  -11.8790 H   0  0  0  0  0  0  0  0  0  0  0  0
   52.9485  -18.7753  -12.1170 H   0  0  0  0  0  0  0  0  0  0  0  0
   52.3572  -17.1621  -11.7369 H   0  0  0  0  0  0  0  0  0  0  0  0
   51.5622  -18.1319  -13.0070 H   0  0  0  0  0  0  0  0  0  0  0  0
   48.9812  -16.2680  -10.1608 H   0  0  0  0  0  0  0  0  0  0  0  0
   50.5127  -15.9935  -10.9464 H   0  0  0  0  0  0  0  0  0  0  0  0
   53.5944  -16.1580   -4.8660 H   0  0  0  0  0  0  0  0  0  0  0  0
   46.3175  -14.7729   -7.3167 H   0  0  0  0  0  0  0  0  0  0  0  0
   45.0063  -16.5819   -6.2419 H   0  0  0  0  0  0  0  0  0  0  0  0
   53.2687  -18.1165   -3.3812 H   0  0  0  0  0  0  0  0  0  0  0  0
  2  1  1  0
  3  1  1  0
  4  6  1  0
  5  7  1  0
  6  2  2  0
  7  3  2  0
  8 14  1  0
  9  1  1  0
 10  2  1  0
 11  3  1  0
 12  6  1  0
 13  7  1  0
 14 16  1  0
 15  8  1  0
 16  9  1  0
 17 10  2  0
 18 11  2  0
 19 18  1  0
 20 17  1  0
  5  4  2  0
 19 13  2  0
 20 12  2  0
  1 21  1  0
  4 22  1  0
  5 23  1  0
  8 24  1  0
  9 25  1  0
  9 26  1  0
 10 27  1  0
 11 28  1  0
 12 29  1  0
 13 30  1  0
 14 31  1  0
 14 32  1  0
 15 33  1  0
 15 34  1  0
 15 35  1  0
 16 36  1  0
 16 37  1  0
 17 38  1  0
 18 39  1  0
 19 40  1  0
 20 41  1  0
M  END
> <Uni-Dock RESULT> 
ENERGY=   -4.732  LOWER_BOUND=    1.326  UPPER_BOUND=    4.561
INTER + INTRA:          -4.732
INTER:                  -4.732
INTRA:                   0.000
UNBOUND:                 0.000

$$$$

     RDKit          3D

 41 43  0  0  0  0  0  0  0  0999 V2000
   48.9771  -16.8594   -8.4309 C   0  0  0  0  0  0  0  0  0  0  0  0
   49.6825  -17.1460   -9.7628 C   0  0  0  0  0  0  0  0  0  0  0  0
   49.9464  -16.1324   -7.4943 C   0  0  0  0  0  0  0  0  0  0  0  0
   51.2365  -18.7645   -8.5781 C   0  0  0  0  0  0  0  0  0  0  0  0
   51.3668  -18.2278   -7.3523 C   0  0  0  0  0  0  0  0  0  0  0  0
   50.7567  -18.0676   -9.7865 C   0  0  0  0  0  0  0  0  0  0  0  0
   51.0660  -16.8321   -6.9860 C   0  0  0  0  0  0  0  0  0  0  0  0
   45.9558  -18.5902   -7.4504 N   0  0  0  0  0  0  0  0  0  0  0  0
   47.5601  -16.2385   -8.5710 C   0  0  0  0  0  0  0  0  0  0  0  0
   49.3141  -16.5112  -10.9622 C   0  0  0  0  0  0  0  0  0  0  0  0
   49.7953  -14.7767   -7.1538 C   0  0  0  0  0  0  0  0  0  0  0  0
   51.3891  -18.3673  -11.0030 C   0  0  0  0  0  0  0  0  0  0  0  0
   51.9417  -16.1939   -6.0936 C   0  0  0  0  0  0  0  0  0  0  0  0
   46.4975  -17.5427   -6.5836 C   0  0  0  0  0  0  0  0  0  0  0  0
   44.5688  -18.3464   -7.8250 C   0  0  0  0  0  0  0  0  0  0  0  0
   46.7189  -16.1949   -7.2806 C   0  0  0  0  0  0  0  0  0  0  0  0
   49.9640  -16.8086  -12.1618 C   0  0  0  0  0  0  0  0  0  0  0  0
   50.6842  -14.1494   -6.2783 C   0  0  0  0  0  0  0  0  0  0  0  0
   51.7498  -14.8600   -5.7389 C   0  0  0  0  0  0  0  0  0  0  0  0
   50.9956  -17.7403  -12.1843 C   0  0  0  0  0  0  0  0  0  0  0  0
   48.7808  -17.8460   -7.9895 H   0  0  0  0  0  0  0  0  0  0  0  0
   51.5285  -19.8019   -8.7246 H   0  0  0  0  0  0  0  0  0  0  0  0
   51.7621  -18.8482   -6.5515 H   0  0  0  0  0  0  0  0  0  0  0  0
   46.0069  -19.4813   -6.9559 H   0  0  0  0  0  0  0  0  0  0  0  0
   46.9948  -16.8112   -9.3187 H   0  0  0  0  0  0  0  0  0  0  0  0
   47.6216  -15.2184   -8.9698 H   0  0  0  0  0  0  0  0  0  0  0  0
   48.5151  -15.7761  -10.9858 H   0  0  0  0  0  0  0  0  0  0  0  0
   48.9849  -14.1818   -7.5648 H   0  0  0  0  0  0  0  0  0  0  0  0
   52.2083  -19.0818  -11.0355 H   0  0  0  0  0  0  0  0  0  0  0  0
   52.7985  -16.7271   -5.6880 H   0  0  0  0  0  0  0  0  0  0  0  0
   47.4541  -17.8951   -6.1813 H   0  0  0  0  0  0  0  0  0  0  0  0
   45.8467  -17.4003   -5.7118 H   0  0  0  0  0  0  0  0  0  0  0  0
   44.2017  -19.1910   -8.4166 H   0  0  0  0  0  0  0  0  0  0  0  0
   44.4670  -17.4518   -8.4462 H   0  0  0  0  0  0  0  0  0  0  0  0
   43.9247  -18.2502   -6.9450 H   0  0  0  0  0  0  0  0  0  0  0  0
   47.1785  -15.5118   -6.5582 H   0  0  0  0  0  0  0  0  0  0  0  0
   45.7472  -15.7477   -7.5244 H   0  0  0  0  0  0  0  0  0  0  0  0
   49.6612  -16.3109  -13.0794 H   0  0  0  0  0  0  0  0  0  0  0  0
   50.5441  -13.1023   -6.0223 H   0  0  0  0  0  0  0  0  0  0  0  0
   52.4425  -14.3727   -5.0584 H   0  0  0  0  0  0  0  0  0  0  0  0
   51.5001  -17.9733  -13.1178 H   0  0  0  0  0  0  0  0  0  0  0  0
  2  1  1  0
  3  1  1  0
  4  6  1  0
  5  7  1  0
  6  2  2  0
  7  3  2  0
  8 14  1  0
  9  1  1  0
 10  2  1  0
 11  3  1  0
 12  6  1  0
 13  7  1  0
 14 16  1  0
 15  8  1  0
 16  9  1  0
 17 10  2  0
 18 11  2  0
 19 18  1  0
 20 17  1  0
  5  4  2  0
 19 13  2  0
 20 12  2  0
  1 21  1  0
  4 22  1  0
  5 23  1  0
  8 24  1  0
  9 25  1  0
  9 26  1  0
 10 27  1  0
 11 28  1  0
 12 29  1  0
 13 30  1  0
 14 31  1  0
 14 32  1  0
 15 33  1  0
 15 34  1  0
 15 35  1  0
 16 36  1  0
 16 37  1  0
 17 38  1  0
 18 39  1  0
 19 40  1  0
 20 41  1  0
M  END
> <Uni-Dock RESULT> 
ENERGY=   -4.466  LOWER_BOUND=    2.031  UPPER_BOUND=    4.868
INTER + INTRA:          -4.466
INTER:                  -4.466
INTRA:                   0.000
UNBOUND:                 0.000

$$$$

     RDKit          3D

 41 43  0  0  0  0  0  0  0  0999 V2000
   46.7312  -16.8383  -10.7177 C   0  0  0  0  0  0  0  0  0  0  0  0
   46.5919  -16.8140   -9.1900 C   0  0  0  0  0  0  0  0  0  0  0  0
   45.3417  -16.9709  -11.3477 C   0  0  0  0  0  0  0  0  0  0  0  0
   45.8069  -19.2264   -9.2350 C   0  0  0  0  0  0  0  0  0  0  0  0
   45.1470  -19.3157  -10.4030 C   0  0  0  0  0  0  0  0  0  0  0  0
   46.1495  -17.9812   -8.5223 C   0  0  0  0  0  0  0  0  0  0  0  0
   44.6277  -18.1818  -11.1885 C   0  0  0  0  0  0  0  0  0  0  0  0
   49.8871  -17.5314  -12.3442 N   0  0  0  0  0  0  0  0  0  0  0  0
   47.6474  -15.7274  -11.3005 C   0  0  0  0  0  0  0  0  0  0  0  0
   46.8695  -15.6664   -8.4264 C   0  0  0  0  0  0  0  0  0  0  0  0
   44.7223  -15.9168  -12.0418 C   0  0  0  0  0  0  0  0  0  0  0  0
   46.0508  -17.9861   -7.1223 C   0  0  0  0  0  0  0  0  0  0  0  0
   43.3706  -18.3356  -11.7940 C   0  0  0  0  0  0  0  0  0  0  0  0
   48.7150  -17.2067  -13.1583 C   0  0  0  0  0  0  0  0  0  0  0  0
   51.0183  -16.6535  -12.6146 C   0  0  0  0  0  0  0  0  0  0  0  0
   48.0297  -15.8867  -12.7847 C   0  0  0  0  0  0  0  0  0  0  0  0
   46.7512  -15.6828   -7.0351 C   0  0  0  0  0  0  0  0  0  0  0  0
   43.4636  -16.0779  -12.6246 C   0  0  0  0  0  0  0  0  0  0  0  0
   42.7929  -17.2899  -12.5114 C   0  0  0  0  0  0  0  0  0  0  0  0
   46.3491  -16.8427   -6.3827 C   0  0  0  0  0  0  0  0  0  0  0  0
   47.2776  -17.7641  -10.9436 H   0  0  0  0  0  0  0  0  0  0  0  0
   46.1062  -20.1453   -8.7359 H   0  0  0  0  0  0  0  0  0  0  0  0
   44.9331  -20.3028  -10.8061 H   0  0  0  0  0  0  0  0  0  0  0  0
   50.1666  -18.4922  -12.5439 H   0  0  0  0  0  0  0  0  0  0  0  0
   48.5781  -15.6940  -10.7179 H   0  0  0  0  0  0  0  0  0  0  0  0
   47.1877  -14.7395  -11.1733 H   0  0  0  0  0  0  0  0  0  0  0  0
   47.1839  -14.7404   -8.8988 H   0  0  0  0  0  0  0  0  0  0  0  0
   45.2058  -14.9493  -12.1406 H   0  0  0  0  0  0  0  0  0  0  0  0
   45.7225  -18.8802   -6.5974 H   0  0  0  0  0  0  0  0  0  0  0  0
   42.8191  -19.2670  -11.6875 H   0  0  0  0  0  0  0  0  0  0  0  0
   47.9917  -18.0234  -13.0542 H   0  0  0  0  0  0  0  0  0  0  0  0
   48.9870  -17.1888  -14.2212 H   0  0  0  0  0  0  0  0  0  0  0  0
   51.8799  -16.9845  -12.0261 H   0  0  0  0  0  0  0  0  0  0  0  0
   50.8092  -15.6201  -12.3233 H   0  0  0  0  0  0  0  0  0  0  0  0
   51.3055  -16.6800  -13.6708 H   0  0  0  0  0  0  0  0  0  0  0  0
   47.1394  -15.7778  -13.4134 H   0  0  0  0  0  0  0  0  0  0  0  0
   48.6820  -15.0481  -13.0586 H   0  0  0  0  0  0  0  0  0  0  0  0
   46.9751  -14.7868   -6.4622 H   0  0  0  0  0  0  0  0  0  0  0  0
   43.0065  -15.2521  -13.1637 H   0  0  0  0  0  0  0  0  0  0  0  0
   41.8131  -17.4161  -12.9636 H   0  0  0  0  0  0  0  0  0  0  0  0
   46.2588  -16.8564   -5.3001 H   0  0  0  0  0  0  0  0  0  0  0  0
  2  1  1  0
  3  1  1  0
  4  6  1  0
  5  7  1  0
  6  2  2  0
  7  3  2  0
  8 14  1  0
  9  1  1  0
 10  2  1  0
 11  3  1  0
 12  6  1  0
 13  7  1  0
 14 16  1  0
 15  8  1  0
 16  9  1  0
 17 10  2  0
 18 11  2  0
 19 18  1  0
 20 17  1  0
  5  4  2  0
 19 13  2  0
 20 12  2  0
  1 21  1  0
  4 22  1  0
  5 23  1  0
  8 24  1  0
  9 25  1  0
  9 26  1  0
 10 27  1  0
 11 28  1  0
 12 29  1  0
 13 30  1  0
 14 31  1  0
 14 32  1  0
 15 33  1  0
 15 34  1  0
 15 35  1  0
 16 36  1  0
 16 37  1  0
 17 38  1  0
 18 39  1  0
 19 40  1  0
 20 41  1  0
M  END
> <Uni-Dock RESULT> 
ENERGY=   -4.299  LOWER_BOUND=    4.080  UPPER_BOUND=    6.639
INTER + INTRA:          -4.299
INTER:                  -4.299
INTRA:                   0.000
UNBOUND:                 0.000

$$$$

     RDKit          3D

 41 43  0  0  0  0  0  0  0  0999 V2000
   47.3157  -16.6300  -10.7639 C   0  0  0  0  0  0  0  0  0  0  0  0
   47.0549  -16.5268   -9.2556 C   0  0  0  0  0  0  0  0  0  0  0  0
   46.1143  -16.0586  -11.5225 C   0  0  0  0  0  0  0  0  0  0  0  0
   45.1857  -18.2286   -9.4743 C   0  0  0  0  0  0  0  0  0  0  0  0
   44.6889  -17.9873  -10.7001 C   0  0  0  0  0  0  0  0  0  0  0  0
   46.0276  -17.3133   -8.6810 C   0  0  0  0  0  0  0  0  0  0  0  0
   44.8819  -16.7520  -11.4805 C   0  0  0  0  0  0  0  0  0  0  0  0
   49.8565  -18.8155  -12.1253 N   0  0  0  0  0  0  0  0  0  0  0  0
   48.7152  -16.1274  -11.2133 C   0  0  0  0  0  0  0  0  0  0  0  0
   47.7873  -15.6633   -8.4218 C   0  0  0  0  0  0  0  0  0  0  0  0
   46.1723  -14.8418  -12.2245 C   0  0  0  0  0  0  0  0  0  0  0  0
   45.8002  -17.2568   -7.2973 C   0  0  0  0  0  0  0  0  0  0  0  0
   43.7818  -16.2646  -12.2037 C   0  0  0  0  0  0  0  0  0  0  0  0
   49.0879  -17.9572  -13.0278 C   0  0  0  0  0  0  0  0  0  0  0  0
   51.2947  -18.6194  -12.2543 C   0  0  0  0  0  0  0  0  0  0  0  0
   49.1142  -16.4682  -12.6621 C   0  0  0  0  0  0  0  0  0  0  0  0
   47.5380  -15.6071   -7.0490 C   0  0  0  0  0  0  0  0  0  0  0  0
   45.0648  -14.3598  -12.9255 C   0  0  0  0  0  0  0  0  0  0  0  0
   43.8739  -15.0761  -12.9254 C   0  0  0  0  0  0  0  0  0  0  0  0
   46.5507  -16.4075   -6.4857 C   0  0  0  0  0  0  0  0  0  0  0  0
   47.3503  -17.7067  -10.9785 H   0  0  0  0  0  0  0  0  0  0  0  0
   44.9382  -19.1704   -8.9896 H   0  0  0  0  0  0  0  0  0  0  0  0
   44.0551  -18.7402  -11.1626 H   0  0  0  0  0  0  0  0  0  0  0  0
   49.6409  -19.7895  -12.3394 H   0  0  0  0  0  0  0  0  0  0  0  0
   49.4762  -16.5568  -10.5477 H   0  0  0  0  0  0  0  0  0  0  0  0
   48.7959  -15.0407  -11.0865 H   0  0  0  0  0  0  0  0  0  0  0  0
   48.5650  -15.0206   -8.8238 H   0  0  0  0  0  0  0  0  0  0  0  0
   47.0791  -14.2442  -12.2378 H   0  0  0  0  0  0  0  0  0  0  0  0
   45.0211  -17.8644   -6.8429 H   0  0  0  0  0  0  0  0  0  0  0  0
   42.8335  -16.7970  -12.1874 H   0  0  0  0  0  0  0  0  0  0  0  0
   48.0485  -18.3046  -13.0247 H   0  0  0  0  0  0  0  0  0  0  0  0
   49.4375  -18.0859  -14.0599 H   0  0  0  0  0  0  0  0  0  0  0  0
   51.8148  -19.3304  -11.6045 H   0  0  0  0  0  0  0  0  0  0  0  0
   51.5978  -17.6166  -11.9394 H   0  0  0  0  0  0  0  0  0  0  0  0
   51.6348  -18.7941  -13.2801 H   0  0  0  0  0  0  0  0  0  0  0  0
   48.4631  -15.9358  -13.3639 H   0  0  0  0  0  0  0  0  0  0  0  0
   50.1202  -16.0679  -12.8397 H   0  0  0  0  0  0  0  0  0  0  0  0
   48.1183  -14.9367   -6.4204 H   0  0  0  0  0  0  0  0  0  0  0  0
   45.1341  -13.4206  -13.4683 H   0  0  0  0  0  0  0  0  0  0  0  0
   43.0113  -14.7016  -13.4696 H   0  0  0  0  0  0  0  0  0  0  0  0
   46.3579  -16.3654   -5.4173 H   0  0  0  0  0  0  0  0  0  0  0  0
  2  1  1  0
  3  1  1  0
  4  6  1  0
  5  7  1  0
  6  2  2  0
  7  3  2  0
  8 14  1  0
  9  1  1  0
 10  2  1  0
 11  3  1  0
 12  6  1  0
 13  7  1  0
 14 16  1  0
 15  8  1  0
 16  9  1  0
 17 10  2  0
 18 11  2  0
 19 18  1  0
 20 17  1  0
  5  4  2  0
 19 13  2  0
 20 12  2  0
  1 21  1  0
  4 22  1  0
  5 23  1  0
  8 24  1  0
  9 25  1  0
  9 26  1  0
 10 27  1  0
 11 28  1  0
 12 29  1  0
 13 30  1  0
 14 31  1  0
 14 32  1  0
 15 33  1  0
 15 34  1  0
 15 35  1  0
 16 36  1  0
 16 37  1  0
 17 38  1  0
 18 39  1  0
 19 40  1  0
 20 41  1  0
M  END
> <Uni-Dock RESULT> 
ENERGY=   -4.239  LOWER_BOUND=    3.901  UPPER_BOUND=    6.187
INTER + INTRA:          -4.239
INTER:                  -4.239
INTRA:                   0.000
UNBOUND:                 0.000

$$$$
