
     RDKit          3D

 84 86  0  0  0  0  0  0  0  0999 V2000
   29.6683    5.6641   31.1102 N   0  0  0  0  0  0  0  0  0  0  0  0
   28.9664    6.8511   31.5317 C   0  0  0  0  0  0  0  0  0  0  0  0
   31.1087    5.5130   31.2189 C   0  0  1  0  0  0  0  0  0  0  0  0
   26.8424    8.6513   31.2878 P   0  0  1  0  0  0  0  0  0  0  0  0
   27.4723    6.9384   31.3875 C   0  0  0  0  0  0  0  0  0  0  0  0
   28.9905    4.4253   30.7703 C   0  0  0  0  0  0  0  0  0  0  0  0
   25.1738    8.6570   30.9060 O   0  0  0  0  0  0  0  0  0  0  0  0
   24.4743    7.7764   31.7616 C   0  0  2  0  0  0  0  0  0  0  0  0
   31.4125    4.0698   30.8122 C   0  0  0  0  0  0  0  0  0  0  0  0
   31.8169    6.4981   30.3306 C   0  0  0  0  0  0  0  0  0  0  0  0
   30.0618    3.3191   30.7482 C   0  0  1  0  0  0  0  0  0  0  0  0
   24.5657    6.4486   31.2375 O   0  0  0  0  0  0  0  0  0  0  0  0
   24.4034    5.2948   32.0103 C   0  0  0  0  0  0  0  0  0  0  0  0
   27.0641    9.3482   32.6129 O   0  0  0  0  0  0  0  0  0  0  0  0
   29.5978    7.7771   32.1129 O   0  0  0  0  0  0  0  0  0  0  0  0
   31.3664    6.7240   29.0349 O   0  0  0  0  0  0  0  0  0  0  0  0
   32.8435    7.0975   30.7448 O   0  0  0  0  0  0  0  0  0  0  0  0
   24.1262    5.3737   33.2377 O   0  0  0  0  0  0  0  0  0  0  0  0
   29.9141    2.2590   31.8904 C   0  0  0  0  0  0  0  0  0  0  0  0
   22.9921    8.2041   31.8370 C   0  0  0  0  0  0  0  0  0  0  0  0
   27.7350    9.5478   29.9679 C   0  0  0  0  0  0  0  0  0  0  0  0
   26.0706   11.7912   27.3270 C   0  0  0  0  0  0  0  0  0  0  0  0
   24.6221    3.9551   31.3782 C   0  0  0  0  0  0  0  0  0  0  0  0
   28.4603    1.7023   31.9950 C   0  0  0  0  0  0  0  0  0  0  0  0
   30.9494    1.1011   31.7224 C   0  0  0  0  0  0  0  0  0  0  0  0
   22.8525    9.5900   32.4815 C   0  0  0  0  0  0  0  0  0  0  0  0
   22.3237    8.1891   30.4541 C   0  0  0  0  0  0  0  0  0  0  0  0
   25.4125   11.1166   28.5036 C   0  0  0  0  0  0  0  0  0  0  0  0
   26.9796   11.0888   26.5162 C   0  0  0  0  0  0  0  0  0  0  0  0
   25.7947   13.1386   27.0418 C   0  0  0  0  0  0  0  0  0  0  0  0
   27.5129   11.0695   30.0141 C   0  0  0  0  0  0  0  0  0  0  0  0
   26.0534   11.5326   29.8376 C   0  0  0  0  0  0  0  0  0  0  0  0
   23.4075    3.0506   31.5612 C   0  0  0  0  0  0  0  0  0  0  0  0
   28.4141    0.3045   32.6212 C   0  0  0  0  0  0  0  0  0  0  0  0
   30.3560   -0.1095   30.9908 C   0  0  0  0  0  0  0  0  0  0  0  0
   27.6017   11.7282   25.4393 C   0  0  0  0  0  0  0  0  0  0  0  0
   26.4194   13.7747   25.9648 C   0  0  0  0  0  0  0  0  0  0  0  0
   27.3227   13.0702   25.1648 C   0  0  0  0  0  0  0  0  0  0  0  0
   29.1803   -0.7245   31.7712 C   0  0  0  0  0  0  0  0  0  0  0  0
   31.4098    5.6719   32.2785 H   0  0  0  0  0  0  0  0  0  0  0  0
   27.0140    6.4355   32.2622 H   0  0  0  0  0  0  0  0  0  0  0  0
   27.1572    6.4142   30.4626 H   0  0  0  0  0  0  0  0  0  0  0  0
   28.5283    4.5263   29.7648 H   0  0  0  0  0  0  0  0  0  0  0  0
   28.1877    4.2378   31.5065 H   0  0  0  0  0  0  0  0  0  0  0  0
   24.8806    7.8036   32.8013 H   0  0  0  0  0  0  0  0  0  0  0  0
   31.8936    4.0242   29.8083 H   0  0  0  0  0  0  0  0  0  0  0  0
   32.1243    3.6299   31.5442 H   0  0  0  0  0  0  0  0  0  0  0  0
   29.9910    2.7837   29.7744 H   0  0  0  0  0  0  0  0  0  0  0  0
   30.1411    2.7714   32.8537 H   0  0  0  0  0  0  0  0  0  0  0  0
   22.4516    7.4784   32.4845 H   0  0  0  0  0  0  0  0  0  0  0  0
   28.8203    9.3608   30.0919 H   0  0  0  0  0  0  0  0  0  0  0  0
   27.4478    9.1299   28.9834 H   0  0  0  0  0  0  0  0  0  0  0  0
   24.8135    4.0873   30.2917 H   0  0  0  0  0  0  0  0  0  0  0  0
   25.5172    3.4784   31.8347 H   0  0  0  0  0  0  0  0  0  0  0  0
   27.8447    2.3716   32.6335 H   0  0  0  0  0  0  0  0  0  0  0  0
   27.9874    1.6553   30.9878 H   0  0  0  0  0  0  0  0  0  0  0  0
   31.8551    1.4264   31.1699 H   0  0  0  0  0  0  0  0  0  0  0  0
   31.2927    0.7730   32.7290 H   0  0  0  0  0  0  0  0  0  0  0  0
   23.3217    9.5951   33.4883 H   0  0  0  0  0  0  0  0  0  0  0  0
   21.7788    9.8501   32.6014 H   0  0  0  0  0  0  0  0  0  0  0  0
   23.3377   10.3679   31.8546 H   0  0  0  0  0  0  0  0  0  0  0  0
   22.8116    8.9167   29.7704 H   0  0  0  0  0  0  0  0  0  0  0  0
   21.2490    8.4545   30.5458 H   0  0  0  0  0  0  0  0  0  0  0  0
   22.3856    7.1757   30.0045 H   0  0  0  0  0  0  0  0  0  0  0  0
   25.4298   10.0130   28.3896 H   0  0  0  0  0  0  0  0  0  0  0  0
   24.3378   11.3997   28.5245 H   0  0  0  0  0  0  0  0  0  0  0  0
   27.2091   10.0503   26.7163 H   0  0  0  0  0  0  0  0  0  0  0  0
   25.1000   13.6975   27.6568 H   0  0  0  0  0  0  0  0  0  0  0  0
   28.1403   11.5404   29.2268 H   0  0  0  0  0  0  0  0  0  0  0  0
   27.8869   11.4545   30.9871 H   0  0  0  0  0  0  0  0  0  0  0  0
   26.0269   12.6412   29.9189 H   0  0  0  0  0  0  0  0  0  0  0  0
   25.4351   11.1545   30.6766 H   0  0  0  0  0  0  0  0  0  0  0  0
   22.4983    3.5303   31.1381 H   0  0  0  0  0  0  0  0  0  0  0  0
   23.2435    2.8389   32.6404 H   0  0  0  0  0  0  0  0  0  0  0  0
   23.5796    2.0869   31.0360 H   0  0  0  0  0  0  0  0  0  0  0  0
   28.8591    0.3509   33.6403 H   0  0  0  0  0  0  0  0  0  0  0  0
   27.3563   -0.0194   32.7320 H   0  0  0  0  0  0  0  0  0  0  0  0
   30.0078    0.2091   29.9843 H   0  0  0  0  0  0  0  0  0  0  0  0
   31.1435   -0.8799   30.8435 H   0  0  0  0  0  0  0  0  0  0  0  0
   28.2987   11.1821   24.8156 H   0  0  0  0  0  0  0  0  0  0  0  0
   26.2012   14.8127   25.7500 H   0  0  0  0  0  0  0  0  0  0  0  0
   27.8042   13.5627   24.3302 H   0  0  0  0  0  0  0  0  0  0  0  0
   29.5612   -1.5244   32.4427 H   0  0  0  0  0  0  0  0  0  0  0  0
   28.4820   -1.2012   31.0491 H   0  0  0  0  0  0  0  0  0  0  0  0
  2  1  1  0
  3  1  1  0
  4  5  1  0
  5  2  1  0
  6  1  1  0
  4  7  1  6
  8  7  1  0
  9  3  1  0
  3 10  1  0
 11  6  1  0
 12  8  1  0
 13 12  1  0
 14  4  2  0
 15  2  2  0
 16 10  1  0
 17 10  2  0
 18 13  2  0
 11 19  1  0
  8 20  1  0
 22 28  1  0
 23 13  1  0
 24 19  1  0
 25 19  1  0
 26 20  1  0
 27 20  1  0
 28 32  1  0
 29 22  2  0
 30 22  1  0
 31 21  1  0
 32 31  1  0
 33 23  1  0
 34 24  1  0
 35 25  1  0
 36 29  1  0
 37 30  2  0
 38 36  2  0
 39 34  1  0
  9 11  1  0
 39 35  1  0
 38 37  1  0
  4 21  1  0
  3 40  1  1
  5 41  1  0
  5 42  1  0
  6 43  1  0
  6 44  1  0
  8 45  1  1
  9 46  1  0
  9 47  1  0
 11 48  1  6
 19 49  1  0
 20 50  1  0
 21 51  1  0
 21 52  1  0
 23 53  1  0
 23 54  1  0
 24 55  1  0
 24 56  1  0
 25 57  1  0
 25 58  1  0
 26 59  1  0
 26 60  1  0
 26 61  1  0
 27 62  1  0
 27 63  1  0
 27 64  1  0
 28 65  1  0
 28 66  1  0
 29 67  1  0
 30 68  1  0
 31 69  1  0
 31 70  1  0
 32 71  1  0
 32 72  1  0
 33 73  1  0
 33 74  1  0
 33 75  1  0
 34 76  1  0
 34 77  1  0
 35 78  1  0
 35 79  1  0
 36 80  1  0
 37 81  1  0
 38 82  1  0
 39 83  1  0
 39 84  1  0
M  CHG  1  16  -1
M  END
> <Uni-Dock RESULT> 
ENERGY=   -4.094  LOWER_BOUND=    0.000  UPPER_BOUND=    0.000
INTER + INTRA:          -4.094
INTER:                  -4.094
INTRA:                   0.000
UNBOUND:                 0.000

$$$$

     RDKit          3D

 84 86  0  0  0  0  0  0  0  0999 V2000
   32.1093    7.1249   31.4621 N   0  0  0  0  0  0  0  0  0  0  0  0
   30.9068    7.1712   32.2567 C   0  0  0  0  0  0  0  0  0  0  0  0
   33.1628    8.1201   31.5581 C   0  0  1  0  0  0  0  0  0  0  0  0
   28.1832    6.6470   32.6018 P   0  0  1  0  0  0  0  0  0  0  0  0
   29.8564    6.1064   32.1029 C   0  0  0  0  0  0  0  0  0  0  0  0
   32.4932    5.9637   30.6787 C   0  0  0  0  0  0  0  0  0  0  0  0
   27.0205    5.4597   32.1912 O   0  0  0  0  0  0  0  0  0  0  0  0
   27.4363    4.1898   32.6508 C   0  0  2  0  0  0  0  0  0  0  0  0
   34.3026    7.6132   30.6722 C   0  0  0  0  0  0  0  0  0  0  0  0
   32.6680    9.4659   31.1056 C   0  0  0  0  0  0  0  0  0  0  0  0
   33.9741    6.1488   30.2983 C   0  0  1  0  0  0  0  0  0  0  0  0
   28.3269    3.6163   31.6897 O   0  0  0  0  0  0  0  0  0  0  0  0
   29.2619    2.6218   31.9924 C   0  0  0  0  0  0  0  0  0  0  0  0
   28.1564    6.8913   34.0951 O   0  0  0  0  0  0  0  0  0  0  0  0
   30.7829    8.0530   33.1518 O   0  0  0  0  0  0  0  0  0  0  0  0
   31.8851    9.5772   29.9622 O   0  0  0  0  0  0  0  0  0  0  0  0
   32.9904   10.5036   31.7413 O   0  0  0  0  0  0  0  0  0  0  0  0
   29.3429    2.1447   33.1566 O   0  0  0  0  0  0  0  0  0  0  0  0
   34.9448    5.1273   30.9797 C   0  0  0  0  0  0  0  0  0  0  0  0
   26.2020    3.2777   32.8244 C   0  0  0  0  0  0  0  0  0  0  0  0
   27.7596    8.1921   31.7211 C   0  0  0  0  0  0  0  0  0  0  0  0
   24.3911    8.8856   30.0035 C   0  0  0  0  0  0  0  0  0  0  0  0
   30.2145    2.1668   30.9304 C   0  0  0  0  0  0  0  0  0  0  0  0
   34.4529    3.6544   30.8290 C   0  0  0  0  0  0  0  0  0  0  0  0
   36.4030    5.2912   30.4434 C   0  0  0  0  0  0  0  0  0  0  0  0
   25.2693    3.8178   33.9171 C   0  0  0  0  0  0  0  0  0  0  0  0
   25.4336    3.1022   31.5060 C   0  0  0  0  0  0  0  0  0  0  0  0
   24.7656    7.6872   30.8379 C   0  0  0  0  0  0  0  0  0  0  0  0
   25.2726    9.3805   29.0263 C   0  0  0  0  0  0  0  0  0  0  0  0
   23.1615    9.5324   30.2104 C   0  0  0  0  0  0  0  0  0  0  0  0
   26.5222    8.8987   32.3013 C   0  0  0  0  0  0  0  0  0  0  0  0
   25.2120    8.0883   32.2532 C   0  0  0  0  0  0  0  0  0  0  0  0
   30.1479    0.6552   30.7365 C   0  0  0  0  0  0  0  0  0  0  0  0
   35.6018    2.6438   30.9115 C   0  0  0  0  0  0  0  0  0  0  0  0
   36.7198    4.3104   29.3074 C   0  0  0  0  0  0  0  0  0  0  0  0
   24.9265   10.5055   28.2712 C   0  0  0  0  0  0  0  0  0  0  0  0
   22.8194   10.6575   29.4541 C   0  0  0  0  0  0  0  0  0  0  0  0
   23.7015   11.1440   28.4860 C   0  0  0  0  0  0  0  0  0  0  0  0
   36.6202    2.8475   29.7759 C   0  0  0  0  0  0  0  0  0  0  0  0
   33.5101    8.1780   32.6138 H   0  0  0  0  0  0  0  0  0  0  0  0
   30.1555    5.2384   32.7237 H   0  0  0  0  0  0  0  0  0  0  0  0
   29.8008    5.7901   31.0417 H   0  0  0  0  0  0  0  0  0  0  0  0
   31.8682    5.9198   29.7610 H   0  0  0  0  0  0  0  0  0  0  0  0
   32.3082    5.0494   31.2715 H   0  0  0  0  0  0  0  0  0  0  0  0
   27.9413    4.2570   33.6445 H   0  0  0  0  0  0  0  0  0  0  0  0
   34.3843    8.2107   29.7353 H   0  0  0  0  0  0  0  0  0  0  0  0
   35.2629    7.7205   31.2219 H   0  0  0  0  0  0  0  0  0  0  0  0
   34.0694    6.0267   29.1956 H   0  0  0  0  0  0  0  0  0  0  0  0
   34.9629    5.3590   32.0696 H   0  0  0  0  0  0  0  0  0  0  0  0
   26.5528    2.2735   33.1506 H   0  0  0  0  0  0  0  0  0  0  0  0
   28.6175    8.8886   31.8064 H   0  0  0  0  0  0  0  0  0  0  0  0
   27.6290    7.9745   30.6431 H   0  0  0  0  0  0  0  0  0  0  0  0
   29.9614    2.6655   29.9703 H   0  0  0  0  0  0  0  0  0  0  0  0
   31.2477    2.4633   31.2159 H   0  0  0  0  0  0  0  0  0  0  0  0
   33.7378    3.4099   31.6436 H   0  0  0  0  0  0  0  0  0  0  0  0
   33.9283    3.5161   29.8564 H   0  0  0  0  0  0  0  0  0  0  0  0
   36.6004    6.3192   30.0748 H   0  0  0  0  0  0  0  0  0  0  0  0
   37.1182    5.1105   31.2769 H   0  0  0  0  0  0  0  0  0  0  0  0
   25.8220    3.9288   34.8742 H   0  0  0  0  0  0  0  0  0  0  0  0
   24.4282    3.1115   34.0858 H   0  0  0  0  0  0  0  0  0  0  0  0
   24.8506    4.8047   33.6269 H   0  0  0  0  0  0  0  0  0  0  0  0
   25.0387    4.0760   31.1449 H   0  0  0  0  0  0  0  0  0  0  0  0
   24.5807    2.4053   31.6503 H   0  0  0  0  0  0  0  0  0  0  0  0
   26.0956    2.6708   30.7258 H   0  0  0  0  0  0  0  0  0  0  0  0
   25.5509    7.0841   30.3370 H   0  0  0  0  0  0  0  0  0  0  0  0
   23.8816    7.0186   30.9224 H   0  0  0  0  0  0  0  0  0  0  0  0
   26.2259    8.9000   28.8490 H   0  0  0  0  0  0  0  0  0  0  0  0
   22.4706    9.1682   30.9609 H   0  0  0  0  0  0  0  0  0  0  0  0
   26.3763    9.8563   31.7564 H   0  0  0  0  0  0  0  0  0  0  0  0
   26.7290    9.1669   33.3597 H   0  0  0  0  0  0  0  0  0  0  0  0
   24.4087    8.6955   32.7249 H   0  0  0  0  0  0  0  0  0  0  0  0
   25.3093    7.1790   32.8799 H   0  0  0  0  0  0  0  0  0  0  0  0
   29.1122    0.3410   30.4827 H   0  0  0  0  0  0  0  0  0  0  0  0
   30.4744    0.1329   31.6622 H   0  0  0  0  0  0  0  0  0  0  0  0
   30.8243    0.3569   29.9072 H   0  0  0  0  0  0  0  0  0  0  0  0
   36.1121    2.7572   31.8941 H   0  0  0  0  0  0  0  0  0  0  0  0
   35.1936    1.6108   30.8633 H   0  0  0  0  0  0  0  0  0  0  0  0
   36.0085    4.4818   28.4705 H   0  0  0  0  0  0  0  0  0  0  0  0
   37.7436    4.5045   28.9208 H   0  0  0  0  0  0  0  0  0  0  0  0
   25.6074   10.8810   27.5172 H   0  0  0  0  0  0  0  0  0  0  0  0
   21.8698   11.1501   29.6178 H   0  0  0  0  0  0  0  0  0  0  0  0
   23.4351   12.0136   27.8996 H   0  0  0  0  0  0  0  0  0  0  0  0
   37.6170    2.5044   30.1290 H   0  0  0  0  0  0  0  0  0  0  0  0
   36.3383    2.2123   28.9079 H   0  0  0  0  0  0  0  0  0  0  0  0
  2  1  1  0
  3  1  1  0
  4  5  1  0
  5  2  1  0
  6  1  1  0
  4  7  1  6
  8  7  1  0
  9  3  1  0
  3 10  1  0
 11  6  1  0
 12  8  1  0
 13 12  1  0
 14  4  2  0
 15  2  2  0
 16 10  1  0
 17 10  2  0
 18 13  2  0
 11 19  1  0
  8 20  1  0
 22 28  1  0
 23 13  1  0
 24 19  1  0
 25 19  1  0
 26 20  1  0
 27 20  1  0
 28 32  1  0
 29 22  2  0
 30 22  1  0
 31 21  1  0
 32 31  1  0
 33 23  1  0
 34 24  1  0
 35 25  1  0
 36 29  1  0
 37 30  2  0
 38 36  2  0
 39 34  1  0
  9 11  1  0
 39 35  1  0
 38 37  1  0
  4 21  1  0
  3 40  1  1
  5 41  1  0
  5 42  1  0
  6 43  1  0
  6 44  1  0
  8 45  1  1
  9 46  1  0
  9 47  1  0
 11 48  1  6
 19 49  1  0
 20 50  1  0
 21 51  1  0
 21 52  1  0
 23 53  1  0
 23 54  1  0
 24 55  1  0
 24 56  1  0
 25 57  1  0
 25 58  1  0
 26 59  1  0
 26 60  1  0
 26 61  1  0
 27 62  1  0
 27 63  1  0
 27 64  1  0
 28 65  1  0
 28 66  1  0
 29 67  1  0
 30 68  1  0
 31 69  1  0
 31 70  1  0
 32 71  1  0
 32 72  1  0
 33 73  1  0
 33 74  1  0
 33 75  1  0
 34 76  1  0
 34 77  1  0
 35 78  1  0
 35 79  1  0
 36 80  1  0
 37 81  1  0
 38 82  1  0
 39 83  1  0
 39 84  1  0
M  CHG  1  16  -1
M  END
> <Uni-Dock RESULT> 
ENERGY=   -3.824  LOWER_BOUND=    2.841  UPPER_BOUND=    5.015
INTER + INTRA:          -3.824
INTER:                  -3.824
INTRA:                   0.000
UNBOUND:                 0.000

$$$$

     RDKit          3D

 84 86  0  0  0  0  0  0  0  0999 V2000
   24.7531    8.5902   29.9472 N   0  0  0  0  0  0  0  0  0  0  0  0
   25.1936    9.4047   28.8418 C   0  0  0  0  0  0  0  0  0  0  0  0
   23.3609    8.2430   30.1720 C   0  0  1  0  0  0  0  0  0  0  0  0
   26.9630   11.2561   27.7223 P   0  0  1  0  0  0  0  0  0  0  0  0
   26.6527    9.7257   28.6723 C   0  0  0  0  0  0  0  0  0  0  0  0
   25.6692    7.8427   30.7908 C   0  0  0  0  0  0  0  0  0  0  0  0
   28.6251   11.6634   27.7647 O   0  0  0  0  0  0  0  0  0  0  0  0
   29.4119   10.5397   27.4253 C   0  0  2  0  0  0  0  0  0  0  0  0
   23.3568    7.2549   31.3401 C   0  0  0  0  0  0  0  0  0  0  0  0
   22.5488    9.4696   30.4830 C   0  0  0  0  0  0  0  0  0  0  0  0
   24.8234    6.8280   31.5827 C   0  0  1  0  0  0  0  0  0  0  0  0
   29.6031    9.7363   28.5931 O   0  0  0  0  0  0  0  0  0  0  0  0
   29.9191    8.3748   28.5569 C   0  0  0  0  0  0  0  0  0  0  0  0
   26.5238   11.0571   26.2877 O   0  0  0  0  0  0  0  0  0  0  0  0
   24.3634    9.7655   27.9617 O   0  0  0  0  0  0  0  0  0  0  0  0
   23.0410   10.4339   31.3553 O   0  0  0  0  0  0  0  0  0  0  0  0
   21.4029    9.6122   29.9817 O   0  0  0  0  0  0  0  0  0  0  0  0
   30.0894    7.7806   27.4581 O   0  0  0  0  0  0  0  0  0  0  0  0
   25.0817    5.3341   31.1936 C   0  0  0  0  0  0  0  0  0  0  0  0
   30.7813   11.0147   26.8917 C   0  0  0  0  0  0  0  0  0  0  0  0
   26.0171   12.6320   28.4668 C   0  0  0  0  0  0  0  0  0  0  0  0
   27.4246   16.1423   29.1558 C   0  0  0  0  0  0  0  0  0  0  0  0
   29.9953    7.6079   29.8408 C   0  0  0  0  0  0  0  0  0  0  0  0
   26.6018    4.9829   31.1754 C   0  0  0  0  0  0  0  0  0  0  0  0
   24.2911    4.3632   32.1280 C   0  0  0  0  0  0  0  0  0  0  0  0
   30.6180   11.8036   25.5853 C   0  0  0  0  0  0  0  0  0  0  0  0
   31.5374   11.8552   27.9315 C   0  0  0  0  0  0  0  0  0  0  0  0
   28.1101   15.0022   28.4466 C   0  0  0  0  0  0  0  0  0  0  0  0
   26.7197   15.9202   30.3520 C   0  0  0  0  0  0  0  0  0  0  0  0
   27.4680   17.4376   28.6143 C   0  0  0  0  0  0  0  0  0  0  0  0
   25.9523   13.8778   27.5664 C   0  0  0  0  0  0  0  0  0  0  0  0
   27.3108   14.5209   27.2248 C   0  0  0  0  0  0  0  0  0  0  0  0
   31.3392    6.9007   29.9854 C   0  0  0  0  0  0  0  0  0  0  0  0
   26.8592    3.4909   31.4113 C   0  0  0  0  0  0  0  0  0  0  0  0
   25.1469    3.8495   33.2927 C   0  0  0  0  0  0  0  0  0  0  0  0
   26.0688   16.9794   30.9923 C   0  0  0  0  0  0  0  0  0  0  0  0
   26.8152   18.4939   29.2570 C   0  0  0  0  0  0  0  0  0  0  0  0
   26.1156   18.2647   30.4444 C   0  0  0  0  0  0  0  0  0  0  0  0
   26.3571    3.0394   32.7941 C   0  0  0  0  0  0  0  0  0  0  0  0
   22.9614    7.7435   29.2612 H   0  0  0  0  0  0  0  0  0  0  0  0
   27.1323    8.8736   28.1508 H   0  0  0  0  0  0  0  0  0  0  0  0
   27.1235    9.8517   29.6682 H   0  0  0  0  0  0  0  0  0  0  0  0
   26.1751    8.5427   31.4899 H   0  0  0  0  0  0  0  0  0  0  0  0
   26.4385    7.3656   30.1566 H   0  0  0  0  0  0  0  0  0  0  0  0
   28.9347    9.9317   26.6194 H   0  0  0  0  0  0  0  0  0  0  0  0
   22.9646    7.7278   32.2696 H   0  0  0  0  0  0  0  0  0  0  0  0
   22.6877    6.4028   31.0906 H   0  0  0  0  0  0  0  0  0  0  0  0
   25.0601    6.9448   32.6645 H   0  0  0  0  0  0  0  0  0  0  0  0
   24.6968    5.1867   30.1582 H   0  0  0  0  0  0  0  0  0  0  0  0
   31.3984   10.1170   26.6653 H   0  0  0  0  0  0  0  0  0  0  0  0
   24.9784   12.2869   28.6413 H   0  0  0  0  0  0  0  0  0  0  0  0
   26.4451   12.8755   29.4587 H   0  0  0  0  0  0  0  0  0  0  0  0
   29.8605    8.3055   30.6951 H   0  0  0  0  0  0  0  0  0  0  0  0
   29.1728    6.8598   29.8680 H   0  0  0  0  0  0  0  0  0  0  0  0
   27.0373    5.2417   30.1864 H   0  0  0  0  0  0  0  0  0  0  0  0
   27.1455    5.5640   31.9545 H   0  0  0  0  0  0  0  0  0  0  0  0
   23.3825    4.8383   32.5527 H   0  0  0  0  0  0  0  0  0  0  0  0
   23.9432    3.4898   31.5322 H   0  0  0  0  0  0  0  0  0  0  0  0
   30.0856   11.1889   24.8287 H   0  0  0  0  0  0  0  0  0  0  0  0
   31.6145   12.0703   25.1721 H   0  0  0  0  0  0  0  0  0  0  0  0
   30.0440   12.7387   25.7576 H   0  0  0  0  0  0  0  0  0  0  0  0
   30.9740   12.7807   28.1783 H   0  0  0  0  0  0  0  0  0  0  0  0
   32.5359   12.1422   27.5385 H   0  0  0  0  0  0  0  0  0  0  0  0
   31.6945   11.2707   28.8624 H   0  0  0  0  0  0  0  0  0  0  0  0
   28.3037   14.1602   29.1429 H   0  0  0  0  0  0  0  0  0  0  0  0
   29.1103   15.3435   28.1023 H   0  0  0  0  0  0  0  0  0  0  0  0
   26.6711   14.9310   30.7883 H   0  0  0  0  0  0  0  0  0  0  0  0
   28.0030   17.6280   27.6919 H   0  0  0  0  0  0  0  0  0  0  0  0
   25.3066   14.6356   28.0604 H   0  0  0  0  0  0  0  0  0  0  0  0
   25.4459   13.6041   26.6158 H   0  0  0  0  0  0  0  0  0  0  0  0
   27.1275   15.3865   26.5514 H   0  0  0  0  0  0  0  0  0  0  0  0
   27.9269   13.8091   26.6392 H   0  0  0  0  0  0  0  0  0  0  0  0
   32.1726    7.6340   29.9268 H   0  0  0  0  0  0  0  0  0  0  0  0
   31.4622    6.1391   29.1847 H   0  0  0  0  0  0  0  0  0  0  0  0
   31.3846    6.3871   30.9694 H   0  0  0  0  0  0  0  0  0  0  0  0
   26.3421    2.9058   30.6181 H   0  0  0  0  0  0  0  0  0  0  0  0
   27.9479    3.2824   31.3253 H   0  0  0  0  0  0  0  0  0  0  0  0
   25.5013    4.7156   33.8928 H   0  0  0  0  0  0  0  0  0  0  0  0
   24.5266    3.2124   33.9596 H   0  0  0  0  0  0  0  0  0  0  0  0
   25.5299   16.8041   31.9153 H   0  0  0  0  0  0  0  0  0  0  0  0
   26.8539   19.4897   28.8349 H   0  0  0  0  0  0  0  0  0  0  0  0
   25.6124   19.0831   30.9423 H   0  0  0  0  0  0  0  0  0  0  0  0
   26.0828    1.9636   32.7369 H   0  0  0  0  0  0  0  0  0  0  0  0
   27.1805    3.1335   33.5354 H   0  0  0  0  0  0  0  0  0  0  0  0
  2  1  1  0
  3  1  1  0
  4  5  1  0
  5  2  1  0
  6  1  1  0
  4  7  1  6
  8  7  1  0
  9  3  1  0
  3 10  1  0
 11  6  1  0
 12  8  1  0
 13 12  1  0
 14  4  2  0
 15  2  2  0
 16 10  1  0
 17 10  2  0
 18 13  2  0
 11 19  1  0
  8 20  1  0
 22 28  1  0
 23 13  1  0
 24 19  1  0
 25 19  1  0
 26 20  1  0
 27 20  1  0
 28 32  1  0
 29 22  2  0
 30 22  1  0
 31 21  1  0
 32 31  1  0
 33 23  1  0
 34 24  1  0
 35 25  1  0
 36 29  1  0
 37 30  2  0
 38 36  2  0
 39 34  1  0
  9 11  1  0
 39 35  1  0
 38 37  1  0
  4 21  1  0
  3 40  1  1
  5 41  1  0
  5 42  1  0
  6 43  1  0
  6 44  1  0
  8 45  1  1
  9 46  1  0
  9 47  1  0
 11 48  1  6
 19 49  1  0
 20 50  1  0
 21 51  1  0
 21 52  1  0
 23 53  1  0
 23 54  1  0
 24 55  1  0
 24 56  1  0
 25 57  1  0
 25 58  1  0
 26 59  1  0
 26 60  1  0
 26 61  1  0
 27 62  1  0
 27 63  1  0
 27 64  1  0
 28 65  1  0
 28 66  1  0
 29 67  1  0
 30 68  1  0
 31 69  1  0
 31 70  1  0
 32 71  1  0
 32 72  1  0
 33 73  1  0
 33 74  1  0
 33 75  1  0
 34 76  1  0
 34 77  1  0
 35 78  1  0
 35 79  1  0
 36 80  1  0
 37 81  1  0
 38 82  1  0
 39 83  1  0
 39 84  1  0
M  CHG  1  16  -1
M  END
> <Uni-Dock RESULT> 
ENERGY=   -3.766  LOWER_BOUND=    3.355  UPPER_BOUND=    6.979
INTER + INTRA:          -3.766
INTER:                  -3.766
INTRA:                   0.000
UNBOUND:                 0.000

$$$$

     RDKit          3D

 84 86  0  0  0  0  0  0  0  0999 V2000
   26.9594    4.1146   32.8689 N   0  0  0  0  0  0  0  0  0  0  0  0
   27.0954    5.5501   32.8593 C   0  0  0  0  0  0  0  0  0  0  0  0
   27.6840    3.2548   33.7881 C   0  0  1  0  0  0  0  0  0  0  0  0
   27.0767    7.9984   31.5112 P   0  0  1  0  0  0  0  0  0  0  0  0
   26.3142    6.3780   31.8768 C   0  0  0  0  0  0  0  0  0  0  0  0
   25.9157    3.4159   32.1393 C   0  0  0  0  0  0  0  0  0  0  0  0
   26.2496    8.7766   30.2304 O   0  0  0  0  0  0  0  0  0  0  0  0
   24.8579    8.7752   30.4759 C   0  0  2  0  0  0  0  0  0  0  0  0
   27.1356    1.8439   33.5658 C   0  0  0  0  0  0  0  0  0  0  0  0
   29.1631    3.3203   33.5262 C   0  0  0  0  0  0  0  0  0  0  0  0
   25.8667    1.9792   32.6920 C   0  0  1  0  0  0  0  0  0  0  0  0
   24.3103    7.5278   30.0402 O   0  0  0  0  0  0  0  0  0  0  0  0
   23.1082    6.9971   30.5181 C   0  0  0  0  0  0  0  0  0  0  0  0
   27.0318    8.8678   32.7492 O   0  0  0  0  0  0  0  0  0  0  0  0
   27.7967    6.1172   33.7428 O   0  0  0  0  0  0  0  0  0  0  0  0
   29.6464    3.2923   32.2229 O   0  0  0  0  0  0  0  0  0  0  0  0
   29.9735    3.3652   34.4885 O   0  0  0  0  0  0  0  0  0  0  0  0
   22.4115    7.6299   31.3569 O   0  0  0  0  0  0  0  0  0  0  0  0
   24.5592    1.6395   33.4827 C   0  0  0  0  0  0  0  0  0  0  0  0
   24.1982    9.9331   29.6950 C   0  0  0  0  0  0  0  0  0  0  0  0
   28.8145    7.7476   31.0019 C   0  0  0  0  0  0  0  0  0  0  0  0
   30.4894    9.4621   27.9964 C   0  0  0  0  0  0  0  0  0  0  0  0
   22.6811    5.6343   30.0682 C   0  0  0  0  0  0  0  0  0  0  0  0
   23.2725    2.0373   32.6950 C   0  0  0  0  0  0  0  0  0  0  0  0
   24.5241    0.1326   33.8935 C   0  0  0  0  0  0  0  0  0  0  0  0
   24.6971   11.2927   30.2032 C   0  0  0  0  0  0  0  0  0  0  0  0
   24.4364    9.8088   28.1827 C   0  0  0  0  0  0  0  0  0  0  0  0
   29.1032    9.7065   28.5365 C   0  0  0  0  0  0  0  0  0  0  0  0
   30.9729    8.1519   27.8337 C   0  0  0  0  0  0  0  0  0  0  0  0
   31.3198   10.5466   27.6687 C   0  0  0  0  0  0  0  0  0  0  0  0
   29.6327    9.0503   30.9827 C   0  0  0  0  0  0  0  0  0  0  0  0
   29.1284   10.1363   30.0123 C   0  0  0  0  0  0  0  0  0  0  0  0
   21.2795    5.6627   29.4668 C   0  0  0  0  0  0  0  0  0  0  0  0
   22.0538    1.2063   33.1097 C   0  0  0  0  0  0  0  0  0  0  0  0
   23.7345   -0.7250   32.8965 C   0  0  0  0  0  0  0  0  0  0  0  0
   32.2676    7.9343   27.3520 C   0  0  0  0  0  0  0  0  0  0  0  0
   32.6139   10.3250   27.1882 C   0  0  0  0  0  0  0  0  0  0  0  0
   33.0876    9.0200   27.0309 C   0  0  0  0  0  0  0  0  0  0  0  0
   22.2601   -0.2903   32.8165 C   0  0  0  0  0  0  0  0  0  0  0  0
   27.4681    3.5775   34.8312 H   0  0  0  0  0  0  0  0  0  0  0  0
   25.3016    6.5418   32.2962 H   0  0  0  0  0  0  0  0  0  0  0  0
   26.2240    5.8292   30.9177 H   0  0  0  0  0  0  0  0  0  0  0  0
   26.1749    3.3984   31.0590 H   0  0  0  0  0  0  0  0  0  0  0  0
   24.9618    3.9608   32.2609 H   0  0  0  0  0  0  0  0  0  0  0  0
   24.6309    8.9331   31.5577 H   0  0  0  0  0  0  0  0  0  0  0  0
   27.8717    1.2029   33.0286 H   0  0  0  0  0  0  0  0  0  0  0  0
   26.9397    1.3723   34.5533 H   0  0  0  0  0  0  0  0  0  0  0  0
   25.9405    1.2724   31.8347 H   0  0  0  0  0  0  0  0  0  0  0  0
   24.5702    2.2403   34.4213 H   0  0  0  0  0  0  0  0  0  0  0  0
   23.1004    9.8926   29.8715 H   0  0  0  0  0  0  0  0  0  0  0  0
   29.2938    7.0581   31.7252 H   0  0  0  0  0  0  0  0  0  0  0  0
   28.8375    7.2445   30.0155 H   0  0  0  0  0  0  0  0  0  0  0  0
   23.3945    5.2582   29.3039 H   0  0  0  0  0  0  0  0  0  0  0  0
   22.7026    4.9402   30.9370 H   0  0  0  0  0  0  0  0  0  0  0  0
   23.0268    3.1038   32.8871 H   0  0  0  0  0  0  0  0  0  0  0  0
   23.4313    1.9116   31.5999 H   0  0  0  0  0  0  0  0  0  0  0  0
   25.5420   -0.2994   33.9876 H   0  0  0  0  0  0  0  0  0  0  0  0
   24.0469    0.0409   34.8948 H   0  0  0  0  0  0  0  0  0  0  0  0
   24.5095   11.3882   31.2938 H   0  0  0  0  0  0  0  0  0  0  0  0
   24.1566   12.1157   29.6881 H   0  0  0  0  0  0  0  0  0  0  0  0
   25.7852   11.4102   30.0137 H   0  0  0  0  0  0  0  0  0  0  0  0
   25.5207    9.8668   27.9463 H   0  0  0  0  0  0  0  0  0  0  0  0
   23.9120   10.6267   27.6443 H   0  0  0  0  0  0  0  0  0  0  0  0
   24.0371    8.8438   27.8053 H   0  0  0  0  0  0  0  0  0  0  0  0
   28.4608    8.8120   28.4013 H   0  0  0  0  0  0  0  0  0  0  0  0
   28.6236   10.5137   27.9415 H   0  0  0  0  0  0  0  0  0  0  0  0
   30.3524    7.3001   28.0801 H   0  0  0  0  0  0  0  0  0  0  0  0
   30.9665   11.5632   27.7904 H   0  0  0  0  0  0  0  0  0  0  0  0
   30.6860    8.8003   30.7312 H   0  0  0  0  0  0  0  0  0  0  0  0
   29.6467    9.4771   32.0087 H   0  0  0  0  0  0  0  0  0  0  0  0
   29.7840   11.0284   30.1158 H   0  0  0  0  0  0  0  0  0  0  0  0
   28.1157   10.4704   30.3155 H   0  0  0  0  0  0  0  0  0  0  0  0
   21.2355    6.3782   28.6171 H   0  0  0  0  0  0  0  0  0  0  0  0
   20.5353    5.9605   30.2374 H   0  0  0  0  0  0  0  0  0  0  0  0
   21.0145    4.6502   29.0945 H   0  0  0  0  0  0  0  0  0  0  0  0
   21.8720    1.3508   34.1983 H   0  0  0  0  0  0  0  0  0  0  0  0
   21.1531    1.5700   32.5687 H   0  0  0  0  0  0  0  0  0  0  0  0
   24.2026   -0.6379   31.8919 H   0  0  0  0  0  0  0  0  0  0  0  0
   23.7878   -1.7934   33.1984 H   0  0  0  0  0  0  0  0  0  0  0  0
   32.6344    6.9231   27.2252 H   0  0  0  0  0  0  0  0  0  0  0  0
   33.2479   11.1651   26.9365 H   0  0  0  0  0  0  0  0  0  0  0  0
   34.0886    8.8493   26.6570 H   0  0  0  0  0  0  0  0  0  0  0  0
   21.6616   -0.8792   33.5451 H   0  0  0  0  0  0  0  0  0  0  0  0
   21.8725   -0.5251   31.8011 H   0  0  0  0  0  0  0  0  0  0  0  0
  2  1  1  0
  3  1  1  0
  4  5  1  0
  5  2  1  0
  6  1  1  0
  4  7  1  6
  8  7  1  0
  9  3  1  0
  3 10  1  0
 11  6  1  0
 12  8  1  0
 13 12  1  0
 14  4  2  0
 15  2  2  0
 16 10  1  0
 17 10  2  0
 18 13  2  0
 11 19  1  0
  8 20  1  0
 22 28  1  0
 23 13  1  0
 24 19  1  0
 25 19  1  0
 26 20  1  0
 27 20  1  0
 28 32  1  0
 29 22  2  0
 30 22  1  0
 31 21  1  0
 32 31  1  0
 33 23  1  0
 34 24  1  0
 35 25  1  0
 36 29  1  0
 37 30  2  0
 38 36  2  0
 39 34  1  0
  9 11  1  0
 39 35  1  0
 38 37  1  0
  4 21  1  0
  3 40  1  1
  5 41  1  0
  5 42  1  0
  6 43  1  0
  6 44  1  0
  8 45  1  1
  9 46  1  0
  9 47  1  0
 11 48  1  6
 19 49  1  0
 20 50  1  0
 21 51  1  0
 21 52  1  0
 23 53  1  0
 23 54  1  0
 24 55  1  0
 24 56  1  0
 25 57  1  0
 25 58  1  0
 26 59  1  0
 26 60  1  0
 26 61  1  0
 27 62  1  0
 27 63  1  0
 27 64  1  0
 28 65  1  0
 28 66  1  0
 29 67  1  0
 30 68  1  0
 31 69  1  0
 31 70  1  0
 32 71  1  0
 32 72  1  0
 33 73  1  0
 33 74  1  0
 33 75  1  0
 34 76  1  0
 34 77  1  0
 35 78  1  0
 35 79  1  0
 36 80  1  0
 37 81  1  0
 38 82  1  0
 39 83  1  0
 39 84  1  0
M  CHG  1  16  -1
M  END
> <Uni-Dock RESULT> 
ENERGY=   -3.738  LOWER_BOUND=    2.938  UPPER_BOUND=    4.564
INTER + INTRA:          -3.738
INTER:                  -3.738
INTRA:                   0.000
UNBOUND:                 0.000

$$$$

     RDKit          3D

 84 86  0  0  0  0  0  0  0  0999 V2000
   24.8622   12.1729   28.3272 N   0  0  0  0  0  0  0  0  0  0  0  0
   26.1961   12.6018   27.9867 C   0  0  0  0  0  0  0  0  0  0  0  0
   24.5892   11.0131   29.1577 C   0  0  1  0  0  0  0  0  0  0  0  0
   28.0003   13.8141   26.2296 P   0  0  1  0  0  0  0  0  0  0  0  0
   26.4038   13.8126   27.1196 C   0  0  0  0  0  0  0  0  0  0  0  0
   23.6849   12.9877   28.0831 C   0  0  0  0  0  0  0  0  0  0  0  0
   28.0611   15.1043   25.1063 O   0  0  0  0  0  0  0  0  0  0  0  0
   27.6865   16.3146   25.7323 C   0  0  2  0  0  0  0  0  0  0  0  0
   23.0774   11.0105   29.3932 C   0  0  0  0  0  0  0  0  0  0  0  0
   25.0446    9.7514   28.4783 C   0  0  0  0  0  0  0  0  0  0  0  0
   22.5370   12.3760   28.9079 C   0  0  1  0  0  0  0  0  0  0  0  0
   26.2597   16.4147   25.7344 O   0  0  0  0  0  0  0  0  0  0  0  0
   25.5372   17.2065   26.6321 C   0  0  0  0  0  0  0  0  0  0  0  0
   29.1323   13.9514   27.2247 O   0  0  0  0  0  0  0  0  0  0  0  0
   27.1906   12.0166   28.4991 O   0  0  0  0  0  0  0  0  0  0  0  0
   24.7917    9.5528   27.1257 O   0  0  0  0  0  0  0  0  0  0  0  0
   25.6267    8.8525   29.1401 O   0  0  0  0  0  0  0  0  0  0  0  0
   26.1304   17.9185   27.4869 O   0  0  0  0  0  0  0  0  0  0  0  0
   22.0445   13.2765   30.0897 C   0  0  0  0  0  0  0  0  0  0  0  0
   28.2895   17.5035   24.9521 C   0  0  0  0  0  0  0  0  0  0  0  0
   28.1810   12.2447   25.3095 C   0  0  0  0  0  0  0  0  0  0  0  0
   29.3798   11.9617   21.6680 C   0  0  0  0  0  0  0  0  0  0  0  0
   24.0408   17.1563   26.6102 C   0  0  0  0  0  0  0  0  0  0  0  0
   21.7602   14.7422   29.6366 C   0  0  0  0  0  0  0  0  0  0  0  0
   20.7963   12.6525   30.7919 C   0  0  0  0  0  0  0  0  0  0  0  0
   29.8230   17.4765   25.0089 C   0  0  0  0  0  0  0  0  0  0  0  0
   27.8100   17.5293   23.4931 C   0  0  0  0  0  0  0  0  0  0  0  0
   29.3149   13.2049   22.5183 C   0  0  0  0  0  0  0  0  0  0  0  0
   28.3065   11.0538   21.6455 C   0  0  0  0  0  0  0  0  0  0  0  0
   30.5264   11.6893   20.9037 C   0  0  0  0  0  0  0  0  0  0  0  0
   29.6107   12.0080   24.7931 C   0  0  0  0  0  0  0  0  0  0  0  0
   30.1431   13.0652   23.8059 C   0  0  0  0  0  0  0  0  0  0  0  0
   23.4416   18.5487   26.4396 C   0  0  0  0  0  0  0  0  0  0  0  0
   20.7432   15.4460   30.5412 C   0  0  0  0  0  0  0  0  0  0  0  0
   19.4786   13.2278   30.2575 C   0  0  0  0  0  0  0  0  0  0  0  0
   28.3834    9.8923   20.8704 C   0  0  0  0  0  0  0  0  0  0  0  0
   30.5999   10.5265   20.1308 C   0  0  0  0  0  0  0  0  0  0  0  0
   29.5296    9.6285   20.1149 C   0  0  0  0  0  0  0  0  0  0  0  0
   19.3750   14.7422   30.5131 C   0  0  0  0  0  0  0  0  0  0  0  0
   25.1167   11.1328   30.1303 H   0  0  0  0  0  0  0  0  0  0  0  0
   26.3504   14.7104   27.7670 H   0  0  0  0  0  0  0  0  0  0  0  0
   25.5992   13.8669   26.3587 H   0  0  0  0  0  0  0  0  0  0  0  0
   23.4351   12.9529   27.0009 H   0  0  0  0  0  0  0  0  0  0  0  0
   23.9061   14.0354   28.3571 H   0  0  0  0  0  0  0  0  0  0  0  0
   28.0734   16.3738   26.7780 H   0  0  0  0  0  0  0  0  0  0  0  0
   22.5779   10.2022   28.8115 H   0  0  0  0  0  0  0  0  0  0  0  0
   22.8796   10.8184   30.4702 H   0  0  0  0  0  0  0  0  0  0  0  0
   21.6724   12.2022   28.2280 H   0  0  0  0  0  0  0  0  0  0  0  0
   22.8646   13.3176   30.8432 H   0  0  0  0  0  0  0  0  0  0  0  0
   27.9535   18.4465   25.4379 H   0  0  0  0  0  0  0  0  0  0  0  0
   27.9254   11.4093   25.9915 H   0  0  0  0  0  0  0  0  0  0  0  0
   27.4459   12.2195   24.4817 H   0  0  0  0  0  0  0  0  0  0  0  0
   23.7061   16.5134   25.7681 H   0  0  0  0  0  0  0  0  0  0  0  0
   23.6772   16.7050   27.5595 H   0  0  0  0  0  0  0  0  0  0  0  0
   22.6987   15.3362   29.6687 H   0  0  0  0  0  0  0  0  0  0  0  0
   21.3765   14.7596   28.5912 H   0  0  0  0  0  0  0  0  0  0  0  0
   20.7604   11.5491   30.6788 H   0  0  0  0  0  0  0  0  0  0  0  0
   20.8547   12.8574   31.8843 H   0  0  0  0  0  0  0  0  0  0  0  0
   30.1689   17.4745   26.0645 H   0  0  0  0  0  0  0  0  0  0  0  0
   30.2404   18.3787   24.5122 H   0  0  0  0  0  0  0  0  0  0  0  0
   30.2215   16.5744   24.4980 H   0  0  0  0  0  0  0  0  0  0  0  0
   28.1399   16.6168   22.9515 H   0  0  0  0  0  0  0  0  0  0  0  0
   28.2212   18.4194   22.9711 H   0  0  0  0  0  0  0  0  0  0  0  0
   26.7023   17.5926   23.4500 H   0  0  0  0  0  0  0  0  0  0  0  0
   28.2639   13.4687   22.7568 H   0  0  0  0  0  0  0  0  0  0  0  0
   29.7141   14.0612   21.9326 H   0  0  0  0  0  0  0  0  0  0  0  0
   27.4129   11.2412   22.2265 H   0  0  0  0  0  0  0  0  0  0  0  0
   31.3649   12.3749   20.9107 H   0  0  0  0  0  0  0  0  0  0  0  0
   29.6488   11.0083   24.3090 H   0  0  0  0  0  0  0  0  0  0  0  0
   30.3007   11.9630   25.6632 H   0  0  0  0  0  0  0  0  0  0  0  0
   31.1869   12.7947   23.5344 H   0  0  0  0  0  0  0  0  0  0  0  0
   30.2090   14.0505   24.3098 H   0  0  0  0  0  0  0  0  0  0  0  0
   23.8228   19.0247   25.5102 H   0  0  0  0  0  0  0  0  0  0  0  0
   23.6977   19.1883   27.3124 H   0  0  0  0  0  0  0  0  0  0  0  0
   22.3354   18.4713   26.3728 H   0  0  0  0  0  0  0  0  0  0  0  0
   21.1346   15.4578   31.5831 H   0  0  0  0  0  0  0  0  0  0  0  0
   20.6240   16.5026   30.2163 H   0  0  0  0  0  0  0  0  0  0  0  0
   19.4122   13.0299   29.1656 H   0  0  0  0  0  0  0  0  0  0  0  0
   18.6218   12.7127   30.7431 H   0  0  0  0  0  0  0  0  0  0  0  0
   27.5527    9.1975   20.8536 H   0  0  0  0  0  0  0  0  0  0  0  0
   31.4858   10.3235   19.5432 H   0  0  0  0  0  0  0  0  0  0  0  0
   29.5866    8.7298   19.5148 H   0  0  0  0  0  0  0  0  0  0  0  0
   18.8667   14.9183   31.4860 H   0  0  0  0  0  0  0  0  0  0  0  0
   18.7416   15.1963   29.7201 H   0  0  0  0  0  0  0  0  0  0  0  0
  2  1  1  0
  3  1  1  0
  4  5  1  0
  5  2  1  0
  6  1  1  0
  4  7  1  6
  8  7  1  0
  9  3  1  0
  3 10  1  0
 11  6  1  0
 12  8  1  0
 13 12  1  0
 14  4  2  0
 15  2  2  0
 16 10  1  0
 17 10  2  0
 18 13  2  0
 11 19  1  0
  8 20  1  0
 22 28  1  0
 23 13  1  0
 24 19  1  0
 25 19  1  0
 26 20  1  0
 27 20  1  0
 28 32  1  0
 29 22  2  0
 30 22  1  0
 31 21  1  0
 32 31  1  0
 33 23  1  0
 34 24  1  0
 35 25  1  0
 36 29  1  0
 37 30  2  0
 38 36  2  0
 39 34  1  0
  9 11  1  0
 39 35  1  0
 38 37  1  0
  4 21  1  0
  3 40  1  1
  5 41  1  0
  5 42  1  0
  6 43  1  0
  6 44  1  0
  8 45  1  1
  9 46  1  0
  9 47  1  0
 11 48  1  6
 19 49  1  0
 20 50  1  0
 21 51  1  0
 21 52  1  0
 23 53  1  0
 23 54  1  0
 24 55  1  0
 24 56  1  0
 25 57  1  0
 25 58  1  0
 26 59  1  0
 26 60  1  0
 26 61  1  0
 27 62  1  0
 27 63  1  0
 27 64  1  0
 28 65  1  0
 28 66  1  0
 29 67  1  0
 30 68  1  0
 31 69  1  0
 31 70  1  0
 32 71  1  0
 32 72  1  0
 33 73  1  0
 33 74  1  0
 33 75  1  0
 34 76  1  0
 34 77  1  0
 35 78  1  0
 35 79  1  0
 36 80  1  0
 37 81  1  0
 38 82  1  0
 39 83  1  0
 39 84  1  0
M  CHG  1  16  -1
M  END
> <Uni-Dock RESULT> 
ENERGY=   -3.713  LOWER_BOUND=    6.377  UPPER_BOUND=   10.885
INTER + INTRA:          -3.713
INTER:                  -3.713
INTRA:                   0.000
UNBOUND:                 0.000

$$$$

     RDKit          3D

 84 86  0  0  0  0  0  0  0  0999 V2000
   29.6774    7.1230   29.0538 N   0  0  0  0  0  0  0  0  0  0  0  0
   29.7602    5.6834   29.0453 C   0  0  0  0  0  0  0  0  0  0  0  0
   30.2843    7.9590   28.0329 C   0  0  1  0  0  0  0  0  0  0  0  0
   29.8574    3.2326   30.3853 P   0  0  1  0  0  0  0  0  0  0  0  0
   29.1082    4.8812   30.1372 C   0  0  0  0  0  0  0  0  0  0  0  0
   28.7838    7.8568   29.9327 C   0  0  0  0  0  0  0  0  0  0  0  0
   29.2074    2.4805   31.7789 O   0  0  0  0  0  0  0  0  0  0  0  0
   27.7956    2.5339   31.7488 C   0  0  2  0  0  0  0  0  0  0  0  0
   29.8287    9.3883   28.3336 C   0  0  0  0  0  0  0  0  0  0  0  0
   31.7827    7.8382   28.0660 C   0  0  0  0  0  0  0  0  0  0  0  0
   28.7040    9.2964   29.3912 C   0  0  1  0  0  0  0  0  0  0  0  0
   27.3673    3.7991   32.2606 O   0  0  0  0  0  0  0  0  0  0  0  0
   26.1268    4.3753   31.9708 C   0  0  0  0  0  0  0  0  0  0  0  0
   29.5920    2.3700   29.1704 O   0  0  0  0  0  0  0  0  0  0  0  0
   30.2970    5.0942   28.0662 O   0  0  0  0  0  0  0  0  0  0  0  0
   32.4600    7.8436   29.2801 O   0  0  0  0  0  0  0  0  0  0  0  0
   32.4344    7.7671   26.9913 O   0  0  0  0  0  0  0  0  0  0  0  0
   25.2873    3.7716   31.2495 O   0  0  0  0  0  0  0  0  0  0  0  0
   27.3045    9.6869   28.8089 C   0  0  0  0  0  0  0  0  0  0  0  0
   27.2207    1.3982   32.6236 C   0  0  0  0  0  0  0  0  0  0  0  0
   31.6606    3.4175   30.6227 C   0  0  0  0  0  0  0  0  0  0  0  0
   33.7104    1.6315   33.3405 C   0  0  0  0  0  0  0  0  0  0  0  0
   25.8239    5.7513   32.4780 C   0  0  0  0  0  0  0  0  0  0  0  0
   26.1394    9.3336   29.7846 C   0  0  0  0  0  0  0  0  0  0  0  0
   27.2627   11.1955   28.4052 C   0  0  0  0  0  0  0  0  0  0  0  0
   27.5857    0.0231   32.0479 C   0  0  0  0  0  0  0  0  0  0  0  0
   27.6914    1.5082   34.0816 C   0  0  0  0  0  0  0  0  0  0  0  0
   32.2500    1.4402   33.0189 C   0  0  0  0  0  0  0  0  0  0  0  0
   34.2611    2.9225   33.4248 C   0  0  0  0  0  0  0  0  0  0  0  0
   34.5406    0.5161   33.5396 C   0  0  0  0  0  0  0  0  0  0  0  0
   32.4236    2.0856   30.5192 C   0  0  0  0  0  0  0  0  0  0  0  0
   32.0337    1.0152   31.5575 C   0  0  0  0  0  0  0  0  0  0  0  0
   24.5305    5.7721   33.2865 C   0  0  0  0  0  0  0  0  0  0  0  0
   24.9031   10.2104   29.5592 C   0  0  0  0  0  0  0  0  0  0  0  0
   26.6668   12.0779   29.5095 C   0  0  0  0  0  0  0  0  0  0  0  0
   35.6213    3.0906   33.7027 C   0  0  0  0  0  0  0  0  0  0  0  0
   35.9002    0.6883   33.8164 C   0  0  0  0  0  0  0  0  0  0  0  0
   36.4401    1.9744   33.8970 C   0  0  0  0  0  0  0  0  0  0  0  0
   25.2068   11.6973   29.8146 C   0  0  0  0  0  0  0  0  0  0  0  0
   29.8999    7.6483   27.0357 H   0  0  0  0  0  0  0  0  0  0  0  0
   28.0381    4.7563   29.8777 H   0  0  0  0  0  0  0  0  0  0  0  0
   29.1859    5.4294   31.0978 H   0  0  0  0  0  0  0  0  0  0  0  0
   29.2054    7.8609   30.9608 H   0  0  0  0  0  0  0  0  0  0  0  0
   27.8031    7.3479   29.9594 H   0  0  0  0  0  0  0  0  0  0  0  0
   27.4004    2.3885   30.7147 H   0  0  0  0  0  0  0  0  0  0  0  0
   30.6613    9.9998   28.7508 H   0  0  0  0  0  0  0  0  0  0  0  0
   29.5018    9.8704   27.3866 H   0  0  0  0  0  0  0  0  0  0  0  0
   28.9338    9.9969   30.2258 H   0  0  0  0  0  0  0  0  0  0  0  0
   27.1499    9.0895   27.8808 H   0  0  0  0  0  0  0  0  0  0  0  0
   26.1110    1.4796   32.6168 H   0  0  0  0  0  0  0  0  0  0  0  0
   32.0489    4.0916   29.8333 H   0  0  0  0  0  0  0  0  0  0  0  0
   31.8525    3.9157   31.5929 H   0  0  0  0  0  0  0  0  0  0  0  0
   26.6590    6.0980   33.1237 H   0  0  0  0  0  0  0  0  0  0  0  0
   25.7380    6.4473   31.6148 H   0  0  0  0  0  0  0  0  0  0  0  0
   25.8281    8.2776   29.6344 H   0  0  0  0  0  0  0  0  0  0  0  0
   26.4681    9.4494   30.8423 H   0  0  0  0  0  0  0  0  0  0  0  0
   28.2695   11.5902   28.1559 H   0  0  0  0  0  0  0  0  0  0  0  0
   26.6419   11.3084   27.4884 H   0  0  0  0  0  0  0  0  0  0  0  0
   27.2303   -0.0614   30.9989 H   0  0  0  0  0  0  0  0  0  0  0  0
   27.1002   -0.7814   32.6411 H   0  0  0  0  0  0  0  0  0  0  0  0
   28.6848   -0.1350   32.0692 H   0  0  0  0  0  0  0  0  0  0  0  0
   28.7962    1.4095   34.1497 H   0  0  0  0  0  0  0  0  0  0  0  0
   27.2256    0.7081   34.6953 H   0  0  0  0  0  0  0  0  0  0  0  0
   27.3902    2.4857   34.5136 H   0  0  0  0  0  0  0  0  0  0  0  0
   31.6692    2.3572   33.2489 H   0  0  0  0  0  0  0  0  0  0  0  0
   31.8375    0.6490   33.6817 H   0  0  0  0  0  0  0  0  0  0  0  0
   33.6421    3.7974   33.2744 H   0  0  0  0  0  0  0  0  0  0  0  0
   34.1357   -0.4864   33.4754 H   0  0  0  0  0  0  0  0  0  0  0  0
   33.5114    2.2957   30.6064 H   0  0  0  0  0  0  0  0  0  0  0  0
   32.2650    1.6623   29.5040 H   0  0  0  0  0  0  0  0  0  0  0  0
   32.6325    0.1000   31.3568 H   0  0  0  0  0  0  0  0  0  0  0  0
   30.9749    0.7197   31.4131 H   0  0  0  0  0  0  0  0  0  0  0  0
   24.5904    5.0556   34.1343 H   0  0  0  0  0  0  0  0  0  0  0  0
   23.6668    5.5047   32.6392 H   0  0  0  0  0  0  0  0  0  0  0  0
   24.3629    6.7923   33.6929 H   0  0  0  0  0  0  0  0  0  0  0  0
   24.5521   10.0767   28.5115 H   0  0  0  0  0  0  0  0  0  0  0  0
   24.0829    9.8781   30.2322 H   0  0  0  0  0  0  0  0  0  0  0  0
   27.2793   11.9700   30.4309 H   0  0  0  0  0  0  0  0  0  0  0  0
   26.7127   13.1447   29.2008 H   0  0  0  0  0  0  0  0  0  0  0  0
   36.0402    4.0871   33.7699 H   0  0  0  0  0  0  0  0  0  0  0  0
   36.5339   -0.1755   33.9700 H   0  0  0  0  0  0  0  0  0  0  0  0
   37.4921    2.1067   34.1132 H   0  0  0  0  0  0  0  0  0  0  0  0
   24.5263   12.3105   29.1848 H   0  0  0  0  0  0  0  0  0  0  0  0
   24.9878   11.9425   30.8768 H   0  0  0  0  0  0  0  0  0  0  0  0
  2  1  1  0
  3  1  1  0
  4  5  1  0
  5  2  1  0
  6  1  1  0
  4  7  1  6
  8  7  1  0
  9  3  1  0
  3 10  1  0
 11  6  1  0
 12  8  1  0
 13 12  1  0
 14  4  2  0
 15  2  2  0
 16 10  1  0
 17 10  2  0
 18 13  2  0
 11 19  1  0
  8 20  1  0
 22 28  1  0
 23 13  1  0
 24 19  1  0
 25 19  1  0
 26 20  1  0
 27 20  1  0
 28 32  1  0
 29 22  2  0
 30 22  1  0
 31 21  1  0
 32 31  1  0
 33 23  1  0
 34 24  1  0
 35 25  1  0
 36 29  1  0
 37 30  2  0
 38 36  2  0
 39 34  1  0
  9 11  1  0
 39 35  1  0
 38 37  1  0
  4 21  1  0
  3 40  1  1
  5 41  1  0
  5 42  1  0
  6 43  1  0
  6 44  1  0
  8 45  1  1
  9 46  1  0
  9 47  1  0
 11 48  1  6
 19 49  1  0
 20 50  1  0
 21 51  1  0
 21 52  1  0
 23 53  1  0
 23 54  1  0
 24 55  1  0
 24 56  1  0
 25 57  1  0
 25 58  1  0
 26 59  1  0
 26 60  1  0
 26 61  1  0
 27 62  1  0
 27 63  1  0
 27 64  1  0
 28 65  1  0
 28 66  1  0
 29 67  1  0
 30 68  1  0
 31 69  1  0
 31 70  1  0
 32 71  1  0
 32 72  1  0
 33 73  1  0
 33 74  1  0
 33 75  1  0
 34 76  1  0
 34 77  1  0
 35 78  1  0
 35 79  1  0
 36 80  1  0
 37 81  1  0
 38 82  1  0
 39 83  1  0
 39 84  1  0
M  CHG  1  16  -1
M  END
> <Uni-Dock RESULT> 
ENERGY=   -3.695  LOWER_BOUND=    2.939  UPPER_BOUND=    9.249
INTER + INTRA:          -3.695
INTER:                  -3.695
INTRA:                   0.000
UNBOUND:                 0.000

$$$$

     RDKit          3D

 84 86  0  0  0  0  0  0  0  0999 V2000
   29.5797    8.2364   28.7835 N   0  0  0  0  0  0  0  0  0  0  0  0
   29.9482    6.8509   28.9378 C   0  0  0  0  0  0  0  0  0  0  0  0
   30.1550    9.1025   27.7694 C   0  0  1  0  0  0  0  0  0  0  0  0
   30.3284    4.5852   30.5297 P   0  0  1  0  0  0  0  0  0  0  0  0
   29.3119    6.0135   30.0124 C   0  0  0  0  0  0  0  0  0  0  0  0
   28.4354    8.8280   29.4544 C   0  0  0  0  0  0  0  0  0  0  0  0
   29.6384    3.8200   31.8966 O   0  0  0  0  0  0  0  0  0  0  0  0
   28.2654    3.5698   31.6749 C   0  0  2  0  0  0  0  0  0  0  0  0
   29.3835   10.4209   27.8549 C   0  0  0  0  0  0  0  0  0  0  0  0
   31.6248    9.3056   28.0128 C   0  0  0  0  0  0  0  0  0  0  0  0
   28.1530   10.1726   28.7584 C   0  0  1  0  0  0  0  0  0  0  0  0
   27.5212    4.7501   31.9893 O   0  0  0  0  0  0  0  0  0  0  0  0
   26.2490    5.0260   31.4791 C   0  0  0  0  0  0  0  0  0  0  0  0
   30.4271    3.5965   29.3881 O   0  0  0  0  0  0  0  0  0  0  0  0
   30.7334    6.3167   28.1058 O   0  0  0  0  0  0  0  0  0  0  0  0
   32.0960    9.5467   29.2983 O   0  0  0  0  0  0  0  0  0  0  0  0
   32.4324    9.2934   27.0471 O   0  0  0  0  0  0  0  0  0  0  0  0
   25.6656    4.2049   30.7208 O   0  0  0  0  0  0  0  0  0  0  0  0
   26.8082   10.2116   27.9584 C   0  0  0  0  0  0  0  0  0  0  0  0
   27.8030    2.4074   32.5808 C   0  0  0  0  0  0  0  0  0  0  0  0
   32.0016    5.1664   30.9825 C   0  0  0  0  0  0  0  0  0  0  0  0
   33.9316    4.0677   34.1203 C   0  0  0  0  0  0  0  0  0  0  0  0
   25.6048    6.3406   31.7939 C   0  0  0  0  0  0  0  0  0  0  0  0
   25.6031    9.6938   28.8033 C   0  0  0  0  0  0  0  0  0  0  0  0
   26.5279   11.6419   27.3960 C   0  0  0  0  0  0  0  0  0  0  0  0
   28.5176    1.1017   32.2065 C   0  0  0  0  0  0  0  0  0  0  0  0
   28.0166    2.7250   34.0684 C   0  0  0  0  0  0  0  0  0  0  0  0
   32.6043    3.5467   33.6305 C   0  0  0  0  0  0  0  0  0  0  0  0
   34.1946    5.4488   34.1400 C   0  0  0  0  0  0  0  0  0  0  0  0
   34.9276    3.1724   34.5438 C   0  0  0  0  0  0  0  0  0  0  0  0
   33.0215    4.0230   31.1217 C   0  0  0  0  0  0  0  0  0  0  0  0
   32.7005    2.9760   32.2063 C   0  0  0  0  0  0  0  0  0  0  0  0
   24.2262    6.1473   32.4176 C   0  0  0  0  0  0  0  0  0  0  0  0
   24.2653   10.2683   28.3254 C   0  0  0  0  0  0  0  0  0  0  0  0
   25.6081   12.4586   28.3126 C   0  0  0  0  0  0  0  0  0  0  0  0
   35.4360    5.9225   34.5760 C   0  0  0  0  0  0  0  0  0  0  0  0
   36.1679    3.6499   34.9781 C   0  0  0  0  0  0  0  0  0  0  0  0
   36.4220    5.0237   34.9933 C   0  0  0  0  0  0  0  0  0  0  0  0
   24.2244   11.8008   28.4605 C   0  0  0  0  0  0  0  0  0  0  0  0
   29.9954    8.6426   26.7686 H   0  0  0  0  0  0  0  0  0  0  0  0
   28.3400    5.6447   29.6284 H   0  0  0  0  0  0  0  0  0  0  0  0
   29.1326    6.6368   30.9117 H   0  0  0  0  0  0  0  0  0  0  0  0
   28.6875    8.9994   30.5230 H   0  0  0  0  0  0  0  0  0  0  0  0
   27.5833    8.1259   29.4048 H   0  0  0  0  0  0  0  0  0  0  0  0
   28.0680    3.2659   30.6187 H   0  0  0  0  0  0  0  0  0  0  0  0
   30.0046   11.2252   28.3116 H   0  0  0  0  0  0  0  0  0  0  0  0
   29.1139   10.7494   26.8276 H   0  0  0  0  0  0  0  0  0  0  0  0
   28.1098   10.9670   29.5375 H   0  0  0  0  0  0  0  0  0  0  0  0
   26.9179    9.5265   27.0862 H   0  0  0  0  0  0  0  0  0  0  0  0
   26.7134    2.2505   32.4189 H   0  0  0  0  0  0  0  0  0  0  0  0
   32.3625    5.8458   30.1847 H   0  0  0  0  0  0  0  0  0  0  0  0
   31.9414    5.7660   31.9116 H   0  0  0  0  0  0  0  0  0  0  0  0
   26.2466    6.9047   32.5040 H   0  0  0  0  0  0  0  0  0  0  0  0
   25.5133    6.9351   30.8584 H   0  0  0  0  0  0  0  0  0  0  0  0
   25.5349    8.5875   28.7255 H   0  0  0  0  0  0  0  0  0  0  0  0
   25.7383    9.9565   29.8771 H   0  0  0  0  0  0  0  0  0  0  0  0
   27.4616   12.2214   27.2417 H   0  0  0  0  0  0  0  0  0  0  0  0
   26.0429   11.5506   26.3984 H   0  0  0  0  0  0  0  0  0  0  0  0
   28.3488    0.8645   31.1345 H   0  0  0  0  0  0  0  0  0  0  0  0
   28.1183    0.2597   32.8119 H   0  0  0  0  0  0  0  0  0  0  0  0
   29.6101    1.1828   32.3894 H   0  0  0  0  0  0  0  0  0  0  0  0
   29.0955    2.8687   34.2919 H   0  0  0  0  0  0  0  0  0  0  0  0
   27.6323    1.8930   34.6960 H   0  0  0  0  0  0  0  0  0  0  0  0
   27.4647    3.6460   34.3513 H   0  0  0  0  0  0  0  0  0  0  0  0
   31.8244    4.3341   33.6838 H   0  0  0  0  0  0  0  0  0  0  0  0
   32.2625    2.7384   34.3127 H   0  0  0  0  0  0  0  0  0  0  0  0
   33.4436    6.1582   33.8178 H   0  0  0  0  0  0  0  0  0  0  0  0
   34.7452    2.1048   34.5326 H   0  0  0  0  0  0  0  0  0  0  0  0
   34.0196    4.4655   31.3292 H   0  0  0  0  0  0  0  0  0  0  0  0
   33.1057    3.5001   30.1447 H   0  0  0  0  0  0  0  0  0  0  0  0
   33.4930    2.1964   32.1841 H   0  0  0  0  0  0  0  0  0  0  0  0
   31.7561    2.4523   31.9553 H   0  0  0  0  0  0  0  0  0  0  0  0
   24.2989    5.5262   33.3367 H   0  0  0  0  0  0  0  0  0  0  0  0
   23.5411    5.6544   31.6937 H   0  0  0  0  0  0  0  0  0  0  0  0
   23.7991    7.1365   32.6885 H   0  0  0  0  0  0  0  0  0  0  0  0
   24.1105    9.9841   27.2605 H   0  0  0  0  0  0  0  0  0  0  0  0
   23.4357    9.8213   28.9154 H   0  0  0  0  0  0  0  0  0  0  0  0
   26.0834   12.5533   29.3131 H   0  0  0  0  0  0  0  0  0  0  0  0
   25.4865   13.4842   27.9020 H   0  0  0  0  0  0  0  0  0  0  0  0
   35.6328    6.9874   34.5926 H   0  0  0  0  0  0  0  0  0  0  0  0
   36.9303    2.9546   35.3043 H   0  0  0  0  0  0  0  0  0  0  0  0
   37.3815    5.3925   35.3315 H   0  0  0  0  0  0  0  0  0  0  0  0
   23.5384   12.2059   27.6852 H   0  0  0  0  0  0  0  0  0  0  0  0
   23.8029   12.0735   29.4526 H   0  0  0  0  0  0  0  0  0  0  0  0
  2  1  1  0
  3  1  1  0
  4  5  1  0
  5  2  1  0
  6  1  1  0
  4  7  1  6
  8  7  1  0
  9  3  1  0
  3 10  1  0
 11  6  1  0
 12  8  1  0
 13 12  1  0
 14  4  2  0
 15  2  2  0
 16 10  1  0
 17 10  2  0
 18 13  2  0
 11 19  1  0
  8 20  1  0
 22 28  1  0
 23 13  1  0
 24 19  1  0
 25 19  1  0
 26 20  1  0
 27 20  1  0
 28 32  1  0
 29 22  2  0
 30 22  1  0
 31 21  1  0
 32 31  1  0
 33 23  1  0
 34 24  1  0
 35 25  1  0
 36 29  1  0
 37 30  2  0
 38 36  2  0
 39 34  1  0
  9 11  1  0
 39 35  1  0
 38 37  1  0
  4 21  1  0
  3 40  1  1
  5 41  1  0
  5 42  1  0
  6 43  1  0
  6 44  1  0
  8 45  1  1
  9 46  1  0
  9 47  1  0
 11 48  1  6
 19 49  1  0
 20 50  1  0
 21 51  1  0
 21 52  1  0
 23 53  1  0
 23 54  1  0
 24 55  1  0
 24 56  1  0
 25 57  1  0
 25 58  1  0
 26 59  1  0
 26 60  1  0
 26 61  1  0
 27 62  1  0
 27 63  1  0
 27 64  1  0
 28 65  1  0
 28 66  1  0
 29 67  1  0
 30 68  1  0
 31 69  1  0
 31 70  1  0
 32 71  1  0
 32 72  1  0
 33 73  1  0
 33 74  1  0
 33 75  1  0
 34 76  1  0
 34 77  1  0
 35 78  1  0
 35 79  1  0
 36 80  1  0
 37 81  1  0
 38 82  1  0
 39 83  1  0
 39 84  1  0
M  CHG  1  16  -1
M  END
> <Uni-Dock RESULT> 
ENERGY=   -3.646  LOWER_BOUND=    3.094  UPPER_BOUND=    8.980
INTER + INTRA:          -3.646
INTER:                  -3.646
INTRA:                   0.000
UNBOUND:                 0.000

$$$$

     RDKit          3D

 84 86  0  0  0  0  0  0  0  0999 V2000
   26.3917   11.3630   28.4039 N   0  0  0  0  0  0  0  0  0  0  0  0
   27.5719   11.3309   27.5760 C   0  0  0  0  0  0  0  0  0  0  0  0
   25.1890   12.0932   28.0435 C   0  0  1  0  0  0  0  0  0  0  0  0
   30.3454   11.1537   27.2789 P   0  0  1  0  0  0  0  0  0  0  0  0
   28.7828   10.5544   28.0138 C   0  0  0  0  0  0  0  0  0  0  0  0
   26.2023   10.4814   29.5425 C   0  0  0  0  0  0  0  0  0  0  0  0
   31.6866   10.3657   27.9932 O   0  0  0  0  0  0  0  0  0  0  0  0
   31.4864    8.9669   27.9959 C   0  0  2  0  0  0  0  0  0  0  0  0
   24.1462   11.7366   29.1047 C   0  0  0  0  0  0  0  0  0  0  0  0
   25.4546   13.5726   28.0051 C   0  0  0  0  0  0  0  0  0  0  0  0
   24.7103   10.5485   29.9186 C   0  0  1  0  0  0  0  0  0  0  0  0
   30.7003    8.6120   29.1369 O   0  0  0  0  0  0  0  0  0  0  0  0
   29.9422    7.4405   29.2249 C   0  0  0  0  0  0  0  0  0  0  0  0
   30.3349   10.8913   25.7884 O   0  0  0  0  0  0  0  0  0  0  0  0
   27.5510   11.8749   26.4368 O   0  0  0  0  0  0  0  0  0  0  0  0
   26.2061   14.1765   29.0069 O   0  0  0  0  0  0  0  0  0  0  0  0
   24.9674   14.2780   27.0832 O   0  0  0  0  0  0  0  0  0  0  0  0
   29.9434    6.5988   28.2863 O   0  0  0  0  0  0  0  0  0  0  0  0
   23.9223    9.2210   29.6600 C   0  0  0  0  0  0  0  0  0  0  0  0
   32.8544    8.2531   28.0653 C   0  0  0  0  0  0  0  0  0  0  0  0
   30.5071   12.9491   27.5833 C   0  0  0  0  0  0  0  0  0  0  0  0
   33.7118   14.6881   28.8014 C   0  0  0  0  0  0  0  0  0  0  0  0
   29.0752    7.2196   30.4256 C   0  0  0  0  0  0  0  0  0  0  0  0
   24.6496    7.9766   30.2574 C   0  0  0  0  0  0  0  0  0  0  0  0
   22.4559    9.3234   30.1889 C   0  0  0  0  0  0  0  0  0  0  0  0
   33.6879    8.5399   26.8089 C   0  0  0  0  0  0  0  0  0  0  0  0
   33.6383    8.6456   29.3266 C   0  0  0  0  0  0  0  0  0  0  0  0
   33.5414   13.2382   28.4249 C   0  0  0  0  0  0  0  0  0  0  0  0
   32.7587   15.3343   29.6082 C   0  0  0  0  0  0  0  0  0  0  0  0
   34.8187   15.4134   28.3305 C   0  0  0  0  0  0  0  0  0  0  0  0
   31.6126   13.6079   26.7402 C   0  0  0  0  0  0  0  0  0  0  0  0
   33.0382   13.0739   26.9816 C   0  0  0  0  0  0  0  0  0  0  0  0
   29.3891    5.8872   31.0988 C   0  0  0  0  0  0  0  0  0  0  0  0
   23.6828    6.8295   30.5697 C   0  0  0  0  0  0  0  0  0  0  0  0
   22.3023    8.7368   31.5978 C   0  0  0  0  0  0  0  0  0  0  0  0
   32.9134   16.6851   29.9353 C   0  0  0  0  0  0  0  0  0  0  0  0
   34.9694   16.7640   28.6590 C   0  0  0  0  0  0  0  0  0  0  0  0
   34.0171   17.3994   29.4599 C   0  0  0  0  0  0  0  0  0  0  0  0
   22.6422    7.2358   31.6282 C   0  0  0  0  0  0  0  0  0  0  0  0
   24.8392   11.7438   27.0464 H   0  0  0  0  0  0  0  0  0  0  0  0
   28.6320    9.4947   27.7271 H   0  0  0  0  0  0  0  0  0  0  0  0
   28.8874   10.6197   29.1157 H   0  0  0  0  0  0  0  0  0  0  0  0
   26.8240   10.8415   30.3902 H   0  0  0  0  0  0  0  0  0  0  0  0
   26.5365    9.4632   29.2720 H   0  0  0  0  0  0  0  0  0  0  0  0
   30.9795    8.6221   27.0627 H   0  0  0  0  0  0  0  0  0  0  0  0
   23.9653   12.5898   29.7980 H   0  0  0  0  0  0  0  0  0  0  0  0
   23.1825   11.5048   28.6012 H   0  0  0  0  0  0  0  0  0  0  0  0
   24.6339   10.7847   31.0041 H   0  0  0  0  0  0  0  0  0  0  0  0
   23.8688    9.0734   28.5566 H   0  0  0  0  0  0  0  0  0  0  0  0
   32.6743    7.1558   28.1038 H   0  0  0  0  0  0  0  0  0  0  0  0
   29.5465   13.4353   27.3202 H   0  0  0  0  0  0  0  0  0  0  0  0
   30.6693   13.1234   28.6648 H   0  0  0  0  0  0  0  0  0  0  0  0
   29.2407    8.0408   31.1556 H   0  0  0  0  0  0  0  0  0  0  0  0
   28.0079    7.2400   30.1134 H   0  0  0  0  0  0  0  0  0  0  0  0
   25.3969    7.5912   29.5310 H   0  0  0  0  0  0  0  0  0  0  0  0
   25.1876    8.2514   31.1929 H   0  0  0  0  0  0  0  0  0  0  0  0
   22.0913   10.3713   30.2114 H   0  0  0  0  0  0  0  0  0  0  0  0
   21.7820    8.7680   29.4988 H   0  0  0  0  0  0  0  0  0  0  0  0
   33.1266    8.2404   25.8983 H   0  0  0  0  0  0  0  0  0  0  0  0
   34.6342    7.9579   26.8363 H   0  0  0  0  0  0  0  0  0  0  0  0
   33.9379    9.6198   26.7386 H   0  0  0  0  0  0  0  0  0  0  0  0
   33.8668    9.7330   29.3287 H   0  0  0  0  0  0  0  0  0  0  0  0
   34.5945    8.0823   29.3734 H   0  0  0  0  0  0  0  0  0  0  0  0
   33.0545    8.3989   30.2384 H   0  0  0  0  0  0  0  0  0  0  0  0
   32.8649   12.7201   29.1356 H   0  0  0  0  0  0  0  0  0  0  0  0
   34.5235   12.7259   28.5172 H   0  0  0  0  0  0  0  0  0  0  0  0
   31.8970   14.7971   29.9823 H   0  0  0  0  0  0  0  0  0  0  0  0
   35.5618   14.9340   27.7050 H   0  0  0  0  0  0  0  0  0  0  0  0
   31.5978   14.7021   26.9341 H   0  0  0  0  0  0  0  0  0  0  0  0
   31.3669   13.4752   25.6646 H   0  0  0  0  0  0  0  0  0  0  0  0
   33.7317   13.6083   26.2961 H   0  0  0  0  0  0  0  0  0  0  0  0
   33.0932   12.0051   26.6922 H   0  0  0  0  0  0  0  0  0  0  0  0
   30.4618    5.8403   31.3866 H   0  0  0  0  0  0  0  0  0  0  0  0
   29.1550    5.0440   30.4127 H   0  0  0  0  0  0  0  0  0  0  0  0
   28.7691    5.7784   32.0141 H   0  0  0  0  0  0  0  0  0  0  0  0
   23.1629    6.5305   29.6321 H   0  0  0  0  0  0  0  0  0  0  0  0
   24.2552    5.9476   30.9311 H   0  0  0  0  0  0  0  0  0  0  0  0
   22.9738    9.2841   32.2944 H   0  0  0  0  0  0  0  0  0  0  0  0
   21.2596    8.8857   31.9529 H   0  0  0  0  0  0  0  0  0  0  0  0
   32.1784   17.1778   30.5598 H   0  0  0  0  0  0  0  0  0  0  0  0
   35.8253   17.3166   28.2938 H   0  0  0  0  0  0  0  0  0  0  0  0
   34.1356   18.4443   29.7153 H   0  0  0  0  0  0  0  0  0  0  0  0
   21.7163    6.6442   31.4592 H   0  0  0  0  0  0  0  0  0  0  0  0
   23.0228    6.9757   32.6400 H   0  0  0  0  0  0  0  0  0  0  0  0
  2  1  1  0
  3  1  1  0
  4  5  1  0
  5  2  1  0
  6  1  1  0
  4  7  1  6
  8  7  1  0
  9  3  1  0
  3 10  1  0
 11  6  1  0
 12  8  1  0
 13 12  1  0
 14  4  2  0
 15  2  2  0
 16 10  1  0
 17 10  2  0
 18 13  2  0
 11 19  1  0
  8 20  1  0
 22 28  1  0
 23 13  1  0
 24 19  1  0
 25 19  1  0
 26 20  1  0
 27 20  1  0
 28 32  1  0
 29 22  2  0
 30 22  1  0
 31 21  1  0
 32 31  1  0
 33 23  1  0
 34 24  1  0
 35 25  1  0
 36 29  1  0
 37 30  2  0
 38 36  2  0
 39 34  1  0
  9 11  1  0
 39 35  1  0
 38 37  1  0
  4 21  1  0
  3 40  1  1
  5 41  1  0
  5 42  1  0
  6 43  1  0
  6 44  1  0
  8 45  1  1
  9 46  1  0
  9 47  1  0
 11 48  1  6
 19 49  1  0
 20 50  1  0
 21 51  1  0
 21 52  1  0
 23 53  1  0
 23 54  1  0
 24 55  1  0
 24 56  1  0
 25 57  1  0
 25 58  1  0
 26 59  1  0
 26 60  1  0
 26 61  1  0
 27 62  1  0
 27 63  1  0
 27 64  1  0
 28 65  1  0
 28 66  1  0
 29 67  1  0
 30 68  1  0
 31 69  1  0
 31 70  1  0
 32 71  1  0
 32 72  1  0
 33 73  1  0
 33 74  1  0
 33 75  1  0
 34 76  1  0
 34 77  1  0
 35 78  1  0
 35 79  1  0
 36 80  1  0
 37 81  1  0
 38 82  1  0
 39 83  1  0
 39 84  1  0
M  CHG  1  16  -1
M  END
> <Uni-Dock RESULT> 
ENERGY=   -3.638  LOWER_BOUND=    4.669  UPPER_BOUND=    8.610
INTER + INTRA:          -3.638
INTER:                  -3.638
INTRA:                   0.000
UNBOUND:                 0.000

$$$$

     RDKit          3D

 84 86  0  0  0  0  0  0  0  0999 V2000
   28.4871   10.1496   28.0859 N   0  0  0  0  0  0  0  0  0  0  0  0
   29.7057    9.3787   28.0870 C   0  0  0  0  0  0  0  0  0  0  0  0
   27.9400   10.7677   26.8908 C   0  0  1  0  0  0  0  0  0  0  0  0
   32.0158    8.4599   29.3642 P   0  0  1  0  0  0  0  0  0  0  0  0
   30.2142    8.7685   29.3637 C   0  0  0  0  0  0  0  0  0  0  0  0
   27.5694   10.1766   29.2113 C   0  0  0  0  0  0  0  0  0  0  0  0
   32.5422    7.9753   30.9192 O   0  0  0  0  0  0  0  0  0  0  0  0
   31.7234    6.9328   31.4089 C   0  0  2  0  0  0  0  0  0  0  0  0
   26.5826   11.3438   27.2986 C   0  0  0  0  0  0  0  0  0  0  0  0
   28.8615   11.8375   26.3741 C   0  0  0  0  0  0  0  0  0  0  0  0
   26.2471   10.7765   28.6978 C   0  0  1  0  0  0  0  0  0  0  0  0
   30.5553    7.5013   32.0073 O   0  0  0  0  0  0  0  0  0  0  0  0
   29.3534    6.8077   32.1783 C   0  0  0  0  0  0  0  0  0  0  0  0
   32.3427    7.3794   28.3561 O   0  0  0  0  0  0  0  0  0  0  0  0
   30.2918    9.1347   26.9957 O   0  0  0  0  0  0  0  0  0  0  0  0
   29.4588   12.7335   27.2535 O   0  0  0  0  0  0  0  0  0  0  0  0
   29.0691   11.9490   25.1374 O   0  0  0  0  0  0  0  0  0  0  0  0
   29.2505    5.5996   31.8329 O   0  0  0  0  0  0  0  0  0  0  0  0
   25.0541    9.7638   28.6603 C   0  0  0  0  0  0  0  0  0  0  0  0
   32.5046    6.1199   32.4646 C   0  0  0  0  0  0  0  0  0  0  0  0
   32.8931   10.0002   28.9168 C   0  0  0  0  0  0  0  0  0  0  0  0
   35.9884   11.3705   30.7386 C   0  0  0  0  0  0  0  0  0  0  0  0
   28.1622    7.5332   32.7233 C   0  0  0  0  0  0  0  0  0  0  0  0
   24.8943    8.9895   30.0053 C   0  0  0  0  0  0  0  0  0  0  0  0
   23.7226   10.4756   28.2590 C   0  0  0  0  0  0  0  0  0  0  0  0
   33.7158    5.4201   31.8329 C   0  0  0  0  0  0  0  0  0  0  0  0
   32.9506    6.9974   33.6437 C   0  0  0  0  0  0  0  0  0  0  0  0
   35.2871   10.0584   30.9818 C   0  0  0  0  0  0  0  0  0  0  0  0
   35.2509   12.5570   30.5791 C   0  0  0  0  0  0  0  0  0  0  0  0
   37.3895   11.4152   30.6491 C   0  0  0  0  0  0  0  0  0  0  0  0
   34.3763    9.7740   28.5767 C   0  0  0  0  0  0  0  0  0  0  0  0
   35.2363    9.1897   29.7145 C   0  0  0  0  0  0  0  0  0  0  0  0
   27.5951    6.8253   33.9497 C   0  0  0  0  0  0  0  0  0  0  0  0
   23.4616    8.4928   30.2263 C   0  0  0  0  0  0  0  0  0  0  0  0
   22.8890   10.8836   29.4803 C   0  0  0  0  0  0  0  0  0  0  0  0
   35.9082   13.7664   30.3327 C   0  0  0  0  0  0  0  0  0  0  0  0
   38.0430   12.6263   30.4018 C   0  0  0  0  0  0  0  0  0  0  0  0
   37.3028   13.8006   30.2429 C   0  0  0  0  0  0  0  0  0  0  0  0
   22.4623    9.6601   30.3112 C   0  0  0  0  0  0  0  0  0  0  0  0
   27.7932    9.9846   26.1138 H   0  0  0  0  0  0  0  0  0  0  0  0
   29.6833    7.8083   29.5194 H   0  0  0  0  0  0  0  0  0  0  0  0
   29.9930    9.4460   30.2131 H   0  0  0  0  0  0  0  0  0  0  0  0
   27.9927   10.8206   30.0119 H   0  0  0  0  0  0  0  0  0  0  0  0
   27.4554    9.1524   29.6107 H   0  0  0  0  0  0  0  0  0  0  0  0
   31.4287    6.2252   30.5969 H   0  0  0  0  0  0  0  0  0  0  0  0
   26.6170   12.4556   27.3635 H   0  0  0  0  0  0  0  0  0  0  0  0
   25.8296   11.0773   26.5254 H   0  0  0  0  0  0  0  0  0  0  0  0
   25.9604   11.6168   29.3698 H   0  0  0  0  0  0  0  0  0  0  0  0
   25.2798    9.0103   27.8708 H   0  0  0  0  0  0  0  0  0  0  0  0
   31.8321    5.3286   32.8640 H   0  0  0  0  0  0  0  0  0  0  0  0
   32.4033   10.4331   28.0218 H   0  0  0  0  0  0  0  0  0  0  0  0
   32.7767   10.7380   29.7345 H   0  0  0  0  0  0  0  0  0  0  0  0
   28.4579    8.5660   33.0069 H   0  0  0  0  0  0  0  0  0  0  0  0
   27.3820    7.5982   31.9333 H   0  0  0  0  0  0  0  0  0  0  0  0
   25.5579    8.0983   30.0091 H   0  0  0  0  0  0  0  0  0  0  0  0
   25.1814    9.6372   30.8645 H   0  0  0  0  0  0  0  0  0  0  0  0
   23.9014   11.3835   27.6463 H   0  0  0  0  0  0  0  0  0  0  0  0
   23.1166    9.7841   27.6319 H   0  0  0  0  0  0  0  0  0  0  0  0
   33.3902    4.7730   30.9908 H   0  0  0  0  0  0  0  0  0  0  0  0
   34.2215    4.7769   32.5849 H   0  0  0  0  0  0  0  0  0  0  0  0
   34.4480    6.1638   31.4529 H   0  0  0  0  0  0  0  0  0  0  0  0
   33.6462    7.7944   33.3036 H   0  0  0  0  0  0  0  0  0  0  0  0
   33.4673    6.3780   34.4075 H   0  0  0  0  0  0  0  0  0  0  0  0
   32.0712    7.4706   34.1292 H   0  0  0  0  0  0  0  0  0  0  0  0
   34.2660   10.2223   31.3840 H   0  0  0  0  0  0  0  0  0  0  0  0
   35.8350    9.4998   31.7713 H   0  0  0  0  0  0  0  0  0  0  0  0
   34.1706   12.5480   30.6429 H   0  0  0  0  0  0  0  0  0  0  0  0
   37.9748   10.5114   30.7658 H   0  0  0  0  0  0  0  0  0  0  0  0
   34.8143   10.7425   28.2520 H   0  0  0  0  0  0  0  0  0  0  0  0
   34.4410    9.0904   27.7029 H   0  0  0  0  0  0  0  0  0  0  0  0
   36.2713    9.0496   29.3330 H   0  0  0  0  0  0  0  0  0  0  0  0
   34.8728    8.1759   29.9777 H   0  0  0  0  0  0  0  0  0  0  0  0
   28.3749    6.7242   34.7355 H   0  0  0  0  0  0  0  0  0  0  0  0
   27.2187    5.8163   33.6729 H   0  0  0  0  0  0  0  0  0  0  0  0
   26.7487    7.4158   34.3611 H   0  0  0  0  0  0  0  0  0  0  0  0
   23.1789    7.8210   29.3850 H   0  0  0  0  0  0  0  0  0  0  0  0
   23.4147    7.8950   31.1625 H   0  0  0  0  0  0  0  0  0  0  0  0
   23.4873   11.5732   30.1147 H   0  0  0  0  0  0  0  0  0  0  0  0
   21.9841   11.4365   29.1473 H   0  0  0  0  0  0  0  0  0  0  0  0
   35.3360   14.6783   30.2139 H   0  0  0  0  0  0  0  0  0  0  0  0
   39.1228   12.6537   30.3353 H   0  0  0  0  0  0  0  0  0  0  0  0
   37.8095   14.7378   30.0535 H   0  0  0  0  0  0  0  0  0  0  0  0
   21.4703    9.3027   29.9591 H   0  0  0  0  0  0  0  0  0  0  0  0
   22.3462    9.9711   31.3723 H   0  0  0  0  0  0  0  0  0  0  0  0
  2  1  1  0
  3  1  1  0
  4  5  1  0
  5  2  1  0
  6  1  1  0
  4  7  1  6
  8  7  1  0
  9  3  1  0
  3 10  1  0
 11  6  1  0
 12  8  1  0
 13 12  1  0
 14  4  2  0
 15  2  2  0
 16 10  1  0
 17 10  2  0
 18 13  2  0
 11 19  1  0
  8 20  1  0
 22 28  1  0
 23 13  1  0
 24 19  1  0
 25 19  1  0
 26 20  1  0
 27 20  1  0
 28 32  1  0
 29 22  2  0
 30 22  1  0
 31 21  1  0
 32 31  1  0
 33 23  1  0
 34 24  1  0
 35 25  1  0
 36 29  1  0
 37 30  2  0
 38 36  2  0
 39 34  1  0
  9 11  1  0
 39 35  1  0
 38 37  1  0
  4 21  1  0
  3 40  1  1
  5 41  1  0
  5 42  1  0
  6 43  1  0
  6 44  1  0
  8 45  1  1
  9 46  1  0
  9 47  1  0
 11 48  1  6
 19 49  1  0
 20 50  1  0
 21 51  1  0
 21 52  1  0
 23 53  1  0
 23 54  1  0
 24 55  1  0
 24 56  1  0
 25 57  1  0
 25 58  1  0
 26 59  1  0
 26 60  1  0
 26 61  1  0
 27 62  1  0
 27 63  1  0
 27 64  1  0
 28 65  1  0
 28 66  1  0
 29 67  1  0
 30 68  1  0
 31 69  1  0
 31 70  1  0
 32 71  1  0
 32 72  1  0
 33 73  1  0
 33 74  1  0
 33 75  1  0
 34 76  1  0
 34 77  1  0
 35 78  1  0
 35 79  1  0
 36 80  1  0
 37 81  1  0
 38 82  1  0
 39 83  1  0
 39 84  1  0
M  CHG  1  16  -1
M  END
> <Uni-Dock RESULT> 
ENERGY=   -3.584  LOWER_BOUND=    4.241  UPPER_BOUND=    8.712
INTER + INTRA:          -3.584
INTER:                  -3.584
INTRA:                   0.000
UNBOUND:                 0.000

$$$$
