
     RDKit          3D

 84 86  0  0  0  0  0  0  0  0999 V2000
   27.3585   14.7554   23.3088 N   0  0  0  0  0  0  0  0  0  0  0  0
   28.5280   14.3133   22.5991 C   0  0  0  0  0  0  0  0  0  0  0  0
   26.0232   14.2591   23.0125 C   0  0  1  0  0  0  0  0  0  0  0  0
   30.9582   12.8688   22.4391 P   0  0  1  0  0  0  0  0  0  0  0  0
   29.7894   13.9619   23.3487 C   0  0  0  0  0  0  0  0  0  0  0  0
   27.4179   15.5356   24.5343 C   0  0  0  0  0  0  0  0  0  0  0  0
   32.2653   13.7661   21.7944 O   0  0  0  0  0  0  0  0  0  0  0  0
   31.8091   14.7546   20.8916 C   0  0  2  0  0  0  0  0  0  0  0  0
   25.0958   14.8992   24.0489 C   0  0  0  0  0  0  0  0  0  0  0  0
   25.6146   14.5830   21.6009 C   0  0  0  0  0  0  0  0  0  0  0  0
   26.0064   15.4941   25.1402 C   0  0  1  0  0  0  0  0  0  0  0  0
   31.6538   14.1693   19.5952 O   0  0  0  0  0  0  0  0  0  0  0  0
   30.7267   14.6109   18.6429 C   0  0  0  0  0  0  0  0  0  0  0  0
   31.5454   11.9259   23.4659 O   0  0  0  0  0  0  0  0  0  0  0  0
   28.4822   14.2196   21.3479 O   0  0  0  0  0  0  0  0  0  0  0  0
   25.4262   13.5521   20.6858 O   0  0  0  0  0  0  0  0  0  0  0  0
   25.4834   15.7796   21.2245 O   0  0  0  0  0  0  0  0  0  0  0  0
   29.8469   15.4664   18.9397 O   0  0  0  0  0  0  0  0  0  0  0  0
   25.9605   14.7431   26.5066 C   0  0  0  0  0  0  0  0  0  0  0  0
   32.8643   15.8850   20.8472 C   0  0  0  0  0  0  0  0  0  0  0  0
   30.1901   11.8179   21.1512 C   0  0  0  0  0  0  0  0  0  0  0  0
   29.6632    9.5207   18.8689 C   0  0  0  0  0  0  0  0  0  0  0  0
   30.8127   14.0929   17.2421 C   0  0  0  0  0  0  0  0  0  0  0  0
   26.2710   13.2289   26.4006 C   0  0  0  0  0  0  0  0  0  0  0  0
   24.6112   14.9714   27.2246 C   0  0  0  0  0  0  0  0  0  0  0  0
   34.1987   15.4008   20.2567 C   0  0  0  0  0  0  0  0  0  0  0  0
   32.3621   17.1222   20.0867 C   0  0  0  0  0  0  0  0  0  0  0  0
   28.6280    9.1789   19.9101 C   0  0  0  0  0  0  0  0  0  0  0  0
   30.9966    9.1004   19.0240 C   0  0  0  0  0  0  0  0  0  0  0  0
   29.2979   10.2341   17.7124 C   0  0  0  0  0  0  0  0  0  0  0  0
   29.0637   10.9522   21.7353 C   0  0  0  0  0  0  0  0  0  0  0  0
   28.1012   10.4144   20.6608 C   0  0  0  0  0  0  0  0  0  0  0  0
   31.5399   15.0898   16.3478 C   0  0  0  0  0  0  0  0  0  0  0  0
   26.2492   12.5718   27.7884 C   0  0  0  0  0  0  0  0  0  0  0  0
   24.6007   14.3063   28.6053 C   0  0  0  0  0  0  0  0  0  0  0  0
   31.9481    9.3997   18.0448 C   0  0  0  0  0  0  0  0  0  0  0  0
   30.2524   10.5234   16.7317 C   0  0  0  0  0  0  0  0  0  0  0  0
   31.5768   10.1086   16.8992 C   0  0  0  0  0  0  0  0  0  0  0  0
   24.9075   12.8086   28.4935 C   0  0  0  0  0  0  0  0  0  0  0  0
   26.0190   13.1543   23.1484 H   0  0  0  0  0  0  0  0  0  0  0  0
   30.3152   14.8918   23.6484 H   0  0  0  0  0  0  0  0  0  0  0  0
   29.4986   13.4236   24.2754 H   0  0  0  0  0  0  0  0  0  0  0  0
   28.1773   15.1241   25.2340 H   0  0  0  0  0  0  0  0  0  0  0  0
   27.7100   16.5796   24.2861 H   0  0  0  0  0  0  0  0  0  0  0  0
   30.8566   15.2125   21.2348 H   0  0  0  0  0  0  0  0  0  0  0  0
   24.3768   14.1503   24.4342 H   0  0  0  0  0  0  0  0  0  0  0  0
   24.4927   15.7215   23.6058 H   0  0  0  0  0  0  0  0  0  0  0  0
   25.6925   16.5439   25.3302 H   0  0  0  0  0  0  0  0  0  0  0  0
   26.7453   15.2004   27.1505 H   0  0  0  0  0  0  0  0  0  0  0  0
   33.0578   16.2045   21.8961 H   0  0  0  0  0  0  0  0  0  0  0  0
   29.8143   12.4467   20.3230 H   0  0  0  0  0  0  0  0  0  0  0  0
   30.9835   11.1670   20.7425 H   0  0  0  0  0  0  0  0  0  0  0  0
   29.7903   13.9116   16.8450 H   0  0  0  0  0  0  0  0  0  0  0  0
   31.3670   13.1301   17.2373 H   0  0  0  0  0  0  0  0  0  0  0  0
   25.5312   12.7145   25.7542 H   0  0  0  0  0  0  0  0  0  0  0  0
   27.2744   13.0705   25.9514 H   0  0  0  0  0  0  0  0  0  0  0  0
   24.4372   16.0617   27.3590 H   0  0  0  0  0  0  0  0  0  0  0  0
   23.7701   14.5644   26.6238 H   0  0  0  0  0  0  0  0  0  0  0  0
   34.9591   16.2091   20.3122 H   0  0  0  0  0  0  0  0  0  0  0  0
   34.5845   14.5329   20.8311 H   0  0  0  0  0  0  0  0  0  0  0  0
   34.0767   15.1037   19.1925 H   0  0  0  0  0  0  0  0  0  0  0  0
   32.2327   16.9032   19.0044 H   0  0  0  0  0  0  0  0  0  0  0  0
   33.0945   17.9514   20.1929 H   0  0  0  0  0  0  0  0  0  0  0  0
   31.3946   17.4710   20.5085 H   0  0  0  0  0  0  0  0  0  0  0  0
   29.0201    8.4336   20.6373 H   0  0  0  0  0  0  0  0  0  0  0  0
   27.7717    8.6940   19.3916 H   0  0  0  0  0  0  0  0  0  0  0  0
   31.2993    8.5491   19.9062 H   0  0  0  0  0  0  0  0  0  0  0  0
   28.2733   10.5521   17.5641 H   0  0  0  0  0  0  0  0  0  0  0  0
   28.4606   11.5558   22.4439 H   0  0  0  0  0  0  0  0  0  0  0  0
   29.4983   10.1140   22.3214 H   0  0  0  0  0  0  0  0  0  0  0  0
   27.1657   10.1107   21.1743 H   0  0  0  0  0  0  0  0  0  0  0  0
   27.8185   11.2202   19.9502 H   0  0  0  0  0  0  0  0  0  0  0  0
   30.9900   16.0563   16.3201 H   0  0  0  0  0  0  0  0  0  0  0  0
   31.6002   14.6885   15.3138 H   0  0  0  0  0  0  0  0  0  0  0  0
   32.5721   15.2620   16.7256 H   0  0  0  0  0  0  0  0  0  0  0  0
   26.4154   11.4771   27.6782 H   0  0  0  0  0  0  0  0  0  0  0  0
   27.0754   12.9839   28.4105 H   0  0  0  0  0  0  0  0  0  0  0  0
   25.3535   14.7958   29.2622 H   0  0  0  0  0  0  0  0  0  0  0  0
   23.5995   14.4419   29.0707 H   0  0  0  0  0  0  0  0  0  0  0  0
   32.9742    9.0812   18.1730 H   0  0  0  0  0  0  0  0  0  0  0  0
   29.9678   11.0731   15.8438 H   0  0  0  0  0  0  0  0  0  0  0  0
   32.3145   10.3364   16.1402 H   0  0  0  0  0  0  0  0  0  0  0  0
   24.0936   12.3034   27.9279 H   0  0  0  0  0  0  0  0  0  0  0  0
   24.9452   12.3678   29.5150 H   0  0  0  0  0  0  0  0  0  0  0  0
  2  1  1  0
  3  1  1  0
  4  5  1  0
  5  2  1  0
  6  1  1  0
  4  7  1  6
  8  7  1  0
  9  3  1  0
  3 10  1  0
 11  6  1  0
 12  8  1  0
 13 12  1  0
 14  4  2  0
 15  2  2  0
 16 10  1  0
 17 10  2  0
 18 13  2  0
 11 19  1  0
  8 20  1  0
 22 28  1  0
 23 13  1  0
 24 19  1  0
 25 19  1  0
 26 20  1  0
 27 20  1  0
 28 32  1  0
 29 22  2  0
 30 22  1  0
 31 21  1  0
 32 31  1  0
 33 23  1  0
 34 24  1  0
 35 25  1  0
 36 29  1  0
 37 30  2  0
 38 36  2  0
 39 34  1  0
  9 11  1  0
 39 35  1  0
 38 37  1  0
  4 21  1  0
  3 40  1  6
  5 41  1  0
  5 42  1  0
  6 43  1  0
  6 44  1  0
  8 45  1  1
  9 46  1  0
  9 47  1  0
 11 48  1  1
 19 49  1  0
 20 50  1  0
 21 51  1  0
 21 52  1  0
 23 53  1  0
 23 54  1  0
 24 55  1  0
 24 56  1  0
 25 57  1  0
 25 58  1  0
 26 59  1  0
 26 60  1  0
 26 61  1  0
 27 62  1  0
 27 63  1  0
 27 64  1  0
 28 65  1  0
 28 66  1  0
 29 67  1  0
 30 68  1  0
 31 69  1  0
 31 70  1  0
 32 71  1  0
 32 72  1  0
 33 73  1  0
 33 74  1  0
 33 75  1  0
 34 76  1  0
 34 77  1  0
 35 78  1  0
 35 79  1  0
 36 80  1  0
 37 81  1  0
 38 82  1  0
 39 83  1  0
 39 84  1  0
M  CHG  1  16  -1
M  END
> <Uni-Dock RESULT> 
ENERGY=   -3.992  LOWER_BOUND=    0.000  UPPER_BOUND=    0.000
INTER + INTRA:          -3.992
INTER:                  -3.992
INTRA:                   0.000
UNBOUND:                 0.000

$$$$

     RDKit          3D

 84 86  0  0  0  0  0  0  0  0999 V2000
   29.2596    9.1764   30.0412 N   0  0  0  0  0  0  0  0  0  0  0  0
   29.7106    8.1689   30.9623 C   0  0  0  0  0  0  0  0  0  0  0  0
   29.1269    8.9344   28.6126 C   0  0  1  0  0  0  0  0  0  0  0  0
   29.2636    6.3137   33.0544 P   0  0  1  0  0  0  0  0  0  0  0  0
   28.9985    7.9607   32.2761 C   0  0  0  0  0  0  0  0  0  0  0  0
   28.6631   10.4329   30.4645 C   0  0  0  0  0  0  0  0  0  0  0  0
   30.3981    6.4121   34.3321 O   0  0  0  0  0  0  0  0  0  0  0  0
   31.6509    6.8752   33.8671 C   0  0  2  0  0  0  0  0  0  0  0  0
   28.5302   10.2146   28.0217 C   0  0  0  0  0  0  0  0  0  0  0  0
   30.4486    8.5774   27.9882 C   0  0  0  0  0  0  0  0  0  0  0  0
   28.0163   11.0461   29.2127 C   0  0  1  0  0  0  0  0  0  0  0  0
   32.4045    5.7662   33.3676 O   0  0  0  0  0  0  0  0  0  0  0  0
   33.3628    5.8652   32.3512 C   0  0  0  0  0  0  0  0  0  0  0  0
   27.9428    5.9204   33.6779 O   0  0  0  0  0  0  0  0  0  0  0  0
   30.7021    7.4624   30.6550 O   0  0  0  0  0  0  0  0  0  0  0  0
   30.6390    7.3035   27.4623 O   0  0  0  0  0  0  0  0  0  0  0  0
   31.4013    9.4037   27.9747 O   0  0  0  0  0  0  0  0  0  0  0  0
   33.5054    6.9334   31.6935 O   0  0  0  0  0  0  0  0  0  0  0  0
   26.4628   11.1361   29.3214 C   0  0  0  0  0  0  0  0  0  0  0  0
   32.3890    7.5332   35.0569 C   0  0  0  0  0  0  0  0  0  0  0  0
   29.7065    4.9713   31.8905 C   0  0  0  0  0  0  0  0  0  0  0  0
   30.3250    2.0338   30.5667 C   0  0  0  0  0  0  0  0  0  0  0  0
   34.2603    4.7005   32.0749 C   0  0  0  0  0  0  0  0  0  0  0  0
   25.7562    9.7579   29.3626 C   0  0  0  0  0  0  0  0  0  0  0  0
   25.8740   12.0144   28.1944 C   0  0  0  0  0  0  0  0  0  0  0  0
   32.7314    6.5125   36.1545 C   0  0  0  0  0  0  0  0  0  0  0  0
   33.6539    8.2854   34.6146 C   0  0  0  0  0  0  0  0  0  0  0  0
   29.1828    2.5318   29.7180 C   0  0  0  0  0  0  0  0  0  0  0  0
   30.0785    1.4474   31.8213 C   0  0  0  0  0  0  0  0  0  0  0  0
   31.6483    2.1184   30.0960 C   0  0  0  0  0  0  0  0  0  0  0  0
   28.6548    4.8248   30.7806 C   0  0  0  0  0  0  0  0  0  0  0  0
   29.1813    4.0614   29.5517 C   0  0  0  0  0  0  0  0  0  0  0  0
   35.6091    4.8920   32.7578 C   0  0  0  0  0  0  0  0  0  0  0  0
   24.2378    9.9307   29.5136 C   0  0  0  0  0  0  0  0  0  0  0  0
   24.3581   12.1742   28.3536 C   0  0  0  0  0  0  0  0  0  0  0  0
   31.1387    0.9662   32.5946 C   0  0  0  0  0  0  0  0  0  0  0  0
   32.7046    1.6273   30.8703 C   0  0  0  0  0  0  0  0  0  0  0  0
   32.4500    1.0540   32.1195 C   0  0  0  0  0  0  0  0  0  0  0  0
   23.6650   10.8076   28.3927 C   0  0  0  0  0  0  0  0  0  0  0  0
   28.4138    8.0931   28.4617 H   0  0  0  0  0  0  0  0  0  0  0  0
   29.2961    8.7557   32.9905 H   0  0  0  0  0  0  0  0  0  0  0  0
   27.9076    8.0599   32.0940 H   0  0  0  0  0  0  0  0  0  0  0  0
   27.9181   10.2696   31.2733 H   0  0  0  0  0  0  0  0  0  0  0  0
   29.4610   11.0979   30.8621 H   0  0  0  0  0  0  0  0  0  0  0  0
   31.5330    7.6564   33.0857 H   0  0  0  0  0  0  0  0  0  0  0  0
   27.7421    9.9654   27.2849 H   0  0  0  0  0  0  0  0  0  0  0  0
   29.2964   10.8108   27.4797 H   0  0  0  0  0  0  0  0  0  0  0  0
   28.4007   12.0847   29.1119 H   0  0  0  0  0  0  0  0  0  0  0  0
   26.2379   11.6553   30.2803 H   0  0  0  0  0  0  0  0  0  0  0  0
   31.7015    8.2871   35.5024 H   0  0  0  0  0  0  0  0  0  0  0  0
   30.7086    5.1564   31.4615 H   0  0  0  0  0  0  0  0  0  0  0  0
   29.7613    4.0353   32.4747 H   0  0  0  0  0  0  0  0  0  0  0  0
   34.4088    4.5922   30.9785 H   0  0  0  0  0  0  0  0  0  0  0  0
   33.7883    3.7709   32.4588 H   0  0  0  0  0  0  0  0  0  0  0  0
   25.9561    9.1796   28.4378 H   0  0  0  0  0  0  0  0  0  0  0  0
   26.1296    9.1575   30.2193 H   0  0  0  0  0  0  0  0  0  0  0  0
   26.3383   13.0247   28.2242 H   0  0  0  0  0  0  0  0  0  0  0  0
   26.0855   11.5723   27.1975 H   0  0  0  0  0  0  0  0  0  0  0  0
   33.1866    7.0263   37.0282 H   0  0  0  0  0  0  0  0  0  0  0  0
   31.8126    5.9978   36.5052 H   0  0  0  0  0  0  0  0  0  0  0  0
   33.4498    5.7521   35.7785 H   0  0  0  0  0  0  0  0  0  0  0  0
   34.4292    7.5819   34.2403 H   0  0  0  0  0  0  0  0  0  0  0  0
   34.0758    8.8490   35.4746 H   0  0  0  0  0  0  0  0  0  0  0  0
   33.4097    9.0204   33.8172 H   0  0  0  0  0  0  0  0  0  0  0  0
   28.2033    2.1949   30.1244 H   0  0  0  0  0  0  0  0  0  0  0  0
   29.2820    2.0710   28.7106 H   0  0  0  0  0  0  0  0  0  0  0  0
   29.0672    1.3714   32.2025 H   0  0  0  0  0  0  0  0  0  0  0  0
   31.8593    2.5499   29.1253 H   0  0  0  0  0  0  0  0  0  0  0  0
   28.3394    5.8296   30.4327 H   0  0  0  0  0  0  0  0  0  0  0  0
   27.7464    4.3290   31.1855 H   0  0  0  0  0  0  0  0  0  0  0  0
   28.5093    4.2971   28.7008 H   0  0  0  0  0  0  0  0  0  0  0  0
   30.1888    4.4306   29.2639 H   0  0  0  0  0  0  0  0  0  0  0  0
   36.1106    5.8070   32.3722 H   0  0  0  0  0  0  0  0  0  0  0  0
   36.2610    4.0175   32.5478 H   0  0  0  0  0  0  0  0  0  0  0  0
   35.4727    4.9807   33.8584 H   0  0  0  0  0  0  0  0  0  0  0  0
   23.7502    8.9310   29.4803 H   0  0  0  0  0  0  0  0  0  0  0  0
   24.0100   10.3915   30.5011 H   0  0  0  0  0  0  0  0  0  0  0  0
   24.1371   12.7342   29.2893 H   0  0  0  0  0  0  0  0  0  0  0  0
   23.9591   12.7635   27.4987 H   0  0  0  0  0  0  0  0  0  0  0  0
   30.9443    0.5236   33.5626 H   0  0  0  0  0  0  0  0  0  0  0  0
   33.7214    1.6949   30.5052 H   0  0  0  0  0  0  0  0  0  0  0  0
   33.2696    0.6775   32.7185 H   0  0  0  0  0  0  0  0  0  0  0  0
   23.7960   10.2959   27.4137 H   0  0  0  0  0  0  0  0  0  0  0  0
   22.5751   10.9573   28.5625 H   0  0  0  0  0  0  0  0  0  0  0  0
  2  1  1  0
  3  1  1  0
  4  5  1  0
  5  2  1  0
  6  1  1  0
  4  7  1  6
  8  7  1  0
  9  3  1  0
  3 10  1  0
 11  6  1  0
 12  8  1  0
 13 12  1  0
 14  4  2  0
 15  2  2  0
 16 10  1  0
 17 10  2  0
 18 13  2  0
 11 19  1  0
  8 20  1  0
 22 28  1  0
 23 13  1  0
 24 19  1  0
 25 19  1  0
 26 20  1  0
 27 20  1  0
 28 32  1  0
 29 22  2  0
 30 22  1  0
 31 21  1  0
 32 31  1  0
 33 23  1  0
 34 24  1  0
 35 25  1  0
 36 29  1  0
 37 30  2  0
 38 36  2  0
 39 34  1  0
  9 11  1  0
 39 35  1  0
 38 37  1  0
  4 21  1  0
  3 40  1  6
  5 41  1  0
  5 42  1  0
  6 43  1  0
  6 44  1  0
  8 45  1  1
  9 46  1  0
  9 47  1  0
 11 48  1  1
 19 49  1  0
 20 50  1  0
 21 51  1  0
 21 52  1  0
 23 53  1  0
 23 54  1  0
 24 55  1  0
 24 56  1  0
 25 57  1  0
 25 58  1  0
 26 59  1  0
 26 60  1  0
 26 61  1  0
 27 62  1  0
 27 63  1  0
 27 64  1  0
 28 65  1  0
 28 66  1  0
 29 67  1  0
 30 68  1  0
 31 69  1  0
 31 70  1  0
 32 71  1  0
 32 72  1  0
 33 73  1  0
 33 74  1  0
 33 75  1  0
 34 76  1  0
 34 77  1  0
 35 78  1  0
 35 79  1  0
 36 80  1  0
 37 81  1  0
 38 82  1  0
 39 83  1  0
 39 84  1  0
M  CHG  1  16  -1
M  END
> <Uni-Dock RESULT> 
ENERGY=   -3.823  LOWER_BOUND=    9.304  UPPER_BOUND=   12.698
INTER + INTRA:          -3.823
INTER:                  -3.823
INTRA:                   0.000
UNBOUND:                 0.000

$$$$

     RDKit          3D

 84 86  0  0  0  0  0  0  0  0999 V2000
   26.6525   10.9585   29.4086 N   0  0  0  0  0  0  0  0  0  0  0  0
   27.9726   11.4166   29.7463 C   0  0  0  0  0  0  0  0  0  0  0  0
   26.3632   10.2214   28.1878 C   0  0  1  0  0  0  0  0  0  0  0  0
   30.3428   11.2938   31.2910 P   0  0  1  0  0  0  0  0  0  0  0  0
   28.5086   11.2388   31.1455 C   0  0  0  0  0  0  0  0  0  0  0  0
   25.5430   10.9632   30.3482 C   0  0  0  0  0  0  0  0  0  0  0  0
   30.8677   12.8087   31.8900 O   0  0  0  0  0  0  0  0  0  0  0  0
   30.4722   13.8611   31.0320 C   0  0  2  0  0  0  0  0  0  0  0  0
   24.8820    9.8419   28.2653 C   0  0  0  0  0  0  0  0  0  0  0  0
   26.6826   11.0351   26.9630 C   0  0  0  0  0  0  0  0  0  0  0  0
   24.4436   10.0918   29.7211 C   0  0  1  0  0  0  0  0  0  0  0  0
   31.4431   14.0073   29.9912 O   0  0  0  0  0  0  0  0  0  0  0  0
   31.1489   14.4837   28.7075 C   0  0  0  0  0  0  0  0  0  0  0  0
   30.7179   10.2631   32.3326 O   0  0  0  0  0  0  0  0  0  0  0  0
   28.6739   11.9619   28.8590 O   0  0  0  0  0  0  0  0  0  0  0  0
   27.7100   10.6299   26.1169 O   0  0  0  0  0  0  0  0  0  0  0  0
   26.0601   12.1040   26.7167 O   0  0  0  0  0  0  0  0  0  0  0  0
   29.9551   14.6646   28.3387 O   0  0  0  0  0  0  0  0  0  0  0  0
   24.1577    8.7989   30.5456 C   0  0  0  0  0  0  0  0  0  0  0  0
   30.3874   15.1570   31.8727 C   0  0  0  0  0  0  0  0  0  0  0  0
   31.2526   10.8440   29.7668 C   0  0  0  0  0  0  0  0  0  0  0  0
   33.6110   10.0242   27.6387 C   0  0  0  0  0  0  0  0  0  0  0  0
   32.2705   14.8259   27.7786 C   0  0  0  0  0  0  0  0  0  0  0  0
   25.3386    7.7964   30.5694 C   0  0  0  0  0  0  0  0  0  0  0  0
   22.8648    8.1032   30.0632 C   0  0  0  0  0  0  0  0  0  0  0  0
   31.7639   15.5843   32.4080 C   0  0  0  0  0  0  0  0  0  0  0  0
   29.7339   16.3127   31.0988 C   0  0  0  0  0  0  0  0  0  0  0  0
   32.6808    8.8408   27.5550 C   0  0  0  0  0  0  0  0  0  0  0  0
   34.5486   10.1219   28.6828 C   0  0  0  0  0  0  0  0  0  0  0  0
   33.5749   11.0265   26.6518 C   0  0  0  0  0  0  0  0  0  0  0  0
   30.8428    9.4524   29.2619 C   0  0  0  0  0  0  0  0  0  0  0  0
   31.2071    9.2187   27.7844 C   0  0  0  0  0  0  0  0  0  0  0  0
   32.5372   16.3262   27.7931 C   0  0  0  0  0  0  0  0  0  0  0  0
   24.9962    6.5745   31.4342 C   0  0  0  0  0  0  0  0  0  0  0  0
   22.5375    6.8830   30.9309 C   0  0  0  0  0  0  0  0  0  0  0  0
   35.4247   11.2093   28.7434 C   0  0  0  0  0  0  0  0  0  0  0  0
   34.4599   12.1080   26.7127 C   0  0  0  0  0  0  0  0  0  0  0  0
   35.3822   12.2004   27.7591 C   0  0  0  0  0  0  0  0  0  0  0  0
   23.7092    5.8948   30.9494 C   0  0  0  0  0  0  0  0  0  0  0  0
   26.9799    9.2947   28.1804 H   0  0  0  0  0  0  0  0  0  0  0  0
   28.0649   12.0054   31.8139 H   0  0  0  0  0  0  0  0  0  0  0  0
   28.1853   10.2418   31.5121 H   0  0  0  0  0  0  0  0  0  0  0  0
   25.8580   10.5751   31.3411 H   0  0  0  0  0  0  0  0  0  0  0  0
   25.1878   12.0082   30.4852 H   0  0  0  0  0  0  0  0  0  0  0  0
   29.4611   13.6830   30.6067 H   0  0  0  0  0  0  0  0  0  0  0  0
   24.7367    8.7953   27.9343 H   0  0  0  0  0  0  0  0  0  0  0  0
   24.2614   10.4770   27.5961 H   0  0  0  0  0  0  0  0  0  0  0  0
   23.5066   10.6907   29.7112 H   0  0  0  0  0  0  0  0  0  0  0  0
   23.9730    9.1221   31.5950 H   0  0  0  0  0  0  0  0  0  0  0  0
   29.7369   14.9450   32.7510 H   0  0  0  0  0  0  0  0  0  0  0  0
   31.0880   11.6102   28.9868 H   0  0  0  0  0  0  0  0  0  0  0  0
   32.3291   10.8460   30.0147 H   0  0  0  0  0  0  0  0  0  0  0  0
   32.0156   14.5019   26.7461 H   0  0  0  0  0  0  0  0  0  0  0  0
   33.1907   14.2910   28.0971 H   0  0  0  0  0  0  0  0  0  0  0  0
   25.5860    7.4474   29.5463 H   0  0  0  0  0  0  0  0  0  0  0  0
   26.2477    8.2797   30.9863 H   0  0  0  0  0  0  0  0  0  0  0  0
   22.0115    8.8143   30.1217 H   0  0  0  0  0  0  0  0  0  0  0  0
   22.9629    7.7761   29.0062 H   0  0  0  0  0  0  0  0  0  0  0  0
   31.6600   16.4688   33.0724 H   0  0  0  0  0  0  0  0  0  0  0  0
   32.2194   14.7654   33.0030 H   0  0  0  0  0  0  0  0  0  0  0  0
   32.4492   15.8483   31.5736 H   0  0  0  0  0  0  0  0  0  0  0  0
   30.3759   16.6436   30.2536 H   0  0  0  0  0  0  0  0  0  0  0  0
   29.5739   17.1771   31.7788 H   0  0  0  0  0  0  0  0  0  0  0  0
   28.7407   16.0044   30.7062 H   0  0  0  0  0  0  0  0  0  0  0  0
   32.9816    8.0418   28.2685 H   0  0  0  0  0  0  0  0  0  0  0  0
   32.7752    8.4058   26.5357 H   0  0  0  0  0  0  0  0  0  0  0  0
   34.5943    9.3609   29.4525 H   0  0  0  0  0  0  0  0  0  0  0  0
   32.8731   10.9623   25.8294 H   0  0  0  0  0  0  0  0  0  0  0  0
   29.7438    9.3333   29.3520 H   0  0  0  0  0  0  0  0  0  0  0  0
   31.3012    8.6691   29.9031 H   0  0  0  0  0  0  0  0  0  0  0  0
   30.5915    8.3704   27.4204 H   0  0  0  0  0  0  0  0  0  0  0  0
   30.9217   10.0974   27.1674 H   0  0  0  0  0  0  0  0  0  0  0  0
   31.6346   16.8821   27.4561 H   0  0  0  0  0  0  0  0  0  0  0  0
   33.3751   16.5628   27.1035 H   0  0  0  0  0  0  0  0  0  0  0  0
   32.8137   16.6566   28.8189 H   0  0  0  0  0  0  0  0  0  0  0  0
   25.8349    5.8448   31.3860 H   0  0  0  0  0  0  0  0  0  0  0  0
   24.8750    6.8892   32.4952 H   0  0  0  0  0  0  0  0  0  0  0  0
   22.3076    7.2123   31.9684 H   0  0  0  0  0  0  0  0  0  0  0  0
   21.6354    6.3747   30.5244 H   0  0  0  0  0  0  0  0  0  0  0  0
   36.1384   11.2839   29.5532 H   0  0  0  0  0  0  0  0  0  0  0  0
   34.4284   12.8775   25.9522 H   0  0  0  0  0  0  0  0  0  0  0  0
   36.0640   13.0401   27.8059 H   0  0  0  0  0  0  0  0  0  0  0  0
   23.8655    5.4839   29.9275 H   0  0  0  0  0  0  0  0  0  0  0  0
   23.4608    5.0488   31.6290 H   0  0  0  0  0  0  0  0  0  0  0  0
  2  1  1  0
  3  1  1  0
  4  5  1  0
  5  2  1  0
  6  1  1  0
  4  7  1  6
  8  7  1  0
  9  3  1  0
  3 10  1  0
 11  6  1  0
 12  8  1  0
 13 12  1  0
 14  4  2  0
 15  2  2  0
 16 10  1  0
 17 10  2  0
 18 13  2  0
 11 19  1  0
  8 20  1  0
 22 28  1  0
 23 13  1  0
 24 19  1  0
 25 19  1  0
 26 20  1  0
 27 20  1  0
 28 32  1  0
 29 22  2  0
 30 22  1  0
 31 21  1  0
 32 31  1  0
 33 23  1  0
 34 24  1  0
 35 25  1  0
 36 29  1  0
 37 30  2  0
 38 36  2  0
 39 34  1  0
  9 11  1  0
 39 35  1  0
 38 37  1  0
  4 21  1  0
  3 40  1  6
  5 41  1  0
  5 42  1  0
  6 43  1  0
  6 44  1  0
  8 45  1  1
  9 46  1  0
  9 47  1  0
 11 48  1  1
 19 49  1  0
 20 50  1  0
 21 51  1  0
 21 52  1  0
 23 53  1  0
 23 54  1  0
 24 55  1  0
 24 56  1  0
 25 57  1  0
 25 58  1  0
 26 59  1  0
 26 60  1  0
 26 61  1  0
 27 62  1  0
 27 63  1  0
 27 64  1  0
 28 65  1  0
 28 66  1  0
 29 67  1  0
 30 68  1  0
 31 69  1  0
 31 70  1  0
 32 71  1  0
 32 72  1  0
 33 73  1  0
 33 74  1  0
 33 75  1  0
 34 76  1  0
 34 77  1  0
 35 78  1  0
 35 79  1  0
 36 80  1  0
 37 81  1  0
 38 82  1  0
 39 83  1  0
 39 84  1  0
M  CHG  1  16  -1
M  END
> <Uni-Dock RESULT> 
ENERGY=   -3.685  LOWER_BOUND=    7.109  UPPER_BOUND=    9.048
INTER + INTRA:          -3.685
INTER:                  -3.685
INTRA:                   0.000
UNBOUND:                 0.000

$$$$

     RDKit          3D

 84 86  0  0  0  0  0  0  0  0999 V2000
   25.9336   10.3117   30.0442 N   0  0  0  0  0  0  0  0  0  0  0  0
   27.3061   10.4645   30.4436 C   0  0  0  0  0  0  0  0  0  0  0  0
   25.5436    9.9420   28.6920 C   0  0  1  0  0  0  0  0  0  0  0  0
   29.6117    9.6086   31.8472 P   0  0  1  0  0  0  0  0  0  0  0  0
   27.7934    9.8763   31.7448 C   0  0  0  0  0  0  0  0  0  0  0  0
   24.8296   10.2645   30.9890 C   0  0  0  0  0  0  0  0  0  0  0  0
   30.3634   10.8357   32.7738 O   0  0  0  0  0  0  0  0  0  0  0  0
   30.1476   12.1110   32.2018 C   0  0  2  0  0  0  0  0  0  0  0  0
   24.0203    9.7904   28.7190 C   0  0  0  0  0  0  0  0  0  0  0  0
   25.9996   10.9648   27.6869 C   0  0  0  0  0  0  0  0  0  0  0  0
   23.6125    9.7504   30.2043 C   0  0  1  0  0  0  0  0  0  0  0  0
   31.1396   12.3486   31.1985 O   0  0  0  0  0  0  0  0  0  0  0  0
   30.9371   13.1577   30.0735 C   0  0  0  0  0  0  0  0  0  0  0  0
   29.8090    8.3134   32.6033 O   0  0  0  0  0  0  0  0  0  0  0  0
   28.0934   11.0900   29.6917 O   0  0  0  0  0  0  0  0  0  0  0  0
   26.9584   10.6186   26.7400 O   0  0  0  0  0  0  0  0  0  0  0  0
   25.5562   12.1451   27.7192 O   0  0  0  0  0  0  0  0  0  0  0  0
   29.7906   13.6052   29.7920 O   0  0  0  0  0  0  0  0  0  0  0  0
   23.1178    8.3587   30.7060 C   0  0  0  0  0  0  0  0  0  0  0  0
   30.2603   13.1654   33.3282 C   0  0  0  0  0  0  0  0  0  0  0  0
   30.4541    9.4000   30.2348 C   0  0  0  0  0  0  0  0  0  0  0  0
   32.6743    8.7554   27.9070 C   0  0  0  0  0  0  0  0  0  0  0  0
   32.1079   13.5330   29.2210 C   0  0  0  0  0  0  0  0  0  0  0  0
   24.1253    7.2082   30.4576 C   0  0  0  0  0  0  0  0  0  0  0  0
   21.7361    8.0085   30.1089 C   0  0  0  0  0  0  0  0  0  0  0  0
   31.6817   13.2326   33.9105 C   0  0  0  0  0  0  0  0  0  0  0  0
   29.8053   14.5597   32.8697 C   0  0  0  0  0  0  0  0  0  0  0  0
   31.5697    7.7860   27.5711 C   0  0  0  0  0  0  0  0  0  0  0  0
   33.6052    8.4536   28.9175 C   0  0  0  0  0  0  0  0  0  0  0  0
   32.8067    9.9575   27.1878 C   0  0  0  0  0  0  0  0  0  0  0  0
   29.8346    8.2506   29.4256 C   0  0  0  0  0  0  0  0  0  0  0  0
   30.1720    8.3229   27.9252 C   0  0  0  0  0  0  0  0  0  0  0  0
   32.6081   14.9260   29.5839 C   0  0  0  0  0  0  0  0  0  0  0  0
   23.5856    5.8838   31.0168 C   0  0  0  0  0  0  0  0  0  0  0  0
   21.2116    6.6826   30.6708 C   0  0  0  0  0  0  0  0  0  0  0  0
   34.6414    9.3449   29.2099 C   0  0  0  0  0  0  0  0  0  0  0  0
   33.8508   10.8417   27.4788 C   0  0  0  0  0  0  0  0  0  0  0  0
   34.7657   10.5366   28.4907 C   0  0  0  0  0  0  0  0  0  0  0  0
   22.2122    5.5485   30.4210 C   0  0  0  0  0  0  0  0  0  0  0  0
   26.0062    8.9595   28.4473 H   0  0  0  0  0  0  0  0  0  0  0  0
   27.4698   10.5204   32.5883 H   0  0  0  0  0  0  0  0  0  0  0  0
   27.3131    8.8834   31.8731 H   0  0  0  0  0  0  0  0  0  0  0  0
   25.0695    9.6062   31.8520 H   0  0  0  0  0  0  0  0  0  0  0  0
   24.6426   11.2887   31.3802 H   0  0  0  0  0  0  0  0  0  0  0  0
   29.1254   12.1994   31.7751 H   0  0  0  0  0  0  0  0  0  0  0  0
   23.7148    8.8890   28.1532 H   0  0  0  0  0  0  0  0  0  0  0  0
   23.5145   10.6556   28.2375 H   0  0  0  0  0  0  0  0  0  0  0  0
   22.7820   10.4727   30.3633 H   0  0  0  0  0  0  0  0  0  0  0  0
   22.9762    8.4464   31.8068 H   0  0  0  0  0  0  0  0  0  0  0  0
   29.5758   12.8537   34.1491 H   0  0  0  0  0  0  0  0  0  0  0  0
   30.4203   10.3463   29.6640 H   0  0  0  0  0  0  0  0  0  0  0  0
   31.5148    9.1750   30.4455 H   0  0  0  0  0  0  0  0  0  0  0  0
   31.8152   13.5089   28.1488 H   0  0  0  0  0  0  0  0  0  0  0  0
   32.9287   12.8009   29.3773 H   0  0  0  0  0  0  0  0  0  0  0  0
   24.3245    7.0796   29.3743 H   0  0  0  0  0  0  0  0  0  0  0  0
   25.0951    7.4302   30.9515 H   0  0  0  0  0  0  0  0  0  0  0  0
   21.0053    8.8090   30.3587 H   0  0  0  0  0  0  0  0  0  0  0  0
   21.7918    7.9322   29.0021 H   0  0  0  0  0  0  0  0  0  0  0  0
   31.7122   13.9378   34.7686 H   0  0  0  0  0  0  0  0  0  0  0  0
   31.9962   12.2346   34.2809 H   0  0  0  0  0  0  0  0  0  0  0  0
   32.4083   13.5783   33.1436 H   0  0  0  0  0  0  0  0  0  0  0  0
   30.4998   14.9789   32.1094 H   0  0  0  0  0  0  0  0  0  0  0  0
   29.7772   15.2507   33.7398 H   0  0  0  0  0  0  0  0  0  0  0  0
   28.7798   14.5127   32.4434 H   0  0  0  0  0  0  0  0  0  0  0  0
   31.7334    6.8029   28.0657 H   0  0  0  0  0  0  0  0  0  0  0  0
   31.6043    7.5980   26.4754 H   0  0  0  0  0  0  0  0  0  0  0  0
   33.5225    7.5331   29.4830 H   0  0  0  0  0  0  0  0  0  0  0  0
   32.1118   10.2017   26.3938 H   0  0  0  0  0  0  0  0  0  0  0  0
   28.7297    8.2861   29.5159 H   0  0  0  0  0  0  0  0  0  0  0  0
   30.1571    7.2752   29.8493 H   0  0  0  0  0  0  0  0  0  0  0  0
   29.4337    7.6927   27.3877 H   0  0  0  0  0  0  0  0  0  0  0  0
   30.0351    9.3570   27.5429 H   0  0  0  0  0  0  0  0  0  0  0  0
   31.8080   15.6799   29.4141 H   0  0  0  0  0  0  0  0  0  0  0  0
   33.4796   15.1871   28.9467 H   0  0  0  0  0  0  0  0  0  0  0  0
   32.9231   14.9545   30.6505 H   0  0  0  0  0  0  0  0  0  0  0  0
   24.2989    5.0653   30.7730 H   0  0  0  0  0  0  0  0  0  0  0  0
   23.5051    5.9507   32.1252 H   0  0  0  0  0  0  0  0  0  0  0  0
   21.0264    6.7862   31.7630 H   0  0  0  0  0  0  0  0  0  0  0  0
   20.2446    6.4331   30.1810 H   0  0  0  0  0  0  0  0  0  0  0  0
   35.3499    9.1117   29.9938 H   0  0  0  0  0  0  0  0  0  0  0  0
   33.9489   11.7659   26.9239 H   0  0  0  0  0  0  0  0  0  0  0  0
   35.5712   11.2240   28.7162 H   0  0  0  0  0  0  0  0  0  0  0  0
   22.3117    5.3745   29.3268 H   0  0  0  0  0  0  0  0  0  0  0  0
   21.8266    4.6141   30.8871 H   0  0  0  0  0  0  0  0  0  0  0  0
  2  1  1  0
  3  1  1  0
  4  5  1  0
  5  2  1  0
  6  1  1  0
  4  7  1  6
  8  7  1  0
  9  3  1  0
  3 10  1  0
 11  6  1  0
 12  8  1  0
 13 12  1  0
 14  4  2  0
 15  2  2  0
 16 10  1  0
 17 10  2  0
 18 13  2  0
 11 19  1  0
  8 20  1  0
 22 28  1  0
 23 13  1  0
 24 19  1  0
 25 19  1  0
 26 20  1  0
 27 20  1  0
 28 32  1  0
 29 22  2  0
 30 22  1  0
 31 21  1  0
 32 31  1  0
 33 23  1  0
 34 24  1  0
 35 25  1  0
 36 29  1  0
 37 30  2  0
 38 36  2  0
 39 34  1  0
  9 11  1  0
 39 35  1  0
 38 37  1  0
  4 21  1  0
  3 40  1  6
  5 41  1  0
  5 42  1  0
  6 43  1  0
  6 44  1  0
  8 45  1  1
  9 46  1  0
  9 47  1  0
 11 48  1  1
 19 49  1  0
 20 50  1  0
 21 51  1  0
 21 52  1  0
 23 53  1  0
 23 54  1  0
 24 55  1  0
 24 56  1  0
 25 57  1  0
 25 58  1  0
 26 59  1  0
 26 60  1  0
 26 61  1  0
 27 62  1  0
 27 63  1  0
 27 64  1  0
 28 65  1  0
 28 66  1  0
 29 67  1  0
 30 68  1  0
 31 69  1  0
 31 70  1  0
 32 71  1  0
 32 72  1  0
 33 73  1  0
 33 74  1  0
 33 75  1  0
 34 76  1  0
 34 77  1  0
 35 78  1  0
 35 79  1  0
 36 80  1  0
 37 81  1  0
 38 82  1  0
 39 83  1  0
 39 84  1  0
M  CHG  1  16  -1
M  END
> <Uni-Dock RESULT> 
ENERGY=   -3.685  LOWER_BOUND=    7.758  UPPER_BOUND=    9.893
INTER + INTRA:          -3.685
INTER:                  -3.685
INTRA:                   0.000
UNBOUND:                 0.000

$$$$

     RDKit          3D

 84 86  0  0  0  0  0  0  0  0999 V2000
   24.9654    5.5956   32.4338 N   0  0  0  0  0  0  0  0  0  0  0  0
   24.9462    7.0279   32.5551 C   0  0  0  0  0  0  0  0  0  0  0  0
   24.5265    4.9012   31.2328 C   0  0  1  0  0  0  0  0  0  0  0  0
   26.2400    9.5430   32.6938 P   0  0  1  0  0  0  0  0  0  0  0  0
   26.1273    7.7611   33.1418 C   0  0  0  0  0  0  0  0  0  0  0  0
   25.6450    4.7252   33.3795 C   0  0  0  0  0  0  0  0  0  0  0  0
   25.7041   10.5364   33.9803 O   0  0  0  0  0  0  0  0  0  0  0  0
   24.3571   10.2601   34.3109 C   0  0  2  0  0  0  0  0  0  0  0  0
   24.8027    3.4157   31.4798 C   0  0  0  0  0  0  0  0  0  0  0  0
   23.0762    5.1726   30.9373 C   0  0  0  0  0  0  0  0  0  0  0  0
   25.7236    3.3428   32.7130 C   0  0  1  0  0  0  0  0  0  0  0  0
   23.4990   11.0175   33.4523 O   0  0  0  0  0  0  0  0  0  0  0  0
   22.2133   10.6108   33.0739 C   0  0  0  0  0  0  0  0  0  0  0  0
   27.7105    9.8407   32.5007 O   0  0  0  0  0  0  0  0  0  0  0  0
   23.9348    7.6592   32.1615 O   0  0  0  0  0  0  0  0  0  0  0  0
   22.7289    5.8827   29.7924 O   0  0  0  0  0  0  0  0  0  0  0  0
   22.1735    4.8028   31.7367 O   0  0  0  0  0  0  0  0  0  0  0  0
   21.7910    9.4527   33.3465 O   0  0  0  0  0  0  0  0  0  0  0  0
   27.1892    2.9058   32.4058 C   0  0  0  0  0  0  0  0  0  0  0  0
   24.1340   10.6667   35.7868 C   0  0  0  0  0  0  0  0  0  0  0  0
   25.4096    9.9998   31.1270 C   0  0  0  0  0  0  0  0  0  0  0  0
   24.3999   11.6218   28.4600 C   0  0  0  0  0  0  0  0  0  0  0  0
   21.3135   11.5819   32.3772 C   0  0  0  0  0  0  0  0  0  0  0  0
   27.8929    3.7792   31.3369 C   0  0  0  0  0  0  0  0  0  0  0  0
   27.2567    1.4119   32.0161 C   0  0  0  0  0  0  0  0  0  0  0  0
   24.2850   12.1828   35.9929 C   0  0  0  0  0  0  0  0  0  0  0  0
   22.7767   10.1878   36.3250 C   0  0  0  0  0  0  0  0  0  0  0  0
   25.0963   10.4263   27.8613 C   0  0  0  0  0  0  0  0  0  0  0  0
   25.1411   12.7368   28.8915 C   0  0  0  0  0  0  0  0  0  0  0  0
   22.9967   11.6491   28.5604 C   0  0  0  0  0  0  0  0  0  0  0  0
   25.9376    9.1647   29.9509 C   0  0  0  0  0  0  0  0  0  0  0  0
   24.9881    9.1672   28.7389 C   0  0  0  0  0  0  0  0  0  0  0  0
   20.3420   12.2142   33.3666 C   0  0  0  0  0  0  0  0  0  0  0  0
   29.3407    3.3142   31.1233 C   0  0  0  0  0  0  0  0  0  0  0  0
   28.7059    0.9622   31.8006 C   0  0  0  0  0  0  0  0  0  0  0  0
   24.4894   13.8525   29.4247 C   0  0  0  0  0  0  0  0  0  0  0  0
   22.3493   12.7717   29.0867 C   0  0  0  0  0  0  0  0  0  0  0  0
   23.0953   13.8713   29.5207 C   0  0  0  0  0  0  0  0  0  0  0  0
   29.3960    1.8293   30.7416 C   0  0  0  0  0  0  0  0  0  0  0  0
   25.1446    5.2523   30.3762 H   0  0  0  0  0  0  0  0  0  0  0  0
   26.1155    7.6612   34.2468 H   0  0  0  0  0  0  0  0  0  0  0  0
   27.0527    7.2748   32.7676 H   0  0  0  0  0  0  0  0  0  0  0  0
   26.6543    5.1177   33.6305 H   0  0  0  0  0  0  0  0  0  0  0  0
   25.0521    4.6768   34.3192 H   0  0  0  0  0  0  0  0  0  0  0  0
   24.1327    9.1744   34.2354 H   0  0  0  0  0  0  0  0  0  0  0  0
   25.2400    2.9515   30.5746 H   0  0  0  0  0  0  0  0  0  0  0  0
   23.8677    2.8575   31.7043 H   0  0  0  0  0  0  0  0  0  0  0  0
   25.3014    2.6022   33.4272 H   0  0  0  0  0  0  0  0  0  0  0  0
   27.7616    3.0138   33.3546 H   0  0  0  0  0  0  0  0  0  0  0  0
   24.9202   10.1654   36.3952 H   0  0  0  0  0  0  0  0  0  0  0  0
   24.3147    9.8858   31.2307 H   0  0  0  0  0  0  0  0  0  0  0  0
   25.6180   11.0692   30.9449 H   0  0  0  0  0  0  0  0  0  0  0  0
   20.7448   11.0600   31.5772 H   0  0  0  0  0  0  0  0  0  0  0  0
   21.9253   12.3819   31.9083 H   0  0  0  0  0  0  0  0  0  0  0  0
   27.3586    3.7293   30.3664 H   0  0  0  0  0  0  0  0  0  0  0  0
   27.9078    4.8431   31.6557 H   0  0  0  0  0  0  0  0  0  0  0  0
   26.8138    0.7920   32.8266 H   0  0  0  0  0  0  0  0  0  0  0  0
   26.6792    1.2194   31.0869 H   0  0  0  0  0  0  0  0  0  0  0  0
   24.1998   12.4340   37.0719 H   0  0  0  0  0  0  0  0  0  0  0  0
   25.2817   12.5240   35.6433 H   0  0  0  0  0  0  0  0  0  0  0  0
   23.4982   12.7385   35.4380 H   0  0  0  0  0  0  0  0  0  0  0  0
   21.9368   10.7171   35.8244 H   0  0  0  0  0  0  0  0  0  0  0  0
   22.7153   10.3838   37.4173 H   0  0  0  0  0  0  0  0  0  0  0  0
   22.6630    9.0926   36.1722 H   0  0  0  0  0  0  0  0  0  0  0  0
   26.1658   10.6485   27.6493 H   0  0  0  0  0  0  0  0  0  0  0  0
   24.6182   10.2105   26.8805 H   0  0  0  0  0  0  0  0  0  0  0  0
   26.2223   12.7373   28.8224 H   0  0  0  0  0  0  0  0  0  0  0  0
   22.4053   10.8089   28.2179 H   0  0  0  0  0  0  0  0  0  0  0  0
   26.0601    8.1095   30.2699 H   0  0  0  0  0  0  0  0  0  0  0  0
   26.9457    9.5264   29.6547 H   0  0  0  0  0  0  0  0  0  0  0  0
   25.2598    8.3003   28.1020 H   0  0  0  0  0  0  0  0  0  0  0  0
   23.9391    8.9981   29.0634 H   0  0  0  0  0  0  0  0  0  0  0  0
   19.7029   11.4325   33.8333 H   0  0  0  0  0  0  0  0  0  0  0  0
   19.6855   12.9357   32.8354 H   0  0  0  0  0  0  0  0  0  0  0  0
   20.9019   12.7569   34.1602 H   0  0  0  0  0  0  0  0  0  0  0  0
   29.8032    3.9174   30.3106 H   0  0  0  0  0  0  0  0  0  0  0  0
   29.9289    3.4824   32.0534 H   0  0  0  0  0  0  0  0  0  0  0  0
   29.2644    1.0265   32.7607 H   0  0  0  0  0  0  0  0  0  0  0  0
   28.7155   -0.0994   31.4686 H   0  0  0  0  0  0  0  0  0  0  0  0
   25.0648   14.7041   29.7628 H   0  0  0  0  0  0  0  0  0  0  0  0
   21.2697   12.7886   29.1632 H   0  0  0  0  0  0  0  0  0  0  0  0
   22.5922   14.7379   29.9307 H   0  0  0  0  0  0  0  0  0  0  0  0
   28.9014    1.6778   29.7568 H   0  0  0  0  0  0  0  0  0  0  0  0
   30.4590    1.5122   30.6482 H   0  0  0  0  0  0  0  0  0  0  0  0
  2  1  1  0
  3  1  1  0
  4  5  1  0
  5  2  1  0
  6  1  1  0
  4  7  1  6
  8  7  1  0
  9  3  1  0
  3 10  1  0
 11  6  1  0
 12  8  1  0
 13 12  1  0
 14  4  2  0
 15  2  2  0
 16 10  1  0
 17 10  2  0
 18 13  2  0
 11 19  1  0
  8 20  1  0
 22 28  1  0
 23 13  1  0
 24 19  1  0
 25 19  1  0
 26 20  1  0
 27 20  1  0
 28 32  1  0
 29 22  2  0
 30 22  1  0
 31 21  1  0
 32 31  1  0
 33 23  1  0
 34 24  1  0
 35 25  1  0
 36 29  1  0
 37 30  2  0
 38 36  2  0
 39 34  1  0
  9 11  1  0
 39 35  1  0
 38 37  1  0
  4 21  1  0
  3 40  1  6
  5 41  1  0
  5 42  1  0
  6 43  1  0
  6 44  1  0
  8 45  1  1
  9 46  1  0
  9 47  1  0
 11 48  1  1
 19 49  1  0
 20 50  1  0
 21 51  1  0
 21 52  1  0
 23 53  1  0
 23 54  1  0
 24 55  1  0
 24 56  1  0
 25 57  1  0
 25 58  1  0
 26 59  1  0
 26 60  1  0
 26 61  1  0
 27 62  1  0
 27 63  1  0
 27 64  1  0
 28 65  1  0
 28 66  1  0
 29 67  1  0
 30 68  1  0
 31 69  1  0
 31 70  1  0
 32 71  1  0
 32 72  1  0
 33 73  1  0
 33 74  1  0
 33 75  1  0
 34 76  1  0
 34 77  1  0
 35 78  1  0
 35 79  1  0
 36 80  1  0
 37 81  1  0
 38 82  1  0
 39 83  1  0
 39 84  1  0
M  CHG  1  16  -1
M  END
> <Uni-Dock RESULT> 
ENERGY=   -3.667  LOWER_BOUND=    9.954  UPPER_BOUND=   14.157
INTER + INTRA:          -3.667
INTER:                  -3.667
INTRA:                   0.000
UNBOUND:                 0.000

$$$$

     RDKit          3D

 84 86  0  0  0  0  0  0  0  0999 V2000
   26.6233    6.1841   32.2253 N   0  0  0  0  0  0  0  0  0  0  0  0
   26.6060    7.6216   32.2304 C   0  0  0  0  0  0  0  0  0  0  0  0
   25.6840    5.3882   31.4497 C   0  0  1  0  0  0  0  0  0  0  0  0
   27.6973   10.1376   31.5253 P   0  0  1  0  0  0  0  0  0  0  0  0
   27.8915    8.4018   32.1062 C   0  0  0  0  0  0  0  0  0  0  0  0
   27.7132    5.3986   32.7811 C   0  0  0  0  0  0  0  0  0  0  0  0
   27.8156   11.2400   32.8292 O   0  0  0  0  0  0  0  0  0  0  0  0
   26.8134   10.9952   33.7965 C   0  0  2  0  0  0  0  0  0  0  0  0
   26.1072    3.9296   31.6430 C   0  0  0  0  0  0  0  0  0  0  0  0
   24.2637    5.6344   31.8816 C   0  0  0  0  0  0  0  0  0  0  0  0
   27.5144    3.9633   32.2695 C   0  0  1  0  0  0  0  0  0  0  0  0
   25.6149   11.6758   33.4123 O   0  0  0  0  0  0  0  0  0  0  0  0
   24.3261   11.2392   33.7437 C   0  0  0  0  0  0  0  0  0  0  0  0
   28.8733   10.4157   30.6155 O   0  0  0  0  0  0  0  0  0  0  0  0
   25.5057    8.2173   32.3348 O   0  0  0  0  0  0  0  0  0  0  0  0
   23.3732    6.2424   31.0025 O   0  0  0  0  0  0  0  0  0  0  0  0
   23.8814    5.3368   33.0461 O   0  0  0  0  0  0  0  0  0  0  0  0
   24.1388   10.1097   34.2758 O   0  0  0  0  0  0  0  0  0  0  0  0
   28.6611    3.4996   31.3191 C   0  0  0  0  0  0  0  0  0  0  0  0
   27.3212   11.5291   35.1567 C   0  0  0  0  0  0  0  0  0  0  0  0
   26.1903   10.4571   30.5354 C   0  0  0  0  0  0  0  0  0  0  0  0
   23.9422   11.8417   28.5879 C   0  0  0  0  0  0  0  0  0  0  0  0
   23.1613   12.1469   33.5042 C   0  0  0  0  0  0  0  0  0  0  0  0
   28.7175    4.2756   29.9793 C   0  0  0  0  0  0  0  0  0  0  0  0
   28.5923    1.9773   31.0619 C   0  0  0  0  0  0  0  0  0  0  0  0
   27.4902   13.0572   35.1459 C   0  0  0  0  0  0  0  0  0  0  0  0
   26.4197   11.1004   36.3250 C   0  0  0  0  0  0  0  0  0  0  0  0
   24.3076   10.5977   27.8187 C   0  0  0  0  0  0  0  0  0  0  0  0
   24.7525   12.9892   28.5149 C   0  0  0  0  0  0  0  0  0  0  0  0
   22.7661   11.8792   29.3595 C   0  0  0  0  0  0  0  0  0  0  0  0
   26.1123    9.5220   29.3192 C   0  0  0  0  0  0  0  0  0  0  0  0
   24.6934    9.4200   28.7305 C   0  0  0  0  0  0  0  0  0  0  0  0
   22.7699   12.8641   34.7906 C   0  0  0  0  0  0  0  0  0  0  0  0
   29.8956    3.7921   29.1211 C   0  0  0  0  0  0  0  0  0  0  0  0
   29.7700    1.5089   30.2002 C   0  0  0  0  0  0  0  0  0  0  0  0
   24.3976   14.1478   29.2115 C   0  0  0  0  0  0  0  0  0  0  0  0
   22.4113   13.0442   30.0475 C   0  0  0  0  0  0  0  0  0  0  0  0
   23.2277   14.1765   29.9755 C   0  0  0  0  0  0  0  0  0  0  0  0
   29.8196    2.2796   28.8761 C   0  0  0  0  0  0  0  0  0  0  0  0
   25.7909    5.6626   30.3762 H   0  0  0  0  0  0  0  0  0  0  0  0
   28.4240    8.3985   33.0797 H   0  0  0  0  0  0  0  0  0  0  0  0
   28.5365    7.8836   31.3656 H   0  0  0  0  0  0  0  0  0  0  0  0
   28.6994    5.8104   32.4755 H   0  0  0  0  0  0  0  0  0  0  0  0
   27.6561    5.4330   33.8913 H   0  0  0  0  0  0  0  0  0  0  0  0
   26.6261    9.9072   33.9239 H   0  0  0  0  0  0  0  0  0  0  0  0
   26.0667    3.3877   30.6782 H   0  0  0  0  0  0  0  0  0  0  0  0
   25.4243    3.3941   32.3382 H   0  0  0  0  0  0  0  0  0  0  0  0
   27.5252    3.2883   33.1532 H   0  0  0  0  0  0  0  0  0  0  0  0
   29.6184    3.6891   31.8551 H   0  0  0  0  0  0  0  0  0  0  0  0
   28.3244   11.0818   35.3392 H   0  0  0  0  0  0  0  0  0  0  0  0
   25.2907   10.3539   31.1698 H   0  0  0  0  0  0  0  0  0  0  0  0
   26.2388   11.5064   30.1933 H   0  0  0  0  0  0  0  0  0  0  0  0
   22.2971   11.5579   33.1272 H   0  0  0  0  0  0  0  0  0  0  0  0
   23.4330   12.9023   32.7362 H   0  0  0  0  0  0  0  0  0  0  0  0
   27.7806    4.1420   29.4013 H   0  0  0  0  0  0  0  0  0  0  0  0
   28.8416    5.3633   30.1675 H   0  0  0  0  0  0  0  0  0  0  0  0
   28.6269    1.4309   32.0302 H   0  0  0  0  0  0  0  0  0  0  0  0
   27.6438    1.7052   30.5518 H   0  0  0  0  0  0  0  0  0  0  0  0
   27.9314   13.4016   36.1057 H   0  0  0  0  0  0  0  0  0  0  0  0
   28.1749   13.3655   34.3284 H   0  0  0  0  0  0  0  0  0  0  0  0
   26.5105   13.5634   35.0061 H   0  0  0  0  0  0  0  0  0  0  0  0
   25.4211   11.5851   36.2605 H   0  0  0  0  0  0  0  0  0  0  0  0
   26.8903   11.3910   37.2890 H   0  0  0  0  0  0  0  0  0  0  0  0
   26.2917    9.9962   36.3318 H   0  0  0  0  0  0  0  0  0  0  0  0
   25.1278   10.7993   27.0943 H   0  0  0  0  0  0  0  0  0  0  0  0
   23.4215   10.2978   27.2170 H   0  0  0  0  0  0  0  0  0  0  0  0
   25.6619   12.9824   27.9259 H   0  0  0  0  0  0  0  0  0  0  0  0
   22.1184   11.0130   29.4156 H   0  0  0  0  0  0  0  0  0  0  0  0
   26.4187    8.4986   29.6173 H   0  0  0  0  0  0  0  0  0  0  0  0
   26.8322    9.8554   28.5410 H   0  0  0  0  0  0  0  0  0  0  0  0
   24.6560    8.5006   28.1106 H   0  0  0  0  0  0  0  0  0  0  0  0
   23.9437    9.2811   29.5386 H   0  0  0  0  0  0  0  0  0  0  0  0
   22.4724   12.1268   35.5685 H   0  0  0  0  0  0  0  0  0  0  0  0
   21.9083   13.5373   34.5949 H   0  0  0  0  0  0  0  0  0  0  0  0
   23.6224   13.4732   35.1647 H   0  0  0  0  0  0  0  0  0  0  0  0
   29.8777    4.3217   28.1426 H   0  0  0  0  0  0  0  0  0  0  0  0
   30.8549    4.0401   29.6286 H   0  0  0  0  0  0  0  0  0  0  0  0
   30.7224    1.6560   30.7562 H   0  0  0  0  0  0  0  0  0  0  0  0
   29.6607    0.4224   29.9883 H   0  0  0  0  0  0  0  0  0  0  0  0
   25.0288   15.0250   29.1586 H   0  0  0  0  0  0  0  0  0  0  0  0
   21.5062   13.0689   30.6408 H   0  0  0  0  0  0  0  0  0  0  0  0
   22.9527   15.0761   30.5114 H   0  0  0  0  0  0  0  0  0  0  0  0
   28.9145    2.0434   28.2740 H   0  0  0  0  0  0  0  0  0  0  0  0
   30.7144    1.9543   28.2993 H   0  0  0  0  0  0  0  0  0  0  0  0
  2  1  1  0
  3  1  1  0
  4  5  1  0
  5  2  1  0
  6  1  1  0
  4  7  1  6
  8  7  1  0
  9  3  1  0
  3 10  1  0
 11  6  1  0
 12  8  1  0
 13 12  1  0
 14  4  2  0
 15  2  2  0
 16 10  1  0
 17 10  2  0
 18 13  2  0
 11 19  1  0
  8 20  1  0
 22 28  1  0
 23 13  1  0
 24 19  1  0
 25 19  1  0
 26 20  1  0
 27 20  1  0
 28 32  1  0
 29 22  2  0
 30 22  1  0
 31 21  1  0
 32 31  1  0
 33 23  1  0
 34 24  1  0
 35 25  1  0
 36 29  1  0
 37 30  2  0
 38 36  2  0
 39 34  1  0
  9 11  1  0
 39 35  1  0
 38 37  1  0
  4 21  1  0
  3 40  1  6
  5 41  1  0
  5 42  1  0
  6 43  1  0
  6 44  1  0
  8 45  1  1
  9 46  1  0
  9 47  1  0
 11 48  1  1
 19 49  1  0
 20 50  1  0
 21 51  1  0
 21 52  1  0
 23 53  1  0
 23 54  1  0
 24 55  1  0
 24 56  1  0
 25 57  1  0
 25 58  1  0
 26 59  1  0
 26 60  1  0
 26 61  1  0
 27 62  1  0
 27 63  1  0
 27 64  1  0
 28 65  1  0
 28 66  1  0
 29 67  1  0
 30 68  1  0
 31 69  1  0
 31 70  1  0
 32 71  1  0
 32 72  1  0
 33 73  1  0
 33 74  1  0
 33 75  1  0
 34 76  1  0
 34 77  1  0
 35 78  1  0
 35 79  1  0
 36 80  1  0
 37 81  1  0
 38 82  1  0
 39 83  1  0
 39 84  1  0
M  CHG  1  16  -1
M  END
> <Uni-Dock RESULT> 
ENERGY=   -3.593  LOWER_BOUND=    9.533  UPPER_BOUND=   13.560
INTER + INTRA:          -3.593
INTER:                  -3.593
INTRA:                   0.000
UNBOUND:                 0.000

$$$$

     RDKit          3D

 84 86  0  0  0  0  0  0  0  0999 V2000
   28.9565    5.1348   30.5950 N   0  0  0  0  0  0  0  0  0  0  0  0
   28.0721    6.1980   30.9876 C   0  0  0  0  0  0  0  0  0  0  0  0
   30.3227    5.0263   31.0837 C   0  0  1  0  0  0  0  0  0  0  0  0
   25.8291    7.1904   32.4027 P   0  0  1  0  0  0  0  0  0  0  0  0
   26.6434    5.9012   31.3715 C   0  0  0  0  0  0  0  0  0  0  0  0
   28.5089    3.9476   29.8852 C   0  0  0  0  0  0  0  0  0  0  0  0
   24.7794    8.1599   31.4606 O   0  0  0  0  0  0  0  0  0  0  0  0
   25.4842    8.8180   30.4260 C   0  0  2  0  0  0  0  0  0  0  0  0
   30.8730    3.7177   30.5102 C   0  0  0  0  0  0  0  0  0  0  0  0
   31.1484    6.2189   30.6834 C   0  0  0  0  0  0  0  0  0  0  0  0
   29.6608    2.9341   29.9714 C   0  0  1  0  0  0  0  0  0  0  0  0
   26.0430   10.0316   30.9380 O   0  0  0  0  0  0  0  0  0  0  0  0
   27.2165   10.6200   30.4501 C   0  0  0  0  0  0  0  0  0  0  0  0
   24.9606    6.4532   33.3978 O   0  0  0  0  0  0  0  0  0  0  0  0
   28.5075    7.3755   31.0106 O   0  0  0  0  0  0  0  0  0  0  0  0
   31.6243    7.0856   31.6622 O   0  0  0  0  0  0  0  0  0  0  0  0
   31.3779    6.4678   29.4685 O   0  0  0  0  0  0  0  0  0  0  0  0
   27.9503   10.0156   29.6193 O   0  0  0  0  0  0  0  0  0  0  0  0
   29.2854    1.6662   30.7989 C   0  0  0  0  0  0  0  0  0  0  0  0
   24.4837    9.1264   29.2871 C   0  0  0  0  0  0  0  0  0  0  0  0
   26.9723    8.2306   33.3846 C   0  0  0  0  0  0  0  0  0  0  0  0
   28.2104   10.3589   35.5527 C   0  0  0  0  0  0  0  0  0  0  0  0
   27.5780   12.0043   30.8873 C   0  0  0  0  0  0  0  0  0  0  0  0
   29.0397    1.9487   32.3023 C   0  0  0  0  0  0  0  0  0  0  0  0
   30.3403    0.5509   30.6216 C   0  0  0  0  0  0  0  0  0  0  0  0
   23.4058   10.1306   29.7271 C   0  0  0  0  0  0  0  0  0  0  0  0
   25.1852    9.6212   28.0125 C   0  0  0  0  0  0  0  0  0  0  0  0
   28.8720    9.0673   35.9606 C   0  0  0  0  0  0  0  0  0  0  0  0
   26.8998   10.6522   35.9713 C   0  0  0  0  0  0  0  0  0  0  0  0
   28.9111   11.3014   34.7777 C   0  0  0  0  0  0  0  0  0  0  0  0
   27.8690    7.3732   34.2903 C   0  0  0  0  0  0  0  0  0  0  0  0
   29.1247    8.1215   34.7735 C   0  0  0  0  0  0  0  0  0  0  0  0
   27.1560   13.0236   29.8360 C   0  0  0  0  0  0  0  0  0  0  0  0
   28.6338    0.6628   33.0370 C   0  0  0  0  0  0  0  0  0  0  0  0
   29.9260   -0.7243   31.3638 C   0  0  0  0  0  0  0  0  0  0  0  0
   26.2988   11.8613   35.6099 C   0  0  0  0  0  0  0  0  0  0  0  0
   28.3078   12.5135   34.4263 C   0  0  0  0  0  0  0  0  0  0  0  0
   27.0019   12.7918   34.8400 C   0  0  0  0  0  0  0  0  0  0  0  0
   29.6855   -0.4384   32.8505 C   0  0  0  0  0  0  0  0  0  0  0  0
   30.2961    4.9581   32.1944 H   0  0  0  0  0  0  0  0  0  0  0  0
   26.0404    5.7293   30.4562 H   0  0  0  0  0  0  0  0  0  0  0  0
   26.6359    4.9618   31.9636 H   0  0  0  0  0  0  0  0  0  0  0  0
   27.5733    3.5444   30.3300 H   0  0  0  0  0  0  0  0  0  0  0  0
   28.2978    4.2155   28.8266 H   0  0  0  0  0  0  0  0  0  0  0  0
   26.2769    8.1691   29.9953 H   0  0  0  0  0  0  0  0  0  0  0  0
   31.4435    3.1697   31.2850 H   0  0  0  0  0  0  0  0  0  0  0  0
   31.5755    3.9033   29.6686 H   0  0  0  0  0  0  0  0  0  0  0  0
   29.8883    2.5970   28.9363 H   0  0  0  0  0  0  0  0  0  0  0  0
   28.3338    1.2753   30.3729 H   0  0  0  0  0  0  0  0  0  0  0  0
   23.9688    8.1744   29.0261 H   0  0  0  0  0  0  0  0  0  0  0  0
   27.5813    8.8632   32.7127 H   0  0  0  0  0  0  0  0  0  0  0  0
   26.3533    8.9026   34.0054 H   0  0  0  0  0  0  0  0  0  0  0  0
   28.6752   12.0715   31.0534 H   0  0  0  0  0  0  0  0  0  0  0  0
   27.0633   12.2361   31.8442 H   0  0  0  0  0  0  0  0  0  0  0  0
   29.9499    2.3594   32.7847 H   0  0  0  0  0  0  0  0  0  0  0  0
   28.2287    2.6972   32.4275 H   0  0  0  0  0  0  0  0  0  0  0  0
   30.4520    0.3078   29.5419 H   0  0  0  0  0  0  0  0  0  0  0  0
   31.3313    0.8805   31.0001 H   0  0  0  0  0  0  0  0  0  0  0  0
   22.6577   10.2702   28.9176 H   0  0  0  0  0  0  0  0  0  0  0  0
   22.8692    9.7551   30.6233 H   0  0  0  0  0  0  0  0  0  0  0  0
   23.8575   11.1183   29.9644 H   0  0  0  0  0  0  0  0  0  0  0  0
   25.6486   10.6193   28.1709 H   0  0  0  0  0  0  0  0  0  0  0  0
   24.4475    9.7028   27.1853 H   0  0  0  0  0  0  0  0  0  0  0  0
   25.9687    8.8992   27.6954 H   0  0  0  0  0  0  0  0  0  0  0  0
   28.2804    8.5420   36.7430 H   0  0  0  0  0  0  0  0  0  0  0  0
   29.8525    9.3186   36.4217 H   0  0  0  0  0  0  0  0  0  0  0  0
   26.3426    9.9412   36.5693 H   0  0  0  0  0  0  0  0  0  0  0  0
   29.9273   11.1040   34.4594 H   0  0  0  0  0  0  0  0  0  0  0  0
   28.2140    6.4789   33.7323 H   0  0  0  0  0  0  0  0  0  0  0  0
   27.2820    7.0002   35.1571 H   0  0  0  0  0  0  0  0  0  0  0  0
   29.8561    7.3592   35.1127 H   0  0  0  0  0  0  0  0  0  0  0  0
   29.6066    8.6617   33.9309 H   0  0  0  0  0  0  0  0  0  0  0  0
   27.6768   12.8238   28.8736 H   0  0  0  0  0  0  0  0  0  0  0  0
   27.4261   14.0455   30.1777 H   0  0  0  0  0  0  0  0  0  0  0  0
   26.0557   12.9783   29.6778 H   0  0  0  0  0  0  0  0  0  0  0  0
   28.5221    0.8808   34.1225 H   0  0  0  0  0  0  0  0  0  0  0  0
   27.6503    0.3080   32.6547 H   0  0  0  0  0  0  0  0  0  0  0  0
   29.0004   -1.1394   30.9068 H   0  0  0  0  0  0  0  0  0  0  0  0
   30.7301   -1.4861   31.2622 H   0  0  0  0  0  0  0  0  0  0  0  0
   25.2875   12.0783   35.9275 H   0  0  0  0  0  0  0  0  0  0  0  0
   28.8497   13.2356   33.8293 H   0  0  0  0  0  0  0  0  0  0  0  0
   26.5358   13.7293   34.5641 H   0  0  0  0  0  0  0  0  0  0  0  0
   30.6407   -0.1281   33.3289 H   0  0  0  0  0  0  0  0  0  0  0  0
   29.3352   -1.3705   33.3481 H   0  0  0  0  0  0  0  0  0  0  0  0
  2  1  1  0
  3  1  1  0
  4  5  1  0
  5  2  1  0
  6  1  1  0
  4  7  1  6
  8  7  1  0
  9  3  1  0
  3 10  1  0
 11  6  1  0
 12  8  1  0
 13 12  1  0
 14  4  2  0
 15  2  2  0
 16 10  1  0
 17 10  2  0
 18 13  2  0
 11 19  1  0
  8 20  1  0
 22 28  1  0
 23 13  1  0
 24 19  1  0
 25 19  1  0
 26 20  1  0
 27 20  1  0
 28 32  1  0
 29 22  2  0
 30 22  1  0
 31 21  1  0
 32 31  1  0
 33 23  1  0
 34 24  1  0
 35 25  1  0
 36 29  1  0
 37 30  2  0
 38 36  2  0
 39 34  1  0
  9 11  1  0
 39 35  1  0
 38 37  1  0
  4 21  1  0
  3 40  1  6
  5 41  1  0
  5 42  1  0
  6 43  1  0
  6 44  1  0
  8 45  1  1
  9 46  1  0
  9 47  1  0
 11 48  1  1
 19 49  1  0
 20 50  1  0
 21 51  1  0
 21 52  1  0
 23 53  1  0
 23 54  1  0
 24 55  1  0
 24 56  1  0
 25 57  1  0
 25 58  1  0
 26 59  1  0
 26 60  1  0
 26 61  1  0
 27 62  1  0
 27 63  1  0
 27 64  1  0
 28 65  1  0
 28 66  1  0
 29 67  1  0
 30 68  1  0
 31 69  1  0
 31 70  1  0
 32 71  1  0
 32 72  1  0
 33 73  1  0
 33 74  1  0
 33 75  1  0
 34 76  1  0
 34 77  1  0
 35 78  1  0
 35 79  1  0
 36 80  1  0
 37 81  1  0
 38 82  1  0
 39 83  1  0
 39 84  1  0
M  CHG  1  16  -1
M  END
> <Uni-Dock RESULT> 
ENERGY=   -3.580  LOWER_BOUND=    9.506  UPPER_BOUND=   14.335
INTER + INTRA:          -3.580
INTER:                  -3.580
INTRA:                   0.000
UNBOUND:                 0.000

$$$$

     RDKit          3D

 84 86  0  0  0  0  0  0  0  0999 V2000
   30.5672    9.0347   30.6691 N   0  0  0  0  0  0  0  0  0  0  0  0
   31.9510    8.7465   30.4064 C   0  0  0  0  0  0  0  0  0  0  0  0
   30.1214   10.2913   31.2516 C   0  0  1  0  0  0  0  0  0  0  0  0
   34.1344    8.3638   28.6444 P   0  0  1  0  0  0  0  0  0  0  0  0
   32.3665    8.1226   29.0969 C   0  0  0  0  0  0  0  0  0  0  0  0
   29.4740    8.2228   30.1596 C   0  0  0  0  0  0  0  0  0  0  0  0
   35.0484    6.9512   28.9582 O   0  0  0  0  0  0  0  0  0  0  0  0
   34.9982    6.6053   30.3286 C   0  0  2  0  0  0  0  0  0  0  0  0
   28.5918   10.2296   31.2675 C   0  0  0  0  0  0  0  0  0  0  0  0
   30.7005   10.4991   32.6249 C   0  0  0  0  0  0  0  0  0  0  0  0
   28.1938    9.0484   30.3618 C   0  0  1  0  0  0  0  0  0  0  0  0
   36.0051    7.3373   31.0340 O   0  0  0  0  0  0  0  0  0  0  0  0
   35.9023    7.7125   32.3793 C   0  0  0  0  0  0  0  0  0  0  0  0
   34.1651    8.5753   27.1470 O   0  0  0  0  0  0  0  0  0  0  0  0
   32.8080    9.0261   31.2803 O   0  0  0  0  0  0  0  0  0  0  0  0
   31.5980   11.5397   32.8425 O   0  0  0  0  0  0  0  0  0  0  0  0
   30.4169    9.7153   33.5714 O   0  0  0  0  0  0  0  0  0  0  0  0
   34.8226    7.5613   33.0160 O   0  0  0  0  0  0  0  0  0  0  0  0
   27.5238    9.4587   29.0142 C   0  0  0  0  0  0  0  0  0  0  0  0
   35.2576    5.0848   30.4477 C   0  0  0  0  0  0  0  0  0  0  0  0
   34.9295    9.8347   29.3911 C   0  0  0  0  0  0  0  0  0  0  0  0
   37.0273   12.2551   30.1010 C   0  0  0  0  0  0  0  0  0  0  0  0
   37.1057    8.2573   33.0816 C   0  0  0  0  0  0  0  0  0  0  0  0
   28.3689   10.4438   28.1682 C   0  0  0  0  0  0  0  0  0  0  0  0
   26.1034   10.0220   29.2452 C   0  0  0  0  0  0  0  0  0  0  0  0
   36.6798    4.7091   30.0006 C   0  0  0  0  0  0  0  0  0  0  0  0
   34.9868    4.5561   31.8649 C   0  0  0  0  0  0  0  0  0  0  0  0
   35.8020   13.0145   29.6599 C   0  0  0  0  0  0  0  0  0  0  0  0
   37.9181   11.7243   29.1505 C   0  0  0  0  0  0  0  0  0  0  0  0
   37.3115   12.1002   31.4704 C   0  0  0  0  0  0  0  0  0  0  0  0
   34.1577   11.1189   29.0526 C   0  0  0  0  0  0  0  0  0  0  0  0
   34.4900   12.2862   29.9999 C   0  0  0  0  0  0  0  0  0  0  0  0
   37.7879    7.1656   33.8972 C   0  0  0  0  0  0  0  0  0  0  0  0
   27.6637   10.7637   26.8421 C   0  0  0  0  0  0  0  0  0  0  0  0
   25.4131   10.3422   27.9148 C   0  0  0  0  0  0  0  0  0  0  0  0
   39.0650   11.0409   29.5643 C   0  0  0  0  0  0  0  0  0  0  0  0
   38.4652   11.4228   31.8787 C   0  0  0  0  0  0  0  0  0  0  0  0
   39.3397   10.8916   30.9263 C   0  0  0  0  0  0  0  0  0  0  0  0
   26.2535   11.3178   27.0832 C   0  0  0  0  0  0  0  0  0  0  0  0
   30.4487   11.1235   30.5887 H   0  0  0  0  0  0  0  0  0  0  0  0
   32.1371    7.0372   29.1129 H   0  0  0  0  0  0  0  0  0  0  0  0
   31.7605    8.5851   28.2896 H   0  0  0  0  0  0  0  0  0  0  0  0
   29.6317    7.9653   29.0898 H   0  0  0  0  0  0  0  0  0  0  0  0
   29.4266    7.2738   30.7376 H   0  0  0  0  0  0  0  0  0  0  0  0
   33.9932    6.7984   30.7618 H   0  0  0  0  0  0  0  0  0  0  0  0
   28.1657   11.1983   30.9418 H   0  0  0  0  0  0  0  0  0  0  0  0
   28.2007   10.0371   32.2904 H   0  0  0  0  0  0  0  0  0  0  0  0
   27.4670    8.4102   30.9106 H   0  0  0  0  0  0  0  0  0  0  0  0
   27.4035    8.5256   28.4187 H   0  0  0  0  0  0  0  0  0  0  0  0
   34.5443    4.5686   29.7663 H   0  0  0  0  0  0  0  0  0  0  0  0
   35.0163    9.7044   30.4856 H   0  0  0  0  0  0  0  0  0  0  0  0
   35.9529    9.8985   28.9803 H   0  0  0  0  0  0  0  0  0  0  0  0
   36.8041    9.0911   33.7522 H   0  0  0  0  0  0  0  0  0  0  0  0
   37.8241    8.6522   32.3318 H   0  0  0  0  0  0  0  0  0  0  0  0
   28.5411   11.3929   28.7152 H   0  0  0  0  0  0  0  0  0  0  0  0
   29.3633   10.0039   27.9414 H   0  0  0  0  0  0  0  0  0  0  0  0
   25.4865    9.2734   29.7894 H   0  0  0  0  0  0  0  0  0  0  0  0
   26.1400   10.9453   29.8618 H   0  0  0  0  0  0  0  0  0  0  0  0
   36.8097    3.6058   30.0202 H   0  0  0  0  0  0  0  0  0  0  0  0
   36.8629    5.0533   28.9614 H   0  0  0  0  0  0  0  0  0  0  0  0
   37.4398    5.1658   30.6712 H   0  0  0  0  0  0  0  0  0  0  0  0
   35.7246    4.9600   32.5920 H   0  0  0  0  0  0  0  0  0  0  0  0
   35.0567    3.4469   31.8718 H   0  0  0  0  0  0  0  0  0  0  0  0
   33.9607    4.8312   32.1924 H   0  0  0  0  0  0  0  0  0  0  0  0
   35.8385   13.2387   28.5706 H   0  0  0  0  0  0  0  0  0  0  0  0
   35.8031   13.9953   30.1844 H   0  0  0  0  0  0  0  0  0  0  0  0
   37.7191   11.8330   28.0910 H   0  0  0  0  0  0  0  0  0  0  0  0
   36.6487   12.5161   32.2192 H   0  0  0  0  0  0  0  0  0  0  0  0
   33.0679   10.9298   29.1342 H   0  0  0  0  0  0  0  0  0  0  0  0
   34.3521   11.4082   27.9974 H   0  0  0  0  0  0  0  0  0  0  0  0
   33.6711   13.0296   29.9115 H   0  0  0  0  0  0  0  0  0  0  0  0
   34.4877   11.9449   31.0571 H   0  0  0  0  0  0  0  0  0  0  0  0
   37.0928    6.7698   34.6702 H   0  0  0  0  0  0  0  0  0  0  0  0
   38.6813    7.5843   34.4073 H   0  0  0  0  0  0  0  0  0  0  0  0
   38.1122    6.3354   33.2313 H   0  0  0  0  0  0  0  0  0  0  0  0
   28.2610   11.5171   26.2819 H   0  0  0  0  0  0  0  0  0  0  0  0
   27.6013    9.8428   26.2198 H   0  0  0  0  0  0  0  0  0  0  0  0
   25.2516    9.4025   27.3414 H   0  0  0  0  0  0  0  0  0  0  0  0
   24.4179   10.7958   28.1174 H   0  0  0  0  0  0  0  0  0  0  0  0
   39.7426   10.6274   28.8290 H   0  0  0  0  0  0  0  0  0  0  0  0
   38.6799   11.3049   32.9330 H   0  0  0  0  0  0  0  0  0  0  0  0
   40.2304   10.3650   31.2448 H   0  0  0  0  0  0  0  0  0  0  0  0
   26.3208   12.2945   27.6114 H   0  0  0  0  0  0  0  0  0  0  0  0
   25.7517   11.4868   26.1041 H   0  0  0  0  0  0  0  0  0  0  0  0
  2  1  1  0
  3  1  1  0
  4  5  1  0
  5  2  1  0
  6  1  1  0
  4  7  1  6
  8  7  1  0
  9  3  1  0
  3 10  1  0
 11  6  1  0
 12  8  1  0
 13 12  1  0
 14  4  2  0
 15  2  2  0
 16 10  1  0
 17 10  2  0
 18 13  2  0
 11 19  1  0
  8 20  1  0
 22 28  1  0
 23 13  1  0
 24 19  1  0
 25 19  1  0
 26 20  1  0
 27 20  1  0
 28 32  1  0
 29 22  2  0
 30 22  1  0
 31 21  1  0
 32 31  1  0
 33 23  1  0
 34 24  1  0
 35 25  1  0
 36 29  1  0
 37 30  2  0
 38 36  2  0
 39 34  1  0
  9 11  1  0
 39 35  1  0
 38 37  1  0
  4 21  1  0
  3 40  1  6
  5 41  1  0
  5 42  1  0
  6 43  1  0
  6 44  1  0
  8 45  1  1
  9 46  1  0
  9 47  1  0
 11 48  1  1
 19 49  1  0
 20 50  1  0
 21 51  1  0
 21 52  1  0
 23 53  1  0
 23 54  1  0
 24 55  1  0
 24 56  1  0
 25 57  1  0
 25 58  1  0
 26 59  1  0
 26 60  1  0
 26 61  1  0
 27 62  1  0
 27 63  1  0
 27 64  1  0
 28 65  1  0
 28 66  1  0
 29 67  1  0
 30 68  1  0
 31 69  1  0
 31 70  1  0
 32 71  1  0
 32 72  1  0
 33 73  1  0
 33 74  1  0
 33 75  1  0
 34 76  1  0
 34 77  1  0
 35 78  1  0
 35 79  1  0
 36 80  1  0
 37 81  1  0
 38 82  1  0
 39 83  1  0
 39 84  1  0
M  CHG  1  16  -1
M  END
> <Uni-Dock RESULT> 
ENERGY=   -3.463  LOWER_BOUND=    9.081  UPPER_BOUND=   12.239
INTER + INTRA:          -3.463
INTER:                  -3.463
INTRA:                   0.000
UNBOUND:                 0.000

$$$$

     RDKit          3D

 84 86  0  0  0  0  0  0  0  0999 V2000
   32.4651    9.1840   30.8617 N   0  0  0  0  0  0  0  0  0  0  0  0
   31.1461    9.7126   31.0797 C   0  0  0  0  0  0  0  0  0  0  0  0
   32.8859    8.6172   29.5894 C   0  0  1  0  0  0  0  0  0  0  0  0
   29.3492   11.8649   31.4764 P   0  0  1  0  0  0  0  0  0  0  0  0
   30.9586   11.0292   31.7924 C   0  0  0  0  0  0  0  0  0  0  0  0
   33.5672    9.3857   31.7884 C   0  0  0  0  0  0  0  0  0  0  0  0
   28.2737   11.6464   32.7897 O   0  0  0  0  0  0  0  0  0  0  0  0
   28.0104   10.2746   33.0104 C   0  0  2  0  0  0  0  0  0  0  0  0
   34.3684    8.2712   29.7515 C   0  0  0  0  0  0  0  0  0  0  0  0
   32.0555    7.4186   29.2176 C   0  0  0  0  0  0  0  0  0  0  0  0
   34.8433    8.9788   31.0351 C   0  0  1  0  0  0  0  0  0  0  0  0
   26.9453    9.8576   32.1508 O   0  0  0  0  0  0  0  0  0  0  0  0
   26.7994    8.5537   31.6609 C   0  0  0  0  0  0  0  0  0  0  0  0
   29.6465   13.3462   31.4023 O   0  0  0  0  0  0  0  0  0  0  0  0
   30.1539    9.0652   30.6641 O   0  0  0  0  0  0  0  0  0  0  0  0
   31.2239    7.4770   28.1037 O   0  0  0  0  0  0  0  0  0  0  0  0
   32.0701    6.3766   29.9280 O   0  0  0  0  0  0  0  0  0  0  0  0
   27.7076    7.6921   31.8246 O   0  0  0  0  0  0  0  0  0  0  0  0
   35.8094   10.1801   30.7966 C   0  0  0  0  0  0  0  0  0  0  0  0
   27.6041   10.0982   34.4926 C   0  0  0  0  0  0  0  0  0  0  0  0
   28.5447   11.4188   29.8930 C   0  0  0  0  0  0  0  0  0  0  0  0
   26.5584   11.3581   27.2826 C   0  0  0  0  0  0  0  0  0  0  0  0
   25.5276    8.1674   30.9744 C   0  0  0  0  0  0  0  0  0  0  0  0
   35.2439   11.2591   29.8393 C   0  0  0  0  0  0  0  0  0  0  0  0
   37.1940    9.6954   30.3105 C   0  0  0  0  0  0  0  0  0  0  0  0
   26.2782   10.8080   34.8121 C   0  0  0  0  0  0  0  0  0  0  0  0
   27.5306    8.6198   34.9054 C   0  0  0  0  0  0  0  0  0  0  0  0
   27.9082   11.5846   26.6508 C   0  0  0  0  0  0  0  0  0  0  0  0
   25.8414   12.4334   27.8380 C   0  0  0  0  0  0  0  0  0  0  0  0
   25.9855   10.0730   27.2913 C   0  0  0  0  0  0  0  0  0  0  0  0
   29.4758   11.6818   28.6999 C   0  0  0  0  0  0  0  0  0  0  0  0
   29.0552   10.9186   27.4307 C   0  0  0  0  0  0  0  0  0  0  0  0
   24.6016    7.4352   31.9382 C   0  0  0  0  0  0  0  0  0  0  0  0
   36.2323   12.4249   29.6909 C   0  0  0  0  0  0  0  0  0  0  0  0
   38.1688   10.8686   30.1613 C   0  0  0  0  0  0  0  0  0  0  0  0
   24.5800   12.2226   28.4022 C   0  0  0  0  0  0  0  0  0  0  0  0
   24.7191    9.8694   27.8495 C   0  0  0  0  0  0  0  0  0  0  0  0
   24.0183   10.9430   28.4066 C   0  0  0  0  0  0  0  0  0  0  0  0
   37.6040   11.9318   29.2125 C   0  0  0  0  0  0  0  0  0  0  0  0
   32.7744    9.3959   28.8018 H   0  0  0  0  0  0  0  0  0  0  0  0
   31.0869   10.8823   32.8847 H   0  0  0  0  0  0  0  0  0  0  0  0
   31.7553   11.7218   31.4479 H   0  0  0  0  0  0  0  0  0  0  0  0
   33.6126   10.4418   32.1322 H   0  0  0  0  0  0  0  0  0  0  0  0
   33.4136    8.7404   32.6811 H   0  0  0  0  0  0  0  0  0  0  0  0
   28.9169    9.6532   32.8458 H   0  0  0  0  0  0  0  0  0  0  0  0
   34.9331    8.5714   28.8476 H   0  0  0  0  0  0  0  0  0  0  0  0
   34.5221    7.1769   29.8746 H   0  0  0  0  0  0  0  0  0  0  0  0
   35.3844    8.2409   31.6672 H   0  0  0  0  0  0  0  0  0  0  0  0
   35.9706   10.6636   31.7865 H   0  0  0  0  0  0  0  0  0  0  0  0
   28.3963   10.5708   35.1160 H   0  0  0  0  0  0  0  0  0  0  0  0
   28.2230   10.3612   29.9158 H   0  0  0  0  0  0  0  0  0  0  0  0
   27.6373   12.0417   29.7991 H   0  0  0  0  0  0  0  0  0  0  0  0
   25.7538    7.5133   30.1044 H   0  0  0  0  0  0  0  0  0  0  0  0
   25.0156    9.0808   30.6032 H   0  0  0  0  0  0  0  0  0  0  0  0
   35.0436   10.8351   28.8344 H   0  0  0  0  0  0  0  0  0  0  0  0
   34.2841   11.6584   30.2308 H   0  0  0  0  0  0  0  0  0  0  0  0
   37.6196    8.9770   31.0453 H   0  0  0  0  0  0  0  0  0  0  0  0
   37.1093    9.1728   29.3340 H   0  0  0  0  0  0  0  0  0  0  0  0
   26.0540   10.7327   35.8977 H   0  0  0  0  0  0  0  0  0  0  0  0
   26.3435   11.8855   34.5536 H   0  0  0  0  0  0  0  0  0  0  0  0
   25.4377   10.3514   34.2457 H   0  0  0  0  0  0  0  0  0  0  0  0
   26.6955    8.0994   34.3878 H   0  0  0  0  0  0  0  0  0  0  0  0
   27.3670    8.5436   36.0021 H   0  0  0  0  0  0  0  0  0  0  0  0
   28.4864    8.1032   34.6705 H   0  0  0  0  0  0  0  0  0  0  0  0
   28.1166   12.6705   26.5260 H   0  0  0  0  0  0  0  0  0  0  0  0
   27.8820   11.1485   25.6279 H   0  0  0  0  0  0  0  0  0  0  0  0
   26.2633   13.4313   27.8411 H   0  0  0  0  0  0  0  0  0  0  0  0
   26.5122    9.2341   26.8534 H   0  0  0  0  0  0  0  0  0  0  0  0
   30.5052   11.3558   28.9532 H   0  0  0  0  0  0  0  0  0  0  0  0
   29.5287   12.7730   28.4969 H   0  0  0  0  0  0  0  0  0  0  0  0
   29.9347   10.8868   26.7551 H   0  0  0  0  0  0  0  0  0  0  0  0
   28.8102    9.8624   27.6725 H   0  0  0  0  0  0  0  0  0  0  0  0
   25.0859    6.5041   32.3066 H   0  0  0  0  0  0  0  0  0  0  0  0
   23.6609    7.1604   31.4155 H   0  0  0  0  0  0  0  0  0  0  0  0
   24.3527    8.0898   32.8027 H   0  0  0  0  0  0  0  0  0  0  0  0
   35.8296   13.1551   28.9541 H   0  0  0  0  0  0  0  0  0  0  0  0
   36.3435   12.9478   30.6673 H   0  0  0  0  0  0  0  0  0  0  0  0
   38.3650   11.3213   31.1585 H   0  0  0  0  0  0  0  0  0  0  0  0
   39.1356   10.4939   29.7585 H   0  0  0  0  0  0  0  0  0  0  0  0
   24.0363   13.0517   28.8355 H   0  0  0  0  0  0  0  0  0  0  0  0
   24.2821    8.8792   27.8551 H   0  0  0  0  0  0  0  0  0  0  0  0
   23.0397   10.7824   28.8409 H   0  0  0  0  0  0  0  0  0  0  0  0
   37.5122   11.5060   28.1889 H   0  0  0  0  0  0  0  0  0  0  0  0
   38.3097   12.7916   29.1683 H   0  0  0  0  0  0  0  0  0  0  0  0
  2  1  1  0
  3  1  1  0
  4  5  1  0
  5  2  1  0
  6  1  1  0
  4  7  1  6
  8  7  1  0
  9  3  1  0
  3 10  1  0
 11  6  1  0
 12  8  1  0
 13 12  1  0
 14  4  2  0
 15  2  2  0
 16 10  1  0
 17 10  2  0
 18 13  2  0
 11 19  1  0
  8 20  1  0
 22 28  1  0
 23 13  1  0
 24 19  1  0
 25 19  1  0
 26 20  1  0
 27 20  1  0
 28 32  1  0
 29 22  2  0
 30 22  1  0
 31 21  1  0
 32 31  1  0
 33 23  1  0
 34 24  1  0
 35 25  1  0
 36 29  1  0
 37 30  2  0
 38 36  2  0
 39 34  1  0
  9 11  1  0
 39 35  1  0
 38 37  1  0
  4 21  1  0
  3 40  1  6
  5 41  1  0
  5 42  1  0
  6 43  1  0
  6 44  1  0
  8 45  1  1
  9 46  1  0
  9 47  1  0
 11 48  1  1
 19 49  1  0
 20 50  1  0
 21 51  1  0
 21 52  1  0
 23 53  1  0
 23 54  1  0
 24 55  1  0
 24 56  1  0
 25 57  1  0
 25 58  1  0
 26 59  1  0
 26 60  1  0
 26 61  1  0
 27 62  1  0
 27 63  1  0
 27 64  1  0
 28 65  1  0
 28 66  1  0
 29 67  1  0
 30 68  1  0
 31 69  1  0
 31 70  1  0
 32 71  1  0
 32 72  1  0
 33 73  1  0
 33 74  1  0
 33 75  1  0
 34 76  1  0
 34 77  1  0
 35 78  1  0
 35 79  1  0
 36 80  1  0
 37 81  1  0
 38 82  1  0
 39 83  1  0
 39 84  1  0
M  CHG  1  16  -1
M  END
> <Uni-Dock RESULT> 
ENERGY=   -3.417  LOWER_BOUND=    7.935  UPPER_BOUND=   12.390
INTER + INTRA:          -3.417
INTER:                  -3.417
INTRA:                   0.000
UNBOUND:                 0.000

$$$$
