
     RDKit          3D

 84 86  0  0  0  0  0  0  0  0999 V2000
   26.1707    4.3516   32.3169 N   0  0  0  0  0  0  0  0  0  0  0  0
   27.2922    4.2782   31.4206 C   0  0  0  0  0  0  0  0  0  0  0  0
   24.8496    4.8164   31.9166 C   0  0  1  0  0  0  0  0  0  0  0  0
   29.9636    4.6769   30.7489 P   0  0  1  0  0  0  0  0  0  0  0  0
   28.6916    4.1993   31.9699 C   0  0  0  0  0  0  0  0  0  0  0  0
   26.2028    3.8246   33.6710 C   0  0  0  0  0  0  0  0  0  0  0  0
   29.4860    6.1645   30.0511 O   0  0  0  0  0  0  0  0  0  0  0  0
   30.6013    6.8078   29.4709 C   0  0  2  0  0  0  0  0  0  0  0  0
   23.9914    4.7459   33.1822 C   0  0  0  0  0  0  0  0  0  0  0  0
   24.9040    6.2144   31.3661 C   0  0  0  0  0  0  0  0  0  0  0  0
   24.7453    3.8176   34.1557 C   0  0  1  0  0  0  0  0  0  0  0  0
   31.3256    7.4992   30.4951 O   0  0  0  0  0  0  0  0  0  0  0  0
   32.7188    7.6124   30.5311 C   0  0  0  0  0  0  0  0  0  0  0  0
   31.2804    4.8302   31.4790 O   0  0  0  0  0  0  0  0  0  0  0  0
   27.0893    4.2577   30.1748 O   0  0  0  0  0  0  0  0  0  0  0  0
   24.0941    6.5677   30.2919 O   0  0  0  0  0  0  0  0  0  0  0  0
   25.6406    7.0853   31.9029 O   0  0  0  0  0  0  0  0  0  0  0  0
   33.4398    7.0016   29.6959 O   0  0  0  0  0  0  0  0  0  0  0  0
   24.1477    2.3790   34.2513 C   0  0  0  0  0  0  0  0  0  0  0  0
   30.0908    7.8135   28.4134 C   0  0  0  0  0  0  0  0  0  0  0  0
   30.1474    3.4253   29.4232 C   0  0  0  0  0  0  0  0  0  0  0  0
   29.7049   -0.0068   32.2657 C   0  0  0  0  0  0  0  0  0  0  0  0
   33.3551    8.4666   31.5820 C   0  0  0  0  0  0  0  0  0  0  0  0
   22.8088    2.3822   35.0439 C   0  0  0  0  0  0  0  0  0  0  0  0
   23.9933    1.6736   32.8807 C   0  0  0  0  0  0  0  0  0  0  0  0
   31.2464    8.4535   27.6334 C   0  0  0  0  0  0  0  0  0  0  0  0
   29.2056    8.9009   29.0396 C   0  0  0  0  0  0  0  0  0  0  0  0
   30.9364    0.1301   31.4038 C   0  0  0  0  0  0  0  0  0  0  0  0
   28.5413   -0.6004   31.7485 C   0  0  0  0  0  0  0  0  0  0  0  0
   29.6924    0.5075   33.5752 C   0  0  0  0  0  0  0  0  0  0  0  0
   29.9991    1.9831   29.9241 C   0  0  0  0  0  0  0  0  0  0  0  0
   31.1172    1.5669   30.8951 C   0  0  0  0  0  0  0  0  0  0  0  0
   34.0863    9.6482   30.9540 C   0  0  0  0  0  0  0  0  0  0  0  0
   21.8577    1.2337   34.6565 C   0  0  0  0  0  0  0  0  0  0  0  0
   23.5247    0.2112   33.0334 C   0  0  0  0  0  0  0  0  0  0  0  0
   27.3880   -0.6886   32.5327 C   0  0  0  0  0  0  0  0  0  0  0  0
   28.5347    0.4202   34.3548 C   0  0  0  0  0  0  0  0  0  0  0  0
   27.3850   -0.1797   33.8351 C   0  0  0  0  0  0  0  0  0  0  0  0
   22.6342   -0.0266   34.2692 C   0  0  0  0  0  0  0  0  0  0  0  0
   24.4419    4.1272   31.1441 H   0  0  0  0  0  0  0  0  0  0  0  0
   28.7760    4.8986   32.8277 H   0  0  0  0  0  0  0  0  0  0  0  0
   28.8908    3.1753   32.3468 H   0  0  0  0  0  0  0  0  0  0  0  0
   26.8167    4.4934   34.3107 H   0  0  0  0  0  0  0  0  0  0  0  0
   26.6551    2.8097   33.6788 H   0  0  0  0  0  0  0  0  0  0  0  0
   31.2536    6.0735   28.9408 H   0  0  0  0  0  0  0  0  0  0  0  0
   23.9028    5.7500   33.6559 H   0  0  0  0  0  0  0  0  0  0  0  0
   22.9637    4.3994   32.9467 H   0  0  0  0  0  0  0  0  0  0  0  0
   24.7180    4.2630   35.1769 H   0  0  0  0  0  0  0  0  0  0  0  0
   24.8660    1.7672   34.8463 H   0  0  0  0  0  0  0  0  0  0  0  0
   29.4692    7.2493   27.6835 H   0  0  0  0  0  0  0  0  0  0  0  0
   31.1342    3.5547   28.9306 H   0  0  0  0  0  0  0  0  0  0  0  0
   29.3619    3.6150   28.6619 H   0  0  0  0  0  0  0  0  0  0  0  0
   32.5715    8.8498   32.2734 H   0  0  0  0  0  0  0  0  0  0  0  0
   34.0708    7.8551   32.1727 H   0  0  0  0  0  0  0  0  0  0  0  0
   22.2615    3.3384   34.9087 H   0  0  0  0  0  0  0  0  0  0  0  0
   23.0436    2.3044   36.1286 H   0  0  0  0  0  0  0  0  0  0  0  0
   24.9566    1.6819   32.3264 H   0  0  0  0  0  0  0  0  0  0  0  0
   23.2447    2.2140   32.2620 H   0  0  0  0  0  0  0  0  0  0  0  0
   31.8726    7.6683   27.1592 H   0  0  0  0  0  0  0  0  0  0  0  0
   30.8460    9.1046   26.8277 H   0  0  0  0  0  0  0  0  0  0  0  0
   31.8809    9.0750   28.2989 H   0  0  0  0  0  0  0  0  0  0  0  0
   29.7816    9.5067   29.7720 H   0  0  0  0  0  0  0  0  0  0  0  0
   28.3353    8.4444   29.5569 H   0  0  0  0  0  0  0  0  0  0  0  0
   28.8138    9.5775   28.2500 H   0  0  0  0  0  0  0  0  0  0  0  0
   30.8983   -0.5725   30.5427 H   0  0  0  0  0  0  0  0  0  0  0  0
   31.8274   -0.1503   32.0067 H   0  0  0  0  0  0  0  0  0  0  0  0
   28.5245   -0.9889   30.7358 H   0  0  0  0  0  0  0  0  0  0  0  0
   30.5756    0.9810   33.9863 H   0  0  0  0  0  0  0  0  0  0  0  0
   30.0252    1.3063   29.0442 H   0  0  0  0  0  0  0  0  0  0  0  0
   29.0028    1.8634   30.3943 H   0  0  0  0  0  0  0  0  0  0  0  0
   32.0958    1.6371   30.3719 H   0  0  0  0  0  0  0  0  0  0  0  0
   31.1558    2.2492   31.7686 H   0  0  0  0  0  0  0  0  0  0  0  0
   33.3870   10.2521   30.3332 H   0  0  0  0  0  0  0  0  0  0  0  0
   34.9261    9.2876   30.3201 H   0  0  0  0  0  0  0  0  0  0  0  0
   34.5013   10.2962   31.7545 H   0  0  0  0  0  0  0  0  0  0  0  0
   21.2219    1.5472   33.7978 H   0  0  0  0  0  0  0  0  0  0  0  0
   21.1807    1.0095   35.5101 H   0  0  0  0  0  0  0  0  0  0  0  0
   24.4077   -0.4601   33.1025 H   0  0  0  0  0  0  0  0  0  0  0  0
   22.9658   -0.0780   32.1147 H   0  0  0  0  0  0  0  0  0  0  0  0
   26.4982   -1.1523   32.1276 H   0  0  0  0  0  0  0  0  0  0  0  0
   28.5282    0.8182   35.3619 H   0  0  0  0  0  0  0  0  0  0  0  0
   26.4920   -0.2498   34.4427 H   0  0  0  0  0  0  0  0  0  0  0  0
   23.2675   -0.3400   35.1294 H   0  0  0  0  0  0  0  0  0  0  0  0
   21.9205   -0.8521   34.0581 H   0  0  0  0  0  0  0  0  0  0  0  0
  2  1  1  0
  3  1  1  0
  4  5  1  0
  5  2  1  0
  6  1  1  0
  4  7  1  1
  8  7  1  0
  9  3  1  0
  3 10  1  0
 11  6  1  0
 12  8  1  0
 13 12  1  0
 14  4  2  0
 15  2  2  0
 16 10  1  0
 17 10  2  0
 18 13  2  0
 11 19  1  0
  8 20  1  0
 22 28  1  0
 23 13  1  0
 24 19  1  0
 25 19  1  0
 26 20  1  0
 27 20  1  0
 28 32  1  0
 29 22  2  0
 30 22  1  0
 31 21  1  0
 32 31  1  0
 33 23  1  0
 34 24  1  0
 35 25  1  0
 36 29  1  0
 37 30  2  0
 38 36  2  0
 39 34  1  0
  9 11  1  0
 39 35  1  0
 38 37  1  0
  4 21  1  0
  3 40  1  1
  5 41  1  0
  5 42  1  0
  6 43  1  0
  6 44  1  0
  8 45  1  1
  9 46  1  0
  9 47  1  0
 11 48  1  6
 19 49  1  0
 20 50  1  0
 21 51  1  0
 21 52  1  0
 23 53  1  0
 23 54  1  0
 24 55  1  0
 24 56  1  0
 25 57  1  0
 25 58  1  0
 26 59  1  0
 26 60  1  0
 26 61  1  0
 27 62  1  0
 27 63  1  0
 27 64  1  0
 28 65  1  0
 28 66  1  0
 29 67  1  0
 30 68  1  0
 31 69  1  0
 31 70  1  0
 32 71  1  0
 32 72  1  0
 33 73  1  0
 33 74  1  0
 33 75  1  0
 34 76  1  0
 34 77  1  0
 35 78  1  0
 35 79  1  0
 36 80  1  0
 37 81  1  0
 38 82  1  0
 39 83  1  0
 39 84  1  0
M  CHG  1  16  -1
M  END
> <Uni-Dock RESULT> 
ENERGY=   -3.710  LOWER_BOUND=    0.000  UPPER_BOUND=    0.000
INTER + INTRA:          -3.710
INTER:                  -3.710
INTRA:                   0.000
UNBOUND:                 0.000

$$$$

     RDKit          3D

 84 86  0  0  0  0  0  0  0  0999 V2000
   25.5251    5.6374   31.5871 N   0  0  0  0  0  0  0  0  0  0  0  0
   25.0784    6.8914   31.0448 C   0  0  0  0  0  0  0  0  0  0  0  0
   24.9054    4.3575   31.2715 C   0  0  1  0  0  0  0  0  0  0  0  0
   24.3852    9.5792   31.2505 P   0  0  1  0  0  0  0  0  0  0  0  0
   25.4684    8.1828   31.7130 C   0  0  0  0  0  0  0  0  0  0  0  0
   26.7344    5.5037   32.3822 C   0  0  0  0  0  0  0  0  0  0  0  0
   22.7633    9.0669   31.4375 O   0  0  0  0  0  0  0  0  0  0  0  0
   21.9114   10.1874   31.5520 C   0  0  2  0  0  0  0  0  0  0  0  0
   25.6838    3.3166   32.0800 C   0  0  0  0  0  0  0  0  0  0  0  0
   23.4452    4.3525   31.6295 C   0  0  0  0  0  0  0  0  0  0  0  0
   27.0082    3.9957   32.4837 C   0  0  1  0  0  0  0  0  0  0  0  0
   21.9387   10.6574   32.9047 O   0  0  0  0  0  0  0  0  0  0  0  0
   21.8766   12.0061   33.2685 C   0  0  0  0  0  0  0  0  0  0  0  0
   24.6883   10.7354   32.1788 O   0  0  0  0  0  0  0  0  0  0  0  0
   24.3784    6.8980   29.9943 O   0  0  0  0  0  0  0  0  0  0  0  0
   22.5333    3.6961   30.8096 O   0  0  0  0  0  0  0  0  0  0  0  0
   23.0457    4.8952   32.6950 O   0  0  0  0  0  0  0  0  0  0  0  0
   21.9021   12.9143   32.3939 O   0  0  0  0  0  0  0  0  0  0  0  0
   28.2364    3.5464   31.6321 C   0  0  0  0  0  0  0  0  0  0  0  0
   20.4772    9.7526   31.1720 C   0  0  0  0  0  0  0  0  0  0  0  0
   24.6498   10.1084   29.5162 C   0  0  0  0  0  0  0  0  0  0  0  0
   29.0887    9.5743   29.7733 C   0  0  0  0  0  0  0  0  0  0  0  0
   21.7853   12.3681   34.7174 C   0  0  0  0  0  0  0  0  0  0  0  0
   28.6796    2.1035   32.0094 C   0  0  0  0  0  0  0  0  0  0  0  0
   28.0258    3.6934   30.1044 C   0  0  0  0  0  0  0  0  0  0  0  0
   19.5135   10.9456   31.1323 C   0  0  0  0  0  0  0  0  0  0  0  0
   19.9403    8.6668   32.1160 C   0  0  0  0  0  0  0  0  0  0  0  0
   28.4904   10.9084   29.3986 C   0  0  0  0  0  0  0  0  0  0  0  0
   29.2694    8.5803   28.7970 C   0  0  0  0  0  0  0  0  0  0  0  0
   29.4195    9.2939   31.1117 C   0  0  0  0  0  0  0  0  0  0  0  0
   26.1170   10.0341   29.0751 C   0  0  0  0  0  0  0  0  0  0  0  0
   27.0233   11.0165   29.8367 C   0  0  0  0  0  0  0  0  0  0  0  0
   20.4625   13.0627   35.0228 C   0  0  0  0  0  0  0  0  0  0  0  0
   29.3906    1.3554   30.8654 C   0  0  0  0  0  0  0  0  0  0  0  0
   29.3073    3.3638   29.3103 C   0  0  0  0  0  0  0  0  0  0  0  0
   29.7837    7.3304   29.1521 C   0  0  0  0  0  0  0  0  0  0  0  0
   29.9305    8.0403   31.4626 C   0  0  0  0  0  0  0  0  0  0  0  0
   30.1150    7.0609   30.4836 C   0  0  0  0  0  0  0  0  0  0  0  0
   30.2054    2.3139   29.9943 C   0  0  0  0  0  0  0  0  0  0  0  0
   25.0230    4.1568   30.1834 H   0  0  0  0  0  0  0  0  0  0  0  0
   25.3891    8.0515   32.8123 H   0  0  0  0  0  0  0  0  0  0  0  0
   26.5244    8.4252   31.4761 H   0  0  0  0  0  0  0  0  0  0  0  0
   26.5586    5.9306   33.3924 H   0  0  0  0  0  0  0  0  0  0  0  0
   27.5729    6.0536   31.9036 H   0  0  0  0  0  0  0  0  0  0  0  0
   22.2127   10.9915   30.8391 H   0  0  0  0  0  0  0  0  0  0  0  0
   25.1332    3.0461   33.0096 H   0  0  0  0  0  0  0  0  0  0  0  0
   25.8249    2.3838   31.4957 H   0  0  0  0  0  0  0  0  0  0  0  0
   27.2298    3.7550   33.5490 H   0  0  0  0  0  0  0  0  0  0  0  0
   29.0841    4.2187   31.9038 H   0  0  0  0  0  0  0  0  0  0  0  0
   20.5155    9.3218   30.1472 H   0  0  0  0  0  0  0  0  0  0  0  0
   24.2680   11.1430   29.3861 H   0  0  0  0  0  0  0  0  0  0  0  0
   24.0518    9.4421   28.8598 H   0  0  0  0  0  0  0  0  0  0  0  0
   21.8631   11.4461   35.3360 H   0  0  0  0  0  0  0  0  0  0  0  0
   22.6301   13.0386   34.9854 H   0  0  0  0  0  0  0  0  0  0  0  0
   27.8152    1.4873   32.3342 H   0  0  0  0  0  0  0  0  0  0  0  0
   29.3678    2.1650   32.8813 H   0  0  0  0  0  0  0  0  0  0  0  0
   27.7074    4.7279   29.8517 H   0  0  0  0  0  0  0  0  0  0  0  0
   27.2227    3.0028   29.7675 H   0  0  0  0  0  0  0  0  0  0  0  0
   19.8884   11.7205   30.4305 H   0  0  0  0  0  0  0  0  0  0  0  0
   18.5150   10.6154   30.7756 H   0  0  0  0  0  0  0  0  0  0  0  0
   19.3914   11.3935   32.1404 H   0  0  0  0  0  0  0  0  0  0  0  0
   19.8691    9.0481   33.1576 H   0  0  0  0  0  0  0  0  0  0  0  0
   20.6050    7.7772   32.1041 H   0  0  0  0  0  0  0  0  0  0  0  0
   18.9302    8.3397   31.7883 H   0  0  0  0  0  0  0  0  0  0  0  0
   28.5707   11.0860   28.3038 H   0  0  0  0  0  0  0  0  0  0  0  0
   29.0725   11.7137   29.8972 H   0  0  0  0  0  0  0  0  0  0  0  0
   29.0057    8.7703   27.7621 H   0  0  0  0  0  0  0  0  0  0  0  0
   29.2743   10.0429   31.8805 H   0  0  0  0  0  0  0  0  0  0  0  0
   26.1660   10.2751   27.9924 H   0  0  0  0  0  0  0  0  0  0  0  0
   26.4780    8.9928   29.1910 H   0  0  0  0  0  0  0  0  0  0  0  0
   26.6723   12.0543   29.6469 H   0  0  0  0  0  0  0  0  0  0  0  0
   26.9667   10.8395   30.9301 H   0  0  0  0  0  0  0  0  0  0  0  0
   19.6067   12.4140   34.7296 H   0  0  0  0  0  0  0  0  0  0  0  0
   20.3996   14.0281   34.4741 H   0  0  0  0  0  0  0  0  0  0  0  0
   20.3947   13.2703   36.1115 H   0  0  0  0  0  0  0  0  0  0  0  0
   28.6362    0.8387   30.2299 H   0  0  0  0  0  0  0  0  0  0  0  0
   30.0594    0.5759   31.2920 H   0  0  0  0  0  0  0  0  0  0  0  0
   29.9028    4.2899   29.1586 H   0  0  0  0  0  0  0  0  0  0  0  0
   29.0126    2.9962   28.3014 H   0  0  0  0  0  0  0  0  0  0  0  0
   29.9244    6.5729   28.3923 H   0  0  0  0  0  0  0  0  0  0  0  0
   30.1830    7.8273   32.4940 H   0  0  0  0  0  0  0  0  0  0  0  0
   30.5151    6.0933   30.7578 H   0  0  0  0  0  0  0  0  0  0  0  0
   30.9603    2.8279   30.6307 H   0  0  0  0  0  0  0  0  0  0  0  0
   30.7548    1.7358   29.2203 H   0  0  0  0  0  0  0  0  0  0  0  0
  2  1  1  0
  3  1  1  0
  4  5  1  0
  5  2  1  0
  6  1  1  0
  4  7  1  1
  8  7  1  0
  9  3  1  0
  3 10  1  0
 11  6  1  0
 12  8  1  0
 13 12  1  0
 14  4  2  0
 15  2  2  0
 16 10  1  0
 17 10  2  0
 18 13  2  0
 11 19  1  0
  8 20  1  0
 22 28  1  0
 23 13  1  0
 24 19  1  0
 25 19  1  0
 26 20  1  0
 27 20  1  0
 28 32  1  0
 29 22  2  0
 30 22  1  0
 31 21  1  0
 32 31  1  0
 33 23  1  0
 34 24  1  0
 35 25  1  0
 36 29  1  0
 37 30  2  0
 38 36  2  0
 39 34  1  0
  9 11  1  0
 39 35  1  0
 38 37  1  0
  4 21  1  0
  3 40  1  1
  5 41  1  0
  5 42  1  0
  6 43  1  0
  6 44  1  0
  8 45  1  1
  9 46  1  0
  9 47  1  0
 11 48  1  6
 19 49  1  0
 20 50  1  0
 21 51  1  0
 21 52  1  0
 23 53  1  0
 23 54  1  0
 24 55  1  0
 24 56  1  0
 25 57  1  0
 25 58  1  0
 26 59  1  0
 26 60  1  0
 26 61  1  0
 27 62  1  0
 27 63  1  0
 27 64  1  0
 28 65  1  0
 28 66  1  0
 29 67  1  0
 30 68  1  0
 31 69  1  0
 31 70  1  0
 32 71  1  0
 32 72  1  0
 33 73  1  0
 33 74  1  0
 33 75  1  0
 34 76  1  0
 34 77  1  0
 35 78  1  0
 35 79  1  0
 36 80  1  0
 37 81  1  0
 38 82  1  0
 39 83  1  0
 39 84  1  0
M  CHG  1  16  -1
M  END
> <Uni-Dock RESULT> 
ENERGY=   -3.677  LOWER_BOUND=    3.876  UPPER_BOUND=    8.362
INTER + INTRA:          -3.677
INTER:                  -3.677
INTRA:                   0.000
UNBOUND:                 0.000

$$$$

     RDKit          3D

 84 86  0  0  0  0  0  0  0  0999 V2000
   28.4149   12.3107   26.2544 N   0  0  0  0  0  0  0  0  0  0  0  0
   29.2800   11.6478   27.1916 C   0  0  0  0  0  0  0  0  0  0  0  0
   27.3013   13.1623   26.6501 C   0  0  1  0  0  0  0  0  0  0  0  0
   30.6915    9.4431   28.1370 P   0  0  1  0  0  0  0  0  0  0  0  0
   30.1196   10.4804   26.7463 C   0  0  0  0  0  0  0  0  0  0  0  0
   28.6587   12.3215   24.8217 C   0  0  0  0  0  0  0  0  0  0  0  0
   29.3358    9.0941   29.1209 O   0  0  0  0  0  0  0  0  0  0  0  0
   29.5945    7.9562   29.9164 C   0  0  2  0  0  0  0  0  0  0  0  0
   26.6581   13.6275   25.3414 C   0  0  0  0  0  0  0  0  0  0  0  0
   26.3198   12.4163   27.5107 C   0  0  0  0  0  0  0  0  0  0  0  0
   27.7081   13.3783   24.2398 C   0  0  1  0  0  0  0  0  0  0  0  0
   29.3557    6.7785   29.1369 O   0  0  0  0  0  0  0  0  0  0  0  0
   30.1125    5.6067   29.2333 C   0  0  0  0  0  0  0  0  0  0  0  0
   31.2746    8.1696   27.5635 O   0  0  0  0  0  0  0  0  0  0  0  0
   29.3442   12.0684   28.3802 O   0  0  0  0  0  0  0  0  0  0  0  0
   25.6983   13.0641   28.5732 O   0  0  0  0  0  0  0  0  0  0  0  0
   26.0157   11.2218   27.2464 O   0  0  0  0  0  0  0  0  0  0  0  0
   31.1441    5.5600   29.9571 O   0  0  0  0  0  0  0  0  0  0  0  0
   28.4525   14.6671   23.7702 C   0  0  0  0  0  0  0  0  0  0  0  0
   28.6444    7.9852   31.1357 C   0  0  0  0  0  0  0  0  0  0  0  0
   31.9631   10.2906   29.1482 C   0  0  0  0  0  0  0  0  0  0  0  0
   33.9786   12.0678   25.5658 C   0  0  0  0  0  0  0  0  0  0  0  0
   29.6892    4.3984   28.4588 C   0  0  0  0  0  0  0  0  0  0  0  0
   27.5238   15.5629   22.9008 C   0  0  0  0  0  0  0  0  0  0  0  0
   29.0978   15.4726   24.9254 C   0  0  0  0  0  0  0  0  0  0  0  0
   28.9577    6.8573   32.1272 C   0  0  0  0  0  0  0  0  0  0  0  0
   27.1694    7.9260   30.7121 C   0  0  0  0  0  0  0  0  0  0  0  0
   34.7421   11.1890   26.5264 C   0  0  0  0  0  0  0  0  0  0  0  0
   33.8031   13.4339   25.8427 C   0  0  0  0  0  0  0  0  0  0  0  0
   33.3890   11.5172   24.4131 C   0  0  0  0  0  0  0  0  0  0  0  0
   32.9287   11.1462   28.3185 C   0  0  0  0  0  0  0  0  0  0  0  0
   33.8017   10.3125   27.3650 C   0  0  0  0  0  0  0  0  0  0  0  0
   29.3001    3.2599   29.3958 C   0  0  0  0  0  0  0  0  0  0  0  0
   27.8930   17.0583   22.9400 C   0  0  0  0  0  0  0  0  0  0  0  0
   29.9318   16.6621   24.4046 C   0  0  0  0  0  0  0  0  0  0  0  0
   33.0600   14.2383   24.9746 C   0  0  0  0  0  0  0  0  0  0  0  0
   32.6432   12.3254   23.5493 C   0  0  0  0  0  0  0  0  0  0  0  0
   32.4814   13.6848   23.8282 C   0  0  0  0  0  0  0  0  0  0  0  0
   29.4035   17.2560   23.0837 C   0  0  0  0  0  0  0  0  0  0  0  0
   27.6969   14.0388   27.2099 H   0  0  0  0  0  0  0  0  0  0  0  0
   29.5071    9.8359   26.0818 H   0  0  0  0  0  0  0  0  0  0  0  0
   30.9880   10.8434   26.1595 H   0  0  0  0  0  0  0  0  0  0  0  0
   28.4232   11.3207   24.4016 H   0  0  0  0  0  0  0  0  0  0  0  0
   29.7254   12.5533   24.6142 H   0  0  0  0  0  0  0  0  0  0  0  0
   30.6385    7.9746   30.3105 H   0  0  0  0  0  0  0  0  0  0  0  0
   25.7553   13.0189   25.1067 H   0  0  0  0  0  0  0  0  0  0  0  0
   26.3338   14.6865   25.4123 H   0  0  0  0  0  0  0  0  0  0  0  0
   27.2029   12.9370   23.3497 H   0  0  0  0  0  0  0  0  0  0  0  0
   29.2860   14.3375   23.1060 H   0  0  0  0  0  0  0  0  0  0  0  0
   28.8059    8.9492   31.6666 H   0  0  0  0  0  0  0  0  0  0  0  0
   32.5322    9.5354   29.7304 H   0  0  0  0  0  0  0  0  0  0  0  0
   31.4409   10.9518   29.8712 H   0  0  0  0  0  0  0  0  0  0  0  0
   28.8168    4.6555   27.8174 H   0  0  0  0  0  0  0  0  0  0  0  0
   30.5214    4.0715   27.7988 H   0  0  0  0  0  0  0  0  0  0  0  0
   26.4626   15.4656   23.2112 H   0  0  0  0  0  0  0  0  0  0  0  0
   27.5781   15.2065   21.8484 H   0  0  0  0  0  0  0  0  0  0  0  0
   29.7556   14.8187   25.5378 H   0  0  0  0  0  0  0  0  0  0  0  0
   28.3049   15.8723   25.5937 H   0  0  0  0  0  0  0  0  0  0  0  0
   30.0178    6.9146   32.4534 H   0  0  0  0  0  0  0  0  0  0  0  0
   28.3166    6.9553   33.0287 H   0  0  0  0  0  0  0  0  0  0  0  0
   28.7681    5.8626   31.6728 H   0  0  0  0  0  0  0  0  0  0  0  0
   26.9472    6.9733   30.1847 H   0  0  0  0  0  0  0  0  0  0  0  0
   26.9232    8.7746   30.0392 H   0  0  0  0  0  0  0  0  0  0  0  0
   26.5114    7.9992   31.6046 H   0  0  0  0  0  0  0  0  0  0  0  0
   35.3858   11.7995   27.1969 H   0  0  0  0  0  0  0  0  0  0  0  0
   35.4213   10.5290   25.9442 H   0  0  0  0  0  0  0  0  0  0  0  0
   34.2357   13.8753   26.7342 H   0  0  0  0  0  0  0  0  0  0  0  0
   33.5017   10.4633   24.1902 H   0  0  0  0  0  0  0  0  0  0  0  0
   33.5941   11.6947   29.0180 H   0  0  0  0  0  0  0  0  0  0  0  0
   32.3493   11.9077   27.7595 H   0  0  0  0  0  0  0  0  0  0  0  0
   34.4161    9.6043   27.9626 H   0  0  0  0  0  0  0  0  0  0  0  0
   33.1723    9.7109   26.6778 H   0  0  0  0  0  0  0  0  0  0  0  0
   28.4880    3.5843   30.0845 H   0  0  0  0  0  0  0  0  0  0  0  0
   30.1813    2.9338   29.9910 H   0  0  0  0  0  0  0  0  0  0  0  0
   28.9373    2.3961   28.8000 H   0  0  0  0  0  0  0  0  0  0  0  0
   27.3789   17.5488   23.7973 H   0  0  0  0  0  0  0  0  0  0  0  0
   27.5371   17.5521   22.0091 H   0  0  0  0  0  0  0  0  0  0  0  0
   30.9848   16.3422   24.2494 H   0  0  0  0  0  0  0  0  0  0  0  0
   29.9432   17.4545   25.1869 H   0  0  0  0  0  0  0  0  0  0  0  0
   32.9348   15.2906   25.1934 H   0  0  0  0  0  0  0  0  0  0  0  0
   32.1897   11.8981   22.6635 H   0  0  0  0  0  0  0  0  0  0  0  0
   31.9075   14.3085   23.1552 H   0  0  0  0  0  0  0  0  0  0  0  0
   29.9157   16.7670   22.2248 H   0  0  0  0  0  0  0  0  0  0  0  0
   29.6412   18.3410   23.0442 H   0  0  0  0  0  0  0  0  0  0  0  0
  2  1  1  0
  3  1  1  0
  4  5  1  0
  5  2  1  0
  6  1  1  0
  4  7  1  1
  8  7  1  0
  9  3  1  0
  3 10  1  0
 11  6  1  0
 12  8  1  0
 13 12  1  0
 14  4  2  0
 15  2  2  0
 16 10  1  0
 17 10  2  0
 18 13  2  0
 11 19  1  0
  8 20  1  0
 22 28  1  0
 23 13  1  0
 24 19  1  0
 25 19  1  0
 26 20  1  0
 27 20  1  0
 28 32  1  0
 29 22  2  0
 30 22  1  0
 31 21  1  0
 32 31  1  0
 33 23  1  0
 34 24  1  0
 35 25  1  0
 36 29  1  0
 37 30  2  0
 38 36  2  0
 39 34  1  0
  9 11  1  0
 39 35  1  0
 38 37  1  0
  4 21  1  0
  3 40  1  1
  5 41  1  0
  5 42  1  0
  6 43  1  0
  6 44  1  0
  8 45  1  1
  9 46  1  0
  9 47  1  0
 11 48  1  6
 19 49  1  0
 20 50  1  0
 21 51  1  0
 21 52  1  0
 23 53  1  0
 23 54  1  0
 24 55  1  0
 24 56  1  0
 25 57  1  0
 25 58  1  0
 26 59  1  0
 26 60  1  0
 26 61  1  0
 27 62  1  0
 27 63  1  0
 27 64  1  0
 28 65  1  0
 28 66  1  0
 29 67  1  0
 30 68  1  0
 31 69  1  0
 31 70  1  0
 32 71  1  0
 32 72  1  0
 33 73  1  0
 33 74  1  0
 33 75  1  0
 34 76  1  0
 34 77  1  0
 35 78  1  0
 35 79  1  0
 36 80  1  0
 37 81  1  0
 38 82  1  0
 39 83  1  0
 39 84  1  0
M  CHG  1  16  -1
M  END
> <Uni-Dock RESULT> 
ENERGY=   -3.676  LOWER_BOUND=    5.604  UPPER_BOUND=   11.866
INTER + INTRA:          -3.676
INTER:                  -3.676
INTRA:                   0.000
UNBOUND:                 0.000

$$$$

     RDKit          3D

 84 86  0  0  0  0  0  0  0  0999 V2000
   25.4583    5.5990   31.5938 N   0  0  0  0  0  0  0  0  0  0  0  0
   25.0021    6.8500   31.0524 C   0  0  0  0  0  0  0  0  0  0  0  0
   24.8571    4.3132   31.2665 C   0  0  1  0  0  0  0  0  0  0  0  0
   24.2747    9.5283   31.2626 P   0  0  1  0  0  0  0  0  0  0  0  0
   25.3699    8.1429   31.7300 C   0  0  0  0  0  0  0  0  0  0  0  0
   26.6611    5.4762   32.4004 C   0  0  0  0  0  0  0  0  0  0  0  0
   22.6573    8.9959   31.4312 O   0  0  0  0  0  0  0  0  0  0  0  0
   21.7909   10.1056   31.5420 C   0  0  2  0  0  0  0  0  0  0  0  0
   25.6399    3.2781   32.0784 C   0  0  0  0  0  0  0  0  0  0  0  0
   23.3936    4.2892   31.6099 C   0  0  0  0  0  0  0  0  0  0  0  0
   26.9519    3.9712   32.4982 C   0  0  1  0  0  0  0  0  0  0  0  0
   21.7991   10.5699   32.8969 O   0  0  0  0  0  0  0  0  0  0  0  0
   21.7172   11.9162   33.2658 C   0  0  0  0  0  0  0  0  0  0  0  0
   24.5547   10.6840   32.1989 O   0  0  0  0  0  0  0  0  0  0  0  0
   24.3125    6.8527   29.9950 O   0  0  0  0  0  0  0  0  0  0  0  0
   22.4979    3.6255   30.7781 O   0  0  0  0  0  0  0  0  0  0  0  0
   22.9771    4.8224   32.6736 O   0  0  0  0  0  0  0  0  0  0  0  0
   21.7406   12.8285   32.3954 O   0  0  0  0  0  0  0  0  0  0  0  0
   28.1939    3.5403   31.6571 C   0  0  0  0  0  0  0  0  0  0  0  0
   20.3659    9.6555   31.1457 C   0  0  0  0  0  0  0  0  0  0  0  0
   24.5503   10.0683   29.5334 C   0  0  0  0  0  0  0  0  0  0  0  0
   28.9924    9.5860   29.8327 C   0  0  0  0  0  0  0  0  0  0  0  0
   21.6072   12.2708   34.7153 C   0  0  0  0  0  0  0  0  0  0  0  0
   28.6505    2.1011   32.0326 C   0  0  0  0  0  0  0  0  0  0  0  0
   27.9968    3.6915   30.1280 C   0  0  0  0  0  0  0  0  0  0  0  0
   19.3885   10.8370   31.1014 C   0  0  0  0  0  0  0  0  0  0  0  0
   19.8326    8.5592   32.0796 C   0  0  0  0  0  0  0  0  0  0  0  0
   28.3820   10.9145   29.4578 C   0  0  0  0  0  0  0  0  0  0  0  0
   29.1947    8.5986   28.8541 C   0  0  0  0  0  0  0  0  0  0  0  0
   29.3133    9.3037   31.1731 C   0  0  0  0  0  0  0  0  0  0  0  0
   26.0226   10.0135   29.1068 C   0  0  0  0  0  0  0  0  0  0  0  0
   26.9094   11.0032   29.8815 C   0  0  0  0  0  0  0  0  0  0  0  0
   20.2731   12.9481   35.0103 C   0  0  0  0  0  0  0  0  0  0  0  0
   29.3818    1.3666   30.8926 C   0  0  0  0  0  0  0  0  0  0  0  0
   29.2901    3.3807   29.3454 C   0  0  0  0  0  0  0  0  0  0  0  0
   29.7204    7.3533   29.2089 C   0  0  0  0  0  0  0  0  0  0  0  0
   29.8357    8.0548   31.5238 C   0  0  0  0  0  0  0  0  0  0  0  0
   30.0417    7.0820   30.5425 C   0  0  0  0  0  0  0  0  0  0  0  0
   30.1937    2.3386   30.0338 C   0  0  0  0  0  0  0  0  0  0  0  0
   24.9880    4.1186   30.1788 H   0  0  0  0  0  0  0  0  0  0  0  0
   25.2812    8.0058   32.8279 H   0  0  0  0  0  0  0  0  0  0  0  0
   26.4253    8.3990   31.5048 H   0  0  0  0  0  0  0  0  0  0  0  0
   26.4702    5.8965   33.4106 H   0  0  0  0  0  0  0  0  0  0  0  0
   27.4977    6.0382   31.9326 H   0  0  0  0  0  0  0  0  0  0  0  0
   22.0897   10.9164   30.8356 H   0  0  0  0  0  0  0  0  0  0  0  0
   25.0833    2.9969   33.0012 H   0  0  0  0  0  0  0  0  0  0  0  0
   25.7980    2.3496   31.4915 H   0  0  0  0  0  0  0  0  0  0  0  0
   27.1658    3.7285   33.5647 H   0  0  0  0  0  0  0  0  0  0  0  0
   29.0307    4.2214   31.9402 H   0  0  0  0  0  0  0  0  0  0  0  0
   20.4196    9.2297   30.1195 H   0  0  0  0  0  0  0  0  0  0  0  0
   24.1574   11.0988   29.4038 H   0  0  0  0  0  0  0  0  0  0  0  0
   23.9669    9.3978   28.8682 H   0  0  0  0  0  0  0  0  0  0  0  0
   21.6898   11.3470   35.3306 H   0  0  0  0  0  0  0  0  0  0  0  0
   22.4412   12.9501   34.9945 H   0  0  0  0  0  0  0  0  0  0  0  0
   27.7905    1.4733   32.3461 H   0  0  0  0  0  0  0  0  0  0  0  0
   29.3293    2.1670   32.9116 H   0  0  0  0  0  0  0  0  0  0  0  0
   27.6686    4.7232   29.8765 H   0  0  0  0  0  0  0  0  0  0  0  0
   27.2055    2.9929   29.7801 H   0  0  0  0  0  0  0  0  0  0  0  0
   19.7611   11.6194   30.4068 H   0  0  0  0  0  0  0  0  0  0  0  0
   18.3975   10.4964   30.7334 H   0  0  0  0  0  0  0  0  0  0  0  0
   19.2509   11.2790   32.1102 H   0  0  0  0  0  0  0  0  0  0  0  0
   19.7465    8.9350   33.1220 H   0  0  0  0  0  0  0  0  0  0  0  0
   20.5080    7.6776   32.0706 H   0  0  0  0  0  0  0  0  0  0  0  0
   18.8299    8.2215   31.7404 H   0  0  0  0  0  0  0  0  0  0  0  0
   28.4711   11.0979   28.3646 H   0  0  0  0  0  0  0  0  0  0  0  0
   28.9494   11.7246   29.9656 H   0  0  0  0  0  0  0  0  0  0  0  0
   28.9392    8.7899   27.8174 H   0  0  0  0  0  0  0  0  0  0  0  0
   29.1514   10.0475   31.9436 H   0  0  0  0  0  0  0  0  0  0  0  0
   26.0795   10.2598   28.0256 H   0  0  0  0  0  0  0  0  0  0  0  0
   26.3949    8.9760   29.2218 H   0  0  0  0  0  0  0  0  0  0  0  0
   26.5479   12.0376   29.6927 H   0  0  0  0  0  0  0  0  0  0  0  0
   26.8440   10.8207   30.9736 H   0  0  0  0  0  0  0  0  0  0  0  0
   19.4282   12.2906   34.7058 H   0  0  0  0  0  0  0  0  0  0  0  0
   20.2042   13.9151   34.4651 H   0  0  0  0  0  0  0  0  0  0  0  0
   20.1920   13.1502   36.0991 H   0  0  0  0  0  0  0  0  0  0  0  0
   28.6401    0.8438   30.2473 H   0  0  0  0  0  0  0  0  0  0  0  0
   30.0557    0.5933   31.3225 H   0  0  0  0  0  0  0  0  0  0  0  0
   29.8759    4.3145   29.2036 H   0  0  0  0  0  0  0  0  0  0  0  0
   29.0098    3.0140   28.3320 H   0  0  0  0  0  0  0  0  0  0  0  0
   29.8778    6.6009   28.4473 H   0  0  0  0  0  0  0  0  0  0  0  0
   30.0804    7.8403   32.5568 H   0  0  0  0  0  0  0  0  0  0  0  0
   30.4505    6.1180   30.8165 H   0  0  0  0  0  0  0  0  0  0  0  0
   30.9361    2.8588   30.6799 H   0  0  0  0  0  0  0  0  0  0  0  0
   30.7578    1.7705   29.2629 H   0  0  0  0  0  0  0  0  0  0  0  0
  2  1  1  0
  3  1  1  0
  4  5  1  0
  5  2  1  0
  6  1  1  0
  4  7  1  1
  8  7  1  0
  9  3  1  0
  3 10  1  0
 11  6  1  0
 12  8  1  0
 13 12  1  0
 14  4  2  0
 15  2  2  0
 16 10  1  0
 17 10  2  0
 18 13  2  0
 11 19  1  0
  8 20  1  0
 22 28  1  0
 23 13  1  0
 24 19  1  0
 25 19  1  0
 26 20  1  0
 27 20  1  0
 28 32  1  0
 29 22  2  0
 30 22  1  0
 31 21  1  0
 32 31  1  0
 33 23  1  0
 34 24  1  0
 35 25  1  0
 36 29  1  0
 37 30  2  0
 38 36  2  0
 39 34  1  0
  9 11  1  0
 39 35  1  0
 38 37  1  0
  4 21  1  0
  3 40  1  1
  5 41  1  0
  5 42  1  0
  6 43  1  0
  6 44  1  0
  8 45  1  1
  9 46  1  0
  9 47  1  0
 11 48  1  6
 19 49  1  0
 20 50  1  0
 21 51  1  0
 21 52  1  0
 23 53  1  0
 23 54  1  0
 24 55  1  0
 24 56  1  0
 25 57  1  0
 25 58  1  0
 26 59  1  0
 26 60  1  0
 26 61  1  0
 27 62  1  0
 27 63  1  0
 27 64  1  0
 28 65  1  0
 28 66  1  0
 29 67  1  0
 30 68  1  0
 31 69  1  0
 31 70  1  0
 32 71  1  0
 32 72  1  0
 33 73  1  0
 33 74  1  0
 33 75  1  0
 34 76  1  0
 34 77  1  0
 35 78  1  0
 35 79  1  0
 36 80  1  0
 37 81  1  0
 38 82  1  0
 39 83  1  0
 39 84  1  0
M  CHG  1  16  -1
M  END
> <Uni-Dock RESULT> 
ENERGY=   -3.672  LOWER_BOUND=    3.894  UPPER_BOUND=    8.401
INTER + INTRA:          -3.672
INTER:                  -3.672
INTRA:                   0.000
UNBOUND:                 0.000

$$$$

     RDKit          3D

 84 86  0  0  0  0  0  0  0  0999 V2000
   28.7929    4.1814   31.1543 N   0  0  0  0  0  0  0  0  0  0  0  0
   27.4975    4.1850   31.7772 C   0  0  0  0  0  0  0  0  0  0  0  0
   29.7271    5.2962   31.2331 C   0  0  1  0  0  0  0  0  0  0  0  0
   24.7525    3.7251   31.8002 P   0  0  1  0  0  0  0  0  0  0  0  0
   26.4402    3.2146   31.3225 C   0  0  0  0  0  0  0  0  0  0  0  0
   29.3612    3.0067   30.5143 C   0  0  0  0  0  0  0  0  0  0  0  0
   24.5524    5.3618   31.3432 O   0  0  0  0  0  0  0  0  0  0  0  0
   23.1783    5.6746   31.2507 C   0  0  2  0  0  0  0  0  0  0  0  0
   30.9478    4.8644   30.4167 C   0  0  0  0  0  0  0  0  0  0  0  0
   29.1201    6.5594   30.6887 C   0  0  0  0  0  0  0  0  0  0  0  0
   30.8426    3.3326   30.2729 C   0  0  1  0  0  0  0  0  0  0  0  0
   22.6859    5.2394   29.9781 O   0  0  0  0  0  0  0  0  0  0  0  0
   21.4099    4.7065   29.7706 C   0  0  0  0  0  0  0  0  0  0  0  0
   23.7691    2.8426   31.0622 O   0  0  0  0  0  0  0  0  0  0  0  0
   27.2657    4.9916   32.7202 O   0  0  0  0  0  0  0  0  0  0  0  0
   29.3948    7.7787   31.2990 O   0  0  0  0  0  0  0  0  0  0  0  0
   28.4042    6.5300   29.6513 O   0  0  0  0  0  0  0  0  0  0  0  0
   20.6397    4.4740   30.7418 O   0  0  0  0  0  0  0  0  0  0  0  0
   31.7974    2.5398   31.2192 C   0  0  0  0  0  0  0  0  0  0  0  0
   23.0148    7.2060   31.3857 C   0  0  0  0  0  0  0  0  0  0  0  0
   24.4725    3.5685   33.6043 C   0  0  0  0  0  0  0  0  0  0  0  0
   26.7446   -0.2814   33.8702 C   0  0  0  0  0  0  0  0  0  0  0  0
   20.9626    4.4048   28.3750 C   0  0  0  0  0  0  0  0  0  0  0  0
   33.2729    2.6410   30.7360 C   0  0  0  0  0  0  0  0  0  0  0  0
   31.6621    2.9284   32.7127 C   0  0  0  0  0  0  0  0  0  0  0  0
   21.5378    7.6173   31.4389 C   0  0  0  0  0  0  0  0  0  0  0  0
   23.7359    7.9591   30.2583 C   0  0  0  0  0  0  0  0  0  0  0  0
   25.3054   -0.2000   34.3176 C   0  0  0  0  0  0  0  0  0  0  0  0
   27.7787    0.1078   34.7378 C   0  0  0  0  0  0  0  0  0  0  0  0
   27.0608   -0.6948   32.5631 C   0  0  0  0  0  0  0  0  0  0  0  0
   25.1592    2.3439   34.2221 C   0  0  0  0  0  0  0  0  0  0  0  0
   24.5880    1.0117   33.7069 C   0  0  0  0  0  0  0  0  0  0  0  0
   19.7759    5.2785   27.9827 C   0  0  0  0  0  0  0  0  0  0  0  0
   34.3067    2.4821   31.8673 C   0  0  0  0  0  0  0  0  0  0  0  0
   32.5260    2.0309   33.6235 C   0  0  0  0  0  0  0  0  0  0  0  0
   29.1082    0.0727   34.3086 C   0  0  0  0  0  0  0  0  0  0  0  0
   28.3924   -0.7249   32.1370 C   0  0  0  0  0  0  0  0  0  0  0  0
   29.4149   -0.3443   33.0097 C   0  0  0  0  0  0  0  0  0  0  0  0
   33.8104    1.5152   32.9444 C   0  0  0  0  0  0  0  0  0  0  0  0
   30.0180    5.4505   32.2959 H   0  0  0  0  0  0  0  0  0  0  0  0
   26.4673    3.1539   30.2145 H   0  0  0  0  0  0  0  0  0  0  0  0
   26.6601    2.2038   31.7226 H   0  0  0  0  0  0  0  0  0  0  0  0
   28.8447    2.8295   29.5472 H   0  0  0  0  0  0  0  0  0  0  0  0
   29.2255    2.1127   31.1601 H   0  0  0  0  0  0  0  0  0  0  0  0
   22.6060    5.2062   32.0866 H   0  0  0  0  0  0  0  0  0  0  0  0
   30.9203    5.3130   29.3976 H   0  0  0  0  0  0  0  0  0  0  0  0
   31.8885    5.1999   30.9005 H   0  0  0  0  0  0  0  0  0  0  0  0
   31.0933    3.0482   29.2249 H   0  0  0  0  0  0  0  0  0  0  0  0
   31.5124    1.4641   31.1419 H   0  0  0  0  0  0  0  0  0  0  0  0
   23.4799    7.5116   32.3488 H   0  0  0  0  0  0  0  0  0  0  0  0
   23.3808    3.5304   33.8042 H   0  0  0  0  0  0  0  0  0  0  0  0
   24.8744    4.4803   34.0936 H   0  0  0  0  0  0  0  0  0  0  0  0
   21.8014    4.5921   27.6678 H   0  0  0  0  0  0  0  0  0  0  0  0
   20.6784    3.3330   28.3009 H   0  0  0  0  0  0  0  0  0  0  0  0
   33.4669    3.6100   30.2305 H   0  0  0  0  0  0  0  0  0  0  0  0
   33.4476    1.8483   29.9752 H   0  0  0  0  0  0  0  0  0  0  0  0
   30.6030    2.8535   33.0415 H   0  0  0  0  0  0  0  0  0  0  0  0
   31.9854    3.9818   32.8578 H   0  0  0  0  0  0  0  0  0  0  0  0
   21.0214    7.0919   32.2701 H   0  0  0  0  0  0  0  0  0  0  0  0
   21.4542    8.7097   31.6202 H   0  0  0  0  0  0  0  0  0  0  0  0
   21.0240    7.3836   30.4833 H   0  0  0  0  0  0  0  0  0  0  0  0
   23.3017    7.6999   29.2685 H   0  0  0  0  0  0  0  0  0  0  0  0
   24.8178    7.7082   30.2524 H   0  0  0  0  0  0  0  0  0  0  0  0
   23.6432    9.0560   30.4100 H   0  0  0  0  0  0  0  0  0  0  0  0
   25.2363   -0.1591   35.4267 H   0  0  0  0  0  0  0  0  0  0  0  0
   24.7789   -1.1255   33.9979 H   0  0  0  0  0  0  0  0  0  0  0  0
   27.5557    0.4451   35.7444 H   0  0  0  0  0  0  0  0  0  0  0  0
   26.2760   -0.9854   31.8754 H   0  0  0  0  0  0  0  0  0  0  0  0
   25.0189    2.3863   35.3227 H   0  0  0  0  0  0  0  0  0  0  0  0
   26.2494    2.4058   34.0327 H   0  0  0  0  0  0  0  0  0  0  0  0
   23.5092    0.9546   33.9698 H   0  0  0  0  0  0  0  0  0  0  0  0
   24.6663    0.9494   32.6023 H   0  0  0  0  0  0  0  0  0  0  0  0
   20.0372    6.3559   28.0829 H   0  0  0  0  0  0  0  0  0  0  0  0
   18.8997    5.0490   28.6284 H   0  0  0  0  0  0  0  0  0  0  0  0
   19.4989    5.0764   26.9267 H   0  0  0  0  0  0  0  0  0  0  0  0
   34.5076    3.4733   32.3332 H   0  0  0  0  0  0  0  0  0  0  0  0
   35.2656    2.1109   31.4433 H   0  0  0  0  0  0  0  0  0  0  0  0
   31.9307    1.1548   33.9600 H   0  0  0  0  0  0  0  0  0  0  0  0
   32.7977    2.6104   34.5348 H   0  0  0  0  0  0  0  0  0  0  0  0
   29.8984    0.3692   34.9858 H   0  0  0  0  0  0  0  0  0  0  0  0
   28.6322   -1.0424   31.1298 H   0  0  0  0  0  0  0  0  0  0  0  0
   30.4449   -0.3731   32.6783 H   0  0  0  0  0  0  0  0  0  0  0  0
   33.6121    0.5244   32.4774 H   0  0  0  0  0  0  0  0  0  0  0  0
   34.6032    1.3740   33.7103 H   0  0  0  0  0  0  0  0  0  0  0  0
  2  1  1  0
  3  1  1  0
  4  5  1  0
  5  2  1  0
  6  1  1  0
  4  7  1  1
  8  7  1  0
  9  3  1  0
  3 10  1  0
 11  6  1  0
 12  8  1  0
 13 12  1  0
 14  4  2  0
 15  2  2  0
 16 10  1  0
 17 10  2  0
 18 13  2  0
 11 19  1  0
  8 20  1  0
 22 28  1  0
 23 13  1  0
 24 19  1  0
 25 19  1  0
 26 20  1  0
 27 20  1  0
 28 32  1  0
 29 22  2  0
 30 22  1  0
 31 21  1  0
 32 31  1  0
 33 23  1  0
 34 24  1  0
 35 25  1  0
 36 29  1  0
 37 30  2  0
 38 36  2  0
 39 34  1  0
  9 11  1  0
 39 35  1  0
 38 37  1  0
  4 21  1  0
  3 40  1  1
  5 41  1  0
  5 42  1  0
  6 43  1  0
  6 44  1  0
  8 45  1  1
  9 46  1  0
  9 47  1  0
 11 48  1  6
 19 49  1  0
 20 50  1  0
 21 51  1  0
 21 52  1  0
 23 53  1  0
 23 54  1  0
 24 55  1  0
 24 56  1  0
 25 57  1  0
 25 58  1  0
 26 59  1  0
 26 60  1  0
 26 61  1  0
 27 62  1  0
 27 63  1  0
 27 64  1  0
 28 65  1  0
 28 66  1  0
 29 67  1  0
 30 68  1  0
 31 69  1  0
 31 70  1  0
 32 71  1  0
 32 72  1  0
 33 73  1  0
 33 74  1  0
 33 75  1  0
 34 76  1  0
 34 77  1  0
 35 78  1  0
 35 79  1  0
 36 80  1  0
 37 81  1  0
 38 82  1  0
 39 83  1  0
 39 84  1  0
M  CHG  1  16  -1
M  END
> <Uni-Dock RESULT> 
ENERGY=   -3.513  LOWER_BOUND=    2.622  UPPER_BOUND=    7.649
INTER + INTRA:          -3.513
INTER:                  -3.513
INTRA:                   0.000
UNBOUND:                 0.000

$$$$

     RDKit          3D

 84 86  0  0  0  0  0  0  0  0999 V2000
   27.2256   10.3508   29.2322 N   0  0  0  0  0  0  0  0  0  0  0  0
   28.4612    9.6825   28.9274 C   0  0  0  0  0  0  0  0  0  0  0  0
   26.3168   10.8650   28.2165 C   0  0  1  0  0  0  0  0  0  0  0  0
   31.1810    9.2094   29.2821 P   0  0  1  0  0  0  0  0  0  0  0  0
   29.5291    9.5563   29.9809 C   0  0  0  0  0  0  0  0  0  0  0  0
   26.6858   10.4433   30.5784 C   0  0  0  0  0  0  0  0  0  0  0  0
   31.4620   10.3326   28.0222 O   0  0  0  0  0  0  0  0  0  0  0  0
   32.8464   10.4320   27.7615 C   0  0  2  0  0  0  0  0  0  0  0  0
   25.1617   11.5064   28.9895 C   0  0  0  0  0  0  0  0  0  0  0  0
   27.0011   11.8617   27.3228 C   0  0  0  0  0  0  0  0  0  0  0  0
   25.2401   10.9372   30.4205 C   0  0  1  0  0  0  0  0  0  0  0  0
   33.4371   11.3240   28.7139 O   0  0  0  0  0  0  0  0  0  0  0  0
   34.7124   11.1547   29.2619 C   0  0  0  0  0  0  0  0  0  0  0  0
   32.2025    9.3812   30.3856 O   0  0  0  0  0  0  0  0  0  0  0  0
   28.6299    9.1854   27.7793 O   0  0  0  0  0  0  0  0  0  0  0  0
   26.7052   11.8911   25.9640 O   0  0  0  0  0  0  0  0  0  0  0  0
   27.8041   12.7065   27.8032 O   0  0  0  0  0  0  0  0  0  0  0  0
   35.3884   10.1179   29.0203 O   0  0  0  0  0  0  0  0  0  0  0  0
   24.1862    9.8256   30.7193 C   0  0  0  0  0  0  0  0  0  0  0  0
   33.0365   10.9849   26.3303 C   0  0  0  0  0  0  0  0  0  0  0  0
   31.2979    7.5101   28.6067 C   0  0  0  0  0  0  0  0  0  0  0  0
   28.9139    5.7491   31.9638 C   0  0  0  0  0  0  0  0  0  0  0  0
   35.2724   12.2200   30.1510 C   0  0  0  0  0  0  0  0  0  0  0  0
   22.7617   10.4328   30.8707 C   0  0  0  0  0  0  0  0  0  0  0  0
   24.2000    8.6601   29.6989 C   0  0  0  0  0  0  0  0  0  0  0  0
   34.5131   10.9898   25.9144 C   0  0  0  0  0  0  0  0  0  0  0  0
   32.4362   12.3900   26.1762 C   0  0  0  0  0  0  0  0  0  0  0  0
   30.3100    5.2588   31.6660 C   0  0  0  0  0  0  0  0  0  0  0  0
   27.8180    5.2451   31.2435 C   0  0  0  0  0  0  0  0  0  0  0  0
   28.7029    6.7539   32.9257 C   0  0  0  0  0  0  0  0  0  0  0  0
   30.5287    6.4727   29.4343 C   0  0  0  0  0  0  0  0  0  0  0  0
   31.1087    6.2814   30.8462 C   0  0  0  0  0  0  0  0  0  0  0  0
   36.5107   12.8546   29.5271 C   0  0  0  0  0  0  0  0  0  0  0  0
   21.6291    9.4484   30.5215 C   0  0  0  0  0  0  0  0  0  0  0  0
   23.2371    7.5248   30.1056 C   0  0  0  0  0  0  0  0  0  0  0  0
   26.5308    5.7301   31.4899 C   0  0  0  0  0  0  0  0  0  0  0  0
   27.4134    7.2386   33.1661 C   0  0  0  0  0  0  0  0  0  0  0  0
   26.3284    6.7252   32.4512 C   0  0  0  0  0  0  0  0  0  0  0  0
   22.0044    8.0123   30.8928 C   0  0  0  0  0  0  0  0  0  0  0  0
   25.9380   10.0154   27.6060 H   0  0  0  0  0  0  0  0  0  0  0  0
   29.5977   10.5165   30.5334 H   0  0  0  0  0  0  0  0  0  0  0  0
   29.2494    8.7665   30.7076 H   0  0  0  0  0  0  0  0  0  0  0  0
   27.2804   11.1773   31.1627 H   0  0  0  0  0  0  0  0  0  0  0  0
   26.7416    9.4557   31.0845 H   0  0  0  0  0  0  0  0  0  0  0  0
   33.3312    9.4273   27.7947 H   0  0  0  0  0  0  0  0  0  0  0  0
   25.2898   12.6114   29.0462 H   0  0  0  0  0  0  0  0  0  0  0  0
   24.1911   11.3112   28.4880 H   0  0  0  0  0  0  0  0  0  0  0  0
   25.0749   11.7637   31.1497 H   0  0  0  0  0  0  0  0  0  0  0  0
   24.4493    9.3857   31.7101 H   0  0  0  0  0  0  0  0  0  0  0  0
   32.4967   10.3075   25.6323 H   0  0  0  0  0  0  0  0  0  0  0  0
   32.3666    7.2174   28.5326 H   0  0  0  0  0  0  0  0  0  0  0  0
   30.8781    7.5204   27.5790 H   0  0  0  0  0  0  0  0  0  0  0  0
   34.5038   13.0081   30.3154 H   0  0  0  0  0  0  0  0  0  0  0  0
   35.5346   11.7792   31.1369 H   0  0  0  0  0  0  0  0  0  0  0  0
   22.6374   11.3347   30.2356 H   0  0  0  0  0  0  0  0  0  0  0  0
   22.6342   10.7690   31.9235 H   0  0  0  0  0  0  0  0  0  0  0  0
   25.2240    8.2392   29.6003 H   0  0  0  0  0  0  0  0  0  0  0  0
   23.8922    9.0329   28.6981 H   0  0  0  0  0  0  0  0  0  0  0  0
   34.9412    9.9687   26.0016 H   0  0  0  0  0  0  0  0  0  0  0  0
   34.6084   11.3115   24.8558 H   0  0  0  0  0  0  0  0  0  0  0  0
   35.1025   11.6885   26.5439 H   0  0  0  0  0  0  0  0  0  0  0  0
   32.9487   13.1146   26.8453 H   0  0  0  0  0  0  0  0  0  0  0  0
   31.3530   12.3796   26.4210 H   0  0  0  0  0  0  0  0  0  0  0  0
   32.5432   12.7392   25.1268 H   0  0  0  0  0  0  0  0  0  0  0  0
   30.2828    4.2849   31.1300 H   0  0  0  0  0  0  0  0  0  0  0  0
   30.8387    5.0804   32.6276 H   0  0  0  0  0  0  0  0  0  0  0  0
   27.9606    4.4816   30.4862 H   0  0  0  0  0  0  0  0  0  0  0  0
   29.5373    7.1645   33.4811 H   0  0  0  0  0  0  0  0  0  0  0  0
   30.5732    5.5007   28.8995 H   0  0  0  0  0  0  0  0  0  0  0  0
   29.4613    6.7666   29.4823 H   0  0  0  0  0  0  0  0  0  0  0  0
   32.1586    5.9253   30.7611 H   0  0  0  0  0  0  0  0  0  0  0  0
   31.1259    7.2425   31.3996 H   0  0  0  0  0  0  0  0  0  0  0  0
   36.2692   13.2727   28.5241 H   0  0  0  0  0  0  0  0  0  0  0  0
   37.3209   12.0990   29.4273 H   0  0  0  0  0  0  0  0  0  0  0  0
   36.8739   13.6778   30.1775 H   0  0  0  0  0  0  0  0  0  0  0  0
   21.4135    9.4972   29.4301 H   0  0  0  0  0  0  0  0  0  0  0  0
   20.7018    9.7447   31.0595 H   0  0  0  0  0  0  0  0  0  0  0  0
   23.7782    6.7790   30.7271 H   0  0  0  0  0  0  0  0  0  0  0  0
   22.9015    6.9992   29.1831 H   0  0  0  0  0  0  0  0  0  0  0  0
   25.6921    5.3320   30.9340 H   0  0  0  0  0  0  0  0  0  0  0  0
   27.2547    8.0130   33.9063 H   0  0  0  0  0  0  0  0  0  0  0  0
   25.3310    7.0993   32.6430 H   0  0  0  0  0  0  0  0  0  0  0  0
   22.2175    7.9648   31.9844 H   0  0  0  0  0  0  0  0  0  0  0  0
   21.1442    7.3390   30.6880 H   0  0  0  0  0  0  0  0  0  0  0  0
  2  1  1  0
  3  1  1  0
  4  5  1  0
  5  2  1  0
  6  1  1  0
  4  7  1  1
  8  7  1  0
  9  3  1  0
  3 10  1  0
 11  6  1  0
 12  8  1  0
 13 12  1  0
 14  4  2  0
 15  2  2  0
 16 10  1  0
 17 10  2  0
 18 13  2  0
 11 19  1  0
  8 20  1  0
 22 28  1  0
 23 13  1  0
 24 19  1  0
 25 19  1  0
 26 20  1  0
 27 20  1  0
 28 32  1  0
 29 22  2  0
 30 22  1  0
 31 21  1  0
 32 31  1  0
 33 23  1  0
 34 24  1  0
 35 25  1  0
 36 29  1  0
 37 30  2  0
 38 36  2  0
 39 34  1  0
  9 11  1  0
 39 35  1  0
 38 37  1  0
  4 21  1  0
  3 40  1  1
  5 41  1  0
  5 42  1  0
  6 43  1  0
  6 44  1  0
  8 45  1  1
  9 46  1  0
  9 47  1  0
 11 48  1  6
 19 49  1  0
 20 50  1  0
 21 51  1  0
 21 52  1  0
 23 53  1  0
 23 54  1  0
 24 55  1  0
 24 56  1  0
 25 57  1  0
 25 58  1  0
 26 59  1  0
 26 60  1  0
 26 61  1  0
 27 62  1  0
 27 63  1  0
 27 64  1  0
 28 65  1  0
 28 66  1  0
 29 67  1  0
 30 68  1  0
 31 69  1  0
 31 70  1  0
 32 71  1  0
 32 72  1  0
 33 73  1  0
 33 74  1  0
 33 75  1  0
 34 76  1  0
 34 77  1  0
 35 78  1  0
 35 79  1  0
 36 80  1  0
 37 81  1  0
 38 82  1  0
 39 83  1  0
 39 84  1  0
M  CHG  1  16  -1
M  END
> <Uni-Dock RESULT> 
ENERGY=   -3.502  LOWER_BOUND=    4.480  UPPER_BOUND=    6.359
INTER + INTRA:          -3.502
INTER:                  -3.502
INTRA:                   0.000
UNBOUND:                 0.000

$$$$

     RDKit          3D

 84 86  0  0  0  0  0  0  0  0999 V2000
   32.2598    2.9523   31.4584 N   0  0  0  0  0  0  0  0  0  0  0  0
   31.2712    3.9159   31.0580 C   0  0  0  0  0  0  0  0  0  0  0  0
   32.3194    1.5947   30.9338 C   0  0  1  0  0  0  0  0  0  0  0  0
   29.3882    5.9004   31.5708 P   0  0  1  0  0  0  0  0  0  0  0  0
   31.0047    5.1232   31.9170 C   0  0  0  0  0  0  0  0  0  0  0  0
   33.3902    3.2838   32.3098 C   0  0  0  0  0  0  0  0  0  0  0  0
   28.2029    4.6664   31.5764 O   0  0  0  0  0  0  0  0  0  0  0  0
   26.9221    5.2257   31.7799 C   0  0  2  0  0  0  0  0  0  0  0  0
   33.4999    0.9324   31.6485 C   0  0  0  0  0  0  0  0  0  0  0  0
   31.0366    0.8526   31.1870 C   0  0  0  0  0  0  0  0  0  0  0  0
   34.3457    2.0840   32.2286 C   0  0  1  0  0  0  0  0  0  0  0  0
   26.7270    5.4455   33.1817 O   0  0  0  0  0  0  0  0  0  0  0  0
   26.0344    6.5364   33.7163 C   0  0  0  0  0  0  0  0  0  0  0  0
   29.1099    6.9104   32.6630 O   0  0  0  0  0  0  0  0  0  0  0  0
   30.6489    3.7505   29.9722 O   0  0  0  0  0  0  0  0  0  0  0  0
   30.5424   -0.0237   30.2265 O   0  0  0  0  0  0  0  0  0  0  0  0
   30.4304    0.9787   32.2852 O   0  0  0  0  0  0  0  0  0  0  0  0
   25.6246    7.4697   32.9739 O   0  0  0  0  0  0  0  0  0  0  0  0
   35.6382    2.3956   31.4113 C   0  0  0  0  0  0  0  0  0  0  0  0
   25.8639    4.2319   31.2480 C   0  0  0  0  0  0  0  0  0  0  0  0
   29.3663    6.7444   29.9445 C   0  0  0  0  0  0  0  0  0  0  0  0
   33.5294    8.3211   30.4323 C   0  0  0  0  0  0  0  0  0  0  0  0
   25.7862    6.5922   35.1908 C   0  0  0  0  0  0  0  0  0  0  0  0
   36.7128    1.2906   31.6231 C   0  0  0  0  0  0  0  0  0  0  0  0
   35.3793    2.6532   29.9058 C   0  0  0  0  0  0  0  0  0  0  0  0
   24.4501    4.8249   31.3011 C   0  0  0  0  0  0  0  0  0  0  0  0
   25.9077    2.8938   32.0004 C   0  0  0  0  0  0  0  0  0  0  0  0
   32.3697    9.2583   30.1979 C   0  0  0  0  0  0  0  0  0  0  0  0
   34.1568    7.6863   29.3474 C   0  0  0  0  0  0  0  0  0  0  0  0
   33.9569    8.0320   31.7411 C   0  0  0  0  0  0  0  0  0  0  0  0
   30.6926    7.4333   29.5991 C   0  0  0  0  0  0  0  0  0  0  0  0
   31.0275    8.5995   30.5448 C   0  0  0  0  0  0  0  0  0  0  0  0
   24.2929    6.5314   35.4942 C   0  0  0  0  0  0  0  0  0  0  0  0
   37.6905    1.1434   30.4414 C   0  0  0  0  0  0  0  0  0  0  0  0
   36.6621    3.0855   29.1648 C   0  0  0  0  0  0  0  0  0  0  0  0
   35.2027    6.7859   29.5677 C   0  0  0  0  0  0  0  0  0  0  0  0
   35.0015    7.1275   31.9567 C   0  0  0  0  0  0  0  0  0  0  0  0
   35.6254    6.5076   30.8712 C   0  0  0  0  0  0  0  0  0  0  0  0
   37.9520    2.4899   29.7633 C   0  0  0  0  0  0  0  0  0  0  0  0
   32.5154    1.6377   29.8394 H   0  0  0  0  0  0  0  0  0  0  0  0
   30.9998    4.8073   32.9811 H   0  0  0  0  0  0  0  0  0  0  0  0
   31.8194    5.8645   31.7874 H   0  0  0  0  0  0  0  0  0  0  0  0
   33.0357    3.4221   33.3532 H   0  0  0  0  0  0  0  0  0  0  0  0
   33.8670    4.2271   31.9671 H   0  0  0  0  0  0  0  0  0  0  0  0
   26.8049    6.1735   31.2025 H   0  0  0  0  0  0  0  0  0  0  0  0
   33.1455    0.2999   32.4939 H   0  0  0  0  0  0  0  0  0  0  0  0
   34.0646    0.2737   30.9565 H   0  0  0  0  0  0  0  0  0  0  0  0
   34.6576    1.8190   33.2653 H   0  0  0  0  0  0  0  0  0  0  0  0
   36.0671    3.3376   31.8274 H   0  0  0  0  0  0  0  0  0  0  0  0
   26.0992    4.0279   30.1802 H   0  0  0  0  0  0  0  0  0  0  0  0
   28.5397    7.4858   29.9269 H   0  0  0  0  0  0  0  0  0  0  0  0
   29.1536    5.9822   29.1659 H   0  0  0  0  0  0  0  0  0  0  0  0
   26.2929    5.7334   35.6853 H   0  0  0  0  0  0  0  0  0  0  0  0
   26.2134    7.5318   35.6027 H   0  0  0  0  0  0  0  0  0  0  0  0
   36.2442    0.3006   31.8032 H   0  0  0  0  0  0  0  0  0  0  0  0
   37.2920    1.5363   32.5406 H   0  0  0  0  0  0  0  0  0  0  0  0
   34.6083    3.4425   29.7715 H   0  0  0  0  0  0  0  0  0  0  0  0
   34.9982    1.7260   29.4259 H   0  0  0  0  0  0  0  0  0  0  0  0
   24.4116    5.7801   30.7358 H   0  0  0  0  0  0  0  0  0  0  0  0
   23.7262    4.1227   30.8361 H   0  0  0  0  0  0  0  0  0  0  0  0
   24.1329    5.0070   32.3490 H   0  0  0  0  0  0  0  0  0  0  0  0
   25.6670    3.0368   33.0760 H   0  0  0  0  0  0  0  0  0  0  0  0
   26.9144    2.4325   31.9161 H   0  0  0  0  0  0  0  0  0  0  0  0
   25.1722    2.1846   31.5636 H   0  0  0  0  0  0  0  0  0  0  0  0
   32.3536    9.6142   29.1445 H   0  0  0  0  0  0  0  0  0  0  0  0
   32.5021   10.1577   30.8378 H   0  0  0  0  0  0  0  0  0  0  0  0
   33.8321    7.8828   28.3312 H   0  0  0  0  0  0  0  0  0  0  0  0
   33.4761    8.5011   32.5907 H   0  0  0  0  0  0  0  0  0  0  0  0
   30.6189    7.8278   28.5639 H   0  0  0  0  0  0  0  0  0  0  0  0
   31.5040    6.6784   29.6002 H   0  0  0  0  0  0  0  0  0  0  0  0
   30.2263    9.3669   30.4708 H   0  0  0  0  0  0  0  0  0  0  0  0
   31.0641    8.2554   31.5985 H   0  0  0  0  0  0  0  0  0  0  0  0
   23.8457    5.6094   35.0594 H   0  0  0  0  0  0  0  0  0  0  0  0
   23.7790    7.4245   35.0754 H   0  0  0  0  0  0  0  0  0  0  0  0
   24.1376    6.5177   36.5935 H   0  0  0  0  0  0  0  0  0  0  0  0
   37.2692    0.4351   29.6926 H   0  0  0  0  0  0  0  0  0  0  0  0
   38.6498    0.7144   30.8055 H   0  0  0  0  0  0  0  0  0  0  0  0
   36.7476    4.1935   29.1786 H   0  0  0  0  0  0  0  0  0  0  0  0
   36.5741    2.7781   28.0982 H   0  0  0  0  0  0  0  0  0  0  0  0
   35.6835    6.3059   28.7256 H   0  0  0  0  0  0  0  0  0  0  0  0
   35.3273    6.9063   32.9655 H   0  0  0  0  0  0  0  0  0  0  0  0
   36.4367    5.8116   31.0413 H   0  0  0  0  0  0  0  0  0  0  0  0
   38.3750    3.1962   30.5126 H   0  0  0  0  0  0  0  0  0  0  0  0
   38.7078    2.3598   28.9589 H   0  0  0  0  0  0  0  0  0  0  0  0
  2  1  1  0
  3  1  1  0
  4  5  1  0
  5  2  1  0
  6  1  1  0
  4  7  1  1
  8  7  1  0
  9  3  1  0
  3 10  1  0
 11  6  1  0
 12  8  1  0
 13 12  1  0
 14  4  2  0
 15  2  2  0
 16 10  1  0
 17 10  2  0
 18 13  2  0
 11 19  1  0
  8 20  1  0
 22 28  1  0
 23 13  1  0
 24 19  1  0
 25 19  1  0
 26 20  1  0
 27 20  1  0
 28 32  1  0
 29 22  2  0
 30 22  1  0
 31 21  1  0
 32 31  1  0
 33 23  1  0
 34 24  1  0
 35 25  1  0
 36 29  1  0
 37 30  2  0
 38 36  2  0
 39 34  1  0
  9 11  1  0
 39 35  1  0
 38 37  1  0
  4 21  1  0
  3 40  1  1
  5 41  1  0
  5 42  1  0
  6 43  1  0
  6 44  1  0
  8 45  1  1
  9 46  1  0
  9 47  1  0
 11 48  1  6
 19 49  1  0
 20 50  1  0
 21 51  1  0
 21 52  1  0
 23 53  1  0
 23 54  1  0
 24 55  1  0
 24 56  1  0
 25 57  1  0
 25 58  1  0
 26 59  1  0
 26 60  1  0
 26 61  1  0
 27 62  1  0
 27 63  1  0
 27 64  1  0
 28 65  1  0
 28 66  1  0
 29 67  1  0
 30 68  1  0
 31 69  1  0
 31 70  1  0
 32 71  1  0
 32 72  1  0
 33 73  1  0
 33 74  1  0
 33 75  1  0
 34 76  1  0
 34 77  1  0
 35 78  1  0
 35 79  1  0
 36 80  1  0
 37 81  1  0
 38 82  1  0
 39 83  1  0
 39 84  1  0
M  CHG  1  16  -1
M  END
> <Uni-Dock RESULT> 
ENERGY=   -3.484  LOWER_BOUND=    3.275  UPPER_BOUND=    9.035
INTER + INTRA:          -3.484
INTER:                  -3.484
INTRA:                   0.000
UNBOUND:                 0.000

$$$$

     RDKit          3D

 84 86  0  0  0  0  0  0  0  0999 V2000
   28.9528   13.7604   25.7562 N   0  0  0  0  0  0  0  0  0  0  0  0
   30.2267   13.4295   25.1783 C   0  0  0  0  0  0  0  0  0  0  0  0
   27.7384   13.9479   24.9740 C   0  0  1  0  0  0  0  0  0  0  0  0
   32.9807   13.7249   24.9047 P   0  0  1  0  0  0  0  0  0  0  0  0
   31.4917   13.6599   25.9611 C   0  0  0  0  0  0  0  0  0  0  0  0
   28.7166   13.7890   27.1900 C   0  0  0  0  0  0  0  0  0  0  0  0
   32.6594   14.8011   23.6139 O   0  0  0  0  0  0  0  0  0  0  0  0
   33.8712   15.2510   23.0450 C   0  0  2  0  0  0  0  0  0  0  0  0
   26.6497   14.3038   25.9896 C   0  0  0  0  0  0  0  0  0  0  0  0
   27.9095   15.0334   23.9480 C   0  0  0  0  0  0  0  0  0  0  0  0
   27.1927   13.8670   27.3652 C   0  0  1  0  0  0  0  0  0  0  0  0
   34.3874   16.3263   23.8379 O   0  0  0  0  0  0  0  0  0  0  0  0
   35.7478   16.5393   24.0813 C   0  0  0  0  0  0  0  0  0  0  0  0
   34.1313   14.2326   25.7468 O   0  0  0  0  0  0  0  0  0  0  0  0
   30.2701   12.9249   24.0219 O   0  0  0  0  0  0  0  0  0  0  0  0
   27.3270   14.8975   22.6923 O   0  0  0  0  0  0  0  0  0  0  0  0
   28.5342   16.0907   24.2331 O   0  0  0  0  0  0  0  0  0  0  0  0
   36.6129   15.7083   23.6923 O   0  0  0  0  0  0  0  0  0  0  0  0
   26.5770   12.5348   27.8960 C   0  0  0  0  0  0  0  0  0  0  0  0
   33.5840   15.7439   21.6080 C   0  0  0  0  0  0  0  0  0  0  0  0
   33.4096   12.0801   24.2204 C   0  0  0  0  0  0  0  0  0  0  0  0
   32.3962    9.9588   28.0320 C   0  0  0  0  0  0  0  0  0  0  0  0
   36.1737   17.7691   24.8196 C   0  0  0  0  0  0  0  0  0  0  0  0
   25.1095   12.7467   28.3676 C   0  0  0  0  0  0  0  0  0  0  0  0
   26.6871   11.3540   26.8992 C   0  0  0  0  0  0  0  0  0  0  0  0
   34.8741   16.1179   20.8671 C   0  0  0  0  0  0  0  0  0  0  0  0
   32.6020   16.9246   21.5946 C   0  0  0  0  0  0  0  0  0  0  0  0
   33.7729    9.8425   27.4244 C   0  0  0  0  0  0  0  0  0  0  0  0
   31.3512    9.1358   27.5800 C   0  0  0  0  0  0  0  0  0  0  0  0
   32.1330   10.9286   29.0166 C   0  0  0  0  0  0  0  0  0  0  0  0
   33.1558   10.9285   25.2014 C   0  0  0  0  0  0  0  0  0  0  0  0
   34.0603   10.9883   26.4443 C   0  0  0  0  0  0  0  0  0  0  0  0
   37.0222   18.6716   23.9303 C   0  0  0  0  0  0  0  0  0  0  0  0
   24.2433   11.4752   28.2853 C   0  0  0  0  0  0  0  0  0  0  0  0
   26.1866   10.0302   27.5145 C   0  0  0  0  0  0  0  0  0  0  0  0
   30.0666    9.2730   28.1129 C   0  0  0  0  0  0  0  0  0  0  0  0
   30.8450   11.0645   29.5443 C   0  0  0  0  0  0  0  0  0  0  0  0
   29.8139   10.2357   29.0950 C   0  0  0  0  0  0  0  0  0  0  0  0
   25.0708   10.2181   28.5616 C   0  0  0  0  0  0  0  0  0  0  0  0
   27.4837   12.9914   24.4658 H   0  0  0  0  0  0  0  0  0  0  0  0
   31.4128   14.6361   26.4835 H   0  0  0  0  0  0  0  0  0  0  0  0
   31.6060   12.8712   26.7324 H   0  0  0  0  0  0  0  0  0  0  0  0
   29.1993   14.6905   27.6236 H   0  0  0  0  0  0  0  0  0  0  0  0
   29.1511   12.8861   27.6701 H   0  0  0  0  0  0  0  0  0  0  0  0
   34.6085   14.4169   22.9670 H   0  0  0  0  0  0  0  0  0  0  0  0
   26.4783   15.4039   26.0156 H   0  0  0  0  0  0  0  0  0  0  0  0
   25.6850   13.8249   25.7222 H   0  0  0  0  0  0  0  0  0  0  0  0
   26.9704   14.6630   28.1128 H   0  0  0  0  0  0  0  0  0  0  0  0
   27.1611   12.2443   28.8010 H   0  0  0  0  0  0  0  0  0  0  0  0
   33.1121   14.9045   21.0513 H   0  0  0  0  0  0  0  0  0  0  0  0
   34.4744   12.0801   23.9051 H   0  0  0  0  0  0  0  0  0  0  0  0
   32.7888   11.9133   23.3153 H   0  0  0  0  0  0  0  0  0  0  0  0
   35.2735   18.3313   25.1547 H   0  0  0  0  0  0  0  0  0  0  0  0
   36.7561   17.4772   25.7200 H   0  0  0  0  0  0  0  0  0  0  0  0
   24.6063   13.5408   27.7774 H   0  0  0  0  0  0  0  0  0  0  0  0
   25.1281   13.1017   29.4218 H   0  0  0  0  0  0  0  0  0  0  0  0
   27.7399   11.2173   26.5703 H   0  0  0  0  0  0  0  0  0  0  0  0
   26.0774   11.5675   25.9948 H   0  0  0  0  0  0  0  0  0  0  0  0
   35.5747   15.2562   20.8545 H   0  0  0  0  0  0  0  0  0  0  0  0
   34.6432   16.3865   19.8145 H   0  0  0  0  0  0  0  0  0  0  0  0
   35.3716   16.9868   21.3459 H   0  0  0  0  0  0  0  0  0  0  0  0
   33.0290   17.8003   22.1295 H   0  0  0  0  0  0  0  0  0  0  0  0
   31.6442   16.6399   22.0795 H   0  0  0  0  0  0  0  0  0  0  0  0
   32.3765   17.2233   20.5484 H   0  0  0  0  0  0  0  0  0  0  0  0
   33.8979    8.8653   26.9085 H   0  0  0  0  0  0  0  0  0  0  0  0
   34.5274    9.8726   28.2403 H   0  0  0  0  0  0  0  0  0  0  0  0
   31.5289    8.3925   26.8102 H   0  0  0  0  0  0  0  0  0  0  0  0
   32.9228   11.5815   29.3676 H   0  0  0  0  0  0  0  0  0  0  0  0
   33.3475    9.9724   24.6705 H   0  0  0  0  0  0  0  0  0  0  0  0
   32.0860   10.9283   25.4910 H   0  0  0  0  0  0  0  0  0  0  0  0
   35.1224   10.9215   26.1225 H   0  0  0  0  0  0  0  0  0  0  0  0
   33.9332   11.9515   26.9792 H   0  0  0  0  0  0  0  0  0  0  0  0
   36.4617   18.9462   23.0086 H   0  0  0  0  0  0  0  0  0  0  0  0
   37.9665   18.1558   23.6488 H   0  0  0  0  0  0  0  0  0  0  0  0
   37.2782   19.6011   24.4810 H   0  0  0  0  0  0  0  0  0  0  0  0
   23.7893   11.3961   27.2717 H   0  0  0  0  0  0  0  0  0  0  0  0
   23.4115   11.5456   29.0203 H   0  0  0  0  0  0  0  0  0  0  0  0
   27.0342    9.4968   27.9965 H   0  0  0  0  0  0  0  0  0  0  0  0
   25.8151    9.3772   26.6925 H   0  0  0  0  0  0  0  0  0  0  0  0
   29.2692    8.6309   27.7624 H   0  0  0  0  0  0  0  0  0  0  0  0
   30.6455   11.8129   30.3011 H   0  0  0  0  0  0  0  0  0  0  0  0
   28.8192   10.3404   29.5087 H   0  0  0  0  0  0  0  0  0  0  0  0
   25.5222   10.2978   29.5760 H   0  0  0  0  0  0  0  0  0  0  0  0
   24.4057    9.3277   28.5579 H   0  0  0  0  0  0  0  0  0  0  0  0
  2  1  1  0
  3  1  1  0
  4  5  1  0
  5  2  1  0
  6  1  1  0
  4  7  1  1
  8  7  1  0
  9  3  1  0
  3 10  1  0
 11  6  1  0
 12  8  1  0
 13 12  1  0
 14  4  2  0
 15  2  2  0
 16 10  1  0
 17 10  2  0
 18 13  2  0
 11 19  1  0
  8 20  1  0
 22 28  1  0
 23 13  1  0
 24 19  1  0
 25 19  1  0
 26 20  1  0
 27 20  1  0
 28 32  1  0
 29 22  2  0
 30 22  1  0
 31 21  1  0
 32 31  1  0
 33 23  1  0
 34 24  1  0
 35 25  1  0
 36 29  1  0
 37 30  2  0
 38 36  2  0
 39 34  1  0
  9 11  1  0
 39 35  1  0
 38 37  1  0
  4 21  1  0
  3 40  1  1
  5 41  1  0
  5 42  1  0
  6 43  1  0
  6 44  1  0
  8 45  1  1
  9 46  1  0
  9 47  1  0
 11 48  1  6
 19 49  1  0
 20 50  1  0
 21 51  1  0
 21 52  1  0
 23 53  1  0
 23 54  1  0
 24 55  1  0
 24 56  1  0
 25 57  1  0
 25 58  1  0
 26 59  1  0
 26 60  1  0
 26 61  1  0
 27 62  1  0
 27 63  1  0
 27 64  1  0
 28 65  1  0
 28 66  1  0
 29 67  1  0
 30 68  1  0
 31 69  1  0
 31 70  1  0
 32 71  1  0
 32 72  1  0
 33 73  1  0
 33 74  1  0
 33 75  1  0
 34 76  1  0
 34 77  1  0
 35 78  1  0
 35 79  1  0
 36 80  1  0
 37 81  1  0
 38 82  1  0
 39 83  1  0
 39 84  1  0
M  CHG  1  16  -1
M  END
> <Uni-Dock RESULT> 
ENERGY=   -3.482  LOWER_BOUND=    8.777  UPPER_BOUND=   11.548
INTER + INTRA:          -3.482
INTER:                  -3.482
INTRA:                   0.000
UNBOUND:                 0.000

$$$$
