
     RDKit          3D

 84 86  0  0  0  0  0  0  0  0999 V2000
   24.9815   10.5606   30.8848 N   0  0  0  0  0  0  0  0  0  0  0  0
   26.3031   10.3501   31.4205 C   0  0  0  0  0  0  0  0  0  0  0  0
   23.9181    9.5618   30.8632 C   0  0  1  0  0  0  0  0  0  0  0  0
   28.5047    8.7014   31.6683 P   0  0  1  0  0  0  0  0  0  0  0  0
   26.7318    9.0088   31.9610 C   0  0  0  0  0  0  0  0  0  0  0  0
   24.5253   11.8749   30.4565 C   0  0  0  0  0  0  0  0  0  0  0  0
   28.8231    8.9223   30.0026 O   0  0  0  0  0  0  0  0  0  0  0  0
   30.2162    9.0059   29.7871 C   0  0  2  0  0  0  0  0  0  0  0  0
   22.6269   10.3507   30.6352 C   0  0  0  0  0  0  0  0  0  0  0  0
   24.1465    8.5711   29.7546 C   0  0  0  0  0  0  0  0  0  0  0  0
   23.0710   11.6798   30.0097 C   0  0  1  0  0  0  0  0  0  0  0  0
   30.6570   10.3343   30.0876 O   0  0  0  0  0  0  0  0  0  0  0  0
   31.9133   10.6403   30.6222 C   0  0  0  0  0  0  0  0  0  0  0  0
   29.3103    9.6733   32.5033 O   0  0  0  0  0  0  0  0  0  0  0  0
   27.0913   11.3313   31.5113 O   0  0  0  0  0  0  0  0  0  0  0  0
   23.9092    7.2205   29.9763 O   0  0  0  0  0  0  0  0  0  0  0  0
   24.5157    8.9583   28.6136 O   0  0  0  0  0  0  0  0  0  0  0  0
   32.7111    9.7261   30.9708 O   0  0  0  0  0  0  0  0  0  0  0  0
   22.1007   12.8675   30.2830 C   0  0  0  0  0  0  0  0  0  0  0  0
   30.5008    8.6670   28.3064 C   0  0  0  0  0  0  0  0  0  0  0  0
   28.9176    6.9983   32.1745 C   0  0  0  0  0  0  0  0  0  0  0  0
   28.7893    2.1510   30.8833 C   0  0  0  0  0  0  0  0  0  0  0  0
   32.3318   12.0708   30.7253 C   0  0  0  0  0  0  0  0  0  0  0  0
   22.3782   14.0453   29.3118 C   0  0  0  0  0  0  0  0  0  0  0  0
   22.0705   13.3794   31.7437 C   0  0  0  0  0  0  0  0  0  0  0  0
   32.0048    8.5662   28.0185 C   0  0  0  0  0  0  0  0  0  0  0  0
   29.8429    9.6739   27.3522 C   0  0  0  0  0  0  0  0  0  0  0  0
   28.3064    3.5319   30.5273 C   0  0  0  0  0  0  0  0  0  0  0  0
   30.0183    1.6814   30.3890 C   0  0  0  0  0  0  0  0  0  0  0  0
   28.0483    1.3458   31.7649 C   0  0  0  0  0  0  0  0  0  0  0  0
   28.3903    5.9791   31.1605 C   0  0  0  0  0  0  0  0  0  0  0  0
   28.8275    4.5592   31.5386 C   0  0  0  0  0  0  0  0  0  0  0  0
   32.9959   12.5223   29.4300 C   0  0  0  0  0  0  0  0  0  0  0  0
   21.7940   15.3918   29.7937 C   0  0  0  0  0  0  0  0  0  0  0  0
   20.9107   14.3748   31.9571 C   0  0  0  0  0  0  0  0  0  0  0  0
   30.4861    0.4152   30.7541 C   0  0  0  0  0  0  0  0  0  0  0  0
   28.5196    0.0804   32.1280 C   0  0  0  0  0  0  0  0  0  0  0  0
   29.7367   -0.3852   31.6213 C   0  0  0  0  0  0  0  0  0  0  0  0
   20.5705   15.1992   30.6978 C   0  0  0  0  0  0  0  0  0  0  0  0
   23.8641    9.0334   31.8411 H   0  0  0  0  0  0  0  0  0  0  0  0
   26.1683    8.1910   31.4753 H   0  0  0  0  0  0  0  0  0  0  0  0
   26.5314    8.9721   33.0516 H   0  0  0  0  0  0  0  0  0  0  0  0
   24.6255   12.5816   31.3024 H   0  0  0  0  0  0  0  0  0  0  0  0
   25.1471   12.2367   29.6082 H   0  0  0  0  0  0  0  0  0  0  0  0
   30.7605    8.2565   30.4084 H   0  0  0  0  0  0  0  0  0  0  0  0
   21.9075    9.8164   29.9752 H   0  0  0  0  0  0  0  0  0  0  0  0
   22.1304   10.5107   31.6145 H   0  0  0  0  0  0  0  0  0  0  0  0
   23.0890   11.5109   28.9076 H   0  0  0  0  0  0  0  0  0  0  0  0
   21.0778   12.4894   30.0507 H   0  0  0  0  0  0  0  0  0  0  0  0
   30.0582    7.6675   28.1006 H   0  0  0  0  0  0  0  0  0  0  0  0
   30.0223    6.9110   32.2539 H   0  0  0  0  0  0  0  0  0  0  0  0
   28.4754    6.8042   33.1750 H   0  0  0  0  0  0  0  0  0  0  0  0
   33.0405   12.1973   31.5717 H   0  0  0  0  0  0  0  0  0  0  0  0
   31.4393   12.7024   30.9225 H   0  0  0  0  0  0  0  0  0  0  0  0
   23.4733   14.1779   29.1680 H   0  0  0  0  0  0  0  0  0  0  0  0
   21.9462   13.7951   28.3170 H   0  0  0  0  0  0  0  0  0  0  0  0
   21.9632   12.5467   32.4678 H   0  0  0  0  0  0  0  0  0  0  0  0
   23.0181   13.9088   31.9797 H   0  0  0  0  0  0  0  0  0  0  0  0
   32.1678    8.1835   26.9898 H   0  0  0  0  0  0  0  0  0  0  0  0
   32.4874    7.8617   28.7270 H   0  0  0  0  0  0  0  0  0  0  0  0
   32.4936    9.5580   28.1030 H   0  0  0  0  0  0  0  0  0  0  0  0
   30.0152    9.3671   26.2995 H   0  0  0  0  0  0  0  0  0  0  0  0
   28.7456    9.7082   27.5211 H   0  0  0  0  0  0  0  0  0  0  0  0
   30.2633   10.6914   27.4988 H   0  0  0  0  0  0  0  0  0  0  0  0
   27.1943    3.5515   30.5139 H   0  0  0  0  0  0  0  0  0  0  0  0
   28.6559    3.7981   29.5056 H   0  0  0  0  0  0  0  0  0  0  0  0
   30.6137    2.2975   29.7256 H   0  0  0  0  0  0  0  0  0  0  0  0
   27.1101    1.7006   32.1728 H   0  0  0  0  0  0  0  0  0  0  0  0
   27.2798    6.0270   31.1266 H   0  0  0  0  0  0  0  0  0  0  0  0
   28.7873    6.2235   30.1506 H   0  0  0  0  0  0  0  0  0  0  0  0
   29.9397    4.5145   31.5702 H   0  0  0  0  0  0  0  0  0  0  0  0
   28.4360    4.3084   32.5498 H   0  0  0  0  0  0  0  0  0  0  0  0
   33.9157   11.9292   29.2416 H   0  0  0  0  0  0  0  0  0  0  0  0
   32.2983   12.3950   28.5739 H   0  0  0  0  0  0  0  0  0  0  0  0
   33.2724   13.5952   29.5059 H   0  0  0  0  0  0  0  0  0  0  0  0
   22.5718   15.9522   30.3595 H   0  0  0  0  0  0  0  0  0  0  0  0
   21.5101   16.0090   28.9143 H   0  0  0  0  0  0  0  0  0  0  0  0
   20.0006   13.8195   32.2751 H   0  0  0  0  0  0  0  0  0  0  0  0
   21.1818   15.0651   32.7850 H   0  0  0  0  0  0  0  0  0  0  0  0
   31.4321    0.0565   30.3684 H   0  0  0  0  0  0  0  0  0  0  0  0
   27.9437   -0.5372   32.8060 H   0  0  0  0  0  0  0  0  0  0  0  0
   30.1013   -1.3636   31.9049 H   0  0  0  0  0  0  0  0  0  0  0  0
   19.7732   14.6820   30.1195 H   0  0  0  0  0  0  0  0  0  0  0  0
   20.1711   16.1917   30.9994 H   0  0  0  0  0  0  0  0  0  0  0  0
  2  1  1  0
  3  1  1  0
  4  5  1  0
  5  2  1  0
  6  1  1  0
  4  7  1  1
  8  7  1  0
  9  3  1  0
  3 10  1  0
 11  6  1  0
 12  8  1  0
 13 12  1  0
 14  4  2  0
 15  2  2  0
 16 10  1  0
 17 10  2  0
 18 13  2  0
 11 19  1  0
  8 20  1  0
 22 28  1  0
 23 13  1  0
 24 19  1  0
 25 19  1  0
 26 20  1  0
 27 20  1  0
 28 32  1  0
 29 22  2  0
 30 22  1  0
 31 21  1  0
 32 31  1  0
 33 23  1  0
 34 24  1  0
 35 25  1  0
 36 29  1  0
 37 30  2  0
 38 36  2  0
 39 34  1  0
  9 11  1  0
 39 35  1  0
 38 37  1  0
  4 21  1  0
  3 40  1  6
  5 41  1  0
  5 42  1  0
  6 43  1  0
  6 44  1  0
  8 45  1  6
  9 46  1  0
  9 47  1  0
 11 48  1  1
 19 49  1  0
 20 50  1  0
 21 51  1  0
 21 52  1  0
 23 53  1  0
 23 54  1  0
 24 55  1  0
 24 56  1  0
 25 57  1  0
 25 58  1  0
 26 59  1  0
 26 60  1  0
 26 61  1  0
 27 62  1  0
 27 63  1  0
 27 64  1  0
 28 65  1  0
 28 66  1  0
 29 67  1  0
 30 68  1  0
 31 69  1  0
 31 70  1  0
 32 71  1  0
 32 72  1  0
 33 73  1  0
 33 74  1  0
 33 75  1  0
 34 76  1  0
 34 77  1  0
 35 78  1  0
 35 79  1  0
 36 80  1  0
 37 81  1  0
 38 82  1  0
 39 83  1  0
 39 84  1  0
M  CHG  1  16  -1
M  END
> <Uni-Dock RESULT> 
ENERGY=   -4.137  LOWER_BOUND=    0.000  UPPER_BOUND=    0.000
INTER + INTRA:          -4.137
INTER:                  -4.137
INTRA:                   0.000
UNBOUND:                 0.000

$$$$

     RDKit          3D

 84 86  0  0  0  0  0  0  0  0999 V2000
   24.9912   10.5504   30.8930 N   0  0  0  0  0  0  0  0  0  0  0  0
   26.3129   10.3386   31.4279 C   0  0  0  0  0  0  0  0  0  0  0  0
   23.9269    9.5526   30.8718 C   0  0  1  0  0  0  0  0  0  0  0  0
   28.5130    8.6877   31.6744 P   0  0  1  0  0  0  0  0  0  0  0  0
   26.7406    8.9968   31.9681 C   0  0  0  0  0  0  0  0  0  0  0  0
   24.5360   11.8651   30.4651 C   0  0  0  0  0  0  0  0  0  0  0  0
   28.8307    8.9085   30.0086 O   0  0  0  0  0  0  0  0  0  0  0  0
   30.2238    8.9907   29.7924 C   0  0  2  0  0  0  0  0  0  0  0  0
   22.6362   10.3428   30.6446 C   0  0  0  0  0  0  0  0  0  0  0  0
   24.1537    8.5618   29.7630 C   0  0  0  0  0  0  0  0  0  0  0  0
   23.0813   11.6715   30.0190 C   0  0  1  0  0  0  0  0  0  0  0  0
   30.6660   10.3187   30.0927 O   0  0  0  0  0  0  0  0  0  0  0  0
   31.9230   10.6234   30.6268 C   0  0  0  0  0  0  0  0  0  0  0  0
   29.3200    9.6588   32.5091 O   0  0  0  0  0  0  0  0  0  0  0  0
   27.1021   11.3190   31.5184 O   0  0  0  0  0  0  0  0  0  0  0  0
   23.9152    7.2114   29.9848 O   0  0  0  0  0  0  0  0  0  0  0  0
   24.5226    8.9488   28.6219 O   0  0  0  0  0  0  0  0  0  0  0  0
   32.7200    9.7084   30.9748 O   0  0  0  0  0  0  0  0  0  0  0  0
   22.1123   12.8601   30.2929 C   0  0  0  0  0  0  0  0  0  0  0  0
   30.5073    8.6517   28.3115 C   0  0  0  0  0  0  0  0  0  0  0  0
   28.9246    6.9842   32.1802 C   0  0  0  0  0  0  0  0  0  0  0  0
   28.7909    2.1371   30.8887 C   0  0  0  0  0  0  0  0  0  0  0  0
   32.3429   12.0535   30.7297 C   0  0  0  0  0  0  0  0  0  0  0  0
   22.3905   14.0378   29.3217 C   0  0  0  0  0  0  0  0  0  0  0  0
   22.0834   13.3719   31.7537 C   0  0  0  0  0  0  0  0  0  0  0  0
   32.0110    8.5495   28.0228 C   0  0  0  0  0  0  0  0  0  0  0  0
   29.8499    9.6593   27.3578 C   0  0  0  0  0  0  0  0  0  0  0  0
   28.3091    3.5185   30.5330 C   0  0  0  0  0  0  0  0  0  0  0  0
   30.0191    1.6664   30.3936 C   0  0  0  0  0  0  0  0  0  0  0  0
   28.0496    1.3325   31.7705 C   0  0  0  0  0  0  0  0  0  0  0  0
   28.3957    5.9655   31.1665 C   0  0  0  0  0  0  0  0  0  0  0  0
   28.8318    4.5452   31.5441 C   0  0  0  0  0  0  0  0  0  0  0  0
   33.0067   12.5045   29.4341 C   0  0  0  0  0  0  0  0  0  0  0  0
   21.8078   15.3848   29.8041 C   0  0  0  0  0  0  0  0  0  0  0  0
   20.9247   14.3684   31.9678 C   0  0  0  0  0  0  0  0  0  0  0  0
   30.4859    0.3997   30.7584 C   0  0  0  0  0  0  0  0  0  0  0  0
   28.5198    0.0667   32.1333 C   0  0  0  0  0  0  0  0  0  0  0  0
   29.7362   -0.4001   31.6259 C   0  0  0  0  0  0  0  0  0  0  0  0
   20.5846   15.1933   30.7088 C   0  0  0  0  0  0  0  0  0  0  0  0
   23.8729    9.0242   31.8497 H   0  0  0  0  0  0  0  0  0  0  0  0
   26.1761    8.1796   31.4826 H   0  0  0  0  0  0  0  0  0  0  0  0
   26.5408    8.9602   33.0588 H   0  0  0  0  0  0  0  0  0  0  0  0
   24.6374   12.5717   31.3110 H   0  0  0  0  0  0  0  0  0  0  0  0
   25.1577   12.2265   29.6165 H   0  0  0  0  0  0  0  0  0  0  0  0
   30.7678    8.2408   30.4133 H   0  0  0  0  0  0  0  0  0  0  0  0
   21.9160    9.8092   29.9850 H   0  0  0  0  0  0  0  0  0  0  0  0
   22.1405   10.5032   31.6242 H   0  0  0  0  0  0  0  0  0  0  0  0
   23.0985   11.5027   28.9169 H   0  0  0  0  0  0  0  0  0  0  0  0
   21.0889   12.4830   30.0612 H   0  0  0  0  0  0  0  0  0  0  0  0
   30.0637    7.6527   28.1058 H   0  0  0  0  0  0  0  0  0  0  0  0
   30.0292    6.8958   32.2591 H   0  0  0  0  0  0  0  0  0  0  0  0
   28.4827    6.7904   33.1810 H   0  0  0  0  0  0  0  0  0  0  0  0
   33.0522   12.1792   31.5758 H   0  0  0  0  0  0  0  0  0  0  0  0
   31.4511   12.6860   30.9274 H   0  0  0  0  0  0  0  0  0  0  0  0
   23.4856   14.1693   29.1774 H   0  0  0  0  0  0  0  0  0  0  0  0
   21.9577   13.7881   28.3272 H   0  0  0  0  0  0  0  0  0  0  0  0
   21.9757   12.5392   32.4778 H   0  0  0  0  0  0  0  0  0  0  0  0
   23.0316   13.9004   31.9893 H   0  0  0  0  0  0  0  0  0  0  0  0
   32.1731    8.1667   26.9939 H   0  0  0  0  0  0  0  0  0  0  0  0
   32.4933    7.8444   28.7310 H   0  0  0  0  0  0  0  0  0  0  0  0
   32.5009    9.5408   28.1071 H   0  0  0  0  0  0  0  0  0  0  0  0
   30.0213    9.3525   26.3049 H   0  0  0  0  0  0  0  0  0  0  0  0
   28.7527    9.6947   27.5272 H   0  0  0  0  0  0  0  0  0  0  0  0
   30.2713   10.6764   27.5042 H   0  0  0  0  0  0  0  0  0  0  0  0
   27.1970    3.5392   30.5202 H   0  0  0  0  0  0  0  0  0  0  0  0
   28.6584    3.7845   29.5112 H   0  0  0  0  0  0  0  0  0  0  0  0
   30.6148    2.2820   29.7300 H   0  0  0  0  0  0  0  0  0  0  0  0
   27.1119    1.6882   32.1790 H   0  0  0  0  0  0  0  0  0  0  0  0
   27.2852    6.0146   31.1331 H   0  0  0  0  0  0  0  0  0  0  0  0
   28.7924    6.2097   30.1563 H   0  0  0  0  0  0  0  0  0  0  0  0
   29.9439    4.4995   31.5751 H   0  0  0  0  0  0  0  0  0  0  0  0
   28.4405    4.2947   32.5556 H   0  0  0  0  0  0  0  0  0  0  0  0
   33.9259   11.9105   29.2452 H   0  0  0  0  0  0  0  0  0  0  0  0
   32.3085   12.3780   28.5784 H   0  0  0  0  0  0  0  0  0  0  0  0
   33.2843   13.5771   29.5100 H   0  0  0  0  0  0  0  0  0  0  0  0
   22.5865   15.9444   30.3695 H   0  0  0  0  0  0  0  0  0  0  0  0
   21.5240   16.0023   28.9249 H   0  0  0  0  0  0  0  0  0  0  0  0
   20.0142   13.8140   32.2863 H   0  0  0  0  0  0  0  0  0  0  0  0
   21.1969   15.0584   32.7957 H   0  0  0  0  0  0  0  0  0  0  0  0
   31.4313    0.0401   30.3721 H   0  0  0  0  0  0  0  0  0  0  0  0
   27.9437   -0.5505   32.8115 H   0  0  0  0  0  0  0  0  0  0  0  0
   30.1000   -1.3788   31.9092 H   0  0  0  0  0  0  0  0  0  0  0  0
   19.7865   14.6769   30.1309 H   0  0  0  0  0  0  0  0  0  0  0  0
   20.1863   16.1861   31.0107 H   0  0  0  0  0  0  0  0  0  0  0  0
  2  1  1  0
  3  1  1  0
  4  5  1  0
  5  2  1  0
  6  1  1  0
  4  7  1  1
  8  7  1  0
  9  3  1  0
  3 10  1  0
 11  6  1  0
 12  8  1  0
 13 12  1  0
 14  4  2  0
 15  2  2  0
 16 10  1  0
 17 10  2  0
 18 13  2  0
 11 19  1  0
  8 20  1  0
 22 28  1  0
 23 13  1  0
 24 19  1  0
 25 19  1  0
 26 20  1  0
 27 20  1  0
 28 32  1  0
 29 22  2  0
 30 22  1  0
 31 21  1  0
 32 31  1  0
 33 23  1  0
 34 24  1  0
 35 25  1  0
 36 29  1  0
 37 30  2  0
 38 36  2  0
 39 34  1  0
  9 11  1  0
 39 35  1  0
 38 37  1  0
  4 21  1  0
  3 40  1  6
  5 41  1  0
  5 42  1  0
  6 43  1  0
  6 44  1  0
  8 45  1  6
  9 46  1  0
  9 47  1  0
 11 48  1  1
 19 49  1  0
 20 50  1  0
 21 51  1  0
 21 52  1  0
 23 53  1  0
 23 54  1  0
 24 55  1  0
 24 56  1  0
 25 57  1  0
 25 58  1  0
 26 59  1  0
 26 60  1  0
 26 61  1  0
 27 62  1  0
 27 63  1  0
 27 64  1  0
 28 65  1  0
 28 66  1  0
 29 67  1  0
 30 68  1  0
 31 69  1  0
 31 70  1  0
 32 71  1  0
 32 72  1  0
 33 73  1  0
 33 74  1  0
 33 75  1  0
 34 76  1  0
 34 77  1  0
 35 78  1  0
 35 79  1  0
 36 80  1  0
 37 81  1  0
 38 82  1  0
 39 83  1  0
 39 84  1  0
M  CHG  1  16  -1
M  END
> <Uni-Dock RESULT> 
ENERGY=   -4.133  LOWER_BOUND=    0.017  UPPER_BOUND=    0.017
INTER + INTRA:          -4.133
INTER:                  -4.133
INTRA:                   0.000
UNBOUND:                 0.000

$$$$

     RDKit          3D

 84 86  0  0  0  0  0  0  0  0999 V2000
   27.9420    5.0161   31.6712 N   0  0  0  0  0  0  0  0  0  0  0  0
   29.0548    5.8359   32.0805 C   0  0  0  0  0  0  0  0  0  0  0  0
   27.9586    3.5591   31.5964 C   0  0  1  0  0  0  0  0  0  0  0  0
   31.7648    6.3533   31.9576 P   0  0  1  0  0  0  0  0  0  0  0  0
   30.3982    5.2356   32.4121 C   0  0  0  0  0  0  0  0  0  0  0  0
   26.6160    5.5741   31.4491 C   0  0  0  0  0  0  0  0  0  0  0  0
   31.5780    6.7945   30.3159 O   0  0  0  0  0  0  0  0  0  0  0  0
   32.4164    7.8902   30.0150 C   0  0  2  0  0  0  0  0  0  0  0  0
   26.4874    3.1391   31.5638 C   0  0  0  0  0  0  0  0  0  0  0  0
   28.6764    3.1020   30.3561 C   0  0  0  0  0  0  0  0  0  0  0  0
   25.7237    4.3810   31.0849 C   0  0  1  0  0  0  0  0  0  0  0  0
   31.7831    9.0975   30.4521 O   0  0  0  0  0  0  0  0  0  0  0  0
   32.4749   10.2153   30.9315 C   0  0  0  0  0  0  0  0  0  0  0  0
   31.7120    7.5734   32.8517 O   0  0  0  0  0  0  0  0  0  0  0  0
   28.8772    7.0749   32.2409 O   0  0  0  0  0  0  0  0  0  0  0  0
   29.5364    2.0129   30.4183 O   0  0  0  0  0  0  0  0  0  0  0  0
   28.4771    3.6744   29.2513 O   0  0  0  0  0  0  0  0  0  0  0  0
   33.7253   10.1814   31.1021 O   0  0  0  0  0  0  0  0  0  0  0  0
   24.2471    4.4489   31.5768 C   0  0  0  0  0  0  0  0  0  0  0  0
   32.6424    7.9247   28.4865 C   0  0  0  0  0  0  0  0  0  0  0  0
   33.3570    5.4998   32.2097 C   0  0  0  0  0  0  0  0  0  0  0  0
   36.6282    2.1984   30.3174 C   0  0  0  0  0  0  0  0  0  0  0  0
   31.7240   11.4811   31.1880 C   0  0  0  0  0  0  0  0  0  0  0  0
   23.4332    5.4778   30.7482 C   0  0  0  0  0  0  0  0  0  0  0  0
   24.0617    4.7197   33.0897 C   0  0  0  0  0  0  0  0  0  0  0  0
   33.6793    8.9815   28.0825 C   0  0  0  0  0  0  0  0  0  0  0  0
   31.3313    8.1452   27.7189 C   0  0  0  0  0  0  0  0  0  0  0  0
   35.2460    2.7788   30.1773 C   0  0  0  0  0  0  0  0  0  0  0  0
   37.7212    2.8112   29.6810 C   0  0  0  0  0  0  0  0  0  0  0  0
   36.8476    1.0791   31.1381 C   0  0  0  0  0  0  0  0  0  0  0  0
   33.6047    4.4603   31.1128 C   0  0  0  0  0  0  0  0  0  0  0  0
   34.9879    3.8192   31.2730 C   0  0  0  0  0  0  0  0  0  0  0  0
   31.6525   12.3205   29.9179 C   0  0  0  0  0  0  0  0  0  0  0  0
   22.1282    5.9313   31.4396 C   0  0  0  0  0  0  0  0  0  0  0  0
   22.5905    4.5205   33.5110 C   0  0  0  0  0  0  0  0  0  0  0  0
   39.0108    2.2963   29.8461 C   0  0  0  0  0  0  0  0  0  0  0  0
   38.1386    0.5673   31.3010 C   0  0  0  0  0  0  0  0  0  0  0  0
   39.2190    1.1744   30.6538 C   0  0  0  0  0  0  0  0  0  0  0  0
   21.5811    4.8645   32.3956 C   0  0  0  0  0  0  0  0  0  0  0  0
   28.4483    3.1311   32.4995 H   0  0  0  0  0  0  0  0  0  0  0  0
   30.5500    4.2863   31.8662 H   0  0  0  0  0  0  0  0  0  0  0  0
   30.4471    5.0250   33.5003 H   0  0  0  0  0  0  0  0  0  0  0  0
   26.2875    6.0932   32.3697 H   0  0  0  0  0  0  0  0  0  0  0  0
   26.6457    6.3066   30.6127 H   0  0  0  0  0  0  0  0  0  0  0  0
   33.4161    7.7698   30.4945 H   0  0  0  0  0  0  0  0  0  0  0  0
   26.3032    2.2703   30.8931 H   0  0  0  0  0  0  0  0  0  0  0  0
   26.1790    2.8449   32.5883 H   0  0  0  0  0  0  0  0  0  0  0  0
   25.7016    4.3188   29.9717 H   0  0  0  0  0  0  0  0  0  0  0  0
   23.8071    3.4454   31.3707 H   0  0  0  0  0  0  0  0  0  0  0  0
   33.0478    6.9336   28.1856 H   0  0  0  0  0  0  0  0  0  0  0  0
   34.1698    6.2571   32.1990 H   0  0  0  0  0  0  0  0  0  0  0  0
   33.3465    5.0076   33.2057 H   0  0  0  0  0  0  0  0  0  0  0  0
   32.2257   12.0621   31.9914 H   0  0  0  0  0  0  0  0  0  0  0  0
   30.6948   11.2365   31.5275 H   0  0  0  0  0  0  0  0  0  0  0  0
   24.0470    6.3831   30.5456 H   0  0  0  0  0  0  0  0  0  0  0  0
   23.1854    5.0241   29.7626 H   0  0  0  0  0  0  0  0  0  0  0  0
   24.7018    4.0570   33.7063 H   0  0  0  0  0  0  0  0  0  0  0  0
   24.3414    5.7689   33.3243 H   0  0  0  0  0  0  0  0  0  0  0  0
   33.9207    8.8810   27.0040 H   0  0  0  0  0  0  0  0  0  0  0  0
   34.6174    8.8423   28.6584 H   0  0  0  0  0  0  0  0  0  0  0  0
   33.2932   10.0059   28.2591 H   0  0  0  0  0  0  0  0  0  0  0  0
   31.5200    8.1032   26.6260 H   0  0  0  0  0  0  0  0  0  0  0  0
   30.5976    7.3493   27.9680 H   0  0  0  0  0  0  0  0  0  0  0  0
   30.8896    9.1340   27.9652 H   0  0  0  0  0  0  0  0  0  0  0  0
   34.4872    1.9683   30.2452 H   0  0  0  0  0  0  0  0  0  0  0  0
   35.1390    3.2514   29.1762 H   0  0  0  0  0  0  0  0  0  0  0  0
   37.5739    3.6884   29.0621 H   0  0  0  0  0  0  0  0  0  0  0  0
   36.0201    0.6078   31.6537 H   0  0  0  0  0  0  0  0  0  0  0  0
   32.8233    3.6707   31.1640 H   0  0  0  0  0  0  0  0  0  0  0  0
   33.5469    4.9531   30.1172 H   0  0  0  0  0  0  0  0  0  0  0  0
   35.7677    4.6123   31.2198 H   0  0  0  0  0  0  0  0  0  0  0  0
   35.0541    3.3262   32.2686 H   0  0  0  0  0  0  0  0  0  0  0  0
   32.6731   12.6108   29.5902 H   0  0  0  0  0  0  0  0  0  0  0  0
   31.1574   11.7475   29.1041 H   0  0  0  0  0  0  0  0  0  0  0  0
   31.0642   13.2422   30.1116 H   0  0  0  0  0  0  0  0  0  0  0  0
   22.3191    6.8641   32.0164 H   0  0  0  0  0  0  0  0  0  0  0  0
   21.3622    6.1650   30.6693 H   0  0  0  0  0  0  0  0  0  0  0  0
   22.4339    3.4628   33.8184 H   0  0  0  0  0  0  0  0  0  0  0  0
   22.3855    5.1559   34.3997 H   0  0  0  0  0  0  0  0  0  0  0  0
   39.8494    2.7699   29.3514 H   0  0  0  0  0  0  0  0  0  0  0  0
   38.3021   -0.2968   31.9328 H   0  0  0  0  0  0  0  0  0  0  0  0
   40.2178    0.7788   30.7825 H   0  0  0  0  0  0  0  0  0  0  0  0
   21.3440    3.9466   31.8134 H   0  0  0  0  0  0  0  0  0  0  0  0
   20.6325    5.2237   32.8500 H   0  0  0  0  0  0  0  0  0  0  0  0
  2  1  1  0
  3  1  1  0
  4  5  1  0
  5  2  1  0
  6  1  1  0
  4  7  1  1
  8  7  1  0
  9  3  1  0
  3 10  1  0
 11  6  1  0
 12  8  1  0
 13 12  1  0
 14  4  2  0
 15  2  2  0
 16 10  1  0
 17 10  2  0
 18 13  2  0
 11 19  1  0
  8 20  1  0
 22 28  1  0
 23 13  1  0
 24 19  1  0
 25 19  1  0
 26 20  1  0
 27 20  1  0
 28 32  1  0
 29 22  2  0
 30 22  1  0
 31 21  1  0
 32 31  1  0
 33 23  1  0
 34 24  1  0
 35 25  1  0
 36 29  1  0
 37 30  2  0
 38 36  2  0
 39 34  1  0
  9 11  1  0
 39 35  1  0
 38 37  1  0
  4 21  1  0
  3 40  1  6
  5 41  1  0
  5 42  1  0
  6 43  1  0
  6 44  1  0
  8 45  1  6
  9 46  1  0
  9 47  1  0
 11 48  1  1
 19 49  1  0
 20 50  1  0
 21 51  1  0
 21 52  1  0
 23 53  1  0
 23 54  1  0
 24 55  1  0
 24 56  1  0
 25 57  1  0
 25 58  1  0
 26 59  1  0
 26 60  1  0
 26 61  1  0
 27 62  1  0
 27 63  1  0
 27 64  1  0
 28 65  1  0
 28 66  1  0
 29 67  1  0
 30 68  1  0
 31 69  1  0
 31 70  1  0
 32 71  1  0
 32 72  1  0
 33 73  1  0
 33 74  1  0
 33 75  1  0
 34 76  1  0
 34 77  1  0
 35 78  1  0
 35 79  1  0
 36 80  1  0
 37 81  1  0
 38 82  1  0
 39 83  1  0
 39 84  1  0
M  CHG  1  16  -1
M  END
> <Uni-Dock RESULT> 
ENERGY=   -3.942  LOWER_BOUND=    4.595  UPPER_BOUND=    6.618
INTER + INTRA:          -3.942
INTER:                  -3.942
INTRA:                   0.000
UNBOUND:                 0.000

$$$$

     RDKit          3D

 84 86  0  0  0  0  0  0  0  0999 V2000
   34.8241   10.6356   28.3737 N   0  0  0  0  0  0  0  0  0  0  0  0
   34.9422   11.6405   27.3469 C   0  0  0  0  0  0  0  0  0  0  0  0
   34.0991    9.3772   28.2340 C   0  0  1  0  0  0  0  0  0  0  0  0
   33.7323   13.1152   25.3499 P   0  0  1  0  0  0  0  0  0  0  0  0
   34.2430   11.4978   26.0180 C   0  0  0  0  0  0  0  0  0  0  0  0
   35.5762   10.7145   29.6174 C   0  0  0  0  0  0  0  0  0  0  0  0
   32.8150   13.9270   26.5433 O   0  0  0  0  0  0  0  0  0  0  0  0
   32.6716   15.2880   26.1951 C   0  0  2  0  0  0  0  0  0  0  0  0
   34.6195    8.4833   29.3618 C   0  0  0  0  0  0  0  0  0  0  0  0
   32.6179    9.6035   28.3663 C   0  0  0  0  0  0  0  0  0  0  0  0
   35.2117    9.4464   30.3994 C   0  0  1  0  0  0  0  0  0  0  0  0
   33.8586   15.9945   26.5712 O   0  0  0  0  0  0  0  0  0  0  0  0
   34.3741   17.0891   25.8684 C   0  0  0  0  0  0  0  0  0  0  0  0
   34.9723   13.9069   24.9938 O   0  0  0  0  0  0  0  0  0  0  0  0
   35.7119   12.6224   27.5357 O   0  0  0  0  0  0  0  0  0  0  0  0
   31.7396    8.9345   27.5234 O   0  0  0  0  0  0  0  0  0  0  0  0
   32.1624   10.3664   29.2600 O   0  0  0  0  0  0  0  0  0  0  0  0
   33.8598   17.4610   24.7771 O   0  0  0  0  0  0  0  0  0  0  0  0
   36.3433    8.8251   31.2714 C   0  0  0  0  0  0  0  0  0  0  0  0
   31.4468   15.8563   26.9471 C   0  0  0  0  0  0  0  0  0  0  0  0
   32.7352   12.8628   23.8435 C   0  0  0  0  0  0  0  0  0  0  0  0
   28.2058   11.6963   22.0259 C   0  0  0  0  0  0  0  0  0  0  0  0
   35.5133   17.8586   26.4533 C   0  0  0  0  0  0  0  0  0  0  0  0
   36.6059    9.6862   32.5352 C   0  0  0  0  0  0  0  0  0  0  0  0
   37.6749    8.5458   30.5330 C   0  0  0  0  0  0  0  0  0  0  0  0
   31.1105   17.2855   26.5007 C   0  0  0  0  0  0  0  0  0  0  0  0
   31.6359   15.8052   28.4698 C   0  0  0  0  0  0  0  0  0  0  0  0
   29.0565   11.7501   23.2669 C   0  0  0  0  0  0  0  0  0  0  0  0
   27.4684   12.8230   21.6236 C   0  0  0  0  0  0  0  0  0  0  0  0
   28.1933   10.5423   21.2241 C   0  0  0  0  0  0  0  0  0  0  0  0
   31.3303   12.3617   24.1903 C   0  0  0  0  0  0  0  0  0  0  0  0
   30.4662   12.2486   22.9291 C   0  0  0  0  0  0  0  0  0  0  0  0
   34.9933   18.9528   27.3779 C   0  0  0  0  0  0  0  0  0  0  0  0
   37.9739    9.4079   33.1969 C   0  0  0  0  0  0  0  0  0  0  0  0
   38.6304    7.7114   31.4119 C   0  0  0  0  0  0  0  0  0  0  0  0
   26.7119   12.7859   20.4480 C   0  0  0  0  0  0  0  0  0  0  0  0
   27.4360   10.5092   20.0491 C   0  0  0  0  0  0  0  0  0  0  0  0
   26.6943   11.6296   19.6626 C   0  0  0  0  0  0  0  0  0  0  0  0
   38.4681    7.9825   32.9224 C   0  0  0  0  0  0  0  0  0  0  0  0
   34.3263    8.9072   27.2511 H   0  0  0  0  0  0  0  0  0  0  0  0
   33.3334   10.8773   26.1172 H   0  0  0  0  0  0  0  0  0  0  0  0
   34.9257   11.0049   25.2956 H   0  0  0  0  0  0  0  0  0  0  0  0
   36.6552   10.7795   29.3796 H   0  0  0  0  0  0  0  0  0  0  0  0
   35.2770   11.6217   30.1872 H   0  0  0  0  0  0  0  0  0  0  0  0
   32.4711   15.4006   25.1038 H   0  0  0  0  0  0  0  0  0  0  0  0
   33.8223    7.8495   29.8104 H   0  0  0  0  0  0  0  0  0  0  0  0
   35.3957    7.8062   28.9493 H   0  0  0  0  0  0  0  0  0  0  0  0
   34.3733    9.7156   31.0837 H   0  0  0  0  0  0  0  0  0  0  0  0
   35.9554    7.8410   31.6240 H   0  0  0  0  0  0  0  0  0  0  0  0
   30.5723   15.2175   26.6934 H   0  0  0  0  0  0  0  0  0  0  0  0
   32.6650   13.8291   23.2998 H   0  0  0  0  0  0  0  0  0  0  0  0
   33.2516   12.1272   23.1905 H   0  0  0  0  0  0  0  0  0  0  0  0
   36.1190   18.3136   25.6405 H   0  0  0  0  0  0  0  0  0  0  0  0
   36.1670   17.1686   27.0287 H   0  0  0  0  0  0  0  0  0  0  0  0
   36.5608   10.7684   32.2817 H   0  0  0  0  0  0  0  0  0  0  0  0
   35.7966    9.4898   33.2736 H   0  0  0  0  0  0  0  0  0  0  0  0
   37.5090    8.0083   29.5775 H   0  0  0  0  0  0  0  0  0  0  0  0
   38.1846    9.5036   30.2946 H   0  0  0  0  0  0  0  0  0  0  0  0
   30.1487   17.6059   26.9520 H   0  0  0  0  0  0  0  0  0  0  0  0
   31.0034   17.3305   25.3972 H   0  0  0  0  0  0  0  0  0  0  0  0
   31.8989   17.9977   26.8184 H   0  0  0  0  0  0  0  0  0  0  0  0
   30.7163   16.1626   28.9783 H   0  0  0  0  0  0  0  0  0  0  0  0
   31.8248   14.7624   28.8024 H   0  0  0  0  0  0  0  0  0  0  0  0
   32.4872   16.4451   28.7849 H   0  0  0  0  0  0  0  0  0  0  0  0
   29.1178   10.7393   23.7272 H   0  0  0  0  0  0  0  0  0  0  0  0
   28.5862   12.4274   24.0133 H   0  0  0  0  0  0  0  0  0  0  0  0
   27.4837   13.7289   22.2179 H   0  0  0  0  0  0  0  0  0  0  0  0
   28.7731    9.6728   21.5073 H   0  0  0  0  0  0  0  0  0  0  0  0
   31.4000   11.3662   24.6810 H   0  0  0  0  0  0  0  0  0  0  0  0
   30.8485   13.0730   24.8970 H   0  0  0  0  0  0  0  0  0  0  0  0
   30.3974   13.2473   22.4413 H   0  0  0  0  0  0  0  0  0  0  0  0
   30.9437   11.5402   22.2158 H   0  0  0  0  0  0  0  0  0  0  0  0
   34.3734   19.6765   26.8075 H   0  0  0  0  0  0  0  0  0  0  0  0
   34.3802   18.5103   28.1928 H   0  0  0  0  0  0  0  0  0  0  0  0
   35.8487   19.4961   27.8323 H   0  0  0  0  0  0  0  0  0  0  0  0
   38.7275   10.1287   32.8074 H   0  0  0  0  0  0  0  0  0  0  0  0
   37.8945    9.5667   34.2938 H   0  0  0  0  0  0  0  0  0  0  0  0
   38.4551    6.6290   31.2241 H   0  0  0  0  0  0  0  0  0  0  0  0
   39.6768    7.9333   31.1100 H   0  0  0  0  0  0  0  0  0  0  0  0
   26.1430   13.6554   20.1437 H   0  0  0  0  0  0  0  0  0  0  0  0
   27.4280    9.6168   19.4357 H   0  0  0  0  0  0  0  0  0  0  0  0
   26.1106   11.6035   18.7520 H   0  0  0  0  0  0  0  0  0  0  0  0
   37.7404    7.2598   33.3533 H   0  0  0  0  0  0  0  0  0  0  0  0
   39.4404    7.8207   33.4361 H   0  0  0  0  0  0  0  0  0  0  0  0
  2  1  1  0
  3  1  1  0
  4  5  1  0
  5  2  1  0
  6  1  1  0
  4  7  1  1
  8  7  1  0
  9  3  1  0
  3 10  1  0
 11  6  1  0
 12  8  1  0
 13 12  1  0
 14  4  2  0
 15  2  2  0
 16 10  1  0
 17 10  2  0
 18 13  2  0
 11 19  1  0
  8 20  1  0
 22 28  1  0
 23 13  1  0
 24 19  1  0
 25 19  1  0
 26 20  1  0
 27 20  1  0
 28 32  1  0
 29 22  2  0
 30 22  1  0
 31 21  1  0
 32 31  1  0
 33 23  1  0
 34 24  1  0
 35 25  1  0
 36 29  1  0
 37 30  2  0
 38 36  2  0
 39 34  1  0
  9 11  1  0
 39 35  1  0
 38 37  1  0
  4 21  1  0
  3 40  1  6
  5 41  1  0
  5 42  1  0
  6 43  1  0
  6 44  1  0
  8 45  1  6
  9 46  1  0
  9 47  1  0
 11 48  1  1
 19 49  1  0
 20 50  1  0
 21 51  1  0
 21 52  1  0
 23 53  1  0
 23 54  1  0
 24 55  1  0
 24 56  1  0
 25 57  1  0
 25 58  1  0
 26 59  1  0
 26 60  1  0
 26 61  1  0
 27 62  1  0
 27 63  1  0
 27 64  1  0
 28 65  1  0
 28 66  1  0
 29 67  1  0
 30 68  1  0
 31 69  1  0
 31 70  1  0
 32 71  1  0
 32 72  1  0
 33 73  1  0
 33 74  1  0
 33 75  1  0
 34 76  1  0
 34 77  1  0
 35 78  1  0
 35 79  1  0
 36 80  1  0
 37 81  1  0
 38 82  1  0
 39 83  1  0
 39 84  1  0
M  CHG  1  16  -1
M  END
> <Uni-Dock RESULT> 
ENERGY=   -3.710  LOWER_BOUND=    7.720  UPPER_BOUND=   11.963
INTER + INTRA:          -3.710
INTER:                  -3.710
INTRA:                   0.000
UNBOUND:                 0.000

$$$$

     RDKit          3D

 84 86  0  0  0  0  0  0  0  0999 V2000
   28.3923   12.7713   24.2965 N   0  0  0  0  0  0  0  0  0  0  0  0
   28.2704   13.1369   22.9075 C   0  0  0  0  0  0  0  0  0  0  0  0
   29.3438   13.3558   25.2356 C   0  0  1  0  0  0  0  0  0  0  0  0
   29.5148   13.7505   20.5197 P   0  0  1  0  0  0  0  0  0  0  0  0
   29.1970   14.1429   22.2714 C   0  0  0  0  0  0  0  0  0  0  0  0
   27.4402   11.8808   24.9441 C   0  0  0  0  0  0  0  0  0  0  0  0
   30.0584   12.1322   20.4190 O   0  0  0  0  0  0  0  0  0  0  0  0
   30.0123   11.6930   19.0777 C   0  0  2  0  0  0  0  0  0  0  0  0
   28.8099   13.0017   26.6253 C   0  0  0  0  0  0  0  0  0  0  0  0
   30.7169   12.7796   25.0235 C   0  0  0  0  0  0  0  0  0  0  0  0
   27.8892   11.7933   26.4081 C   0  0  1  0  0  0  0  0  0  0  0  0
   28.6721   11.3037   18.7589 O   0  0  0  0  0  0  0  0  0  0  0  0
   28.0945   11.4499   17.4928 C   0  0  0  0  0  0  0  0  0  0  0  0
   28.2309   13.9361   19.7398 O   0  0  0  0  0  0  0  0  0  0  0  0
   27.3169   12.6632   22.2302 O   0  0  0  0  0  0  0  0  0  0  0  0
   31.8297   13.6092   25.0798 O   0  0  0  0  0  0  0  0  0  0  0  0
   30.8719   11.5437   24.8321 O   0  0  0  0  0  0  0  0  0  0  0  0
   28.7098   12.0411   16.5624 O   0  0  0  0  0  0  0  0  0  0  0  0
   26.7570   11.6570   27.4694 C   0  0  0  0  0  0  0  0  0  0  0  0
   30.9717   10.4908   18.9260 C   0  0  0  0  0  0  0  0  0  0  0  0
   30.7795   14.8886   19.8620 C   0  0  0  0  0  0  0  0  0  0  0  0
   35.6844   15.9114   19.5863 C   0  0  0  0  0  0  0  0  0  0  0  0
   26.7542   10.8444   17.2299 C   0  0  0  0  0  0  0  0  0  0  0  0
   26.1361   10.2353   27.4386 C   0  0  0  0  0  0  0  0  0  0  0  0
   25.6401   12.7261   27.3917 C   0  0  0  0  0  0  0  0  0  0  0  0
   31.1170   10.0523   17.4626 C   0  0  0  0  0  0  0  0  0  0  0  0
   30.5419    9.3021   19.7973 C   0  0  0  0  0  0  0  0  0  0  0  0
   34.6416   15.0593   20.2596 C   0  0  0  0  0  0  0  0  0  0  0  0
   36.2652   15.4953   18.3761 C   0  0  0  0  0  0  0  0  0  0  0  0
   36.0376   17.1595   20.1269 C   0  0  0  0  0  0  0  0  0  0  0  0
   32.1729   14.5235   20.3820 C   0  0  0  0  0  0  0  0  0  0  0  0
   33.2426   15.4193   19.7470 C   0  0  0  0  0  0  0  0  0  0  0  0
   26.9072    9.3988   16.7721 C   0  0  0  0  0  0  0  0  0  0  0  0
   24.7486   10.1544   28.1132 C   0  0  0  0  0  0  0  0  0  0  0  0
   24.7155   12.6507   28.6250 C   0  0  0  0  0  0  0  0  0  0  0  0
   37.2025   16.3071   17.7296 C   0  0  0  0  0  0  0  0  0  0  0  0
   36.9750   17.9686   19.4774 C   0  0  0  0  0  0  0  0  0  0  0  0
   37.5584   17.5416   18.2807 C   0  0  0  0  0  0  0  0  0  0  0  0
   24.5706   11.2247   29.1967 C   0  0  0  0  0  0  0  0  0  0  0  0
   29.3727   14.4621   25.1184 H   0  0  0  0  0  0  0  0  0  0  0  0
   30.1731   14.1611   22.7900 H   0  0  0  0  0  0  0  0  0  0  0  0
   28.7446   15.1535   22.3415 H   0  0  0  0  0  0  0  0  0  0  0  0
   26.4225   12.3005   24.8293 H   0  0  0  0  0  0  0  0  0  0  0  0
   27.4723   10.8764   24.4673 H   0  0  0  0  0  0  0  0  0  0  0  0
   30.3698   12.4907   18.3852 H   0  0  0  0  0  0  0  0  0  0  0  0
   29.6207   12.7642   27.3496 H   0  0  0  0  0  0  0  0  0  0  0  0
   28.2478   13.8720   27.0226 H   0  0  0  0  0  0  0  0  0  0  0  0
   28.5389   10.8912   26.4960 H   0  0  0  0  0  0  0  0  0  0  0  0
   27.2498   11.7746   28.4626 H   0  0  0  0  0  0  0  0  0  0  0  0
   31.9764   10.8185   19.2730 H   0  0  0  0  0  0  0  0  0  0  0  0
   30.7660   14.8294   18.7527 H   0  0  0  0  0  0  0  0  0  0  0  0
   30.5201   15.9260   20.1633 H   0  0  0  0  0  0  0  0  0  0  0  0
   26.2220   11.4287   16.4488 H   0  0  0  0  0  0  0  0  0  0  0  0
   26.1473   10.8750   18.1601 H   0  0  0  0  0  0  0  0  0  0  0  0
   26.0287    9.8831   26.3889 H   0  0  0  0  0  0  0  0  0  0  0  0
   26.8318    9.5325   27.9494 H   0  0  0  0  0  0  0  0  0  0  0  0
   26.0575   13.7508   27.3214 H   0  0  0  0  0  0  0  0  0  0  0  0
   25.0146   12.5564   26.4895 H   0  0  0  0  0  0  0  0  0  0  0  0
   31.9163    9.2876   17.3748 H   0  0  0  0  0  0  0  0  0  0  0  0
   31.3981   10.9168   16.8263 H   0  0  0  0  0  0  0  0  0  0  0  0
   30.1719    9.6138   17.0827 H   0  0  0  0  0  0  0  0  0  0  0  0
   31.2840    8.4813   19.7118 H   0  0  0  0  0  0  0  0  0  0  0  0
   30.4895    9.6030   20.8653 H   0  0  0  0  0  0  0  0  0  0  0  0
   29.5492    8.9176   19.4809 H   0  0  0  0  0  0  0  0  0  0  0  0
   34.6858   15.2079   21.3611 H   0  0  0  0  0  0  0  0  0  0  0  0
   34.8511   13.9854   20.0604 H   0  0  0  0  0  0  0  0  0  0  0  0
   35.9885   14.5459   17.9331 H   0  0  0  0  0  0  0  0  0  0  0  0
   35.5836   17.5057   21.0469 H   0  0  0  0  0  0  0  0  0  0  0  0
   32.2011   14.6412   21.4875 H   0  0  0  0  0  0  0  0  0  0  0  0
   32.3940   13.4624   20.1322 H   0  0  0  0  0  0  0  0  0  0  0  0
   33.2125   15.2979   18.6405 H   0  0  0  0  0  0  0  0  0  0  0  0
   33.0263   16.4836   19.9906 H   0  0  0  0  0  0  0  0  0  0  0  0
   27.4745    9.3549   15.8184 H   0  0  0  0  0  0  0  0  0  0  0  0
   27.4440    8.8046   17.5433 H   0  0  0  0  0  0  0  0  0  0  0  0
   25.9045    8.9492   16.6120 H   0  0  0  0  0  0  0  0  0  0  0  0
   23.9544   10.2882   27.3447 H   0  0  0  0  0  0  0  0  0  0  0  0
   24.6129    9.1473   28.5627 H   0  0  0  0  0  0  0  0  0  0  0  0
   25.1106   13.3159   29.4245 H   0  0  0  0  0  0  0  0  0  0  0  0
   23.7120   13.0358   28.3418 H   0  0  0  0  0  0  0  0  0  0  0  0
   37.6496   15.9810   16.7989 H   0  0  0  0  0  0  0  0  0  0  0  0
   37.2455   18.9286   19.8992 H   0  0  0  0  0  0  0  0  0  0  0  0
   38.2819   18.1697   17.7779 H   0  0  0  0  0  0  0  0  0  0  0  0
   25.3331   11.0637   29.9907 H   0  0  0  0  0  0  0  0  0  0  0  0
   23.5708   11.1130   29.6691 H   0  0  0  0  0  0  0  0  0  0  0  0
  2  1  1  0
  3  1  1  0
  4  5  1  0
  5  2  1  0
  6  1  1  0
  4  7  1  1
  8  7  1  0
  9  3  1  0
  3 10  1  0
 11  6  1  0
 12  8  1  0
 13 12  1  0
 14  4  2  0
 15  2  2  0
 16 10  1  0
 17 10  2  0
 18 13  2  0
 11 19  1  0
  8 20  1  0
 22 28  1  0
 23 13  1  0
 24 19  1  0
 25 19  1  0
 26 20  1  0
 27 20  1  0
 28 32  1  0
 29 22  2  0
 30 22  1  0
 31 21  1  0
 32 31  1  0
 33 23  1  0
 34 24  1  0
 35 25  1  0
 36 29  1  0
 37 30  2  0
 38 36  2  0
 39 34  1  0
  9 11  1  0
 39 35  1  0
 38 37  1  0
  4 21  1  0
  3 40  1  6
  5 41  1  0
  5 42  1  0
  6 43  1  0
  6 44  1  0
  8 45  1  6
  9 46  1  0
  9 47  1  0
 11 48  1  1
 19 49  1  0
 20 50  1  0
 21 51  1  0
 21 52  1  0
 23 53  1  0
 23 54  1  0
 24 55  1  0
 24 56  1  0
 25 57  1  0
 25 58  1  0
 26 59  1  0
 26 60  1  0
 26 61  1  0
 27 62  1  0
 27 63  1  0
 27 64  1  0
 28 65  1  0
 28 66  1  0
 29 67  1  0
 30 68  1  0
 31 69  1  0
 31 70  1  0
 32 71  1  0
 32 72  1  0
 33 73  1  0
 33 74  1  0
 33 75  1  0
 34 76  1  0
 34 77  1  0
 35 78  1  0
 35 79  1  0
 36 80  1  0
 37 81  1  0
 38 82  1  0
 39 83  1  0
 39 84  1  0
M  CHG  1  16  -1
M  END
> <Uni-Dock RESULT> 
ENERGY=   -3.630  LOWER_BOUND=    8.628  UPPER_BOUND=   12.986
INTER + INTRA:          -3.630
INTER:                  -3.630
INTRA:                   0.000
UNBOUND:                 0.000

$$$$

     RDKit          3D

 84 86  0  0  0  0  0  0  0  0999 V2000
   27.0995   10.1393   28.7449 N   0  0  0  0  0  0  0  0  0  0  0  0
   28.5299    9.9687   28.8001 C   0  0  0  0  0  0  0  0  0  0  0  0
   26.3325   10.3890   27.5292 C   0  0  1  0  0  0  0  0  0  0  0  0
   31.0302   10.7947   27.9678 P   0  0  1  0  0  0  0  0  0  0  0  0
   29.3898   10.1070   27.5686 C   0  0  0  0  0  0  0  0  0  0  0  0
   26.2517    9.9068   29.9051 C   0  0  0  0  0  0  0  0  0  0  0  0
   30.8082   12.2505   28.8372 O   0  0  0  0  0  0  0  0  0  0  0  0
   32.0265   12.6445   29.4327 C   0  0  2  0  0  0  0  0  0  0  0  0
   24.8838   10.0516   27.8885 C   0  0  0  0  0  0  0  0  0  0  0  0
   26.4620   11.8275   27.1091 C   0  0  0  0  0  0  0  0  0  0  0  0
   24.8161   10.1418   29.4190 C   0  0  1  0  0  0  0  0  0  0  0  0
   32.2159   11.9046   30.6436 O   0  0  0  0  0  0  0  0  0  0  0  0
   33.4662   11.5120   31.1338 C   0  0  0  0  0  0  0  0  0  0  0  0
   31.7917    9.7835   28.7977 O   0  0  0  0  0  0  0  0  0  0  0  0
   29.0639    9.6177   29.8881 O   0  0  0  0  0  0  0  0  0  0  0  0
   26.6140   12.1429   25.7648 O   0  0  0  0  0  0  0  0  0  0  0  0
   26.3964   12.7535   27.9613 O   0  0  0  0  0  0  0  0  0  0  0  0
   34.5178   11.7094   30.4638 O   0  0  0  0  0  0  0  0  0  0  0  0
   23.7154    9.2458   30.0612 C   0  0  0  0  0  0  0  0  0  0  0  0
   31.9537   14.1587   29.7338 C   0  0  0  0  0  0  0  0  0  0  0  0
   31.9491   11.1095   26.4239 C   0  0  0  0  0  0  0  0  0  0  0  0
   32.5824   14.2338   22.5485 C   0  0  0  0  0  0  0  0  0  0  0  0
   33.5559   10.9034   32.4953 C   0  0  0  0  0  0  0  0  0  0  0  0
   23.4302    9.6798   31.5234 C   0  0  0  0  0  0  0  0  0  0  0  0
   23.9798    7.7217   30.0016 C   0  0  0  0  0  0  0  0  0  0  0  0
   33.2975   14.7119   30.2272 C   0  0  0  0  0  0  0  0  0  0  0  0
   30.8411   14.4896   30.7385 C   0  0  0  0  0  0  0  0  0  0  0  0
   31.7146   13.9048   23.7341 C   0  0  0  0  0  0  0  0  0  0  0  0
   33.6966   15.0769   22.6990 C   0  0  0  0  0  0  0  0  0  0  0  0
   32.3248   13.6490   21.2970 C   0  0  0  0  0  0  0  0  0  0  0  0
   31.4075   12.3474   25.7031 C   0  0  0  0  0  0  0  0  0  0  0  0
   32.2478   12.6649   24.4609 C   0  0  0  0  0  0  0  0  0  0  0  0
   33.7069   11.9911   33.5521 C   0  0  0  0  0  0  0  0  0  0  0  0
   22.7113    8.5968   32.3583 C   0  0  0  0  0  0  0  0  0  0  0  0
   22.7300    6.9262   30.4338 C   0  0  0  0  0  0  0  0  0  0  0  0
   34.5265   15.3482   21.6067 C   0  0  0  0  0  0  0  0  0  0  0  0
   33.1571   13.9223   20.2072 C   0  0  0  0  0  0  0  0  0  0  0  0
   34.2560   14.7729   20.3616 C   0  0  0  0  0  0  0  0  0  0  0  0
   21.8697    7.6591   31.4845 C   0  0  0  0  0  0  0  0  0  0  0  0
   26.6785    9.7202   26.7096 H   0  0  0  0  0  0  0  0  0  0  0  0
   28.9165   10.7826   26.8327 H   0  0  0  0  0  0  0  0  0  0  0  0
   29.5179    9.1108   27.0972 H   0  0  0  0  0  0  0  0  0  0  0  0
   26.4201    8.8758   30.2705 H   0  0  0  0  0  0  0  0  0  0  0  0
   26.5096   10.6236   30.7157 H   0  0  0  0  0  0  0  0  0  0  0  0
   32.8806   12.4871   28.7331 H   0  0  0  0  0  0  0  0  0  0  0  0
   24.1512   10.7409   27.4124 H   0  0  0  0  0  0  0  0  0  0  0  0
   24.6595    9.0245   27.5338 H   0  0  0  0  0  0  0  0  0  0  0  0
   24.5622   11.2019   29.6542 H   0  0  0  0  0  0  0  0  0  0  0  0
   22.7841    9.4364   29.4785 H   0  0  0  0  0  0  0  0  0  0  0  0
   31.7136   14.6785   28.7802 H   0  0  0  0  0  0  0  0  0  0  0  0
   33.0207   11.2606   26.6746 H   0  0  0  0  0  0  0  0  0  0  0  0
   31.8627   10.2178   25.7668 H   0  0  0  0  0  0  0  0  0  0  0  0
   34.4249   10.2126   32.5441 H   0  0  0  0  0  0  0  0  0  0  0  0
   32.6343   10.3169   32.6980 H   0  0  0  0  0  0  0  0  0  0  0  0
   24.3797    9.9391   32.0418 H   0  0  0  0  0  0  0  0  0  0  0  0
   22.8059   10.6010   31.5054 H   0  0  0  0  0  0  0  0  0  0  0  0
   24.2748    7.3962   28.9836 H   0  0  0  0  0  0  0  0  0  0  0  0
   24.8072    7.4529   30.6923 H   0  0  0  0  0  0  0  0  0  0  0  0
   33.2485   15.8184   30.2952 H   0  0  0  0  0  0  0  0  0  0  0  0
   34.1082   14.4474   29.5173 H   0  0  0  0  0  0  0  0  0  0  0  0
   33.5484   14.3118   31.2305 H   0  0  0  0  0  0  0  0  0  0  0  0
   30.7766   15.5880   30.8847 H   0  0  0  0  0  0  0  0  0  0  0  0
   29.8582   14.1390   30.3581 H   0  0  0  0  0  0  0  0  0  0  0  0
   31.0398   14.0117   31.7212 H   0  0  0  0  0  0  0  0  0  0  0  0
   30.6701   13.7210   23.3985 H   0  0  0  0  0  0  0  0  0  0  0  0
   31.6921   14.7701   24.4323 H   0  0  0  0  0  0  0  0  0  0  0  0
   33.9233   15.5192   23.6620 H   0  0  0  0  0  0  0  0  0  0  0  0
   31.4836   12.9795   21.1685 H   0  0  0  0  0  0  0  0  0  0  0  0
   30.3522   12.1706   25.4001 H   0  0  0  0  0  0  0  0  0  0  0  0
   31.4374   13.2192   26.3933 H   0  0  0  0  0  0  0  0  0  0  0  0
   33.3032   12.8427   24.7682 H   0  0  0  0  0  0  0  0  0  0  0  0
   32.2247   11.7955   23.7664 H   0  0  0  0  0  0  0  0  0  0  0  0
   34.6476   12.5585   33.3890 H   0  0  0  0  0  0  0  0  0  0  0  0
   32.8458   12.6928   33.5095 H   0  0  0  0  0  0  0  0  0  0  0  0
   33.7391   11.5295   34.5616 H   0  0  0  0  0  0  0  0  0  0  0  0
   23.4661    7.9912   32.9085 H   0  0  0  0  0  0  0  0  0  0  0  0
   22.0579    9.0838   33.1136 H   0  0  0  0  0  0  0  0  0  0  0  0
   22.0992    6.7154   29.5420 H   0  0  0  0  0  0  0  0  0  0  0  0
   23.0563    5.9467   30.8458 H   0  0  0  0  0  0  0  0  0  0  0  0
   35.3821   16.0008   21.7267 H   0  0  0  0  0  0  0  0  0  0  0  0
   32.9531   13.4709   19.2442 H   0  0  0  0  0  0  0  0  0  0  0  0
   34.9005   14.9817   19.5181 H   0  0  0  0  0  0  0  0  0  0  0  0
   21.0833    8.2550   30.9704 H   0  0  0  0  0  0  0  0  0  0  0  0
   21.3538    6.9142   32.1283 H   0  0  0  0  0  0  0  0  0  0  0  0
  2  1  1  0
  3  1  1  0
  4  5  1  0
  5  2  1  0
  6  1  1  0
  4  7  1  1
  8  7  1  0
  9  3  1  0
  3 10  1  0
 11  6  1  0
 12  8  1  0
 13 12  1  0
 14  4  2  0
 15  2  2  0
 16 10  1  0
 17 10  2  0
 18 13  2  0
 11 19  1  0
  8 20  1  0
 22 28  1  0
 23 13  1  0
 24 19  1  0
 25 19  1  0
 26 20  1  0
 27 20  1  0
 28 32  1  0
 29 22  2  0
 30 22  1  0
 31 21  1  0
 32 31  1  0
 33 23  1  0
 34 24  1  0
 35 25  1  0
 36 29  1  0
 37 30  2  0
 38 36  2  0
 39 34  1  0
  9 11  1  0
 39 35  1  0
 38 37  1  0
  4 21  1  0
  3 40  1  6
  5 41  1  0
  5 42  1  0
  6 43  1  0
  6 44  1  0
  8 45  1  6
  9 46  1  0
  9 47  1  0
 11 48  1  1
 19 49  1  0
 20 50  1  0
 21 51  1  0
 21 52  1  0
 23 53  1  0
 23 54  1  0
 24 55  1  0
 24 56  1  0
 25 57  1  0
 25 58  1  0
 26 59  1  0
 26 60  1  0
 26 61  1  0
 27 62  1  0
 27 63  1  0
 27 64  1  0
 28 65  1  0
 28 66  1  0
 29 67  1  0
 30 68  1  0
 31 69  1  0
 31 70  1  0
 32 71  1  0
 32 72  1  0
 33 73  1  0
 33 74  1  0
 33 75  1  0
 34 76  1  0
 34 77  1  0
 35 78  1  0
 35 79  1  0
 36 80  1  0
 37 81  1  0
 38 82  1  0
 39 83  1  0
 39 84  1  0
M  CHG  1  16  -1
M  END
> <Uni-Dock RESULT> 
ENERGY=   -3.606  LOWER_BOUND=    4.786  UPPER_BOUND=    8.660
INTER + INTRA:          -3.606
INTER:                  -3.606
INTRA:                   0.000
UNBOUND:                 0.000

$$$$

     RDKit          3D

 84 86  0  0  0  0  0  0  0  0999 V2000
   33.7688   15.2387   25.9567 N   0  0  0  0  0  0  0  0  0  0  0  0
   33.5920   14.6030   27.2384 C   0  0  0  0  0  0  0  0  0  0  0  0
   32.6996   15.8360   25.1639 C   0  0  1  0  0  0  0  0  0  0  0  0
   32.1127   12.9046   28.8364 P   0  0  1  0  0  0  0  0  0  0  0  0
   32.2259   14.4373   27.8559 C   0  0  0  0  0  0  0  0  0  0  0  0
   35.0895   15.4950   25.4009 C   0  0  0  0  0  0  0  0  0  0  0  0
   32.6018   11.5957   27.8505 O   0  0  0  0  0  0  0  0  0  0  0  0
   32.8311   10.4533   28.6483 C   0  0  2  0  0  0  0  0  0  0  0  0
   33.4038   16.7483   24.1572 C   0  0  0  0  0  0  0  0  0  0  0  0
   31.9051   14.7700   24.4604 C   0  0  0  0  0  0  0  0  0  0  0  0
   34.8426   16.2213   24.0727 C   0  0  1  0  0  0  0  0  0  0  0  0
   34.1328   10.5474   29.2366 O   0  0  0  0  0  0  0  0  0  0  0  0
   34.4597   10.0415   30.4996 C   0  0  0  0  0  0  0  0  0  0  0  0
   33.0145   13.0338   30.0452 O   0  0  0  0  0  0  0  0  0  0  0  0
   34.6110   14.2489   27.8930 O   0  0  0  0  0  0  0  0  0  0  0  0
   30.5216   14.8735   24.3906 O   0  0  0  0  0  0  0  0  0  0  0  0
   32.4851   13.8016   23.9002 O   0  0  0  0  0  0  0  0  0  0  0  0
   33.5734    9.5481   31.2510 O   0  0  0  0  0  0  0  0  0  0  0  0
   35.8927   17.2996   23.6710 C   0  0  0  0  0  0  0  0  0  0  0  0
   32.7385    9.2025   27.7453 C   0  0  0  0  0  0  0  0  0  0  0  0
   30.3938   12.6693   29.3996 C   0  0  0  0  0  0  0  0  0  0  0  0
   25.7952   11.1205   28.1208 C   0  0  0  0  0  0  0  0  0  0  0  0
   35.8892   10.0363   30.9340 C   0  0  0  0  0  0  0  0  0  0  0  0
   37.2195   16.6382   23.2129 C   0  0  0  0  0  0  0  0  0  0  0  0
   36.1799   18.3800   24.7418 C   0  0  0  0  0  0  0  0  0  0  0  0
   32.8059    7.9015   28.5566 C   0  0  0  0  0  0  0  0  0  0  0  0
   33.8168    9.2044   26.6526 C   0  0  0  0  0  0  0  0  0  0  0  0
   27.1687   11.4552   27.6028 C   0  0  0  0  0  0  0  0  0  0  0  0
   25.5068    9.8220   28.5748 C   0  0  0  0  0  0  0  0  0  0  0  0
   24.8106   12.1184   28.2165 C   0  0  0  0  0  0  0  0  0  0  0  0
   29.4946   12.2108   28.2479 C   0  0  0  0  0  0  0  0  0  0  0  0
   28.0757   11.9177   28.7487 C   0  0  0  0  0  0  0  0  0  0  0  0
   36.5798    8.7609   30.4659 C   0  0  0  0  0  0  0  0  0  0  0  0
   38.4275   17.6011   23.2349 C   0  0  0  0  0  0  0  0  0  0  0  0
   37.0337   19.5250   24.1573 C   0  0  0  0  0  0  0  0  0  0  0  0
   24.2438    9.5228   29.0951 C   0  0  0  0  0  0  0  0  0  0  0  0
   23.5490   11.8155   28.7377 C   0  0  0  0  0  0  0  0  0  0  0  0
   23.2653   10.5180   29.1747 C   0  0  0  0  0  0  0  0  0  0  0  0
   38.0034   19.0629   23.0494 C   0  0  0  0  0  0  0  0  0  0  0  0
   32.0304   16.4439   25.8129 H   0  0  0  0  0  0  0  0  0  0  0  0
   31.4446   14.3905   27.0751 H   0  0  0  0  0  0  0  0  0  0  0  0
   32.0127   15.3058   28.5126 H   0  0  0  0  0  0  0  0  0  0  0  0
   35.6699   16.1011   26.1225 H   0  0  0  0  0  0  0  0  0  0  0  0
   35.6224   14.5347   25.2253 H   0  0  0  0  0  0  0  0  0  0  0  0
   32.0462   10.3527   29.4342 H   0  0  0  0  0  0  0  0  0  0  0  0
   32.9147   16.7438   23.1576 H   0  0  0  0  0  0  0  0  0  0  0  0
   33.3764   17.7891   24.5408 H   0  0  0  0  0  0  0  0  0  0  0  0
   34.8397   15.4445   23.2725 H   0  0  0  0  0  0  0  0  0  0  0  0
   35.4696   17.8265   22.7841 H   0  0  0  0  0  0  0  0  0  0  0  0
   31.7470    9.2257   27.2418 H   0  0  0  0  0  0  0  0  0  0  0  0
   30.3874   11.9060   30.2068 H   0  0  0  0  0  0  0  0  0  0  0  0
   30.0187   13.6279   29.8174 H   0  0  0  0  0  0  0  0  0  0  0  0
   35.9480   10.1076   32.0413 H   0  0  0  0  0  0  0  0  0  0  0  0
   36.4089   10.9179   30.5012 H   0  0  0  0  0  0  0  0  0  0  0  0
   37.4620   15.7681   23.8621 H   0  0  0  0  0  0  0  0  0  0  0  0
   37.0835   16.2469   22.1798 H   0  0  0  0  0  0  0  0  0  0  0  0
   35.2438   18.8080   25.1538 H   0  0  0  0  0  0  0  0  0  0  0  0
   36.7455   17.9346   25.5879 H   0  0  0  0  0  0  0  0  0  0  0  0
   32.5936    7.0341   27.8980 H   0  0  0  0  0  0  0  0  0  0  0  0
   32.0472    7.9113   29.3662 H   0  0  0  0  0  0  0  0  0  0  0  0
   33.8115    7.7623   29.0028 H   0  0  0  0  0  0  0  0  0  0  0  0
   33.6836    8.3265   25.9867 H   0  0  0  0  0  0  0  0  0  0  0  0
   33.7350   10.1198   26.0286 H   0  0  0  0  0  0  0  0  0  0  0  0
   34.8330    9.1606   27.0987 H   0  0  0  0  0  0  0  0  0  0  0  0
   27.0980   12.2571   26.8352 H   0  0  0  0  0  0  0  0  0  0  0  0
   27.6103   10.5613   27.1101 H   0  0  0  0  0  0  0  0  0  0  0  0
   26.2610    9.0452   28.5291 H   0  0  0  0  0  0  0  0  0  0  0  0
   25.0227   13.1295   27.8920 H   0  0  0  0  0  0  0  0  0  0  0  0
   29.4549   13.0024   27.4678 H   0  0  0  0  0  0  0  0  0  0  0  0
   29.9170   11.2868   27.7949 H   0  0  0  0  0  0  0  0  0  0  0  0
   28.1191   11.1239   29.5284 H   0  0  0  0  0  0  0  0  0  0  0  0
   27.6474   12.8376   29.2060 H   0  0  0  0  0  0  0  0  0  0  0  0
   36.0989    7.8716   30.9257 H   0  0  0  0  0  0  0  0  0  0  0  0
   36.5224    8.6749   29.3590 H   0  0  0  0  0  0  0  0  0  0  0  0
   37.6489    8.7832   30.7652 H   0  0  0  0  0  0  0  0  0  0  0  0
   38.9609   17.5043   24.2072 H   0  0  0  0  0  0  0  0  0  0  0  0
   39.1416   17.3187   22.4318 H   0  0  0  0  0  0  0  0  0  0  0  0
   36.3643   20.3092   23.7396 H   0  0  0  0  0  0  0  0  0  0  0  0
   37.6148   19.9923   24.9816 H   0  0  0  0  0  0  0  0  0  0  0  0
   24.0253    8.5202   29.4408 H   0  0  0  0  0  0  0  0  0  0  0  0
   22.7928   12.5875   28.8073 H   0  0  0  0  0  0  0  0  0  0  0  0
   22.2894   10.2854   29.5799 H   0  0  0  0  0  0  0  0  0  0  0  0
   37.5127   19.1724   22.0570 H   0  0  0  0  0  0  0  0  0  0  0  0
   38.9042   19.7141   23.0479 H   0  0  0  0  0  0  0  0  0  0  0  0
  2  1  1  0
  3  1  1  0
  4  5  1  0
  5  2  1  0
  6  1  1  0
  4  7  1  1
  8  7  1  0
  9  3  1  0
  3 10  1  0
 11  6  1  0
 12  8  1  0
 13 12  1  0
 14  4  2  0
 15  2  2  0
 16 10  1  0
 17 10  2  0
 18 13  2  0
 11 19  1  0
  8 20  1  0
 22 28  1  0
 23 13  1  0
 24 19  1  0
 25 19  1  0
 26 20  1  0
 27 20  1  0
 28 32  1  0
 29 22  2  0
 30 22  1  0
 31 21  1  0
 32 31  1  0
 33 23  1  0
 34 24  1  0
 35 25  1  0
 36 29  1  0
 37 30  2  0
 38 36  2  0
 39 34  1  0
  9 11  1  0
 39 35  1  0
 38 37  1  0
  4 21  1  0
  3 40  1  6
  5 41  1  0
  5 42  1  0
  6 43  1  0
  6 44  1  0
  8 45  1  6
  9 46  1  0
  9 47  1  0
 11 48  1  1
 19 49  1  0
 20 50  1  0
 21 51  1  0
 21 52  1  0
 23 53  1  0
 23 54  1  0
 24 55  1  0
 24 56  1  0
 25 57  1  0
 25 58  1  0
 26 59  1  0
 26 60  1  0
 26 61  1  0
 27 62  1  0
 27 63  1  0
 27 64  1  0
 28 65  1  0
 28 66  1  0
 29 67  1  0
 30 68  1  0
 31 69  1  0
 31 70  1  0
 32 71  1  0
 32 72  1  0
 33 73  1  0
 33 74  1  0
 33 75  1  0
 34 76  1  0
 34 77  1  0
 35 78  1  0
 35 79  1  0
 36 80  1  0
 37 81  1  0
 38 82  1  0
 39 83  1  0
 39 84  1  0
M  CHG  1  16  -1
M  END
> <Uni-Dock RESULT> 
ENERGY=   -3.565  LOWER_BOUND=    5.453  UPPER_BOUND=   10.719
INTER + INTRA:          -3.565
INTER:                  -3.565
INTRA:                   0.000
UNBOUND:                 0.000

$$$$

     RDKit          3D

 84 86  0  0  0  0  0  0  0  0999 V2000
   31.9658   14.0137   22.7915 N   0  0  0  0  0  0  0  0  0  0  0  0
   32.0518   14.1776   24.2211 C   0  0  0  0  0  0  0  0  0  0  0  0
   30.7279   13.8193   22.0442 C   0  0  1  0  0  0  0  0  0  0  0  0
   31.2255   13.3813   26.7330 P   0  0  1  0  0  0  0  0  0  0  0  0
   30.8297   14.0905   25.1009 C   0  0  0  0  0  0  0  0  0  0  0  0
   33.1210   14.1980   21.9252 C   0  0  0  0  0  0  0  0  0  0  0  0
   32.0270   11.8897   26.4935 O   0  0  0  0  0  0  0  0  0  0  0  0
   32.6247   11.4667   27.7010 C   0  0  2  0  0  0  0  0  0  0  0  0
   31.0778   14.1449   20.5904 C   0  0  0  0  0  0  0  0  0  0  0  0
   30.2479   12.4000   22.1773 C   0  0  0  0  0  0  0  0  0  0  0  0
   32.6016   13.9886   20.4973 C   0  0  1  0  0  0  0  0  0  0  0  0
   33.8695   12.1528   27.8720 O   0  0  0  0  0  0  0  0  0  0  0  0
   34.3968   12.5201   29.1149 C   0  0  0  0  0  0  0  0  0  0  0  0
   32.1109   14.3532   27.4830 O   0  0  0  0  0  0  0  0  0  0  0  0
   33.1627   14.4794   24.7379 O   0  0  0  0  0  0  0  0  0  0  0  0
   28.8939   12.1429   22.3508 O   0  0  0  0  0  0  0  0  0  0  0  0
   31.0579   11.4380   22.0957 O   0  0  0  0  0  0  0  0  0  0  0  0
   33.7361   12.3489   30.1770 O   0  0  0  0  0  0  0  0  0  0  0  0
   33.2641   14.8590   19.3882 C   0  0  0  0  0  0  0  0  0  0  0  0
   32.8584    9.9411   27.6200 C   0  0  0  0  0  0  0  0  0  0  0  0
   29.6846   13.1312   27.6765 C   0  0  0  0  0  0  0  0  0  0  0  0
   25.6880   10.1763   28.3669 C   0  0  0  0  0  0  0  0  0  0  0  0
   35.7847   13.0687   29.1835 C   0  0  0  0  0  0  0  0  0  0  0  0
   34.7011   14.3628   19.0779 C   0  0  0  0  0  0  0  0  0  0  0  0
   33.2751   16.3835   19.6568 C   0  0  0  0  0  0  0  0  0  0  0  0
   33.3493    9.3631   28.9542 C   0  0  0  0  0  0  0  0  0  0  0  0
   33.8295    9.5701   26.4902 C   0  0  0  0  0  0  0  0  0  0  0  0
   26.8724   10.4560   27.4804 C   0  0  0  0  0  0  0  0  0  0  0  0
   25.8199    9.3241   29.4766 C   0  0  0  0  0  0  0  0  0  0  0  0
   24.4590   10.8156   28.1312 C   0  0  0  0  0  0  0  0  0  0  0  0
   28.9019   11.9273   27.1442 C   0  0  0  0  0  0  0  0  0  0  0  0
   27.6610   11.6615   28.0042 C   0  0  0  0  0  0  0  0  0  0  0  0
   36.7956   11.9358   29.3147 C   0  0  0  0  0  0  0  0  0  0  0  0
   35.5704   15.4106   18.3477 C   0  0  0  0  0  0  0  0  0  0  0  0
   33.7210   17.1631   18.4018 C   0  0  0  0  0  0  0  0  0  0  0  0
   24.7306    9.0982   30.3238 C   0  0  0  0  0  0  0  0  0  0  0  0
   23.3721   10.5874   28.9808 C   0  0  0  0  0  0  0  0  0  0  0  0
   23.5074    9.7278   30.0751 C   0  0  0  0  0  0  0  0  0  0  0  0
   34.7245   16.3878   17.5226 C   0  0  0  0  0  0  0  0  0  0  0  0
   29.9440   14.5220   22.4050 H   0  0  0  0  0  0  0  0  0  0  0  0
   30.0574   13.4487   24.6384 H   0  0  0  0  0  0  0  0  0  0  0  0
   30.4042   15.1058   25.2389 H   0  0  0  0  0  0  0  0  0  0  0  0
   33.5335   15.2118   22.0898 H   0  0  0  0  0  0  0  0  0  0  0  0
   33.9037   13.4460   22.1681 H   0  0  0  0  0  0  0  0  0  0  0  0
   31.9467   11.6518   28.5669 H   0  0  0  0  0  0  0  0  0  0  0  0
   30.5603   13.4791   19.8643 H   0  0  0  0  0  0  0  0  0  0  0  0
   30.7644   15.1871   20.3743 H   0  0  0  0  0  0  0  0  0  0  0  0
   32.7863   12.9200   20.2372 H   0  0  0  0  0  0  0  0  0  0  0  0
   32.6584   14.6966   18.4662 H   0  0  0  0  0  0  0  0  0  0  0  0
   31.8793    9.4639   27.3945 H   0  0  0  0  0  0  0  0  0  0  0  0
   29.9460   12.9662   28.7436 H   0  0  0  0  0  0  0  0  0  0  0  0
   29.0655   14.0507   27.6029 H   0  0  0  0  0  0  0  0  0  0  0  0
   35.8777   13.7543   30.0530 H   0  0  0  0  0  0  0  0  0  0  0  0
   35.9976   13.6486   28.2599 H   0  0  0  0  0  0  0  0  0  0  0  0
   35.2232   14.0785   20.0181 H   0  0  0  0  0  0  0  0  0  0  0  0
   34.6329   13.4450   18.4520 H   0  0  0  0  0  0  0  0  0  0  0  0
   32.2772   16.7520   19.9693 H   0  0  0  0  0  0  0  0  0  0  0  0
   33.9903   16.6197   20.4732 H   0  0  0  0  0  0  0  0  0  0  0  0
   33.3683    8.2549   28.9017 H   0  0  0  0  0  0  0  0  0  0  0  0
   32.6649    9.6558   29.7771 H   0  0  0  0  0  0  0  0  0  0  0  0
   34.3730    9.7185   29.1894 H   0  0  0  0  0  0  0  0  0  0  0  0
   33.9267    8.4666   26.4208 H   0  0  0  0  0  0  0  0  0  0  0  0
   33.4486    9.9398   25.5144 H   0  0  0  0  0  0  0  0  0  0  0  0
   34.8351   10.0043   26.6737 H   0  0  0  0  0  0  0  0  0  0  0  0
   26.5280   10.6572   26.4420 H   0  0  0  0  0  0  0  0  0  0  0  0
   27.5318    9.5612   27.4445 H   0  0  0  0  0  0  0  0  0  0  0  0
   26.7663    8.8398   29.6864 H   0  0  0  0  0  0  0  0  0  0  0  0
   24.3459   11.4925   27.2937 H   0  0  0  0  0  0  0  0  0  0  0  0
   28.5896   12.1201   26.0945 H   0  0  0  0  0  0  0  0  0  0  0  0
   29.5540   11.0262   27.1609 H   0  0  0  0  0  0  0  0  0  0  0  0
   27.9775   11.4676   29.0540 H   0  0  0  0  0  0  0  0  0  0  0  0
   27.0047   12.5604   27.9945 H   0  0  0  0  0  0  0  0  0  0  0  0
   36.6234   11.3732   30.2567 H   0  0  0  0  0  0  0  0  0  0  0  0
   36.7084   11.2391   28.4528 H   0  0  0  0  0  0  0  0  0  0  0  0
   37.8246   12.3529   29.3311 H   0  0  0  0  0  0  0  0  0  0  0  0
   36.1587   15.9895   19.0946 H   0  0  0  0  0  0  0  0  0  0  0  0
   36.2931   14.8931   17.6808 H   0  0  0  0  0  0  0  0  0  0  0  0
   32.8290   17.4142   17.7862 H   0  0  0  0  0  0  0  0  0  0  0  0
   34.1804   18.1228   18.7233 H   0  0  0  0  0  0  0  0  0  0  0  0
   24.8361    8.4385   31.1759 H   0  0  0  0  0  0  0  0  0  0  0  0
   22.4265   11.0808   28.7937 H   0  0  0  0  0  0  0  0  0  0  0  0
   22.6663    9.5539   30.7330 H   0  0  0  0  0  0  0  0  0  0  0  0
   34.1722   15.8171   16.7436 H   0  0  0  0  0  0  0  0  0  0  0  0
   35.3916   17.1055   16.9978 H   0  0  0  0  0  0  0  0  0  0  0  0
  2  1  1  0
  3  1  1  0
  4  5  1  0
  5  2  1  0
  6  1  1  0
  4  7  1  1
  8  7  1  0
  9  3  1  0
  3 10  1  0
 11  6  1  0
 12  8  1  0
 13 12  1  0
 14  4  2  0
 15  2  2  0
 16 10  1  0
 17 10  2  0
 18 13  2  0
 11 19  1  0
  8 20  1  0
 22 28  1  0
 23 13  1  0
 24 19  1  0
 25 19  1  0
 26 20  1  0
 27 20  1  0
 28 32  1  0
 29 22  2  0
 30 22  1  0
 31 21  1  0
 32 31  1  0
 33 23  1  0
 34 24  1  0
 35 25  1  0
 36 29  1  0
 37 30  2  0
 38 36  2  0
 39 34  1  0
  9 11  1  0
 39 35  1  0
 38 37  1  0
  4 21  1  0
  3 40  1  6
  5 41  1  0
  5 42  1  0
  6 43  1  0
  6 44  1  0
  8 45  1  6
  9 46  1  0
  9 47  1  0
 11 48  1  1
 19 49  1  0
 20 50  1  0
 21 51  1  0
 21 52  1  0
 23 53  1  0
 23 54  1  0
 24 55  1  0
 24 56  1  0
 25 57  1  0
 25 58  1  0
 26 59  1  0
 26 60  1  0
 26 61  1  0
 27 62  1  0
 27 63  1  0
 27 64  1  0
 28 65  1  0
 28 66  1  0
 29 67  1  0
 30 68  1  0
 31 69  1  0
 31 70  1  0
 32 71  1  0
 32 72  1  0
 33 73  1  0
 33 74  1  0
 33 75  1  0
 34 76  1  0
 34 77  1  0
 35 78  1  0
 35 79  1  0
 36 80  1  0
 37 81  1  0
 38 82  1  0
 39 83  1  0
 39 84  1  0
M  CHG  1  16  -1
M  END
> <Uni-Dock RESULT> 
ENERGY=   -3.508  LOWER_BOUND=    6.473  UPPER_BOUND=   10.596
INTER + INTRA:          -3.508
INTER:                  -3.508
INTRA:                   0.000
UNBOUND:                 0.000

$$$$
