
     RDKit          3D

 84 86  0  0  0  0  0  0  0  0999 V2000
   24.5377    8.9563   31.3095 N   0  0  0  0  0  0  0  0  0  0  0  0
   25.8385    8.5704   31.7951 C   0  0  0  0  0  0  0  0  0  0  0  0
   24.0312    8.7078   29.9651 C   0  0  1  0  0  0  0  0  0  0  0  0
   26.5575    5.9380   31.5842 P   0  0  1  0  0  0  0  0  0  0  0  0
   26.7436    7.6621   31.0138 C   0  0  0  0  0  0  0  0  0  0  0  0
   23.5407    9.5684   32.1738 C   0  0  0  0  0  0  0  0  0  0  0  0
   27.4711    4.8710   30.6110 O   0  0  0  0  0  0  0  0  0  0  0  0
   28.8317    5.2524   30.5963 C   0  0  2  0  0  0  0  0  0  0  0  0
   22.5254    8.9515   30.0587 C   0  0  0  0  0  0  0  0  0  0  0  0
   24.6746    9.6454   28.9805 C   0  0  0  0  0  0  0  0  0  0  0  0
   22.3320    9.8692   31.2757 C   0  0  1  0  0  0  0  0  0  0  0  0
   29.0418    6.1640   29.5139 O   0  0  0  0  0  0  0  0  0  0  0  0
   29.9721    7.2103   29.5351 C   0  0  0  0  0  0  0  0  0  0  0  0
   27.0129    5.8400   33.0238 O   0  0  0  0  0  0  0  0  0  0  0  0
   26.2147    8.9583   32.9352 O   0  0  0  0  0  0  0  0  0  0  0  0
   25.1037    9.1678   27.7480 O   0  0  0  0  0  0  0  0  0  0  0  0
   24.7889   10.8712   29.2466 O   0  0  0  0  0  0  0  0  0  0  0  0
   30.6038    7.4952   30.5898 O   0  0  0  0  0  0  0  0  0  0  0  0
   20.9650    9.6652   31.9985 C   0  0  0  0  0  0  0  0  0  0  0  0
   29.6874    3.9797   30.3984 C   0  0  0  0  0  0  0  0  0  0  0  0
   24.8018    5.4376   31.4774 C   0  0  0  0  0  0  0  0  0  0  0  0
   23.2514    1.2364   31.8023 C   0  0  0  0  0  0  0  0  0  0  0  0
   30.2183    7.9960   28.2867 C   0  0  0  0  0  0  0  0  0  0  0  0
   20.8049   10.5873   33.2331 C   0  0  0  0  0  0  0  0  0  0  0  0
   19.7502    9.8475   31.0554 C   0  0  0  0  0  0  0  0  0  0  0  0
   31.1899    4.2749   30.5007 C   0  0  0  0  0  0  0  0  0  0  0  0
   29.3703    3.2792   29.0671 C   0  0  0  0  0  0  0  0  0  0  0  0
   24.6731    1.5777   32.1694 C   0  0  0  0  0  0  0  0  0  0  0  0
   22.9591    0.7086   30.5324 C   0  0  0  0  0  0  0  0  0  0  0  0
   22.2040    1.4614   32.7126 C   0  0  0  0  0  0  0  0  0  0  0  0
   24.5071    4.1237   32.2157 C   0  0  0  0  0  0  0  0  0  0  0  0
   25.1324    2.8967   31.5312 C   0  0  0  0  0  0  0  0  0  0  0  0
   31.6239    7.7345   27.7536 C   0  0  0  0  0  0  0  0  0  0  0  0
   20.5756   12.0553   32.8445 C   0  0  0  0  0  0  0  0  0  0  0  0
   19.5328   11.3142   30.6612 C   0  0  0  0  0  0  0  0  0  0  0  0
   21.6395    0.4030   30.1833 C   0  0  0  0  0  0  0  0  0  0  0  0
   20.8865    1.1534   32.3593 C   0  0  0  0  0  0  0  0  0  0  0  0
   20.6044    0.6239   31.0961 C   0  0  0  0  0  0  0  0  0  0  0  0
   19.3752   12.1984   31.9025 C   0  0  0  0  0  0  0  0  0  0  0  0
   24.2147    7.6551   29.6642 H   0  0  0  0  0  0  0  0  0  0  0  0
   27.7927    7.9845   31.1744 H   0  0  0  0  0  0  0  0  0  0  0  0
   26.5417    7.7147   29.9258 H   0  0  0  0  0  0  0  0  0  0  0  0
   23.2808    8.8517   32.9842 H   0  0  0  0  0  0  0  0  0  0  0  0
   23.9401   10.5076   32.6171 H   0  0  0  0  0  0  0  0  0  0  0  0
   29.1439    5.7099   31.5648 H   0  0  0  0  0  0  0  0  0  0  0  0
   22.1065    9.4066   29.1332 H   0  0  0  0  0  0  0  0  0  0  0  0
   22.0206    7.9748   30.2338 H   0  0  0  0  0  0  0  0  0  0  0  0
   22.4228   10.9185   30.9201 H   0  0  0  0  0  0  0  0  0  0  0  0
   20.9344    8.6149   32.3675 H   0  0  0  0  0  0  0  0  0  0  0  0
   29.4342    3.2723   31.2200 H   0  0  0  0  0  0  0  0  0  0  0  0
   24.5115    5.3488   30.4092 H   0  0  0  0  0  0  0  0  0  0  0  0
   24.1821    6.2356   31.9372 H   0  0  0  0  0  0  0  0  0  0  0  0
   30.0935    9.0798   28.5004 H   0  0  0  0  0  0  0  0  0  0  0  0
   29.4763    7.7045   27.5113 H   0  0  0  0  0  0  0  0  0  0  0  0
   21.6909   10.5178   33.8979 H   0  0  0  0  0  0  0  0  0  0  0  0
   19.9357   10.2373   33.8310 H   0  0  0  0  0  0  0  0  0  0  0  0
   18.8363    9.4774   31.5713 H   0  0  0  0  0  0  0  0  0  0  0  0
   19.8597    9.2314   30.1383 H   0  0  0  0  0  0  0  0  0  0  0  0
   31.4194    4.7954   31.4545 H   0  0  0  0  0  0  0  0  0  0  0  0
   31.5294    4.9045   29.6514 H   0  0  0  0  0  0  0  0  0  0  0  0
   31.7657    3.3249   30.4810 H   0  0  0  0  0  0  0  0  0  0  0  0
   29.9687    2.3477   28.9753 H   0  0  0  0  0  0  0  0  0  0  0  0
   29.6108    3.9386   28.2058 H   0  0  0  0  0  0  0  0  0  0  0  0
   28.2959    2.9990   29.0196 H   0  0  0  0  0  0  0  0  0  0  0  0
   24.7949    1.6293   33.2736 H   0  0  0  0  0  0  0  0  0  0  0  0
   25.3377    0.7599   31.8152 H   0  0  0  0  0  0  0  0  0  0  0  0
   23.7529    0.5330   29.8152 H   0  0  0  0  0  0  0  0  0  0  0  0
   22.4074    1.8747   33.6930 H   0  0  0  0  0  0  0  0  0  0  0  0
   24.8616    4.1921   33.2661 H   0  0  0  0  0  0  0  0  0  0  0  0
   23.4038    4.0019   32.2442 H   0  0  0  0  0  0  0  0  0  0  0  0
   26.2354    2.9477   31.6328 H   0  0  0  0  0  0  0  0  0  0  0  0
   24.8903    2.8951   30.4467 H   0  0  0  0  0  0  0  0  0  0  0  0
   31.7655    6.6502   27.5528 H   0  0  0  0  0  0  0  0  0  0  0  0
   31.7726    8.2958   26.8066 H   0  0  0  0  0  0  0  0  0  0  0  0
   32.3844    8.0747   28.4902 H   0  0  0  0  0  0  0  0  0  0  0  0
   20.3860   12.6485   33.7646 H   0  0  0  0  0  0  0  0  0  0  0  0
   21.4868   12.4735   32.3664 H   0  0  0  0  0  0  0  0  0  0  0  0
   20.3806   11.6757   30.0414 H   0  0  0  0  0  0  0  0  0  0  0  0
   18.6122   11.3894   30.0438 H   0  0  0  0  0  0  0  0  0  0  0  0
   21.4192   -0.0025   29.2040 H   0  0  0  0  0  0  0  0  0  0  0  0
   20.0839    1.3266   33.0640 H   0  0  0  0  0  0  0  0  0  0  0  0
   19.5838    0.3824   30.8268 H   0  0  0  0  0  0  0  0  0  0  0  0
   18.4452   11.9167   32.4432 H   0  0  0  0  0  0  0  0  0  0  0  0
   19.2796   13.2592   31.5865 H   0  0  0  0  0  0  0  0  0  0  0  0
  2  1  1  0
  3  1  1  0
  4  5  1  0
  5  2  1  0
  6  1  1  0
  4  7  1  1
  8  7  1  0
  9  3  1  0
  3 10  1  0
 11  6  1  0
 12  8  1  0
 13 12  1  0
 14  4  2  0
 15  2  2  0
 16 10  1  0
 17 10  2  0
 18 13  2  0
 11 19  1  0
  8 20  1  0
 22 28  1  0
 23 13  1  0
 24 19  1  0
 25 19  1  0
 26 20  1  0
 27 20  1  0
 28 32  1  0
 29 22  2  0
 30 22  1  0
 31 21  1  0
 32 31  1  0
 33 23  1  0
 34 24  1  0
 35 25  1  0
 36 29  1  0
 37 30  2  0
 38 36  2  0
 39 34  1  0
  9 11  1  0
 39 35  1  0
 38 37  1  0
  4 21  1  0
  3 40  1  6
  5 41  1  0
  5 42  1  0
  6 43  1  0
  6 44  1  0
  8 45  1  6
  9 46  1  0
  9 47  1  0
 11 48  1  1
 19 49  1  0
 20 50  1  0
 21 51  1  0
 21 52  1  0
 23 53  1  0
 23 54  1  0
 24 55  1  0
 24 56  1  0
 25 57  1  0
 25 58  1  0
 26 59  1  0
 26 60  1  0
 26 61  1  0
 27 62  1  0
 27 63  1  0
 27 64  1  0
 28 65  1  0
 28 66  1  0
 29 67  1  0
 30 68  1  0
 31 69  1  0
 31 70  1  0
 32 71  1  0
 32 72  1  0
 33 73  1  0
 33 74  1  0
 33 75  1  0
 34 76  1  0
 34 77  1  0
 35 78  1  0
 35 79  1  0
 36 80  1  0
 37 81  1  0
 38 82  1  0
 39 83  1  0
 39 84  1  0
M  CHG  1  16  -1
M  END
> <Uni-Dock RESULT> 
ENERGY=   -4.401  LOWER_BOUND=    0.000  UPPER_BOUND=    0.000
INTER + INTRA:          -4.401
INTER:                  -4.401
INTRA:                   0.000
UNBOUND:                 0.000

$$$$

     RDKit          3D

 84 86  0  0  0  0  0  0  0  0999 V2000
   30.9677    7.1026   29.2302 N   0  0  0  0  0  0  0  0  0  0  0  0
   31.5081    8.0010   28.2412 C   0  0  0  0  0  0  0  0  0  0  0  0
   30.8050    7.4066   30.6467 C   0  0  1  0  0  0  0  0  0  0  0  0
   30.3545   10.4695   27.9839 P   0  0  1  0  0  0  0  0  0  0  0  0
   31.7646    9.4506   28.5369 C   0  0  0  0  0  0  0  0  0  0  0  0
   30.4305    5.7978   28.8772 C   0  0  0  0  0  0  0  0  0  0  0  0
   30.5645   12.1024   28.4417 O   0  0  0  0  0  0  0  0  0  0  0  0
   31.7819   12.6092   27.9335 C   0  0  2  0  0  0  0  0  0  0  0  0
   29.8720    6.3197   31.1795 C   0  0  0  0  0  0  0  0  0  0  0  0
   32.1359    7.3732   31.3467 C   0  0  0  0  0  0  0  0  0  0  0  0
   30.0099    5.1431   30.2010 C   0  0  1  0  0  0  0  0  0  0  0  0
   32.8148   12.3737   28.8949 O   0  0  0  0  0  0  0  0  0  0  0  0
   34.1518   12.1177   28.5672 C   0  0  0  0  0  0  0  0  0  0  0  0
   30.2293   10.3683   26.4794 O   0  0  0  0  0  0  0  0  0  0  0  0
   31.7241    7.5785   27.0722 O   0  0  0  0  0  0  0  0  0  0  0  0
   32.4566    8.3592   32.2721 O   0  0  0  0  0  0  0  0  0  0  0  0
   32.9466    6.4333   31.1332 O   0  0  0  0  0  0  0  0  0  0  0  0
   34.5045   11.9475   27.3675 O   0  0  0  0  0  0  0  0  0  0  0  0
   28.7151    4.2826   30.0755 C   0  0  0  0  0  0  0  0  0  0  0  0
   31.6098   14.1270   27.6931 C   0  0  0  0  0  0  0  0  0  0  0  0
   28.8118    9.8603   28.7541 C   0  0  0  0  0  0  0  0  0  0  0  0
   24.8823   12.0315   28.8196 C   0  0  0  0  0  0  0  0  0  0  0  0
   35.1724   12.0490   29.6581 C   0  0  0  0  0  0  0  0  0  0  0  0
   28.8747    3.1168   29.0678 C   0  0  0  0  0  0  0  0  0  0  0  0
   28.2247    3.7276   31.4356 C   0  0  0  0  0  0  0  0  0  0  0  0
   32.8401   14.7453   27.0158 C   0  0  0  0  0  0  0  0  0  0  0  0
   31.2824   14.8780   28.9940 C   0  0  0  0  0  0  0  0  0  0  0  0
   26.0149   12.4872   27.9354 C   0  0  0  0  0  0  0  0  0  0  0  0
   24.6690   12.6478   30.0651 C   0  0  0  0  0  0  0  0  0  0  0  0
   24.0443   10.9755   28.4210 C   0  0  0  0  0  0  0  0  0  0  0  0
   27.5479   10.4553   28.1164 C   0  0  0  0  0  0  0  0  0  0  0  0
   27.3722   11.9534   28.4161 C   0  0  0  0  0  0  0  0  0  0  0  0
   36.1399   13.2253   29.5662 C   0  0  0  0  0  0  0  0  0  0  0  0
   29.7747    1.9944   29.6053 C   0  0  0  0  0  0  0  0  0  0  0  0
   29.1337    2.6148   31.9733 C   0  0  0  0  0  0  0  0  0  0  0  0
   23.6273   12.2188   30.8942 C   0  0  0  0  0  0  0  0  0  0  0  0
   23.0035   10.5507   29.2530 C   0  0  0  0  0  0  0  0  0  0  0  0
   22.7946   11.1722   30.4881 C   0  0  0  0  0  0  0  0  0  0  0  0
   29.2686    1.4770   30.9562 C   0  0  0  0  0  0  0  0  0  0  0  0
   30.3276    8.3995   30.7835 H   0  0  0  0  0  0  0  0  0  0  0  0
   32.6758    9.7674   27.9896 H   0  0  0  0  0  0  0  0  0  0  0  0
   31.9459    9.6258   29.6156 H   0  0  0  0  0  0  0  0  0  0  0  0
   29.5621    5.9403   28.1964 H   0  0  0  0  0  0  0  0  0  0  0  0
   31.2088    5.1855   28.3697 H   0  0  0  0  0  0  0  0  0  0  0  0
   32.0437   12.1494   26.9512 H   0  0  0  0  0  0  0  0  0  0  0  0
   30.1192    6.0156   32.2214 H   0  0  0  0  0  0  0  0  0  0  0  0
   28.8296    6.7102   31.1616 H   0  0  0  0  0  0  0  0  0  0  0  0
   30.8544    4.5126   30.5544 H   0  0  0  0  0  0  0  0  0  0  0  0
   27.9090    4.9449   29.6857 H   0  0  0  0  0  0  0  0  0  0  0  0
   30.7492   14.2630   26.9999 H   0  0  0  0  0  0  0  0  0  0  0  0
   28.8329   10.0849   29.8415 H   0  0  0  0  0  0  0  0  0  0  0  0
   28.7713    8.7578   28.6312 H   0  0  0  0  0  0  0  0  0  0  0  0
   35.7349   11.0933   29.5796 H   0  0  0  0  0  0  0  0  0  0  0  0
   34.6628   12.0749   30.6463 H   0  0  0  0  0  0  0  0  0  0  0  0
   29.2800    3.4807   28.1008 H   0  0  0  0  0  0  0  0  0  0  0  0
   27.8707    2.6936   28.8480 H   0  0  0  0  0  0  0  0  0  0  0  0
   27.1977    3.3187   31.3073 H   0  0  0  0  0  0  0  0  0  0  0  0
   28.1444    4.5362   32.1921 H   0  0  0  0  0  0  0  0  0  0  0  0
   33.0884   14.1946   26.0839 H   0  0  0  0  0  0  0  0  0  0  0  0
   33.7184   14.7268   27.6949 H   0  0  0  0  0  0  0  0  0  0  0  0
   32.6329   15.8027   26.7445 H   0  0  0  0  0  0  0  0  0  0  0  0
   31.1226   15.9565   28.7809 H   0  0  0  0  0  0  0  0  0  0  0  0
   32.1132   14.7830   29.7257 H   0  0  0  0  0  0  0  0  0  0  0  0
   30.3506   14.4801   29.4508 H   0  0  0  0  0  0  0  0  0  0  0  0
   25.8406   12.1819   26.8804 H   0  0  0  0  0  0  0  0  0  0  0  0
   26.0462   13.5985   27.9425 H   0  0  0  0  0  0  0  0  0  0  0  0
   25.3081   13.4603   30.3919 H   0  0  0  0  0  0  0  0  0  0  0  0
   24.1969   10.4822   27.4687 H   0  0  0  0  0  0  0  0  0  0  0  0
   27.5638   10.2887   27.0184 H   0  0  0  0  0  0  0  0  0  0  0  0
   26.6788    9.8979   28.5249 H   0  0  0  0  0  0  0  0  0  0  0  0
   28.1601   12.5244   27.8843 H   0  0  0  0  0  0  0  0  0  0  0  0
   27.4887   12.1452   29.5044 H   0  0  0  0  0  0  0  0  0  0  0  0
   35.5855   14.1872   29.6262 H   0  0  0  0  0  0  0  0  0  0  0  0
   36.8644   13.1772   30.4068 H   0  0  0  0  0  0  0  0  0  0  0  0
   36.7047   13.1853   28.6091 H   0  0  0  0  0  0  0  0  0  0  0  0
   29.7825    1.1557   28.8767 H   0  0  0  0  0  0  0  0  0  0  0  0
   30.8211    2.3539   29.7030 H   0  0  0  0  0  0  0  0  0  0  0  0
   30.1360    3.0236   32.2225 H   0  0  0  0  0  0  0  0  0  0  0  0
   28.6951    2.2120   32.9112 H   0  0  0  0  0  0  0  0  0  0  0  0
   23.4674   12.6959   31.8527 H   0  0  0  0  0  0  0  0  0  0  0  0
   22.3600    9.7388   28.9410 H   0  0  0  0  0  0  0  0  0  0  0  0
   21.9853   10.8440   31.1284 H   0  0  0  0  0  0  0  0  0  0  0  0
   28.2813    0.9845   30.8172 H   0  0  0  0  0  0  0  0  0  0  0  0
   29.9780    0.7174   31.3487 H   0  0  0  0  0  0  0  0  0  0  0  0
  2  1  1  0
  3  1  1  0
  4  5  1  0
  5  2  1  0
  6  1  1  0
  4  7  1  1
  8  7  1  0
  9  3  1  0
  3 10  1  0
 11  6  1  0
 12  8  1  0
 13 12  1  0
 14  4  2  0
 15  2  2  0
 16 10  1  0
 17 10  2  0
 18 13  2  0
 11 19  1  0
  8 20  1  0
 22 28  1  0
 23 13  1  0
 24 19  1  0
 25 19  1  0
 26 20  1  0
 27 20  1  0
 28 32  1  0
 29 22  2  0
 30 22  1  0
 31 21  1  0
 32 31  1  0
 33 23  1  0
 34 24  1  0
 35 25  1  0
 36 29  1  0
 37 30  2  0
 38 36  2  0
 39 34  1  0
  9 11  1  0
 39 35  1  0
 38 37  1  0
  4 21  1  0
  3 40  1  6
  5 41  1  0
  5 42  1  0
  6 43  1  0
  6 44  1  0
  8 45  1  6
  9 46  1  0
  9 47  1  0
 11 48  1  1
 19 49  1  0
 20 50  1  0
 21 51  1  0
 21 52  1  0
 23 53  1  0
 23 54  1  0
 24 55  1  0
 24 56  1  0
 25 57  1  0
 25 58  1  0
 26 59  1  0
 26 60  1  0
 26 61  1  0
 27 62  1  0
 27 63  1  0
 27 64  1  0
 28 65  1  0
 28 66  1  0
 29 67  1  0
 30 68  1  0
 31 69  1  0
 31 70  1  0
 32 71  1  0
 32 72  1  0
 33 73  1  0
 33 74  1  0
 33 75  1  0
 34 76  1  0
 34 77  1  0
 35 78  1  0
 35 79  1  0
 36 80  1  0
 37 81  1  0
 38 82  1  0
 39 83  1  0
 39 84  1  0
M  CHG  1  16  -1
M  END
> <Uni-Dock RESULT> 
ENERGY=   -3.977  LOWER_BOUND=    4.450  UPPER_BOUND=    9.579
INTER + INTRA:          -3.977
INTER:                  -3.977
INTRA:                   0.000
UNBOUND:                 0.000

$$$$

     RDKit          3D

 84 86  0  0  0  0  0  0  0  0999 V2000
   26.9905   12.5298   27.9782 N   0  0  0  0  0  0  0  0  0  0  0  0
   26.7145   13.8841   27.5696 C   0  0  0  0  0  0  0  0  0  0  0  0
   26.1527   11.3731   27.6857 C   0  0  1  0  0  0  0  0  0  0  0  0
   26.3002   14.3615   24.9067 P   0  0  1  0  0  0  0  0  0  0  0  0
   25.6214   14.2153   26.5950 C   0  0  0  0  0  0  0  0  0  0  0  0
   28.2202   12.1652   28.6642 C   0  0  0  0  0  0  0  0  0  0  0  0
   25.0509   14.5949   23.7644 O   0  0  0  0  0  0  0  0  0  0  0  0
   24.2786   15.7308   24.0968 C   0  0  2  0  0  0  0  0  0  0  0  0
   27.0336   10.1609   27.9862 C   0  0  0  0  0  0  0  0  0  0  0  0
   24.9243   11.3822   28.5536 C   0  0  0  0  0  0  0  0  0  0  0  0
   28.1054   10.6639   28.9655 C   0  0  1  0  0  0  0  0  0  0  0  0
   23.2046   15.3230   24.9494 O   0  0  0  0  0  0  0  0  0  0  0  0
   22.6574   16.1200   25.9622 C   0  0  0  0  0  0  0  0  0  0  0  0
   27.2656   15.5256   24.8594 O   0  0  0  0  0  0  0  0  0  0  0  0
   27.4437   14.8210   27.9964 O   0  0  0  0  0  0  0  0  0  0  0  0
   23.6861   11.0706   28.0048 O   0  0  0  0  0  0  0  0  0  0  0  0
   25.0143   11.6282   29.7856 O   0  0  0  0  0  0  0  0  0  0  0  0
   23.1823   17.2247   26.2732 O   0  0  0  0  0  0  0  0  0  0  0  0
   29.4643    9.9081   28.8432 C   0  0  0  0  0  0  0  0  0  0  0  0
   23.7224   16.3361   22.7870 C   0  0  0  0  0  0  0  0  0  0  0  0
   27.1917   12.8274   24.4638 C   0  0  0  0  0  0  0  0  0  0  0  0
   28.5480   11.6841   20.3392 C   0  0  0  0  0  0  0  0  0  0  0  0
   21.4320   15.6518   26.6803 C   0  0  0  0  0  0  0  0  0  0  0  0
   30.5327   10.4487   29.8264 C   0  0  0  0  0  0  0  0  0  0  0  0
   29.3220    8.3767   29.0243 C   0  0  0  0  0  0  0  0  0  0  0  0
   22.9763   17.6542   23.0337 C   0  0  0  0  0  0  0  0  0  0  0  0
   22.8190   15.3434   22.0373 C   0  0  0  0  0  0  0  0  0  0  0  0
   28.0650   13.0785   20.6470 C   0  0  0  0  0  0  0  0  0  0  0  0
   27.6726   10.7463   19.7639 C   0  0  0  0  0  0  0  0  0  0  0  0
   29.8659   11.3004   20.6427 C   0  0  0  0  0  0  0  0  0  0  0  0
   28.0465   12.9754   23.1966 C   0  0  0  0  0  0  0  0  0  0  0  0
   27.2046   13.1230   21.9182 C   0  0  0  0  0  0  0  0  0  0  0  0
   20.2380   16.5409   26.3452 C   0  0  0  0  0  0  0  0  0  0  0  0
   30.2463   10.0514   31.2820 C   0  0  0  0  0  0  0  0  0  0  0  0
   29.0247    7.9864   30.4779 C   0  0  0  0  0  0  0  0  0  0  0  0
   28.1132    9.4475   19.4890 C   0  0  0  0  0  0  0  0  0  0  0  0
   30.3021   10.0011   20.3652 C   0  0  0  0  0  0  0  0  0  0  0  0
   29.4269    9.0755   19.7881 C   0  0  0  0  0  0  0  0  0  0  0  0
   30.0994    8.5325   31.4235 C   0  0  0  0  0  0  0  0  0  0  0  0
   25.8619   11.3590   26.6144 H   0  0  0  0  0  0  0  0  0  0  0  0
   25.1684   15.1846   26.8874 H   0  0  0  0  0  0  0  0  0  0  0  0
   24.8159   13.4548   26.6043 H   0  0  0  0  0  0  0  0  0  0  0  0
   29.0819   12.3842   27.9953 H   0  0  0  0  0  0  0  0  0  0  0  0
   28.3209   12.7455   29.6083 H   0  0  0  0  0  0  0  0  0  0  0  0
   24.8946   16.5212   24.5873 H   0  0  0  0  0  0  0  0  0  0  0  0
   26.4586    9.3084   28.4125 H   0  0  0  0  0  0  0  0  0  0  0  0
   27.5106    9.8280   27.0370 H   0  0  0  0  0  0  0  0  0  0  0  0
   27.6973   10.5514   29.9934 H   0  0  0  0  0  0  0  0  0  0  0  0
   29.8511   10.0784   27.8128 H   0  0  0  0  0  0  0  0  0  0  0  0
   24.5893   16.5669   22.1276 H   0  0  0  0  0  0  0  0  0  0  0  0
   26.4589   12.0028   24.3361 H   0  0  0  0  0  0  0  0  0  0  0  0
   27.8670   12.5606   25.3036 H   0  0  0  0  0  0  0  0  0  0  0  0
   21.6160   15.6679   27.7765 H   0  0  0  0  0  0  0  0  0  0  0  0
   21.2013   14.6063   26.3794 H   0  0  0  0  0  0  0  0  0  0  0  0
   30.6135   11.5534   29.7566 H   0  0  0  0  0  0  0  0  0  0  0  0
   31.5254   10.0424   29.5352 H   0  0  0  0  0  0  0  0  0  0  0  0
   30.2715    7.8882   28.7107 H   0  0  0  0  0  0  0  0  0  0  0  0
   28.5296    7.9676   28.3630 H   0  0  0  0  0  0  0  0  0  0  0  0
   23.6212   18.3674   23.5893 H   0  0  0  0  0  0  0  0  0  0  0  0
   22.0438   17.4805   23.6110 H   0  0  0  0  0  0  0  0  0  0  0  0
   22.7026   18.1227   22.0641 H   0  0  0  0  0  0  0  0  0  0  0  0
   22.4714   15.7917   21.0821 H   0  0  0  0  0  0  0  0  0  0  0  0
   21.9285   15.0801   22.6473 H   0  0  0  0  0  0  0  0  0  0  0  0
   23.3780   14.4143   21.7931 H   0  0  0  0  0  0  0  0  0  0  0  0
   28.9215   13.7810   20.7453 H   0  0  0  0  0  0  0  0  0  0  0  0
   27.4551   13.4404   19.7909 H   0  0  0  0  0  0  0  0  0  0  0  0
   26.6511   11.0222   19.5275 H   0  0  0  0  0  0  0  0  0  0  0  0
   30.5536   12.0057   21.0935 H   0  0  0  0  0  0  0  0  0  0  0  0
   28.7307   13.8441   23.3011 H   0  0  0  0  0  0  0  0  0  0  0  0
   28.6757   12.0643   23.1151 H   0  0  0  0  0  0  0  0  0  0  0  0
   26.6887   14.1044   21.9350 H   0  0  0  0  0  0  0  0  0  0  0  0
   26.4270   12.3305   21.8749 H   0  0  0  0  0  0  0  0  0  0  0  0
   20.0557   16.5460   25.2485 H   0  0  0  0  0  0  0  0  0  0  0  0
   19.3312   16.1537   26.8566 H   0  0  0  0  0  0  0  0  0  0  0  0
   20.4234   17.5811   26.6921 H   0  0  0  0  0  0  0  0  0  0  0  0
   31.0860   10.3949   31.9234 H   0  0  0  0  0  0  0  0  0  0  0  0
   29.3272   10.5584   31.6454 H   0  0  0  0  0  0  0  0  0  0  0  0
   28.0245    8.3629   30.7804 H   0  0  0  0  0  0  0  0  0  0  0  0
   29.0020    6.8785   30.5568 H   0  0  0  0  0  0  0  0  0  0  0  0
   27.4353    8.7287   19.0467 H   0  0  0  0  0  0  0  0  0  0  0  0
   31.3180    9.7110   20.5989 H   0  0  0  0  0  0  0  0  0  0  0  0
   29.7686    8.0714   19.5704 H   0  0  0  0  0  0  0  0  0  0  0  0
   31.0732    8.0444   31.1999 H   0  0  0  0  0  0  0  0  0  0  0  0
   29.8249    8.2852   32.4713 H   0  0  0  0  0  0  0  0  0  0  0  0
  2  1  1  0
  3  1  1  0
  4  5  1  0
  5  2  1  0
  6  1  1  0
  4  7  1  1
  8  7  1  0
  9  3  1  0
  3 10  1  0
 11  6  1  0
 12  8  1  0
 13 12  1  0
 14  4  2  0
 15  2  2  0
 16 10  1  0
 17 10  2  0
 18 13  2  0
 11 19  1  0
  8 20  1  0
 22 28  1  0
 23 13  1  0
 24 19  1  0
 25 19  1  0
 26 20  1  0
 27 20  1  0
 28 32  1  0
 29 22  2  0
 30 22  1  0
 31 21  1  0
 32 31  1  0
 33 23  1  0
 34 24  1  0
 35 25  1  0
 36 29  1  0
 37 30  2  0
 38 36  2  0
 39 34  1  0
  9 11  1  0
 39 35  1  0
 38 37  1  0
  4 21  1  0
  3 40  1  6
  5 41  1  0
  5 42  1  0
  6 43  1  0
  6 44  1  0
  8 45  1  6
  9 46  1  0
  9 47  1  0
 11 48  1  1
 19 49  1  0
 20 50  1  0
 21 51  1  0
 21 52  1  0
 23 53  1  0
 23 54  1  0
 24 55  1  0
 24 56  1  0
 25 57  1  0
 25 58  1  0
 26 59  1  0
 26 60  1  0
 26 61  1  0
 27 62  1  0
 27 63  1  0
 27 64  1  0
 28 65  1  0
 28 66  1  0
 29 67  1  0
 30 68  1  0
 31 69  1  0
 31 70  1  0
 32 71  1  0
 32 72  1  0
 33 73  1  0
 33 74  1  0
 33 75  1  0
 34 76  1  0
 34 77  1  0
 35 78  1  0
 35 79  1  0
 36 80  1  0
 37 81  1  0
 38 82  1  0
 39 83  1  0
 39 84  1  0
M  CHG  1  16  -1
M  END
> <Uni-Dock RESULT> 
ENERGY=   -3.874  LOWER_BOUND=    6.521  UPPER_BOUND=   11.905
INTER + INTRA:          -3.874
INTER:                  -3.874
INTRA:                   0.000
UNBOUND:                 0.000

$$$$

     RDKit          3D

 84 86  0  0  0  0  0  0  0  0999 V2000
   29.0680    9.4412   30.0211 N   0  0  0  0  0  0  0  0  0  0  0  0
   30.0699    8.4094   30.1143 C   0  0  0  0  0  0  0  0  0  0  0  0
   29.1960   10.7920   30.5547 C   0  0  1  0  0  0  0  0  0  0  0  0
   32.5784    8.9684   29.1730 P   0  0  1  0  0  0  0  0  0  0  0  0
   31.4644    8.6937   30.5929 C   0  0  0  0  0  0  0  0  0  0  0  0
   27.8311    9.2523   29.2795 C   0  0  0  0  0  0  0  0  0  0  0  0
   34.1355    9.4351   29.7000 O   0  0  0  0  0  0  0  0  0  0  0  0
   34.6724    8.4702   30.5819 C   0  0  2  0  0  0  0  0  0  0  0  0
   28.0737   11.5877   29.8892 C   0  0  0  0  0  0  0  0  0  0  0  0
   29.0430   10.7815   32.0510 C   0  0  0  0  0  0  0  0  0  0  0  0
   27.0260   10.5466   29.4660 C   0  0  1  0  0  0  0  0  0  0  0  0
   34.2934    8.8085   31.9193 O   0  0  0  0  0  0  0  0  0  0  0  0
   34.0483    7.8703   32.9293 C   0  0  0  0  0  0  0  0  0  0  0  0
   32.6695    7.6951   28.3606 O   0  0  0  0  0  0  0  0  0  0  0  0
   29.7921    7.2395   29.7324 O   0  0  0  0  0  0  0  0  0  0  0  0
   29.8972   11.5427   32.8398 O   0  0  0  0  0  0  0  0  0  0  0  0
   28.1179   10.1214   32.5940 O   0  0  0  0  0  0  0  0  0  0  0  0
   34.0213    6.6347   32.6742 O   0  0  0  0  0  0  0  0  0  0  0  0
   26.2195   10.9557   28.1952 C   0  0  0  0  0  0  0  0  0  0  0  0
   36.2120    8.4906   30.4401 C   0  0  0  0  0  0  0  0  0  0  0  0
   31.9149   10.3053   28.1163 C   0  0  0  0  0  0  0  0  0  0  0  0
   34.1549   12.4155   24.8470 C   0  0  0  0  0  0  0  0  0  0  0  0
   33.8188    8.3448   34.3289 C   0  0  0  0  0  0  0  0  0  0  0  0
   25.1856    9.8797   27.7785 C   0  0  0  0  0  0  0  0  0  0  0  0
   25.5105   12.3243   28.3447 C   0  0  0  0  0  0  0  0  0  0  0  0
   36.8805    7.3822   31.2644 C   0  0  0  0  0  0  0  0  0  0  0  0
   36.8018    9.8612   30.8106 C   0  0  0  0  0  0  0  0  0  0  0  0
   34.6904   11.1548   25.4766 C   0  0  0  0  0  0  0  0  0  0  0  0
   34.6153   13.6707   25.2820 C   0  0  0  0  0  0  0  0  0  0  0  0
   33.1777   12.3518   23.8383 C   0  0  0  0  0  0  0  0  0  0  0  0
   32.6154   10.3950   26.7527 C   0  0  0  0  0  0  0  0  0  0  0  0
   34.0680   10.8896   26.8551 C   0  0  0  0  0  0  0  0  0  0  0  0
   34.9736    7.9290   35.2354 C   0  0  0  0  0  0  0  0  0  0  0  0
   23.9834    9.8196   28.7323 C   0  0  0  0  0  0  0  0  0  0  0  0
   24.3175   12.2611   29.3072 C   0  0  0  0  0  0  0  0  0  0  0  0
   34.1111   14.8431   24.7094 C   0  0  0  0  0  0  0  0  0  0  0  0
   32.6774   13.5267   23.2683 C   0  0  0  0  0  0  0  0  0  0  0  0
   33.1441   14.7713   23.7028 C   0  0  0  0  0  0  0  0  0  0  0  0
   23.3131   11.1912   28.8666 C   0  0  0  0  0  0  0  0  0  0  0  0
   30.1751   11.2340   30.2751 H   0  0  0  0  0  0  0  0  0  0  0  0
   31.8252    7.8186   31.1711 H   0  0  0  0  0  0  0  0  0  0  0  0
   31.4987    9.5740   31.2646 H   0  0  0  0  0  0  0  0  0  0  0  0
   28.0786    9.0743   28.2095 H   0  0  0  0  0  0  0  0  0  0  0  0
   27.2686    8.3818   29.6845 H   0  0  0  0  0  0  0  0  0  0  0  0
   34.3331    7.4391   30.3237 H   0  0  0  0  0  0  0  0  0  0  0  0
   27.6356   12.3572   30.5638 H   0  0  0  0  0  0  0  0  0  0  0  0
   28.4884   12.0981   28.9908 H   0  0  0  0  0  0  0  0  0  0  0  0
   26.3359   10.3994   30.3250 H   0  0  0  0  0  0  0  0  0  0  0  0
   26.9447   11.0560   27.3559 H   0  0  0  0  0  0  0  0  0  0  0  0
   36.4545    8.2974   29.3707 H   0  0  0  0  0  0  0  0  0  0  0  0
   32.0008   11.2730   28.6543 H   0  0  0  0  0  0  0  0  0  0  0  0
   30.8377   10.1064   27.9359 H   0  0  0  0  0  0  0  0  0  0  0  0
   32.8672    7.9178   34.7135 H   0  0  0  0  0  0  0  0  0  0  0  0
   33.7329    9.4536   34.3363 H   0  0  0  0  0  0  0  0  0  0  0  0
   25.6580    8.8771   27.7199 H   0  0  0  0  0  0  0  0  0  0  0  0
   24.8177   10.1137   26.7562 H   0  0  0  0  0  0  0  0  0  0  0  0
   25.1458   12.6509   27.3453 H   0  0  0  0  0  0  0  0  0  0  0  0
   26.2196   13.1070   28.6871 H   0  0  0  0  0  0  0  0  0  0  0  0
   36.4450    6.3927   31.0102 H   0  0  0  0  0  0  0  0  0  0  0  0
   36.7558    7.5664   32.3522 H   0  0  0  0  0  0  0  0  0  0  0  0
   37.9682    7.3461   31.0405 H   0  0  0  0  0  0  0  0  0  0  0  0
   37.9021    9.8561   30.6571 H   0  0  0  0  0  0  0  0  0  0  0  0
   36.5959   10.1061   31.8746 H   0  0  0  0  0  0  0  0  0  0  0  0
   36.3725   10.6582   30.1659 H   0  0  0  0  0  0  0  0  0  0  0  0
   34.5240   10.2791   24.8116 H   0  0  0  0  0  0  0  0  0  0  0  0
   35.7910   11.2571   25.5962 H   0  0  0  0  0  0  0  0  0  0  0  0
   35.3648   13.7400   26.0623 H   0  0  0  0  0  0  0  0  0  0  0  0
   32.8042   11.3948   23.4948 H   0  0  0  0  0  0  0  0  0  0  0  0
   32.5874    9.4065   26.2471 H   0  0  0  0  0  0  0  0  0  0  0  0
   32.0323   11.1045   26.1286 H   0  0  0  0  0  0  0  0  0  0  0  0
   34.6819   10.1111   27.3517 H   0  0  0  0  0  0  0  0  0  0  0  0
   34.1190   11.8103   27.4752 H   0  0  0  0  0  0  0  0  0  0  0  0
   35.9335    8.3367   34.8498 H   0  0  0  0  0  0  0  0  0  0  0  0
   34.8031    8.3241   36.2594 H   0  0  0  0  0  0  0  0  0  0  0  0
   35.0402    6.8204   35.2899 H   0  0  0  0  0  0  0  0  0  0  0  0
   23.2426    9.0923   28.3362 H   0  0  0  0  0  0  0  0  0  0  0  0
   24.3024    9.4521   29.7307 H   0  0  0  0  0  0  0  0  0  0  0  0
   24.6674   12.0522   30.3404 H   0  0  0  0  0  0  0  0  0  0  0  0
   23.8110   13.2498   29.3199 H   0  0  0  0  0  0  0  0  0  0  0  0
   34.4681   15.8073   25.0482 H   0  0  0  0  0  0  0  0  0  0  0  0
   31.9267   13.4725   22.4910 H   0  0  0  0  0  0  0  0  0  0  0  0
   32.7579   15.6792   23.2567 H   0  0  0  0  0  0  0  0  0  0  0  0
   22.8659   11.4814   27.8907 H   0  0  0  0  0  0  0  0  0  0  0  0
   22.4934   11.1288   29.6140 H   0  0  0  0  0  0  0  0  0  0  0  0
  2  1  1  0
  3  1  1  0
  4  5  1  0
  5  2  1  0
  6  1  1  0
  4  7  1  1
  8  7  1  0
  9  3  1  0
  3 10  1  0
 11  6  1  0
 12  8  1  0
 13 12  1  0
 14  4  2  0
 15  2  2  0
 16 10  1  0
 17 10  2  0
 18 13  2  0
 11 19  1  0
  8 20  1  0
 22 28  1  0
 23 13  1  0
 24 19  1  0
 25 19  1  0
 26 20  1  0
 27 20  1  0
 28 32  1  0
 29 22  2  0
 30 22  1  0
 31 21  1  0
 32 31  1  0
 33 23  1  0
 34 24  1  0
 35 25  1  0
 36 29  1  0
 37 30  2  0
 38 36  2  0
 39 34  1  0
  9 11  1  0
 39 35  1  0
 38 37  1  0
  4 21  1  0
  3 40  1  6
  5 41  1  0
  5 42  1  0
  6 43  1  0
  6 44  1  0
  8 45  1  6
  9 46  1  0
  9 47  1  0
 11 48  1  1
 19 49  1  0
 20 50  1  0
 21 51  1  0
 21 52  1  0
 23 53  1  0
 23 54  1  0
 24 55  1  0
 24 56  1  0
 25 57  1  0
 25 58  1  0
 26 59  1  0
 26 60  1  0
 26 61  1  0
 27 62  1  0
 27 63  1  0
 27 64  1  0
 28 65  1  0
 28 66  1  0
 29 67  1  0
 30 68  1  0
 31 69  1  0
 31 70  1  0
 32 71  1  0
 32 72  1  0
 33 73  1  0
 33 74  1  0
 33 75  1  0
 34 76  1  0
 34 77  1  0
 35 78  1  0
 35 79  1  0
 36 80  1  0
 37 81  1  0
 38 82  1  0
 39 83  1  0
 39 84  1  0
M  CHG  1  16  -1
M  END
> <Uni-Dock RESULT> 
ENERGY=   -3.825  LOWER_BOUND=    5.523  UPPER_BOUND=   10.026
INTER + INTRA:          -3.825
INTER:                  -3.825
INTRA:                   0.000
UNBOUND:                 0.000

$$$$

     RDKit          3D

 84 86  0  0  0  0  0  0  0  0999 V2000
   26.6375   10.5307   29.9102 N   0  0  0  0  0  0  0  0  0  0  0  0
   27.9446   11.1114   30.0867 C   0  0  0  0  0  0  0  0  0  0  0  0
   26.1954    9.7895   28.7351 C   0  0  1  0  0  0  0  0  0  0  0  0
   30.1225    9.4771   29.8099 P   0  0  1  0  0  0  0  0  0  0  0  0
   29.0793   10.8207   29.1473 C   0  0  0  0  0  0  0  0  0  0  0  0
   25.6342   10.5514   30.9632 C   0  0  0  0  0  0  0  0  0  0  0  0
   31.3333    9.0346   28.6882 O   0  0  0  0  0  0  0  0  0  0  0  0
   32.1190   10.1552   28.3360 C   0  0  2  0  0  0  0  0  0  0  0  0
   24.9164    9.0778   29.1749 C   0  0  0  0  0  0  0  0  0  0  0  0
   25.9298   10.7296   27.5913 C   0  0  0  0  0  0  0  0  0  0  0  0
   24.3844    9.8872   30.3676 C   0  0  1  0  0  0  0  0  0  0  0  0
   31.5263   10.7937   27.2013 O   0  0  0  0  0  0  0  0  0  0  0  0
   31.5709   12.1725   26.9614 C   0  0  0  0  0  0  0  0  0  0  0  0
   30.7608    9.9365   31.1026 O   0  0  0  0  0  0  0  0  0  0  0  0
   28.1669   11.8444   31.0893 O   0  0  0  0  0  0  0  0  0  0  0  0
   26.3588   10.4010   26.3110 O   0  0  0  0  0  0  0  0  0  0  0  0
   25.2826   11.7941   27.7764 O   0  0  0  0  0  0  0  0  0  0  0  0
   32.0382   12.9662   27.8241 O   0  0  0  0  0  0  0  0  0  0  0  0
   23.5954    9.0266   31.4018 C   0  0  0  0  0  0  0  0  0  0  0  0
   33.5411    9.6572   27.9883 C   0  0  0  0  0  0  0  0  0  0  0  0
   29.0937    8.0023   30.1425 C   0  0  0  0  0  0  0  0  0  0  0  0
   30.6342    3.8698   30.9842 C   0  0  0  0  0  0  0  0  0  0  0  0
   31.0586   12.7061   25.6617 C   0  0  0  0  0  0  0  0  0  0  0  0
   23.0887    9.8628   32.6036 C   0  0  0  0  0  0  0  0  0  0  0  0
   22.4088    8.2590   30.7685 C   0  0  0  0  0  0  0  0  0  0  0  0
   34.5075   10.8185   27.7193 C   0  0  0  0  0  0  0  0  0  0  0  0
   33.5307    8.6844   26.7979 C   0  0  0  0  0  0  0  0  0  0  0  0
   31.5529    5.0650   30.9897 C   0  0  0  0  0  0  0  0  0  0  0  0
   30.5430    3.0566   29.8410 C   0  0  0  0  0  0  0  0  0  0  0  0
   29.8455    3.5690   32.1083 C   0  0  0  0  0  0  0  0  0  0  0  0
   29.8218    6.9397   30.9785 C   0  0  0  0  0  0  0  0  0  0  0  0
   30.9622    6.2497   30.2115 C   0  0  0  0  0  0  0  0  0  0  0  0
   32.2022   13.2644   24.8198 C   0  0  0  0  0  0  0  0  0  0  0  0
   21.9226   10.7880   32.2258 C   0  0  0  0  0  0  0  0  0  0  0  0
   21.2517    9.1894   30.3826 C   0  0  0  0  0  0  0  0  0  0  0  0
   29.6818    1.9545   29.8274 C   0  0  0  0  0  0  0  0  0  0  0  0
   28.9866    2.4655   32.0903 C   0  0  0  0  0  0  0  0  0  0  0  0
   28.9053    1.6584   30.9512 C   0  0  0  0  0  0  0  0  0  0  0  0
   20.7720    9.9991   31.5917 C   0  0  0  0  0  0  0  0  0  0  0  0
   26.9528    9.0339   28.4390 H   0  0  0  0  0  0  0  0  0  0  0  0
   29.6948   11.7373   29.0416 H   0  0  0  0  0  0  0  0  0  0  0  0
   28.7180   10.5436   28.1373 H   0  0  0  0  0  0  0  0  0  0  0  0
   26.0219    9.9845   31.8385 H   0  0  0  0  0  0  0  0  0  0  0  0
   25.4128   11.5998   31.2633 H   0  0  0  0  0  0  0  0  0  0  0  0
   32.2212   10.8722   29.1846 H   0  0  0  0  0  0  0  0  0  0  0  0
   24.1622    9.0087   28.3591 H   0  0  0  0  0  0  0  0  0  0  0  0
   25.1813    8.0470   29.5015 H   0  0  0  0  0  0  0  0  0  0  0  0
   23.7311   10.6897   29.9615 H   0  0  0  0  0  0  0  0  0  0  0  0
   24.2971    8.2624   31.8067 H   0  0  0  0  0  0  0  0  0  0  0  0
   33.9298    9.1034   28.8725 H   0  0  0  0  0  0  0  0  0  0  0  0
   28.7583    7.5657   29.1781 H   0  0  0  0  0  0  0  0  0  0  0  0
   28.1931    8.3241   30.7062 H   0  0  0  0  0  0  0  0  0  0  0  0
   30.3119   13.5059   25.8580 H   0  0  0  0  0  0  0  0  0  0  0  0
   30.5570   11.8902   25.0965 H   0  0  0  0  0  0  0  0  0  0  0  0
   23.9103   10.4676   33.0408 H   0  0  0  0  0  0  0  0  0  0  0  0
   22.7488    9.1702   33.4037 H   0  0  0  0  0  0  0  0  0  0  0  0
   22.0347    7.5089   31.5005 H   0  0  0  0  0  0  0  0  0  0  0  0
   22.7345    7.6853   29.8755 H   0  0  0  0  0  0  0  0  0  0  0  0
   34.5050   11.5312   28.5709 H   0  0  0  0  0  0  0  0  0  0  0  0
   34.2290   11.3597   26.7905 H   0  0  0  0  0  0  0  0  0  0  0  0
   35.5420   10.4314   27.5989 H   0  0  0  0  0  0  0  0  0  0  0  0
   34.5589    8.3124   26.6014 H   0  0  0  0  0  0  0  0  0  0  0  0
   33.1563    9.1862   25.8799 H   0  0  0  0  0  0  0  0  0  0  0  0
   32.8874    7.8051   27.0177 H   0  0  0  0  0  0  0  0  0  0  0  0
   31.7901    5.3768   32.0305 H   0  0  0  0  0  0  0  0  0  0  0  0
   32.5171    4.7743   30.5186 H   0  0  0  0  0  0  0  0  0  0  0  0
   31.1397    3.2757   28.9627 H   0  0  0  0  0  0  0  0  0  0  0  0
   29.8952    4.1878   32.9961 H   0  0  0  0  0  0  0  0  0  0  0  0
   30.2157    7.3965   31.9111 H   0  0  0  0  0  0  0  0  0  0  0  0
   29.0686    6.1789   31.2731 H   0  0  0  0  0  0  0  0  0  0  0  0
   31.7810    6.9789   30.0459 H   0  0  0  0  0  0  0  0  0  0  0  0
   30.6055    5.9068   29.2165 H   0  0  0  0  0  0  0  0  0  0  0  0
   32.9640   12.4767   24.6320 H   0  0  0  0  0  0  0  0  0  0  0  0
   31.8068   13.6192   23.8443 H   0  0  0  0  0  0  0  0  0  0  0  0
   32.6808   14.1222   25.3411 H   0  0  0  0  0  0  0  0  0  0  0  0
   21.5514   11.2958   33.1417 H   0  0  0  0  0  0  0  0  0  0  0  0
   22.2704   11.5804   31.5295 H   0  0  0  0  0  0  0  0  0  0  0  0
   21.5645    9.8741   29.5658 H   0  0  0  0  0  0  0  0  0  0  0  0
   20.4080    8.5766   29.9994 H   0  0  0  0  0  0  0  0  0  0  0  0
   29.6145    1.3316   28.9445 H   0  0  0  0  0  0  0  0  0  0  0  0
   28.3829    2.2369   32.9586 H   0  0  0  0  0  0  0  0  0  0  0  0
   28.2426    0.8021   30.9416 H   0  0  0  0  0  0  0  0  0  0  0  0
   20.3336    9.3119   32.3482 H   0  0  0  0  0  0  0  0  0  0  0  0
   19.9767   10.7041   31.2678 H   0  0  0  0  0  0  0  0  0  0  0  0
  2  1  1  0
  3  1  1  0
  4  5  1  0
  5  2  1  0
  6  1  1  0
  4  7  1  1
  8  7  1  0
  9  3  1  0
  3 10  1  0
 11  6  1  0
 12  8  1  0
 13 12  1  0
 14  4  2  0
 15  2  2  0
 16 10  1  0
 17 10  2  0
 18 13  2  0
 11 19  1  0
  8 20  1  0
 22 28  1  0
 23 13  1  0
 24 19  1  0
 25 19  1  0
 26 20  1  0
 27 20  1  0
 28 32  1  0
 29 22  2  0
 30 22  1  0
 31 21  1  0
 32 31  1  0
 33 23  1  0
 34 24  1  0
 35 25  1  0
 36 29  1  0
 37 30  2  0
 38 36  2  0
 39 34  1  0
  9 11  1  0
 39 35  1  0
 38 37  1  0
  4 21  1  0
  3 40  1  6
  5 41  1  0
  5 42  1  0
  6 43  1  0
  6 44  1  0
  8 45  1  6
  9 46  1  0
  9 47  1  0
 11 48  1  1
 19 49  1  0
 20 50  1  0
 21 51  1  0
 21 52  1  0
 23 53  1  0
 23 54  1  0
 24 55  1  0
 24 56  1  0
 25 57  1  0
 25 58  1  0
 26 59  1  0
 26 60  1  0
 26 61  1  0
 27 62  1  0
 27 63  1  0
 27 64  1  0
 28 65  1  0
 28 66  1  0
 29 67  1  0
 30 68  1  0
 31 69  1  0
 31 70  1  0
 32 71  1  0
 32 72  1  0
 33 73  1  0
 33 74  1  0
 33 75  1  0
 34 76  1  0
 34 77  1  0
 35 78  1  0
 35 79  1  0
 36 80  1  0
 37 81  1  0
 38 82  1  0
 39 83  1  0
 39 84  1  0
M  CHG  1  16  -1
M  END
> <Uni-Dock RESULT> 
ENERGY=   -3.806  LOWER_BOUND=    3.815  UPPER_BOUND=    5.510
INTER + INTRA:          -3.806
INTER:                  -3.806
INTRA:                   0.000
UNBOUND:                 0.000

$$$$

     RDKit          3D

 84 86  0  0  0  0  0  0  0  0999 V2000
   30.7367    6.3060   29.5798 N   0  0  0  0  0  0  0  0  0  0  0  0
   29.7740    5.2609   29.3389 C   0  0  0  0  0  0  0  0  0  0  0  0
   31.0995    6.8331   30.8899 C   0  0  1  0  0  0  0  0  0  0  0  0
   30.1145    2.8779   30.6413 P   0  0  1  0  0  0  0  0  0  0  0  0
   29.1913    4.4416   30.4541 C   0  0  0  0  0  0  0  0  0  0  0  0
   31.5304    6.8873   28.5084 C   0  0  0  0  0  0  0  0  0  0  0  0
   29.5580    1.9989   31.9970 O   0  0  0  0  0  0  0  0  0  0  0  0
   28.1696    1.7551   31.8963 C   0  0  2  0  0  0  0  0  0  0  0  0
   32.3879    7.6211   30.6558 C   0  0  0  0  0  0  0  0  0  0  0  0
   30.0066    7.7207   31.4191 C   0  0  0  0  0  0  0  0  0  0  0  0
   32.3826    7.9842   29.1629 C   0  0  1  0  0  0  0  0  0  0  0  0
   27.4669    2.8387   32.5115 O   0  0  0  0  0  0  0  0  0  0  0  0
   26.2164    3.3065   32.0897 C   0  0  0  0  0  0  0  0  0  0  0  0
   29.9468    2.0497   29.3861 O   0  0  0  0  0  0  0  0  0  0  0  0
   29.4458    4.9819   28.1530 O   0  0  0  0  0  0  0  0  0  0  0  0
   29.6238    7.6283   32.7519 O   0  0  0  0  0  0  0  0  0  0  0  0
   29.4638    8.5792   30.6743 O   0  0  0  0  0  0  0  0  0  0  0  0
   25.6834    2.8700   31.0324 O   0  0  0  0  0  0  0  0  0  0  0  0
   33.8102    8.1019   28.5457 C   0  0  0  0  0  0  0  0  0  0  0  0
   27.8582    0.4297   32.6295 C   0  0  0  0  0  0  0  0  0  0  0  0
   31.8908    3.2346   30.8891 C   0  0  0  0  0  0  0  0  0  0  0  0
   34.9840    0.2921   32.2794 C   0  0  0  0  0  0  0  0  0  0  0  0
   25.5057    4.3360   32.9092 C   0  0  0  0  0  0  0  0  0  0  0  0
   33.7756    8.4480   27.0360 C   0  0  0  0  0  0  0  0  0  0  0  0
   34.7077    9.1213   29.2898 C   0  0  0  0  0  0  0  0  0  0  0  0
   26.3914    0.0108   32.4625 C   0  0  0  0  0  0  0  0  0  0  0  0
   28.2267    0.5012   34.1204 C   0  0  0  0  0  0  0  0  0  0  0  0
   33.6111   -0.1583   31.8496 C   0  0  0  0  0  0  0  0  0  0  0  0
   35.2716    0.4717   33.6438 C   0  0  0  0  0  0  0  0  0  0  0  0
   35.9810    0.5577   31.3244 C   0  0  0  0  0  0  0  0  0  0  0  0
   32.7775    1.9884   30.7504 C   0  0  0  0  0  0  0  0  0  0  0  0
   32.5873    0.9851   31.9003 C   0  0  0  0  0  0  0  0  0  0  0  0
   24.2517    3.7456   33.5474 C   0  0  0  0  0  0  0  0  0  0  0  0
   33.3563    9.9023   26.7759 C   0  0  0  0  0  0  0  0  0  0  0  0
   34.2773   10.5717   29.0357 C   0  0  0  0  0  0  0  0  0  0  0  0
   36.5404    0.9022   34.0456 C   0  0  0  0  0  0  0  0  0  0  0  0
   37.2482    0.9871   31.7311 C   0  0  0  0  0  0  0  0  0  0  0  0
   37.5281    1.1584   33.0905 C   0  0  0  0  0  0  0  0  0  0  0  0
   34.2561   10.8830   27.5357 C   0  0  0  0  0  0  0  0  0  0  0  0
   31.2989    6.0072   31.6045 H   0  0  0  0  0  0  0  0  0  0  0  0
   28.1347    4.2102   30.2083 H   0  0  0  0  0  0  0  0  0  0  0  0
   29.1969    4.9910   31.4161 H   0  0  0  0  0  0  0  0  0  0  0  0
   32.1632    6.0904   28.0587 H   0  0  0  0  0  0  0  0  0  0  0  0
   30.8656    7.3229   27.7297 H   0  0  0  0  0  0  0  0  0  0  0  0
   27.8478    1.6264   30.8358 H   0  0  0  0  0  0  0  0  0  0  0  0
   32.4577    8.5285   31.2968 H   0  0  0  0  0  0  0  0  0  0  0  0
   33.2527    6.9581   30.8838 H   0  0  0  0  0  0  0  0  0  0  0  0
   31.8400    8.9485   29.0560 H   0  0  0  0  0  0  0  0  0  0  0  0
   34.3004    7.1066   28.6427 H   0  0  0  0  0  0  0  0  0  0  0  0
   28.4830   -0.3668   32.1659 H   0  0  0  0  0  0  0  0  0  0  0  0
   32.0348    3.6965   31.8886 H   0  0  0  0  0  0  0  0  0  0  0  0
   32.2104    3.9698   30.1211 H   0  0  0  0  0  0  0  0  0  0  0  0
   25.2282    5.1970   32.2631 H   0  0  0  0  0  0  0  0  0  0  0  0
   26.1819    4.7044   33.7116 H   0  0  0  0  0  0  0  0  0  0  0  0
   33.0929    7.7657   26.4880 H   0  0  0  0  0  0  0  0  0  0  0  0
   34.7890    8.2878   26.6086 H   0  0  0  0  0  0  0  0  0  0  0  0
   35.7578    8.9948   28.9440 H   0  0  0  0  0  0  0  0  0  0  0  0
   34.7152    8.9247   30.3825 H   0  0  0  0  0  0  0  0  0  0  0  0
   26.1180   -0.0261   31.3867 H   0  0  0  0  0  0  0  0  0  0  0  0
   25.7144    0.7181   32.9862 H   0  0  0  0  0  0  0  0  0  0  0  0
   26.2347   -1.0022   32.8913 H   0  0  0  0  0  0  0  0  0  0  0  0
   28.0318   -0.4778   34.6079 H   0  0  0  0  0  0  0  0  0  0  0  0
   27.6264    1.2789   34.6396 H   0  0  0  0  0  0  0  0  0  0  0  0
   29.3062    0.7340   34.2451 H   0  0  0  0  0  0  0  0  0  0  0  0
   33.6400   -0.5950   30.8273 H   0  0  0  0  0  0  0  0  0  0  0  0
   33.2737   -0.9693   32.5311 H   0  0  0  0  0  0  0  0  0  0  0  0
   34.5141    0.2767   34.3945 H   0  0  0  0  0  0  0  0  0  0  0  0
   35.7770    0.4332   30.2678 H   0  0  0  0  0  0  0  0  0  0  0  0
   32.5804    1.4902   29.7776 H   0  0  0  0  0  0  0  0  0  0  0  0
   33.8326    2.3340   30.7395 H   0  0  0  0  0  0  0  0  0  0  0  0
   31.5788    0.5308   31.8220 H   0  0  0  0  0  0  0  0  0  0  0  0
   32.6511    1.5051   32.8803 H   0  0  0  0  0  0  0  0  0  0  0  0
   24.5161    2.8722   34.1826 H   0  0  0  0  0  0  0  0  0  0  0  0
   23.7608    4.5137   34.1821 H   0  0  0  0  0  0  0  0  0  0  0  0
   23.5342    3.4246   32.7608 H   0  0  0  0  0  0  0  0  0  0  0  0
   33.4309   10.1120   25.6874 H   0  0  0  0  0  0  0  0  0  0  0  0
   32.2953   10.0548   27.0674 H   0  0  0  0  0  0  0  0  0  0  0  0
   33.2756   10.7588   29.4776 H   0  0  0  0  0  0  0  0  0  0  0  0
   34.9959   11.2547   29.5371 H   0  0  0  0  0  0  0  0  0  0  0  0
   36.7568    1.0398   35.0973 H   0  0  0  0  0  0  0  0  0  0  0  0
   38.0128    1.1885   30.9925 H   0  0  0  0  0  0  0  0  0  0  0  0
   38.5115    1.4869   33.4027 H   0  0  0  0  0  0  0  0  0  0  0  0
   35.2900   10.8264   27.1302 H   0  0  0  0  0  0  0  0  0  0  0  0
   33.8842   11.9186   27.3820 H   0  0  0  0  0  0  0  0  0  0  0  0
  2  1  1  0
  3  1  1  0
  4  5  1  0
  5  2  1  0
  6  1  1  0
  4  7  1  1
  8  7  1  0
  9  3  1  0
  3 10  1  0
 11  6  1  0
 12  8  1  0
 13 12  1  0
 14  4  2  0
 15  2  2  0
 16 10  1  0
 17 10  2  0
 18 13  2  0
 11 19  1  0
  8 20  1  0
 22 28  1  0
 23 13  1  0
 24 19  1  0
 25 19  1  0
 26 20  1  0
 27 20  1  0
 28 32  1  0
 29 22  2  0
 30 22  1  0
 31 21  1  0
 32 31  1  0
 33 23  1  0
 34 24  1  0
 35 25  1  0
 36 29  1  0
 37 30  2  0
 38 36  2  0
 39 34  1  0
  9 11  1  0
 39 35  1  0
 38 37  1  0
  4 21  1  0
  3 40  1  6
  5 41  1  0
  5 42  1  0
  6 43  1  0
  6 44  1  0
  8 45  1  6
  9 46  1  0
  9 47  1  0
 11 48  1  1
 19 49  1  0
 20 50  1  0
 21 51  1  0
 21 52  1  0
 23 53  1  0
 23 54  1  0
 24 55  1  0
 24 56  1  0
 25 57  1  0
 25 58  1  0
 26 59  1  0
 26 60  1  0
 26 61  1  0
 27 62  1  0
 27 63  1  0
 27 64  1  0
 28 65  1  0
 28 66  1  0
 29 67  1  0
 30 68  1  0
 31 69  1  0
 31 70  1  0
 32 71  1  0
 32 72  1  0
 33 73  1  0
 33 74  1  0
 33 75  1  0
 34 76  1  0
 34 77  1  0
 35 78  1  0
 35 79  1  0
 36 80  1  0
 37 81  1  0
 38 82  1  0
 39 83  1  0
 39 84  1  0
M  CHG  1  16  -1
M  END
> <Uni-Dock RESULT> 
ENERGY=   -3.752  LOWER_BOUND=    4.945  UPPER_BOUND=   10.012
INTER + INTRA:          -3.752
INTER:                  -3.752
INTRA:                   0.000
UNBOUND:                 0.000

$$$$

     RDKit          3D

 84 86  0  0  0  0  0  0  0  0999 V2000
   25.7741   10.0300   30.3048 N   0  0  0  0  0  0  0  0  0  0  0  0
   27.0642   10.6649   30.4022 C   0  0  0  0  0  0  0  0  0  0  0  0
   25.3314    9.1839   29.2030 C   0  0  1  0  0  0  0  0  0  0  0  0
   29.2900    9.0851   30.2004 P   0  0  1  0  0  0  0  0  0  0  0  0
   28.1868   10.3373   29.4605 C   0  0  0  0  0  0  0  0  0  0  0  0
   24.7946   10.1019   31.3776 C   0  0  0  0  0  0  0  0  0  0  0  0
   30.4898    8.5943   29.0870 O   0  0  0  0  0  0  0  0  0  0  0  0
   31.2286    9.7082   28.6282 C   0  0  2  0  0  0  0  0  0  0  0  0
   24.0878    8.4684   29.7294 C   0  0  0  0  0  0  0  0  0  0  0  0
   25.0083   10.0210   27.9959 C   0  0  0  0  0  0  0  0  0  0  0  0
   23.5552    9.3523   30.8676 C   0  0  1  0  0  0  0  0  0  0  0  0
   30.5892   10.2351   27.4620 O   0  0  0  0  0  0  0  0  0  0  0  0
   30.5811   11.5911   27.1134 C   0  0  0  0  0  0  0  0  0  0  0  0
   29.9411    9.6661   31.4365 O   0  0  0  0  0  0  0  0  0  0  0  0
   27.2837   11.4821   31.3382 O   0  0  0  0  0  0  0  0  0  0  0  0
   25.4195    9.6058   26.7350 O   0  0  0  0  0  0  0  0  0  0  0  0
   24.3293   11.0754   28.1127 O   0  0  0  0  0  0  0  0  0  0  0  0
   31.0401   12.4656   27.8990 O   0  0  0  0  0  0  0  0  0  0  0  0
   22.8195    8.5515   31.9858 C   0  0  0  0  0  0  0  0  0  0  0  0
   32.6588    9.2304   28.2853 C   0  0  0  0  0  0  0  0  0  0  0  0
   28.3200    7.6089   30.6736 C   0  0  0  0  0  0  0  0  0  0  0  0
   30.0196    3.6084   31.7990 C   0  0  0  0  0  0  0  0  0  0  0  0
   30.0219   12.0029   25.7889 C   0  0  0  0  0  0  0  0  0  0  0  0
   22.3115    9.4637   33.1304 C   0  0  0  0  0  0  0  0  0  0  0  0
   21.6460    7.6980   31.4447 C   0  0  0  0  0  0  0  0  0  0  0  0
   33.5786   10.3973   27.9016 C   0  0  0  0  0  0  0  0  0  0  0  0
   32.6550    8.1663   27.1757 C   0  0  0  0  0  0  0  0  0  0  0  0
   30.8968    4.8293   31.6875 C   0  0  0  0  0  0  0  0  0  0  0  0
   29.9308    2.7044   30.7259 C   0  0  0  0  0  0  0  0  0  0  0  0
   29.2670    3.3724   32.9627 C   0  0  0  0  0  0  0  0  0  0  0  0
   29.1026    6.6402   31.5722 C   0  0  0  0  0  0  0  0  0  0  0  0
   30.2485    5.9287   30.8335 C   0  0  0  0  0  0  0  0  0  0  0  0
   31.1265   12.5293   24.8774 C   0  0  0  0  0  0  0  0  0  0  0  0
   21.1063   10.3178   32.7103 C   0  0  0  0  0  0  0  0  0  0  0  0
   20.4493    8.5569   31.0159 C   0  0  0  0  0  0  0  0  0  0  0  0
   29.1077    1.5774   30.8206 C   0  0  0  0  0  0  0  0  0  0  0  0
   28.4463    2.2438   33.0530 C   0  0  0  0  0  0  0  0  0  0  0  0
   28.3672    1.3465   31.9833 C   0  0  0  0  0  0  0  0  0  0  0  0
   19.9694    9.4441   32.1691 C   0  0  0  0  0  0  0  0  0  0  0  0
   26.1074    8.4320   28.9484 H   0  0  0  0  0  0  0  0  0  0  0  0
   28.7681   11.2621   29.2677 H   0  0  0  0  0  0  0  0  0  0  0  0
   27.8128    9.9693   28.4848 H   0  0  0  0  0  0  0  0  0  0  0  0
   25.2210    9.6191   32.2848 H   0  0  0  0  0  0  0  0  0  0  0  0
   24.5441   11.1631   31.5998 H   0  0  0  0  0  0  0  0  0  0  0  0
   31.3252   10.4934   29.4150 H   0  0  0  0  0  0  0  0  0  0  0  0
   23.3183    8.3103   28.9406 H   0  0  0  0  0  0  0  0  0  0  0  0
   24.3951    7.4758   30.1293 H   0  0  0  0  0  0  0  0  0  0  0  0
   22.8659   10.0984   30.4161 H   0  0  0  0  0  0  0  0  0  0  0  0
   23.5558    7.8450   32.4318 H   0  0  0  0  0  0  0  0  0  0  0  0
   33.0860    8.7616   29.2003 H   0  0  0  0  0  0  0  0  0  0  0  0
   27.9783    7.0864   29.7553 H   0  0  0  0  0  0  0  0  0  0  0  0
   27.4218    7.9451   31.2326 H   0  0  0  0  0  0  0  0  0  0  0  0
   29.2528   12.7912   25.9404 H   0  0  0  0  0  0  0  0  0  0  0  0
   29.5359   11.1288   25.3024 H   0  0  0  0  0  0  0  0  0  0  0  0
   23.1215   10.1276   33.4979 H   0  0  0  0  0  0  0  0  0  0  0  0
   22.0136    8.8262   33.9907 H   0  0  0  0  0  0  0  0  0  0  0  0
   21.3143    6.9967   32.2425 H   0  0  0  0  0  0  0  0  0  0  0  0
   21.9710    7.0660   30.5917 H   0  0  0  0  0  0  0  0  0  0  0  0
   33.5707   11.1750   28.6943 H   0  0  0  0  0  0  0  0  0  0  0  0
   33.2610   10.8537   26.9405 H   0  0  0  0  0  0  0  0  0  0  0  0
   34.6228   10.0356   27.7862 H   0  0  0  0  0  0  0  0  0  0  0  0
   33.6907    7.8134   26.9834 H   0  0  0  0  0  0  0  0  0  0  0  0
   32.2432    8.5812   26.2308 H   0  0  0  0  0  0  0  0  0  0  0  0
   32.0474    7.2869   27.4801 H   0  0  0  0  0  0  0  0  0  0  0  0
   31.1464    5.2303   32.6943 H   0  0  0  0  0  0  0  0  0  0  0  0
   31.8595    4.5334   31.2167 H   0  0  0  0  0  0  0  0  0  0  0  0
   30.4997    2.8722   29.8185 H   0  0  0  0  0  0  0  0  0  0  0  0
   29.3154    4.0611   33.7975 H   0  0  0  0  0  0  0  0  0  0  0  0
   29.5015    7.1822   32.4558 H   0  0  0  0  0  0  0  0  0  0  0  0
   28.3827    5.8813   31.9444 H   0  0  0  0  0  0  0  0  0  0  0  0
   31.0380    6.6685   30.5906 H   0  0  0  0  0  0  0  0  0  0  0  0
   29.8816    5.4964   29.8778 H   0  0  0  0  0  0  0  0  0  0  0  0
   31.9105   11.7542   24.7331 H   0  0  0  0  0  0  0  0  0  0  0  0
   30.6975   12.7924   23.8872 H   0  0  0  0  0  0  0  0  0  0  0  0
   31.5870   13.4408   25.3175 H   0  0  0  0  0  0  0  0  0  0  0  0
   20.7384   10.8844   33.5923 H   0  0  0  0  0  0  0  0  0  0  0  0
   21.4110   11.0632   31.9452 H   0  0  0  0  0  0  0  0  0  0  0  0
   20.7202    9.1843   30.1402 H   0  0  0  0  0  0  0  0  0  0  0  0
   19.6188    7.8886   30.7033 H   0  0  0  0  0  0  0  0  0  0  0  0
   29.0420    0.8845   29.9915 H   0  0  0  0  0  0  0  0  0  0  0  0
   27.8703    2.0655   33.9515 H   0  0  0  0  0  0  0  0  0  0  0  0
   27.7341    0.4712   32.0577 H   0  0  0  0  0  0  0  0  0  0  0  0
   19.5719    8.8054   32.9881 H   0  0  0  0  0  0  0  0  0  0  0  0
   19.1434   10.0951   31.8108 H   0  0  0  0  0  0  0  0  0  0  0  0
  2  1  1  0
  3  1  1  0
  4  5  1  0
  5  2  1  0
  6  1  1  0
  4  7  1  1
  8  7  1  0
  9  3  1  0
  3 10  1  0
 11  6  1  0
 12  8  1  0
 13 12  1  0
 14  4  2  0
 15  2  2  0
 16 10  1  0
 17 10  2  0
 18 13  2  0
 11 19  1  0
  8 20  1  0
 22 28  1  0
 23 13  1  0
 24 19  1  0
 25 19  1  0
 26 20  1  0
 27 20  1  0
 28 32  1  0
 29 22  2  0
 30 22  1  0
 31 21  1  0
 32 31  1  0
 33 23  1  0
 34 24  1  0
 35 25  1  0
 36 29  1  0
 37 30  2  0
 38 36  2  0
 39 34  1  0
  9 11  1  0
 39 35  1  0
 38 37  1  0
  4 21  1  0
  3 40  1  6
  5 41  1  0
  5 42  1  0
  6 43  1  0
  6 44  1  0
  8 45  1  6
  9 46  1  0
  9 47  1  0
 11 48  1  1
 19 49  1  0
 20 50  1  0
 21 51  1  0
 21 52  1  0
 23 53  1  0
 23 54  1  0
 24 55  1  0
 24 56  1  0
 25 57  1  0
 25 58  1  0
 26 59  1  0
 26 60  1  0
 26 61  1  0
 27 62  1  0
 27 63  1  0
 27 64  1  0
 28 65  1  0
 28 66  1  0
 29 67  1  0
 30 68  1  0
 31 69  1  0
 31 70  1  0
 32 71  1  0
 32 72  1  0
 33 73  1  0
 33 74  1  0
 33 75  1  0
 34 76  1  0
 34 77  1  0
 35 78  1  0
 35 79  1  0
 36 80  1  0
 37 81  1  0
 38 82  1  0
 39 83  1  0
 39 84  1  0
M  CHG  1  16  -1
M  END
> <Uni-Dock RESULT> 
ENERGY=   -3.587  LOWER_BOUND=    3.395  UPPER_BOUND=    4.840
INTER + INTRA:          -3.587
INTER:                  -3.587
INTRA:                   0.000
UNBOUND:                 0.000

$$$$

     RDKit          3D

 84 86  0  0  0  0  0  0  0  0999 V2000
   28.4329   10.7226   28.2688 N   0  0  0  0  0  0  0  0  0  0  0  0
   27.2886   11.1742   27.5179 C   0  0  0  0  0  0  0  0  0  0  0  0
   28.7242   11.0719   29.6540 C   0  0  1  0  0  0  0  0  0  0  0  0
   24.8031   10.7187   28.5695 P   0  0  1  0  0  0  0  0  0  0  0  0
   26.1419   11.8931   28.1681 C   0  0  0  0  0  0  0  0  0  0  0  0
   29.3872    9.7694   27.7242 C   0  0  0  0  0  0  0  0  0  0  0  0
   23.5524   11.4928   29.4393 O   0  0  0  0  0  0  0  0  0  0  0  0
   23.0523   12.5980   28.7142 C   0  0  2  0  0  0  0  0  0  0  0  0
   29.7954   10.0754   30.0958 C   0  0  0  0  0  0  0  0  0  0  0  0
   29.2263   12.4869   29.7437 C   0  0  0  0  0  0  0  0  0  0  0  0
   30.4673    9.5925   28.8013 C   0  0  1  0  0  0  0  0  0  0  0  0
   23.8038   13.7612   29.0730 O   0  0  0  0  0  0  0  0  0  0  0  0
   24.0810   14.8197   28.1994 C   0  0  0  0  0  0  0  0  0  0  0  0
   24.2536   10.1356   27.2860 O   0  0  0  0  0  0  0  0  0  0  0  0
   27.2138   10.9137   26.2857 O   0  0  0  0  0  0  0  0  0  0  0  0
   28.7665   13.3220   30.7549 O   0  0  0  0  0  0  0  0  0  0  0  0
   30.0943   12.9093   28.9348 O   0  0  0  0  0  0  0  0  0  0  0  0
   23.7852   14.7446   26.9749 O   0  0  0  0  0  0  0  0  0  0  0  0
   31.0125    8.1339   28.8893 C   0  0  0  0  0  0  0  0  0  0  0  0
   21.5634   12.7860   29.0874 C   0  0  0  0  0  0  0  0  0  0  0  0
   25.4596    9.3643   29.6082 C   0  0  0  0  0  0  0  0  0  0  0  0
   22.9960    6.3793   31.8841 C   0  0  0  0  0  0  0  0  0  0  0  0
   24.7346   16.0553   28.7311 C   0  0  0  0  0  0  0  0  0  0  0  0
   31.6657    7.6652   27.5649 C   0  0  0  0  0  0  0  0  0  0  0  0
   32.0085    7.9310   30.0577 C   0  0  0  0  0  0  0  0  0  0  0  0
   20.8946   13.8840   28.2497 C   0  0  0  0  0  0  0  0  0  0  0  0
   21.3821   13.0731   30.5868 C   0  0  0  0  0  0  0  0  0  0  0  0
   22.3743    7.2827   30.8498 C   0  0  0  0  0  0  0  0  0  0  0  0
   22.9285    6.7178   33.2470 C   0  0  0  0  0  0  0  0  0  0  0  0
   23.6664    5.2054   31.4982 C   0  0  0  0  0  0  0  0  0  0  0  0
   24.4872    8.1828   29.7375 C   0  0  0  0  0  0  0  0  0  0  0  0
   23.2394    8.5203   30.5707 C   0  0  0  0  0  0  0  0  0  0  0  0
   23.7704   17.2371   28.6864 C   0  0  0  0  0  0  0  0  0  0  0  0
   33.0214    8.3394   27.3075 C   0  0  0  0  0  0  0  0  0  0  0  0
   33.3569    8.6161   29.8003 C   0  0  0  0  0  0  0  0  0  0  0  0
   23.5157    5.8888   34.2086 C   0  0  0  0  0  0  0  0  0  0  0  0
   24.2510    4.3794   32.4633 C   0  0  0  0  0  0  0  0  0  0  0  0
   24.1752    4.7202   33.8175 C   0  0  0  0  0  0  0  0  0  0  0  0
   33.9775    8.1298   28.4867 C   0  0  0  0  0  0  0  0  0  0  0  0
   27.8222   10.9469   30.2890 H   0  0  0  0  0  0  0  0  0  0  0  0
   25.7546   12.6543   27.4604 H   0  0  0  0  0  0  0  0  0  0  0  0
   26.4561   12.4233   29.0887 H   0  0  0  0  0  0  0  0  0  0  0  0
   28.8581    8.8136   27.5136 H   0  0  0  0  0  0  0  0  0  0  0  0
   29.8342   10.1659   26.7855 H   0  0  0  0  0  0  0  0  0  0  0  0
   23.0946   12.4240   27.6130 H   0  0  0  0  0  0  0  0  0  0  0  0
   30.5346   10.5237   30.7971 H   0  0  0  0  0  0  0  0  0  0  0  0
   29.2941    9.2224   30.6062 H   0  0  0  0  0  0  0  0  0  0  0  0
   31.2966   10.2968   28.5730 H   0  0  0  0  0  0  0  0  0  0  0  0
   30.1449    7.4628   29.0824 H   0  0  0  0  0  0  0  0  0  0  0  0
   21.0362   11.8319   28.8609 H   0  0  0  0  0  0  0  0  0  0  0  0
   25.7111    9.7638   30.6134 H   0  0  0  0  0  0  0  0  0  0  0  0
   26.3951    8.9890   29.1432 H   0  0  0  0  0  0  0  0  0  0  0  0
   25.6388   16.2856   28.1268 H   0  0  0  0  0  0  0  0  0  0  0  0
   25.0511   15.8852   29.7836 H   0  0  0  0  0  0  0  0  0  0  0  0
   30.9929    7.8530   26.7024 H   0  0  0  0  0  0  0  0  0  0  0  0
   31.8181    6.5652   27.6105 H   0  0  0  0  0  0  0  0  0  0  0  0
   32.1829    6.8406   30.1957 H   0  0  0  0  0  0  0  0  0  0  0  0
   31.5835    8.3007   31.0145 H   0  0  0  0  0  0  0  0  0  0  0  0
   21.0379   13.6875   27.1661 H   0  0  0  0  0  0  0  0  0  0  0  0
   21.3128   14.8824   28.4972 H   0  0  0  0  0  0  0  0  0  0  0  0
   19.8025   13.9046   28.4532 H   0  0  0  0  0  0  0  0  0  0  0  0
   20.3015   13.1599   30.8297 H   0  0  0  0  0  0  0  0  0  0  0  0
   21.8844   14.0224   30.8716 H   0  0  0  0  0  0  0  0  0  0  0  0
   21.8020   12.2443   31.1967 H   0  0  0  0  0  0  0  0  0  0  0  0
   22.1880    6.7302   29.9028 H   0  0  0  0  0  0  0  0  0  0  0  0
   21.3817    7.6181   31.2214 H   0  0  0  0  0  0  0  0  0  0  0  0
   22.4202    7.6216   33.5634 H   0  0  0  0  0  0  0  0  0  0  0  0
   23.7364    4.9311   30.4526 H   0  0  0  0  0  0  0  0  0  0  0  0
   24.1841    7.8301   28.7289 H   0  0  0  0  0  0  0  0  0  0  0  0
   25.0392    7.3537   30.2280 H   0  0  0  0  0  0  0  0  0  0  0  0
   22.6130    9.2428   30.0092 H   0  0  0  0  0  0  0  0  0  0  0  0
   23.5338    8.9985   31.5296 H   0  0  0  0  0  0  0  0  0  0  0  0
   22.8540   17.0105   29.2738 H   0  0  0  0  0  0  0  0  0  0  0  0
   24.2611   18.1338   29.1211 H   0  0  0  0  0  0  0  0  0  0  0  0
   23.4869   17.4630   27.6351 H   0  0  0  0  0  0  0  0  0  0  0  0
   33.4751    7.9032   26.3919 H   0  0  0  0  0  0  0  0  0  0  0  0
   32.8815    9.4251   27.1190 H   0  0  0  0  0  0  0  0  0  0  0  0
   33.2294    9.7192   29.7757 H   0  0  0  0  0  0  0  0  0  0  0  0
   34.0480    8.3787   30.6371 H   0  0  0  0  0  0  0  0  0  0  0  0
   23.4617    6.1540   35.2568 H   0  0  0  0  0  0  0  0  0  0  0  0
   24.7643    3.4760   32.1616 H   0  0  0  0  0  0  0  0  0  0  0  0
   24.6251    4.0766   34.5629 H   0  0  0  0  0  0  0  0  0  0  0  0
   34.2281    7.0497   28.5721 H   0  0  0  0  0  0  0  0  0  0  0  0
   34.9207    8.6864   28.2993 H   0  0  0  0  0  0  0  0  0  0  0  0
  2  1  1  0
  3  1  1  0
  4  5  1  0
  5  2  1  0
  6  1  1  0
  4  7  1  1
  8  7  1  0
  9  3  1  0
  3 10  1  0
 11  6  1  0
 12  8  1  0
 13 12  1  0
 14  4  2  0
 15  2  2  0
 16 10  1  0
 17 10  2  0
 18 13  2  0
 11 19  1  0
  8 20  1  0
 22 28  1  0
 23 13  1  0
 24 19  1  0
 25 19  1  0
 26 20  1  0
 27 20  1  0
 28 32  1  0
 29 22  2  0
 30 22  1  0
 31 21  1  0
 32 31  1  0
 33 23  1  0
 34 24  1  0
 35 25  1  0
 36 29  1  0
 37 30  2  0
 38 36  2  0
 39 34  1  0
  9 11  1  0
 39 35  1  0
 38 37  1  0
  4 21  1  0
  3 40  1  6
  5 41  1  0
  5 42  1  0
  6 43  1  0
  6 44  1  0
  8 45  1  6
  9 46  1  0
  9 47  1  0
 11 48  1  1
 19 49  1  0
 20 50  1  0
 21 51  1  0
 21 52  1  0
 23 53  1  0
 23 54  1  0
 24 55  1  0
 24 56  1  0
 25 57  1  0
 25 58  1  0
 26 59  1  0
 26 60  1  0
 26 61  1  0
 27 62  1  0
 27 63  1  0
 27 64  1  0
 28 65  1  0
 28 66  1  0
 29 67  1  0
 30 68  1  0
 31 69  1  0
 31 70  1  0
 32 71  1  0
 32 72  1  0
 33 73  1  0
 33 74  1  0
 33 75  1  0
 34 76  1  0
 34 77  1  0
 35 78  1  0
 35 79  1  0
 36 80  1  0
 37 81  1  0
 38 82  1  0
 39 83  1  0
 39 84  1  0
M  CHG  1  16  -1
M  END
> <Uni-Dock RESULT> 
ENERGY=   -3.507  LOWER_BOUND=    3.788  UPPER_BOUND=    8.939
INTER + INTRA:          -3.507
INTER:                  -3.507
INTRA:                   0.000
UNBOUND:                 0.000

$$$$

     RDKit          3D

 84 86  0  0  0  0  0  0  0  0999 V2000
   31.7553   11.8636   30.2868 N   0  0  0  0  0  0  0  0  0  0  0  0
   31.9882   11.3380   28.9652 C   0  0  0  0  0  0  0  0  0  0  0  0
   31.1215   13.1418   30.5867 C   0  0  1  0  0  0  0  0  0  0  0  0
   29.8464   11.1213   27.2751 P   0  0  1  0  0  0  0  0  0  0  0  0
   31.3940   11.9706   27.7399 C   0  0  0  0  0  0  0  0  0  0  0  0
   32.0579   11.0990   31.4867 C   0  0  0  0  0  0  0  0  0  0  0  0
   29.0814   11.9170   25.9706 O   0  0  0  0  0  0  0  0  0  0  0  0
   29.9555   12.0122   24.8642 C   0  0  2  0  0  0  0  0  0  0  0  0
   30.7706   13.0700   32.0724 C   0  0  0  0  0  0  0  0  0  0  0  0
   32.0686   14.2758   30.3049 C   0  0  0  0  0  0  0  0  0  0  0  0
   31.7190   12.0186   32.6689 C   0  0  1  0  0  0  0  0  0  0  0  0
   30.6948   13.2328   24.9662 O   0  0  0  0  0  0  0  0  0  0  0  0
   32.0101   13.3965   24.5149 C   0  0  0  0  0  0  0  0  0  0  0  0
   30.1608    9.6913   26.8933 O   0  0  0  0  0  0  0  0  0  0  0  0
   32.6657   10.2825   28.8285 O   0  0  0  0  0  0  0  0  0  0  0  0
   31.6090   15.4182   29.6607 O   0  0  0  0  0  0  0  0  0  0  0  0
   33.2673   14.2171   30.6871 O   0  0  0  0  0  0  0  0  0  0  0  0
   32.6803   12.4117   24.0985 O   0  0  0  0  0  0  0  0  0  0  0  0
   31.1146   11.2543   33.8867 C   0  0  0  0  0  0  0  0  0  0  0  0
   29.1029   12.0086   23.5741 C   0  0  0  0  0  0  0  0  0  0  0  0
   28.6914   11.1211   28.6929 C   0  0  0  0  0  0  0  0  0  0  0  0
   24.3257   10.0876   28.5145 C   0  0  0  0  0  0  0  0  0  0  0  0
   32.6232   14.7605   24.5263 C   0  0  0  0  0  0  0  0  0  0  0  0
   32.0827   10.1866   34.4551 C   0  0  0  0  0  0  0  0  0  0  0  0
   30.6587   12.1986   35.0264 C   0  0  0  0  0  0  0  0  0  0  0  0
   29.9723   11.9761   22.3100 C   0  0  0  0  0  0  0  0  0  0  0  0
   28.1347   13.2019   23.5258 C   0  0  0  0  0  0  0  0  0  0  0  0
   25.2471    9.8004   27.3565 C   0  0  0  0  0  0  0  0  0  0  0  0
   23.5336   11.2492   28.5132 C   0  0  0  0  0  0  0  0  0  0  0  0
   24.2646    9.2133   29.6136 C   0  0  0  0  0  0  0  0  0  0  0  0
   27.5000   10.1724   28.4954 C   0  0  0  0  0  0  0  0  0  0  0  0
   26.5229   10.6534   27.4096 C   0  0  0  0  0  0  0  0  0  0  0  0
   32.8500   15.2616   23.1030 C   0  0  0  0  0  0  0  0  0  0  0  0
   33.2646   10.8090   35.2131 C   0  0  0  0  0  0  0  0  0  0  0  0
   31.8431   12.8263   35.7726 C   0  0  0  0  0  0  0  0  0  0  0  0
   22.6873   11.5258   29.5920 C   0  0  0  0  0  0  0  0  0  0  0  0
   23.4162    9.4937   30.6894 C   0  0  0  0  0  0  0  0  0  0  0  0
   22.6276   10.6485   30.6784 C   0  0  0  0  0  0  0  0  0  0  0  0
   32.7789   11.7458   36.3244 C   0  0  0  0  0  0  0  0  0  0  0  0
   30.1905   13.2674   29.9952 H   0  0  0  0  0  0  0  0  0  0  0  0
   32.1206   11.8791   26.9068 H   0  0  0  0  0  0  0  0  0  0  0  0
   31.1924   13.0496   27.8892 H   0  0  0  0  0  0  0  0  0  0  0  0
   31.4334   10.1783   31.4916 H   0  0  0  0  0  0  0  0  0  0  0  0
   33.1354   10.8219   31.5050 H   0  0  0  0  0  0  0  0  0  0  0  0
   30.6443   11.1366   24.8042 H   0  0  0  0  0  0  0  0  0  0  0  0
   30.8751   14.0523   32.5855 H   0  0  0  0  0  0  0  0  0  0  0  0
   29.7150   12.7297   32.1691 H   0  0  0  0  0  0  0  0  0  0  0  0
   32.6508   12.5436   32.9720 H   0  0  0  0  0  0  0  0  0  0  0  0
   30.2074   10.7167   33.5284 H   0  0  0  0  0  0  0  0  0  0  0  0
   28.4912   11.0784   23.5770 H   0  0  0  0  0  0  0  0  0  0  0  0
   28.3301   12.1562   28.8700 H   0  0  0  0  0  0  0  0  0  0  0  0
   29.2463   10.7912   29.5959 H   0  0  0  0  0  0  0  0  0  0  0  0
   33.5916   14.7269   25.0712 H   0  0  0  0  0  0  0  0  0  0  0  0
   31.9478   15.4675   25.0564 H   0  0  0  0  0  0  0  0  0  0  0  0
   32.4692    9.5311   33.6472 H   0  0  0  0  0  0  0  0  0  0  0  0
   31.5202    9.5279   35.1516 H   0  0  0  0  0  0  0  0  0  0  0  0
   30.0476   11.6167   35.7520 H   0  0  0  0  0  0  0  0  0  0  0  0
   29.9983   13.0029   34.6395 H   0  0  0  0  0  0  0  0  0  0  0  0
   30.6838   11.1242   22.3497 H   0  0  0  0  0  0  0  0  0  0  0  0
   30.5427   12.9219   22.1960 H   0  0  0  0  0  0  0  0  0  0  0  0
   29.3315   11.8463   21.4117 H   0  0  0  0  0  0  0  0  0  0  0  0
   27.5082   13.1467   22.6100 H   0  0  0  0  0  0  0  0  0  0  0  0
   28.6917   14.1633   23.5139 H   0  0  0  0  0  0  0  0  0  0  0  0
   27.4543   13.1886   24.4044 H   0  0  0  0  0  0  0  0  0  0  0  0
   25.5146    8.7215   27.3220 H   0  0  0  0  0  0  0  0  0  0  0  0
   24.7083   10.0236   26.4099 H   0  0  0  0  0  0  0  0  0  0  0  0
   23.5710   11.9379   27.6768 H   0  0  0  0  0  0  0  0  0  0  0  0
   24.8728    8.3172   29.6374 H   0  0  0  0  0  0  0  0  0  0  0  0
   27.8651    9.1525   28.2504 H   0  0  0  0  0  0  0  0  0  0  0  0
   26.9641   10.1098   29.4657 H   0  0  0  0  0  0  0  0  0  0  0  0
   27.0149   10.5760   26.4189 H   0  0  0  0  0  0  0  0  0  0  0  0
   26.2569   11.7195   27.5751 H   0  0  0  0  0  0  0  0  0  0  0  0
   31.8896   15.2826   22.5432 H   0  0  0  0  0  0  0  0  0  0  0  0
   33.2687   16.2900   23.1333 H   0  0  0  0  0  0  0  0  0  0  0  0
   33.5705   14.6011   22.5727 H   0  0  0  0  0  0  0  0  0  0  0  0
   33.8734    9.9969   35.6650 H   0  0  0  0  0  0  0  0  0  0  0  0
   33.9242   11.3613   34.5105 H   0  0  0  0  0  0  0  0  0  0  0  0
   32.4043   13.5083   35.0991 H   0  0  0  0  0  0  0  0  0  0  0  0
   31.4558   13.4356   36.6170 H   0  0  0  0  0  0  0  0  0  0  0  0
   22.0798   12.4219   29.5868 H   0  0  0  0  0  0  0  0  0  0  0  0
   23.3713    8.8168   31.5323 H   0  0  0  0  0  0  0  0  0  0  0  0
   21.9685   10.8609   31.5108 H   0  0  0  0  0  0  0  0  0  0  0  0
   32.2457   11.1540   37.1003 H   0  0  0  0  0  0  0  0  0  0  0  0
   33.6547   12.2312   36.8057 H   0  0  0  0  0  0  0  0  0  0  0  0
  2  1  1  0
  3  1  1  0
  4  5  1  0
  5  2  1  0
  6  1  1  0
  4  7  1  1
  8  7  1  0
  9  3  1  0
  3 10  1  0
 11  6  1  0
 12  8  1  0
 13 12  1  0
 14  4  2  0
 15  2  2  0
 16 10  1  0
 17 10  2  0
 18 13  2  0
 11 19  1  0
  8 20  1  0
 22 28  1  0
 23 13  1  0
 24 19  1  0
 25 19  1  0
 26 20  1  0
 27 20  1  0
 28 32  1  0
 29 22  2  0
 30 22  1  0
 31 21  1  0
 32 31  1  0
 33 23  1  0
 34 24  1  0
 35 25  1  0
 36 29  1  0
 37 30  2  0
 38 36  2  0
 39 34  1  0
  9 11  1  0
 39 35  1  0
 38 37  1  0
  4 21  1  0
  3 40  1  6
  5 41  1  0
  5 42  1  0
  6 43  1  0
  6 44  1  0
  8 45  1  6
  9 46  1  0
  9 47  1  0
 11 48  1  1
 19 49  1  0
 20 50  1  0
 21 51  1  0
 21 52  1  0
 23 53  1  0
 23 54  1  0
 24 55  1  0
 24 56  1  0
 25 57  1  0
 25 58  1  0
 26 59  1  0
 26 60  1  0
 26 61  1  0
 27 62  1  0
 27 63  1  0
 27 64  1  0
 28 65  1  0
 28 66  1  0
 29 67  1  0
 30 68  1  0
 31 69  1  0
 31 70  1  0
 32 71  1  0
 32 72  1  0
 33 73  1  0
 33 74  1  0
 33 75  1  0
 34 76  1  0
 34 77  1  0
 35 78  1  0
 35 79  1  0
 36 80  1  0
 37 81  1  0
 38 82  1  0
 39 83  1  0
 39 84  1  0
M  CHG  1  16  -1
M  END
> <Uni-Dock RESULT> 
ENERGY=   -3.503  LOWER_BOUND=    5.890  UPPER_BOUND=    9.610
INTER + INTRA:          -3.503
INTER:                  -3.503
INTRA:                   0.000
UNBOUND:                 0.000

$$$$
