
     RDKit          3D

 84 86  0  0  0  0  0  0  0  0999 V2000
   30.8070    8.7582   29.6299 N   0  0  0  0  0  0  0  0  0  0  0  0
   31.3561    9.9099   30.2964 C   0  0  0  0  0  0  0  0  0  0  0  0
   30.7000    8.6496   28.1827 C   0  0  1  0  0  0  0  0  0  0  0  0
   32.5304   11.3114   32.4017 P   0  0  1  0  0  0  0  0  0  0  0  0
   31.4962    9.9309   31.7990 C   0  0  0  0  0  0  0  0  0  0  0  0
   30.3975    7.5413   30.3140 C   0  0  0  0  0  0  0  0  0  0  0  0
   31.9806   12.8154   31.7987 O   0  0  0  0  0  0  0  0  0  0  0  0
   30.6936   13.1095   32.3053 C   0  0  2  0  0  0  0  0  0  0  0  0
   30.3888    7.1765   27.9151 C   0  0  0  0  0  0  0  0  0  0  0  0
   29.6101    9.5515   27.6717 C   0  0  0  0  0  0  0  0  0  0  0  0
   29.8028    6.6347   29.2282 C   0  0  1  0  0  0  0  0  0  0  0  0
   29.7128   12.4400   31.5047 O   0  0  0  0  0  0  0  0  0  0  0  0
   28.4867   11.9678   31.9887 C   0  0  0  0  0  0  0  0  0  0  0  0
   32.5213   11.3128   33.9151 O   0  0  0  0  0  0  0  0  0  0  0  0
   31.6758   10.9222   29.6149 O   0  0  0  0  0  0  0  0  0  0  0  0
   29.9278   10.6106   26.8266 O   0  0  0  0  0  0  0  0  0  0  0  0
   28.4113    9.3653   28.0107 O   0  0  0  0  0  0  0  0  0  0  0  0
   28.1921   12.0634   33.2108 O   0  0  0  0  0  0  0  0  0  0  0  0
   30.0940    5.1257   29.4600 C   0  0  0  0  0  0  0  0  0  0  0  0
   30.4911   14.6414   32.2332 C   0  0  0  0  0  0  0  0  0  0  0  0
   34.2376   11.0121   31.8273 C   0  0  0  0  0  0  0  0  0  0  0  0
   37.0133   12.9933   30.0983 C   0  0  0  0  0  0  0  0  0  0  0  0
   27.5053   11.3719   31.0317 C   0  0  0  0  0  0  0  0  0  0  0  0
   29.5845    4.6651   30.8548 C   0  0  0  0  0  0  0  0  0  0  0  0
   29.4682    4.2526   28.3498 C   0  0  0  0  0  0  0  0  0  0  0  0
   29.2392   15.0952   32.9932 C   0  0  0  0  0  0  0  0  0  0  0  0
   30.4447   15.1445   30.7828 C   0  0  0  0  0  0  0  0  0  0  0  0
   35.6139   13.4945   30.3494 C   0  0  0  0  0  0  0  0  0  0  0  0
   37.2285   11.7068   29.5758 C   0  0  0  0  0  0  0  0  0  0  0  0
   38.1181   13.7963   30.4255 C   0  0  0  0  0  0  0  0  0  0  0  0
   35.2554   11.9924   32.4377 C   0  0  0  0  0  0  0  0  0  0  0  0
   35.2274   13.4143   31.8382 C   0  0  0  0  0  0  0  0  0  0  0  0
   26.5388   12.4375   30.5306 C   0  0  0  0  0  0  0  0  0  0  0  0
   29.2682    3.1579   30.9384 C   0  0  0  0  0  0  0  0  0  0  0  0
   29.8493    2.7641   28.5012 C   0  0  0  0  0  0  0  0  0  0  0  0
   38.5305   11.2350   29.3779 C   0  0  0  0  0  0  0  0  0  0  0  0
   39.4184   13.3215   30.2235 C   0  0  0  0  0  0  0  0  0  0  0  0
   39.6248   12.0416   29.7010 C   0  0  0  0  0  0  0  0  0  0  0  0
   30.1156    2.3439   29.9584 C   0  0  0  0  0  0  0  0  0  0  0  0
   31.6695    8.9206   27.7066 H   0  0  0  0  0  0  0  0  0  0  0  0
   30.4918    9.9963   32.2625 H   0  0  0  0  0  0  0  0  0  0  0  0
   31.9684    8.9868   32.1395 H   0  0  0  0  0  0  0  0  0  0  0  0
   31.2893    7.0747   30.7861 H   0  0  0  0  0  0  0  0  0  0  0  0
   29.6348    7.7703   31.0906 H   0  0  0  0  0  0  0  0  0  0  0  0
   30.6002   12.8097   33.3762 H   0  0  0  0  0  0  0  0  0  0  0  0
   29.6847    7.0367   27.0653 H   0  0  0  0  0  0  0  0  0  0  0  0
   31.3402    6.6505   27.6757 H   0  0  0  0  0  0  0  0  0  0  0  0
   28.6999    6.7936   29.2059 H   0  0  0  0  0  0  0  0  0  0  0  0
   31.1974    4.9758   29.4275 H   0  0  0  0  0  0  0  0  0  0  0  0
   31.3653   15.1216   32.7267 H   0  0  0  0  0  0  0  0  0  0  0  0
   34.5166    9.9826   32.1361 H   0  0  0  0  0  0  0  0  0  0  0  0
   34.2647   11.0330   30.7209 H   0  0  0  0  0  0  0  0  0  0  0  0
   26.9379   10.5574   31.5318 H   0  0  0  0  0  0  0  0  0  0  0  0
   28.0553   10.9374   30.1701 H   0  0  0  0  0  0  0  0  0  0  0  0
   30.3580    4.9096   31.6149 H   0  0  0  0  0  0  0  0  0  0  0  0
   28.6636    5.2230   31.1330 H   0  0  0  0  0  0  0  0  0  0  0  0
   29.7967    4.5931   27.3462 H   0  0  0  0  0  0  0  0  0  0  0  0
   28.3607    4.3550   28.3893 H   0  0  0  0  0  0  0  0  0  0  0  0
   29.1885   16.2042   33.0079 H   0  0  0  0  0  0  0  0  0  0  0  0
   28.3165   14.7117   32.5133 H   0  0  0  0  0  0  0  0  0  0  0  0
   29.2784   14.7436   34.0451 H   0  0  0  0  0  0  0  0  0  0  0  0
   30.3926   16.2539   30.7638 H   0  0  0  0  0  0  0  0  0  0  0  0
   29.5564   14.7399   30.2546 H   0  0  0  0  0  0  0  0  0  0  0  0
   31.3579   14.8344   30.2354 H   0  0  0  0  0  0  0  0  0  0  0  0
   35.5529   14.5559   30.0287 H   0  0  0  0  0  0  0  0  0  0  0  0
   34.8788   12.9514   29.7188 H   0  0  0  0  0  0  0  0  0  0  0  0
   36.3905   11.0683   29.3225 H   0  0  0  0  0  0  0  0  0  0  0  0
   37.9704   14.7879   30.8367 H   0  0  0  0  0  0  0  0  0  0  0  0
   36.2737   11.5688   32.3108 H   0  0  0  0  0  0  0  0  0  0  0  0
   35.0840   12.0625   33.5360 H   0  0  0  0  0  0  0  0  0  0  0  0
   35.9323   14.0493   32.4186 H   0  0  0  0  0  0  0  0  0  0  0  0
   34.2236   13.8620   31.9780 H   0  0  0  0  0  0  0  0  0  0  0  0
   27.0948   13.2578   30.0279 H   0  0  0  0  0  0  0  0  0  0  0  0
   25.9545   12.8562   31.3799 H   0  0  0  0  0  0  0  0  0  0  0  0
   25.8348   11.9857   29.8012 H   0  0  0  0  0  0  0  0  0  0  0  0
   28.1924    2.9919   30.7073 H   0  0  0  0  0  0  0  0  0  0  0  0
   29.4451    2.7977   31.9745 H   0  0  0  0  0  0  0  0  0  0  0  0
   30.7610    2.5524   27.9013 H   0  0  0  0  0  0  0  0  0  0  0  0
   29.0267    2.1436   28.0816 H   0  0  0  0  0  0  0  0  0  0  0  0
   38.6897   10.2422   28.9765 H   0  0  0  0  0  0  0  0  0  0  0  0
   40.2665   13.9454   30.4783 H   0  0  0  0  0  0  0  0  0  0  0  0
   40.6330   11.6767   29.5495 H   0  0  0  0  0  0  0  0  0  0  0  0
   31.1914    2.4913   30.1997 H   0  0  0  0  0  0  0  0  0  0  0  0
   29.8885    1.2636   30.0797 H   0  0  0  0  0  0  0  0  0  0  0  0
  2  1  1  0
  3  1  1  0
  4  5  1  0
  5  2  1  0
  6  1  1  0
  4  7  1  6
  8  7  1  0
  9  3  1  0
  3 10  1  0
 11  6  1  0
 12  8  1  0
 13 12  1  0
 14  4  2  0
 15  2  2  0
 16 10  1  0
 17 10  2  0
 18 13  2  0
 11 19  1  0
  8 20  1  0
 22 28  1  0
 23 13  1  0
 24 19  1  0
 25 19  1  0
 26 20  1  0
 27 20  1  0
 28 32  1  0
 29 22  2  0
 30 22  1  0
 31 21  1  0
 32 31  1  0
 33 23  1  0
 34 24  1  0
 35 25  1  0
 36 29  1  0
 37 30  2  0
 38 36  2  0
 39 34  1  0
  9 11  1  0
 39 35  1  0
 38 37  1  0
  4 21  1  0
  3 40  1  6
  5 41  1  0
  5 42  1  0
  6 43  1  0
  6 44  1  0
  8 45  1  1
  9 46  1  0
  9 47  1  0
 11 48  1  6
 19 49  1  0
 20 50  1  0
 21 51  1  0
 21 52  1  0
 23 53  1  0
 23 54  1  0
 24 55  1  0
 24 56  1  0
 25 57  1  0
 25 58  1  0
 26 59  1  0
 26 60  1  0
 26 61  1  0
 27 62  1  0
 27 63  1  0
 27 64  1  0
 28 65  1  0
 28 66  1  0
 29 67  1  0
 30 68  1  0
 31 69  1  0
 31 70  1  0
 32 71  1  0
 32 72  1  0
 33 73  1  0
 33 74  1  0
 33 75  1  0
 34 76  1  0
 34 77  1  0
 35 78  1  0
 35 79  1  0
 36 80  1  0
 37 81  1  0
 38 82  1  0
 39 83  1  0
 39 84  1  0
M  CHG  1  16  -1
M  END
> <Uni-Dock RESULT> 
ENERGY=   -3.983  LOWER_BOUND=    0.000  UPPER_BOUND=    0.000
INTER + INTRA:          -3.983
INTER:                  -3.983
INTRA:                   0.000
UNBOUND:                 0.000

$$$$

     RDKit          3D

 84 86  0  0  0  0  0  0  0  0999 V2000
   31.7077    9.6048   28.3699 N   0  0  0  0  0  0  0  0  0  0  0  0
   30.5855   10.3021   27.7987 C   0  0  0  0  0  0  0  0  0  0  0  0
   32.0928    8.2571   27.9787 C   0  0  1  0  0  0  0  0  0  0  0  0
   29.0554   12.5306   27.1142 P   0  0  1  0  0  0  0  0  0  0  0  0
   30.2793   11.7232   28.2045 C   0  0  0  0  0  0  0  0  0  0  0  0
   32.6379   10.1996   29.3173 C   0  0  0  0  0  0  0  0  0  0  0  0
   27.6301   11.5946   26.9717 O   0  0  0  0  0  0  0  0  0  0  0  0
   26.9690   11.5091   28.2187 C   0  0  2  0  0  0  0  0  0  0  0  0
   33.4885    8.0536   28.5696 C   0  0  0  0  0  0  0  0  0  0  0  0
   31.1078    7.2565   28.5178 C   0  0  0  0  0  0  0  0  0  0  0  0
   33.6047    9.0752   29.7116 C   0  0  1  0  0  0  0  0  0  0  0  0
   27.5674   10.4637   28.9934 O   0  0  0  0  0  0  0  0  0  0  0  0
   27.6553   10.4673   30.3908 C   0  0  0  0  0  0  0  0  0  0  0  0
   28.7339   13.9040   27.6625 O   0  0  0  0  0  0  0  0  0  0  0  0
   29.8309    9.6966   26.9891 O   0  0  0  0  0  0  0  0  0  0  0  0
   30.3425    6.4961   27.6387 O   0  0  0  0  0  0  0  0  0  0  0  0
   30.9591    7.1072   29.7597 O   0  0  0  0  0  0  0  0  0  0  0  0
   27.2445   11.4514   31.0635 O   0  0  0  0  0  0  0  0  0  0  0  0
   35.0578    9.5706   29.9536 C   0  0  0  0  0  0  0  0  0  0  0  0
   25.4793   11.1918   27.9483 C   0  0  0  0  0  0  0  0  0  0  0  0
   29.8251   12.7226   25.4695 C   0  0  0  0  0  0  0  0  0  0  0  0
   28.8888   12.0361   21.8266 C   0  0  0  0  0  0  0  0  0  0  0  0
   28.2163    9.2711   31.0897 C   0  0  0  0  0  0  0  0  0  0  0  0
   35.0957   10.6880   31.0340 C   0  0  0  0  0  0  0  0  0  0  0  0
   35.9913    8.4079   30.3576 C   0  0  0  0  0  0  0  0  0  0  0  0
   24.6201   11.3332   29.2103 C   0  0  0  0  0  0  0  0  0  0  0  0
   25.2944    9.7972   27.3321 C   0  0  0  0  0  0  0  0  0  0  0  0
   28.0600   11.6502   23.0252 C   0  0  0  0  0  0  0  0  0  0  0  0
   30.2721   11.7900   21.8052 C   0  0  0  0  0  0  0  0  0  0  0  0
   28.2890   12.6853   20.7352 C   0  0  0  0  0  0  0  0  0  0  0  0
   28.9779   13.5751   24.5078 C   0  0  0  0  0  0  0  0  0  0  0  0
   27.7412   12.8597   23.9238 C   0  0  0  0  0  0  0  0  0  0  0  0
   27.0992    8.3105   31.4768 C   0  0  0  0  0  0  0  0  0  0  0  0
   36.4490   10.8059   31.7644 C   0  0  0  0  0  0  0  0  0  0  0  0
   37.4608    8.8638   30.4850 C   0  0  0  0  0  0  0  0  0  0  0  0
   31.0410   12.1822   20.7043 C   0  0  0  0  0  0  0  0  0  0  0  0
   29.0612   13.0735   19.6352 C   0  0  0  0  0  0  0  0  0  0  0  0
   30.4362   12.8231   19.6198 C   0  0  0  0  0  0  0  0  0  0  0  0
   37.6120   10.3431   30.8846 C   0  0  0  0  0  0  0  0  0  0  0  0
   32.1407    8.1807   26.8688 H   0  0  0  0  0  0  0  0  0  0  0  0
   29.9057   11.7368   29.2476 H   0  0  0  0  0  0  0  0  0  0  0  0
   31.2090   12.3268   28.1670 H   0  0  0  0  0  0  0  0  0  0  0  0
   33.1737   11.0373   28.8202 H   0  0  0  0  0  0  0  0  0  0  0  0
   32.0937   10.5764   30.2114 H   0  0  0  0  0  0  0  0  0  0  0  0
   27.0100   12.4798   28.7678 H   0  0  0  0  0  0  0  0  0  0  0  0
   33.6507    7.0148   28.9328 H   0  0  0  0  0  0  0  0  0  0  0  0
   34.2432    8.2743   27.7816 H   0  0  0  0  0  0  0  0  0  0  0  0
   33.2231    8.5969   30.6431 H   0  0  0  0  0  0  0  0  0  0  0  0
   35.4425    9.9983   28.9996 H   0  0  0  0  0  0  0  0  0  0  0  0
   25.1034   11.9363   27.2116 H   0  0  0  0  0  0  0  0  0  0  0  0
   30.8019   13.2298   25.6168 H   0  0  0  0  0  0  0  0  0  0  0  0
   30.0435   11.7242   25.0445 H   0  0  0  0  0  0  0  0  0  0  0  0
   28.7676    9.5907   32.0004 H   0  0  0  0  0  0  0  0  0  0  0  0
   28.9292    8.7550   30.4120 H   0  0  0  0  0  0  0  0  0  0  0  0
   34.8672   11.6613   30.5478 H   0  0  0  0  0  0  0  0  0  0  0  0
   34.3088   10.5114   31.7997 H   0  0  0  0  0  0  0  0  0  0  0  0
   35.9473    7.5877   29.6117 H   0  0  0  0  0  0  0  0  0  0  0  0
   35.6495    7.9903   31.3310 H   0  0  0  0  0  0  0  0  0  0  0  0
   23.5481   11.2026   28.9529 H   0  0  0  0  0  0  0  0  0  0  0  0
   24.8906   10.5709   29.9683 H   0  0  0  0  0  0  0  0  0  0  0  0
   24.7428   12.3453   29.6486 H   0  0  0  0  0  0  0  0  0  0  0  0
   24.2287    9.6354   27.0638 H   0  0  0  0  0  0  0  0  0  0  0  0
   25.6025    9.0070   28.0479 H   0  0  0  0  0  0  0  0  0  0  0  0
   25.8997    9.6981   26.4082 H   0  0  0  0  0  0  0  0  0  0  0  0
   27.1016   11.2156   22.6704 H   0  0  0  0  0  0  0  0  0  0  0  0
   28.5544   10.8434   23.6063 H   0  0  0  0  0  0  0  0  0  0  0  0
   30.7562   11.2962   22.6394 H   0  0  0  0  0  0  0  0  0  0  0  0
   27.2248   12.8900   20.7386 H   0  0  0  0  0  0  0  0  0  0  0  0
   29.6256   13.9133   23.6718 H   0  0  0  0  0  0  0  0  0  0  0  0
   28.6436   14.4984   25.0334 H   0  0  0  0  0  0  0  0  0  0  0  0
   27.1633   13.5985   23.3262 H   0  0  0  0  0  0  0  0  0  0  0  0
   27.0710   12.5364   24.7448 H   0  0  0  0  0  0  0  0  0  0  0  0
   26.5405    7.9834   30.5737 H   0  0  0  0  0  0  0  0  0  0  0  0
   26.3968    8.8035   32.1851 H   0  0  0  0  0  0  0  0  0  0  0  0
   27.5339    7.4160   31.9696 H   0  0  0  0  0  0  0  0  0  0  0  0
   36.4270   10.1847   32.6873 H   0  0  0  0  0  0  0  0  0  0  0  0
   36.6124   11.8596   32.0766 H   0  0  0  0  0  0  0  0  0  0  0  0
   37.9830    8.7053   29.5164 H   0  0  0  0  0  0  0  0  0  0  0  0
   37.9661    8.2227   31.2410 H   0  0  0  0  0  0  0  0  0  0  0  0
   32.1065   11.9912   20.6945 H   0  0  0  0  0  0  0  0  0  0  0  0
   28.5927   13.5744   18.7967 H   0  0  0  0  0  0  0  0  0  0  0  0
   31.0308   13.1284   18.7679 H   0  0  0  0  0  0  0  0  0  0  0  0
   37.6496   10.9756   29.9704 H   0  0  0  0  0  0  0  0  0  0  0  0
   38.5690   10.4833   31.4303 H   0  0  0  0  0  0  0  0  0  0  0  0
  2  1  1  0
  3  1  1  0
  4  5  1  0
  5  2  1  0
  6  1  1  0
  4  7  1  6
  8  7  1  0
  9  3  1  0
  3 10  1  0
 11  6  1  0
 12  8  1  0
 13 12  1  0
 14  4  2  0
 15  2  2  0
 16 10  1  0
 17 10  2  0
 18 13  2  0
 11 19  1  0
  8 20  1  0
 22 28  1  0
 23 13  1  0
 24 19  1  0
 25 19  1  0
 26 20  1  0
 27 20  1  0
 28 32  1  0
 29 22  2  0
 30 22  1  0
 31 21  1  0
 32 31  1  0
 33 23  1  0
 34 24  1  0
 35 25  1  0
 36 29  1  0
 37 30  2  0
 38 36  2  0
 39 34  1  0
  9 11  1  0
 39 35  1  0
 38 37  1  0
  4 21  1  0
  3 40  1  6
  5 41  1  0
  5 42  1  0
  6 43  1  0
  6 44  1  0
  8 45  1  1
  9 46  1  0
  9 47  1  0
 11 48  1  6
 19 49  1  0
 20 50  1  0
 21 51  1  0
 21 52  1  0
 23 53  1  0
 23 54  1  0
 24 55  1  0
 24 56  1  0
 25 57  1  0
 25 58  1  0
 26 59  1  0
 26 60  1  0
 26 61  1  0
 27 62  1  0
 27 63  1  0
 27 64  1  0
 28 65  1  0
 28 66  1  0
 29 67  1  0
 30 68  1  0
 31 69  1  0
 31 70  1  0
 32 71  1  0
 32 72  1  0
 33 73  1  0
 33 74  1  0
 33 75  1  0
 34 76  1  0
 34 77  1  0
 35 78  1  0
 35 79  1  0
 36 80  1  0
 37 81  1  0
 38 82  1  0
 39 83  1  0
 39 84  1  0
M  CHG  1  16  -1
M  END
> <Uni-Dock RESULT> 
ENERGY=   -3.602  LOWER_BOUND=    4.142  UPPER_BOUND=    7.857
INTER + INTRA:          -3.602
INTER:                  -3.602
INTRA:                   0.000
UNBOUND:                 0.000

$$$$

     RDKit          3D

 84 86  0  0  0  0  0  0  0  0999 V2000
   33.0735   13.0028   26.4020 N   0  0  0  0  0  0  0  0  0  0  0  0
   32.5181   12.5902   27.6643 C   0  0  0  0  0  0  0  0  0  0  0  0
   33.3318   12.0823   25.3050 C   0  0  1  0  0  0  0  0  0  0  0  0
   31.1985   12.9326   30.0968 P   0  0  1  0  0  0  0  0  0  0  0  0
   32.2162   13.6075   28.7375 C   0  0  0  0  0  0  0  0  0  0  0  0
   33.3396   14.3877   26.0446 C   0  0  0  0  0  0  0  0  0  0  0  0
   31.8914   11.5118   30.7519 O   0  0  0  0  0  0  0  0  0  0  0  0
   33.1294   11.8056   31.3687 C   0  0  2  0  0  0  0  0  0  0  0  0
   33.5903   12.9731   24.0892 C   0  0  0  0  0  0  0  0  0  0  0  0
   34.5181   11.2137   25.6220 C   0  0  0  0  0  0  0  0  0  0  0  0
   33.9994   14.3398   24.6601 C   0  0  1  0  0  0  0  0  0  0  0  0
   34.1541   11.8335   30.3686 O   0  0  0  0  0  0  0  0  0  0  0  0
   35.2928   12.6463   30.4267 C   0  0  0  0  0  0  0  0  0  0  0  0
   31.0425   13.9885   31.1697 O   0  0  0  0  0  0  0  0  0  0  0  0
   32.3299   11.3621   27.8828 O   0  0  0  0  0  0  0  0  0  0  0  0
   34.3523    9.8386   25.7578 O   0  0  0  0  0  0  0  0  0  0  0  0
   35.6609   11.7199   25.7780 O   0  0  0  0  0  0  0  0  0  0  0  0
   35.4569   13.4653   31.3710 O   0  0  0  0  0  0  0  0  0  0  0  0
   33.6034   15.5350   23.7488 C   0  0  0  0  0  0  0  0  0  0  0  0
   33.4211   10.6954   32.4057 C   0  0  0  0  0  0  0  0  0  0  0  0
   29.5505   12.5468   29.4117 C   0  0  0  0  0  0  0  0  0  0  0  0
   27.0914    9.6198   29.4748 C   0  0  0  0  0  0  0  0  0  0  0  0
   36.3391   12.5131   29.3676 C   0  0  0  0  0  0  0  0  0  0  0  0
   33.9319   16.8925   24.4318 C   0  0  0  0  0  0  0  0  0  0  0  0
   34.2985   15.4500   22.3718 C   0  0  0  0  0  0  0  0  0  0  0  0
   34.6053   11.0490   33.3132 C   0  0  0  0  0  0  0  0  0  0  0  0
   33.6527    9.3331   31.7352 C   0  0  0  0  0  0  0  0  0  0  0  0
   28.4800    9.6019   30.0612 C   0  0  0  0  0  0  0  0  0  0  0  0
   26.8652   10.1402   28.1893 C   0  0  0  0  0  0  0  0  0  0  0  0
   26.0025    9.1530   30.2290 C   0  0  0  0  0  0  0  0  0  0  0  0
   28.5267   12.1623   30.4950 C   0  0  0  0  0  0  0  0  0  0  0  0
   28.6968   10.7417   31.0741 C   0  0  0  0  0  0  0  0  0  0  0  0
   37.4106   11.5213   29.8023 C   0  0  0  0  0  0  0  0  0  0  0  0
   34.1553   18.0531   23.4408 C   0  0  0  0  0  0  0  0  0  0  0  0
   33.8232   16.5642   21.4146 C   0  0  0  0  0  0  0  0  0  0  0  0
   25.5690   10.1857   27.6652 C   0  0  0  0  0  0  0  0  0  0  0  0
   24.7082    9.1980   29.7000 C   0  0  0  0  0  0  0  0  0  0  0  0
   24.4912    9.7147   28.4195 C   0  0  0  0  0  0  0  0  0  0  0  0
   33.3772   17.8473   22.1396 C   0  0  0  0  0  0  0  0  0  0  0  0
   32.4361   11.4469   25.1207 H   0  0  0  0  0  0  0  0  0  0  0  0
   33.1660   14.0003   29.1515 H   0  0  0  0  0  0  0  0  0  0  0  0
   31.6593   14.4582   28.2944 H   0  0  0  0  0  0  0  0  0  0  0  0
   32.3777   14.9443   26.0147 H   0  0  0  0  0  0  0  0  0  0  0  0
   34.0243   14.8555   26.7861 H   0  0  0  0  0  0  0  0  0  0  0  0
   33.0891   12.7754   31.9193 H   0  0  0  0  0  0  0  0  0  0  0  0
   34.3743   12.5602   23.4167 H   0  0  0  0  0  0  0  0  0  0  0  0
   32.6436   13.0684   23.5113 H   0  0  0  0  0  0  0  0  0  0  0  0
   35.1050   14.3390   24.7998 H   0  0  0  0  0  0  0  0  0  0  0  0
   32.5037   15.4912   23.5766 H   0  0  0  0  0  0  0  0  0  0  0  0
   32.5255   10.5994   33.0592 H   0  0  0  0  0  0  0  0  0  0  0  0
   29.1842   13.4580   28.8935 H   0  0  0  0  0  0  0  0  0  0  0  0
   29.6455   11.7571   28.6420 H   0  0  0  0  0  0  0  0  0  0  0  0
   36.8035   13.5033   29.1699 H   0  0  0  0  0  0  0  0  0  0  0  0
   35.8636   12.1558   28.4295 H   0  0  0  0  0  0  0  0  0  0  0  0
   33.0945   17.1608   25.1118 H   0  0  0  0  0  0  0  0  0  0  0  0
   34.8458   16.7982   25.0584 H   0  0  0  0  0  0  0  0  0  0  0  0
   34.1004   14.4712   21.8883 H   0  0  0  0  0  0  0  0  0  0  0  0
   35.3990   15.5327   22.5157 H   0  0  0  0  0  0  0  0  0  0  0  0
   34.7140   10.2809   34.1074 H   0  0  0  0  0  0  0  0  0  0  0  0
   35.5528   11.0917   32.7394 H   0  0  0  0  0  0  0  0  0  0  0  0
   34.4326   12.0269   33.8086 H   0  0  0  0  0  0  0  0  0  0  0  0
   33.7665    8.5414   32.5061 H   0  0  0  0  0  0  0  0  0  0  0  0
   34.5701    9.3531   31.1110 H   0  0  0  0  0  0  0  0  0  0  0  0
   32.7892    9.0652   31.0930 H   0  0  0  0  0  0  0  0  0  0  0  0
   28.6330    8.6346   30.5848 H   0  0  0  0  0  0  0  0  0  0  0  0
   29.2491    9.6306   29.2608 H   0  0  0  0  0  0  0  0  0  0  0  0
   27.6901   10.5115   27.5929 H   0  0  0  0  0  0  0  0  0  0  0  0
   26.1579    8.7557   31.2252 H   0  0  0  0  0  0  0  0  0  0  0  0
   27.5069   12.2559   30.0662 H   0  0  0  0  0  0  0  0  0  0  0  0
   28.5808   12.8986   31.3289 H   0  0  0  0  0  0  0  0  0  0  0  0
   27.9681   10.6164   31.9049 H   0  0  0  0  0  0  0  0  0  0  0  0
   29.7021   10.6384   31.5282 H   0  0  0  0  0  0  0  0  0  0  0  0
   36.9580   10.5265   30.0027 H   0  0  0  0  0  0  0  0  0  0  0  0
   37.9206   11.8851   30.7218 H   0  0  0  0  0  0  0  0  0  0  0  0
   38.1645   11.4131   28.9949 H   0  0  0  0  0  0  0  0  0  0  0  0
   35.2393   18.1332   23.2026 H   0  0  0  0  0  0  0  0  0  0  0  0
   33.8471   19.0102   23.9135 H   0  0  0  0  0  0  0  0  0  0  0  0
   32.9724   16.1903   20.8046 H   0  0  0  0  0  0  0  0  0  0  0  0
   34.6519   16.8050   20.7124 H   0  0  0  0  0  0  0  0  0  0  0  0
   25.4011   10.5893   26.6748 H   0  0  0  0  0  0  0  0  0  0  0  0
   23.8724    8.8368   30.2868 H   0  0  0  0  0  0  0  0  0  0  0  0
   23.4872    9.7509   28.0152 H   0  0  0  0  0  0  0  0  0  0  0  0
   32.2910   17.7874   22.3720 H   0  0  0  0  0  0  0  0  0  0  0  0
   33.5309   18.7219   21.4728 H   0  0  0  0  0  0  0  0  0  0  0  0
  2  1  1  0
  3  1  1  0
  4  5  1  0
  5  2  1  0
  6  1  1  0
  4  7  1  6
  8  7  1  0
  9  3  1  0
  3 10  1  0
 11  6  1  0
 12  8  1  0
 13 12  1  0
 14  4  2  0
 15  2  2  0
 16 10  1  0
 17 10  2  0
 18 13  2  0
 11 19  1  0
  8 20  1  0
 22 28  1  0
 23 13  1  0
 24 19  1  0
 25 19  1  0
 26 20  1  0
 27 20  1  0
 28 32  1  0
 29 22  2  0
 30 22  1  0
 31 21  1  0
 32 31  1  0
 33 23  1  0
 34 24  1  0
 35 25  1  0
 36 29  1  0
 37 30  2  0
 38 36  2  0
 39 34  1  0
  9 11  1  0
 39 35  1  0
 38 37  1  0
  4 21  1  0
  3 40  1  6
  5 41  1  0
  5 42  1  0
  6 43  1  0
  6 44  1  0
  8 45  1  1
  9 46  1  0
  9 47  1  0
 11 48  1  6
 19 49  1  0
 20 50  1  0
 21 51  1  0
 21 52  1  0
 23 53  1  0
 23 54  1  0
 24 55  1  0
 24 56  1  0
 25 57  1  0
 25 58  1  0
 26 59  1  0
 26 60  1  0
 26 61  1  0
 27 62  1  0
 27 63  1  0
 27 64  1  0
 28 65  1  0
 28 66  1  0
 29 67  1  0
 30 68  1  0
 31 69  1  0
 31 70  1  0
 32 71  1  0
 32 72  1  0
 33 73  1  0
 33 74  1  0
 33 75  1  0
 34 76  1  0
 34 77  1  0
 35 78  1  0
 35 79  1  0
 36 80  1  0
 37 81  1  0
 38 82  1  0
 39 83  1  0
 39 84  1  0
M  CHG  1  16  -1
M  END
> <Uni-Dock RESULT> 
ENERGY=   -3.581  LOWER_BOUND=    4.576  UPPER_BOUND=    9.577
INTER + INTRA:          -3.581
INTER:                  -3.581
INTRA:                   0.000
UNBOUND:                 0.000

$$$$

     RDKit          3D

 84 86  0  0  0  0  0  0  0  0999 V2000
   25.1863   10.0476   30.4010 N   0  0  0  0  0  0  0  0  0  0  0  0
   26.4075    9.2986   30.5415 C   0  0  0  0  0  0  0  0  0  0  0  0
   24.2290    9.8192   29.3291 C   0  0  1  0  0  0  0  0  0  0  0  0
   28.6137    8.2600   31.8941 P   0  0  1  0  0  0  0  0  0  0  0  0
   27.3260    9.5438   31.7137 C   0  0  0  0  0  0  0  0  0  0  0  0
   24.7236   11.0361   31.3630 C   0  0  0  0  0  0  0  0  0  0  0  0
   29.4904    8.0439   30.4406 O   0  0  0  0  0  0  0  0  0  0  0  0
   30.2195    9.2137   30.1254 C   0  0  2  0  0  0  0  0  0  0  0  0
   22.9687   10.5748   29.7520 C   0  0  0  0  0  0  0  0  0  0  0  0
   24.7751   10.3318   28.0248 C   0  0  0  0  0  0  0  0  0  0  0  0
   23.4417   11.6299   30.7641 C   0  0  1  0  0  0  0  0  0  0  0  0
   29.3536   10.1369   29.4553 O   0  0  0  0  0  0  0  0  0  0  0  0
   29.4657   11.5300   29.5414 C   0  0  0  0  0  0  0  0  0  0  0  0
   29.5457    8.6487   33.0213 O   0  0  0  0  0  0  0  0  0  0  0  0
   26.7264    8.4667   29.6483 O   0  0  0  0  0  0  0  0  0  0  0  0
   25.0302    9.4433   26.9844 O   0  0  0  0  0  0  0  0  0  0  0  0
   25.0160   11.5582   27.8675 O   0  0  0  0  0  0  0  0  0  0  0  0
   30.3339   12.0658   30.2821 O   0  0  0  0  0  0  0  0  0  0  0  0
   22.3713   11.9858   31.8334 C   0  0  0  0  0  0  0  0  0  0  0  0
   31.3927    8.8102   29.2013 C   0  0  0  0  0  0  0  0  0  0  0  0
   27.7769    6.6992   32.3387 C   0  0  0  0  0  0  0  0  0  0  0  0
   27.8411    3.0489   31.2029 C   0  0  0  0  0  0  0  0  0  0  0  0
   28.5608   12.3871   28.7165 C   0  0  0  0  0  0  0  0  0  0  0  0
   22.9461   12.9629   32.8974 C   0  0  0  0  0  0  0  0  0  0  0  0
   21.1049   12.5888   31.1861 C   0  0  0  0  0  0  0  0  0  0  0  0
   32.3960    9.9535   29.0087 C   0  0  0  0  0  0  0  0  0  0  0  0
   30.8986    8.3006   27.8392 C   0  0  0  0  0  0  0  0  0  0  0  0
   28.5904    4.1784   30.5430 C   0  0  0  0  0  0  0  0  0  0  0  0
   26.4910    3.2006   31.5619 C   0  0  0  0  0  0  0  0  0  0  0  0
   28.5014    1.8462   31.5028 C   0  0  0  0  0  0  0  0  0  0  0  0
   28.7616    5.5802   32.7229 C   0  0  0  0  0  0  0  0  0  0  0  0
   29.4997    4.9285   31.5343 C   0  0  0  0  0  0  0  0  0  0  0  0
   29.2218   12.7313   27.3878 C   0  0  0  0  0  0  0  0  0  0  0  0
   21.8757   13.8241   33.5983 C   0  0  0  0  0  0  0  0  0  0  0  0
   19.9877   12.8364   32.2226 C   0  0  0  0  0  0  0  0  0  0  0  0
   25.8116    2.1607   32.2054 C   0  0  0  0  0  0  0  0  0  0  0  0
   27.8174    0.8080   32.1441 C   0  0  0  0  0  0  0  0  0  0  0  0
   26.4738    0.9651   32.4959 C   0  0  0  0  0  0  0  0  0  0  0  0
   20.5178   13.1205   33.6401 C   0  0  0  0  0  0  0  0  0  0  0  0
   24.0036    8.7321   29.2437 H   0  0  0  0  0  0  0  0  0  0  0  0
   27.8096   10.5345   31.6027 H   0  0  0  0  0  0  0  0  0  0  0  0
   26.7336    9.5562   32.6512 H   0  0  0  0  0  0  0  0  0  0  0  0
   24.5202   10.5299   32.3317 H   0  0  0  0  0  0  0  0  0  0  0  0
   25.4907   11.8291   31.5044 H   0  0  0  0  0  0  0  0  0  0  0  0
   30.6587    9.6777   31.0404 H   0  0  0  0  0  0  0  0  0  0  0  0
   22.4422   11.0423   28.8907 H   0  0  0  0  0  0  0  0  0  0  0  0
   22.2734    9.8582   30.2442 H   0  0  0  0  0  0  0  0  0  0  0  0
   23.7139   12.5519   30.2004 H   0  0  0  0  0  0  0  0  0  0  0  0
   22.0723   11.0462   32.3518 H   0  0  0  0  0  0  0  0  0  0  0  0
   31.9390    7.9751   29.6936 H   0  0  0  0  0  0  0  0  0  0  0  0
   27.1273    6.9081   33.2147 H   0  0  0  0  0  0  0  0  0  0  0  0
   27.1095    6.3888   31.5120 H   0  0  0  0  0  0  0  0  0  0  0  0
   28.3204   13.3216   29.2682 H   0  0  0  0  0  0  0  0  0  0  0  0
   27.6136   11.8389   28.5269 H   0  0  0  0  0  0  0  0  0  0  0  0
   23.4883   12.3720   33.6672 H   0  0  0  0  0  0  0  0  0  0  0  0
   23.6854   13.6502   32.4308 H   0  0  0  0  0  0  0  0  0  0  0  0
   20.7039   11.9165   30.3998 H   0  0  0  0  0  0  0  0  0  0  0  0
   21.3720   13.5514   30.6955 H   0  0  0  0  0  0  0  0  0  0  0  0
   33.2722    9.5924   28.4302 H   0  0  0  0  0  0  0  0  0  0  0  0
   31.9402   10.7997   28.4565 H   0  0  0  0  0  0  0  0  0  0  0  0
   32.7638   10.3132   29.9920 H   0  0  0  0  0  0  0  0  0  0  0  0
   31.7547    7.9322   27.2348 H   0  0  0  0  0  0  0  0  0  0  0  0
   30.3916    9.1117   27.2764 H   0  0  0  0  0  0  0  0  0  0  0  0
   30.1872    7.4607   27.9743 H   0  0  0  0  0  0  0  0  0  0  0  0
   29.2252    3.7597   29.7338 H   0  0  0  0  0  0  0  0  0  0  0  0
   27.8905    4.8779   30.0392 H   0  0  0  0  0  0  0  0  0  0  0  0
   25.9642    4.1224   31.3456 H   0  0  0  0  0  0  0  0  0  0  0  0
   29.5445    1.7153   31.2401 H   0  0  0  0  0  0  0  0  0  0  0  0
   28.2049    4.7941   33.2749 H   0  0  0  0  0  0  0  0  0  0  0  0
   29.5158    5.9840   33.4360 H   0  0  0  0  0  0  0  0  0  0  0  0
   30.2444    4.2093   31.9409 H   0  0  0  0  0  0  0  0  0  0  0  0
   30.0808    5.6959   30.9858 H   0  0  0  0  0  0  0  0  0  0  0  0
   29.4668   11.8042   26.8265 H   0  0  0  0  0  0  0  0  0  0  0  0
   30.1542   13.3130   27.5618 H   0  0  0  0  0  0  0  0  0  0  0  0
   28.5273   13.3444   26.7764 H   0  0  0  0  0  0  0  0  0  0  0  0
   21.7639   14.7895   33.0562 H   0  0  0  0  0  0  0  0  0  0  0  0
   22.2068   14.0599   34.6324 H   0  0  0  0  0  0  0  0  0  0  0  0
   19.3206   11.9483   32.2673 H   0  0  0  0  0  0  0  0  0  0  0  0
   19.3704   13.6959   31.8792 H   0  0  0  0  0  0  0  0  0  0  0  0
   24.7720    2.2844   32.4809 H   0  0  0  0  0  0  0  0  0  0  0  0
   28.3324   -0.1171   32.3732 H   0  0  0  0  0  0  0  0  0  0  0  0
   25.9491    0.1602   32.9953 H   0  0  0  0  0  0  0  0  0  0  0  0
   20.6215   12.1646   34.1993 H   0  0  0  0  0  0  0  0  0  0  0  0
   19.7883   13.7536   34.1882 H   0  0  0  0  0  0  0  0  0  0  0  0
  2  1  1  0
  3  1  1  0
  4  5  1  0
  5  2  1  0
  6  1  1  0
  4  7  1  6
  8  7  1  0
  9  3  1  0
  3 10  1  0
 11  6  1  0
 12  8  1  0
 13 12  1  0
 14  4  2  0
 15  2  2  0
 16 10  1  0
 17 10  2  0
 18 13  2  0
 11 19  1  0
  8 20  1  0
 22 28  1  0
 23 13  1  0
 24 19  1  0
 25 19  1  0
 26 20  1  0
 27 20  1  0
 28 32  1  0
 29 22  2  0
 30 22  1  0
 31 21  1  0
 32 31  1  0
 33 23  1  0
 34 24  1  0
 35 25  1  0
 36 29  1  0
 37 30  2  0
 38 36  2  0
 39 34  1  0
  9 11  1  0
 39 35  1  0
 38 37  1  0
  4 21  1  0
  3 40  1  6
  5 41  1  0
  5 42  1  0
  6 43  1  0
  6 44  1  0
  8 45  1  1
  9 46  1  0
  9 47  1  0
 11 48  1  6
 19 49  1  0
 20 50  1  0
 21 51  1  0
 21 52  1  0
 23 53  1  0
 23 54  1  0
 24 55  1  0
 24 56  1  0
 25 57  1  0
 25 58  1  0
 26 59  1  0
 26 60  1  0
 26 61  1  0
 27 62  1  0
 27 63  1  0
 27 64  1  0
 28 65  1  0
 28 66  1  0
 29 67  1  0
 30 68  1  0
 31 69  1  0
 31 70  1  0
 32 71  1  0
 32 72  1  0
 33 73  1  0
 33 74  1  0
 33 75  1  0
 34 76  1  0
 34 77  1  0
 35 78  1  0
 35 79  1  0
 36 80  1  0
 37 81  1  0
 38 82  1  0
 39 83  1  0
 39 84  1  0
M  CHG  1  16  -1
M  END
> <Uni-Dock RESULT> 
ENERGY=   -3.569  LOWER_BOUND=    3.919  UPPER_BOUND=    9.520
INTER + INTRA:          -3.569
INTER:                  -3.569
INTRA:                   0.000
UNBOUND:                 0.000

$$$$

     RDKit          3D

 84 86  0  0  0  0  0  0  0  0999 V2000
   25.6157   11.9851   18.9726 N   0  0  0  0  0  0  0  0  0  0  0  0
   26.7316   12.5979   19.6443 C   0  0  0  0  0  0  0  0  0  0  0  0
   25.0892   12.4618   17.7026 C   0  0  1  0  0  0  0  0  0  0  0  0
   28.8829   12.7160   21.4146 P   0  0  1  0  0  0  0  0  0  0  0  0
   27.2675   12.0136   20.9286 C   0  0  0  0  0  0  0  0  0  0  0  0
   24.9602   10.7690   19.4288 C   0  0  0  0  0  0  0  0  0  0  0  0
   28.8305   14.4252   21.4731 O   0  0  0  0  0  0  0  0  0  0  0  0
   27.9520   14.8574   22.4934 C   0  0  2  0  0  0  0  0  0  0  0  0
   24.1629   11.3486   17.2116 C   0  0  0  0  0  0  0  0  0  0  0  0
   24.3497   13.7568   17.8982 C   0  0  0  0  0  0  0  0  0  0  0  0
   23.7878   10.5427   18.4650 C   0  0  1  0  0  0  0  0  0  0  0  0
   26.6107   14.8424   21.9916 O   0  0  0  0  0  0  0  0  0  0  0  0
   25.4774   14.5890   22.7740 C   0  0  0  0  0  0  0  0  0  0  0  0
   29.2828   12.1524   22.7610 O   0  0  0  0  0  0  0  0  0  0  0  0
   27.2283   13.6575   19.1732 O   0  0  0  0  0  0  0  0  0  0  0  0
   24.8189   14.9197   17.2946 O   0  0  0  0  0  0  0  0  0  0  0  0
   23.3142   13.8027   18.6140 O   0  0  0  0  0  0  0  0  0  0  0  0
   25.5853   14.2981   23.9960 O   0  0  0  0  0  0  0  0  0  0  0  0
   23.5111    9.0409   18.1756 C   0  0  0  0  0  0  0  0  0  0  0  0
   28.3587   16.2946   22.8961 C   0  0  0  0  0  0  0  0  0  0  0  0
   30.1103   12.1863   20.1708 C   0  0  0  0  0  0  0  0  0  0  0  0
   32.8649   13.8031   18.0692 C   0  0  0  0  0  0  0  0  0  0  0  0
   24.1225   14.6977   22.1523 C   0  0  0  0  0  0  0  0  0  0  0  0
   23.2573    8.2546   19.4926 C   0  0  0  0  0  0  0  0  0  0  0  0
   22.3181    8.8621   17.2106 C   0  0  0  0  0  0  0  0  0  0  0  0
   27.6422   16.7629   24.1681 C   0  0  0  0  0  0  0  0  0  0  0  0
   28.1258   17.2958   21.7548 C   0  0  0  0  0  0  0  0  0  0  0  0
   31.9005   14.5456   18.9587 C   0  0  0  0  0  0  0  0  0  0  0  0
   32.4061   12.8020   17.1964 C   0  0  0  0  0  0  0  0  0  0  0  0
   34.2404   14.0786   18.1370 C   0  0  0  0  0  0  0  0  0  0  0  0
   31.5554   12.5368   20.5685 C   0  0  0  0  0  0  0  0  0  0  0  0
   31.9301   14.0255   20.4081 C   0  0  0  0  0  0  0  0  0  0  0  0
   23.5586   16.0989   22.3507 C   0  0  0  0  0  0  0  0  0  0  0  0
   22.4076    6.9810   19.3065 C   0  0  0  0  0  0  0  0  0  0  0  0
   22.1068    7.3832   16.8205 C   0  0  0  0  0  0  0  0  0  0  0  0
   33.3108   12.0929   16.3991 C   0  0  0  0  0  0  0  0  0  0  0  0
   35.1414   13.3689   17.3361 C   0  0  0  0  0  0  0  0  0  0  0  0
   34.6774   12.3762   16.4683 C   0  0  0  0  0  0  0  0  0  0  0  0
   22.5674    6.3909   17.9039 C   0  0  0  0  0  0  0  0  0  0  0  0
   25.9198   12.6067   16.9751 H   0  0  0  0  0  0  0  0  0  0  0  0
   26.5356   12.1804   21.7437 H   0  0  0  0  0  0  0  0  0  0  0  0
   27.4019   10.9192   20.8092 H   0  0  0  0  0  0  0  0  0  0  0  0
   25.6869    9.9288   19.3854 H   0  0  0  0  0  0  0  0  0  0  0  0
   24.5893   10.8949   20.4700 H   0  0  0  0  0  0  0  0  0  0  0  0
   28.0399   14.2175   23.4034 H   0  0  0  0  0  0  0  0  0  0  0  0
   23.2603   11.7419   16.6937 H   0  0  0  0  0  0  0  0  0  0  0  0
   24.7271   10.7059   16.4990 H   0  0  0  0  0  0  0  0  0  0  0  0
   22.8754   11.0019   18.9108 H   0  0  0  0  0  0  0  0  0  0  0  0
   24.4128    8.6100   17.6833 H   0  0  0  0  0  0  0  0  0  0  0  0
   29.4490   16.2876   23.1186 H   0  0  0  0  0  0  0  0  0  0  0  0
   30.0327   11.0827   20.0761 H   0  0  0  0  0  0  0  0  0  0  0  0
   29.8445   12.6119   19.1842 H   0  0  0  0  0  0  0  0  0  0  0  0
   23.4375   13.9505   22.6082 H   0  0  0  0  0  0  0  0  0  0  0  0
   24.2025   14.4820   21.0656 H   0  0  0  0  0  0  0  0  0  0  0  0
   24.2380    7.9678   19.9307 H   0  0  0  0  0  0  0  0  0  0  0  0
   22.7430    8.9024   20.2360 H   0  0  0  0  0  0  0  0  0  0  0  0
   22.4708    9.4466   16.2800 H   0  0  0  0  0  0  0  0  0  0  0  0
   21.3960    9.2495   17.6987 H   0  0  0  0  0  0  0  0  0  0  0  0
   28.0389   17.7512   24.4819 H   0  0  0  0  0  0  0  0  0  0  0  0
   26.5510   16.8639   24.0010 H   0  0  0  0  0  0  0  0  0  0  0  0
   27.8212   16.0470   24.9970 H   0  0  0  0  0  0  0  0  0  0  0  0
   28.5123   18.2975   22.0395 H   0  0  0  0  0  0  0  0  0  0  0  0
   27.0435   17.3865   21.5261 H   0  0  0  0  0  0  0  0  0  0  0  0
   28.6586   16.9700   20.8384 H   0  0  0  0  0  0  0  0  0  0  0  0
   32.1791   15.6206   18.9669 H   0  0  0  0  0  0  0  0  0  0  0  0
   30.8707   14.5092   18.5450 H   0  0  0  0  0  0  0  0  0  0  0  0
   31.3498   12.5689   17.1329 H   0  0  0  0  0  0  0  0  0  0  0  0
   34.6123   14.8420   18.8103 H   0  0  0  0  0  0  0  0  0  0  0  0
   32.2490   11.9235   19.9558 H   0  0  0  0  0  0  0  0  0  0  0  0
   31.7282   12.2353   21.6267 H   0  0  0  0  0  0  0  0  0  0  0  0
   32.9562   14.1703   20.8122 H   0  0  0  0  0  0  0  0  0  0  0  0
   31.2623   14.6510   21.0327 H   0  0  0  0  0  0  0  0  0  0  0  0
   24.2353   16.8554   21.8984 H   0  0  0  0  0  0  0  0  0  0  0  0
   23.4389   16.3148   23.4356 H   0  0  0  0  0  0  0  0  0  0  0  0
   22.5655   16.1714   21.8605 H   0  0  0  0  0  0  0  0  0  0  0  0
   21.3347    7.2238   19.4742 H   0  0  0  0  0  0  0  0  0  0  0  0
   22.7000    6.2246   20.0660 H   0  0  0  0  0  0  0  0  0  0  0  0
   22.6629    7.1645   15.8830 H   0  0  0  0  0  0  0  0  0  0  0  0
   21.0264    7.2241   16.6080 H   0  0  0  0  0  0  0  0  0  0  0  0
   32.9512   11.3217   15.7299 H   0  0  0  0  0  0  0  0  0  0  0  0
   36.2012   13.5858   17.3933 H   0  0  0  0  0  0  0  0  0  0  0  0
   35.3786   11.8268   15.8527 H   0  0  0  0  0  0  0  0  0  0  0  0
   23.6357    6.1278   17.7405 H   0  0  0  0  0  0  0  0  0  0  0  0
   21.9746    5.4551   17.8251 H   0  0  0  0  0  0  0  0  0  0  0  0
  2  1  1  0
  3  1  1  0
  4  5  1  0
  5  2  1  0
  6  1  1  0
  4  7  1  6
  8  7  1  0
  9  3  1  0
  3 10  1  0
 11  6  1  0
 12  8  1  0
 13 12  1  0
 14  4  2  0
 15  2  2  0
 16 10  1  0
 17 10  2  0
 18 13  2  0
 11 19  1  0
  8 20  1  0
 22 28  1  0
 23 13  1  0
 24 19  1  0
 25 19  1  0
 26 20  1  0
 27 20  1  0
 28 32  1  0
 29 22  2  0
 30 22  1  0
 31 21  1  0
 32 31  1  0
 33 23  1  0
 34 24  1  0
 35 25  1  0
 36 29  1  0
 37 30  2  0
 38 36  2  0
 39 34  1  0
  9 11  1  0
 39 35  1  0
 38 37  1  0
  4 21  1  0
  3 40  1  6
  5 41  1  0
  5 42  1  0
  6 43  1  0
  6 44  1  0
  8 45  1  1
  9 46  1  0
  9 47  1  0
 11 48  1  6
 19 49  1  0
 20 50  1  0
 21 51  1  0
 21 52  1  0
 23 53  1  0
 23 54  1  0
 24 55  1  0
 24 56  1  0
 25 57  1  0
 25 58  1  0
 26 59  1  0
 26 60  1  0
 26 61  1  0
 27 62  1  0
 27 63  1  0
 27 64  1  0
 28 65  1  0
 28 66  1  0
 29 67  1  0
 30 68  1  0
 31 69  1  0
 31 70  1  0
 32 71  1  0
 32 72  1  0
 33 73  1  0
 33 74  1  0
 33 75  1  0
 34 76  1  0
 34 77  1  0
 35 78  1  0
 35 79  1  0
 36 80  1  0
 37 81  1  0
 38 82  1  0
 39 83  1  0
 39 84  1  0
M  CHG  1  16  -1
M  END
> <Uni-Dock RESULT> 
ENERGY=   -3.547  LOWER_BOUND=   10.404  UPPER_BOUND=   12.167
INTER + INTRA:          -3.547
INTER:                  -3.547
INTRA:                   0.000
UNBOUND:                 0.000

$$$$

     RDKit          3D

 84 86  0  0  0  0  0  0  0  0999 V2000
   31.4734    8.6968   29.2730 N   0  0  0  0  0  0  0  0  0  0  0  0
   32.2390    7.8595   30.1589 C   0  0  0  0  0  0  0  0  0  0  0  0
   31.4855    8.5479   27.8255 C   0  0  1  0  0  0  0  0  0  0  0  0
   32.8931    6.6514   32.5855 P   0  0  1  0  0  0  0  0  0  0  0  0
   32.1314    8.0271   31.6550 C   0  0  0  0  0  0  0  0  0  0  0  0
   30.5297    9.7082   29.7234 C   0  0  0  0  0  0  0  0  0  0  0  0
   34.5107    6.3841   32.0957 O   0  0  0  0  0  0  0  0  0  0  0  0
   35.3157    7.5002   32.4210 C   0  0  2  0  0  0  0  0  0  0  0  0
   30.3099    9.3899   27.3280 C   0  0  0  0  0  0  0  0  0  0  0  0
   32.7943    9.0302   27.2629 C   0  0  0  0  0  0  0  0  0  0  0  0
   30.0225   10.3990   28.4506 C   0  0  1  0  0  0  0  0  0  0  0  0
   35.1779    8.4898   31.3949 O   0  0  0  0  0  0  0  0  0  0  0  0
   35.2689    9.8701   31.6113 C   0  0  0  0  0  0  0  0  0  0  0  0
   32.8327    6.9615   34.0655 O   0  0  0  0  0  0  0  0  0  0  0  0
   33.0381    7.0141   29.6708 O   0  0  0  0  0  0  0  0  0  0  0  0
   33.6435    8.1343   26.6202 O   0  0  0  0  0  0  0  0  0  0  0  0
   33.1365   10.2370   27.3779 O   0  0  0  0  0  0  0  0  0  0  0  0
   35.4304   10.3349   32.7721 O   0  0  0  0  0  0  0  0  0  0  0  0
   28.5296   10.8230   28.5346 C   0  0  0  0  0  0  0  0  0  0  0  0
   36.7834    7.0200   32.5105 C   0  0  0  0  0  0  0  0  0  0  0  0
   31.9027    5.1521   32.2610 C   0  0  0  0  0  0  0  0  0  0  0  0
   32.5438    1.5165   31.2657 C   0  0  0  0  0  0  0  0  0  0  0  0
   35.2042   10.7979   30.4412 C   0  0  0  0  0  0  0  0  0  0  0  0
   28.2780   11.7465   29.7598 C   0  0  0  0  0  0  0  0  0  0  0  0
   28.0670   11.5222   27.2371 C   0  0  0  0  0  0  0  0  0  0  0  0
   37.7055    8.0885   33.1095 C   0  0  0  0  0  0  0  0  0  0  0  0
   37.3186    6.5593   31.1465 C   0  0  0  0  0  0  0  0  0  0  0  0
   33.5950    2.5938   31.3488 C   0  0  0  0  0  0  0  0  0  0  0  0
   31.3166    1.7633   30.6271 C   0  0  0  0  0  0  0  0  0  0  0  0
   32.7678    0.2664   31.8652 C   0  0  0  0  0  0  0  0  0  0  0  0
   32.3118    3.9610   33.1461 C   0  0  0  0  0  0  0  0  0  0  0  0
   33.6274    3.2672   32.7336 C   0  0  0  0  0  0  0  0  0  0  0  0
   36.6058   11.1042   29.9289 C   0  0  0  0  0  0  0  0  0  0  0  0
   27.0588   12.6777   29.6009 C   0  0  0  0  0  0  0  0  0  0  0  0
   26.5567   11.8420   27.2595 C   0  0  0  0  0  0  0  0  0  0  0  0
   30.3321    0.7704   30.5841 C   0  0  0  0  0  0  0  0  0  0  0  0
   31.7815   -0.7246   31.8176 C   0  0  0  0  0  0  0  0  0  0  0  0
   30.5642   -0.4728   31.1784 C   0  0  0  0  0  0  0  0  0  0  0  0
   25.9996   12.0747   28.6760 C   0  0  0  0  0  0  0  0  0  0  0  0
   31.3256    7.4808   27.5500 H   0  0  0  0  0  0  0  0  0  0  0  0
   32.6092    8.9808   31.9548 H   0  0  0  0  0  0  0  0  0  0  0  0
   31.0621    8.0748   31.9456 H   0  0  0  0  0  0  0  0  0  0  0  0
   29.7001    9.2101   30.2707 H   0  0  0  0  0  0  0  0  0  0  0  0
   31.0352   10.4419   30.3893 H   0  0  0  0  0  0  0  0  0  0  0  0
   35.0408    7.9232   33.4164 H   0  0  0  0  0  0  0  0  0  0  0  0
   30.5291    9.9017   26.3649 H   0  0  0  0  0  0  0  0  0  0  0  0
   29.4318    8.7217   27.1810 H   0  0  0  0  0  0  0  0  0  0  0  0
   30.6484   11.3034   28.2708 H   0  0  0  0  0  0  0  0  0  0  0  0
   27.9138    9.9034   28.6620 H   0  0  0  0  0  0  0  0  0  0  0  0
   36.8111    6.1431   33.1950 H   0  0  0  0  0  0  0  0  0  0  0  0
   30.8425    5.4004   32.4787 H   0  0  0  0  0  0  0  0  0  0  0  0
   31.9576    4.8981   31.1850 H   0  0  0  0  0  0  0  0  0  0  0  0
   34.6989   11.7428   30.7368 H   0  0  0  0  0  0  0  0  0  0  0  0
   34.6107   10.3219   29.6320 H   0  0  0  0  0  0  0  0  0  0  0  0
   28.1264   11.1113   30.6593 H   0  0  0  0  0  0  0  0  0  0  0  0
   29.1698   12.3820   29.9536 H   0  0  0  0  0  0  0  0  0  0  0  0
   28.2728   10.8876   26.3506 H   0  0  0  0  0  0  0  0  0  0  0  0
   28.6416   12.4669   27.1100 H   0  0  0  0  0  0  0  0  0  0  0  0
   38.7232    7.6694   33.2552 H   0  0  0  0  0  0  0  0  0  0  0  0
   37.7853    8.9704   32.4427 H   0  0  0  0  0  0  0  0  0  0  0  0
   37.3269    8.4122   34.1012 H   0  0  0  0  0  0  0  0  0  0  0  0
   38.3388    6.1345   31.2592 H   0  0  0  0  0  0  0  0  0  0  0  0
   37.3664    7.4099   30.4352 H   0  0  0  0  0  0  0  0  0  0  0  0
   36.6645    5.7724   30.7190 H   0  0  0  0  0  0  0  0  0  0  0  0
   34.5890    2.1368   31.1585 H   0  0  0  0  0  0  0  0  0  0  0  0
   33.4559    3.3468   30.5446 H   0  0  0  0  0  0  0  0  0  0  0  0
   31.1205    2.7229   30.1636 H   0  0  0  0  0  0  0  0  0  0  0  0
   33.7053    0.0619   32.3687 H   0  0  0  0  0  0  0  0  0  0  0  0
   31.4915    3.2129   33.1328 H   0  0  0  0  0  0  0  0  0  0  0  0
   32.4021    4.3027   34.2023 H   0  0  0  0  0  0  0  0  0  0  0  0
   33.8644    2.4922   33.4953 H   0  0  0  0  0  0  0  0  0  0  0  0
   34.4623    3.9948   32.7648 H   0  0  0  0  0  0  0  0  0  0  0  0
   37.1213   10.1664   29.6298 H   0  0  0  0  0  0  0  0  0  0  0  0
   37.2005   11.6147   30.7186 H   0  0  0  0  0  0  0  0  0  0  0  0
   36.5393   11.7714   29.0445 H   0  0  0  0  0  0  0  0  0  0  0  0
   27.3901   13.6531   29.1802 H   0  0  0  0  0  0  0  0  0  0  0  0
   26.6129   12.8799   30.5983 H   0  0  0  0  0  0  0  0  0  0  0  0
   25.9940   11.0046   26.7927 H   0  0  0  0  0  0  0  0  0  0  0  0
   26.3772   12.7471   26.6380 H   0  0  0  0  0  0  0  0  0  0  0  0
   29.3881    0.9672   30.0920 H   0  0  0  0  0  0  0  0  0  0  0  0
   31.9601   -1.6866   32.2824 H   0  0  0  0  0  0  0  0  0  0  0  0
   29.8021   -1.2415   31.1469 H   0  0  0  0  0  0  0  0  0  0  0  0
   25.6512   11.1091   29.1042 H   0  0  0  0  0  0  0  0  0  0  0  0
   25.1232   12.7547   28.6221 H   0  0  0  0  0  0  0  0  0  0  0  0
  2  1  1  0
  3  1  1  0
  4  5  1  0
  5  2  1  0
  6  1  1  0
  4  7  1  6
  8  7  1  0
  9  3  1  0
  3 10  1  0
 11  6  1  0
 12  8  1  0
 13 12  1  0
 14  4  2  0
 15  2  2  0
 16 10  1  0
 17 10  2  0
 18 13  2  0
 11 19  1  0
  8 20  1  0
 22 28  1  0
 23 13  1  0
 24 19  1  0
 25 19  1  0
 26 20  1  0
 27 20  1  0
 28 32  1  0
 29 22  2  0
 30 22  1  0
 31 21  1  0
 32 31  1  0
 33 23  1  0
 34 24  1  0
 35 25  1  0
 36 29  1  0
 37 30  2  0
 38 36  2  0
 39 34  1  0
  9 11  1  0
 39 35  1  0
 38 37  1  0
  4 21  1  0
  3 40  1  6
  5 41  1  0
  5 42  1  0
  6 43  1  0
  6 44  1  0
  8 45  1  1
  9 46  1  0
  9 47  1  0
 11 48  1  6
 19 49  1  0
 20 50  1  0
 21 51  1  0
 21 52  1  0
 23 53  1  0
 23 54  1  0
 24 55  1  0
 24 56  1  0
 25 57  1  0
 25 58  1  0
 26 59  1  0
 26 60  1  0
 26 61  1  0
 27 62  1  0
 27 63  1  0
 27 64  1  0
 28 65  1  0
 28 66  1  0
 29 67  1  0
 30 68  1  0
 31 69  1  0
 31 70  1  0
 32 71  1  0
 32 72  1  0
 33 73  1  0
 33 74  1  0
 33 75  1  0
 34 76  1  0
 34 77  1  0
 35 78  1  0
 35 79  1  0
 36 80  1  0
 37 81  1  0
 38 82  1  0
 39 83  1  0
 39 84  1  0
M  CHG  1  16  -1
M  END
> <Uni-Dock RESULT> 
ENERGY=   -3.517  LOWER_BOUND=    3.185  UPPER_BOUND=    8.587
INTER + INTRA:          -3.517
INTER:                  -3.517
INTRA:                   0.000
UNBOUND:                 0.000

$$$$

     RDKit          3D

 84 86  0  0  0  0  0  0  0  0999 V2000
   25.3788    9.7053   30.4548 N   0  0  0  0  0  0  0  0  0  0  0  0
   26.7668    9.3268   30.4079 C   0  0  0  0  0  0  0  0  0  0  0  0
   24.4204    9.3533   29.4179 C   0  0  1  0  0  0  0  0  0  0  0  0
   29.2966    8.7987   31.4554 P   0  0  1  0  0  0  0  0  0  0  0  0
   27.6935    9.6706   31.5485 C   0  0  0  0  0  0  0  0  0  0  0  0
   24.7591   10.3851   31.5819 C   0  0  0  0  0  0  0  0  0  0  0  0
   30.0504    9.0346   29.9375 O   0  0  0  0  0  0  0  0  0  0  0  0
   30.3938   10.3952   29.7632 C   0  0  2  0  0  0  0  0  0  0  0  0
   23.0488    9.6533   30.0239 C   0  0  0  0  0  0  0  0  0  0  0  0
   24.6721   10.1665   28.1779 C   0  0  0  0  0  0  0  0  0  0  0  0
   23.3104   10.6586   31.1563 C   0  0  1  0  0  0  0  0  0  0  0  0
   29.2450   11.1099   29.2937 O   0  0  0  0  0  0  0  0  0  0  0  0
   28.9766   12.4529   29.5852 C   0  0  0  0  0  0  0  0  0  0  0  0
   30.1920    9.2883   32.5728 O   0  0  0  0  0  0  0  0  0  0  0  0
   27.2127    8.7454   29.3810 O   0  0  0  0  0  0  0  0  0  0  0  0
   25.0579    9.5321   27.0008 O   0  0  0  0  0  0  0  0  0  0  0  0
   24.5486   11.4199   28.1963 O   0  0  0  0  0  0  0  0  0  0  0  0
   29.7323   13.1142   30.3475 O   0  0  0  0  0  0  0  0  0  0  0  0
   22.2947   10.5496   32.3277 C   0  0  0  0  0  0  0  0  0  0  0  0
   31.5353   10.4696   28.7218 C   0  0  0  0  0  0  0  0  0  0  0  0
   28.9708    7.0192   31.7038 C   0  0  0  0  0  0  0  0  0  0  0  0
   29.9263    3.7216   30.0211 C   0  0  0  0  0  0  0  0  0  0  0  0
   27.7934   13.1139   28.9550 C   0  0  0  0  0  0  0  0  0  0  0  0
   22.6802   11.5033   33.4935 C   0  0  0  0  0  0  0  0  0  0  0  0
   20.8535   10.8425   31.8548 C   0  0  0  0  0  0  0  0  0  0  0  0
   32.1603   11.8677   28.6484 C   0  0  0  0  0  0  0  0  0  0  0  0
   31.0685   10.0215   27.3288 C   0  0  0  0  0  0  0  0  0  0  0  0
   30.2659    5.0945   29.4995 C   0  0  0  0  0  0  0  0  0  0  0  0
   28.6292    3.4310   30.4769 C   0  0  0  0  0  0  0  0  0  0  0  0
   30.9189    2.7308   30.0948 C   0  0  0  0  0  0  0  0  0  0  0  0
   30.2589    6.1900   31.8545 C   0  0  0  0  0  0  0  0  0  0  0  0
   31.0267    5.9384   30.5394 C   0  0  0  0  0  0  0  0  0  0  0  0
   28.1989   13.8034   27.6586 C   0  0  0  0  0  0  0  0  0  0  0  0
   21.4887   11.9220   34.3788 C   0  0  0  0  0  0  0  0  0  0  0  0
   19.8197   10.6217   32.9801 C   0  0  0  0  0  0  0  0  0  0  0  0
   28.3300    2.1653   30.9920 C   0  0  0  0  0  0  0  0  0  0  0  0
   30.6147    1.4655   30.6082 C   0  0  0  0  0  0  0  0  0  0  0  0
   29.3216    1.1830   31.0573 C   0  0  0  0  0  0  0  0  0  0  0  0
   20.3885   10.8588   34.3912 C   0  0  0  0  0  0  0  0  0  0  0  0
   24.4961    8.2680   29.1804 H   0  0  0  0  0  0  0  0  0  0  0  0
   27.8717   10.7642   31.5625 H   0  0  0  0  0  0  0  0  0  0  0  0
   27.2165    9.3902   32.5097 H   0  0  0  0  0  0  0  0  0  0  0  0
   24.8001    9.7202   32.4719 H   0  0  0  0  0  0  0  0  0  0  0  0
   25.2879   11.3396   31.7982 H   0  0  0  0  0  0  0  0  0  0  0  0
   30.7763   10.8425   30.7114 H   0  0  0  0  0  0  0  0  0  0  0  0
   22.3313   10.0580   29.2763 H   0  0  0  0  0  0  0  0  0  0  0  0
   22.6305    8.7095   30.4401 H   0  0  0  0  0  0  0  0  0  0  0  0
   23.2606   11.6851   30.7254 H   0  0  0  0  0  0  0  0  0  0  0  0
   22.3192    9.5045   32.7128 H   0  0  0  0  0  0  0  0  0  0  0  0
   32.3366    9.7698   29.0480 H   0  0  0  0  0  0  0  0  0  0  0  0
   28.3789    6.9168   32.6377 H   0  0  0  0  0  0  0  0  0  0  0  0
   28.3365    6.6407   30.8795 H   0  0  0  0  0  0  0  0  0  0  0  0
   27.3604   13.8598   29.6562 H   0  0  0  0  0  0  0  0  0  0  0  0
   27.0201   12.3464   28.7391 H   0  0  0  0  0  0  0  0  0  0  0  0
   23.4378   10.9980   34.1311 H   0  0  0  0  0  0  0  0  0  0  0  0
   23.1513   12.4287   33.0954 H   0  0  0  0  0  0  0  0  0  0  0  0
   20.5777   10.1918   30.9996 H   0  0  0  0  0  0  0  0  0  0  0  0
   20.7949   11.8966   31.5026 H   0  0  0  0  0  0  0  0  0  0  0  0
   33.0403   11.8520   27.9717 H   0  0  0  0  0  0  0  0  0  0  0  0
   31.4365   12.6118   28.2596 H   0  0  0  0  0  0  0  0  0  0  0  0
   32.5101   12.1866   29.6522 H   0  0  0  0  0  0  0  0  0  0  0  0
   31.9288    9.9965   26.6265 H   0  0  0  0  0  0  0  0  0  0  0  0
   30.3044   10.7189   26.9270 H   0  0  0  0  0  0  0  0  0  0  0  0
   30.6333    9.0026   27.3748 H   0  0  0  0  0  0  0  0  0  0  0  0
   30.9082    4.9850   28.6003 H   0  0  0  0  0  0  0  0  0  0  0  0
   29.3540    5.6230   29.1501 H   0  0  0  0  0  0  0  0  0  0  0  0
   27.8499    4.1827   30.4351 H   0  0  0  0  0  0  0  0  0  0  0  0
   31.9264    2.9403   29.7550 H   0  0  0  0  0  0  0  0  0  0  0  0
   29.9980    5.2122   32.3111 H   0  0  0  0  0  0  0  0  0  0  0  0
   30.9393    6.6969   32.5760 H   0  0  0  0  0  0  0  0  0  0  0  0
   31.9772    5.4168   30.7872 H   0  0  0  0  0  0  0  0  0  0  0  0
   31.3163    6.9050   30.0819 H   0  0  0  0  0  0  0  0  0  0  0  0
   28.6333   13.0671   26.9487 H   0  0  0  0  0  0  0  0  0  0  0  0
   28.9473   14.6005   27.8651 H   0  0  0  0  0  0  0  0  0  0  0  0
   27.3054   14.2655   27.1895 H   0  0  0  0  0  0  0  0  0  0  0  0
   21.0619   12.8766   33.9982 H   0  0  0  0  0  0  0  0  0  0  0  0
   21.8426   12.1060   35.4158 H   0  0  0  0  0  0  0  0  0  0  0  0
   19.4311    9.5815   32.9271 H   0  0  0  0  0  0  0  0  0  0  0  0
   18.9585   11.3048   32.8087 H   0  0  0  0  0  0  0  0  0  0  0  0
   27.3291    1.9482   31.3431 H   0  0  0  0  0  0  0  0  0  0  0  0
   31.3849    0.7057   30.6628 H   0  0  0  0  0  0  0  0  0  0  0  0
   29.0913    0.2034   31.4573 H   0  0  0  0  0  0  0  0  0  0  0  0
   20.8066    9.9086   34.7906 H   0  0  0  0  0  0  0  0  0  0  0  0
   19.5707   11.1787   35.0711 H   0  0  0  0  0  0  0  0  0  0  0  0
  2  1  1  0
  3  1  1  0
  4  5  1  0
  5  2  1  0
  6  1  1  0
  4  7  1  6
  8  7  1  0
  9  3  1  0
  3 10  1  0
 11  6  1  0
 12  8  1  0
 13 12  1  0
 14  4  2  0
 15  2  2  0
 16 10  1  0
 17 10  2  0
 18 13  2  0
 11 19  1  0
  8 20  1  0
 22 28  1  0
 23 13  1  0
 24 19  1  0
 25 19  1  0
 26 20  1  0
 27 20  1  0
 28 32  1  0
 29 22  2  0
 30 22  1  0
 31 21  1  0
 32 31  1  0
 33 23  1  0
 34 24  1  0
 35 25  1  0
 36 29  1  0
 37 30  2  0
 38 36  2  0
 39 34  1  0
  9 11  1  0
 39 35  1  0
 38 37  1  0
  4 21  1  0
  3 40  1  6
  5 41  1  0
  5 42  1  0
  6 43  1  0
  6 44  1  0
  8 45  1  1
  9 46  1  0
  9 47  1  0
 11 48  1  6
 19 49  1  0
 20 50  1  0
 21 51  1  0
 21 52  1  0
 23 53  1  0
 23 54  1  0
 24 55  1  0
 24 56  1  0
 25 57  1  0
 25 58  1  0
 26 59  1  0
 26 60  1  0
 26 61  1  0
 27 62  1  0
 27 63  1  0
 27 64  1  0
 28 65  1  0
 28 66  1  0
 29 67  1  0
 30 68  1  0
 31 69  1  0
 31 70  1  0
 32 71  1  0
 32 72  1  0
 33 73  1  0
 33 74  1  0
 33 75  1  0
 34 76  1  0
 34 77  1  0
 35 78  1  0
 35 79  1  0
 36 80  1  0
 37 81  1  0
 38 82  1  0
 39 83  1  0
 39 84  1  0
M  CHG  1  16  -1
M  END
> <Uni-Dock RESULT> 
ENERGY=   -3.513  LOWER_BOUND=    3.685  UPPER_BOUND=    8.473
INTER + INTRA:          -3.513
INTER:                  -3.513
INTRA:                   0.000
UNBOUND:                 0.000

$$$$

     RDKit          3D

 84 86  0  0  0  0  0  0  0  0999 V2000
   26.6771   11.9797   20.4725 N   0  0  0  0  0  0  0  0  0  0  0  0
   27.3940   12.3365   21.6687 C   0  0  0  0  0  0  0  0  0  0  0  0
   26.6077   10.6196   19.9597 C   0  0  1  0  0  0  0  0  0  0  0  0
   28.0333   13.9161   23.8759 P   0  0  1  0  0  0  0  0  0  0  0  0
   27.3725   13.7564   22.1799 C   0  0  0  0  0  0  0  0  0  0  0  0
   25.8619   12.9090   19.7055 C   0  0  0  0  0  0  0  0  0  0  0  0
   29.5915   13.2216   24.0088 O   0  0  0  0  0  0  0  0  0  0  0  0
   30.5191   13.9349   23.2149 C   0  0  2  0  0  0  0  0  0  0  0  0
   25.5016   10.6472   18.9041 C   0  0  0  0  0  0  0  0  0  0  0  0
   27.9314   10.2171   19.3697 C   0  0  0  0  0  0  0  0  0  0  0  0
   25.3692   12.1197   18.4853 C   0  0  1  0  0  0  0  0  0  0  0  0
   30.4350   13.4660   21.8643 O   0  0  0  0  0  0  0  0  0  0  0  0
   30.6747   14.2599   20.7361 C   0  0  0  0  0  0  0  0  0  0  0  0
   28.0724   15.3804   24.2562 O   0  0  0  0  0  0  0  0  0  0  0  0
   28.0804   11.4591   22.2606 O   0  0  0  0  0  0  0  0  0  0  0  0
   28.6554    9.1749   19.9412 O   0  0  0  0  0  0  0  0  0  0  0  0
   28.3986   10.8222   18.3686 O   0  0  0  0  0  0  0  0  0  0  0  0
   30.9353   15.4881   20.8514 O   0  0  0  0  0  0  0  0  0  0  0  0
   23.9321   12.5100   18.0401 C   0  0  0  0  0  0  0  0  0  0  0  0
   31.9334   13.6771   23.7860 C   0  0  0  0  0  0  0  0  0  0  0  0
   26.8827   13.0505   24.9990 C   0  0  0  0  0  0  0  0  0  0  0  0
   27.1073   10.5039   27.8421 C   0  0  0  0  0  0  0  0  0  0  0  0
   30.6504   13.6289   19.3814 C   0  0  0  0  0  0  0  0  0  0  0  0
   23.8315   14.0333   17.7460 C   0  0  0  0  0  0  0  0  0  0  0  0
   23.4835   11.6985   16.8045 C   0  0  0  0  0  0  0  0  0  0  0  0
   32.9851   14.6040   23.1650 C   0  0  0  0  0  0  0  0  0  0  0  0
   32.3563   12.2093   23.6251 C   0  0  0  0  0  0  0  0  0  0  0  0
   28.2646   10.9625   26.9918 C   0  0  0  0  0  0  0  0  0  0  0  0
   25.8834   10.1474   27.2508 C   0  0  0  0  0  0  0  0  0  0  0  0
   27.2312   10.4694   29.2406 C   0  0  0  0  0  0  0  0  0  0  0  0
   27.2096   13.2813   26.4854 C   0  0  0  0  0  0  0  0  0  0  0  0
   28.4282   12.4939   27.0120 C   0  0  0  0  0  0  0  0  0  0  0  0
   32.0508   13.1856   18.9775 C   0  0  0  0  0  0  0  0  0  0  0  0
   22.7065   14.4066   16.7592 C   0  0  0  0  0  0  0  0  0  0  0  0
   22.0159   11.9893   16.4236 C   0  0  0  0  0  0  0  0  0  0  0  0
   24.8027    9.7561   28.0483 C   0  0  0  0  0  0  0  0  0  0  0  0
   26.1488   10.0749   30.0342 C   0  0  0  0  0  0  0  0  0  0  0  0
   24.9351    9.7193   29.4389 C   0  0  0  0  0  0  0  0  0  0  0  0
   21.5506   13.4054   16.8098 C   0  0  0  0  0  0  0  0  0  0  0  0
   26.3285    9.9170   20.7772 H   0  0  0  0  0  0  0  0  0  0  0  0
   27.9574   14.4036   21.4966 H   0  0  0  0  0  0  0  0  0  0  0  0
   26.3279   14.1290   22.1923 H   0  0  0  0  0  0  0  0  0  0  0  0
   25.0122   13.2498   20.3362 H   0  0  0  0  0  0  0  0  0  0  0  0
   26.4689   13.7839   19.3839 H   0  0  0  0  0  0  0  0  0  0  0  0
   30.3342   15.0344   23.2630 H   0  0  0  0  0  0  0  0  0  0  0  0
   25.7269    9.9935   18.0327 H   0  0  0  0  0  0  0  0  0  0  0  0
   24.5547   10.2969   19.3730 H   0  0  0  0  0  0  0  0  0  0  0  0
   26.0743   12.3039   17.6421 H   0  0  0  0  0  0  0  0  0  0  0  0
   23.2332   12.2715   18.8742 H   0  0  0  0  0  0  0  0  0  0  0  0
   31.9038   13.8999   24.8758 H   0  0  0  0  0  0  0  0  0  0  0  0
   25.8642   13.4456   24.8005 H   0  0  0  0  0  0  0  0  0  0  0  0
   26.8624   11.9725   24.7487 H   0  0  0  0  0  0  0  0  0  0  0  0
   30.2572   14.3528   18.6353 H   0  0  0  0  0  0  0  0  0  0  0  0
   29.9755   12.7470   19.4029 H   0  0  0  0  0  0  0  0  0  0  0  0
   23.6579   14.5702   18.7039 H   0  0  0  0  0  0  0  0  0  0  0  0
   24.7908   14.4100   17.3282 H   0  0  0  0  0  0  0  0  0  0  0  0
   23.5834   10.6091   16.9890 H   0  0  0  0  0  0  0  0  0  0  0  0
   24.1441   11.9519   15.9454 H   0  0  0  0  0  0  0  0  0  0  0  0
   33.9609   14.4620   23.6751 H   0  0  0  0  0  0  0  0  0  0  0  0
   33.1229   14.3900   22.0861 H   0  0  0  0  0  0  0  0  0  0  0  0
   32.6869   15.6653   23.2927 H   0  0  0  0  0  0  0  0  0  0  0  0
   33.3325   12.0351   24.1257 H   0  0  0  0  0  0  0  0  0  0  0  0
   32.4571   11.9446   22.5520 H   0  0  0  0  0  0  0  0  0  0  0  0
   31.6072   11.5368   24.0902 H   0  0  0  0  0  0  0  0  0  0  0  0
   29.1977   10.5057   27.3841 H   0  0  0  0  0  0  0  0  0  0  0  0
   28.1655   10.5877   25.9513 H   0  0  0  0  0  0  0  0  0  0  0  0
   25.7641   10.1731   26.1741 H   0  0  0  0  0  0  0  0  0  0  0  0
   28.1654   10.7485   29.7135 H   0  0  0  0  0  0  0  0  0  0  0  0
   26.3183   13.0102   27.0892 H   0  0  0  0  0  0  0  0  0  0  0  0
   27.3823   14.3679   26.6587 H   0  0  0  0  0  0  0  0  0  0  0  0
   28.6204   12.8126   28.0601 H   0  0  0  0  0  0  0  0  0  0  0  0
   29.3329   12.7706   26.4354 H   0  0  0  0  0  0  0  0  0  0  0  0
   32.4548   12.4607   19.7164 H   0  0  0  0  0  0  0  0  0  0  0  0
   32.7296   14.0651   18.9165 H   0  0  0  0  0  0  0  0  0  0  0  0
   32.0116   12.6951   17.9826 H   0  0  0  0  0  0  0  0  0  0  0  0
   23.1149   14.4321   15.7244 H   0  0  0  0  0  0  0  0  0  0  0  0
   22.3295   15.4252   16.9931 H   0  0  0  0  0  0  0  0  0  0  0  0
   21.3507   11.2515   16.9227 H   0  0  0  0  0  0  0  0  0  0  0  0
   21.9004   11.8483   15.3261 H   0  0  0  0  0  0  0  0  0  0  0  0
   23.8619    9.4843   27.5869 H   0  0  0  0  0  0  0  0  0  0  0  0
   26.2505   10.0508   31.1124 H   0  0  0  0  0  0  0  0  0  0  0  0
   24.0987    9.4179   30.0571 H   0  0  0  0  0  0  0  0  0  0  0  0
   21.1265   13.3925   17.8380 H   0  0  0  0  0  0  0  0  0  0  0  0
   20.7458   13.7323   16.1179 H   0  0  0  0  0  0  0  0  0  0  0  0
  2  1  1  0
  3  1  1  0
  4  5  1  0
  5  2  1  0
  6  1  1  0
  4  7  1  6
  8  7  1  0
  9  3  1  0
  3 10  1  0
 11  6  1  0
 12  8  1  0
 13 12  1  0
 14  4  2  0
 15  2  2  0
 16 10  1  0
 17 10  2  0
 18 13  2  0
 11 19  1  0
  8 20  1  0
 22 28  1  0
 23 13  1  0
 24 19  1  0
 25 19  1  0
 26 20  1  0
 27 20  1  0
 28 32  1  0
 29 22  2  0
 30 22  1  0
 31 21  1  0
 32 31  1  0
 33 23  1  0
 34 24  1  0
 35 25  1  0
 36 29  1  0
 37 30  2  0
 38 36  2  0
 39 34  1  0
  9 11  1  0
 39 35  1  0
 38 37  1  0
  4 21  1  0
  3 40  1  6
  5 41  1  0
  5 42  1  0
  6 43  1  0
  6 44  1  0
  8 45  1  1
  9 46  1  0
  9 47  1  0
 11 48  1  6
 19 49  1  0
 20 50  1  0
 21 51  1  0
 21 52  1  0
 23 53  1  0
 23 54  1  0
 24 55  1  0
 24 56  1  0
 25 57  1  0
 25 58  1  0
 26 59  1  0
 26 60  1  0
 26 61  1  0
 27 62  1  0
 27 63  1  0
 27 64  1  0
 28 65  1  0
 28 66  1  0
 29 67  1  0
 30 68  1  0
 31 69  1  0
 31 70  1  0
 32 71  1  0
 32 72  1  0
 33 73  1  0
 33 74  1  0
 33 75  1  0
 34 76  1  0
 34 77  1  0
 35 78  1  0
 35 79  1  0
 36 80  1  0
 37 81  1  0
 38 82  1  0
 39 83  1  0
 39 84  1  0
M  CHG  1  16  -1
M  END
> <Uni-Dock RESULT> 
ENERGY=   -3.510  LOWER_BOUND=    8.161  UPPER_BOUND=   11.976
INTER + INTRA:          -3.510
INTER:                  -3.510
INTRA:                   0.000
UNBOUND:                 0.000

$$$$

     RDKit          3D

 84 86  0  0  0  0  0  0  0  0999 V2000
   29.2033    4.8796   31.3493 N   0  0  0  0  0  0  0  0  0  0  0  0
   27.8358    4.6957   31.7595 C   0  0  0  0  0  0  0  0  0  0  0  0
   29.6247    4.8844   29.9565 C   0  0  1  0  0  0  0  0  0  0  0  0
   25.6532    4.8647   33.4867 P   0  0  1  0  0  0  0  0  0  0  0  0
   27.4580    4.7651   33.2191 C   0  0  0  0  0  0  0  0  0  0  0  0
   30.2928    5.1829   32.2644 C   0  0  0  0  0  0  0  0  0  0  0  0
   24.8299    3.5990   32.6817 O   0  0  0  0  0  0  0  0  0  0  0  0
   25.1864    2.3477   33.2357 C   0  0  2  0  0  0  0  0  0  0  0  0
   31.0520    5.4329   29.9734 C   0  0  0  0  0  0  0  0  0  0  0  0
   29.5692    3.4920   29.3905 C   0  0  0  0  0  0  0  0  0  0  0  0
   31.5634    5.2050   31.4044 C   0  0  1  0  0  0  0  0  0  0  0  0
   26.4164    1.9101   32.6469 O   0  0  0  0  0  0  0  0  0  0  0  0
   27.3731    1.1281   33.3054 C   0  0  0  0  0  0  0  0  0  0  0  0
   25.3699    4.8194   34.9727 O   0  0  0  0  0  0  0  0  0  0  0  0
   26.9621    4.4287   30.8896 O   0  0  0  0  0  0  0  0  0  0  0  0
   28.6892    3.2016   28.3522 O   0  0  0  0  0  0  0  0  0  0  0  0
   30.3040    2.5805   29.8553 O   0  0  0  0  0  0  0  0  0  0  0  0
   27.2217    0.7993   34.5131 O   0  0  0  0  0  0  0  0  0  0  0  0
   32.6007    6.2659   31.8674 C   0  0  0  0  0  0  0  0  0  0  0  0
   24.0522    1.3449   32.9180 C   0  0  0  0  0  0  0  0  0  0  0  0
   25.0874    6.4727   32.8321 C   0  0  0  0  0  0  0  0  0  0  0  0
   22.2932    7.7612   30.5625 C   0  0  0  0  0  0  0  0  0  0  0  0
   28.5728    0.6537   32.5505 C   0  0  0  0  0  0  0  0  0  0  0  0
   32.9887    6.0559   33.3583 C   0  0  0  0  0  0  0  0  0  0  0  0
   33.8652    6.2444   30.9802 C   0  0  0  0  0  0  0  0  0  0  0  0
   24.2106    0.0298   33.6903 C   0  0  0  0  0  0  0  0  0  0  0  0
   23.9396    1.0671   31.4116 C   0  0  0  0  0  0  0  0  0  0  0  0
   22.5888    6.3092   30.8394 C   0  0  0  0  0  0  0  0  0  0  0  0
   23.3320    8.6555   30.2532 C   0  0  0  0  0  0  0  0  0  0  0  0
   20.9766    8.2416   30.6533 C   0  0  0  0  0  0  0  0  0  0  0  0
   23.6184    6.7764   33.1776 C   0  0  0  0  0  0  0  0  0  0  0  0
   22.5804    5.9926   32.3467 C   0  0  0  0  0  0  0  0  0  0  0  0
   28.3145   -0.7248   31.9558 C   0  0  0  0  0  0  0  0  0  0  0  0
   34.3802    6.6102   33.7262 C   0  0  0  0  0  0  0  0  0  0  0  0
   34.8524    7.3714   31.3534 C   0  0  0  0  0  0  0  0  0  0  0  0
   23.0547   10.0087   30.0316 C   0  0  0  0  0  0  0  0  0  0  0  0
   20.7034    9.5950   30.4284 C   0  0  0  0  0  0  0  0  0  0  0  0
   21.7415   10.4783   30.1186 C   0  0  0  0  0  0  0  0  0  0  0  0
   34.7771    7.7879   32.8338 C   0  0  0  0  0  0  0  0  0  0  0  0
   28.9700    5.5608   29.3618 H   0  0  0  0  0  0  0  0  0  0  0  0
   27.8578    3.8764   33.7465 H   0  0  0  0  0  0  0  0  0  0  0  0
   27.9134    5.6670   33.6764 H   0  0  0  0  0  0  0  0  0  0  0  0
   30.1054    6.1731   32.7338 H   0  0  0  0  0  0  0  0  0  0  0  0
   30.3688    4.3999   33.0509 H   0  0  0  0  0  0  0  0  0  0  0  0
   25.2795    2.4066   34.3462 H   0  0  0  0  0  0  0  0  0  0  0  0
   31.7076    4.9398   29.2220 H   0  0  0  0  0  0  0  0  0  0  0  0
   31.0161    6.5228   29.7497 H   0  0  0  0  0  0  0  0  0  0  0  0
   32.0319    4.1947   31.4471 H   0  0  0  0  0  0  0  0  0  0  0  0
   32.1350    7.2731   31.7694 H   0  0  0  0  0  0  0  0  0  0  0  0
   23.0932    1.8037   33.2469 H   0  0  0  0  0  0  0  0  0  0  0  0
   25.7231    7.2600   33.2892 H   0  0  0  0  0  0  0  0  0  0  0  0
   25.2655    6.5109   31.7403 H   0  0  0  0  0  0  0  0  0  0  0  0
   29.4521    0.6100   33.2290 H   0  0  0  0  0  0  0  0  0  0  0  0
   28.7963    1.3726   31.7338 H   0  0  0  0  0  0  0  0  0  0  0  0
   32.2268    6.5524   33.9977 H   0  0  0  0  0  0  0  0  0  0  0  0
   32.9746    4.9733   33.6120 H   0  0  0  0  0  0  0  0  0  0  0  0
   33.5991    6.3586   29.9092 H   0  0  0  0  0  0  0  0  0  0  0  0
   34.3707    5.2594   31.0937 H   0  0  0  0  0  0  0  0  0  0  0  0
   23.3252   -0.6174   33.5179 H   0  0  0  0  0  0  0  0  0  0  0  0
   25.1138   -0.5228   33.3622 H   0  0  0  0  0  0  0  0  0  0  0  0
   24.2784    0.2286   34.7800 H   0  0  0  0  0  0  0  0  0  0  0  0
   23.0609    0.4193   31.2064 H   0  0  0  0  0  0  0  0  0  0  0  0
   24.8508    0.5561   31.0369 H   0  0  0  0  0  0  0  0  0  0  0  0
   23.8056    2.0148   30.8516 H   0  0  0  0  0  0  0  0  0  0  0  0
   21.8115    5.6874   30.3469 H   0  0  0  0  0  0  0  0  0  0  0  0
   23.5504    6.0045   30.3752 H   0  0  0  0  0  0  0  0  0  0  0  0
   24.3557    8.3074   30.1844 H   0  0  0  0  0  0  0  0  0  0  0  0
   20.1645    7.5672   30.8985 H   0  0  0  0  0  0  0  0  0  0  0  0
   23.4411    7.8639   33.0410 H   0  0  0  0  0  0  0  0  0  0  0  0
   23.4449    6.5678   34.2579 H   0  0  0  0  0  0  0  0  0  0  0  0
   21.5692    6.2232   32.7482 H   0  0  0  0  0  0  0  0  0  0  0  0
   22.7278    4.9040   32.4905 H   0  0  0  0  0  0  0  0  0  0  0  0
   27.4370   -0.6936   31.2748 H   0  0  0  0  0  0  0  0  0  0  0  0
   28.1249   -1.4634   32.7661 H   0  0  0  0  0  0  0  0  0  0  0  0
   29.2033   -1.0507   31.3764 H   0  0  0  0  0  0  0  0  0  0  0  0
   35.1402    5.8048   33.6176 H   0  0  0  0  0  0  0  0  0  0  0  0
   34.3837    6.9295   34.7904 H   0  0  0  0  0  0  0  0  0  0  0  0
   34.6484    8.2654   30.7249 H   0  0  0  0  0  0  0  0  0  0  0  0
   35.8846    7.0304   31.1169 H   0  0  0  0  0  0  0  0  0  0  0  0
   23.8596   10.6930   29.7953 H   0  0  0  0  0  0  0  0  0  0  0  0
   19.6858    9.9595   30.5003 H   0  0  0  0  0  0  0  0  0  0  0  0
   21.5261   11.5258   29.9488 H   0  0  0  0  0  0  0  0  0  0  0  0
   34.0303    8.6033   32.9555 H   0  0  0  0  0  0  0  0  0  0  0  0
   35.7630    8.1834   33.1578 H   0  0  0  0  0  0  0  0  0  0  0  0
  2  1  1  0
  3  1  1  0
  4  5  1  0
  5  2  1  0
  6  1  1  0
  4  7  1  6
  8  7  1  0
  9  3  1  0
  3 10  1  0
 11  6  1  0
 12  8  1  0
 13 12  1  0
 14  4  2  0
 15  2  2  0
 16 10  1  0
 17 10  2  0
 18 13  2  0
 11 19  1  0
  8 20  1  0
 22 28  1  0
 23 13  1  0
 24 19  1  0
 25 19  1  0
 26 20  1  0
 27 20  1  0
 28 32  1  0
 29 22  2  0
 30 22  1  0
 31 21  1  0
 32 31  1  0
 33 23  1  0
 34 24  1  0
 35 25  1  0
 36 29  1  0
 37 30  2  0
 38 36  2  0
 39 34  1  0
  9 11  1  0
 39 35  1  0
 38 37  1  0
  4 21  1  0
  3 40  1  6
  5 41  1  0
  5 42  1  0
  6 43  1  0
  6 44  1  0
  8 45  1  1
  9 46  1  0
  9 47  1  0
 11 48  1  6
 19 49  1  0
 20 50  1  0
 21 51  1  0
 21 52  1  0
 23 53  1  0
 23 54  1  0
 24 55  1  0
 24 56  1  0
 25 57  1  0
 25 58  1  0
 26 59  1  0
 26 60  1  0
 26 61  1  0
 27 62  1  0
 27 63  1  0
 27 64  1  0
 28 65  1  0
 28 66  1  0
 29 67  1  0
 30 68  1  0
 31 69  1  0
 31 70  1  0
 32 71  1  0
 32 72  1  0
 33 73  1  0
 33 74  1  0
 33 75  1  0
 34 76  1  0
 34 77  1  0
 35 78  1  0
 35 79  1  0
 36 80  1  0
 37 81  1  0
 38 82  1  0
 39 83  1  0
 39 84  1  0
M  CHG  1  16  -1
M  END
> <Uni-Dock RESULT> 
ENERGY=   -3.465  LOWER_BOUND=    5.951  UPPER_BOUND=   11.151
INTER + INTRA:          -3.465
INTER:                  -3.465
INTRA:                   0.000
UNBOUND:                 0.000

$$$$
