
     RDKit          3D

 84 86  0  0  0  0  0  0  0  0999 V2000
   29.5538   12.1538   23.5449 N   0  0  0  0  0  0  0  0  0  0  0  0
   29.0891   12.2339   24.9076 C   0  0  0  0  0  0  0  0  0  0  0  0
   30.8940   12.5568   23.1299 C   0  0  1  0  0  0  0  0  0  0  0  0
   27.6501   11.0805   26.9844 P   0  0  1  0  0  0  0  0  0  0  0  0
   27.7107   11.7570   25.2914 C   0  0  0  0  0  0  0  0  0  0  0  0
   28.7403   11.6810   22.4338 C   0  0  0  0  0  0  0  0  0  0  0  0
   28.7171    9.7428   27.1123 O   0  0  0  0  0  0  0  0  0  0  0  0
   29.8895   10.0767   27.8310 C   0  0  2  0  0  0  0  0  0  0  0  0
   31.0038   12.1597   21.6526 C   0  0  0  0  0  0  0  0  0  0  0  0
   31.0826   14.0384   23.3156 C   0  0  0  0  0  0  0  0  0  0  0  0
   29.5537   11.9877   21.1730 C   0  0  1  0  0  0  0  0  0  0  0  0
   30.9520    9.2686   27.3183 O   0  0  0  0  0  0  0  0  0  0  0  0
   32.2812    9.6927   27.1951 C   0  0  0  0  0  0  0  0  0  0  0  0
   27.9577   12.1736   27.9870 O   0  0  0  0  0  0  0  0  0  0  0  0
   29.8088   12.8054   25.7708 O   0  0  0  0  0  0  0  0  0  0  0  0
   32.1327   14.5104   24.0929 O   0  0  0  0  0  0  0  0  0  0  0  0
   30.2862   14.8583   22.7828 O   0  0  0  0  0  0  0  0  0  0  0  0
   32.6190   10.8757   27.4824 O   0  0  0  0  0  0  0  0  0  0  0  0
   29.3358   10.9619   20.0230 C   0  0  0  0  0  0  0  0  0  0  0  0
   29.6811    9.7835   29.3405 C   0  0  0  0  0  0  0  0  0  0  0  0
   25.9571   10.4805   27.2767 C   0  0  0  0  0  0  0  0  0  0  0  0
   22.8759    8.3191   30.5947 C   0  0  0  0  0  0  0  0  0  0  0  0
   33.3201    8.7132   26.7508 C   0  0  0  0  0  0  0  0  0  0  0  0
   29.8603    9.5222   20.3232 C   0  0  0  0  0  0  0  0  0  0  0  0
   29.8688   11.5221   18.6832 C   0  0  0  0  0  0  0  0  0  0  0  0
   29.5275    8.2801   29.6150 C   0  0  0  0  0  0  0  0  0  0  0  0
   30.8134   10.3691   30.1952 C   0  0  0  0  0  0  0  0  0  0  0  0
   24.2906    8.7552   30.3286 C   0  0  0  0  0  0  0  0  0  0  0  0
   22.4451    7.0365   30.2155 C   0  0  0  0  0  0  0  0  0  0  0  0
   21.9542    9.2158   31.1658 C   0  0  0  0  0  0  0  0  0  0  0  0
   25.8313    9.8884   28.6818 C   0  0  0  0  0  0  0  0  0  0  0  0
   24.4131    9.3678   28.9306 C   0  0  0  0  0  0  0  0  0  0  0  0
   34.0559    8.1258   27.9512 C   0  0  0  0  0  0  0  0  0  0  0  0
   31.0693    9.1314   19.4610 C   0  0  0  0  0  0  0  0  0  0  0  0
   29.8575   10.4394   17.5990 C   0  0  0  0  0  0  0  0  0  0  0  0
   21.1180    6.6502   30.4297 C   0  0  0  0  0  0  0  0  0  0  0  0
   20.6291    8.8255   31.3733 C   0  0  0  0  0  0  0  0  0  0  0  0
   20.2108    7.5435   31.0086 C   0  0  0  0  0  0  0  0  0  0  0  0
   30.7671    9.2472   17.9561 C   0  0  0  0  0  0  0  0  0  0  0  0
   31.6547   12.0017   23.7258 H   0  0  0  0  0  0  0  0  0  0  0  0
   27.3696   10.9572   24.6038 H   0  0  0  0  0  0  0  0  0  0  0  0
   26.9993   12.6054   25.2152 H   0  0  0  0  0  0  0  0  0  0  0  0
   28.5468   10.5954   22.5555 H   0  0  0  0  0  0  0  0  0  0  0  0
   27.7697   12.2235   22.4053 H   0  0  0  0  0  0  0  0  0  0  0  0
   30.1651   11.1461   27.6905 H   0  0  0  0  0  0  0  0  0  0  0  0
   31.5643   11.2052   21.5891 H   0  0  0  0  0  0  0  0  0  0  0  0
   31.5455   12.9159   21.0404 H   0  0  0  0  0  0  0  0  0  0  0  0
   29.2121   12.9852   20.8103 H   0  0  0  0  0  0  0  0  0  0  0  0
   28.2315   10.8755   19.8991 H   0  0  0  0  0  0  0  0  0  0  0  0
   28.7420   10.2810   29.6663 H   0  0  0  0  0  0  0  0  0  0  0  0
   25.2516   11.3299   27.1574 H   0  0  0  0  0  0  0  0  0  0  0  0
   25.7201    9.7071   26.5152 H   0  0  0  0  0  0  0  0  0  0  0  0
   32.8330    7.8927   26.1795 H   0  0  0  0  0  0  0  0  0  0  0  0
   34.0509    9.2208   26.0804 H   0  0  0  0  0  0  0  0  0  0  0  0
   30.1333    9.3943   21.3924 H   0  0  0  0  0  0  0  0  0  0  0  0
   29.0458    8.7919   20.1206 H   0  0  0  0  0  0  0  0  0  0  0  0
   29.2317   12.3722   18.3562 H   0  0  0  0  0  0  0  0  0  0  0  0
   30.9056   11.9066   18.8018 H   0  0  0  0  0  0  0  0  0  0  0  0
   29.2514    8.1147   30.6794 H   0  0  0  0  0  0  0  0  0  0  0  0
   30.4787    7.7421   29.4115 H   0  0  0  0  0  0  0  0  0  0  0  0
   28.7281    7.8460   28.9771 H   0  0  0  0  0  0  0  0  0  0  0  0
   30.5887   10.2202   31.2713 H   0  0  0  0  0  0  0  0  0  0  0  0
   31.7810    9.8769   29.9677 H   0  0  0  0  0  0  0  0  0  0  0  0
   30.9085   11.4617   30.0156 H   0  0  0  0  0  0  0  0  0  0  0  0
   24.6016    9.4987   31.0940 H   0  0  0  0  0  0  0  0  0  0  0  0
   24.9755    7.8843   30.4169 H   0  0  0  0  0  0  0  0  0  0  0  0
   23.1342    6.3371   29.7569 H   0  0  0  0  0  0  0  0  0  0  0  0
   22.2608   10.2163   31.4418 H   0  0  0  0  0  0  0  0  0  0  0  0
   26.0728   10.6710   29.4361 H   0  0  0  0  0  0  0  0  0  0  0  0
   26.5512    9.0488   28.7943 H   0  0  0  0  0  0  0  0  0  0  0  0
   23.6905   10.2075   28.8273 H   0  0  0  0  0  0  0  0  0  0  0  0
   24.1652    8.5935   28.1698 H   0  0  0  0  0  0  0  0  0  0  0  0
   34.8042    7.3837   27.5978 H   0  0  0  0  0  0  0  0  0  0  0  0
   33.3365    7.6174   28.6330 H   0  0  0  0  0  0  0  0  0  0  0  0
   34.5836    8.9305   28.5106 H   0  0  0  0  0  0  0  0  0  0  0  0
   31.3724    8.0877   19.6941 H   0  0  0  0  0  0  0  0  0  0  0  0
   31.9275    9.7908   19.7130 H   0  0  0  0  0  0  0  0  0  0  0  0
   28.8156   10.0783   17.4627 H   0  0  0  0  0  0  0  0  0  0  0  0
   30.1847   10.8794   16.6327 H   0  0  0  0  0  0  0  0  0  0  0  0
   20.7915    5.6610   30.1468 H   0  0  0  0  0  0  0  0  0  0  0  0
   19.9249    9.5211   31.8151 H   0  0  0  0  0  0  0  0  0  0  0  0
   19.1838    7.2438   31.1710 H   0  0  0  0  0  0  0  0  0  0  0  0
   30.2870    8.3089   17.6048 H   0  0  0  0  0  0  0  0  0  0  0  0
   31.7305    9.3455   17.4119 H   0  0  0  0  0  0  0  0  0  0  0  0
  2  1  1  0
  3  1  1  0
  4  5  1  0
  5  2  1  0
  6  1  1  0
  4  7  1  6
  8  7  1  0
  9  3  1  0
  3 10  1  0
 11  6  1  0
 12  8  1  0
 13 12  1  0
 14  4  2  0
 15  2  2  0
 16 10  1  0
 17 10  2  0
 18 13  2  0
 11 19  1  0
  8 20  1  0
 22 28  1  0
 23 13  1  0
 24 19  1  0
 25 19  1  0
 26 20  1  0
 27 20  1  0
 28 32  1  0
 29 22  2  0
 30 22  1  0
 31 21  1  0
 32 31  1  0
 33 23  1  0
 34 24  1  0
 35 25  1  0
 36 29  1  0
 37 30  2  0
 38 36  2  0
 39 34  1  0
  9 11  1  0
 39 35  1  0
 38 37  1  0
  4 21  1  0
  3 40  1  6
  5 41  1  0
  5 42  1  0
  6 43  1  0
  6 44  1  0
  8 45  1  1
  9 46  1  0
  9 47  1  0
 11 48  1  1
 19 49  1  0
 20 50  1  0
 21 51  1  0
 21 52  1  0
 23 53  1  0
 23 54  1  0
 24 55  1  0
 24 56  1  0
 25 57  1  0
 25 58  1  0
 26 59  1  0
 26 60  1  0
 26 61  1  0
 27 62  1  0
 27 63  1  0
 27 64  1  0
 28 65  1  0
 28 66  1  0
 29 67  1  0
 30 68  1  0
 31 69  1  0
 31 70  1  0
 32 71  1  0
 32 72  1  0
 33 73  1  0
 33 74  1  0
 33 75  1  0
 34 76  1  0
 34 77  1  0
 35 78  1  0
 35 79  1  0
 36 80  1  0
 37 81  1  0
 38 82  1  0
 39 83  1  0
 39 84  1  0
M  CHG  1  16  -1
M  END
> <Uni-Dock RESULT> 
ENERGY=   -5.782  LOWER_BOUND=    0.000  UPPER_BOUND=    0.000
INTER + INTRA:          -5.782
INTER:                  -5.782
INTRA:                   0.000
UNBOUND:                 0.000

$$$$

     RDKit          3D

 84 86  0  0  0  0  0  0  0  0999 V2000
   32.4897   11.7265   26.7454 N   0  0  0  0  0  0  0  0  0  0  0  0
   31.1303   11.3704   26.4224 C   0  0  0  0  0  0  0  0  0  0  0  0
   33.3226   12.5680   25.8916 C   0  0  1  0  0  0  0  0  0  0  0  0
   28.5242   10.9642   27.2925 P   0  0  1  0  0  0  0  0  0  0  0  0
   30.2964   10.5387   27.3645 C   0  0  0  0  0  0  0  0  0  0  0  0
   33.1863   11.2778   27.9426 C   0  0  0  0  0  0  0  0  0  0  0  0
   28.3060   12.6113   27.7215 O   0  0  0  0  0  0  0  0  0  0  0  0
   28.0255   13.4131   26.5897 C   0  0  2  0  0  0  0  0  0  0  0  0
   34.6119   12.8109   26.6857 C   0  0  0  0  0  0  0  0  0  0  0  0
   33.6050   11.8794   24.5834 C   0  0  0  0  0  0  0  0  0  0  0  0
   34.6452   11.7015   27.7488 C   0  0  1  0  0  0  0  0  0  0  0  0
   28.5463   14.7193   26.8493 O   0  0  0  0  0  0  0  0  0  0  0  0
   29.1114   15.5544   25.8772 C   0  0  0  0  0  0  0  0  0  0  0  0
   27.9715   10.6378   25.9205 O   0  0  0  0  0  0  0  0  0  0  0  0
   30.6673   11.6732   25.2894 O   0  0  0  0  0  0  0  0  0  0  0  0
   33.2773   12.5048   23.3871 O   0  0  0  0  0  0  0  0  0  0  0  0
   34.1245   10.7305   24.5622 O   0  0  0  0  0  0  0  0  0  0  0  0
   29.2548   15.1645   24.6841 O   0  0  0  0  0  0  0  0  0  0  0  0
   35.3756   12.0550   29.0769 C   0  0  0  0  0  0  0  0  0  0  0  0
   26.4917   13.4882   26.3668 C   0  0  0  0  0  0  0  0  0  0  0  0
   27.6623    9.9418   28.5269 C   0  0  0  0  0  0  0  0  0  0  0  0
   23.2143    8.8378   30.5692 C   0  0  0  0  0  0  0  0  0  0  0  0
   29.5156   16.9434   26.2559 C   0  0  0  0  0  0  0  0  0  0  0  0
   34.8332   13.3264   29.8028 C   0  0  0  0  0  0  0  0  0  0  0  0
   36.9070   12.0999   28.8627 C   0  0  0  0  0  0  0  0  0  0  0  0
   25.7850   14.2414   27.5037 C   0  0  0  0  0  0  0  0  0  0  0  0
   26.1441   14.1195   25.0118 C   0  0  0  0  0  0  0  0  0  0  0  0
   23.9368    9.7285   29.5961 C   0  0  0  0  0  0  0  0  0  0  0  0
   23.1053    9.2043   31.9212 C   0  0  0  0  0  0  0  0  0  0  0  0
   22.6992    7.5985   30.1465 C   0  0  0  0  0  0  0  0  0  0  0  0
   26.1640   10.2510   28.5299 C   0  0  0  0  0  0  0  0  0  0  0  0
   25.4334    9.4052   29.5764 C   0  0  0  0  0  0  0  0  0  0  0  0
   28.4251   17.9430   25.8831 C   0  0  0  0  0  0  0  0  0  0  0  0
   35.8298   14.4945   29.7938 C   0  0  0  0  0  0  0  0  0  0  0  0
   37.6127   12.6582   30.1030 C   0  0  0  0  0  0  0  0  0  0  0  0
   22.4667    8.3538   32.8296 C   0  0  0  0  0  0  0  0  0  0  0  0
   22.0661    6.7515   31.0593 C   0  0  0  0  0  0  0  0  0  0  0  0
   21.9469    7.1287   32.3991 C   0  0  0  0  0  0  0  0  0  0  0  0
   37.1822   14.1047   30.4170 C   0  0  0  0  0  0  0  0  0  0  0  0
   32.8081   13.5386   25.7040 H   0  0  0  0  0  0  0  0  0  0  0  0
   30.6289   10.6851   28.4118 H   0  0  0  0  0  0  0  0  0  0  0  0
   30.4215    9.4660   27.1088 H   0  0  0  0  0  0  0  0  0  0  0  0
   32.7263   11.7503   28.8347 H   0  0  0  0  0  0  0  0  0  0  0  0
   33.1180   10.1718   28.0396 H   0  0  0  0  0  0  0  0  0  0  0  0
   28.5192   13.0160   25.6743 H   0  0  0  0  0  0  0  0  0  0  0  0
   34.5494   13.8143   27.1533 H   0  0  0  0  0  0  0  0  0  0  0  0
   35.5242   12.7873   26.0474 H   0  0  0  0  0  0  0  0  0  0  0  0
   35.1701   10.8305   27.2916 H   0  0  0  0  0  0  0  0  0  0  0  0
   35.1893   11.1967   29.7631 H   0  0  0  0  0  0  0  0  0  0  0  0
   26.0900   12.4519   26.3514 H   0  0  0  0  0  0  0  0  0  0  0  0
   27.8291    8.8713   28.2831 H   0  0  0  0  0  0  0  0  0  0  0  0
   28.0968   10.1544   29.5270 H   0  0  0  0  0  0  0  0  0  0  0  0
   29.6977   16.9885   27.3522 H   0  0  0  0  0  0  0  0  0  0  0  0
   30.4610   17.2141   25.7324 H   0  0  0  0  0  0  0  0  0  0  0  0
   33.8743   13.6773   29.3649 H   0  0  0  0  0  0  0  0  0  0  0  0
   34.6156   13.0711   30.8636 H   0  0  0  0  0  0  0  0  0  0  0  0
   37.2840   11.0742   28.6594 H   0  0  0  0  0  0  0  0  0  0  0  0
   37.1633   12.7313   27.9838 H   0  0  0  0  0  0  0  0  0  0  0  0
   24.6824   14.1652   27.3819 H   0  0  0  0  0  0  0  0  0  0  0  0
   26.0651   15.3172   27.4990 H   0  0  0  0  0  0  0  0  0  0  0  0
   26.0567   13.8059   28.4891 H   0  0  0  0  0  0  0  0  0  0  0  0
   25.0480   14.0763   24.8461 H   0  0  0  0  0  0  0  0  0  0  0  0
   26.4632   15.1811   24.9720 H   0  0  0  0  0  0  0  0  0  0  0  0
   26.6351   13.5596   24.1867 H   0  0  0  0  0  0  0  0  0  0  0  0
   23.5091    9.5938   28.5790 H   0  0  0  0  0  0  0  0  0  0  0  0
   23.7876   10.7930   29.8786 H   0  0  0  0  0  0  0  0  0  0  0  0
   23.5119   10.1458   32.2712 H   0  0  0  0  0  0  0  0  0  0  0  0
   22.7951    7.2874   29.1144 H   0  0  0  0  0  0  0  0  0  0  0  0
   25.7398   10.0365   27.5231 H   0  0  0  0  0  0  0  0  0  0  0  0
   26.0097   11.3274   28.7612 H   0  0  0  0  0  0  0  0  0  0  0  0
   25.5784    8.3270   29.3431 H   0  0  0  0  0  0  0  0  0  0  0  0
   25.8643    9.6093   30.5825 H   0  0  0  0  0  0  0  0  0  0  0  0
   28.7372   18.9628   26.1964 H   0  0  0  0  0  0  0  0  0  0  0  0
   27.4718   17.6827   26.3972 H   0  0  0  0  0  0  0  0  0  0  0  0
   28.2599   17.9396   24.7824 H   0  0  0  0  0  0  0  0  0  0  0  0
   35.4027   15.3541   30.3544 H   0  0  0  0  0  0  0  0  0  0  0  0
   35.9930   14.8289   28.7467 H   0  0  0  0  0  0  0  0  0  0  0  0
   37.3779   12.0082   30.9729 H   0  0  0  0  0  0  0  0  0  0  0  0
   38.7126   12.6232   29.9504 H   0  0  0  0  0  0  0  0  0  0  0  0
   22.3752    8.6416   33.8658 H   0  0  0  0  0  0  0  0  0  0  0  0
   21.6703    5.7990   30.7263 H   0  0  0  0  0  0  0  0  0  0  0  0
   21.4557    6.4707   33.1039 H   0  0  0  0  0  0  0  0  0  0  0  0
   37.1295   14.2344   31.5191 H   0  0  0  0  0  0  0  0  0  0  0  0
   37.9565   14.8072   30.0414 H   0  0  0  0  0  0  0  0  0  0  0  0
  2  1  1  0
  3  1  1  0
  4  5  1  0
  5  2  1  0
  6  1  1  0
  4  7  1  6
  8  7  1  0
  9  3  1  0
  3 10  1  0
 11  6  1  0
 12  8  1  0
 13 12  1  0
 14  4  2  0
 15  2  2  0
 16 10  1  0
 17 10  2  0
 18 13  2  0
 11 19  1  0
  8 20  1  0
 22 28  1  0
 23 13  1  0
 24 19  1  0
 25 19  1  0
 26 20  1  0
 27 20  1  0
 28 32  1  0
 29 22  2  0
 30 22  1  0
 31 21  1  0
 32 31  1  0
 33 23  1  0
 34 24  1  0
 35 25  1  0
 36 29  1  0
 37 30  2  0
 38 36  2  0
 39 34  1  0
  9 11  1  0
 39 35  1  0
 38 37  1  0
  4 21  1  0
  3 40  1  6
  5 41  1  0
  5 42  1  0
  6 43  1  0
  6 44  1  0
  8 45  1  1
  9 46  1  0
  9 47  1  0
 11 48  1  1
 19 49  1  0
 20 50  1  0
 21 51  1  0
 21 52  1  0
 23 53  1  0
 23 54  1  0
 24 55  1  0
 24 56  1  0
 25 57  1  0
 25 58  1  0
 26 59  1  0
 26 60  1  0
 26 61  1  0
 27 62  1  0
 27 63  1  0
 27 64  1  0
 28 65  1  0
 28 66  1  0
 29 67  1  0
 30 68  1  0
 31 69  1  0
 31 70  1  0
 32 71  1  0
 32 72  1  0
 33 73  1  0
 33 74  1  0
 33 75  1  0
 34 76  1  0
 34 77  1  0
 35 78  1  0
 35 79  1  0
 36 80  1  0
 37 81  1  0
 38 82  1  0
 39 83  1  0
 39 84  1  0
M  CHG  1  16  -1
M  END
> <Uni-Dock RESULT> 
ENERGY=   -4.182  LOWER_BOUND=    3.589  UPPER_BOUND=    6.844
INTER + INTRA:          -4.182
INTER:                  -4.182
INTRA:                   0.000
UNBOUND:                 0.000

$$$$

     RDKit          3D

 84 86  0  0  0  0  0  0  0  0999 V2000
   29.6683    7.1160   31.2084 N   0  0  0  0  0  0  0  0  0  0  0  0
   29.2471    8.4335   30.8008 C   0  0  0  0  0  0  0  0  0  0  0  0
   29.3225    6.5270   32.4985 C   0  0  1  0  0  0  0  0  0  0  0  0
   28.3057   10.0938   28.7832 P   0  0  1  0  0  0  0  0  0  0  0  0
   29.5902    8.9750   29.4356 C   0  0  0  0  0  0  0  0  0  0  0  0
   30.4935    6.2364   30.3927 C   0  0  0  0  0  0  0  0  0  0  0  0
   26.8171    9.2511   28.6489 O   0  0  0  0  0  0  0  0  0  0  0  0
   25.9104    9.6268   29.6684 C   0  0  2  0  0  0  0  0  0  0  0  0
   29.8364    5.0831   32.4423 C   0  0  0  0  0  0  0  0  0  0  0  0
   29.9663    7.2957   33.6210 C   0  0  0  0  0  0  0  0  0  0  0  0
   30.8730    5.0685   31.3077 C   0  0  1  0  0  0  0  0  0  0  0  0
   25.0830    8.4939   29.9458 O   0  0  0  0  0  0  0  0  0  0  0  0
   24.5961    8.1607   31.2160 C   0  0  0  0  0  0  0  0  0  0  0  0
   28.2044   11.3268   29.6573 O   0  0  0  0  0  0  0  0  0  0  0  0
   28.6716    9.1817   31.6366 O   0  0  0  0  0  0  0  0  0  0  0  0
   29.1813    7.8219   34.6390 O   0  0  0  0  0  0  0  0  0  0  0  0
   31.2137    7.4799   33.6395 O   0  0  0  0  0  0  0  0  0  0  0  0
   24.9210    8.8303   32.2368 O   0  0  0  0  0  0  0  0  0  0  0  0
   31.0401    3.7150   30.5578 C   0  0  0  0  0  0  0  0  0  0  0  0
   25.0379   10.8147   29.1831 C   0  0  0  0  0  0  0  0  0  0  0  0
   28.8170   10.6036   27.1127 C   0  0  0  0  0  0  0  0  0  0  0  0
   27.5991   13.3606   23.1015 C   0  0  0  0  0  0  0  0  0  0  0  0
   23.6459    7.0142   31.3543 C   0  0  0  0  0  0  0  0  0  0  0  0
   29.7247    3.1420   29.9422 C   0  0  0  0  0  0  0  0  0  0  0  0
   31.7790    2.6861   31.4459 C   0  0  0  0  0  0  0  0  0  0  0  0
   24.1078   10.4076   28.0305 C   0  0  0  0  0  0  0  0  0  0  0  0
   24.2267   11.4308   30.3311 C   0  0  0  0  0  0  0  0  0  0  0  0
   27.1460   12.8869   24.4552 C   0  0  0  0  0  0  0  0  0  0  0  0
   27.3227   12.5990   21.9535 C   0  0  0  0  0  0  0  0  0  0  0  0
   28.3611   14.5374   22.9818 C   0  0  0  0  0  0  0  0  0  0  0  0
   27.7787   11.5423   26.4953 C   0  0  0  0  0  0  0  0  0  0  0  0
   28.1944   11.9643   25.0834 C   0  0  0  0  0  0  0  0  0  0  0  0
   22.2037    7.5102   31.3888 C   0  0  0  0  0  0  0  0  0  0  0  0
   29.2427    1.8618   30.6399 C   0  0  0  0  0  0  0  0  0  0  0  0
   31.7526    1.2956   30.8028 C   0  0  0  0  0  0  0  0  0  0  0  0
   27.7805   13.0243   20.7021 C   0  0  0  0  0  0  0  0  0  0  0  0
   28.8190   14.9548   21.7298 C   0  0  0  0  0  0  0  0  0  0  0  0
   28.5274   14.2015   20.5901 C   0  0  0  0  0  0  0  0  0  0  0  0
   30.3174    0.7598   30.6313 C   0  0  0  0  0  0  0  0  0  0  0  0
   28.2155    6.5273   32.6270 H   0  0  0  0  0  0  0  0  0  0  0  0
   29.7090    8.1481   28.7070 H   0  0  0  0  0  0  0  0  0  0  0  0
   30.5525    9.5246   29.4949 H   0  0  0  0  0  0  0  0  0  0  0  0
   29.9136    5.9051   29.5068 H   0  0  0  0  0  0  0  0  0  0  0  0
   31.4084    6.7691   30.0515 H   0  0  0  0  0  0  0  0  0  0  0  0
   26.4417    9.9088   30.6051 H   0  0  0  0  0  0  0  0  0  0  0  0
   28.9801    4.4172   32.2134 H   0  0  0  0  0  0  0  0  0  0  0  0
   30.2845    4.7456   33.4043 H   0  0  0  0  0  0  0  0  0  0  0  0
   31.8562    5.3299   31.7640 H   0  0  0  0  0  0  0  0  0  0  0  0
   31.7231    3.9247   29.7023 H   0  0  0  0  0  0  0  0  0  0  0  0
   25.7133   11.6114   28.8028 H   0  0  0  0  0  0  0  0  0  0  0  0
   29.8000   11.1159   27.1809 H   0  0  0  0  0  0  0  0  0  0  0  0
   28.9289    9.6940   26.4847 H   0  0  0  0  0  0  0  0  0  0  0  0
   23.7768    6.3212   30.4944 H   0  0  0  0  0  0  0  0  0  0  0  0
   23.8679    6.4550   32.2919 H   0  0  0  0  0  0  0  0  0  0  0  0
   28.8995    3.8856   29.9602 H   0  0  0  0  0  0  0  0  0  0  0  0
   29.9027    2.9008   28.8708 H   0  0  0  0  0  0  0  0  0  0  0  0
   32.8351    3.0044   31.5831 H   0  0  0  0  0  0  0  0  0  0  0  0
   31.3125    2.6292   32.4538 H   0  0  0  0  0  0  0  0  0  0  0  0
   23.5944   11.3052   27.6218 H   0  0  0  0  0  0  0  0  0  0  0  0
   23.3345    9.6902   28.3813 H   0  0  0  0  0  0  0  0  0  0  0  0
   24.6874    9.9346   27.2091 H   0  0  0  0  0  0  0  0  0  0  0  0
   23.6854   12.3293   29.9701 H   0  0  0  0  0  0  0  0  0  0  0  0
   23.4832   10.7091   30.7271 H   0  0  0  0  0  0  0  0  0  0  0  0
   24.9016   11.7484   31.1549 H   0  0  0  0  0  0  0  0  0  0  0  0
   26.9701   13.7624   25.1169 H   0  0  0  0  0  0  0  0  0  0  0  0
   26.1800   12.3455   24.3602 H   0  0  0  0  0  0  0  0  0  0  0  0
   26.7536   11.6796   22.0262 H   0  0  0  0  0  0  0  0  0  0  0  0
   28.6053   15.1245   23.8575 H   0  0  0  0  0  0  0  0  0  0  0  0
   27.6733   12.4486   27.1334 H   0  0  0  0  0  0  0  0  0  0  0  0
   26.7964   11.0241   26.4448 H   0  0  0  0  0  0  0  0  0  0  0  0
   29.1733   12.4911   25.1311 H   0  0  0  0  0  0  0  0  0  0  0  0
   28.3120   11.0585   24.4468 H   0  0  0  0  0  0  0  0  0  0  0  0
   21.5164    6.6401   31.4666 H   0  0  0  0  0  0  0  0  0  0  0  0
   21.9680    8.0750   30.4580 H   0  0  0  0  0  0  0  0  0  0  0  0
   22.0457    8.1733   32.2687 H   0  0  0  0  0  0  0  0  0  0  0  0
   28.3270    1.4839   30.1358 H   0  0  0  0  0  0  0  0  0  0  0  0
   28.9701    2.0978   31.6910 H   0  0  0  0  0  0  0  0  0  0  0  0
   32.2454    1.3502   29.8086 H   0  0  0  0  0  0  0  0  0  0  0  0
   32.3407    0.5882   31.4258 H   0  0  0  0  0  0  0  0  0  0  0  0
   27.5586   12.4430   19.8202 H   0  0  0  0  0  0  0  0  0  0  0  0
   29.4042   15.8633   21.6450 H   0  0  0  0  0  0  0  0  0  0  0  0
   28.8831   14.5275   19.6215 H   0  0  0  0  0  0  0  0  0  0  0  0
   30.2550    0.1938   29.6773 H   0  0  0  0  0  0  0  0  0  0  0  0
   30.0926    0.0449   31.4513 H   0  0  0  0  0  0  0  0  0  0  0  0
  2  1  1  0
  3  1  1  0
  4  5  1  0
  5  2  1  0
  6  1  1  0
  4  7  1  6
  8  7  1  0
  9  3  1  0
  3 10  1  0
 11  6  1  0
 12  8  1  0
 13 12  1  0
 14  4  2  0
 15  2  2  0
 16 10  1  0
 17 10  2  0
 18 13  2  0
 11 19  1  0
  8 20  1  0
 22 28  1  0
 23 13  1  0
 24 19  1  0
 25 19  1  0
 26 20  1  0
 27 20  1  0
 28 32  1  0
 29 22  2  0
 30 22  1  0
 31 21  1  0
 32 31  1  0
 33 23  1  0
 34 24  1  0
 35 25  1  0
 36 29  1  0
 37 30  2  0
 38 36  2  0
 39 34  1  0
  9 11  1  0
 39 35  1  0
 38 37  1  0
  4 21  1  0
  3 40  1  6
  5 41  1  0
  5 42  1  0
  6 43  1  0
  6 44  1  0
  8 45  1  1
  9 46  1  0
  9 47  1  0
 11 48  1  1
 19 49  1  0
 20 50  1  0
 21 51  1  0
 21 52  1  0
 23 53  1  0
 23 54  1  0
 24 55  1  0
 24 56  1  0
 25 57  1  0
 25 58  1  0
 26 59  1  0
 26 60  1  0
 26 61  1  0
 27 62  1  0
 27 63  1  0
 27 64  1  0
 28 65  1  0
 28 66  1  0
 29 67  1  0
 30 68  1  0
 31 69  1  0
 31 70  1  0
 32 71  1  0
 32 72  1  0
 33 73  1  0
 33 74  1  0
 33 75  1  0
 34 76  1  0
 34 77  1  0
 35 78  1  0
 35 79  1  0
 36 80  1  0
 37 81  1  0
 38 82  1  0
 39 83  1  0
 39 84  1  0
M  CHG  1  16  -1
M  END
> <Uni-Dock RESULT> 
ENERGY=   -3.761  LOWER_BOUND=    4.100  UPPER_BOUND=   10.322
INTER + INTRA:          -3.761
INTER:                  -3.761
INTRA:                   0.000
UNBOUND:                 0.000

$$$$

     RDKit          3D

 84 86  0  0  0  0  0  0  0  0999 V2000
   30.4350    6.6128   31.5266 N   0  0  0  0  0  0  0  0  0  0  0  0
   30.2976    7.9760   31.0771 C   0  0  0  0  0  0  0  0  0  0  0  0
   29.7827    6.0943   32.7251 C   0  0  1  0  0  0  0  0  0  0  0  0
   29.9888    9.7450   28.9583 P   0  0  1  0  0  0  0  0  0  0  0  0
   30.9531    8.4476   29.8032 C   0  0  0  0  0  0  0  0  0  0  0  0
   31.2465    5.6105   30.8506 C   0  0  0  0  0  0  0  0  0  0  0  0
   28.4359    9.1396   28.5503 O   0  0  0  0  0  0  0  0  0  0  0  0
   27.4326    9.6581   29.4030 C   0  0  2  0  0  0  0  0  0  0  0  0
   30.0723    4.5882   32.7318 C   0  0  0  0  0  0  0  0  0  0  0  0
   30.3295    6.7639   33.9571 C   0  0  0  0  0  0  0  0  0  0  0  0
   31.2772    4.4056   31.7953 C   0  0  1  0  0  0  0  0  0  0  0  0
   26.4065    8.6679   29.5102 O   0  0  0  0  0  0  0  0  0  0  0  0
   25.6595    8.4235   30.6695 C   0  0  0  0  0  0  0  0  0  0  0  0
   29.9250   10.9859   29.8248 O   0  0  0  0  0  0  0  0  0  0  0  0
   29.7055    8.8104   31.8138 O   0  0  0  0  0  0  0  0  0  0  0  0
   29.4677    7.4125   34.8325 O   0  0  0  0  0  0  0  0  0  0  0  0
   31.5676    6.7547   34.1964 O   0  0  0  0  0  0  0  0  0  0  0  0
   25.8987    9.0435   31.7439 O   0  0  0  0  0  0  0  0  0  0  0  0
   31.3648    3.0365   31.0602 C   0  0  0  0  0  0  0  0  0  0  0  0
   26.8501   10.9620   28.7959 C   0  0  0  0  0  0  0  0  0  0  0  0
   30.8566   10.1569   27.4126 C   0  0  0  0  0  0  0  0  0  0  0  0
   30.7953   13.0361   23.3040 C   0  0  0  0  0  0  0  0  0  0  0  0
   24.5363    7.4376   30.6179 C   0  0  0  0  0  0  0  0  0  0  0  0
   30.1059    2.6673   30.2138 C   0  0  0  0  0  0  0  0  0  0  0  0
   31.7710    1.9136   32.0437 C   0  0  0  0  0  0  0  0  0  0  0  0
   26.0854   10.6932   27.4912 C   0  0  0  0  0  0  0  0  0  0  0  0
   25.9538   11.7044   29.7964 C   0  0  0  0  0  0  0  0  0  0  0  0
   30.0451   12.6483   24.5486 C   0  0  0  0  0  0  0  0  0  0  0  0
   30.6116   12.3167   22.1110 C   0  0  0  0  0  0  0  0  0  0  0  0
   31.7368   14.0810   23.3416 C   0  0  0  0  0  0  0  0  0  0  0  0
   30.0979   11.2389   26.6417 C   0  0  0  0  0  0  0  0  0  0  0  0
   30.8140   11.5808   25.3323 C   0  0  0  0  0  0  0  0  0  0  0  0
   23.2030    8.1493   30.4099 C   0  0  0  0  0  0  0  0  0  0  0  0
   29.3197    1.4818   30.7922 C   0  0  0  0  0  0  0  0  0  0  0  0
   31.6460    0.5385   31.3794 C   0  0  0  0  0  0  0  0  0  0  0  0
   31.3409   12.6568   20.9670 C   0  0  0  0  0  0  0  0  0  0  0  0
   32.4653   14.4132   22.1968 C   0  0  0  0  0  0  0  0  0  0  0  0
   32.2665   13.7044   21.0095 C   0  0  0  0  0  0  0  0  0  0  0  0
   30.1984    0.2279   30.9500 C   0  0  0  0  0  0  0  0  0  0  0  0
   28.6836    6.2654   32.6585 H   0  0  0  0  0  0  0  0  0  0  0  0
   31.0703    7.6064   29.0908 H   0  0  0  0  0  0  0  0  0  0  0  0
   31.9625    8.8435   30.0399 H   0  0  0  0  0  0  0  0  0  0  0  0
   30.7872    5.3651   29.8710 H   0  0  0  0  0  0  0  0  0  0  0  0
   32.2774    5.9938   30.6844 H   0  0  0  0  0  0  0  0  0  0  0  0
   27.8282    9.8628   30.4233 H   0  0  0  0  0  0  0  0  0  0  0  0
   29.1780    4.0597   32.3443 H   0  0  0  0  0  0  0  0  0  0  0  0
   30.2881    4.1936   33.7505 H   0  0  0  0  0  0  0  0  0  0  0  0
   32.1934    4.5167   32.4210 H   0  0  0  0  0  0  0  0  0  0  0  0
   32.2111    3.1322   30.3412 H   0  0  0  0  0  0  0  0  0  0  0  0
   27.6951   11.6425   28.5545 H   0  0  0  0  0  0  0  0  0  0  0  0
   31.8787   10.5129   27.6610 H   0  0  0  0  0  0  0  0  0  0  0  0
   30.9367    9.2360   26.7965 H   0  0  0  0  0  0  0  0  0  0  0  0
   24.7086    6.7258   29.7809 H   0  0  0  0  0  0  0  0  0  0  0  0
   24.5027    6.8584   31.5690 H   0  0  0  0  0  0  0  0  0  0  0  0
   29.4135    3.5289   30.1019 H   0  0  0  0  0  0  0  0  0  0  0  0
   30.4301    2.3931   29.1855 H   0  0  0  0  0  0  0  0  0  0  0  0
   32.8226    2.0671   32.3691 H   0  0  0  0  0  0  0  0  0  0  0  0
   31.1319    1.9370   32.9536 H   0  0  0  0  0  0  0  0  0  0  0  0
   25.7945   11.6557   27.0164 H   0  0  0  0  0  0  0  0  0  0  0  0
   25.1624   10.1058   27.6880 H   0  0  0  0  0  0  0  0  0  0  0  0
   26.7210   10.1303   26.7745 H   0  0  0  0  0  0  0  0  0  0  0  0
   25.6276   12.6724   29.3638 H   0  0  0  0  0  0  0  0  0  0  0  0
   25.0513   11.1085   30.0428 H   0  0  0  0  0  0  0  0  0  0  0  0
   26.5144   11.9212   30.7312 H   0  0  0  0  0  0  0  0  0  0  0  0
   29.8915   13.5457   25.1861 H   0  0  0  0  0  0  0  0  0  0  0  0
   29.0396   12.2608   24.2762 H   0  0  0  0  0  0  0  0  0  0  0  0
   29.9051   11.4962   22.0658 H   0  0  0  0  0  0  0  0  0  0  0  0
   31.9104   14.6307   24.2575 H   0  0  0  0  0  0  0  0  0  0  0  0
   30.0218   12.1557   27.2689 H   0  0  0  0  0  0  0  0  0  0  0  0
   29.0724   10.8772   26.4108 H   0  0  0  0  0  0  0  0  0  0  0  0
   31.8381   11.9515   25.5600 H   0  0  0  0  0  0  0  0  0  0  0  0
   30.9019   10.6626   24.7087 H   0  0  0  0  0  0  0  0  0  0  0  0
   22.3883    7.3955   30.3500 H   0  0  0  0  0  0  0  0  0  0  0  0
   23.2231    8.7360   29.4632 H   0  0  0  0  0  0  0  0  0  0  0  0
   22.9962    8.8357   31.2613 H   0  0  0  0  0  0  0  0  0  0  0  0
   28.4597    1.2449   30.1289 H   0  0  0  0  0  0  0  0  0  0  0  0
   28.9063    1.7652   31.7839 H   0  0  0  0  0  0  0  0  0  0  0  0
   32.3079    0.5089   30.4876 H   0  0  0  0  0  0  0  0  0  0  0  0
   32.0010   -0.2457   32.0818 H   0  0  0  0  0  0  0  0  0  0  0  0
   31.1911   12.1094   20.0489 H   0  0  0  0  0  0  0  0  0  0  0  0
   33.1878   15.2204   22.2327 H   0  0  0  0  0  0  0  0  0  0  0  0
   32.8319   13.9643   20.1242 H   0  0  0  0  0  0  0  0  0  0  0  0
   30.2187   -0.3294   29.9891 H   0  0  0  0  0  0  0  0  0  0  0  0
   29.7271   -0.4374   31.7044 H   0  0  0  0  0  0  0  0  0  0  0  0
  2  1  1  0
  3  1  1  0
  4  5  1  0
  5  2  1  0
  6  1  1  0
  4  7  1  6
  8  7  1  0
  9  3  1  0
  3 10  1  0
 11  6  1  0
 12  8  1  0
 13 12  1  0
 14  4  2  0
 15  2  2  0
 16 10  1  0
 17 10  2  0
 18 13  2  0
 11 19  1  0
  8 20  1  0
 22 28  1  0
 23 13  1  0
 24 19  1  0
 25 19  1  0
 26 20  1  0
 27 20  1  0
 28 32  1  0
 29 22  2  0
 30 22  1  0
 31 21  1  0
 32 31  1  0
 33 23  1  0
 34 24  1  0
 35 25  1  0
 36 29  1  0
 37 30  2  0
 38 36  2  0
 39 34  1  0
  9 11  1  0
 39 35  1  0
 38 37  1  0
  4 21  1  0
  3 40  1  6
  5 41  1  0
  5 42  1  0
  6 43  1  0
  6 44  1  0
  8 45  1  1
  9 46  1  0
  9 47  1  0
 11 48  1  1
 19 49  1  0
 20 50  1  0
 21 51  1  0
 21 52  1  0
 23 53  1  0
 23 54  1  0
 24 55  1  0
 24 56  1  0
 25 57  1  0
 25 58  1  0
 26 59  1  0
 26 60  1  0
 26 61  1  0
 27 62  1  0
 27 63  1  0
 27 64  1  0
 28 65  1  0
 28 66  1  0
 29 67  1  0
 30 68  1  0
 31 69  1  0
 31 70  1  0
 32 71  1  0
 32 72  1  0
 33 73  1  0
 33 74  1  0
 33 75  1  0
 34 76  1  0
 34 77  1  0
 35 78  1  0
 35 79  1  0
 36 80  1  0
 37 81  1  0
 38 82  1  0
 39 83  1  0
 39 84  1  0
M  CHG  1  16  -1
M  END
> <Uni-Dock RESULT> 
ENERGY=   -3.700  LOWER_BOUND=    4.317  UPPER_BOUND=   10.884
INTER + INTRA:          -3.700
INTER:                  -3.700
INTRA:                   0.000
UNBOUND:                 0.000

$$$$

     RDKit          3D

 84 86  0  0  0  0  0  0  0  0999 V2000
   30.4350    6.6129   31.5266 N   0  0  0  0  0  0  0  0  0  0  0  0
   30.2976    7.9761   31.0771 C   0  0  0  0  0  0  0  0  0  0  0  0
   29.7827    6.0943   32.7251 C   0  0  1  0  0  0  0  0  0  0  0  0
   29.9887    9.7451   28.9583 P   0  0  1  0  0  0  0  0  0  0  0  0
   30.9531    8.4476   29.8033 C   0  0  0  0  0  0  0  0  0  0  0  0
   31.2464    5.6106   30.8507 C   0  0  0  0  0  0  0  0  0  0  0  0
   28.4358    9.1396   28.5503 O   0  0  0  0  0  0  0  0  0  0  0  0
   27.4325    9.6581   29.4031 C   0  0  2  0  0  0  0  0  0  0  0  0
   30.0723    4.5882   32.7318 C   0  0  0  0  0  0  0  0  0  0  0  0
   30.3294    6.7640   33.9572 C   0  0  0  0  0  0  0  0  0  0  0  0
   31.2772    4.4056   31.7953 C   0  0  1  0  0  0  0  0  0  0  0  0
   26.4064    8.6679   29.5102 O   0  0  0  0  0  0  0  0  0  0  0  0
   25.6594    8.4235   30.6695 C   0  0  0  0  0  0  0  0  0  0  0  0
   29.9249   10.9860   29.8248 O   0  0  0  0  0  0  0  0  0  0  0  0
   29.7054    8.8104   31.8139 O   0  0  0  0  0  0  0  0  0  0  0  0
   29.4676    7.4126   34.8325 O   0  0  0  0  0  0  0  0  0  0  0  0
   31.5675    6.7548   34.1965 O   0  0  0  0  0  0  0  0  0  0  0  0
   25.8986    9.0435   31.7439 O   0  0  0  0  0  0  0  0  0  0  0  0
   31.3649    3.0366   31.0603 C   0  0  0  0  0  0  0  0  0  0  0  0
   26.8500   10.9619   28.7959 C   0  0  0  0  0  0  0  0  0  0  0  0
   30.8565   10.1570   27.4127 C   0  0  0  0  0  0  0  0  0  0  0  0
   30.7952   13.0361   23.3040 C   0  0  0  0  0  0  0  0  0  0  0  0
   24.5362    7.4375   30.6179 C   0  0  0  0  0  0  0  0  0  0  0  0
   30.1059    2.6673   30.2139 C   0  0  0  0  0  0  0  0  0  0  0  0
   31.7710    1.9137   32.0438 C   0  0  0  0  0  0  0  0  0  0  0  0
   26.0853   10.6931   27.4912 C   0  0  0  0  0  0  0  0  0  0  0  0
   25.9537   11.7043   29.7964 C   0  0  0  0  0  0  0  0  0  0  0  0
   30.0450   12.6483   24.5486 C   0  0  0  0  0  0  0  0  0  0  0  0
   30.6115   12.3167   22.1110 C   0  0  0  0  0  0  0  0  0  0  0  0
   31.7367   14.0811   23.3416 C   0  0  0  0  0  0  0  0  0  0  0  0
   30.0978   11.2389   26.6417 C   0  0  0  0  0  0  0  0  0  0  0  0
   30.8139   11.5809   25.3323 C   0  0  0  0  0  0  0  0  0  0  0  0
   23.2030    8.1492   30.4099 C   0  0  0  0  0  0  0  0  0  0  0  0
   29.3197    1.4819   30.7922 C   0  0  0  0  0  0  0  0  0  0  0  0
   31.6460    0.5385   31.3795 C   0  0  0  0  0  0  0  0  0  0  0  0
   31.3409   12.6568   20.9670 C   0  0  0  0  0  0  0  0  0  0  0  0
   32.4652   14.4133   22.1969 C   0  0  0  0  0  0  0  0  0  0  0  0
   32.2664   13.7045   21.0095 C   0  0  0  0  0  0  0  0  0  0  0  0
   30.1985    0.2279   30.9500 C   0  0  0  0  0  0  0  0  0  0  0  0
   28.6835    6.2654   32.6585 H   0  0  0  0  0  0  0  0  0  0  0  0
   31.0702    7.6065   29.0908 H   0  0  0  0  0  0  0  0  0  0  0  0
   31.9625    8.8436   30.0400 H   0  0  0  0  0  0  0  0  0  0  0  0
   30.7872    5.3651   29.8711 H   0  0  0  0  0  0  0  0  0  0  0  0
   32.2774    5.9939   30.6844 H   0  0  0  0  0  0  0  0  0  0  0  0
   27.8281    9.8628   30.4233 H   0  0  0  0  0  0  0  0  0  0  0  0
   29.1780    4.0597   32.3443 H   0  0  0  0  0  0  0  0  0  0  0  0
   30.2881    4.1936   33.7506 H   0  0  0  0  0  0  0  0  0  0  0  0
   32.1934    4.5168   32.4210 H   0  0  0  0  0  0  0  0  0  0  0  0
   32.2111    3.1322   30.3412 H   0  0  0  0  0  0  0  0  0  0  0  0
   27.6950   11.6425   28.5546 H   0  0  0  0  0  0  0  0  0  0  0  0
   31.8787   10.5130   27.6610 H   0  0  0  0  0  0  0  0  0  0  0  0
   30.9367    9.2360   26.7965 H   0  0  0  0  0  0  0  0  0  0  0  0
   24.7086    6.7258   29.7809 H   0  0  0  0  0  0  0  0  0  0  0  0
   24.5026    6.8583   31.5690 H   0  0  0  0  0  0  0  0  0  0  0  0
   29.4135    3.5289   30.1019 H   0  0  0  0  0  0  0  0  0  0  0  0
   30.4301    2.3931   29.1856 H   0  0  0  0  0  0  0  0  0  0  0  0
   32.8226    2.0672   32.3692 H   0  0  0  0  0  0  0  0  0  0  0  0
   31.1320    1.9370   32.9537 H   0  0  0  0  0  0  0  0  0  0  0  0
   25.7944   11.6556   27.0164 H   0  0  0  0  0  0  0  0  0  0  0  0
   25.1623   10.1057   27.6880 H   0  0  0  0  0  0  0  0  0  0  0  0
   26.7210   10.1303   26.7745 H   0  0  0  0  0  0  0  0  0  0  0  0
   25.6275   12.6724   29.3638 H   0  0  0  0  0  0  0  0  0  0  0  0
   25.0511   11.1085   30.0427 H   0  0  0  0  0  0  0  0  0  0  0  0
   26.5142   11.9212   30.7312 H   0  0  0  0  0  0  0  0  0  0  0  0
   29.8914   13.5458   25.1861 H   0  0  0  0  0  0  0  0  0  0  0  0
   29.0396   12.2608   24.2762 H   0  0  0  0  0  0  0  0  0  0  0  0
   29.9051   11.4962   22.0658 H   0  0  0  0  0  0  0  0  0  0  0  0
   31.9103   14.6307   24.2575 H   0  0  0  0  0  0  0  0  0  0  0  0
   30.0217   12.1557   27.2689 H   0  0  0  0  0  0  0  0  0  0  0  0
   29.0723   10.8772   26.4108 H   0  0  0  0  0  0  0  0  0  0  0  0
   31.8380   11.9516   25.5600 H   0  0  0  0  0  0  0  0  0  0  0  0
   30.9018   10.6626   24.7088 H   0  0  0  0  0  0  0  0  0  0  0  0
   22.3882    7.3954   30.3500 H   0  0  0  0  0  0  0  0  0  0  0  0
   23.2230    8.7359   29.4632 H   0  0  0  0  0  0  0  0  0  0  0  0
   22.9962    8.8357   31.2613 H   0  0  0  0  0  0  0  0  0  0  0  0
   28.4598    1.2449   30.1290 H   0  0  0  0  0  0  0  0  0  0  0  0
   28.9063    1.7653   31.7840 H   0  0  0  0  0  0  0  0  0  0  0  0
   32.3080    0.5089   30.4877 H   0  0  0  0  0  0  0  0  0  0  0  0
   32.0011   -0.2457   32.0818 H   0  0  0  0  0  0  0  0  0  0  0  0
   31.1910   12.1094   20.0489 H   0  0  0  0  0  0  0  0  0  0  0  0
   33.1877   15.2205   22.2328 H   0  0  0  0  0  0  0  0  0  0  0  0
   32.8319   13.9644   20.1243 H   0  0  0  0  0  0  0  0  0  0  0  0
   30.2188   -0.3294   29.9892 H   0  0  0  0  0  0  0  0  0  0  0  0
   29.7272   -0.4374   31.7045 H   0  0  0  0  0  0  0  0  0  0  0  0
  2  1  1  0
  3  1  1  0
  4  5  1  0
  5  2  1  0
  6  1  1  0
  4  7  1  6
  8  7  1  0
  9  3  1  0
  3 10  1  0
 11  6  1  0
 12  8  1  0
 13 12  1  0
 14  4  2  0
 15  2  2  0
 16 10  1  0
 17 10  2  0
 18 13  2  0
 11 19  1  0
  8 20  1  0
 22 28  1  0
 23 13  1  0
 24 19  1  0
 25 19  1  0
 26 20  1  0
 27 20  1  0
 28 32  1  0
 29 22  2  0
 30 22  1  0
 31 21  1  0
 32 31  1  0
 33 23  1  0
 34 24  1  0
 35 25  1  0
 36 29  1  0
 37 30  2  0
 38 36  2  0
 39 34  1  0
  9 11  1  0
 39 35  1  0
 38 37  1  0
  4 21  1  0
  3 40  1  6
  5 41  1  0
  5 42  1  0
  6 43  1  0
  6 44  1  0
  8 45  1  1
  9 46  1  0
  9 47  1  0
 11 48  1  1
 19 49  1  0
 20 50  1  0
 21 51  1  0
 21 52  1  0
 23 53  1  0
 23 54  1  0
 24 55  1  0
 24 56  1  0
 25 57  1  0
 25 58  1  0
 26 59  1  0
 26 60  1  0
 26 61  1  0
 27 62  1  0
 27 63  1  0
 27 64  1  0
 28 65  1  0
 28 66  1  0
 29 67  1  0
 30 68  1  0
 31 69  1  0
 31 70  1  0
 32 71  1  0
 32 72  1  0
 33 73  1  0
 33 74  1  0
 33 75  1  0
 34 76  1  0
 34 77  1  0
 35 78  1  0
 35 79  1  0
 36 80  1  0
 37 81  1  0
 38 82  1  0
 39 83  1  0
 39 84  1  0
M  CHG  1  16  -1
M  END
> <Uni-Dock RESULT> 
ENERGY=   -3.700  LOWER_BOUND=    4.317  UPPER_BOUND=   10.884
INTER + INTRA:          -3.700
INTER:                  -3.700
INTRA:                   0.000
UNBOUND:                 0.000

$$$$

     RDKit          3D

 84 86  0  0  0  0  0  0  0  0999 V2000
   31.4673   13.4448   22.1014 N   0  0  0  0  0  0  0  0  0  0  0  0
   30.4140   13.4425   21.1166 C   0  0  0  0  0  0  0  0  0  0  0  0
   32.2292   14.6378   22.4577 C   0  0  1  0  0  0  0  0  0  0  0  0
   27.8982   12.5495   20.3505 P   0  0  1  0  0  0  0  0  0  0  0  0
   29.6237   12.1922   20.8220 C   0  0  0  0  0  0  0  0  0  0  0  0
   31.8984   12.2633   22.8351 C   0  0  0  0  0  0  0  0  0  0  0  0
   27.1070   13.3750   21.6299 O   0  0  0  0  0  0  0  0  0  0  0  0
   26.9381   14.7495   21.3390 C   0  0  2  0  0  0  0  0  0  0  0  0
   33.1186   14.2211   23.6356 C   0  0  0  0  0  0  0  0  0  0  0  0
   33.0517   15.1094   21.2887 C   0  0  0  0  0  0  0  0  0  0  0  0
   33.1683   12.6860   23.5794 C   0  0  1  0  0  0  0  0  0  0  0  0
   26.9690   15.4580   22.5808 O   0  0  0  0  0  0  0  0  0  0  0  0
   27.5205   16.7341   22.7512 C   0  0  0  0  0  0  0  0  0  0  0  0
   27.8698   13.3225   19.0480 O   0  0  0  0  0  0  0  0  0  0  0  0
   30.2208   14.4753   20.4197 O   0  0  0  0  0  0  0  0  0  0  0  0
   32.9080   16.4095   20.8210 O   0  0  0  0  0  0  0  0  0  0  0  0
   33.8622   14.3296   20.7184 O   0  0  0  0  0  0  0  0  0  0  0  0
   28.0979   17.3291   21.7980 O   0  0  0  0  0  0  0  0  0  0  0  0
   33.3642   11.9623   24.9433 C   0  0  0  0  0  0  0  0  0  0  0  0
   25.5736   14.9731   20.6346 C   0  0  0  0  0  0  0  0  0  0  0  0
   27.0548   10.9562   20.1016 C   0  0  0  0  0  0  0  0  0  0  0  0
   22.7222    8.7452   18.8710 C   0  0  0  0  0  0  0  0  0  0  0  0
   27.3876   17.4141   24.0764 C   0  0  0  0  0  0  0  0  0  0  0  0
   32.3001   12.3160   26.0297 C   0  0  0  0  0  0  0  0  0  0  0  0
   34.8147   12.1382   25.4515 C   0  0  0  0  0  0  0  0  0  0  0  0
   24.3920   14.6729   21.5689 C   0  0  0  0  0  0  0  0  0  0  0  0
   25.4545   16.3923   20.0628 C   0  0  0  0  0  0  0  0  0  0  0  0
   23.4023   10.0593   19.1409 C   0  0  0  0  0  0  0  0  0  0  0  0
   22.1384    8.0186   19.9226 C   0  0  0  0  0  0  0  0  0  0  0  0
   22.7230    8.2010   17.5735 C   0  0  0  0  0  0  0  0  0  0  0  0
   25.5926   11.1771   19.7094 C   0  0  0  0  0  0  0  0  0  0  0  0
   24.8717    9.8408   19.5124 C   0  0  0  0  0  0  0  0  0  0  0  0
   26.2070   18.3803   24.0707 C   0  0  0  0  0  0  0  0  0  0  0  0
   32.8818   13.1208   27.2009 C   0  0  0  0  0  0  0  0  0  0  0  0
   34.9539   11.6195   26.8866 C   0  0  0  0  0  0  0  0  0  0  0  0
   21.5418    6.7786   19.6723 C   0  0  0  0  0  0  0  0  0  0  0  0
   22.1292    6.9600   17.3306 C   0  0  0  0  0  0  0  0  0  0  0  0
   21.5365    6.2499   18.3775 C   0  0  0  0  0  0  0  0  0  0  0  0
   34.0578   12.3915   27.8751 C   0  0  0  0  0  0  0  0  0  0  0  0
   31.5329   15.4460   22.7800 H   0  0  0  0  0  0  0  0  0  0  0  0
   29.5929   11.5320   21.7119 H   0  0  0  0  0  0  0  0  0  0  0  0
   30.1167   11.6376   19.9968 H   0  0  0  0  0  0  0  0  0  0  0  0
   31.0916   11.9455   23.5272 H   0  0  0  0  0  0  0  0  0  0  0  0
   32.1248   11.4314   22.1323 H   0  0  0  0  0  0  0  0  0  0  0  0
   27.7606   15.1360   20.6960 H   0  0  0  0  0  0  0  0  0  0  0  0
   32.6433   14.5740   24.5730 H   0  0  0  0  0  0  0  0  0  0  0  0
   34.1402   14.6612   23.5833 H   0  0  0  0  0  0  0  0  0  0  0  0
   34.0265   12.4136   22.9217 H   0  0  0  0  0  0  0  0  0  0  0  0
   33.2465   10.8749   24.7291 H   0  0  0  0  0  0  0  0  0  0  0  0
   25.5062   14.2729   19.7740 H   0  0  0  0  0  0  0  0  0  0  0  0
   27.5821   10.3941   19.3020 H   0  0  0  0  0  0  0  0  0  0  0  0
   27.1118   10.3751   21.0467 H   0  0  0  0  0  0  0  0  0  0  0  0
   27.2342   16.6496   24.8694 H   0  0  0  0  0  0  0  0  0  0  0  0
   28.3232   17.9737   24.3056 H   0  0  0  0  0  0  0  0  0  0  0  0
   31.4439   12.8815   25.6038 H   0  0  0  0  0  0  0  0  0  0  0  0
   31.8764   11.3728   26.4404 H   0  0  0  0  0  0  0  0  0  0  0  0
   35.5103   11.5763   24.7915 H   0  0  0  0  0  0  0  0  0  0  0  0
   35.1153   13.2085   25.4213 H   0  0  0  0  0  0  0  0  0  0  0  0
   23.4376   14.7161   21.0000 H   0  0  0  0  0  0  0  0  0  0  0  0
   24.3423   15.4157   22.3944 H   0  0  0  0  0  0  0  0  0  0  0  0
   24.4892   13.6569   22.0080 H   0  0  0  0  0  0  0  0  0  0  0  0
   24.5089   16.4900   19.4909 H   0  0  0  0  0  0  0  0  0  0  0  0
   25.4544   17.1505   20.8724 H   0  0  0  0  0  0  0  0  0  0  0  0
   26.2958   16.6012   19.3673 H   0  0  0  0  0  0  0  0  0  0  0  0
   23.3340   10.7063   18.2397 H   0  0  0  0  0  0  0  0  0  0  0  0
   22.8820   10.5891   19.9678 H   0  0  0  0  0  0  0  0  0  0  0  0
   22.1436    8.4111   20.9326 H   0  0  0  0  0  0  0  0  0  0  0  0
   23.1892    8.7339   16.7551 H   0  0  0  0  0  0  0  0  0  0  0  0
   25.5475   11.7618   18.7630 H   0  0  0  0  0  0  0  0  0  0  0  0
   25.0786   11.7522   20.5100 H   0  0  0  0  0  0  0  0  0  0  0  0
   25.3783    9.2659   18.7056 H   0  0  0  0  0  0  0  0  0  0  0  0
   24.9260    9.2495   20.4543 H   0  0  0  0  0  0  0  0  0  0  0  0
   26.1135   18.8539   25.0720 H   0  0  0  0  0  0  0  0  0  0  0  0
   25.2638   17.8348   23.8393 H   0  0  0  0  0  0  0  0  0  0  0  0
   26.3651   19.1767   23.3094 H   0  0  0  0  0  0  0  0  0  0  0  0
   32.0875   13.3096   27.9552 H   0  0  0  0  0  0  0  0  0  0  0  0
   33.2293   14.1089   26.8297 H   0  0  0  0  0  0  0  0  0  0  0  0
   34.6808   10.5427   26.9074 H   0  0  0  0  0  0  0  0  0  0  0  0
   36.0146   11.6985   27.2076 H   0  0  0  0  0  0  0  0  0  0  0  0
   21.0852    6.2266   20.4797 H   0  0  0  0  0  0  0  0  0  0  0  0
   22.1322    6.5477   16.3282 H   0  0  0  0  0  0  0  0  0  0  0  0
   21.0770    5.2891   18.1863 H   0  0  0  0  0  0  0  0  0  0  0  0
   33.6635   11.6826   28.6342 H   0  0  0  0  0  0  0  0  0  0  0  0
   34.6717   13.1426   28.4164 H   0  0  0  0  0  0  0  0  0  0  0  0
  2  1  1  0
  3  1  1  0
  4  5  1  0
  5  2  1  0
  6  1  1  0
  4  7  1  6
  8  7  1  0
  9  3  1  0
  3 10  1  0
 11  6  1  0
 12  8  1  0
 13 12  1  0
 14  4  2  0
 15  2  2  0
 16 10  1  0
 17 10  2  0
 18 13  2  0
 11 19  1  0
  8 20  1  0
 22 28  1  0
 23 13  1  0
 24 19  1  0
 25 19  1  0
 26 20  1  0
 27 20  1  0
 28 32  1  0
 29 22  2  0
 30 22  1  0
 31 21  1  0
 32 31  1  0
 33 23  1  0
 34 24  1  0
 35 25  1  0
 36 29  1  0
 37 30  2  0
 38 36  2  0
 39 34  1  0
  9 11  1  0
 39 35  1  0
 38 37  1  0
  4 21  1  0
  3 40  1  6
  5 41  1  0
  5 42  1  0
  6 43  1  0
  6 44  1  0
  8 45  1  1
  9 46  1  0
  9 47  1  0
 11 48  1  1
 19 49  1  0
 20 50  1  0
 21 51  1  0
 21 52  1  0
 23 53  1  0
 23 54  1  0
 24 55  1  0
 24 56  1  0
 25 57  1  0
 25 58  1  0
 26 59  1  0
 26 60  1  0
 26 61  1  0
 27 62  1  0
 27 63  1  0
 27 64  1  0
 28 65  1  0
 28 66  1  0
 29 67  1  0
 30 68  1  0
 31 69  1  0
 31 70  1  0
 32 71  1  0
 32 72  1  0
 33 73  1  0
 33 74  1  0
 33 75  1  0
 34 76  1  0
 34 77  1  0
 35 78  1  0
 35 79  1  0
 36 80  1  0
 37 81  1  0
 38 82  1  0
 39 83  1  0
 39 84  1  0
M  CHG  1  16  -1
M  END
> <Uni-Dock RESULT> 
ENERGY=   -3.616  LOWER_BOUND=    6.280  UPPER_BOUND=    8.964
INTER + INTRA:          -3.616
INTER:                  -3.616
INTRA:                   0.000
UNBOUND:                 0.000

$$$$

     RDKit          3D

 84 86  0  0  0  0  0  0  0  0999 V2000
   30.4987    8.2628   30.2218 N   0  0  0  0  0  0  0  0  0  0  0  0
   30.5888    9.6119   29.7206 C   0  0  0  0  0  0  0  0  0  0  0  0
   29.6747    7.8861   31.3663 C   0  0  1  0  0  0  0  0  0  0  0  0
   30.7184   11.3142   27.5299 P   0  0  1  0  0  0  0  0  0  0  0  0
   31.4166    9.9383   28.5028 C   0  0  0  0  0  0  0  0  0  0  0  0
   31.2262    7.1346   29.6581 C   0  0  0  0  0  0  0  0  0  0  0  0
   29.1423   10.9017   26.9914 O   0  0  0  0  0  0  0  0  0  0  0  0
   28.1439   11.5836   27.7268 C   0  0  2  0  0  0  0  0  0  0  0  0
   29.7563    6.3567   31.4461 C   0  0  0  0  0  0  0  0  0  0  0  0
   30.1909    8.5299   32.6250 C   0  0  0  0  0  0  0  0  0  0  0  0
   31.0066    5.9773   30.6368 C   0  0  1  0  0  0  0  0  0  0  0  0
   26.9880   10.7425   27.7634 O   0  0  0  0  0  0  0  0  0  0  0  0
   26.1111   10.6482   28.8515 C   0  0  0  0  0  0  0  0  0  0  0  0
   30.7433   12.5885   28.3486 O   0  0  0  0  0  0  0  0  0  0  0  0
   30.0494   10.5475   30.3711 O   0  0  0  0  0  0  0  0  0  0  0  0
   29.3477    9.3230   33.3929 O   0  0  0  0  0  0  0  0  0  0  0  0
   31.3891    8.3679   32.9836 O   0  0  0  0  0  0  0  0  0  0  0  0
   26.3319   11.2765   29.9251 O   0  0  0  0  0  0  0  0  0  0  0  0
   30.9759    4.5786   29.9550 C   0  0  0  0  0  0  0  0  0  0  0  0
   27.8014   12.9257   27.0273 C   0  0  0  0  0  0  0  0  0  0  0  0
   31.7727   11.5421   26.0641 C   0  0  0  0  0  0  0  0  0  0  0  0
   32.4800   14.2266   21.8847 C   0  0  0  0  0  0  0  0  0  0  0  0
   24.8747    9.8174   28.7206 C   0  0  0  0  0  0  0  0  0  0  0  0
   29.7620    4.3426   29.0018 C   0  0  0  0  0  0  0  0  0  0  0  0
   31.1342    3.4549   31.0064 C   0  0  0  0  0  0  0  0  0  0  0  0
   27.1310   12.7046   25.6631 C   0  0  0  0  0  0  0  0  0  0  0  0
   26.9252   13.8216   27.9134 C   0  0  0  0  0  0  0  0  0  0  0  0
   31.5728   13.9943   23.0617 C   0  0  0  0  0  0  0  0  0  0  0  0
   32.3116   13.4875   20.7016 C   0  0  0  0  0  0  0  0  0  0  0  0
   33.5466   15.1391   21.9823 C   0  0  0  0  0  0  0  0  0  0  0  0
   31.2415   12.6807   25.1912 C   0  0  0  0  0  0  0  0  0  0  0  0
   32.1149   12.8693   23.9479 C   0  0  0  0  0  0  0  0  0  0  0  0
   23.6747   10.6889   28.3630 C   0  0  0  0  0  0  0  0  0  0  0  0
   28.7730    3.2967   29.5363 C   0  0  0  0  0  0  0  0  0  0  0  0
   30.8863    2.0812   30.3745 C   0  0  0  0  0  0  0  0  0  0  0  0
   33.1826   13.6795   19.6242 C   0  0  0  0  0  0  0  0  0  0  0  0
   34.4157   15.3235   20.9043 C   0  0  0  0  0  0  0  0  0  0  0  0
   34.2333   14.5971   19.7250 C   0  0  0  0  0  0  0  0  0  0  0  0
   29.4559    1.9459   29.8161 C   0  0  0  0  0  0  0  0  0  0  0  0
   28.6196    8.1975   31.1883 H   0  0  0  0  0  0  0  0  0  0  0  0
   31.4843    9.0595   27.8306 H   0  0  0  0  0  0  0  0  0  0  0  0
   32.4441   10.2076   28.8245 H   0  0  0  0  0  0  0  0  0  0  0  0
   30.8303    6.9102   28.6463 H   0  0  0  0  0  0  0  0  0  0  0  0
   32.3103    7.3713   29.5813 H   0  0  0  0  0  0  0  0  0  0  0  0
   28.4678   11.7777   28.7741 H   0  0  0  0  0  0  0  0  0  0  0  0
   28.8384    5.9345   30.9896 H   0  0  0  0  0  0  0  0  0  0  0  0
   29.8219    5.9809   32.4923 H   0  0  0  0  0  0  0  0  0  0  0  0
   31.8678    5.9934   31.3449 H   0  0  0  0  0  0  0  0  0  0  0  0
   31.8899    4.5313   29.3190 H   0  0  0  0  0  0  0  0  0  0  0  0
   28.7493   13.4782   26.8489 H   0  0  0  0  0  0  0  0  0  0  0  0
   32.8063   11.7706   26.3998 H   0  0  0  0  0  0  0  0  0  0  0  0
   31.7842   10.5932   25.4865 H   0  0  0  0  0  0  0  0  0  0  0  0
   25.0257    9.0542   27.9260 H   0  0  0  0  0  0  0  0  0  0  0  0
   24.6755    9.2887   29.6808 H   0  0  0  0  0  0  0  0  0  0  0  0
   29.2057    5.2823   28.7975 H   0  0  0  0  0  0  0  0  0  0  0  0
   30.1396    3.9846   28.0185 H   0  0  0  0  0  0  0  0  0  0  0  0
   32.1624    3.4824   31.4276 H   0  0  0  0  0  0  0  0  0  0  0  0
   30.4230    3.6010   31.8489 H   0  0  0  0  0  0  0  0  0  0  0  0
   27.0178   13.6759   25.1338 H   0  0  0  0  0  0  0  0  0  0  0  0
   26.1229   12.2527   25.7869 H   0  0  0  0  0  0  0  0  0  0  0  0
   27.7481   12.0329   25.0287 H   0  0  0  0  0  0  0  0  0  0  0  0
   26.7741   14.8048   27.4225 H   0  0  0  0  0  0  0  0  0  0  0  0
   25.9316   13.3608   28.0887 H   0  0  0  0  0  0  0  0  0  0  0  0
   27.4214   14.0024   28.8914 H   0  0  0  0  0  0  0  0  0  0  0  0
   31.4837   14.9305   23.6542 H   0  0  0  0  0  0  0  0  0  0  0  0
   30.5537   13.7313   22.7047 H   0  0  0  0  0  0  0  0  0  0  0  0
   31.5080   12.7660   20.6126 H   0  0  0  0  0  0  0  0  0  0  0  0
   33.7077   15.6997   22.8939 H   0  0  0  0  0  0  0  0  0  0  0  0
   31.2325   13.6254   25.7803 H   0  0  0  0  0  0  0  0  0  0  0  0
   30.2022   12.4476   24.8727 H   0  0  0  0  0  0  0  0  0  0  0  0
   33.1543   13.1113   24.2627 H   0  0  0  0  0  0  0  0  0  0  0  0
   32.1350   11.9218   23.3635 H   0  0  0  0  0  0  0  0  0  0  0  0
   22.7746   10.0471   28.2468 H   0  0  0  0  0  0  0  0  0  0  0  0
   23.8610   11.2271   27.4056 H   0  0  0  0  0  0  0  0  0  0  0  0
   23.4849   11.4323   29.1694 H   0  0  0  0  0  0  0  0  0  0  0  0
   27.9538    3.1470   28.8001 H   0  0  0  0  0  0  0  0  0  0  0  0
   28.3120    3.6741   30.4743 H   0  0  0  0  0  0  0  0  0  0  0  0
   31.6176    1.9267   29.5524 H   0  0  0  0  0  0  0  0  0  0  0  0
   31.0659    1.2877   31.1311 H   0  0  0  0  0  0  0  0  0  0  0  0
   33.0454   13.1180   18.7126 H   0  0  0  0  0  0  0  0  0  0  0  0
   35.2342   16.0293   20.9860 H   0  0  0  0  0  0  0  0  0  0  0  0
   34.9078   14.7423   18.8914 H   0  0  0  0  0  0  0  0  0  0  0  0
   29.4892    1.3503   28.8788 H   0  0  0  0  0  0  0  0  0  0  0  0
   28.8315    1.3811   30.5407 H   0  0  0  0  0  0  0  0  0  0  0  0
  2  1  1  0
  3  1  1  0
  4  5  1  0
  5  2  1  0
  6  1  1  0
  4  7  1  6
  8  7  1  0
  9  3  1  0
  3 10  1  0
 11  6  1  0
 12  8  1  0
 13 12  1  0
 14  4  2  0
 15  2  2  0
 16 10  1  0
 17 10  2  0
 18 13  2  0
 11 19  1  0
  8 20  1  0
 22 28  1  0
 23 13  1  0
 24 19  1  0
 25 19  1  0
 26 20  1  0
 27 20  1  0
 28 32  1  0
 29 22  2  0
 30 22  1  0
 31 21  1  0
 32 31  1  0
 33 23  1  0
 34 24  1  0
 35 25  1  0
 36 29  1  0
 37 30  2  0
 38 36  2  0
 39 34  1  0
  9 11  1  0
 39 35  1  0
 38 37  1  0
  4 21  1  0
  3 40  1  6
  5 41  1  0
  5 42  1  0
  6 43  1  0
  6 44  1  0
  8 45  1  1
  9 46  1  0
  9 47  1  0
 11 48  1  1
 19 49  1  0
 20 50  1  0
 21 51  1  0
 21 52  1  0
 23 53  1  0
 23 54  1  0
 24 55  1  0
 24 56  1  0
 25 57  1  0
 25 58  1  0
 26 59  1  0
 26 60  1  0
 26 61  1  0
 27 62  1  0
 27 63  1  0
 27 64  1  0
 28 65  1  0
 28 66  1  0
 29 67  1  0
 30 68  1  0
 31 69  1  0
 31 70  1  0
 32 71  1  0
 32 72  1  0
 33 73  1  0
 33 74  1  0
 33 75  1  0
 34 76  1  0
 34 77  1  0
 35 78  1  0
 35 79  1  0
 36 80  1  0
 37 81  1  0
 38 82  1  0
 39 83  1  0
 39 84  1  0
M  CHG  1  16  -1
M  END
> <Uni-Dock RESULT> 
ENERGY=   -3.577  LOWER_BOUND=    3.513  UPPER_BOUND=   10.667
INTER + INTRA:          -3.577
INTER:                  -3.577
INTRA:                   0.000
UNBOUND:                 0.000

$$$$

     RDKit          3D

 84 86  0  0  0  0  0  0  0  0999 V2000
   30.2233   10.3671   27.6809 N   0  0  0  0  0  0  0  0  0  0  0  0
   31.5654   10.7065   27.2772 C   0  0  0  0  0  0  0  0  0  0  0  0
   29.9226    9.5019   28.8175 C   0  0  1  0  0  0  0  0  0  0  0  0
   33.3369   12.6336   26.3488 P   0  0  1  0  0  0  0  0  0  0  0  0
   31.8198   11.6459   26.1250 C   0  0  0  0  0  0  0  0  0  0  0  0
   29.0252   10.8319   26.9965 C   0  0  0  0  0  0  0  0  0  0  0  0
   33.2062   13.5816   27.7731 O   0  0  0  0  0  0  0  0  0  0  0  0
   33.9980   13.0588   28.8229 C   0  0  2  0  0  0  0  0  0  0  0  0
   28.3974    9.5426   28.9730 C   0  0  0  0  0  0  0  0  0  0  0  0
   30.4111    8.1016   28.5607 C   0  0  0  0  0  0  0  0  0  0  0  0
   27.8680   10.0468   27.6211 C   0  0  1  0  0  0  0  0  0  0  0  0
   33.3489   13.3864   30.0543 O   0  0  0  0  0  0  0  0  0  0  0  0
   33.3378   12.5633   31.1874 C   0  0  0  0  0  0  0  0  0  0  0  0
   34.5473   11.7228   26.3599 O   0  0  0  0  0  0  0  0  0  0  0  0
   32.5395   10.1286   27.8311 O   0  0  0  0  0  0  0  0  0  0  0  0
   31.2864    7.4990   29.4553 O   0  0  0  0  0  0  0  0  0  0  0  0
   30.0441    7.4729   27.5311 O   0  0  0  0  0  0  0  0  0  0  0  0
   33.8672   11.4164   31.1672 O   0  0  0  0  0  0  0  0  0  0  0  0
   26.5287   10.8382   27.6683 C   0  0  0  0  0  0  0  0  0  0  0  0
   35.4117   13.6975   28.7823 C   0  0  0  0  0  0  0  0  0  0  0  0
   33.4712   13.7648   24.9296 C   0  0  0  0  0  0  0  0  0  0  0  0
   36.2229   17.3779   22.7970 C   0  0  0  0  0  0  0  0  0  0  0  0
   32.7201   13.0716   32.4509 C   0  0  0  0  0  0  0  0  0  0  0  0
   26.5365   12.0802   28.6143 C   0  0  0  0  0  0  0  0  0  0  0  0
   25.3414    9.8862   27.9458 C   0  0  0  0  0  0  0  0  0  0  0  0
   35.3697   15.1996   29.1003 C   0  0  0  0  0  0  0  0  0  0  0  0
   36.3874   12.9796   29.7247 C   0  0  0  0  0  0  0  0  0  0  0  0
   36.0760   16.4890   24.0014 C   0  0  0  0  0  0  0  0  0  0  0  0
   35.5817   18.6274   22.7542 C   0  0  0  0  0  0  0  0  0  0  0  0
   36.9497   16.9366   21.6759 C   0  0  0  0  0  0  0  0  0  0  0  0
   34.7228   14.6360   25.0526 C   0  0  0  0  0  0  0  0  0  0  0  0
   34.8354   15.6012   23.8694 C   0  0  0  0  0  0  0  0  0  0  0  0
   33.7871   13.6359   33.3838 C   0  0  0  0  0  0  0  0  0  0  0  0
   25.6333   11.9048   29.8437 C   0  0  0  0  0  0  0  0  0  0  0  0
   24.0583   10.6811   28.2101 C   0  0  0  0  0  0  0  0  0  0  0  0
   35.6895   19.4329   21.6158 C   0  0  0  0  0  0  0  0  0  0  0  0
   37.0503   17.7438   20.5402 C   0  0  0  0  0  0  0  0  0  0  0  0
   36.4236   18.9920   20.5100 C   0  0  0  0  0  0  0  0  0  0  0  0
   24.1791   11.5871   29.4514 C   0  0  0  0  0  0  0  0  0  0  0  0
   30.4051    9.9076   29.7365 H   0  0  0  0  0  0  0  0  0  0  0  0
   30.9772   12.3567   26.0085 H   0  0  0  0  0  0  0  0  0  0  0  0
   31.9069   11.0562   25.1889 H   0  0  0  0  0  0  0  0  0  0  0  0
   28.9185   11.9262   27.1439 H   0  0  0  0  0  0  0  0  0  0  0  0
   29.0918   10.6152   25.9075 H   0  0  0  0  0  0  0  0  0  0  0  0
   34.0843   11.9508   28.7578 H   0  0  0  0  0  0  0  0  0  0  0  0
   28.1492   10.2490   29.7908 H   0  0  0  0  0  0  0  0  0  0  0  0
   27.9624    8.5512   29.2337 H   0  0  0  0  0  0  0  0  0  0  0  0
   27.7116    9.1485   26.9792 H   0  0  0  0  0  0  0  0  0  0  0  0
   26.3709   11.2288   26.6365 H   0  0  0  0  0  0  0  0  0  0  0  0
   35.8164   13.5843   27.7533 H   0  0  0  0  0  0  0  0  0  0  0  0
   33.5164   13.1637   23.9969 H   0  0  0  0  0  0  0  0  0  0  0  0
   32.5634   14.4046   24.9009 H   0  0  0  0  0  0  0  0  0  0  0  0
   31.9847   13.8693   32.2068 H   0  0  0  0  0  0  0  0  0  0  0  0
   32.1805   12.2426   32.9636 H   0  0  0  0  0  0  0  0  0  0  0  0
   27.5614   12.3307   28.9624 H   0  0  0  0  0  0  0  0  0  0  0  0
   26.1747   12.9671   28.0484 H   0  0  0  0  0  0  0  0  0  0  0  0
   25.1847    9.2221   27.0685 H   0  0  0  0  0  0  0  0  0  0  0  0
   25.5539    9.2371   28.8236 H   0  0  0  0  0  0  0  0  0  0  0  0
   36.3727   15.6506   28.9362 H   0  0  0  0  0  0  0  0  0  0  0  0
   35.0765   15.3714   30.1587 H   0  0  0  0  0  0  0  0  0  0  0  0
   34.6428   15.7188   28.4395 H   0  0  0  0  0  0  0  0  0  0  0  0
   37.4062   13.4020   29.6051 H   0  0  0  0  0  0  0  0  0  0  0  0
   36.0805   13.0989   30.7839 H   0  0  0  0  0  0  0  0  0  0  0  0
   36.4371   11.8969   29.4788 H   0  0  0  0  0  0  0  0  0  0  0  0
   36.9827   15.8553   24.1098 H   0  0  0  0  0  0  0  0  0  0  0  0
   35.9957   17.1102   24.9195 H   0  0  0  0  0  0  0  0  0  0  0  0
   35.0014   18.9780   23.5995 H   0  0  0  0  0  0  0  0  0  0  0  0
   37.4300   15.9668   21.6802 H   0  0  0  0  0  0  0  0  0  0  0  0
   35.6254   13.9848   25.0825 H   0  0  0  0  0  0  0  0  0  0  0  0
   34.6732   15.2222   25.9958 H   0  0  0  0  0  0  0  0  0  0  0  0
   34.8940   15.0175   22.9239 H   0  0  0  0  0  0  0  0  0  0  0  0
   33.9280   16.2452   23.8306 H   0  0  0  0  0  0  0  0  0  0  0  0
   33.3020   14.0294   34.3033 H   0  0  0  0  0  0  0  0  0  0  0  0
   34.3378   14.4644   32.8828 H   0  0  0  0  0  0  0  0  0  0  0  0
   34.5084   12.8383   33.6708 H   0  0  0  0  0  0  0  0  0  0  0  0
   25.6528   12.8318   30.4567 H   0  0  0  0  0  0  0  0  0  0  0  0
   26.0296   11.0805   30.4749 H   0  0  0  0  0  0  0  0  0  0  0  0
   23.8332   11.3062   27.3197 H   0  0  0  0  0  0  0  0  0  0  0  0
   23.2085    9.9783   28.3450 H   0  0  0  0  0  0  0  0  0  0  0  0
   35.2044   20.3968   21.5888 H   0  0  0  0  0  0  0  0  0  0  0  0
   37.6132   17.3980   19.6809 H   0  0  0  0  0  0  0  0  0  0  0  0
   36.5036   19.6153   19.6291 H   0  0  0  0  0  0  0  0  0  0  0  0
   23.6349   12.5366   29.2595 H   0  0  0  0  0  0  0  0  0  0  0  0
   23.6831   11.0943   30.3145 H   0  0  0  0  0  0  0  0  0  0  0  0
  2  1  1  0
  3  1  1  0
  4  5  1  0
  5  2  1  0
  6  1  1  0
  4  7  1  6
  8  7  1  0
  9  3  1  0
  3 10  1  0
 11  6  1  0
 12  8  1  0
 13 12  1  0
 14  4  2  0
 15  2  2  0
 16 10  1  0
 17 10  2  0
 18 13  2  0
 11 19  1  0
  8 20  1  0
 22 28  1  0
 23 13  1  0
 24 19  1  0
 25 19  1  0
 26 20  1  0
 27 20  1  0
 28 32  1  0
 29 22  2  0
 30 22  1  0
 31 21  1  0
 32 31  1  0
 33 23  1  0
 34 24  1  0
 35 25  1  0
 36 29  1  0
 37 30  2  0
 38 36  2  0
 39 34  1  0
  9 11  1  0
 39 35  1  0
 38 37  1  0
  4 21  1  0
  3 40  1  6
  5 41  1  0
  5 42  1  0
  6 43  1  0
  6 44  1  0
  8 45  1  1
  9 46  1  0
  9 47  1  0
 11 48  1  1
 19 49  1  0
 20 50  1  0
 21 51  1  0
 21 52  1  0
 23 53  1  0
 23 54  1  0
 24 55  1  0
 24 56  1  0
 25 57  1  0
 25 58  1  0
 26 59  1  0
 26 60  1  0
 26 61  1  0
 27 62  1  0
 27 63  1  0
 27 64  1  0
 28 65  1  0
 28 66  1  0
 29 67  1  0
 30 68  1  0
 31 69  1  0
 31 70  1  0
 32 71  1  0
 32 72  1  0
 33 73  1  0
 33 74  1  0
 33 75  1  0
 34 76  1  0
 34 77  1  0
 35 78  1  0
 35 79  1  0
 36 80  1  0
 37 81  1  0
 38 82  1  0
 39 83  1  0
 39 84  1  0
M  CHG  1  16  -1
M  END
> <Uni-Dock RESULT> 
ENERGY=   -3.575  LOWER_BOUND=    4.471  UPPER_BOUND=   11.072
INTER + INTRA:          -3.575
INTER:                  -3.575
INTRA:                   0.000
UNBOUND:                 0.000

$$$$

     RDKit          3D

 84 86  0  0  0  0  0  0  0  0999 V2000
   27.7375   10.7273   27.7656 N   0  0  0  0  0  0  0  0  0  0  0  0
   28.4293    9.7762   28.5999 C   0  0  0  0  0  0  0  0  0  0  0  0
   26.3779   11.1873   28.0317 C   0  0  1  0  0  0  0  0  0  0  0  0
   30.7958    8.9874   29.8211 P   0  0  1  0  0  0  0  0  0  0  0  0
   29.8527    9.3722   28.3079 C   0  0  0  0  0  0  0  0  0  0  0  0
   28.3056   11.3201   26.5631 C   0  0  0  0  0  0  0  0  0  0  0  0
   30.8459   10.3677   30.8392 O   0  0  0  0  0  0  0  0  0  0  0  0
   29.9811   10.2285   31.9507 C   0  0  2  0  0  0  0  0  0  0  0  0
   26.1080   12.2903   27.0008 C   0  0  0  0  0  0  0  0  0  0  0  0
   25.3984   10.0533   27.8916 C   0  0  0  0  0  0  0  0  0  0  0  0
   27.1509   12.0707   25.8935 C   0  0  1  0  0  0  0  0  0  0  0  0
   29.5297   11.5370   32.3098 O   0  0  0  0  0  0  0  0  0  0  0  0
   28.2502   11.8267   32.8002 C   0  0  0  0  0  0  0  0  0  0  0  0
   30.1986    7.7753   30.5058 O   0  0  0  0  0  0  0  0  0  0  0  0
   27.7997    9.1979   29.5266 O   0  0  0  0  0  0  0  0  0  0  0  0
   24.5582    9.7298   28.9495 O   0  0  0  0  0  0  0  0  0  0  0  0
   25.3421    9.3822   26.8254 O   0  0  0  0  0  0  0  0  0  0  0  0
   27.3692   10.9268   32.8995 O   0  0  0  0  0  0  0  0  0  0  0  0
   27.5983   13.3446   25.1194 C   0  0  0  0  0  0  0  0  0  0  0  0
   30.7499    9.5885   33.1369 C   0  0  0  0  0  0  0  0  0  0  0  0
   32.5009    8.5939   29.3215 C   0  0  0  0  0  0  0  0  0  0  0  0
   37.0554    7.2525   30.9437 C   0  0  0  0  0  0  0  0  0  0  0  0
   27.9395   13.2195   33.2472 C   0  0  0  0  0  0  0  0  0  0  0  0
   28.1630   14.4904   26.0171 C   0  0  0  0  0  0  0  0  0  0  0  0
   26.4763   13.8296   24.1711 C   0  0  0  0  0  0  0  0  0  0  0  0
   31.8498   10.5170   33.6730 C   0  0  0  0  0  0  0  0  0  0  0  0
   29.8026    9.1735   34.2709 C   0  0  0  0  0  0  0  0  0  0  0  0
   35.6637    7.6416   31.3607 C   0  0  0  0  0  0  0  0  0  0  0  0
   38.0391    8.2364   30.7473 C   0  0  0  0  0  0  0  0  0  0  0  0
   37.3655    5.9051   30.6827 C   0  0  0  0  0  0  0  0  0  0  0  0
   33.3582    8.2666   30.5456 C   0  0  0  0  0  0  0  0  0  0  0  0
   34.7985    7.9486   30.1350 C   0  0  0  0  0  0  0  0  0  0  0  0
   28.0941   13.3477   34.7595 C   0  0  0  0  0  0  0  0  0  0  0  0
   27.2500   15.7242   26.0616 C   0  0  0  0  0  0  0  0  0  0  0  0
   26.8235   15.1975   23.5742 C   0  0  0  0  0  0  0  0  0  0  0  0
   39.3207    7.8724   30.3215 C   0  0  0  0  0  0  0  0  0  0  0  0
   38.6461    5.5482   30.2536 C   0  0  0  0  0  0  0  0  0  0  0  0
   39.6243    6.5295   30.0754 C   0  0  0  0  0  0  0  0  0  0  0  0
   26.9691   16.2858   24.6562 C   0  0  0  0  0  0  0  0  0  0  0  0
   26.3196   11.6119   29.0604 H   0  0  0  0  0  0  0  0  0  0  0  0
   30.3894   10.1877   27.7827 H   0  0  0  0  0  0  0  0  0  0  0  0
   29.8483    8.4800   27.6478 H   0  0  0  0  0  0  0  0  0  0  0  0
   29.1391   11.9959   26.8448 H   0  0  0  0  0  0  0  0  0  0  0  0
   28.6920   10.5273   25.8852 H   0  0  0  0  0  0  0  0  0  0  0  0
   29.0909    9.6083   31.7014 H   0  0  0  0  0  0  0  0  0  0  0  0
   26.2482   13.2722   27.4963 H   0  0  0  0  0  0  0  0  0  0  0  0
   25.0721   12.2576   26.5935 H   0  0  0  0  0  0  0  0  0  0  0  0
   26.6985   11.3652   25.1580 H   0  0  0  0  0  0  0  0  0  0  0  0
   28.4354   13.0197   24.4592 H   0  0  0  0  0  0  0  0  0  0  0  0
   31.2426    8.6607   32.7737 H   0  0  0  0  0  0  0  0  0  0  0  0
   32.4789    7.7256   28.6295 H   0  0  0  0  0  0  0  0  0  0  0  0
   32.9228    9.4703   28.7848 H   0  0  0  0  0  0  0  0  0  0  0  0
   28.6309   13.9310   32.7445 H   0  0  0  0  0  0  0  0  0  0  0  0
   26.8961   13.4816   32.9579 H   0  0  0  0  0  0  0  0  0  0  0  0
   28.3467   14.1497   27.0585 H   0  0  0  0  0  0  0  0  0  0  0  0
   29.1501   14.8101   25.6157 H   0  0  0  0  0  0  0  0  0  0  0  0
   26.3429   13.0955   23.3474 H   0  0  0  0  0  0  0  0  0  0  0  0
   25.5080   13.9048   24.7130 H   0  0  0  0  0  0  0  0  0  0  0  0
   32.4629    9.9815   34.4304 H   0  0  0  0  0  0  0  0  0  0  0  0
   31.4079   11.4175   34.1521 H   0  0  0  0  0  0  0  0  0  0  0  0
   32.5211   10.8433   32.8500 H   0  0  0  0  0  0  0  0  0  0  0  0
   30.3709    8.6406   35.0606 H   0  0  0  0  0  0  0  0  0  0  0  0
   29.3139   10.0585   34.7273 H   0  0  0  0  0  0  0  0  0  0  0  0
   29.0212    8.4817   33.8887 H   0  0  0  0  0  0  0  0  0  0  0  0
   35.2058    6.8161   31.9475 H   0  0  0  0  0  0  0  0  0  0  0  0
   35.7050    8.5336   32.0224 H   0  0  0  0  0  0  0  0  0  0  0  0
   37.8155    9.2819   30.9244 H   0  0  0  0  0  0  0  0  0  0  0  0
   36.6144    5.1355   30.8043 H   0  0  0  0  0  0  0  0  0  0  0  0
   32.9254    7.3888   31.0766 H   0  0  0  0  0  0  0  0  0  0  0  0
   33.3617    9.1370   31.2372 H   0  0  0  0  0  0  0  0  0  0  0  0
   34.7997    7.0722   29.4494 H   0  0  0  0  0  0  0  0  0  0  0  0
   35.2292    8.8207   29.5933 H   0  0  0  0  0  0  0  0  0  0  0  0
   27.8828   14.3956   35.0641 H   0  0  0  0  0  0  0  0  0  0  0  0
   29.1329   13.0851   35.0642 H   0  0  0  0  0  0  0  0  0  0  0  0
   27.3787   12.6710   35.2782 H   0  0  0  0  0  0  0  0  0  0  0  0
   27.7213   16.5152   26.6842 H   0  0  0  0  0  0  0  0  0  0  0  0
   26.2874   15.4505   26.5446 H   0  0  0  0  0  0  0  0  0  0  0  0
   27.7762   15.1115   23.0092 H   0  0  0  0  0  0  0  0  0  0  0  0
   26.0351   15.4967   22.8508 H   0  0  0  0  0  0  0  0  0  0  0  0
   40.0778    8.6287   30.1808 H   0  0  0  0  0  0  0  0  0  0  0  0
   38.8783    4.5080   30.0559 H   0  0  0  0  0  0  0  0  0  0  0  0
   40.6156    6.2500   29.7433 H   0  0  0  0  0  0  0  0  0  0  0  0
   27.7900   16.9758   24.3658 H   0  0  0  0  0  0  0  0  0  0  0  0
   26.0360   16.8870   24.6992 H   0  0  0  0  0  0  0  0  0  0  0  0
  2  1  1  0
  3  1  1  0
  4  5  1  0
  5  2  1  0
  6  1  1  0
  4  7  1  6
  8  7  1  0
  9  3  1  0
  3 10  1  0
 11  6  1  0
 12  8  1  0
 13 12  1  0
 14  4  2  0
 15  2  2  0
 16 10  1  0
 17 10  2  0
 18 13  2  0
 11 19  1  0
  8 20  1  0
 22 28  1  0
 23 13  1  0
 24 19  1  0
 25 19  1  0
 26 20  1  0
 27 20  1  0
 28 32  1  0
 29 22  2  0
 30 22  1  0
 31 21  1  0
 32 31  1  0
 33 23  1  0
 34 24  1  0
 35 25  1  0
 36 29  1  0
 37 30  2  0
 38 36  2  0
 39 34  1  0
  9 11  1  0
 39 35  1  0
 38 37  1  0
  4 21  1  0
  3 40  1  6
  5 41  1  0
  5 42  1  0
  6 43  1  0
  6 44  1  0
  8 45  1  1
  9 46  1  0
  9 47  1  0
 11 48  1  1
 19 49  1  0
 20 50  1  0
 21 51  1  0
 21 52  1  0
 23 53  1  0
 23 54  1  0
 24 55  1  0
 24 56  1  0
 25 57  1  0
 25 58  1  0
 26 59  1  0
 26 60  1  0
 26 61  1  0
 27 62  1  0
 27 63  1  0
 27 64  1  0
 28 65  1  0
 28 66  1  0
 29 67  1  0
 30 68  1  0
 31 69  1  0
 31 70  1  0
 32 71  1  0
 32 72  1  0
 33 73  1  0
 33 74  1  0
 33 75  1  0
 34 76  1  0
 34 77  1  0
 35 78  1  0
 35 79  1  0
 36 80  1  0
 37 81  1  0
 38 82  1  0
 39 83  1  0
 39 84  1  0
M  CHG  1  16  -1
M  END
> <Uni-Dock RESULT> 
ENERGY=   -3.519  LOWER_BOUND=    4.799  UPPER_BOUND=    9.465
INTER + INTRA:          -3.519
INTER:                  -3.519
INTRA:                   0.000
UNBOUND:                 0.000

$$$$
