
     RDKit          3D

 25 24  0  0  0  0  0  0  0  0999 V2000
   46.5223    2.7640    7.4283 Zn  0  0  0  0  0 15  0  0  0  0  0  0
   47.4541    2.2128    6.6886 N   0  0  0  0  0  0  0  0  0  0  0  0
   46.6601    1.3598    7.4709 C   0  0  0  0  0  0  0  0  0  0  0  0
   48.4619    1.7142    5.8773 O   0  0  0  0  0  0  0  0  0  0  0  0
   46.7512   -0.3293    7.5867 S   0  0  0  0  0  0  0  0  0  0  0  0
   47.3330    3.5783    6.6359 C   0  0  0  0  0  0  0  0  0  0  0  0
   45.6222    2.1028    8.2800 C   0  0  0  0  0  0  0  0  0  0  0  0
   46.4019    4.2043    7.3664 C   0  0  0  0  0  0  0  0  0  0  0  0
   45.5218    3.4387    8.2129 C   0  0  0  0  0  0  0  0  0  0  0  0
   45.9255    1.8428    8.1456 N   0  0  0  0  0  0  0  0  0  0  0  0
   45.5398    3.1761    8.3541 C   0  0  0  0  0  0  0  0  0  0  0  0
   45.3459    0.8061    8.8608 O   0  0  0  0  0  0  0  0  0  0  0  0
   44.3760    3.7643    9.4378 S   0  0  0  0  0  0  0  0  0  0  0  0
   46.8778    1.4260    7.2504 C   0  0  0  0  0  0  0  0  0  0  0  0
   46.2919    4.1487    7.4751 C   0  0  0  0  0  0  0  0  0  0  0  0
   47.5251    2.3153    6.4870 C   0  0  0  0  0  0  0  0  0  0  0  0
   47.2192    3.7185    6.6067 C   0  0  0  0  0  0  0  0  0  0  0  0
   48.0150    4.1173    5.9862 H   0  0  0  0  0  0  0  0  0  0  0  0
   44.9676    1.5174    8.9116 H   0  0  0  0  0  0  0  0  0  0  0  0
   46.3005    5.2807    7.3300 H   0  0  0  0  0  0  0  0  0  0  0  0
   44.7783    3.9705    8.7926 H   0  0  0  0  0  0  0  0  0  0  0  0
   47.0781    0.3610    7.1912 H   0  0  0  0  0  0  0  0  0  0  0  0
   46.0536    5.1992    7.5742 H   0  0  0  0  0  0  0  0  0  0  0  0
   48.2772    1.9940    5.7789 H   0  0  0  0  0  0  0  0  0  0  0  0
   47.7576    4.4155    5.9774 H   0  0  0  0  0  0  0  0  0  0  0  0
  3  2  1  0
  4  2  1  0
  5  3  2  0
  6  2  1  0
  7  3  1  0
  8  6  2  0
  9  7  2  0
  8  9  1  0
 11 10  1  0
 12 10  1  0
 13 11  2  0
 14 10  1  0
 15 11  1  0
 16 14  2  0
 17 16  1  0
 15 17  2  0
  6 18  1  0
  7 19  1  0
  8 20  1  0
  9 21  1  0
 14 22  1  0
 15 23  1  0
 16 24  1  0
 17 25  1  0
M  CHG  3   1   2   4  -1  12  -1
M  END
> <Uni-Dock RESULT> 
ENERGY=   -6.603  LOWER_BOUND=    0.000  UPPER_BOUND=    0.000
INTER + INTRA:          -6.603
INTER:                  -6.603
INTRA:                   0.000
UNBOUND:                 0.000

$$$$

     RDKit          3D

 25 24  0  0  0  0  0  0  0  0999 V2000
   46.3625    2.6551    7.6985 Zn  0  0  0  0  0 15  0  0  0  0  0  0
   46.0493    3.9184    7.8575 N   0  0  0  0  0  0  0  0  0  0  0  0
   45.3815    2.9802    8.6600 C   0  0  0  0  0  0  0  0  0  0  0  0
   45.7795    5.2745    7.9604 O   0  0  0  0  0  0  0  0  0  0  0  0
   44.1953    3.2745    9.8351 S   0  0  0  0  0  0  0  0  0  0  0  0
   47.0044    3.6190    6.9193 C   0  0  0  0  0  0  0  0  0  0  0  0
   45.8216    1.5596    8.3912 C   0  0  0  0  0  0  0  0  0  0  0  0
   47.3705    2.3488    6.7070 C   0  0  0  0  0  0  0  0  0  0  0  0
   46.7574    1.2901    7.4689 C   0  0  0  0  0  0  0  0  0  0  0  0
   45.6021    1.9117    8.4655 N   0  0  0  0  0  0  0  0  0  0  0  0
   46.4943    1.2528    7.6054 C   0  0  0  0  0  0  0  0  0  0  0  0
   44.7618    1.2030    9.3105 O   0  0  0  0  0  0  0  0  0  0  0  0
   46.7222   -0.4176    7.4249 S   0  0  0  0  0  0  0  0  0  0  0  0
   45.4620    3.2725    8.5679 C   0  0  0  0  0  0  0  0  0  0  0  0
   47.3175    2.2071    6.7711 C   0  0  0  0  0  0  0  0  0  0  0  0
   46.2078    4.0890    7.8131 C   0  0  0  0  0  0  0  0  0  0  0  0
   47.1635    3.5344    6.8878 C   0  0  0  0  0  0  0  0  0  0  0  0
   47.4411    4.4451    6.3674 H   0  0  0  0  0  0  0  0  0  0  0  0
   45.3542    0.7737    8.9692 H   0  0  0  0  0  0  0  0  0  0  0  0
   48.1229    2.1052    5.9689 H   0  0  0  0  0  0  0  0  0  0  0  0
   47.0722    0.2725    7.2767 H   0  0  0  0  0  0  0  0  0  0  0  0
   44.7314    3.6493    9.2766 H   0  0  0  0  0  0  0  0  0  0  0  0
   48.0313    1.7789    6.0802 H   0  0  0  0  0  0  0  0  0  0  0  0
   46.1028    5.1630    7.8884 H   0  0  0  0  0  0  0  0  0  0  0  0
   47.7533    4.2174    6.2901 H   0  0  0  0  0  0  0  0  0  0  0  0
  3  2  1  0
  4  2  1  0
  5  3  2  0
  6  2  1  0
  7  3  1  0
  8  6  2  0
  9  7  2  0
  8  9  1  0
 11 10  1  0
 12 10  1  0
 13 11  2  0
 14 10  1  0
 15 11  1  0
 16 14  2  0
 17 16  1  0
 15 17  2  0
  6 18  1  0
  7 19  1  0
  8 20  1  0
  9 21  1  0
 14 22  1  0
 15 23  1  0
 16 24  1  0
 17 25  1  0
M  CHG  3   1   2   4  -1  12  -1
M  END
> <Uni-Dock RESULT> 
ENERGY=   -6.250  LOWER_BOUND=    1.399  UPPER_BOUND=    2.714
INTER + INTRA:          -6.250
INTER:                  -6.250
INTRA:                   0.000
UNBOUND:                 0.000

$$$$

     RDKit          3D

 25 24  0  0  0  0  0  0  0  0999 V2000
   44.9225    3.4814    9.4380 Zn  0  0  0  0  0 15  0  0  0  0  0  0
   44.2975    3.5165   10.5901 N   0  0  0  0  0  0  0  0  0  0  0  0
   44.8695    4.7119   10.1276 C   0  0  0  0  0  0  0  0  0  0  0  0
   43.6184    3.4642   11.7978 O   0  0  0  0  0  0  0  0  0  0  0  0
   44.8573    6.2302   10.8821 S   0  0  0  0  0  0  0  0  0  0  0  0
   44.3400    2.3133    9.9324 C   0  0  0  0  0  0  0  0  0  0  0  0
   45.5620    4.5532    8.7937 C   0  0  0  0  0  0  0  0  0  0  0  0
   44.9625    2.2085    8.7517 C   0  0  0  0  0  0  0  0  0  0  0  0
   45.5912    3.3668    8.1686 C   0  0  0  0  0  0  0  0  0  0  0  0
   45.4564    4.6529    9.1894 N   0  0  0  0  0  0  0  0  0  0  0  0
   45.7112    3.6187    8.2754 C   0  0  0  0  0  0  0  0  0  0  0  0
   45.9813    5.9226    9.0035 O   0  0  0  0  0  0  0  0  0  0  0  0
   46.6408    3.6884    6.8592 S   0  0  0  0  0  0  0  0  0  0  0  0
   44.6927    4.5359   10.3230 C   0  0  0  0  0  0  0  0  0  0  0  0
   45.0473    2.3172    8.6623 C   0  0  0  0  0  0  0  0  0  0  0  0
   44.1189    3.3673   10.6356 C   0  0  0  0  0  0  0  0  0  0  0  0
   44.3049    2.2259    9.7757 C   0  0  0  0  0  0  0  0  0  0  0  0
   43.8544    1.4660   10.4057 H   0  0  0  0  0  0  0  0  0  0  0  0
   46.0302    5.4295    8.3662 H   0  0  0  0  0  0  0  0  0  0  0  0
   45.0001    1.2630    8.2274 H   0  0  0  0  0  0  0  0  0  0  0  0
   46.0873    3.2536    7.2132 H   0  0  0  0  0  0  0  0  0  0  0  0
   44.5777    5.4191   10.9433 H   0  0  0  0  0  0  0  0  0  0  0  0
   45.1942    1.4676    8.0090 H   0  0  0  0  0  0  0  0  0  0  0  0
   43.5154    3.2676   11.5279 H   0  0  0  0  0  0  0  0  0  0  0  0
   43.8296    1.2935   10.0523 H   0  0  0  0  0  0  0  0  0  0  0  0
  3  2  1  0
  4  2  1  0
  5  3  2  0
  6  2  1  0
  7  3  1  0
  8  6  2  0
  9  7  2  0
  8  9  1  0
 11 10  1  0
 12 10  1  0
 13 11  2  0
 14 10  1  0
 15 11  1  0
 16 14  2  0
 17 16  1  0
 15 17  2  0
  6 18  1  0
  7 19  1  0
  8 20  1  0
  9 21  1  0
 14 22  1  0
 15 23  1  0
 16 24  1  0
 17 25  1  0
M  CHG  3   1   2   4  -1  12  -1
M  END
> <Uni-Dock RESULT> 
ENERGY=   -5.476  LOWER_BOUND=    2.896  UPPER_BOUND=    4.465
INTER + INTRA:          -5.476
INTER:                  -5.476
INTRA:                   0.000
UNBOUND:                 0.000

$$$$

     RDKit          3D

 25 24  0  0  0  0  0  0  0  0999 V2000
   44.5264    3.8169   10.2654 Zn  0  0  0  0  0 15  0  0  0  0  0  0
   44.4779    2.6489    9.6715 N   0  0  0  0  0  0  0  0  0  0  0  0
   45.1828    3.6753    9.0238 C   0  0  0  0  0  0  0  0  0  0  0  0
   44.3765    1.3832    9.1144 O   0  0  0  0  0  0  0  0  0  0  0  0
   45.9984    3.5997    7.5392 S   0  0  0  0  0  0  0  0  0  0  0  0
   43.8351    2.7701   10.8774 C   0  0  0  0  0  0  0  0  0  0  0  0
   45.1720    4.9733    9.7978 C   0  0  0  0  0  0  0  0  0  0  0  0
   43.8457    3.9356   11.5364 C   0  0  0  0  0  0  0  0  0  0  0  0
   44.5368    5.0689   10.9753 C   0  0  0  0  0  0  0  0  0  0  0  0
   45.1552    4.6757    9.4997 N   0  0  0  0  0  0  0  0  0  0  0  0
   44.6083    5.1576   10.6991 C   0  0  0  0  0  0  0  0  0  0  0  0
   45.8363    5.5150    8.6313 O   0  0  0  0  0  0  0  0  0  0  0  0
   44.6558    6.7421   11.3006 S   0  0  0  0  0  0  0  0  0  0  0  0
   45.0845    3.3767    9.0641 C   0  0  0  0  0  0  0  0  0  0  0  0
   43.9088    4.0825   11.4986 C   0  0  0  0  0  0  0  0  0  0  0  0
   44.4567    2.4495    9.7981 C   0  0  0  0  0  0  0  0  0  0  0  0
   43.8519    2.8186   11.0530 C   0  0  0  0  0  0  0  0  0  0  0  0
   43.3267    1.8931   11.2649 H   0  0  0  0  0  0  0  0  0  0  0  0
   45.6940    5.8168    9.3664 H   0  0  0  0  0  0  0  0  0  0  0  0
   43.3411    4.0386   12.4877 H   0  0  0  0  0  0  0  0  0  0  0  0
   44.5294    5.9988   11.5293 H   0  0  0  0  0  0  0  0  0  0  0  0
   45.5528    3.1405    8.1140 H   0  0  0  0  0  0  0  0  0  0  0  0
   43.4587    4.3718   12.4387 H   0  0  0  0  0  0  0  0  0  0  0  0
   44.3969    1.4233    9.4610 H   0  0  0  0  0  0  0  0  0  0  0  0
   43.3508    2.0490   11.6260 H   0  0  0  0  0  0  0  0  0  0  0  0
  3  2  1  0
  4  2  1  0
  5  3  2  0
  6  2  1  0
  7  3  1  0
  8  6  2  0
  9  7  2  0
  8  9  1  0
 11 10  1  0
 12 10  1  0
 13 11  2  0
 14 10  1  0
 15 11  1  0
 16 14  2  0
 17 16  1  0
 15 17  2  0
  6 18  1  0
  7 19  1  0
  8 20  1  0
  9 21  1  0
 14 22  1  0
 15 23  1  0
 16 24  1  0
 17 25  1  0
M  CHG  3   1   2   4  -1  12  -1
M  END
> <Uni-Dock RESULT> 
ENERGY=   -5.155  LOWER_BOUND=    3.000  UPPER_BOUND=    4.210
INTER + INTRA:          -5.155
INTER:                  -5.155
INTRA:                   0.000
UNBOUND:                 0.000

$$$$

     RDKit          3D

 25 24  0  0  0  0  0  0  0  0999 V2000
   43.9852    4.5758   11.6561 Zn  0  0  0  0  0 15  0  0  0  0  0  0
   43.6080    3.3206   11.6185 N   0  0  0  0  0  0  0  0  0  0  0  0
   44.2970    3.8229   10.5036 C   0  0  0  0  0  0  0  0  0  0  0  0
   43.1729    2.0048   11.6624 O   0  0  0  0  0  0  0  0  0  0  0  0
   44.7147    2.9988    9.0818 S   0  0  0  0  0  0  0  0  0  0  0  0
   43.2974    4.0387   12.7454 C   0  0  0  0  0  0  0  0  0  0  0  0
   44.6813    5.2764   10.6574 C   0  0  0  0  0  0  0  0  0  0  0  0
   43.6533    5.3253   12.8482 C   0  0  0  0  0  0  0  0  0  0  0  0
   44.3671    5.9590   11.7684 C   0  0  0  0  0  0  0  0  0  0  0  0
   44.5462    4.9026   10.5170 N   0  0  0  0  0  0  0  0  0  0  0  0
   44.3846    5.9172   11.4731 C   0  0  0  0  0  0  0  0  0  0  0  0
   45.1298    5.1606    9.2860 O   0  0  0  0  0  0  0  0  0  0  0  0
   44.8305    7.5479   11.3441 S   0  0  0  0  0  0  0  0  0  0  0  0
   44.1638    3.5952   10.6791 C   0  0  0  0  0  0  0  0  0  0  0  0
   43.7287    5.4270   12.7435 C   0  0  0  0  0  0  0  0  0  0  0  0
   43.5851    3.1950   11.8182 C   0  0  0  0  0  0  0  0  0  0  0  0
   43.3629    4.1438   12.8800 C   0  0  0  0  0  0  0  0  0  0  0  0
   42.7593    3.5242   13.5351 H   0  0  0  0  0  0  0  0  0  0  0  0
   45.2166    5.7410    9.8404 H   0  0  0  0  0  0  0  0  0  0  0  0
   43.4119    5.8977   13.7338 H   0  0  0  0  0  0  0  0  0  0  0  0
   44.6425    7.0001   11.8781 H   0  0  0  0  0  0  0  0  0  0  0  0
   44.3491    2.9129    9.8557 H   0  0  0  0  0  0  0  0  0  0  0  0
   43.5671    6.1485   13.5332 H   0  0  0  0  0  0  0  0  0  0  0  0
   43.2810    2.1657   11.9533 H   0  0  0  0  0  0  0  0  0  0  0  0
   42.8932    3.7932   13.7901 H   0  0  0  0  0  0  0  0  0  0  0  0
  3  2  1  0
  4  2  1  0
  5  3  2  0
  6  2  1  0
  7  3  1  0
  8  6  2  0
  9  7  2  0
  8  9  1  0
 11 10  1  0
 12 10  1  0
 13 11  2  0
 14 10  1  0
 15 11  1  0
 16 14  2  0
 17 16  1  0
 15 17  2  0
  6 18  1  0
  7 19  1  0
  8 20  1  0
  9 21  1  0
 14 22  1  0
 15 23  1  0
 16 24  1  0
 17 25  1  0
M  CHG  3   1   2   4  -1  12  -1
M  END
> <Uni-Dock RESULT> 
ENERGY=   -4.998  LOWER_BOUND=    4.292  UPPER_BOUND=    5.579
INTER + INTRA:          -4.998
INTER:                  -4.998
INTRA:                   0.000
UNBOUND:                 0.000

$$$$

     RDKit          3D

 25 24  0  0  0  0  0  0  0  0999 V2000
   44.4394    5.1205   12.4819 Zn  0  0  0  0  0 15  0  0  0  0  0  0
   43.4660    5.8446   11.9848 N   0  0  0  0  0  0  0  0  0  0  0  0
   44.6528    6.5079   12.3332 C   0  0  0  0  0  0  0  0  0  0  0  0
   42.3867    6.5334   11.4525 O   0  0  0  0  0  0  0  0  0  0  0  0
   44.9996    8.1616   12.1918 S   0  0  0  0  0  0  0  0  0  0  0  0
   43.2429    4.4981   12.1228 C   0  0  0  0  0  0  0  0  0  0  0  0
   45.7023    5.5763   12.8943 C   0  0  0  0  0  0  0  0  0  0  0  0
   44.1953    3.7016   12.6239 C   0  0  0  0  0  0  0  0  0  0  0  0
   45.4622    4.2627   13.0203 C   0  0  0  0  0  0  0  0  0  0  0  0
   45.4402    5.8977   12.8189 N   0  0  0  0  0  0  0  0  0  0  0  0
   45.5546    4.5306   13.1150 C   0  0  0  0  0  0  0  0  0  0  0  0
   46.4514    6.7903   13.1402 O   0  0  0  0  0  0  0  0  0  0  0  0
   46.8479    3.7349   13.8693 S   0  0  0  0  0  0  0  0  0  0  0  0
   44.3642    6.4863   12.2044 C   0  0  0  0  0  0  0  0  0  0  0  0
   44.3453    3.7336   12.6828 C   0  0  0  0  0  0  0  0  0  0  0  0
   43.3090    5.7498   11.8345 C   0  0  0  0  0  0  0  0  0  0  0  0
   43.3042    4.3303   12.0835 C   0  0  0  0  0  0  0  0  0  0  0  0
   42.2757    4.1158   11.8125 H   0  0  0  0  0  0  0  0  0  0  0  0
   46.6490    6.0091   13.1884 H   0  0  0  0  0  0  0  0  0  0  0  0
   44.0265    2.6390   12.7357 H   0  0  0  0  0  0  0  0  0  0  0  0
   46.2142    3.5959   13.4223 H   0  0  0  0  0  0  0  0  0  0  0  0
   44.4076    7.5575   12.0353 H   0  0  0  0  0  0  0  0  0  0  0  0
   44.3534    2.6691   12.8751 H   0  0  0  0  0  0  0  0  0  0  0  0
   42.4570    6.2070   11.3495 H   0  0  0  0  0  0  0  0  0  0  0  0
   42.4384    3.7590   11.7741 H   0  0  0  0  0  0  0  0  0  0  0  0
  3  2  1  0
  4  2  1  0
  5  3  2  0
  6  2  1  0
  7  3  1  0
  8  6  2  0
  9  7  2  0
  8  9  1  0
 11 10  1  0
 12 10  1  0
 13 11  2  0
 14 10  1  0
 15 11  1  0
 16 14  2  0
 17 16  1  0
 15 17  2  0
  6 18  1  0
  7 19  1  0
  8 20  1  0
  9 21  1  0
 14 22  1  0
 15 23  1  0
 16 24  1  0
 17 25  1  0
M  CHG  3   1   2   4  -1  12  -1
M  END
> <Uni-Dock RESULT> 
ENERGY=   -4.630  LOWER_BOUND=    6.351  UPPER_BOUND=    6.892
INTER + INTRA:          -4.630
INTER:                  -4.630
INTRA:                   0.000
UNBOUND:                 0.000

$$$$

     RDKit          3D

 25 24  0  0  0  0  0  0  0  0999 V2000
   54.0106    6.7704    6.9430 Zn  0  0  0  0  0 15  0  0  0  0  0  0
   54.7342    5.7275    7.2717 N   0  0  0  0  0  0  0  0  0  0  0  0
   55.3762    6.7701    6.5856 C   0  0  0  0  0  0  0  0  0  0  0  0
   55.4239    4.5881    7.6572 O   0  0  0  0  0  0  0  0  0  0  0  0
   57.0029    6.8585    6.1156 S   0  0  0  0  0  0  0  0  0  0  0  0
   53.4090    5.7125    7.6263 C   0  0  0  0  0  0  0  0  0  0  0  0
   54.4475    7.9168    6.2590 C   0  0  0  0  0  0  0  0  0  0  0  0
   52.6143    6.7459    7.3209 C   0  0  0  0  0  0  0  0  0  0  0  0
   53.1549    7.8805    6.6156 C   0  0  0  0  0  0  0  0  0  0  0  0
   54.7388    7.6123    6.2500 N   0  0  0  0  0  0  0  0  0  0  0  0
   53.3814    7.9231    6.4255 C   0  0  0  0  0  0  0  0  0  0  0  0
   55.5808    8.4471    5.5312 O   0  0  0  0  0  0  0  0  0  0  0  0
   52.5413    9.2765    5.8448 S   0  0  0  0  0  0  0  0  0  0  0  0
   55.3651    6.4971    6.7461 C   0  0  0  0  0  0  0  0  0  0  0  0
   52.6422    6.8850    7.2379 C   0  0  0  0  0  0  0  0  0  0  0  0
   54.6794    5.5973    7.4621 C   0  0  0  0  0  0  0  0  0  0  0  0
   53.2751    5.8020    7.7130 C   0  0  0  0  0  0  0  0  0  0  0  0
   53.0418    4.8394    8.1561 H   0  0  0  0  0  0  0  0  0  0  0  0
   54.8646    8.7627    5.7294 H   0  0  0  0  0  0  0  0  0  0  0  0
   51.5685    6.7410    7.5972 H   0  0  0  0  0  0  0  0  0  0  0  0
   52.4901    8.7020    6.3814 H   0  0  0  0  0  0  0  0  0  0  0  0
   56.4232    6.3807    6.5346 H   0  0  0  0  0  0  0  0  0  0  0  0
   51.5886    7.0496    7.4195 H   0  0  0  0  0  0  0  0  0  0  0  0
   55.1666    4.7156    7.8564 H   0  0  0  0  0  0  0  0  0  0  0  0
   52.7452    5.0587    8.2948 H   0  0  0  0  0  0  0  0  0  0  0  0
  3  2  1  0
  4  2  1  0
  5  3  2  0
  6  2  1  0
  7  3  1  0
  8  6  2  0
  9  7  2  0
  8  9  1  0
 11 10  1  0
 12 10  1  0
 13 11  2  0
 14 10  1  0
 15 11  1  0
 16 14  2  0
 17 16  1  0
 15 17  2  0
  6 18  1  0
  7 19  1  0
  8 20  1  0
  9 21  1  0
 14 22  1  0
 15 23  1  0
 16 24  1  0
 17 25  1  0
M  CHG  3   1   2   4  -1  12  -1
M  END
> <Uni-Dock RESULT> 
ENERGY=   -4.364  LOWER_BOUND=    8.371  UPPER_BOUND=    9.344
INTER + INTRA:          -4.364
INTER:                  -4.364
INTRA:                   0.000
UNBOUND:                 0.000

$$$$

     RDKit          3D

 25 24  0  0  0  0  0  0  0  0999 V2000
   45.7110    6.1463   12.9241 Zn  0  0  0  0  0 15  0  0  0  0  0  0
   45.0231    7.0733   12.3022 N   0  0  0  0  0  0  0  0  0  0  0  0
   44.3768    5.8557   12.5663 C   0  0  0  0  0  0  0  0  0  0  0  0
   44.3699    8.1075   11.6492 O   0  0  0  0  0  0  0  0  0  0  0  0
   42.7859    5.4174   12.1769 S   0  0  0  0  0  0  0  0  0  0  0  0
   46.3181    7.3713   12.6430 C   0  0  0  0  0  0  0  0  0  0  0  0
   45.2633    4.8649   13.2849 C   0  0  0  0  0  0  0  0  0  0  0  0
   47.0756    6.4693   13.2796 C   0  0  0  0  0  0  0  0  0  0  0  0
   46.5268    5.1779   13.6084 C   0  0  0  0  0  0  0  0  0  0  0  0
   44.9902    5.0558   13.0267 N   0  0  0  0  0  0  0  0  0  0  0  0
   46.3126    5.0038   13.4942 C   0  0  0  0  0  0  0  0  0  0  0  0
   44.1584    3.9488   13.0970 O   0  0  0  0  0  0  0  0  0  0  0  0
   47.1180    3.6841   14.1903 S   0  0  0  0  0  0  0  0  0  0  0  0
   44.3910    6.1574   12.4706 C   0  0  0  0  0  0  0  0  0  0  0  0
   47.0464    6.3143   13.3256 C   0  0  0  0  0  0  0  0  0  0  0  0
   45.0709    7.3030   12.3363 C   0  0  0  0  0  0  0  0  0  0  0  0
   46.4403    7.3787   12.7789 C   0  0  0  0  0  0  0  0  0  0  0  0
   46.6928    8.3546   12.3772 H   0  0  0  0  0  0  0  0  0  0  0  0
   44.8403    3.8990   13.5263 H   0  0  0  0  0  0  0  0  0  0  0  0
   48.0975    6.6972   13.5515 H   0  0  0  0  0  0  0  0  0  0  0  0
   47.1614    4.4679   14.1231 H   0  0  0  0  0  0  0  0  0  0  0  0
   43.3587    6.0585   12.1504 H   0  0  0  0  0  0  0  0  0  0  0  0
   48.0737    6.3588   13.6615 H   0  0  0  0  0  0  0  0  0  0  0  0
   44.6050    8.1757   11.8987 H   0  0  0  0  0  0  0  0  0  0  0  0
   46.9663    8.3171   12.6584 H   0  0  0  0  0  0  0  0  0  0  0  0
  3  2  1  0
  4  2  1  0
  5  3  2  0
  6  2  1  0
  7  3  1  0
  8  6  2  0
  9  7  2  0
  8  9  1  0
 11 10  1  0
 12 10  1  0
 13 11  2  0
 14 10  1  0
 15 11  1  0
 16 14  2  0
 17 16  1  0
 15 17  2  0
  6 18  1  0
  7 19  1  0
  8 20  1  0
  9 21  1  0
 14 22  1  0
 15 23  1  0
 16 24  1  0
 17 25  1  0
M  CHG  3   1   2   4  -1  12  -1
M  END
> <Uni-Dock RESULT> 
ENERGY=   -4.364  LOWER_BOUND=    6.484  UPPER_BOUND=    6.906
INTER + INTRA:          -4.364
INTER:                  -4.364
INTRA:                   0.000
UNBOUND:                 0.000

$$$$

     RDKit          3D

 25 24  0  0  0  0  0  0  0  0999 V2000
   46.1232    6.0215   13.1122 Zn  0  0  0  0  0 15  0  0  0  0  0  0
   46.3578    4.7875   13.4885 N   0  0  0  0  0  0  0  0  0  0  0  0
   45.0727    5.0844   13.0085 C   0  0  0  0  0  0  0  0  0  0  0  0
   46.6917    3.5085   13.9071 O   0  0  0  0  0  0  0  0  0  0  0  0
   43.7539    4.0308   12.8483 S   0  0  0  0  0  0  0  0  0  0  0  0
   47.3890    5.6861   13.5954 C   0  0  0  0  0  0  0  0  0  0  0  0
   44.9173    6.5325   12.6050 C   0  0  0  0  0  0  0  0  0  0  0  0
   47.2163    6.9621   13.2285 C   0  0  0  0  0  0  0  0  0  0  0  0
   45.9394    7.3936   12.7182 C   0  0  0  0  0  0  0  0  0  0  0  0
   44.8656    6.1448   12.7623 N   0  0  0  0  0  0  0  0  0  0  0  0
   45.6564    7.3043   12.7533 C   0  0  0  0  0  0  0  0  0  0  0  0
   43.5262    6.1850   12.4065 O   0  0  0  0  0  0  0  0  0  0  0  0
   45.1866    8.8800   12.3394 S   0  0  0  0  0  0  0  0  0  0  0  0
   45.3037    4.8917   13.1082 C   0  0  0  0  0  0  0  0  0  0  0  0
   47.0848    7.0435   13.1731 C   0  0  0  0  0  0  0  0  0  0  0  0
   46.5763    4.6964   13.4754 C   0  0  0  0  0  0  0  0  0  0  0  0
   47.4910    5.8096   13.5072 C   0  0  0  0  0  0  0  0  0  0  0  0
   48.3340    5.3206   13.9843 H   0  0  0  0  0  0  0  0  0  0  0  0
   43.9543    6.8445   12.2236 H   0  0  0  0  0  0  0  0  0  0  0  0
   48.0247    7.6761   13.3100 H   0  0  0  0  0  0  0  0  0  0  0  0
   45.8275    8.4307   12.4291 H   0  0  0  0  0  0  0  0  0  0  0  0
   44.5832    4.0808   13.0709 H   0  0  0  0  0  0  0  0  0  0  0  0
   47.7618    7.8869   13.1931 H   0  0  0  0  0  0  0  0  0  0  0  0
   46.9289    3.7111   13.7495 H   0  0  0  0  0  0  0  0  0  0  0  0
   48.5141    5.6233   13.8077 H   0  0  0  0  0  0  0  0  0  0  0  0
  3  2  1  0
  4  2  1  0
  5  3  2  0
  6  2  1  0
  7  3  1  0
  8  6  2  0
  9  7  2  0
  8  9  1  0
 11 10  1  0
 12 10  1  0
 13 11  2  0
 14 10  1  0
 15 11  1  0
 16 14  2  0
 17 16  1  0
 15 17  2  0
  6 18  1  0
  7 19  1  0
  8 20  1  0
  9 21  1  0
 14 22  1  0
 15 23  1  0
 16 24  1  0
 17 25  1  0
M  CHG  3   1   2   4  -1  12  -1
M  END
> <Uni-Dock RESULT> 
ENERGY=   -4.352  LOWER_BOUND=    6.431  UPPER_BOUND=    6.844
INTER + INTRA:          -4.352
INTER:                  -4.352
INTRA:                   0.000
UNBOUND:                 0.000

$$$$
