
     RDKit          3D

 25 24  0  0  0  0  0  0  0  0999 V2000
   46.6355    2.4346    7.4067 Zn  0  0  0  0  0 15  0  0  0  0  0  0
   45.7929    2.0473    8.3336 N   0  0  0  0  0  0  0  0  0  0  0  0
   45.8447    3.4185    8.0383 C   0  0  0  0  0  0  0  0  0  0  0  0
   44.9307    1.5518    9.2998 O   0  0  0  0  0  0  0  0  0  0  0  0
   44.9387    4.6681    8.7403 S   0  0  0  0  0  0  0  0  0  0  0  0
   46.5540    1.0791    7.7294 C   0  0  0  0  0  0  0  0  0  0  0  0
   46.8483    3.7483    6.9574 C   0  0  0  0  0  0  0  0  0  0  0  0
   47.4340    1.4068    6.7749 C   0  0  0  0  0  0  0  0  0  0  0  0
   47.5819    2.7851    6.3804 C   0  0  0  0  0  0  0  0  0  0  0  0
   45.9851    3.4788    7.8603 N   0  0  0  0  0  0  0  0  0  0  0  0
   45.6808    2.2310    8.4263 C   0  0  0  0  0  0  0  0  0  0  0  0
   45.3449    4.6346    8.2808 O   0  0  0  0  0  0  0  0  0  0  0  0
   44.5559    1.8901    9.6484 S   0  0  0  0  0  0  0  0  0  0  0  0
   46.9094    3.6935    6.8696 C   0  0  0  0  0  0  0  0  0  0  0  0
   46.4891    1.1027    7.8279 C   0  0  0  0  0  0  0  0  0  0  0  0
   47.6081    2.6704    6.3620 C   0  0  0  0  0  0  0  0  0  0  0  0
   47.3876    1.3360    6.8598 C   0  0  0  0  0  0  0  0  0  0  0  0
   46.4120    0.0538    8.0554 H   0  0  0  0  0  0  0  0  0  0  0  0
   46.9503    4.7861    6.6699 H   0  0  0  0  0  0  0  0  0  0  0  0
   48.0375    0.6488    6.2940 H   0  0  0  0  0  0  0  0  0  0  0  0
   48.3007    3.0217    5.6063 H   0  0  0  0  0  0  0  0  0  0  0  0
   47.0450    4.7129    6.5230 H   0  0  0  0  0  0  0  0  0  0  0  0
   46.3148    0.1058    8.2097 H   0  0  0  0  0  0  0  0  0  0  0  0
   48.3386    2.8320    5.5806 H   0  0  0  0  0  0  0  0  0  0  0  0
   47.9664    0.5276    6.4315 H   0  0  0  0  0  0  0  0  0  0  0  0
  3  2  1  0
  4  2  1  0
  5  3  2  0
  6  2  1  0
  7  3  1  0
  8  6  2  0
  9  7  2  0
  8  9  1  0
 11 10  1  0
 12 10  1  0
 13 11  2  0
 14 10  1  0
 15 11  1  0
 16 14  2  0
 17 16  1  0
 15 17  2  0
  6 18  1  0
  7 19  1  0
  8 20  1  0
  9 21  1  0
 14 22  1  0
 15 23  1  0
 16 24  1  0
 17 25  1  0
M  CHG  3   1   2   4  -1  12  -1
M  END
> <Uni-Dock RESULT> 
ENERGY=   -8.239  LOWER_BOUND=    0.000  UPPER_BOUND=    0.000
INTER + INTRA:          -8.239
INTER:                  -8.239
INTRA:                   0.000
UNBOUND:                 0.000

$$$$

     RDKit          3D

 25 24  0  0  0  0  0  0  0  0999 V2000
   46.6399    2.4335    7.4058 Zn  0  0  0  0  0 15  0  0  0  0  0  0
   46.0023    3.4802    7.8717 N   0  0  0  0  0  0  0  0  0  0  0  0
   45.6809    2.2292    8.4211 C   0  0  0  0  0  0  0  0  0  0  0  0
   45.3762    4.6386    8.3059 O   0  0  0  0  0  0  0  0  0  0  0  0
   44.5494    1.8873    9.6368 S   0  0  0  0  0  0  0  0  0  0  0  0
   46.9310    3.6956    6.8853 C   0  0  0  0  0  0  0  0  0  0  0  0
   46.4757    1.0984    7.8097 C   0  0  0  0  0  0  0  0  0  0  0  0
   47.6176    2.6700    6.3658 C   0  0  0  0  0  0  0  0  0  0  0  0
   47.3788    1.3324    6.8462 C   0  0  0  0  0  0  0  0  0  0  0  0
   45.8102    2.0487    8.3452 N   0  0  0  0  0  0  0  0  0  0  0  0
   45.8446    3.4167    8.0329 C   0  0  0  0  0  0  0  0  0  0  0  0
   44.9623    1.5559    9.3255 O   0  0  0  0  0  0  0  0  0  0  0  0
   44.9319    4.6652    8.7282 S   0  0  0  0  0  0  0  0  0  0  0  0
   46.5759    1.0812    7.7457 C   0  0  0  0  0  0  0  0  0  0  0  0
   46.8346    3.7438    6.9387 C   0  0  0  0  0  0  0  0  0  0  0  0
   47.4434    1.4066    6.7790 C   0  0  0  0  0  0  0  0  0  0  0  0
   47.5730    2.7814    6.3665 C   0  0  0  0  0  0  0  0  0  0  0  0
   47.0805    4.7174    6.5521 H   0  0  0  0  0  0  0  0  0  0  0  0
   46.2877    0.0989    8.1784 H   0  0  0  0  0  0  0  0  0  0  0  0
   48.3514    2.8322    5.5879 H   0  0  0  0  0  0  0  0  0  0  0  0
   47.9478    0.5221    6.4084 H   0  0  0  0  0  0  0  0  0  0  0  0
   46.4479    0.0586    8.0855 H   0  0  0  0  0  0  0  0  0  0  0  0
   46.9229    4.7790    6.6376 H   0  0  0  0  0  0  0  0  0  0  0  0
   48.0506    0.6491    6.3017 H   0  0  0  0  0  0  0  0  0  0  0  0
   48.2819    3.0161    5.5827 H   0  0  0  0  0  0  0  0  0  0  0  0
  3  2  1  0
  4  2  1  0
  5  3  2  0
  6  2  1  0
  7  3  1  0
  8  6  2  0
  9  7  2  0
  8  9  1  0
 11 10  1  0
 12 10  1  0
 13 11  2  0
 14 10  1  0
 15 11  1  0
 16 14  2  0
 17 16  1  0
 15 17  2  0
  6 18  1  0
  7 19  1  0
  8 20  1  0
  9 21  1  0
 14 22  1  0
 15 23  1  0
 16 24  1  0
 17 25  1  0
M  CHG  3   1   2   4  -1  12  -1
M  END
> <Uni-Dock RESULT> 
ENERGY=   -8.225  LOWER_BOUND=    0.022  UPPER_BOUND=    2.251
INTER + INTRA:          -8.225
INTER:                  -8.225
INTRA:                   0.000
UNBOUND:                 0.000

$$$$

     RDKit          3D

 25 24  0  0  0  0  0  0  0  0999 V2000
   45.8177    2.8988    8.1446 Zn  0  0  0  0  0 15  0  0  0  0  0  0
   46.1479    1.6359    8.0215 N   0  0  0  0  0  0  0  0  0  0  0  0
   46.8278    2.5638    7.2173 C   0  0  0  0  0  0  0  0  0  0  0  0
   46.4342    0.2808    7.9553 O   0  0  0  0  0  0  0  0  0  0  0  0
   48.0485    2.2572    6.0811 S   0  0  0  0  0  0  0  0  0  0  0  0
   45.1647    1.9449    8.9269 C   0  0  0  0  0  0  0  0  0  0  0  0
   46.3662    3.9851    7.4432 C   0  0  0  0  0  0  0  0  0  0  0  0
   44.7800    3.2155    9.1017 C   0  0  0  0  0  0  0  0  0  0  0  0
   45.4030    4.2640    8.3338 C   0  0  0  0  0  0  0  0  0  0  0  0
   46.7757    2.7892    7.2561 N   0  0  0  0  0  0  0  0  0  0  0  0
   46.3117    1.6083    7.8563 C   0  0  0  0  0  0  0  0  0  0  0  0
   47.7860    2.7646    6.3068 O   0  0  0  0  0  0  0  0  0  0  0  0
   46.8406    0.0220    7.5755 S   0  0  0  0  0  0  0  0  0  0  0  0
   46.3067    4.0500    7.5251 C   0  0  0  0  0  0  0  0  0  0  0  0
   45.2101    1.8548    8.8613 C   0  0  0  0  0  0  0  0  0  0  0  0
   45.3293    4.2320    8.4218 C   0  0  0  0  0  0  0  0  0  0  0  0
   44.7671    3.0964    9.1083 C   0  0  0  0  0  0  0  0  0  0  0  0
   44.7215    1.1262    9.4845 H   0  0  0  0  0  0  0  0  0  0  0  0
   46.8411    4.7633    6.8610 H   0  0  0  0  0  0  0  0  0  0  0  0
   44.0054    3.4667    9.8137 H   0  0  0  0  0  0  0  0  0  0  0  0
   45.0725    5.2822    8.4953 H   0  0  0  0  0  0  0  0  0  0  0  0
   46.7570    4.8777    6.9866 H   0  0  0  0  0  0  0  0  0  0  0  0
   44.7960    0.9947    9.3701 H   0  0  0  0  0  0  0  0  0  0  0  0
   44.9545    5.2233    8.6391 H   0  0  0  0  0  0  0  0  0  0  0  0
   43.9780    3.2726    9.8283 H   0  0  0  0  0  0  0  0  0  0  0  0
  3  2  1  0
  4  2  1  0
  5  3  2  0
  6  2  1  0
  7  3  1  0
  8  6  2  0
  9  7  2  0
  8  9  1  0
 11 10  1  0
 12 10  1  0
 13 11  2  0
 14 10  1  0
 15 11  1  0
 16 14  2  0
 17 16  1  0
 15 17  2  0
  6 18  1  0
  7 19  1  0
  8 20  1  0
  9 21  1  0
 14 22  1  0
 15 23  1  0
 16 24  1  0
 17 25  1  0
M  CHG  3   1   2   4  -1  12  -1
M  END
> <Uni-Dock RESULT> 
ENERGY=   -7.966  LOWER_BOUND=    2.003  UPPER_BOUND=    2.696
INTER + INTRA:          -7.966
INTER:                  -7.966
INTRA:                   0.000
UNBOUND:                 0.000

$$$$

     RDKit          3D

 25 24  0  0  0  0  0  0  0  0999 V2000
   45.8158    2.8987    8.1437 Zn  0  0  0  0  0 15  0  0  0  0  0  0
   46.7588    2.7866    7.2397 N   0  0  0  0  0  0  0  0  0  0  0  0
   46.3148    1.6089    7.8609 C   0  0  0  0  0  0  0  0  0  0  0  0
   47.7524    2.7592    6.2729 O   0  0  0  0  0  0  0  0  0  0  0  0
   46.8514    0.0238    7.5883 S   0  0  0  0  0  0  0  0  0  0  0  0
   46.2846    4.0467    7.5030 C   0  0  0  0  0  0  0  0  0  0  0  0
   45.2291    1.8581    8.8825 C   0  0  0  0  0  0  0  0  0  0  0  0
   45.3217    4.2311    8.4149 C   0  0  0  0  0  0  0  0  0  0  0  0
   44.7807    3.0989    9.1236 C   0  0  0  0  0  0  0  0  0  0  0  0
   46.1347    1.6340    8.0092 N   0  0  0  0  0  0  0  0  0  0  0  0
   46.8278    2.5637    7.2184 C   0  0  0  0  0  0  0  0  0  0  0  0
   46.4086    0.2771    7.9304 O   0  0  0  0  0  0  0  0  0  0  0  0
   48.0520    2.2575    6.0859 S   0  0  0  0  0  0  0  0  0  0  0  0
   45.1494    1.9429    8.9124 C   0  0  0  0  0  0  0  0  0  0  0  0
   46.3783    3.9870    7.4566 C   0  0  0  0  0  0  0  0  0  0  0  0
   44.7758    3.2151    9.0983 C   0  0  0  0  0  0  0  0  0  0  0  0
   45.4128    4.2657    8.3449 C   0  0  0  0  0  0  0  0  0  0  0  0
   46.7186    4.8718    6.9475 H   0  0  0  0  0  0  0  0  0  0  0  0
   44.8310    1.0005    9.4080 H   0  0  0  0  0  0  0  0  0  0  0  0
   44.9429    5.2217    8.6277 H   0  0  0  0  0  0  0  0  0  0  0  0
   44.0032    3.2769    9.8555 H   0  0  0  0  0  0  0  0  0  0  0  0
   44.6954    1.1227    9.4589 H   0  0  0  0  0  0  0  0  0  0  0  0
   46.8637    4.7667    6.8854 H   0  0  0  0  0  0  0  0  0  0  0  0
   43.9996    3.4663    9.8087 H   0  0  0  0  0  0  0  0  0  0  0  0
   45.0911    5.2852    8.5153 H   0  0  0  0  0  0  0  0  0  0  0  0
  3  2  1  0
  4  2  1  0
  5  3  2  0
  6  2  1  0
  7  3  1  0
  8  6  2  0
  9  7  2  0
  8  9  1  0
 11 10  1  0
 12 10  1  0
 13 11  2  0
 14 10  1  0
 15 11  1  0
 16 14  2  0
 17 16  1  0
 15 17  2  0
  6 18  1  0
  7 19  1  0
  8 20  1  0
  9 21  1  0
 14 22  1  0
 15 23  1  0
 16 24  1  0
 17 25  1  0
M  CHG  3   1   2   4  -1  12  -1
M  END
> <Uni-Dock RESULT> 
ENERGY=   -7.935  LOWER_BOUND=    2.003  UPPER_BOUND=    3.457
INTER + INTRA:          -7.935
INTER:                  -7.935
INTRA:                   0.000
UNBOUND:                 0.000

$$$$

     RDKit          3D

 25 24  0  0  0  0  0  0  0  0999 V2000
   45.1366    3.4459    9.0475 Zn  0  0  0  0  0 15  0  0  0  0  0  0
   44.4267    3.0036   10.0572 N   0  0  0  0  0  0  0  0  0  0  0  0
   44.6528    4.3868    9.9820 C   0  0  0  0  0  0  0  0  0  0  0  0
   43.6868    2.4510   11.0915 O   0  0  0  0  0  0  0  0  0  0  0  0
   44.1152    5.5878   11.0513 S   0  0  0  0  0  0  0  0  0  0  0  0
   44.8894    2.0766    9.1580 C   0  0  0  0  0  0  0  0  0  0  0  0
   45.4806    4.7813    8.7805 C   0  0  0  0  0  0  0  0  0  0  0  0
   45.6204    2.4614    8.1042 C   0  0  0  0  0  0  0  0  0  0  0  0
   45.9225    3.8577    7.9142 C   0  0  0  0  0  0  0  0  0  0  0  0
   44.7661    4.4608    9.7904 N   0  0  0  0  0  0  0  0  0  0  0  0
   44.3661    3.1793   10.1998 C   0  0  0  0  0  0  0  0  0  0  0  0
   44.4181    5.5893   10.5170 O   0  0  0  0  0  0  0  0  0  0  0  0
   43.4452    2.7630   11.5613 S   0  0  0  0  0  0  0  0  0  0  0  0
   45.5143    4.7367    8.6741 C   0  0  0  0  0  0  0  0  0  0  0  0
   44.8487    2.0893    9.2705 C   0  0  0  0  0  0  0  0  0  0  0  0
   45.9253    3.7462    7.8725 C   0  0  0  0  0  0  0  0  0  0  0  0
   45.5792    2.3824    8.1845 C   0  0  0  0  0  0  0  0  0  0  0  0
   44.6397    1.0359    9.3376 H   0  0  0  0  0  0  0  0  0  0  0  0
   45.7008    5.8321    8.6486 H   0  0  0  0  0  0  0  0  0  0  0  0
   45.9887    1.7362    7.3911 H   0  0  0  0  0  0  0  0  0  0  0  0
   46.5154    4.1406    7.0538 H   0  0  0  0  0  0  0  0  0  0  0  0
   45.7530    5.7765    8.4751 H   0  0  0  0  0  0  0  0  0  0  0  0
   44.5827    1.0698    9.5152 H   0  0  0  0  0  0  0  0  0  0  0  0
   46.5155    3.9561    6.9905 H   0  0  0  0  0  0  0  0  0  0  0  0
   45.9247    1.6015    7.5192 H   0  0  0  0  0  0  0  0  0  0  0  0
  3  2  1  0
  4  2  1  0
  5  3  2  0
  6  2  1  0
  7  3  1  0
  8  6  2  0
  9  7  2  0
  8  9  1  0
 11 10  1  0
 12 10  1  0
 13 11  2  0
 14 10  1  0
 15 11  1  0
 16 14  2  0
 17 16  1  0
 15 17  2  0
  6 18  1  0
  7 19  1  0
  8 20  1  0
  9 21  1  0
 14 22  1  0
 15 23  1  0
 16 24  1  0
 17 25  1  0
M  CHG  3   1   2   4  -1  12  -1
M  END
> <Uni-Dock RESULT> 
ENERGY=   -6.662  LOWER_BOUND=    2.119  UPPER_BOUND=    2.468
INTER + INTRA:          -6.662
INTER:                  -6.662
INTRA:                   0.000
UNBOUND:                 0.000

$$$$

     RDKit          3D

 25 24  0  0  0  0  0  0  0  0999 V2000
   44.0652    4.1626   11.0152 Zn  0  0  0  0  0 15  0  0  0  0  0  0
   44.3350    3.1024   10.2924 N   0  0  0  0  0  0  0  0  0  0  0  0
   44.8032    4.3404    9.8252 C   0  0  0  0  0  0  0  0  0  0  0  0
   44.5753    1.9311    9.5904 O   0  0  0  0  0  0  0  0  0  0  0  0
   45.6927    4.6506    8.4154 S   0  0  0  0  0  0  0  0  0  0  0  0
   43.6170    2.9128   11.4459 C   0  0  0  0  0  0  0  0  0  0  0  0
   44.4345    5.4887   10.7361 C   0  0  0  0  0  0  0  0  0  0  0  0
   43.3078    3.9532   12.2300 C   0  0  0  0  0  0  0  0  0  0  0  0
   43.7318    5.2798   11.8592 C   0  0  0  0  0  0  0  0  0  0  0  0
   44.7660    4.5232    9.9674 N   0  0  0  0  0  0  0  0  0  0  0  0
   44.4513    3.1616   10.0979 C   0  0  0  0  0  0  0  0  0  0  0  0
   45.5032    4.9910    8.8902 O   0  0  0  0  0  0  0  0  0  0  0  0
   44.8688    1.8932    9.0529 S   0  0  0  0  0  0  0  0  0  0  0  0
   44.3987    5.5078   10.8493 C   0  0  0  0  0  0  0  0  0  0  0  0
   43.6431    2.8628   11.3396 C   0  0  0  0  0  0  0  0  0  0  0  0
   43.6824    5.2073   11.9398 C   0  0  0  0  0  0  0  0  0  0  0  0
   43.2952    3.8415   12.1881 C   0  0  0  0  0  0  0  0  0  0  0  0
   43.3172    1.8985   11.6886 H   0  0  0  0  0  0  0  0  0  0  0  0
   44.7584    6.4795   10.4474 H   0  0  0  0  0  0  0  0  0  0  0  0
   42.7420    3.8113   13.1409 H   0  0  0  0  0  0  0  0  0  0  0  0
   43.4679    6.1025   12.5114 H   0  0  0  0  0  0  0  0  0  0  0  0
   44.7104    6.5228   10.6255 H   0  0  0  0  0  0  0  0  0  0  0  0
   43.3584    1.8341   11.5151 H   0  0  0  0  0  0  0  0  0  0  0  0
   43.3891    5.9784   12.6397 H   0  0  0  0  0  0  0  0  0  0  0  0
   42.7162    3.6271   13.0774 H   0  0  0  0  0  0  0  0  0  0  0  0
  3  2  1  0
  4  2  1  0
  5  3  2  0
  6  2  1  0
  7  3  1  0
  8  6  2  0
  9  7  2  0
  8  9  1  0
 11 10  1  0
 12 10  1  0
 13 11  2  0
 14 10  1  0
 15 11  1  0
 16 14  2  0
 17 16  1  0
 15 17  2  0
  6 18  1  0
  7 19  1  0
  8 20  1  0
  9 21  1  0
 14 22  1  0
 15 23  1  0
 16 24  1  0
 17 25  1  0
M  CHG  3   1   2   4  -1  12  -1
M  END
> <Uni-Dock RESULT> 
ENERGY=   -5.359  LOWER_BOUND=    3.386  UPPER_BOUND=    4.574
INTER + INTRA:          -5.359
INTER:                  -5.359
INTRA:                   0.000
UNBOUND:                 0.000

$$$$
