
     RDKit          3D

 25 24  0  0  0  0  0  0  0  0999 V2000
   45.9658    2.7855    7.9793 Zn  0  0  0  0  0 15  0  0  0  0  0  0
   46.3640    1.5512    7.7863 N   0  0  0  0  0  0  0  0  0  0  0  0
   46.9575    2.5528    7.0021 C   0  0  0  0  0  0  0  0  0  0  0  0
   46.7262    0.2200    7.6475 O   0  0  0  0  0  0  0  0  0  0  0  0
   48.1496    2.3703    5.8104 S   0  0  0  0  0  0  0  0  0  0  0  0
   45.3998    1.7606    8.7394 C   0  0  0  0  0  0  0  0  0  0  0  0
   46.4227    3.9325    7.3097 C   0  0  0  0  0  0  0  0  0  0  0  0
   44.9487    2.9969    8.9863 C   0  0  0  0  0  0  0  0  0  0  0  0
   45.4796    4.1137    8.2461 C   0  0  0  0  0  0  0  0  0  0  0  0
   46.9312    2.5379    7.1275 N   0  0  0  0  0  0  0  0  0  0  0  0
   46.3653    1.4436    7.8000 C   0  0  0  0  0  0  0  0  0  0  0  0
   47.9566    2.3662    6.2099 O   0  0  0  0  0  0  0  0  0  0  0  0
   46.7770   -0.1945    7.6509 S   0  0  0  0  0  0  0  0  0  0  0  0
   46.5546    3.8469    7.2903 C   0  0  0  0  0  0  0  0  0  0  0  0
   45.2648    1.8469    8.7542 C   0  0  0  0  0  0  0  0  0  0  0  0
   45.5753    4.1687    8.1446 C   0  0  0  0  0  0  0  0  0  0  0  0
   44.9131    3.1332    8.8972 C   0  0  0  0  0  0  0  0  0  0  0  0
   45.0268    0.8930    9.2741 H   0  0  0  0  0  0  0  0  0  0  0  0
   46.8288    4.7627    6.7477 H   0  0  0  0  0  0  0  0  0  0  0  0
   44.1886    3.1696    9.7363 H   0  0  0  0  0  0  0  0  0  0  0  0
   45.0969    5.1021    8.4661 H   0  0  0  0  0  0  0  0  0  0  0  0
   47.0784    4.5956    6.7047 H   0  0  0  0  0  0  0  0  0  0  0  0
   44.7753    1.0609    9.3135 H   0  0  0  0  0  0  0  0  0  0  0  0
   45.2729    5.1987    8.2782 H   0  0  0  0  0  0  0  0  0  0  0  0
   44.1248    3.4216    9.5809 H   0  0  0  0  0  0  0  0  0  0  0  0
  3  2  1  0
  4  2  1  0
  5  3  2  0
  6  2  1  0
  7  3  1  0
  8  6  2  0
  9  7  2  0
  8  9  1  0
 11 10  1  0
 12 10  1  0
 13 11  2  0
 14 10  1  0
 15 11  1  0
 16 14  2  0
 17 16  1  0
 15 17  2  0
  6 18  1  0
  7 19  1  0
  8 20  1  0
  9 21  1  0
 14 22  1  0
 15 23  1  0
 16 24  1  0
 17 25  1  0
M  CHG  3   1   2   4  -1  12  -1
M  END
> <Uni-Dock RESULT> 
ENERGY=   -7.796  LOWER_BOUND=    0.000  UPPER_BOUND=    0.000
INTER + INTRA:          -7.796
INTER:                  -7.796
INTRA:                   0.000
UNBOUND:                 0.000

$$$$

     RDKit          3D

 25 24  0  0  0  0  0  0  0  0999 V2000
   46.7944    2.5678    7.1539 Zn  0  0  0  0  0 15  0  0  0  0  0  0
   46.7021    1.2962    7.4603 N   0  0  0  0  0  0  0  0  0  0  0  0
   45.8514    2.1873    8.1330 C   0  0  0  0  0  0  0  0  0  0  0  0
   46.6707   -0.0649    7.7228 O   0  0  0  0  0  0  0  0  0  0  0  0
   44.6934    1.8252    9.3173 S   0  0  0  0  0  0  0  0  0  0  0  0
   47.6232    1.6497    6.5071 C   0  0  0  0  0  0  0  0  0  0  0  0
   46.0449    3.6225    7.7006 C   0  0  0  0  0  0  0  0  0  0  0  0
   47.7683    2.9314    6.1478 C   0  0  0  0  0  0  0  0  0  0  0  0
   46.9518    3.9450    6.7664 C   0  0  0  0  0  0  0  0  0  0  0  0
   45.8854    2.1680    8.0101 N   0  0  0  0  0  0  0  0  0  0  0  0
   46.7277    1.1908    7.4572 C   0  0  0  0  0  0  0  0  0  0  0  0
   44.8973    1.8326    8.9232 O   0  0  0  0  0  0  0  0  0  0  0  0
   46.7228   -0.4776    7.7591 S   0  0  0  0  0  0  0  0  0  0  0  0
   45.9372    3.5091    7.7262 C   0  0  0  0  0  0  0  0  0  0  0  0
   47.7336    1.7649    6.4861 C   0  0  0  0  0  0  0  0  0  0  0  0
   46.8416    3.9837    6.8605 C   0  0  0  0  0  0  0  0  0  0  0  0
   47.7660    3.0798    6.2237 C   0  0  0  0  0  0  0  0  0  0  0  0
   48.2177    0.8562    6.0660 H   0  0  0  0  0  0  0  0  0  0  0  0
   45.4264    4.3743    8.1720 H   0  0  0  0  0  0  0  0  0  0  0  0
   48.4925    3.2176    5.3969 H   0  0  0  0  0  0  0  0  0  0  0  0
   47.0901    4.9732    6.4570 H   0  0  0  0  0  0  0  0  0  0  0  0
   45.2236    4.1553    8.2271 H   0  0  0  0  0  0  0  0  0  0  0  0
   48.4220    1.0766    6.0144 H   0  0  0  0  0  0  0  0  0  0  0  0
   46.8885    5.0400    6.6317 H   0  0  0  0  0  0  0  0  0  0  0  0
   48.4866    3.4905    5.5280 H   0  0  0  0  0  0  0  0  0  0  0  0
  3  2  1  0
  4  2  1  0
  5  3  2  0
  6  2  1  0
  7  3  1  0
  8  6  2  0
  9  7  2  0
  8  9  1  0
 11 10  1  0
 12 10  1  0
 13 11  2  0
 14 10  1  0
 15 11  1  0
 16 14  2  0
 17 16  1  0
 15 17  2  0
  6 18  1  0
  7 19  1  0
  8 20  1  0
  9 21  1  0
 14 22  1  0
 15 23  1  0
 16 24  1  0
 17 25  1  0
M  CHG  3   1   2   4  -1  12  -1
M  END
> <Uni-Dock RESULT> 
ENERGY=   -7.650  LOWER_BOUND=    1.487  UPPER_BOUND=    2.539
INTER + INTRA:          -7.650
INTER:                  -7.650
INTRA:                   0.000
UNBOUND:                 0.000

$$$$

     RDKit          3D

 25 24  0  0  0  0  0  0  0  0999 V2000
   46.6586    2.4152    7.4312 Zn  0  0  0  0  0 15  0  0  0  0  0  0
   45.7779    2.2499    8.3883 N   0  0  0  0  0  0  0  0  0  0  0  0
   46.0704    3.5661    7.9984 C   0  0  0  0  0  0  0  0  0  0  0  0
   44.8590    1.9845    9.3922 O   0  0  0  0  0  0  0  0  0  0  0  0
   45.4183    5.0033    8.6181 S   0  0  0  0  0  0  0  0  0  0  0  0
   46.3403    1.1215    7.8476 C   0  0  0  0  0  0  0  0  0  0  0  0
   47.0962    3.6355    6.8907 C   0  0  0  0  0  0  0  0  0  0  0  0
   47.2465    1.2198    6.8668 C   0  0  0  0  0  0  0  0  0  0  0  0
   47.6329    2.5188    6.3768 C   0  0  0  0  0  0  0  0  0  0  0  0
   46.0427    3.4562    7.9370 N   0  0  0  0  0  0  0  0  0  0  0  0
   45.7177    2.1950    8.4601 C   0  0  0  0  0  0  0  0  0  0  0  0
   45.4391    4.6099    8.4138 O   0  0  0  0  0  0  0  0  0  0  0  0
   44.6069    1.8340    9.6892 S   0  0  0  0  0  0  0  0  0  0  0  0
   46.9540    3.6870    6.9379 C   0  0  0  0  0  0  0  0  0  0  0  0
   46.4868    1.0718    7.8035 C   0  0  0  0  0  0  0  0  0  0  0  0
   47.6179    2.6679    6.3781 C   0  0  0  0  0  0  0  0  0  0  0  0
   47.3733    1.3209    6.8283 C   0  0  0  0  0  0  0  0  0  0  0  0
   46.0219    0.1631    8.2448 H   0  0  0  0  0  0  0  0  0  0  0  0
   47.3783    4.6159    6.5312 H   0  0  0  0  0  0  0  0  0  0  0  0
   47.6942    0.3345    6.4356 H   0  0  0  0  0  0  0  0  0  0  0  0
   48.3677    2.5689    5.5834 H   0  0  0  0  0  0  0  0  0  0  0  0
   47.1086    4.7156    6.6283 H   0  0  0  0  0  0  0  0  0  0  0  0
   46.2946    0.0651    8.1498 H   0  0  0  0  0  0  0  0  0  0  0  0
   48.3381    2.8422    5.5899 H   0  0  0  0  0  0  0  0  0  0  0  0
   47.9239    0.5160    6.3582 H   0  0  0  0  0  0  0  0  0  0  0  0
  3  2  1  0
  4  2  1  0
  5  3  2  0
  6  2  1  0
  7  3  1  0
  8  6  2  0
  9  7  2  0
  8  9  1  0
 11 10  1  0
 12 10  1  0
 13 11  2  0
 14 10  1  0
 15 11  1  0
 16 14  2  0
 17 16  1  0
 15 17  2  0
  6 18  1  0
  7 19  1  0
  8 20  1  0
  9 21  1  0
 14 22  1  0
 15 23  1  0
 16 24  1  0
 17 25  1  0
M  CHG  3   1   2   4  -1  12  -1
M  END
> <Uni-Dock RESULT> 
ENERGY=   -7.447  LOWER_BOUND=    2.068  UPPER_BOUND=    2.686
INTER + INTRA:          -7.447
INTER:                  -7.447
INTRA:                   0.000
UNBOUND:                 0.000

$$$$

     RDKit          3D

 25 24  0  0  0  0  0  0  0  0999 V2000
   45.1225    3.5188    9.1328 Zn  0  0  0  0  0 15  0  0  0  0  0  0
   44.7913    4.4673    9.9754 N   0  0  0  0  0  0  0  0  0  0  0  0
   44.3657    3.1626   10.2699 C   0  0  0  0  0  0  0  0  0  0  0  0
   44.4853    5.5297   10.8122 O   0  0  0  0  0  0  0  0  0  0  0  0
   43.4582    2.6413   11.6038 S   0  0  0  0  0  0  0  0  0  0  0  0
   45.5267    4.8298    8.8756 C   0  0  0  0  0  0  0  0  0  0  0  0
   44.8037    2.1546    9.2324 C   0  0  0  0  0  0  0  0  0  0  0  0
   45.8980    3.9102    7.9759 C   0  0  0  0  0  0  0  0  0  0  0  0
   45.5225    2.5318    8.1647 C   0  0  0  0  0  0  0  0  0  0  0  0
   44.4768    3.2168   10.2332 N   0  0  0  0  0  0  0  0  0  0  0  0
   44.7841    4.5686   10.0137 C   0  0  0  0  0  0  0  0  0  0  0  0
   43.7962    2.8095   11.3706 O   0  0  0  0  0  0  0  0  0  0  0  0
   44.4207    5.8923   11.0090 S   0  0  0  0  0  0  0  0  0  0  0  0
   44.7982    2.1854    9.3878 C   0  0  0  0  0  0  0  0  0  0  0  0
   45.5272    4.7982    8.7178 C   0  0  0  0  0  0  0  0  0  0  0  0
   45.4574    2.4249    8.2472 C   0  0  0  0  0  0  0  0  0  0  0  0
   45.8310    3.7744    7.9063 C   0  0  0  0  0  0  0  0  0  0  0  0
   45.7887    5.8778    8.7710 H   0  0  0  0  0  0  0  0  0  0  0  0
   44.5158    1.1231    9.3849 H   0  0  0  0  0  0  0  0  0  0  0  0
   46.4780    4.1887    7.1063 H   0  0  0  0  0  0  0  0  0  0  0  0
   45.8361    1.8094    7.4218 H   0  0  0  0  0  0  0  0  0  0  0  0
   44.4986    1.1846    9.6816 H   0  0  0  0  0  0  0  0  0  0  0  0
   45.8023    5.8153    8.4728 H   0  0  0  0  0  0  0  0  0  0  0  0
   45.7142    1.6167    7.5756 H   0  0  0  0  0  0  0  0  0  0  0  0
   46.3633    3.9394    6.9782 H   0  0  0  0  0  0  0  0  0  0  0  0
  3  2  1  0
  4  2  1  0
  5  3  2  0
  6  2  1  0
  7  3  1  0
  8  6  2  0
  9  7  2  0
  8  9  1  0
 11 10  1  0
 12 10  1  0
 13 11  2  0
 14 10  1  0
 15 11  1  0
 16 14  2  0
 17 16  1  0
 15 17  2  0
  6 18  1  0
  7 19  1  0
  8 20  1  0
  9 21  1  0
 14 22  1  0
 15 23  1  0
 16 24  1  0
 17 25  1  0
M  CHG  3   1   2   4  -1  12  -1
M  END
> <Uni-Dock RESULT> 
ENERGY=   -6.396  LOWER_BOUND=    3.447  UPPER_BOUND=    4.303
INTER + INTRA:          -6.396
INTER:                  -6.396
INTRA:                   0.000
UNBOUND:                 0.000

$$$$

     RDKit          3D

 25 24  0  0  0  0  0  0  0  0999 V2000
   45.1232    3.5189    9.1322 Zn  0  0  0  0  0 15  0  0  0  0  0  0
   44.7930    4.4681    9.9744 N   0  0  0  0  0  0  0  0  0  0  0  0
   44.3664    3.1639   10.2697 C   0  0  0  0  0  0  0  0  0  0  0  0
   44.4881    5.5312   10.8107 O   0  0  0  0  0  0  0  0  0  0  0  0
   43.4589    2.6441   11.6042 S   0  0  0  0  0  0  0  0  0  0  0  0
   45.5284    4.8294    8.8741 C   0  0  0  0  0  0  0  0  0  0  0  0
   44.8033    2.1549    9.2327 C   0  0  0  0  0  0  0  0  0  0  0  0
   45.8987    3.9090    7.9749 C   0  0  0  0  0  0  0  0  0  0  0  0
   45.5221    2.5309    8.1645 C   0  0  0  0  0  0  0  0  0  0  0  0
   44.4775    3.2180   10.2330 N   0  0  0  0  0  0  0  0  0  0  0  0
   44.7859    4.5694   10.0126 C   0  0  0  0  0  0  0  0  0  0  0  0
   43.7969    2.8119   11.3708 O   0  0  0  0  0  0  0  0  0  0  0  0
   44.4239    5.8940   11.0073 S   0  0  0  0  0  0  0  0  0  0  0  0
   44.7979    2.1859    9.3880 C   0  0  0  0  0  0  0  0  0  0  0  0
   45.5288    4.7977    8.7164 C   0  0  0  0  0  0  0  0  0  0  0  0
   45.4569    2.4242    8.2472 C   0  0  0  0  0  0  0  0  0  0  0  0
   45.8315    3.7732    7.9054 C   0  0  0  0  0  0  0  0  0  0  0  0
   45.7912    5.8771    8.7689 H   0  0  0  0  0  0  0  0  0  0  0  0
   44.5146    1.1238    9.3858 H   0  0  0  0  0  0  0  0  0  0  0  0
   46.4786    4.1865    7.1049 H   0  0  0  0  0  0  0  0  0  0  0  0
   45.8348    1.8079    7.4220 H   0  0  0  0  0  0  0  0  0  0  0  0
   44.4975    1.1854    9.6825 H   0  0  0  0  0  0  0  0  0  0  0  0
   45.8047    5.8144    8.4707 H   0  0  0  0  0  0  0  0  0  0  0  0
   45.7128    1.6154    7.5759 H   0  0  0  0  0  0  0  0  0  0  0  0
   46.3637    3.9372    6.9770 H   0  0  0  0  0  0  0  0  0  0  0  0
  3  2  1  0
  4  2  1  0
  5  3  2  0
  6  2  1  0
  7  3  1  0
  8  6  2  0
  9  7  2  0
  8  9  1  0
 11 10  1  0
 12 10  1  0
 13 11  2  0
 14 10  1  0
 15 11  1  0
 16 14  2  0
 17 16  1  0
 15 17  2  0
  6 18  1  0
  7 19  1  0
  8 20  1  0
  9 21  1  0
 14 22  1  0
 15 23  1  0
 16 24  1  0
 17 25  1  0
M  CHG  3   1   2   4  -1  12  -1
M  END
> <Uni-Dock RESULT> 
ENERGY=   -6.395  LOWER_BOUND=    3.447  UPPER_BOUND=    4.303
INTER + INTRA:          -6.395
INTER:                  -6.395
INTRA:                   0.000
UNBOUND:                 0.000

$$$$

     RDKit          3D

 25 24  0  0  0  0  0  0  0  0999 V2000
   44.1885    4.7255   12.2584 Zn  0  0  0  0  0 15  0  0  0  0  0  0
   45.3305    4.7365   12.9027 N   0  0  0  0  0  0  0  0  0  0  0  0
   44.7875    5.9751   12.5270 C   0  0  0  0  0  0  0  0  0  0  0  0
   46.5338    4.6565   13.5868 O   0  0  0  0  0  0  0  0  0  0  0  0
   45.4307    7.5192   12.8041 S   0  0  0  0  0  0  0  0  0  0  0  0
   44.7614    3.5142   12.6494 C   0  0  0  0  0  0  0  0  0  0  0  0
   43.4735    5.8410   11.7924 C   0  0  0  0  0  0  0  0  0  0  0  0
   43.5958    3.4321   11.9958 C   0  0  0  0  0  0  0  0  0  0  0  0
   42.9356    4.6353   11.5559 C   0  0  0  0  0  0  0  0  0  0  0  0
   44.7423    5.8685   12.5837 N   0  0  0  0  0  0  0  0  0  0  0  0
   45.4179    4.6945   12.9513 C   0  0  0  0  0  0  0  0  0  0  0  0
   45.2568    7.1197   12.8881 O   0  0  0  0  0  0  0  0  0  0  0  0
   46.8907    4.5587   13.7804 S   0  0  0  0  0  0  0  0  0  0  0  0
   43.5479    5.9157   11.9106 C   0  0  0  0  0  0  0  0  0  0  0  0
   44.6890    3.4407   12.5260 C   0  0  0  0  0  0  0  0  0  0  0  0
   42.9291    4.7849   11.5489 C   0  0  0  0  0  0  0  0  0  0  0  0
   43.5220    3.5108   11.8686 C   0  0  0  0  0  0  0  0  0  0  0  0
   45.2908    2.6331   12.9976 H   0  0  0  0  0  0  0  0  0  0  0  0
   42.9875    6.7509   11.4671 H   0  0  0  0  0  0  0  0  0  0  0  0
   43.1411    2.4719   11.7925 H   0  0  0  0  0  0  0  0  0  0  0  0
   41.9944    4.5396   11.0296 H   0  0  0  0  0  0  0  0  0  0  0  0
   43.1357    6.8950   11.6893 H   0  0  0  0  0  0  0  0  0  0  0  0
   45.1437    2.4904   12.7717 H   0  0  0  0  0  0  0  0  0  0  0  0
   41.9871    4.8143   11.0179 H   0  0  0  0  0  0  0  0  0  0  0  0
   43.0002    2.6124   11.5643 H   0  0  0  0  0  0  0  0  0  0  0  0
  3  2  1  0
  4  2  1  0
  5  3  2  0
  6  2  1  0
  7  3  1  0
  8  6  2  0
  9  7  2  0
  8  9  1  0
 11 10  1  0
 12 10  1  0
 13 11  2  0
 14 10  1  0
 15 11  1  0
 16 14  2  0
 17 16  1  0
 15 17  2  0
  6 18  1  0
  7 19  1  0
  8 20  1  0
  9 21  1  0
 14 22  1  0
 15 23  1  0
 16 24  1  0
 17 25  1  0
M  CHG  3   1   2   4  -1  12  -1
M  END
> <Uni-Dock RESULT> 
ENERGY=   -4.956  LOWER_BOUND=    5.762  UPPER_BOUND=    6.075
INTER + INTRA:          -4.956
INTER:                  -4.956
INTRA:                   0.000
UNBOUND:                 0.000

$$$$

     RDKit          3D

 25 24  0  0  0  0  0  0  0  0999 V2000
   44.2023    4.7134   12.2397 Zn  0  0  0  0  0 15  0  0  0  0  0  0
   44.7935    5.8494   12.5215 N   0  0  0  0  0  0  0  0  0  0  0  0
   45.4261    4.6690   12.9417 C   0  0  0  0  0  0  0  0  0  0  0  0
   45.3492    7.0936   12.7774 O   0  0  0  0  0  0  0  0  0  0  0  0
   46.8888    4.5172   13.7857 S   0  0  0  0  0  0  0  0  0  0  0  0
   43.6050    5.9096   11.8389 C   0  0  0  0  0  0  0  0  0  0  0  0
   44.6566    3.4244   12.5635 C   0  0  0  0  0  0  0  0  0  0  0  0
   42.9496    4.7865   11.5198 C   0  0  0  0  0  0  0  0  0  0  0  0
   43.4963    3.5072   11.8958 C   0  0  0  0  0  0  0  0  0  0  0  0
   45.3719    4.7101   12.8322 N   0  0  0  0  0  0  0  0  0  0  0  0
   44.8054    5.9572   12.5260 C   0  0  0  0  0  0  0  0  0  0  0  0
   46.6054    4.6148   13.4584 O   0  0  0  0  0  0  0  0  0  0  0  0
   45.4513    7.4952   12.8294 S   0  0  0  0  0  0  0  0  0  0  0  0
   44.7993    3.4934   12.5610 C   0  0  0  0  0  0  0  0  0  0  0  0
   43.4604    5.8394   11.8466 C   0  0  0  0  0  0  0  0  0  0  0  0
   43.6060    3.4258   11.9576 C   0  0  0  0  0  0  0  0  0  0  0  0
   42.9195    4.6389   11.5912 C   0  0  0  0  0  0  0  0  0  0  0  0
   43.2281    6.8924   11.5746 H   0  0  0  0  0  0  0  0  0  0  0  0
   45.0769    2.4701   12.8512 H   0  0  0  0  0  0  0  0  0  0  0  0
   42.0120    4.8262   10.9817 H   0  0  0  0  0  0  0  0  0  0  0  0
   42.9454    2.6155   11.6251 H   0  0  0  0  0  0  0  0  0  0  0  0
   45.3490    2.6044   12.8532 H   0  0  0  0  0  0  0  0  0  0  0  0
   42.9550    6.7568   11.5763 H   0  0  0  0  0  0  0  0  0  0  0  0
   43.1482    2.4700   11.7406 H   0  0  0  0  0  0  0  0  0  0  0  0
   41.9562    4.5551   11.1045 H   0  0  0  0  0  0  0  0  0  0  0  0
  3  2  1  0
  4  2  1  0
  5  3  2  0
  6  2  1  0
  7  3  1  0
  8  6  2  0
  9  7  2  0
  8  9  1  0
 11 10  1  0
 12 10  1  0
 13 11  2  0
 14 10  1  0
 15 11  1  0
 16 14  2  0
 17 16  1  0
 15 17  2  0
  6 18  1  0
  7 19  1  0
  8 20  1  0
  9 21  1  0
 14 22  1  0
 15 23  1  0
 16 24  1  0
 17 25  1  0
M  CHG  3   1   2   4  -1  12  -1
M  END
> <Uni-Dock RESULT> 
ENERGY=   -4.902  LOWER_BOUND=    5.734  UPPER_BOUND=    6.288
INTER + INTRA:          -4.902
INTER:                  -4.902
INTRA:                   0.000
UNBOUND:                 0.000

$$$$

     RDKit          3D

 25 24  0  0  0  0  0  0  0  0999 V2000
   44.0280    4.2856   11.6605 Zn  0  0  0  0  0 15  0  0  0  0  0  0
   44.3548    5.5248   11.3832 N   0  0  0  0  0  0  0  0  0  0  0  0
   44.6326    4.5497   10.4125 C   0  0  0  0  0  0  0  0  0  0  0  0
   44.6673    6.8591   11.1721 O   0  0  0  0  0  0  0  0  0  0  0  0
   45.3521    4.7704    8.8933 S   0  0  0  0  0  0  0  0  0  0  0  0
   43.7683    5.2849   12.5999 C   0  0  0  0  0  0  0  0  0  0  0  0
   44.2142    3.1615   10.8393 C   0  0  0  0  0  0  0  0  0  0  0  0
   43.4100    4.0419   12.9457 C   0  0  0  0  0  0  0  0  0  0  0  0
   43.6422    2.9503   12.0340 C   0  0  0  0  0  0  0  0  0  0  0  0
   44.5309    4.5798   10.4859 N   0  0  0  0  0  0  0  0  0  0  0  0
   44.3670    5.6311   11.4012 C   0  0  0  0  0  0  0  0  0  0  0  0
   45.0554    4.8020    9.2217 O   0  0  0  0  0  0  0  0  0  0  0  0
   44.7433    7.2696   11.1808 S   0  0  0  0  0  0  0  0  0  0  0  0
   44.2068    3.2679   10.7222 C   0  0  0  0  0  0  0  0  0  0  0  0
   43.7809    5.1763   12.7180 C   0  0  0  0  0  0  0  0  0  0  0  0
   43.6891    2.8998   11.9008 C   0  0  0  0  0  0  0  0  0  0  0  0
   43.4715    3.8881   12.9270 C   0  0  0  0  0  0  0  0  0  0  0  0
   43.6112    6.1343   13.2568 H   0  0  0  0  0  0  0  0  0  0  0  0
   44.3937    2.3502   10.1467 H   0  0  0  0  0  0  0  0  0  0  0  0
   42.9471    3.8451   13.9033 H   0  0  0  0  0  0  0  0  0  0  0  0
   43.3427    1.9557   12.3393 H   0  0  0  0  0  0  0  0  0  0  0  0
   44.3863    2.5556    9.9233 H   0  0  0  0  0  0  0  0  0  0  0  0
   43.6222    5.9272   13.4804 H   0  0  0  0  0  0  0  0  0  0  0  0
   43.4311    1.8672   12.0944 H   0  0  0  0  0  0  0  0  0  0  0  0
   43.0517    3.5629   13.8703 H   0  0  0  0  0  0  0  0  0  0  0  0
  3  2  1  0
  4  2  1  0
  5  3  2  0
  6  2  1  0
  7  3  1  0
  8  6  2  0
  9  7  2  0
  8  9  1  0
 11 10  1  0
 12 10  1  0
 13 11  2  0
 14 10  1  0
 15 11  1  0
 16 14  2  0
 17 16  1  0
 15 17  2  0
  6 18  1  0
  7 19  1  0
  8 20  1  0
  9 21  1  0
 14 22  1  0
 15 23  1  0
 16 24  1  0
 17 25  1  0
M  CHG  3   1   2   4  -1  12  -1
M  END
> <Uni-Dock RESULT> 
ENERGY=   -4.833  LOWER_BOUND=    4.614  UPPER_BOUND=    5.311
INTER + INTRA:          -4.833
INTER:                  -4.833
INTRA:                   0.000
UNBOUND:                 0.000

$$$$
