
     RDKit          3D

 25 24  0  0  0  0  0  0  0  0999 V2000
   46.6448    2.4338    7.3873 Zn  0  0  0  0  0 15  0  0  0  0  0  0
   45.8118    1.9994    8.3019 N   0  0  0  0  0  0  0  0  0  0  0  0
   45.8391    3.3809    8.0555 C   0  0  0  0  0  0  0  0  0  0  0  0
   44.9611    1.4549    9.2519 O   0  0  0  0  0  0  0  0  0  0  0  0
   44.9140    4.5889    8.8036 S   0  0  0  0  0  0  0  0  0  0  0  0
   46.5876    1.0664    7.6618 C   0  0  0  0  0  0  0  0  0  0  0  0
   46.8337    3.7661    6.9847 C   0  0  0  0  0  0  0  0  0  0  0  0
   47.4589    1.4430    6.7175 C   0  0  0  0  0  0  0  0  0  0  0  0
   47.5820    2.8368    6.3719 C   0  0  0  0  0  0  0  0  0  0  0  0
   45.9770    3.4845    7.7991 N   0  0  0  0  0  0  0  0  0  0  0  0
   45.6798    2.2519    8.4014 C   0  0  0  0  0  0  0  0  0  0  0  0
   45.3187    4.6456    8.1743 O   0  0  0  0  0  0  0  0  0  0  0  0
   44.5438    1.9375    9.6201 S   0  0  0  0  0  0  0  0  0  0  0  0
   46.9111    3.6779    6.8132 C   0  0  0  0  0  0  0  0  0  0  0  0
   46.5082    1.1145    7.8496 C   0  0  0  0  0  0  0  0  0  0  0  0
   47.6276    2.6472    6.3473 C   0  0  0  0  0  0  0  0  0  0  0  0
   47.4159    1.3270    6.8853 C   0  0  0  0  0  0  0  0  0  0  0  0
   46.4641    0.0280    7.9516 H   0  0  0  0  0  0  0  0  0  0  0  0
   46.9170    4.8151    6.7339 H   0  0  0  0  0  0  0  0  0  0  0  0
   48.0739    0.7131    6.2085 H   0  0  0  0  0  0  0  0  0  0  0  0
   48.2941    3.1132    5.6049 H   0  0  0  0  0  0  0  0  0  0  0  0
   47.0395    4.6871    6.4354 H   0  0  0  0  0  0  0  0  0  0  0  0
   46.3404    0.1283    8.2612 H   0  0  0  0  0  0  0  0  0  0  0  0
   48.3659    2.7921    5.5701 H   0  0  0  0  0  0  0  0  0  0  0  0
   48.0091    0.5121    6.4904 H   0  0  0  0  0  0  0  0  0  0  0  0
  3  2  1  0
  4  2  1  0
  5  3  2  0
  6  2  1  0
  7  3  1  0
  8  6  2  0
  9  7  2  0
  8  9  1  0
 11 10  1  0
 12 10  1  0
 13 11  2  0
 14 10  1  0
 15 11  1  0
 16 14  2  0
 17 16  1  0
 15 17  2  0
  6 18  1  0
  7 19  1  0
  8 20  1  0
  9 21  1  0
 14 22  1  0
 15 23  1  0
 16 24  1  0
 17 25  1  0
M  CHG  3   1   2   4  -1  12  -1
M  END
> <Uni-Dock RESULT> 
ENERGY=   -8.413  LOWER_BOUND=    0.000  UPPER_BOUND=    0.000
INTER + INTRA:          -8.413
INTER:                  -8.413
INTRA:                   0.000
UNBOUND:                 0.000

$$$$

     RDKit          3D

 25 24  0  0  0  0  0  0  0  0999 V2000
   46.6549    2.4328    7.3842 Zn  0  0  0  0  0 15  0  0  0  0  0  0
   46.0195    3.4898    7.8293 N   0  0  0  0  0  0  0  0  0  0  0  0
   45.6722    2.2465    8.3802 C   0  0  0  0  0  0  0  0  0  0  0  0
   45.3978    4.6583    8.2421 O   0  0  0  0  0  0  0  0  0  0  0  0
   44.5114    1.9259    9.5738 S   0  0  0  0  0  0  0  0  0  0  0  0
   46.9714    3.6877    6.8614 C   0  0  0  0  0  0  0  0  0  0  0  0
   46.4667    1.1024    7.7936 C   0  0  0  0  0  0  0  0  0  0  0  0
   47.6569    2.6509    6.3637 C   0  0  0  0  0  0  0  0  0  0  0  0
   47.3928    1.3194    6.8479 C   0  0  0  0  0  0  0  0  0  0  0  0
   45.8598    2.0051    8.3352 N   0  0  0  0  0  0  0  0  0  0  0  0
   45.8273    3.3752    8.0319 C   0  0  0  0  0  0  0  0  0  0  0  0
   45.0523    1.4685    9.3263 O   0  0  0  0  0  0  0  0  0  0  0  0
   44.8719    4.5769    8.7515 S   0  0  0  0  0  0  0  0  0  0  0  0
   46.6576    1.0769    7.7156 C   0  0  0  0  0  0  0  0  0  0  0  0
   46.7822    3.7534    6.9230 C   0  0  0  0  0  0  0  0  0  0  0  0
   47.4926    1.4470    6.7365 C   0  0  0  0  0  0  0  0  0  0  0  0
   47.5530    2.8288    6.3315 C   0  0  0  0  0  0  0  0  0  0  0  0
   47.1395    4.7055    6.5245 H   0  0  0  0  0  0  0  0  0  0  0  0
   46.2596    0.1077    8.1650 H   0  0  0  0  0  0  0  0  0  0  0  0
   48.4090    2.7993    5.6005 H   0  0  0  0  0  0  0  0  0  0  0  0
   47.9617    0.4997    6.4280 H   0  0  0  0  0  0  0  0  0  0  0  0
   46.5816    0.0474    8.0504 H   0  0  0  0  0  0  0  0  0  0  0  0
   46.8187    4.7934    6.6278 H   0  0  0  0  0  0  0  0  0  0  0  0
   48.1246    0.7206    6.2434 H   0  0  0  0  0  0  0  0  0  0  0  0
   48.2368    3.1000    5.5373 H   0  0  0  0  0  0  0  0  0  0  0  0
  3  2  1  0
  4  2  1  0
  5  3  2  0
  6  2  1  0
  7  3  1  0
  8  6  2  0
  9  7  2  0
  8  9  1  0
 11 10  1  0
 12 10  1  0
 13 11  2  0
 14 10  1  0
 15 11  1  0
 16 14  2  0
 17 16  1  0
 15 17  2  0
  6 18  1  0
  7 19  1  0
  8 20  1  0
  9 21  1  0
 14 22  1  0
 15 23  1  0
 16 24  1  0
 17 25  1  0
M  CHG  3   1   2   4  -1  12  -1
M  END
> <Uni-Dock RESULT> 
ENERGY=   -8.381  LOWER_BOUND=    0.066  UPPER_BOUND=    2.248
INTER + INTRA:          -8.381
INTER:                  -8.381
INTRA:                   0.000
UNBOUND:                 0.000

$$$$

     RDKit          3D

 25 24  0  0  0  0  0  0  0  0999 V2000
   45.7905    2.9208    8.1767 Zn  0  0  0  0  0 15  0  0  0  0  0  0
   46.1039    1.6519    8.0733 N   0  0  0  0  0  0  0  0  0  0  0  0
   46.7887    2.5569    7.2474 C   0  0  0  0  0  0  0  0  0  0  0  0
   46.3727    0.2924    8.0287 O   0  0  0  0  0  0  0  0  0  0  0  0
   47.9961    2.2152    6.1072 S   0  0  0  0  0  0  0  0  0  0  0  0
   45.1320    1.9891    8.9809 C   0  0  0  0  0  0  0  0  0  0  0  0
   46.3466    3.9876    7.4519 C   0  0  0  0  0  0  0  0  0  0  0  0
   44.7647    3.2672    9.1363 C   0  0  0  0  0  0  0  0  0  0  0  0
   45.3943    4.2942    8.3453 C   0  0  0  0  0  0  0  0  0  0  0  0
   46.7739    2.8588    7.3116 N   0  0  0  0  0  0  0  0  0  0  0  0
   46.3158    1.6499    7.8583 C   0  0  0  0  0  0  0  0  0  0  0  0
   47.8094    2.8847    6.3899 O   0  0  0  0  0  0  0  0  0  0  0  0
   46.8813    0.0838    7.5383 S   0  0  0  0  0  0  0  0  0  0  0  0
   46.2745    4.1011    7.6103 C   0  0  0  0  0  0  0  0  0  0  0  0
   45.1833    1.8422    8.8406 C   0  0  0  0  0  0  0  0  0  0  0  0
   45.2703    4.2349    8.4858 C   0  0  0  0  0  0  0  0  0  0  0  0
   44.7110    3.0665    9.1176 C   0  0  0  0  0  0  0  0  0  0  0  0
   44.6834    1.1858    9.5563 H   0  0  0  0  0  0  0  0  0  0  0  0
   46.8265    4.7496    6.8524 H   0  0  0  0  0  0  0  0  0  0  0  0
   43.9992    3.5406    9.8500 H   0  0  0  0  0  0  0  0  0  0  0  0
   45.0780    5.3192    8.4914 H   0  0  0  0  0  0  0  0  0  0  0  0
   46.7236    4.9547    7.1129 H   0  0  0  0  0  0  0  0  0  0  0  0
   44.7718    0.9579    9.3084 H   0  0  0  0  0  0  0  0  0  0  0  0
   44.8715    5.2113    8.7263 H   0  0  0  0  0  0  0  0  0  0  0  0
   43.8999    3.2039    9.8212 H   0  0  0  0  0  0  0  0  0  0  0  0
  3  2  1  0
  4  2  1  0
  5  3  2  0
  6  2  1  0
  7  3  1  0
  8  6  2  0
  9  7  2  0
  8  9  1  0
 11 10  1  0
 12 10  1  0
 13 11  2  0
 14 10  1  0
 15 11  1  0
 16 14  2  0
 17 16  1  0
 15 17  2  0
  6 18  1  0
  7 19  1  0
  8 20  1  0
  9 21  1  0
 14 22  1  0
 15 23  1  0
 16 24  1  0
 17 25  1  0
M  CHG  3   1   2   4  -1  12  -1
M  END
> <Uni-Dock RESULT> 
ENERGY=   -7.961  LOWER_BOUND=    1.990  UPPER_BOUND=    2.704
INTER + INTRA:          -7.961
INTER:                  -7.961
INTRA:                   0.000
UNBOUND:                 0.000

$$$$

     RDKit          3D

 25 24  0  0  0  0  0  0  0  0999 V2000
   45.7832    2.9264    8.1796 Zn  0  0  0  0  0 15  0  0  0  0  0  0
   46.7187    2.8578    7.2635 N   0  0  0  0  0  0  0  0  0  0  0  0
   46.3244    1.6584    7.8767 C   0  0  0  0  0  0  0  0  0  0  0  0
   47.7008    2.8765    6.2850 O   0  0  0  0  0  0  0  0  0  0  0  0
   46.9138    0.0965    7.5802 S   0  0  0  0  0  0  0  0  0  0  0  0
   46.2031    4.0973    7.5464 C   0  0  0  0  0  0  0  0  0  0  0  0
   45.2430    1.8575    8.9136 C   0  0  0  0  0  0  0  0  0  0  0  0
   45.2453    4.2373    8.4714 C   0  0  0  0  0  0  0  0  0  0  0  0
   44.7535    3.0789    9.1738 C   0  0  0  0  0  0  0  0  0  0  0  0
   46.0618    1.6528    8.0394 N   0  0  0  0  0  0  0  0  0  0  0  0
   46.7869    2.5639    7.2556 C   0  0  0  0  0  0  0  0  0  0  0  0
   46.2923    0.2882    7.9543 O   0  0  0  0  0  0  0  0  0  0  0  0
   48.0041    2.2244    6.1252 S   0  0  0  0  0  0  0  0  0  0  0  0
   45.0841    1.9885    8.9413 C   0  0  0  0  0  0  0  0  0  0  0  0
   46.3825    3.9996    7.5000 C   0  0  0  0  0  0  0  0  0  0  0  0
   44.7508    3.2711    9.1328 C   0  0  0  0  0  0  0  0  0  0  0  0
   45.4236    4.3046    8.3868 C   0  0  0  0  0  0  0  0  0  0  0  0
   46.6008    4.9432    6.9951 H   0  0  0  0  0  0  0  0  0  0  0  0
   44.8820    0.9806    9.4340 H   0  0  0  0  0  0  0  0  0  0  0  0
   44.8339    5.2114    8.6997 H   0  0  0  0  0  0  0  0  0  0  0  0
   43.9789    3.2210    9.9165 H   0  0  0  0  0  0  0  0  0  0  0  0
   44.6023    1.1805    9.4821 H   0  0  0  0  0  0  0  0  0  0  0  0
   46.8945    4.7664    6.9343 H   0  0  0  0  0  0  0  0  0  0  0  0
   43.9809    3.5434    9.8422 H   0  0  0  0  0  0  0  0  0  0  0  0
   45.1343    5.3330    8.5616 H   0  0  0  0  0  0  0  0  0  0  0  0
  3  2  1  0
  4  2  1  0
  5  3  2  0
  6  2  1  0
  7  3  1  0
  8  6  2  0
  9  7  2  0
  8  9  1  0
 11 10  1  0
 12 10  1  0
 13 11  2  0
 14 10  1  0
 15 11  1  0
 16 14  2  0
 17 16  1  0
 15 17  2  0
  6 18  1  0
  7 19  1  0
  8 20  1  0
  9 21  1  0
 14 22  1  0
 15 23  1  0
 16 24  1  0
 17 25  1  0
M  CHG  3   1   2   4  -1  12  -1
M  END
> <Uni-Dock RESULT> 
ENERGY=   -7.839  LOWER_BOUND=    1.987  UPPER_BOUND=    3.459
INTER + INTRA:          -7.839
INTER:                  -7.839
INTRA:                   0.000
UNBOUND:                 0.000

$$$$

     RDKit          3D

 25 24  0  0  0  0  0  0  0  0999 V2000
   45.1580    3.4475    9.0334 Zn  0  0  0  0  0 15  0  0  0  0  0  0
   44.8372    4.4866    9.7657 N   0  0  0  0  0  0  0  0  0  0  0  0
   44.3708    3.2309   10.1848 C   0  0  0  0  0  0  0  0  0  0  0  0
   44.5446    5.6379   10.4809 O   0  0  0  0  0  0  0  0  0  0  0  0
   43.4250    2.8744   11.5461 S   0  0  0  0  0  0  0  0  0  0  0  0
   45.6025    4.7140    8.6501 C   0  0  0  0  0  0  0  0  0  0  0  0
   44.8005    2.1095    9.2672 C   0  0  0  0  0  0  0  0  0  0  0  0
   45.9652    3.6965    7.8588 C   0  0  0  0  0  0  0  0  0  0  0  0
   45.5490    2.3551    8.1816 C   0  0  0  0  0  0  0  0  0  0  0  0
   44.4961    2.9763   10.0625 N   0  0  0  0  0  0  0  0  0  0  0  0
   44.6697    4.3671    9.9865 C   0  0  0  0  0  0  0  0  0  0  0  0
   43.8089    2.3938   11.1165 O   0  0  0  0  0  0  0  0  0  0  0  0
   44.1222    5.5442   11.0771 S   0  0  0  0  0  0  0  0  0  0  0  0
   44.9640    2.0698    9.1453 C   0  0  0  0  0  0  0  0  0  0  0  0
   45.4451    4.7954    8.7619 C   0  0  0  0  0  0  0  0  0  0  0  0
   45.6478    2.4843    8.0714 C   0  0  0  0  0  0  0  0  0  0  0  0
   45.8932    3.8913    7.8783 C   0  0  0  0  0  0  0  0  0  0  0  0
   45.8946    5.7384    8.4429 H   0  0  0  0  0  0  0  0  0  0  0  0
   44.4820    1.1070    9.5199 H   0  0  0  0  0  0  0  0  0  0  0  0
   46.5686    3.8681    6.9776 H   0  0  0  0  0  0  0  0  0  0  0  0
   45.8565    1.5515    7.5247 H   0  0  0  0  0  0  0  0  0  0  0  0
   44.7578    1.0201    9.3279 H   0  0  0  0  0  0  0  0  0  0  0  0
   45.6231    5.8539    8.6279 H   0  0  0  0  0  0  0  0  0  0  0  0
   46.0198    1.7754    7.3440 H   0  0  0  0  0  0  0  0  0  0  0  0
   46.4486    4.1985    7.0013 H   0  0  0  0  0  0  0  0  0  0  0  0
  3  2  1  0
  4  2  1  0
  5  3  2  0
  6  2  1  0
  7  3  1  0
  8  6  2  0
  9  7  2  0
  8  9  1  0
 11 10  1  0
 12 10  1  0
 13 11  2  0
 14 10  1  0
 15 11  1  0
 16 14  2  0
 17 16  1  0
 15 17  2  0
  6 18  1  0
  7 19  1  0
  8 20  1  0
  9 21  1  0
 14 22  1  0
 15 23  1  0
 16 24  1  0
 17 25  1  0
M  CHG  3   1   2   4  -1  12  -1
M  END
> <Uni-Dock RESULT> 
ENERGY=   -6.595  LOWER_BOUND=    2.116  UPPER_BOUND=    3.329
INTER + INTRA:          -6.595
INTER:                  -6.595
INTRA:                   0.000
UNBOUND:                 0.000

$$$$
