
     RDKit          3D

 25 24  0  0  0  0  0  0  0  0999 V2000
   46.6691    2.3992    7.3783 Zn  0  0  0  0  0 15  0  0  0  0  0  0
   46.5771    1.1089    7.5929 N   0  0  0  0  0  0  0  0  0  0  0  0
   45.7447    1.9513    8.3465 C   0  0  0  0  0  0  0  0  0  0  0  0
   46.5446   -0.2675    7.7560 O   0  0  0  0  0  0  0  0  0  0  0  0
   44.6096    1.5074    9.5252 S   0  0  0  0  0  0  0  0  0  0  0  0
   47.4800    1.5281    6.6490 C   0  0  0  0  0  0  0  0  0  0  0  0
   45.9361    3.4135    8.0160 C   0  0  0  0  0  0  0  0  0  0  0  0
   47.6238    2.8321    6.3812 C   0  0  0  0  0  0  0  0  0  0  0  0
   46.8251    3.8005    7.0891 C   0  0  0  0  0  0  0  0  0  0  0  0
   45.8127    2.0608    8.3118 N   0  0  0  0  0  0  0  0  0  0  0  0
   45.8415    3.4076    7.9175 C   0  0  0  0  0  0  0  0  0  0  0  0
   44.9381    1.6168    9.2918 O   0  0  0  0  0  0  0  0  0  0  0  0
   44.8914    4.6833    8.5046 S   0  0  0  0  0  0  0  0  0  0  0  0
   46.6096    1.0693    7.7981 C   0  0  0  0  0  0  0  0  0  0  0  0
   46.8639    3.6812    6.8386 C   0  0  0  0  0  0  0  0  0  0  0  0
   47.5052    1.3472    6.8424 C   0  0  0  0  0  0  0  0  0  0  0  0
   47.6324    2.6961    6.3510 C   0  0  0  0  0  0  0  0  0  0  0  0
   48.0615    0.7670    6.1389 H   0  0  0  0  0  0  0  0  0  0  0  0
   45.3311    4.1310    8.5538 H   0  0  0  0  0  0  0  0  0  0  0  0
   48.3337    3.1699    5.6383 H   0  0  0  0  0  0  0  0  0  0  0  0
   46.9619    4.8480    6.8528 H   0  0  0  0  0  0  0  0  0  0  0  0
   46.4822    0.0675    8.1955 H   0  0  0  0  0  0  0  0  0  0  0  0
   46.9502    4.6973    6.4777 H   0  0  0  0  0  0  0  0  0  0  0  0
   48.1370    0.5705    6.4327 H   0  0  0  0  0  0  0  0  0  0  0  0
   48.3647    2.8924    5.5782 H   0  0  0  0  0  0  0  0  0  0  0  0
  3  2  1  0
  4  2  1  0
  5  3  2  0
  6  2  1  0
  7  3  1  0
  8  6  2  0
  9  7  2  0
  8  9  1  0
 11 10  1  0
 12 10  1  0
 13 11  2  0
 14 10  1  0
 15 11  1  0
 16 14  2  0
 17 16  1  0
 15 17  2  0
  6 18  1  0
  7 19  1  0
  8 20  1  0
  9 21  1  0
 14 22  1  0
 15 23  1  0
 16 24  1  0
 17 25  1  0
M  CHG  3   1   2   4  -1  12  -1
M  END
> <Uni-Dock RESULT> 
ENERGY=   -7.216  LOWER_BOUND=    0.000  UPPER_BOUND=    0.000
INTER + INTRA:          -7.216
INTER:                  -7.216
INTRA:                   0.000
UNBOUND:                 0.000

$$$$

     RDKit          3D

 25 24  0  0  0  0  0  0  0  0999 V2000
   45.1002    3.6582    9.1951 Zn  0  0  0  0  0 15  0  0  0  0  0  0
   44.7415    2.3975    9.1607 N   0  0  0  0  0  0  0  0  0  0  0  0
   44.3433    3.1535   10.2744 C   0  0  0  0  0  0  0  0  0  0  0  0
   44.4052    1.0575    9.0437 O   0  0  0  0  0  0  0  0  0  0  0  0
   43.4380    2.6370   11.6117 S   0  0  0  0  0  0  0  0  0  0  0  0
   45.4766    2.8727    8.1044 C   0  0  0  0  0  0  0  0  0  0  0  0
   44.8117    4.5889   10.2067 C   0  0  0  0  0  0  0  0  0  0  0  0
   45.8752    4.1506    8.0770 C   0  0  0  0  0  0  0  0  0  0  0  0
   45.5297    5.0316    9.1638 C   0  0  0  0  0  0  0  0  0  0  0  0
   44.4266    3.2536   10.2447 N   0  0  0  0  0  0  0  0  0  0  0  0
   44.6985    4.6267   10.1401 C   0  0  0  0  0  0  0  0  0  0  0  0
   43.7202    2.7403   11.3217 O   0  0  0  0  0  0  0  0  0  0  0  0
   44.2593    5.8586   11.2191 S   0  0  0  0  0  0  0  0  0  0  0  0
   44.8096    2.3003    9.3356 C   0  0  0  0  0  0  0  0  0  0  0  0
   45.4785    4.9769    8.8938 C   0  0  0  0  0  0  0  0  0  0  0  0
   45.5000    2.6460    8.2418 C   0  0  0  0  0  0  0  0  0  0  0  0
   45.8424    4.0281    8.0186 C   0  0  0  0  0  0  0  0  0  0  0  0
   45.7155    2.1767    7.3067 H   0  0  0  0  0  0  0  0  0  0  0  0
   44.5463    5.2405   11.0282 H   0  0  0  0  0  0  0  0  0  0  0  0
   46.4551    4.5322    7.2474 H   0  0  0  0  0  0  0  0  0  0  0  0
   45.8650    6.0598    9.1158 H   0  0  0  0  0  0  0  0  0  0  0  0
   44.5318    1.2715    9.5412 H   0  0  0  0  0  0  0  0  0  0  0  0
   45.7296    6.0174    8.7372 H   0  0  0  0  0  0  0  0  0  0  0  0
   45.8054    1.8997    7.5206 H   0  0  0  0  0  0  0  0  0  0  0  0
   46.4011    4.2793    7.1260 H   0  0  0  0  0  0  0  0  0  0  0  0
  3  2  1  0
  4  2  1  0
  5  3  2  0
  6  2  1  0
  7  3  1  0
  8  6  2  0
  9  7  2  0
  8  9  1  0
 11 10  1  0
 12 10  1  0
 13 11  2  0
 14 10  1  0
 15 11  1  0
 16 14  2  0
 17 16  1  0
 15 17  2  0
  6 18  1  0
  7 19  1  0
  8 20  1  0
  9 21  1  0
 14 22  1  0
 15 23  1  0
 16 24  1  0
 17 25  1  0
M  CHG  3   1   2   4  -1  12  -1
M  END
> <Uni-Dock RESULT> 
ENERGY=   -6.035  LOWER_BOUND=    2.192  UPPER_BOUND=    2.751
INTER + INTRA:          -6.035
INTER:                  -6.035
INTRA:                   0.000
UNBOUND:                 0.000

$$$$

     RDKit          3D

 25 24  0  0  0  0  0  0  0  0999 V2000
   46.4860    2.3638    7.6387 Zn  0  0  0  0  0 15  0  0  0  0  0  0
   46.9645    3.5140    7.2297 N   0  0  0  0  0  0  0  0  0  0  0  0
   45.9043    3.5443    8.1491 C   0  0  0  0  0  0  0  0  0  0  0  0
   47.5301    4.6835    6.7454 O   0  0  0  0  0  0  0  0  0  0  0  0
   45.1444    4.9058    8.8151 S   0  0  0  0  0  0  0  0  0  0  0  0
   47.5406    2.3761    6.7244 C   0  0  0  0  0  0  0  0  0  0  0  0
   45.4350    2.1644    8.5490 C   0  0  0  0  0  0  0  0  0  0  0  0
   47.0995    1.1692    7.1006 C   0  0  0  0  0  0  0  0  0  0  0  0
   46.0133    1.0654    8.0419 C   0  0  0  0  0  0  0  0  0  0  0  0
   45.8766    3.4148    8.1317 N   0  0  0  0  0  0  0  0  0  0  0  0
   45.5248    2.1596    8.6520 C   0  0  0  0  0  0  0  0  0  0  0  0
   45.2816    4.5781    8.5956 O   0  0  0  0  0  0  0  0  0  0  0  0
   44.3881    1.8175    9.8627 S   0  0  0  0  0  0  0  0  0  0  0  0
   46.8080    3.6301    7.1478 C   0  0  0  0  0  0  0  0  0  0  0  0
   46.2886    1.0239    8.0110 C   0  0  0  0  0  0  0  0  0  0  0  0
   47.4666    2.6002    6.6016 C   0  0  0  0  0  0  0  0  0  0  0  0
   47.1950    1.2579    7.0505 C   0  0  0  0  0  0  0  0  0  0  0  0
   48.3556    2.4981    6.0183 H   0  0  0  0  0  0  0  0  0  0  0  0
   44.6191    2.0993    9.2560 H   0  0  0  0  0  0  0  0  0  0  0  0
   47.5489    0.2676    6.7063 H   0  0  0  0  0  0  0  0  0  0  0  0
   45.6767    0.0773    8.3285 H   0  0  0  0  0  0  0  0  0  0  0  0
   46.9825    4.6556    6.8386 H   0  0  0  0  0  0  0  0  0  0  0  0
   46.0762    0.0210    8.3561 H   0  0  0  0  0  0  0  0  0  0  0  0
   48.2024    2.7623    5.8253 H   0  0  0  0  0  0  0  0  0  0  0  0
   47.7420    0.4441    6.5916 H   0  0  0  0  0  0  0  0  0  0  0  0
  3  2  1  0
  4  2  1  0
  5  3  2  0
  6  2  1  0
  7  3  1  0
  8  6  2  0
  9  7  2  0
  8  9  1  0
 11 10  1  0
 12 10  1  0
 13 11  2  0
 14 10  1  0
 15 11  1  0
 16 14  2  0
 17 16  1  0
 15 17  2  0
  6 18  1  0
  7 19  1  0
  8 20  1  0
  9 21  1  0
 14 22  1  0
 15 23  1  0
 16 24  1  0
 17 25  1  0
M  CHG  3   1   2   4  -1  12  -1
M  END
> <Uni-Dock RESULT> 
ENERGY=   -5.478  LOWER_BOUND=    1.626  UPPER_BOUND=    2.508
INTER + INTRA:          -5.478
INTER:                  -5.478
INTRA:                   0.000
UNBOUND:                 0.000

$$$$

     RDKit          3D

 25 24  0  0  0  0  0  0  0  0999 V2000
   44.7729    3.6506    9.8037 Zn  0  0  0  0  0 15  0  0  0  0  0  0
   45.4569    4.5239    9.1046 N   0  0  0  0  0  0  0  0  0  0  0  0
   44.9478    4.9430   10.3437 C   0  0  0  0  0  0  0  0  0  0  0  0
   46.1913    5.3826    8.3011 O   0  0  0  0  0  0  0  0  0  0  0  0
   45.1058    6.4665   11.0709 S   0  0  0  0  0  0  0  0  0  0  0  0
   45.2959    3.2724    8.5661 C   0  0  0  0  0  0  0  0  0  0  0  0
   44.1787    3.8567   11.0596 C   0  0  0  0  0  0  0  0  0  0  0  0
   44.6082    2.3336    9.2280 C   0  0  0  0  0  0  0  0  0  0  0  0
   44.0339    2.6400   10.5138 C   0  0  0  0  0  0  0  0  0  0  0  0
   44.8676    4.8368   10.3542 N   0  0  0  0  0  0  0  0  0  0  0  0
   44.2922    3.8115   11.1210 C   0  0  0  0  0  0  0  0  0  0  0  0
   45.0063    6.1208   10.8587 O   0  0  0  0  0  0  0  0  0  0  0  0
   43.6896    3.9095   12.7028 S   0  0  0  0  0  0  0  0  0  0  0  0
   45.3393    4.6968    9.0737 C   0  0  0  0  0  0  0  0  0  0  0  0
   44.2350    2.4916   10.3870 C   0  0  0  0  0  0  0  0  0  0  0  0
   45.2729    3.5122    8.4532 C   0  0  0  0  0  0  0  0  0  0  0  0
   44.7024    2.3779    9.1351 C   0  0  0  0  0  0  0  0  0  0  0  0
   45.7440    3.0828    7.5960 H   0  0  0  0  0  0  0  0  0  0  0  0
   43.7523    4.0985   12.0238 H   0  0  0  0  0  0  0  0  0  0  0  0
   44.4771    1.3447    8.8096 H   0  0  0  0  0  0  0  0  0  0  0  0
   43.4829    1.8622   11.0270 H   0  0  0  0  0  0  0  0  0  0  0  0
   45.7610    5.5754    8.5961 H   0  0  0  0  0  0  0  0  0  0  0  0
   43.8047    1.6476   10.9091 H   0  0  0  0  0  0  0  0  0  0  0  0
   45.6429    3.3944    7.4435 H   0  0  0  0  0  0  0  0  0  0  0  0
   44.6613    1.4323    8.6096 H   0  0  0  0  0  0  0  0  0  0  0  0
  3  2  1  0
  4  2  1  0
  5  3  2  0
  6  2  1  0
  7  3  1  0
  8  6  2  0
  9  7  2  0
  8  9  1  0
 11 10  1  0
 12 10  1  0
 13 11  2  0
 14 10  1  0
 15 11  1  0
 16 14  2  0
 17 16  1  0
 15 17  2  0
  6 18  1  0
  7 19  1  0
  8 20  1  0
  9 21  1  0
 14 22  1  0
 15 23  1  0
 16 24  1  0
 17 25  1  0
M  CHG  3   1   2   4  -1  12  -1
M  END
> <Uni-Dock RESULT> 
ENERGY=   -5.402  LOWER_BOUND=    3.185  UPPER_BOUND=    4.171
INTER + INTRA:          -5.402
INTER:                  -5.402
INTRA:                   0.000
UNBOUND:                 0.000

$$$$

     RDKit          3D

 25 24  0  0  0  0  0  0  0  0999 V2000
   44.7570    3.8114    9.8094 Zn  0  0  0  0  0 15  0  0  0  0  0  0
   44.1562    2.7386   10.2647 N   0  0  0  0  0  0  0  0  0  0  0  0
   44.2573    3.8398   11.1292 C   0  0  0  0  0  0  0  0  0  0  0  0
   43.5366    1.5646   10.6648 O   0  0  0  0  0  0  0  0  0  0  0  0
   43.6906    3.9663   12.7222 S   0  0  0  0  0  0  0  0  0  0  0  0
   44.6362    2.6951    8.9803 C   0  0  0  0  0  0  0  0  0  0  0  0
   44.9667    5.0165   10.4998 C   0  0  0  0  0  0  0  0  0  0  0  0
   45.2600    3.7565    8.4540 C   0  0  0  0  0  0  0  0  0  0  0  0
   45.4279    4.9514    9.2419 C   0  0  0  0  0  0  0  0  0  0  0  0
   44.3469    3.9011   11.0515 N   0  0  0  0  0  0  0  0  0  0  0  0
   44.8491    5.0657   10.4502 C   0  0  0  0  0  0  0  0  0  0  0  0
   43.8921    3.9067   12.3614 O   0  0  0  0  0  0  0  0  0  0  0  0
   44.9981    6.6089   11.1367 S   0  0  0  0  0  0  0  0  0  0  0  0
   44.2507    2.6754   10.4429 C   0  0  0  0  0  0  0  0  0  0  0  0
   45.2911    4.8446    9.0219 C   0  0  0  0  0  0  0  0  0  0  0  0
   44.6518    2.5152    9.1756 C   0  0  0  0  0  0  0  0  0  0  0  0
   45.1877    3.6373    8.4471 C   0  0  0  0  0  0  0  0  0  0  0  0
   44.4892    1.7767    8.4211 H   0  0  0  0  0  0  0  0  0  0  0  0
   45.0867    5.9077   11.1009 H   0  0  0  0  0  0  0  0  0  0  0  0
   45.6411    3.7294    7.4420 H   0  0  0  0  0  0  0  0  0  0  0  0
   45.9360    5.7946    8.7915 H   0  0  0  0  0  0  0  0  0  0  0  0
   43.8417    1.8569   11.0265 H   0  0  0  0  0  0  0  0  0  0  0  0
   45.6916    5.6942    8.4854 H   0  0  0  0  0  0  0  0  0  0  0  0
   44.5790    1.5517    8.6892 H   0  0  0  0  0  0  0  0  0  0  0  0
   45.5044    3.4793    7.4240 H   0  0  0  0  0  0  0  0  0  0  0  0
  3  2  1  0
  4  2  1  0
  5  3  2  0
  6  2  1  0
  7  3  1  0
  8  6  2  0
  9  7  2  0
  8  9  1  0
 11 10  1  0
 12 10  1  0
 13 11  2  0
 14 10  1  0
 15 11  1  0
 16 14  2  0
 17 16  1  0
 15 17  2  0
  6 18  1  0
  7 19  1  0
  8 20  1  0
  9 21  1  0
 14 22  1  0
 15 23  1  0
 16 24  1  0
 17 25  1  0
M  CHG  3   1   2   4  -1  12  -1
M  END
> <Uni-Dock RESULT> 
ENERGY=   -5.362  LOWER_BOUND=    3.027  UPPER_BOUND=    3.609
INTER + INTRA:          -5.362
INTER:                  -5.362
INTRA:                   0.000
UNBOUND:                 0.000

$$$$

     RDKit          3D

 25 24  0  0  0  0  0  0  0  0999 V2000
   44.1897    4.8491   12.2809 Zn  0  0  0  0  0 15  0  0  0  0  0  0
   43.5320    5.8573   11.7610 N   0  0  0  0  0  0  0  0  0  0  0  0
   44.7038    6.1491   12.4766 C   0  0  0  0  0  0  0  0  0  0  0  0
   42.7758    6.8629   11.1787 O   0  0  0  0  0  0  0  0  0  0  0  0
   45.3955    7.6703   12.7629 S   0  0  0  0  0  0  0  0  0  0  0  0
   43.0195    4.6005   11.5619 C   0  0  0  0  0  0  0  0  0  0  0  0
   45.3767    4.9137   13.0291 C   0  0  0  0  0  0  0  0  0  0  0  0
   43.6418    3.5275   12.0659 C   0  0  0  0  0  0  0  0  0  0  0  0
   44.8573    3.6944   12.8219 C   0  0  0  0  0  0  0  0  0  0  0  0
   44.7100    6.0266   12.5296 N   0  0  0  0  0  0  0  0  0  0  0  0
   45.4500    4.8978   12.9147 C   0  0  0  0  0  0  0  0  0  0  0  0
   45.1856    7.3095   12.7547 O   0  0  0  0  0  0  0  0  0  0  0  0
   46.9638    4.8576   13.6774 S   0  0  0  0  0  0  0  0  0  0  0  0
   43.4849    5.9963   11.9132 C   0  0  0  0  0  0  0  0  0  0  0  0
   44.7548    3.5983   12.5795 C   0  0  0  0  0  0  0  0  0  0  0  0
   42.8976    4.8268   11.6306 C   0  0  0  0  0  0  0  0  0  0  0  0
   43.5569    3.5927   11.9763 C   0  0  0  0  0  0  0  0  0  0  0  0
   42.1025    4.5185   10.9872 H   0  0  0  0  0  0  0  0  0  0  0  0
   46.2882    5.0516   13.5948 H   0  0  0  0  0  0  0  0  0  0  0  0
   43.2435    2.5335   11.9129 H   0  0  0  0  0  0  0  0  0  0  0  0
   45.3396    2.8098   13.2178 H   0  0  0  0  0  0  0  0  0  0  0  0
   43.0226    6.9476   11.6698 H   0  0  0  0  0  0  0  0  0  0  0  0
   45.2594    2.6788   12.8438 H   0  0  0  0  0  0  0  0  0  0  0  0
   41.9316    4.7951   11.1446 H   0  0  0  0  0  0  0  0  0  0  0  0
   43.0593    2.6618   11.7363 H   0  0  0  0  0  0  0  0  0  0  0  0
  3  2  1  0
  4  2  1  0
  5  3  2  0
  6  2  1  0
  7  3  1  0
  8  6  2  0
  9  7  2  0
  8  9  1  0
 11 10  1  0
 12 10  1  0
 13 11  2  0
 14 10  1  0
 15 11  1  0
 16 14  2  0
 17 16  1  0
 15 17  2  0
  6 18  1  0
  7 19  1  0
  8 20  1  0
  9 21  1  0
 14 22  1  0
 15 23  1  0
 16 24  1  0
 17 25  1  0
M  CHG  3   1   2   4  -1  12  -1
M  END
> <Uni-Dock RESULT> 
ENERGY=   -4.942  LOWER_BOUND=    6.167  UPPER_BOUND=    6.619
INTER + INTRA:          -4.942
INTER:                  -4.942
INTRA:                   0.000
UNBOUND:                 0.000

$$$$

     RDKit          3D

 25 24  0  0  0  0  0  0  0  0999 V2000
   44.0611    4.2314   11.0821 Zn  0  0  0  0  0 15  0  0  0  0  0  0
   43.6807    3.0423   11.4829 N   0  0  0  0  0  0  0  0  0  0  0  0
   44.3471    3.1272   10.2504 C   0  0  0  0  0  0  0  0  0  0  0  0
   43.2441    1.8247   11.9820 O   0  0  0  0  0  0  0  0  0  0  0  0
   44.7331    1.8635    9.1881 S   0  0  0  0  0  0  0  0  0  0  0  0
   43.3953    4.1049   12.3023 C   0  0  0  0  0  0  0  0  0  0  0  0
   44.7374    4.5423    9.8910 C   0  0  0  0  0  0  0  0  0  0  0  0
   43.7560    5.3459   11.9526 C   0  0  0  0  0  0  0  0  0  0  0  0
   44.4480    5.5662   10.7078 C   0  0  0  0  0  0  0  0  0  0  0  0
   44.3336    3.2600   10.2447 N   0  0  0  0  0  0  0  0  0  0  0  0
   44.8573    4.5297    9.9554 C   0  0  0  0  0  0  0  0  0  0  0  0
   44.5727    2.1768    9.4128 O   0  0  0  0  0  0  0  0  0  0  0  0
   45.8185    4.9814    8.6337 S   0  0  0  0  0  0  0  0  0  0  0  0
   43.5588    2.9538   11.3345 C   0  0  0  0  0  0  0  0  0  0  0  0
   44.4799    5.5686   10.9861 C   0  0  0  0  0  0  0  0  0  0  0  0
   43.2434    3.8993   12.2285 C   0  0  0  0  0  0  0  0  0  0  0  0
   43.7211    5.2465   12.0441 C   0  0  0  0  0  0  0  0  0  0  0  0
   42.8730    3.8959   13.2304 H   0  0  0  0  0  0  0  0  0  0  0  0
   45.2563    4.6952    8.9543 H   0  0  0  0  0  0  0  0  0  0  0  0
   43.5343    6.1886   12.5936 H   0  0  0  0  0  0  0  0  0  0  0  0
   44.7277    6.5797   10.4499 H   0  0  0  0  0  0  0  0  0  0  0  0
   43.2197    1.9278   11.4360 H   0  0  0  0  0  0  0  0  0  0  0  0
   44.8443    6.5761   10.8371 H   0  0  0  0  0  0  0  0  0  0  0  0
   42.6328    3.6652   13.0903 H   0  0  0  0  0  0  0  0  0  0  0  0
   43.4509    5.9909   12.7822 H   0  0  0  0  0  0  0  0  0  0  0  0
  3  2  1  0
  4  2  1  0
  5  3  2  0
  6  2  1  0
  7  3  1  0
  8  6  2  0
  9  7  2  0
  8  9  1  0
 11 10  1  0
 12 10  1  0
 13 11  2  0
 14 10  1  0
 15 11  1  0
 16 14  2  0
 17 16  1  0
 15 17  2  0
  6 18  1  0
  7 19  1  0
  8 20  1  0
  9 21  1  0
 14 22  1  0
 15 23  1  0
 16 24  1  0
 17 25  1  0
M  CHG  3   1   2   4  -1  12  -1
M  END
> <Uni-Dock RESULT> 
ENERGY=   -4.941  LOWER_BOUND=    3.611  UPPER_BOUND=    4.863
INTER + INTRA:          -4.941
INTER:                  -4.941
INTRA:                   0.000
UNBOUND:                 0.000

$$$$

     RDKit          3D

 25 24  0  0  0  0  0  0  0  0999 V2000
   44.0918    4.3175   11.1810 Zn  0  0  0  0  0 15  0  0  0  0  0  0
   44.3556    5.5935   11.0349 N   0  0  0  0  0  0  0  0  0  0  0  0
   44.8732    4.7114   10.0735 C   0  0  0  0  0  0  0  0  0  0  0  0
   44.5863    6.9584   10.9567 O   0  0  0  0  0  0  0  0  0  0  0  0
   45.8168    5.0897    8.7165 S   0  0  0  0  0  0  0  0  0  0  0  0
   43.5951    5.2269   12.1161 C   0  0  0  0  0  0  0  0  0  0  0  0
   44.5068    3.2700   10.3423 C   0  0  0  0  0  0  0  0  0  0  0  0
   43.2892    3.9401   12.3241 C   0  0  0  0  0  0  0  0  0  0  0  0
   43.7619    2.9347   11.4062 C   0  0  0  0  0  0  0  0  0  0  0  0
   44.8470    4.6039   10.1482 N   0  0  0  0  0  0  0  0  0  0  0  0
   44.3914    3.2818   10.2699 C   0  0  0  0  0  0  0  0  0  0  0  0
   45.6501    4.9930    9.0870 O   0  0  0  0  0  0  0  0  0  0  0  0
   44.6976    1.9769    9.2316 S   0  0  0  0  0  0  0  0  0  0  0  0
   44.5650    5.6212   11.0242 C   0  0  0  0  0  0  0  0  0  0  0  0
   43.5318    3.0680   11.4945 C   0  0  0  0  0  0  0  0  0  0  0  0
   43.7995    5.3964   12.0995 C   0  0  0  0  0  0  0  0  0  0  0  0
   43.2691    4.0776   12.3374 C   0  0  0  0  0  0  0  0  0  0  0  0
   43.2593    6.0146   12.7828 H   0  0  0  0  0  0  0  0  0  0  0  0
   44.8673    2.5244    9.6466 H   0  0  0  0  0  0  0  0  0  0  0  0
   42.6900    3.6437   13.1745 H   0  0  0  0  0  0  0  0  0  0  0  0
   43.4997    1.9021   11.5984 H   0  0  0  0  0  0  0  0  0  0  0  0
   44.9839    6.5988   10.8086 H   0  0  0  0  0  0  0  0  0  0  0  0
   43.1394    2.0741   11.6625 H   0  0  0  0  0  0  0  0  0  0  0  0
   43.5729    6.1937   12.7946 H   0  0  0  0  0  0  0  0  0  0  0  0
   42.6533    3.9241   13.2145 H   0  0  0  0  0  0  0  0  0  0  0  0
  3  2  1  0
  4  2  1  0
  5  3  2  0
  6  2  1  0
  7  3  1  0
  8  6  2  0
  9  7  2  0
  8  9  1  0
 11 10  1  0
 12 10  1  0
 13 11  2  0
 14 10  1  0
 15 11  1  0
 16 14  2  0
 17 16  1  0
 15 17  2  0
  6 18  1  0
  7 19  1  0
  8 20  1  0
  9 21  1  0
 14 22  1  0
 15 23  1  0
 16 24  1  0
 17 25  1  0
M  CHG  3   1   2   4  -1  12  -1
M  END
> <Uni-Dock RESULT> 
ENERGY=   -4.788  LOWER_BOUND=    4.006  UPPER_BOUND=    5.561
INTER + INTRA:          -4.788
INTER:                  -4.788
INTRA:                   0.000
UNBOUND:                 0.000

$$$$

     RDKit          3D

 25 24  0  0  0  0  0  0  0  0999 V2000
   44.1468    5.2931   12.1365 Zn  0  0  0  0  0 15  0  0  0  0  0  0
   43.9949    4.0333   12.4668 N   0  0  0  0  0  0  0  0  0  0  0  0
   45.1912    4.6621   12.8462 C   0  0  0  0  0  0  0  0  0  0  0  0
   43.7521    2.7036   12.7755 O   0  0  0  0  0  0  0  0  0  0  0  0
   46.4953    3.9894   13.6956 S   0  0  0  0  0  0  0  0  0  0  0  0
   42.9711    4.6320   11.7775 C   0  0  0  0  0  0  0  0  0  0  0  0
   45.2561    6.1088   12.4138 C   0  0  0  0  0  0  0  0  0  0  0  0
   43.0621    5.9162   11.4097 C   0  0  0  0  0  0  0  0  0  0  0  0
   44.2428    6.6735   11.7403 C   0  0  0  0  0  0  0  0  0  0  0  0
   45.1694    4.7669   12.7663 N   0  0  0  0  0  0  0  0  0  0  0  0
   45.1971    6.1502   12.5299 C   0  0  0  0  0  0  0  0  0  0  0  0
   46.2091    4.1288   13.4253 O   0  0  0  0  0  0  0  0  0  0  0  0
   46.4086    7.2547   12.9625 S   0  0  0  0  0  0  0  0  0  0  0  0
   44.1570    3.9207   12.3908 C   0  0  0  0  0  0  0  0  0  0  0  0
   43.9703    6.6451   11.7990 C   0  0  0  0  0  0  0  0  0  0  0  0
   43.0839    4.3934   11.7444 C   0  0  0  0  0  0  0  0  0  0  0  0
   42.9925    5.7994   11.4416 C   0  0  0  0  0  0  0  0  0  0  0  0
   42.0999    4.0268   11.5484 H   0  0  0  0  0  0  0  0  0  0  0  0
   46.1473    6.6669   12.6675 H   0  0  0  0  0  0  0  0  0  0  0  0
   42.2588    6.3949   10.8659 H   0  0  0  0  0  0  0  0  0  0  0  0
   44.2898    7.7098   11.4307 H   0  0  0  0  0  0  0  0  0  0  0  0
   44.2649    2.8694   12.6378 H   0  0  0  0  0  0  0  0  0  0  0  0
   43.9130    7.7022   11.5773 H   0  0  0  0  0  0  0  0  0  0  0  0
   42.2818    3.7321   11.4452 H   0  0  0  0  0  0  0  0  0  0  0  0
   42.1139    6.1543   10.9180 H   0  0  0  0  0  0  0  0  0  0  0  0
  3  2  1  0
  4  2  1  0
  5  3  2  0
  6  2  1  0
  7  3  1  0
  8  6  2  0
  9  7  2  0
  8  9  1  0
 11 10  1  0
 12 10  1  0
 13 11  2  0
 14 10  1  0
 15 11  1  0
 16 14  2  0
 17 16  1  0
 15 17  2  0
  6 18  1  0
  7 19  1  0
  8 20  1  0
  9 21  1  0
 14 22  1  0
 15 23  1  0
 16 24  1  0
 17 25  1  0
M  CHG  3   1   2   4  -1  12  -1
M  END
> <Uni-Dock RESULT> 
ENERGY=   -4.693  LOWER_BOUND=    5.882  UPPER_BOUND=    6.165
INTER + INTRA:          -4.693
INTER:                  -4.693
INTRA:                   0.000
UNBOUND:                 0.000

$$$$
