
     RDKit          3D

 25 24  0  0  0  0  0  0  0  0999 V2000
   45.7978    2.7798    8.1280 Zn  0  0  0  0  0 15  0  0  0  0  0  0
   46.0375    1.4910    8.0989 N   0  0  0  0  0  0  0  0  0  0  0  0
   46.7763    2.3063    7.2274 C   0  0  0  0  0  0  0  0  0  0  0  0
   46.2273    0.1179    8.1336 O   0  0  0  0  0  0  0  0  0  0  0  0
   47.9657    1.8309    6.1166 S   0  0  0  0  0  0  0  0  0  0  0  0
   45.0838    1.9351    8.9794 C   0  0  0  0  0  0  0  0  0  0  0  0
   46.4173    3.7695    7.3473 C   0  0  0  0  0  0  0  0  0  0  0  0
   44.7906    3.2391    9.0594 C   0  0  0  0  0  0  0  0  0  0  0  0
   45.4813    4.1812    8.2154 C   0  0  0  0  0  0  0  0  0  0  0  0
   46.4385    1.6782    7.8192 N   0  0  0  0  0  0  0  0  0  0  0  0
   46.8336    2.8595    7.1723 C   0  0  0  0  0  0  0  0  0  0  0  0
   47.0621    0.4689    7.5523 O   0  0  0  0  0  0  0  0  0  0  0  0
   48.0597    3.0521    6.0171 S   0  0  0  0  0  0  0  0  0  0  0  0
   45.4347    1.5839    8.7495 C   0  0  0  0  0  0  0  0  0  0  0  0
   46.0281    4.0629    7.6052 C   0  0  0  0  0  0  0  0  0  0  0  0
   44.7409    2.6709    9.1099 C   0  0  0  0  0  0  0  0  0  0  0  0
   45.0510    3.9472    8.5166 C   0  0  0  0  0  0  0  0  0  0  0  0
   44.5874    1.1933    9.5967 H   0  0  0  0  0  0  0  0  0  0  0  0
   46.9424    4.4670    6.7087 H   0  0  0  0  0  0  0  0  0  0  0  0
   44.0399    3.5965    9.7514 H   0  0  0  0  0  0  0  0  0  0  0  0
   45.2244    5.2293    8.3009 H   0  0  0  0  0  0  0  0  0  0  0  0
   45.2331    0.6048    9.1718 H   0  0  0  0  0  0  0  0  0  0  0  0
   46.2700    5.0153    7.1530 H   0  0  0  0  0  0  0  0  0  0  0  0
   43.9480    2.6041    9.8428 H   0  0  0  0  0  0  0  0  0  0  0  0
   44.4742    4.8093    8.8263 H   0  0  0  0  0  0  0  0  0  0  0  0
  3  2  1  0
  4  2  1  0
  5  3  2  0
  6  2  1  0
  7  3  1  0
  8  6  2  0
  9  7  2  0
  8  9  1  0
 11 10  1  0
 12 10  1  0
 13 11  2  0
 14 10  1  0
 15 11  1  0
 16 14  2  0
 17 16  1  0
 15 17  2  0
  6 18  1  0
  7 19  1  0
  8 20  1  0
  9 21  1  0
 14 22  1  0
 15 23  1  0
 16 24  1  0
 17 25  1  0
M  CHG  3   1   2   4  -1  12  -1
M  END
> <Uni-Dock RESULT> 
ENERGY=   -7.829  LOWER_BOUND=    0.000  UPPER_BOUND=    0.000
INTER + INTRA:          -7.829
INTER:                  -7.829
INTRA:                   0.000
UNBOUND:                 0.000

$$$$

     RDKit          3D

 25 24  0  0  0  0  0  0  0  0999 V2000
   46.7034    2.2450    7.4458 Zn  0  0  0  0  0 15  0  0  0  0  0  0
   46.5868    3.5492    7.3763 N   0  0  0  0  0  0  0  0  0  0  0  0
   45.7392    2.8703    8.2656 C   0  0  0  0  0  0  0  0  0  0  0  0
   46.5305    4.9279    7.2400 O   0  0  0  0  0  0  0  0  0  0  0  0
   44.5571    3.5321    9.2850 S   0  0  0  0  0  0  0  0  0  0  0  0
   47.5283    2.9568    6.5733 C   0  0  0  0  0  0  0  0  0  0  0  0
   45.9615    1.3754    8.2619 C   0  0  0  0  0  0  0  0  0  0  0  0
   47.6986    1.6289    6.5955 C   0  0  0  0  0  0  0  0  0  0  0  0
   46.8879    0.8177    7.4683 C   0  0  0  0  0  0  0  0  0  0  0  0
   46.3040    3.4416    7.8036 N   0  0  0  0  0  0  0  0  0  0  0  0
   45.7157    2.3431    8.4495 C   0  0  0  0  0  0  0  0  0  0  0  0
   45.9405    4.7415    8.1204 O   0  0  0  0  0  0  0  0  0  0  0  0
   44.5287    2.3622    9.6601 S   0  0  0  0  0  0  0  0  0  0  0  0
   47.2643    3.3634    6.8270 C   0  0  0  0  0  0  0  0  0  0  0  0
   46.2513    1.0179    7.9582 C   0  0  0  0  0  0  0  0  0  0  0  0
   47.7163    2.1722    6.4153 C   0  0  0  0  0  0  0  0  0  0  0  0
   47.1904    0.9654    7.0020 C   0  0  0  0  0  0  0  0  0  0  0  0
   48.1176    3.6033    5.9311 H   0  0  0  0  0  0  0  0  0  0  0  0
   45.3471    0.7771    8.9211 H   0  0  0  0  0  0  0  0  0  0  0  0
   48.4390    1.1549    5.9653 H   0  0  0  0  0  0  0  0  0  0  0  0
   47.0468   -0.2531    7.4660 H   0  0  0  0  0  0  0  0  0  0  0  0
   47.6334    4.2954    6.4113 H   0  0  0  0  0  0  0  0  0  0  0  0
   45.8491    0.1192    8.4060 H   0  0  0  0  0  0  0  0  0  0  0  0
   48.4732    2.1028    5.6457 H   0  0  0  0  0  0  0  0  0  0  0  0
   47.5737    0.0160    6.6504 H   0  0  0  0  0  0  0  0  0  0  0  0
  3  2  1  0
  4  2  1  0
  5  3  2  0
  6  2  1  0
  7  3  1  0
  8  6  2  0
  9  7  2  0
  8  9  1  0
 11 10  1  0
 12 10  1  0
 13 11  2  0
 14 10  1  0
 15 11  1  0
 16 14  2  0
 17 16  1  0
 15 17  2  0
  6 18  1  0
  7 19  1  0
  8 20  1  0
  9 21  1  0
 14 22  1  0
 15 23  1  0
 16 24  1  0
 17 25  1  0
M  CHG  3   1   2   4  -1  12  -1
M  END
> <Uni-Dock RESULT> 
ENERGY=   -7.665  LOWER_BOUND=    2.553  UPPER_BOUND=    3.534
INTER + INTRA:          -7.665
INTER:                  -7.665
INTRA:                   0.000
UNBOUND:                 0.000

$$$$

     RDKit          3D

 25 24  0  0  0  0  0  0  0  0999 V2000
   45.4662    3.0837    8.5773 Zn  0  0  0  0  0 15  0  0  0  0  0  0
   46.2822    3.7819    7.8251 N   0  0  0  0  0  0  0  0  0  0  0  0
   46.4241    2.3855    7.8106 C   0  0  0  0  0  0  0  0  0  0  0  0
   47.1031    4.5961    7.0598 O   0  0  0  0  0  0  0  0  0  0  0  0
   47.5387    1.4629    6.9269 S   0  0  0  0  0  0  0  0  0  0  0  0
   45.3573    4.4751    8.5640 C   0  0  0  0  0  0  0  0  0  0  0  0
   45.4334    1.6860    8.7125 C   0  0  0  0  0  0  0  0  0  0  0  0
   44.4942    3.8229    9.3530 C   0  0  0  0  0  0  0  0  0  0  0  0
   44.5376    2.3843    9.4260 C   0  0  0  0  0  0  0  0  0  0  0  0
   46.3674    3.2963    7.6489 N   0  0  0  0  0  0  0  0  0  0  0  0
   46.1200    1.9648    8.0176 C   0  0  0  0  0  0  0  0  0  0  0  0
   47.3037    3.6110    6.6760 O   0  0  0  0  0  0  0  0  0  0  0  0
   46.8513    0.5632    7.4047 S   0  0  0  0  0  0  0  0  0  0  0  0
   45.7412    4.3940    8.1827 C   0  0  0  0  0  0  0  0  0  0  0  0
   45.0652    1.8402    9.0929 C   0  0  0  0  0  0  0  0  0  0  0  0
   44.8110    4.2470    9.1345 C   0  0  0  0  0  0  0  0  0  0  0  0
   44.4660    2.9275    9.6005 C   0  0  0  0  0  0  0  0  0  0  0  0
   45.3581    5.5571    8.4803 H   0  0  0  0  0  0  0  0  0  0  0  0
   45.4757    0.6061    8.7590 H   0  0  0  0  0  0  0  0  0  0  0  0
   43.7621    4.3628    9.9383 H   0  0  0  0  0  0  0  0  0  0  0  0
   43.8282    1.8828   10.0719 H   0  0  0  0  0  0  0  0  0  0  0  0
   46.0300    5.3692    7.8042 H   0  0  0  0  0  0  0  0  0  0  0  0
   44.8148    0.8449    9.4346 H   0  0  0  0  0  0  0  0  0  0  0  0
   44.3131    5.1079    9.5600 H   0  0  0  0  0  0  0  0  0  0  0  0
   43.7107    2.8379   10.3707 H   0  0  0  0  0  0  0  0  0  0  0  0
  3  2  1  0
  4  2  1  0
  5  3  2  0
  6  2  1  0
  7  3  1  0
  8  6  2  0
  9  7  2  0
  8  9  1  0
 11 10  1  0
 12 10  1  0
 13 11  2  0
 14 10  1  0
 15 11  1  0
 16 14  2  0
 17 16  1  0
 15 17  2  0
  6 18  1  0
  7 19  1  0
  8 20  1  0
  9 21  1  0
 14 22  1  0
 15 23  1  0
 16 24  1  0
 17 25  1  0
M  CHG  3   1   2   4  -1  12  -1
M  END
> <Uni-Dock RESULT> 
ENERGY=   -6.846  LOWER_BOUND=    1.620  UPPER_BOUND=    2.371
INTER + INTRA:          -6.846
INTER:                  -6.846
INTRA:                   0.000
UNBOUND:                 0.000

$$$$

     RDKit          3D

 25 24  0  0  0  0  0  0  0  0999 V2000
   44.6131    3.5474    9.5653 Zn  0  0  0  0  0 15  0  0  0  0  0  0
   44.0133    2.7407   10.4071 N   0  0  0  0  0  0  0  0  0  0  0  0
   43.9390    4.1182   10.6664 C   0  0  0  0  0  0  0  0  0  0  0  0
   43.4077    1.8173   11.2455 O   0  0  0  0  0  0  0  0  0  0  0  0
   43.1566    4.8925   11.9560 S   0  0  0  0  0  0  0  0  0  0  0  0
   44.6639    2.1705    9.3424 C   0  0  0  0  0  0  0  0  0  0  0  0
   44.6643    4.9494    9.6334 C   0  0  0  0  0  0  0  0  0  0  0  0
   45.2967    2.9375    8.4456 C   0  0  0  0  0  0  0  0  0  0  0  0
   45.2939    4.3703    8.6003 C   0  0  0  0  0  0  0  0  0  0  0  0
   43.8227    3.2057   10.5540 N   0  0  0  0  0  0  0  0  0  0  0  0
   44.0809    4.5737   10.3753 C   0  0  0  0  0  0  0  0  0  0  0  0
   42.9984    2.7566   11.5745 O   0  0  0  0  0  0  0  0  0  0  0  0
   43.4902    5.8717   11.2924 S   0  0  0  0  0  0  0  0  0  0  0  0
   44.3316    2.1967    9.7762 C   0  0  0  0  0  0  0  0  0  0  0  0
   45.0019    4.8493    9.2091 C   0  0  0  0  0  0  0  0  0  0  0  0
   45.1452    2.4769    8.7504 C   0  0  0  0  0  0  0  0  0  0  0  0
   45.4878    3.8468    8.4621 C   0  0  0  0  0  0  0  0  0  0  0  0
   44.6420    1.0884    9.2627 H   0  0  0  0  0  0  0  0  0  0  0  0
   44.6552    6.0236    9.7601 H   0  0  0  0  0  0  0  0  0  0  0  0
   45.8117    2.4949    7.6036 H   0  0  0  0  0  0  0  0  0  0  0  0
   45.8133    4.9661    7.8606 H   0  0  0  0  0  0  0  0  0  0  0  0
   44.0491    1.1794   10.0270 H   0  0  0  0  0  0  0  0  0  0  0  0
   45.2519    5.8812    9.0026 H   0  0  0  0  0  0  0  0  0  0  0  0
   45.5504    1.6866    8.1328 H   0  0  0  0  0  0  0  0  0  0  0  0
   46.1476    4.0447    7.6270 H   0  0  0  0  0  0  0  0  0  0  0  0
  3  2  1  0
  4  2  1  0
  5  3  2  0
  6  2  1  0
  7  3  1  0
  8  6  2  0
  9  7  2  0
  8  9  1  0
 11 10  1  0
 12 10  1  0
 13 11  2  0
 14 10  1  0
 15 11  1  0
 16 14  2  0
 17 16  1  0
 15 17  2  0
  6 18  1  0
  7 19  1  0
  8 20  1  0
  9 21  1  0
 14 22  1  0
 15 23  1  0
 16 24  1  0
 17 25  1  0
M  CHG  3   1   2   4  -1  12  -1
M  END
> <Uni-Dock RESULT> 
ENERGY=   -6.613  LOWER_BOUND=    3.535  UPPER_BOUND=    4.028
INTER + INTRA:          -6.613
INTER:                  -6.613
INTRA:                   0.000
UNBOUND:                 0.000

$$$$

     RDKit          3D

 25 24  0  0  0  0  0  0  0  0999 V2000
   44.6029    3.5429    9.5695 Zn  0  0  0  0  0 15  0  0  0  0  0  0
   44.0034    2.7402   10.4154 N   0  0  0  0  0  0  0  0  0  0  0  0
   43.9283    4.1190   10.6676 C   0  0  0  0  0  0  0  0  0  0  0  0
   43.3982    1.8209   11.2586 O   0  0  0  0  0  0  0  0  0  0  0  0
   43.1454    4.8996   11.9530 S   0  0  0  0  0  0  0  0  0  0  0  0
   44.6545    2.1649    9.3537 C   0  0  0  0  0  0  0  0  0  0  0  0
   44.6533    4.9453    9.6304 C   0  0  0  0  0  0  0  0  0  0  0  0
   45.2869    2.9275    8.4531 C   0  0  0  0  0  0  0  0  0  0  0  0
   45.2833    4.3612    8.6003 C   0  0  0  0  0  0  0  0  0  0  0  0
   43.8125    3.2059   10.5599 N   0  0  0  0  0  0  0  0  0  0  0  0
   44.0700    4.5731   10.3741 C   0  0  0  0  0  0  0  0  0  0  0  0
   42.9883    2.7617   11.5826 O   0  0  0  0  0  0  0  0  0  0  0  0
   43.4784    5.8755   11.2844 S   0  0  0  0  0  0  0  0  0  0  0  0
   44.3221    2.1932    9.7874 C   0  0  0  0  0  0  0  0  0  0  0  0
   44.9910    4.8431    9.2066 C   0  0  0  0  0  0  0  0  0  0  0  0
   45.1356    2.4685    8.7602 C   0  0  0  0  0  0  0  0  0  0  0  0
   45.4775    3.8371    8.4649 C   0  0  0  0  0  0  0  0  0  0  0  0
   44.6331    1.0824    9.2797 H   0  0  0  0  0  0  0  0  0  0  0  0
   44.6436    6.0201    9.7515 H   0  0  0  0  0  0  0  0  0  0  0  0
   45.8023    2.4809    7.6134 H   0  0  0  0  0  0  0  0  0  0  0  0
   45.8025    4.9534    7.8576 H   0  0  0  0  0  0  0  0  0  0  0  0
   44.0401    1.1770   10.0434 H   0  0  0  0  0  0  0  0  0  0  0  0
   45.2404    5.8741    8.9948 H   0  0  0  0  0  0  0  0  0  0  0  0
   45.5413    1.6752    8.1468 H   0  0  0  0  0  0  0  0  0  0  0  0
   46.1373    4.0310    7.6288 H   0  0  0  0  0  0  0  0  0  0  0  0
  3  2  1  0
  4  2  1  0
  5  3  2  0
  6  2  1  0
  7  3  1  0
  8  6  2  0
  9  7  2  0
  8  9  1  0
 11 10  1  0
 12 10  1  0
 13 11  2  0
 14 10  1  0
 15 11  1  0
 16 14  2  0
 17 16  1  0
 15 17  2  0
  6 18  1  0
  7 19  1  0
  8 20  1  0
  9 21  1  0
 14 22  1  0
 15 23  1  0
 16 24  1  0
 17 25  1  0
M  CHG  3   1   2   4  -1  12  -1
M  END
> <Uni-Dock RESULT> 
ENERGY=   -6.610  LOWER_BOUND=    3.540  UPPER_BOUND=    4.034
INTER + INTRA:          -6.610
INTER:                  -6.610
INTRA:                   0.000
UNBOUND:                 0.000

$$$$

     RDKit          3D

 25 24  0  0  0  0  0  0  0  0999 V2000
   45.1027    3.5772    9.1618 Zn  0  0  0  0  0 15  0  0  0  0  0  0
   45.0347    4.7958    9.6411 N   0  0  0  0  0  0  0  0  0  0  0  0
   44.3880    3.7798   10.3622 C   0  0  0  0  0  0  0  0  0  0  0  0
   45.0131    6.1120   10.0763 O   0  0  0  0  0  0  0  0  0  0  0  0
   43.5103    3.9265   11.8054 S   0  0  0  0  0  0  0  0  0  0  0  0
   45.7327    4.6155    8.4739 C   0  0  0  0  0  0  0  0  0  0  0  0
   44.5325    2.4203    9.7180 C   0  0  0  0  0  0  0  0  0  0  0  0
   45.8407    3.3965    7.9307 C   0  0  0  0  0  0  0  0  0  0  0  0
   45.2198    2.2675    8.5763 C   0  0  0  0  0  0  0  0  0  0  0  0
   44.8551    4.5145   10.0446 N   0  0  0  0  0  0  0  0  0  0  0  0
   44.3835    3.2223   10.3235 C   0  0  0  0  0  0  0  0  0  0  0  0
   44.6376    5.5647   10.9233 O   0  0  0  0  0  0  0  0  0  0  0  0
   43.5155    2.7035   11.6845 S   0  0  0  0  0  0  0  0  0  0  0  0
   45.5550    4.8756    8.9213 C   0  0  0  0  0  0  0  0  0  0  0  0
   44.7260    2.2263    9.2395 C   0  0  0  0  0  0  0  0  0  0  0  0
   45.8412    3.9670    7.9804 C   0  0  0  0  0  0  0  0  0  0  0  0
   45.4113    2.6018    8.1494 C   0  0  0  0  0  0  0  0  0  0  0  0
   46.1850    5.4914    8.0201 H   0  0  0  0  0  0  0  0  0  0  0  0
   44.0622    1.5806   10.2118 H   0  0  0  0  0  0  0  0  0  0  0  0
   46.3896    3.2468    7.0107 H   0  0  0  0  0  0  0  0  0  0  0  0
   45.3231    1.2935    8.1153 H   0  0  0  0  0  0  0  0  0  0  0  0
   45.8600    5.9132    8.8327 H   0  0  0  0  0  0  0  0  0  0  0  0
   44.3980    1.2048    9.3774 H   0  0  0  0  0  0  0  0  0  0  0  0
   46.3926    4.2443    7.0920 H   0  0  0  0  0  0  0  0  0  0  0  0
   45.6563    1.8881    7.3731 H   0  0  0  0  0  0  0  0  0  0  0  0
  3  2  1  0
  4  2  1  0
  5  3  2  0
  6  2  1  0
  7  3  1  0
  8  6  2  0
  9  7  2  0
  8  9  1  0
 11 10  1  0
 12 10  1  0
 13 11  2  0
 14 10  1  0
 15 11  1  0
 16 14  2  0
 17 16  1  0
 15 17  2  0
  6 18  1  0
  7 19  1  0
  8 20  1  0
  9 21  1  0
 14 22  1  0
 15 23  1  0
 16 24  1  0
 17 25  1  0
M  CHG  3   1   2   4  -1  12  -1
M  END
> <Uni-Dock RESULT> 
ENERGY=   -6.386  LOWER_BOUND=    3.654  UPPER_BOUND=    4.268
INTER + INTRA:          -6.386
INTER:                  -6.386
INTRA:                   0.000
UNBOUND:                 0.000

$$$$

     RDKit          3D

 25 24  0  0  0  0  0  0  0  0999 V2000
   44.2201    4.6014   12.3105 Zn  0  0  0  0  0 15  0  0  0  0  0  0
   44.5058    5.8337   12.6557 N   0  0  0  0  0  0  0  0  0  0  0  0
   45.3904    4.8247   13.0676 C   0  0  0  0  0  0  0  0  0  0  0  0
   44.7318    7.1634   12.9770 O   0  0  0  0  0  0  0  0  0  0  0  0
   46.8129    4.9957   13.9742 S   0  0  0  0  0  0  0  0  0  0  0  0
   43.3652    5.6334   11.9201 C   0  0  0  0  0  0  0  0  0  0  0  0
   44.9620    3.4481   12.6142 C   0  0  0  0  0  0  0  0  0  0  0  0
   43.0155    4.3997   11.5350 C   0  0  0  0  0  0  0  0  0  0  0  0
   43.8426    3.2759   11.8956 C   0  0  0  0  0  0  0  0  0  0  0  0
   44.9521    5.5861   12.7729 N   0  0  0  0  0  0  0  0  0  0  0  0
   45.4388    4.2812   12.9467 C   0  0  0  0  0  0  0  0  0  0  0  0
   45.6618    6.6855   13.2312 O   0  0  0  0  0  0  0  0  0  0  0  0
   46.8832    3.8012   13.6938 S   0  0  0  0  0  0  0  0  0  0  0  0
   43.7707    5.9140   12.1573 C   0  0  0  0  0  0  0  0  0  0  0  0
   44.5151    3.2297   12.3761 C   0  0  0  0  0  0  0  0  0  0  0  0
   42.9760    4.9565   11.6629 C   0  0  0  0  0  0  0  0  0  0  0  0
   43.3647    3.5734   11.7784 C   0  0  0  0  0  0  0  0  0  0  0  0
   42.7708    6.5061   11.6697 H   0  0  0  0  0  0  0  0  0  0  0  0
   45.5907    2.6125   12.8908 H   0  0  0  0  0  0  0  0  0  0  0  0
   42.1177    4.2342   10.9549 H   0  0  0  0  0  0  0  0  0  0  0  0
   43.5361    2.2897   11.5710 H   0  0  0  0  0  0  0  0  0  0  0  0
   43.5152    6.9666   12.0913 H   0  0  0  0  0  0  0  0  0  0  0  0
   44.8174    2.1953   12.4688 H   0  0  0  0  0  0  0  0  0  0  0  0
   42.0431    5.2074   11.1763 H   0  0  0  0  0  0  0  0  0  0  0  0
   42.7033    2.8200   11.3699 H   0  0  0  0  0  0  0  0  0  0  0  0
  3  2  1  0
  4  2  1  0
  5  3  2  0
  6  2  1  0
  7  3  1  0
  8  6  2  0
  9  7  2  0
  8  9  1  0
 11 10  1  0
 12 10  1  0
 13 11  2  0
 14 10  1  0
 15 11  1  0
 16 14  2  0
 17 16  1  0
 15 17  2  0
  6 18  1  0
  7 19  1  0
  8 20  1  0
  9 21  1  0
 14 22  1  0
 15 23  1  0
 16 24  1  0
 17 25  1  0
M  CHG  3   1   2   4  -1  12  -1
M  END
> <Uni-Dock RESULT> 
ENERGY=   -5.146  LOWER_BOUND=    5.741  UPPER_BOUND=    6.133
INTER + INTRA:          -5.146
INTER:                  -5.146
INTRA:                   0.000
UNBOUND:                 0.000

$$$$

     RDKit          3D

 25 24  0  0  0  0  0  0  0  0999 V2000
   44.4860    3.8166   10.5469 Zn  0  0  0  0  0 15  0  0  0  0  0  0
   45.1226    4.5629    9.6769 N   0  0  0  0  0  0  0  0  0  0  0  0
   44.7457    5.1611   10.8894 C   0  0  0  0  0  0  0  0  0  0  0  0
   45.7990    5.2792    8.7012 O   0  0  0  0  0  0  0  0  0  0  0  0
   45.0126    6.7598   11.3871 S   0  0  0  0  0  0  0  0  0  0  0  0
   44.8779    3.2587    9.3289 C   0  0  0  0  0  0  0  0  0  0  0  0
   44.0205    4.2092   11.8125 C   0  0  0  0  0  0  0  0  0  0  0  0
   44.2323    2.4426   10.1715 C   0  0  0  0  0  0  0  0  0  0  0  0
   43.7922    2.9378   11.4514 C   0  0  0  0  0  0  0  0  0  0  0  0
   45.1396    4.8639   10.1050 N   0  0  0  0  0  0  0  0  0  0  0  0
   44.5362    4.9634   11.3683 C   0  0  0  0  0  0  0  0  0  0  0  0
   45.8498    5.9235    9.5616 O   0  0  0  0  0  0  0  0  0  0  0  0
   44.5425    6.2920   12.4217 S   0  0  0  0  0  0  0  0  0  0  0  0
   45.1002    3.7574    9.2949 C   0  0  0  0  0  0  0  0  0  0  0  0
   43.8128    3.6999   11.7741 C   0  0  0  0  0  0  0  0  0  0  0  0
   44.4498    2.6544    9.6860 C   0  0  0  0  0  0  0  0  0  0  0  0
   43.7874    2.6299   10.9657 C   0  0  0  0  0  0  0  0  0  0  0  0
   45.2260    2.9257    8.3564 H   0  0  0  0  0  0  0  0  0  0  0  0
   43.6950    4.5924   12.7703 H   0  0  0  0  0  0  0  0  0  0  0  0
   44.0360    1.4130    9.9040 H   0  0  0  0  0  0  0  0  0  0  0  0
   43.2727    2.2563   12.1129 H   0  0  0  0  0  0  0  0  0  0  0  0
   45.6116    3.8173    8.3396 H   0  0  0  0  0  0  0  0  0  0  0  0
   43.3194    3.6935   12.7366 H   0  0  0  0  0  0  0  0  0  0  0  0
   44.4145    1.7782    9.0525 H   0  0  0  0  0  0  0  0  0  0  0  0
   43.2691    1.7252   11.2566 H   0  0  0  0  0  0  0  0  0  0  0  0
  3  2  1  0
  4  2  1  0
  5  3  2  0
  6  2  1  0
  7  3  1  0
  8  6  2  0
  9  7  2  0
  8  9  1  0
 11 10  1  0
 12 10  1  0
 13 11  2  0
 14 10  1  0
 15 11  1  0
 16 14  2  0
 17 16  1  0
 15 17  2  0
  6 18  1  0
  7 19  1  0
  8 20  1  0
  9 21  1  0
 14 22  1  0
 15 23  1  0
 16 24  1  0
 17 25  1  0
M  CHG  3   1   2   4  -1  12  -1
M  END
> <Uni-Dock RESULT> 
ENERGY=   -4.945  LOWER_BOUND=    3.918  UPPER_BOUND=    4.606
INTER + INTRA:          -4.945
INTER:                  -4.945
INTRA:                   0.000
UNBOUND:                 0.000

$$$$

     RDKit          3D

 25 24  0  0  0  0  0  0  0  0999 V2000
   44.2581    4.6023   12.1882 Zn  0  0  0  0  0 15  0  0  0  0  0  0
   45.2869    3.9236   12.6356 N   0  0  0  0  0  0  0  0  0  0  0  0
   45.3880    5.3236   12.6307 C   0  0  0  0  0  0  0  0  0  0  0  0
   46.3276    3.1289   13.0919 O   0  0  0  0  0  0  0  0  0  0  0  0
   46.6972    6.2731   13.1396 S   0  0  0  0  0  0  0  0  0  0  0  0
   44.1968    3.2080   12.2094 C   0  0  0  0  0  0  0  0  0  0  0  0
   44.1466    5.9993   12.0955 C   0  0  0  0  0  0  0  0  0  0  0  0
   43.1131    3.8395   11.7408 C   0  0  0  0  0  0  0  0  0  0  0  0
   43.0923    5.2794   11.6842 C   0  0  0  0  0  0  0  0  0  0  0  0
   45.4095    4.4101   12.7853 N   0  0  0  0  0  0  0  0  0  0  0  0
   45.0232    5.7363   12.5366 C   0  0  0  0  0  0  0  0  0  0  0  0
   46.6110    4.1165   13.4119 O   0  0  0  0  0  0  0  0  0  0  0  0
   45.8708    7.1548   12.9164 S   0  0  0  0  0  0  0  0  0  0  0  0
   44.6782    3.2979   12.4534 C   0  0  0  0  0  0  0  0  0  0  0  0
   43.6825    5.8370   11.8461 C   0  0  0  0  0  0  0  0  0  0  0  0
   43.4937    3.4238   11.8419 C   0  0  0  0  0  0  0  0  0  0  0  0
   42.9847    4.7357   11.5309 C   0  0  0  0  0  0  0  0  0  0  0  0
   44.2532    2.1259   12.2688 H   0  0  0  0  0  0  0  0  0  0  0  0
   44.1428    7.0804   12.0579 H   0  0  0  0  0  0  0  0  0  0  0  0
   42.2499    3.2820   11.4031 H   0  0  0  0  0  0  0  0  0  0  0  0
   42.2033    5.7639   11.3010 H   0  0  0  0  0  0  0  0  0  0  0  0
   45.0972    2.3290   12.7051 H   0  0  0  0  0  0  0  0  0  0  0  0
   43.3109    6.8268   11.6178 H   0  0  0  0  0  0  0  0  0  0  0  0
   42.9115    2.5514   11.5771 H   0  0  0  0  0  0  0  0  0  0  0  0
   42.0245    4.8083   11.0362 H   0  0  0  0  0  0  0  0  0  0  0  0
  3  2  1  0
  4  2  1  0
  5  3  2  0
  6  2  1  0
  7  3  1  0
  8  6  2  0
  9  7  2  0
  8  9  1  0
 11 10  1  0
 12 10  1  0
 13 11  2  0
 14 10  1  0
 15 11  1  0
 16 14  2  0
 17 16  1  0
 15 17  2  0
  6 18  1  0
  7 19  1  0
  8 20  1  0
  9 21  1  0
 14 22  1  0
 15 23  1  0
 16 24  1  0
 17 25  1  0
M  CHG  3   1   2   4  -1  12  -1
M  END
> <Uni-Dock RESULT> 
ENERGY=   -4.903  LOWER_BOUND=    5.325  UPPER_BOUND=    5.566
INTER + INTRA:          -4.903
INTER:                  -4.903
INTRA:                   0.000
UNBOUND:                 0.000

$$$$
