
     RDKit          3D

 25 24  0  0  0  0  0  0  0  0999 V2000
   46.6793    2.4490    7.3568 Zn  0  0  0  0  0 15  0  0  0  0  0  0
   45.9254    1.9094    8.2839 N   0  0  0  0  0  0  0  0  0  0  0  0
   45.7924    3.2891    8.0640 C   0  0  0  0  0  0  0  0  0  0  0  0
   45.1670    1.2577    9.2446 O   0  0  0  0  0  0  0  0  0  0  0  0
   44.7600    4.3740    8.8593 S   0  0  0  0  0  0  0  0  0  0  0  0
   46.7818    1.0794    7.6058 C   0  0  0  0  0  0  0  0  0  0  0  0
   46.7079    3.8006    6.9757 C   0  0  0  0  0  0  0  0  0  0  0  0
   47.5794    1.5665    6.6470 C   0  0  0  0  0  0  0  0  0  0  0  0
   47.5374    2.9708    6.3258 C   0  0  0  0  0  0  0  0  0  0  0  0
   46.1149    3.5720    7.7306 N   0  0  0  0  0  0  0  0  0  0  0  0
   45.6743    2.3901    8.3463 C   0  0  0  0  0  0  0  0  0  0  0  0
   45.5724    4.8031    8.0660 O   0  0  0  0  0  0  0  0  0  0  0  0
   44.4799    2.2215    9.5378 S   0  0  0  0  0  0  0  0  0  0  0  0
   47.0897    3.6462    6.7681 C   0  0  0  0  0  0  0  0  0  0  0  0
   46.3930    1.1612    7.8388 C   0  0  0  0  0  0  0  0  0  0  0  0
   47.7061    2.5369    6.3414 C   0  0  0  0  0  0  0  0  0  0  0  0
   47.3430    1.2576    6.8969 C   0  0  0  0  0  0  0  0  0  0  0  0
   46.7825    0.0290    7.8782 H   0  0  0  0  0  0  0  0  0  0  0  0
   46.6674    4.8563    6.7435 H   0  0  0  0  0  0  0  0  0  0  0  0
   48.2573    0.9181    6.1081 H   0  0  0  0  0  0  0  0  0  0  0  0
   48.1930    3.3375    5.5462 H   0  0  0  0  0  0  0  0  0  0  0  0
   47.3331    4.6285    6.3761 H   0  0  0  0  0  0  0  0  0  0  0  0
   46.1119    0.2067    8.2631 H   0  0  0  0  0  0  0  0  0  0  0  0
   48.4757    2.5877    5.5829 H   0  0  0  0  0  0  0  0  0  0  0  0
   47.8575    0.3771    6.5337 H   0  0  0  0  0  0  0  0  0  0  0  0
  3  2  1  0
  4  2  1  0
  5  3  2  0
  6  2  1  0
  7  3  1  0
  8  6  2  0
  9  7  2  0
  8  9  1  0
 11 10  1  0
 12 10  1  0
 13 11  2  0
 14 10  1  0
 15 11  1  0
 16 14  2  0
 17 16  1  0
 15 17  2  0
  6 18  1  0
  7 19  1  0
  8 20  1  0
  9 21  1  0
 14 22  1  0
 15 23  1  0
 16 24  1  0
 17 25  1  0
M  CHG  3   1   2   4  -1  12  -1
M  END
> <Uni-Dock RESULT> 
ENERGY=   -8.608  LOWER_BOUND=    0.000  UPPER_BOUND=    0.000
INTER + INTRA:          -8.608
INTER:                  -8.608
INTRA:                   0.000
UNBOUND:                 0.000

$$$$

     RDKit          3D

 25 24  0  0  0  0  0  0  0  0999 V2000
   46.6673    2.4464    7.3530 Zn  0  0  0  0  0 15  0  0  0  0  0  0
   46.0477    3.5522    7.6885 N   0  0  0  0  0  0  0  0  0  0  0  0
   45.6857    2.3770    8.3650 C   0  0  0  0  0  0  0  0  0  0  0  0
   45.4433    4.7655    7.9804 O   0  0  0  0  0  0  0  0  0  0  0  0
   44.5249    2.1968    9.5878 S   0  0  0  0  0  0  0  0  0  0  0  0
   46.9989    3.6366    6.7034 C   0  0  0  0  0  0  0  0  0  0  0  0
   46.4627    1.1679    7.8974 C   0  0  0  0  0  0  0  0  0  0  0  0
   47.6686    2.5447    6.3134 C   0  0  0  0  0  0  0  0  0  0  0  0
   47.3883    1.2738    6.9325 C   0  0  0  0  0  0  0  0  0  0  0  0
   45.8719    1.8845    8.2310 N   0  0  0  0  0  0  0  0  0  0  0  0
   45.7964    3.2788    8.0886 C   0  0  0  0  0  0  0  0  0  0  0  0
   45.0671    1.2093    9.1358 O   0  0  0  0  0  0  0  0  0  0  0  0
   44.7874    4.3559    8.9232 S   0  0  0  0  0  0  0  0  0  0  0  0
   46.7122    1.0619    7.5243 C   0  0  0  0  0  0  0  0  0  0  0  0
   46.7560    3.8154    7.0515 C   0  0  0  0  0  0  0  0  0  0  0  0
   47.5499    1.5713    6.6126 C   0  0  0  0  0  0  0  0  0  0  0  0
   47.5686    2.9922    6.3725 C   0  0  0  0  0  0  0  0  0  0  0  0
   47.1794    4.6119    6.2633 H   0  0  0  0  0  0  0  0  0  0  0  0
   46.2436    0.2197    8.3694 H   0  0  0  0  0  0  0  0  0  0  0  0
   48.4199    2.6036    5.5373 H   0  0  0  0  0  0  0  0  0  0  0  0
   47.9447    0.4075    6.5979 H   0  0  0  0  0  0  0  0  0  0  0  0
   46.6666   -0.0016    7.7353 H   0  0  0  0  0  0  0  0  0  0  0  0
   46.7609    4.8834    6.8802 H   0  0  0  0  0  0  0  0  0  0  0  0
   48.2153    0.9289    6.0516 H   0  0  0  0  0  0  0  0  0  0  0  0
   48.2557    3.3770    5.6298 H   0  0  0  0  0  0  0  0  0  0  0  0
  3  2  1  0
  4  2  1  0
  5  3  2  0
  6  2  1  0
  7  3  1  0
  8  6  2  0
  9  7  2  0
  8  9  1  0
 11 10  1  0
 12 10  1  0
 13 11  2  0
 14 10  1  0
 15 11  1  0
 16 14  2  0
 17 16  1  0
 15 17  2  0
  6 18  1  0
  7 19  1  0
  8 20  1  0
  9 21  1  0
 14 22  1  0
 15 23  1  0
 16 24  1  0
 17 25  1  0
M  CHG  3   1   2   4  -1  12  -1
M  END
> <Uni-Dock RESULT> 
ENERGY=   -8.586  LOWER_BOUND=    0.086  UPPER_BOUND=    2.247
INTER + INTRA:          -8.586
INTER:                  -8.586
INTRA:                   0.000
UNBOUND:                 0.000

$$$$

     RDKit          3D

 25 24  0  0  0  0  0  0  0  0999 V2000
   45.7100    2.9923    8.2736 Zn  0  0  0  0  0 15  0  0  0  0  0  0
   46.6903    3.0955    7.4091 N   0  0  0  0  0  0  0  0  0  0  0  0
   46.3301    1.8052    7.8277 C   0  0  0  0  0  0  0  0  0  0  0  0
   47.7157    3.2959    6.4974 O   0  0  0  0  0  0  0  0  0  0  0  0
   47.0131    0.3286    7.3500 S   0  0  0  0  0  0  0  0  0  0  0  0
   46.0982    4.2584    7.8325 C   0  0  0  0  0  0  0  0  0  0  0  0
   45.1916    1.8075    8.8217 C   0  0  0  0  0  0  0  0  0  0  0  0
   45.0915    4.2235    8.7146 C   0  0  0  0  0  0  0  0  0  0  0  0
   44.6276    2.9568    9.2218 C   0  0  0  0  0  0  0  0  0  0  0  0
   45.9682    1.7078    8.2210 N   0  0  0  0  0  0  0  0  0  0  0  0
   46.7038    2.5509    7.3736 C   0  0  0  0  0  0  0  0  0  0  0  0
   46.1770    0.3372    8.2299 O   0  0  0  0  0  0  0  0  0  0  0  0
   47.9106    2.1147    6.2654 S   0  0  0  0  0  0  0  0  0  0  0  0
   44.9997    2.1206    9.1007 C   0  0  0  0  0  0  0  0  0  0  0  0
   46.3229    4.0063    7.5193 C   0  0  0  0  0  0  0  0  0  0  0  0
   44.6873    3.4185    9.2040 C   0  0  0  0  0  0  0  0  0  0  0  0
   45.3728    4.3870    8.3860 C   0  0  0  0  0  0  0  0  0  0  0  0
   46.4773    5.1906    7.4264 H   0  0  0  0  0  0  0  0  0  0  0  0
   44.8522    0.8508    9.1953 H   0  0  0  0  0  0  0  0  0  0  0  0
   44.6198    5.1364    9.0530 H   0  0  0  0  0  0  0  0  0  0  0  0
   43.8122    2.9580    9.9338 H   0  0  0  0  0  0  0  0  0  0  0  0
   44.5078    1.3596    9.6979 H   0  0  0  0  0  0  0  0  0  0  0  0
   46.8442    4.7238    6.9001 H   0  0  0  0  0  0  0  0  0  0  0  0
   43.9248    3.7513    9.8954 H   0  0  0  0  0  0  0  0  0  0  0  0
   45.1003    5.4295    8.4900 H   0  0  0  0  0  0  0  0  0  0  0  0
  3  2  1  0
  4  2  1  0
  5  3  2  0
  6  2  1  0
  7  3  1  0
  8  6  2  0
  9  7  2  0
  8  9  1  0
 11 10  1  0
 12 10  1  0
 13 11  2  0
 14 10  1  0
 15 11  1  0
 16 14  2  0
 17 16  1  0
 15 17  2  0
  6 18  1  0
  7 19  1  0
  8 20  1  0
  9 21  1  0
 14 22  1  0
 15 23  1  0
 16 24  1  0
 17 25  1  0
M  CHG  3   1   2   4  -1  12  -1
M  END
> <Uni-Dock RESULT> 
ENERGY=   -7.595  LOWER_BOUND=    1.958  UPPER_BOUND=    3.489
INTER + INTRA:          -7.595
INTER:                  -7.595
INTRA:                   0.000
UNBOUND:                 0.000

$$$$

     RDKit          3D

 25 24  0  0  0  0  0  0  0  0999 V2000
   45.7060    3.0008    8.2808 Zn  0  0  0  0  0 15  0  0  0  0  0  0
   45.9186    1.7101    8.1927 N   0  0  0  0  0  0  0  0  0  0  0  0
   46.7000    2.5511    7.3853 C   0  0  0  0  0  0  0  0  0  0  0  0
   46.0777    0.3329    8.1625 O   0  0  0  0  0  0  0  0  0  0  0  0
   47.9111    2.1051    6.2855 S   0  0  0  0  0  0  0  0  0  0  0  0
   44.9493    2.1309    9.0675 C   0  0  0  0  0  0  0  0  0  0  0  0
   46.3692    4.0142    7.5696 C   0  0  0  0  0  0  0  0  0  0  0  0
   44.6820    3.4356    9.2057 C   0  0  0  0  0  0  0  0  0  0  0  0
   45.4173    4.4029    8.4308 C   0  0  0  0  0  0  0  0  0  0  0  0
   46.6188    3.0866    7.3435 N   0  0  0  0  0  0  0  0  0  0  0  0
   46.3386    1.8116    7.8590 C   0  0  0  0  0  0  0  0  0  0  0  0
   47.5694    3.2680    6.3506 O   0  0  0  0  0  0  0  0  0  0  0  0
   47.0429    0.3339    7.4173 S   0  0  0  0  0  0  0  0  0  0  0  0
   46.0134    4.2514    7.7423 C   0  0  0  0  0  0  0  0  0  0  0  0
   45.2731    1.8333    8.9308 C   0  0  0  0  0  0  0  0  0  0  0  0
   45.0729    4.2340    8.6951 C   0  0  0  0  0  0  0  0  0  0  0  0
   44.6948    2.9842    9.3050 C   0  0  0  0  0  0  0  0  0  0  0  0
   44.4191    1.3705    9.6318 H   0  0  0  0  0  0  0  0  0  0  0  0
   46.9277    4.7308    6.9825 H   0  0  0  0  0  0  0  0  0  0  0  0
   43.9190    3.7748    9.8936 H   0  0  0  0  0  0  0  0  0  0  0  0
   45.1806    5.4511    8.5625 H   0  0  0  0  0  0  0  0  0  0  0  0
   46.3270    5.1705    7.2580 H   0  0  0  0  0  0  0  0  0  0  0  0
   44.9978    0.8892    9.3811 H   0  0  0  0  0  0  0  0  0  0  0  0
   44.5913    5.1483    9.0147 H   0  0  0  0  0  0  0  0  0  0  0  0
   43.9317    2.9992   10.0727 H   0  0  0  0  0  0  0  0  0  0  0  0
  3  2  1  0
  4  2  1  0
  5  3  2  0
  6  2  1  0
  7  3  1  0
  8  6  2  0
  9  7  2  0
  8  9  1  0
 11 10  1  0
 12 10  1  0
 13 11  2  0
 14 10  1  0
 15 11  1  0
 16 14  2  0
 17 16  1  0
 15 17  2  0
  6 18  1  0
  7 19  1  0
  8 20  1  0
  9 21  1  0
 14 22  1  0
 15 23  1  0
 16 24  1  0
 17 25  1  0
M  CHG  3   1   2   4  -1  12  -1
M  END
> <Uni-Dock RESULT> 
ENERGY=   -7.539  LOWER_BOUND=    1.956  UPPER_BOUND=    2.735
INTER + INTRA:          -7.539
INTER:                  -7.539
INTRA:                   0.000
UNBOUND:                 0.000

$$$$

     RDKit          3D

 25 24  0  0  0  0  0  0  0  0999 V2000
   45.1487    3.4484    9.0248 Zn  0  0  0  0  0 15  0  0  0  0  0  0
   44.4769    2.8923   10.0039 N   0  0  0  0  0  0  0  0  0  0  0  0
   44.6014    4.2902   10.0169 C   0  0  0  0  0  0  0  0  0  0  0  0
   43.7832    2.2227   11.0004 O   0  0  0  0  0  0  0  0  0  0  0  0
   43.9820    5.3786   11.1600 S   0  0  0  0  0  0  0  0  0  0  0  0
   45.0023    2.0604    9.0479 C   0  0  0  0  0  0  0  0  0  0  0  0
   45.3935    4.8195    8.8436 C   0  0  0  0  0  0  0  0  0  0  0  0
   45.6993    2.5636    8.0213 C   0  0  0  0  0  0  0  0  0  0  0  0
   45.8982    3.9874    7.9205 C   0  0  0  0  0  0  0  0  0  0  0  0
   44.9111    4.5668    9.6666 N   0  0  0  0  0  0  0  0  0  0  0  0
   44.3486    3.3906   10.1863 C   0  0  0  0  0  0  0  0  0  0  0  0
   44.7106    5.7930   10.2820 O   0  0  0  0  0  0  0  0  0  0  0  0
   43.3796    3.2238   11.5676 S   0  0  0  0  0  0  0  0  0  0  0  0
   45.6904    4.6399    8.5398 C   0  0  0  0  0  0  0  0  0  0  0  0
   44.6880    2.1665    9.3673 C   0  0  0  0  0  0  0  0  0  0  0  0
   45.9713    3.5349    7.8378 C   0  0  0  0  0  0  0  0  0  0  0  0
   45.4518    2.2616    8.2689 C   0  0  0  0  0  0  0  0  0  0  0  0
   44.8298    0.9950    9.1609 H   0  0  0  0  0  0  0  0  0  0  0  0
   45.5362    5.8898    8.7787 H   0  0  0  0  0  0  0  0  0  0  0  0
   46.1166    1.9138    7.2637 H   0  0  0  0  0  0  0  0  0  0  0  0
   46.4654    4.3670    7.0802 H   0  0  0  0  0  0  0  0  0  0  0  0
   46.0615    5.6175    8.2497 H   0  0  0  0  0  0  0  0  0  0  0  0
   44.2923    1.2165    9.7007 H   0  0  0  0  0  0  0  0  0  0  0  0
   46.5850    3.5848    6.9484 H   0  0  0  0  0  0  0  0  0  0  0  0
   45.6946    1.3845    7.6827 H   0  0  0  0  0  0  0  0  0  0  0  0
  3  2  1  0
  4  2  1  0
  5  3  2  0
  6  2  1  0
  7  3  1  0
  8  6  2  0
  9  7  2  0
  8  9  1  0
 11 10  1  0
 12 10  1  0
 13 11  2  0
 14 10  1  0
 15 11  1  0
 16 14  2  0
 17 16  1  0
 15 17  2  0
  6 18  1  0
  7 19  1  0
  8 20  1  0
  9 21  1  0
 14 22  1  0
 15 23  1  0
 16 24  1  0
 17 25  1  0
M  CHG  3   1   2   4  -1  12  -1
M  END
> <Uni-Dock RESULT> 
ENERGY=   -6.497  LOWER_BOUND=    2.133  UPPER_BOUND=    2.505
INTER + INTRA:          -6.497
INTER:                  -6.497
INTRA:                   0.000
UNBOUND:                 0.000

$$$$
