
     RDKit          3D

 25 24  0  0  0  0  0  0  0  0999 V2000
   46.7432    2.4514    7.2478 Zn  0  0  0  0  0 15  0  0  0  0  0  0
   45.9520    1.9278    8.1529 N   0  0  0  0  0  0  0  0  0  0  0  0
   45.8744    3.3145    7.9499 C   0  0  0  0  0  0  0  0  0  0  0  0
   45.1518    1.2922    9.0900 O   0  0  0  0  0  0  0  0  0  0  0  0
   44.8677    4.4263    8.7406 S   0  0  0  0  0  0  0  0  0  0  0  0
   46.7903    1.0759    7.4796 C   0  0  0  0  0  0  0  0  0  0  0  0
   46.8290    3.8059    6.8862 C   0  0  0  0  0  0  0  0  0  0  0  0
   47.6236    1.5455    6.5428 C   0  0  0  0  0  0  0  0  0  0  0  0
   47.6397    2.9545    6.2404 C   0  0  0  0  0  0  0  0  0  0  0  0
   46.6481    1.2086    7.6547 N   0  0  0  0  0  0  0  0  0  0  0  0
   45.7680    2.1440    8.2210 C   0  0  0  0  0  0  0  0  0  0  0  0
   46.6161   -0.1266    8.0274 O   0  0  0  0  0  0  0  0  0  0  0  0
   44.5705    1.8697    9.3896 S   0  0  0  0  0  0  0  0  0  0  0  0
   47.6006    1.4910    6.7087 C   0  0  0  0  0  0  0  0  0  0  0  0
   45.9678    3.5404    7.6787 C   0  0  0  0  0  0  0  0  0  0  0  0
   47.7503    2.7400    6.2501 C   0  0  0  0  0  0  0  0  0  0  0  0
   46.9056    3.7935    6.7537 C   0  0  0  0  0  0  0  0  0  0  0  0
   46.7468    0.0225    7.7373 H   0  0  0  0  0  0  0  0  0  0  0  0
   46.8320    4.8654    6.6680 H   0  0  0  0  0  0  0  0  0  0  0  0
   48.2874    0.8796    6.0078 H   0  0  0  0  0  0  0  0  0  0  0  0
   48.3233    3.3070    5.4786 H   0  0  0  0  0  0  0  0  0  0  0  0
   48.2157    0.6695    6.3560 H   0  0  0  0  0  0  0  0  0  0  0  0
   45.3279    4.3227    8.0642 H   0  0  0  0  0  0  0  0  0  0  0  0
   48.4992    2.9702    5.5043 H   0  0  0  0  0  0  0  0  0  0  0  0
   47.0483    4.7939    6.3656 H   0  0  0  0  0  0  0  0  0  0  0  0
  3  2  1  0
  4  2  1  0
  5  3  2  0
  6  2  1  0
  7  3  1  0
  8  6  2  0
  9  7  2  0
  8  9  1  0
 11 10  1  0
 12 10  1  0
 13 11  2  0
 14 10  1  0
 15 11  1  0
 16 14  2  0
 17 16  1  0
 15 17  2  0
  6 18  1  0
  7 19  1  0
  8 20  1  0
  9 21  1  0
 14 22  1  0
 15 23  1  0
 16 24  1  0
 17 25  1  0
M  CHG  3   1   2   4  -1  12  -1
M  END
> <Uni-Dock RESULT> 
ENERGY=   -9.239  LOWER_BOUND=    0.000  UPPER_BOUND=    0.000
INTER + INTRA:          -9.239
INTER:                  -9.239
INTRA:                   0.000
UNBOUND:                 0.000

$$$$

     RDKit          3D

 25 24  0  0  0  0  0  0  0  0999 V2000
   45.8649    3.0269    8.0884 Zn  0  0  0  0  0 15  0  0  0  0  0  0
   46.0571    1.7318    8.0177 N   0  0  0  0  0  0  0  0  0  0  0  0
   46.8393    2.5484    7.1860 C   0  0  0  0  0  0  0  0  0  0  0  0
   46.1952    0.3522    8.0069 O   0  0  0  0  0  0  0  0  0  0  0  0
   48.0276    2.0672    6.0765 S   0  0  0  0  0  0  0  0  0  0  0  0
   45.1068    2.1808    8.8992 C   0  0  0  0  0  0  0  0  0  0  0  0
   46.5329    4.0190    7.3519 C   0  0  0  0  0  0  0  0  0  0  0  0
   44.8609    3.4913    9.0207 C   0  0  0  0  0  0  0  0  0  0  0  0
   45.5992    4.4353    8.2203 C   0  0  0  0  0  0  0  0  0  0  0  0
   45.2474    2.0561    8.7171 N   0  0  0  0  0  0  0  0  0  0  0  0
   46.2993    1.7039    7.8571 C   0  0  0  0  0  0  0  0  0  0  0  0
   44.5408    1.0929    9.4212 O   0  0  0  0  0  0  0  0  0  0  0  0
   46.8889    0.1509    7.5176 S   0  0  0  0  0  0  0  0  0  0  0  0
   44.8134    3.3360    8.9527 C   0  0  0  0  0  0  0  0  0  0  0  0
   46.9357    2.9005    7.1883 C   0  0  0  0  0  0  0  0  0  0  0  0
   45.4005    4.3733    8.3428 C   0  0  0  0  0  0  0  0  0  0  0  0
   46.4948    4.1432    7.4336 C   0  0  0  0  0  0  0  0  0  0  0  0
   44.5735    1.4374    9.4829 H   0  0  0  0  0  0  0  0  0  0  0  0
   47.0934    4.7179    6.7457 H   0  0  0  0  0  0  0  0  0  0  0  0
   44.1130    3.8527    9.7137 H   0  0  0  0  0  0  0  0  0  0  0  0
   45.3800    5.4889    8.3387 H   0  0  0  0  0  0  0  0  0  0  0  0
   43.9869    3.4657    9.6439 H   0  0  0  0  0  0  0  0  0  0  0  0
   47.7562    2.7153    6.5081 H   0  0  0  0  0  0  0  0  0  0  0  0
   45.0637    5.3852    8.5236 H   0  0  0  0  0  0  0  0  0  0  0  0
   46.9511    5.0000    6.9544 H   0  0  0  0  0  0  0  0  0  0  0  0
  3  2  1  0
  4  2  1  0
  5  3  2  0
  6  2  1  0
  7  3  1  0
  8  6  2  0
  9  7  2  0
  8  9  1  0
 11 10  1  0
 12 10  1  0
 13 11  2  0
 14 10  1  0
 15 11  1  0
 16 14  2  0
 17 16  1  0
 15 17  2  0
  6 18  1  0
  7 19  1  0
  8 20  1  0
  9 21  1  0
 14 22  1  0
 15 23  1  0
 16 24  1  0
 17 25  1  0
M  CHG  3   1   2   4  -1  12  -1
M  END
> <Uni-Dock RESULT> 
ENERGY=   -7.670  LOWER_BOUND=    1.717  UPPER_BOUND=    2.647
INTER + INTRA:          -7.670
INTER:                  -7.670
INTRA:                   0.000
UNBOUND:                 0.000

$$$$

     RDKit          3D

 25 24  0  0  0  0  0  0  0  0999 V2000
   45.7216    2.8932    8.2634 Zn  0  0  0  0  0 15  0  0  0  0  0  0
   46.7321    2.8269    7.4306 N   0  0  0  0  0  0  0  0  0  0  0  0
   46.2385    1.6184    7.9465 C   0  0  0  0  0  0  0  0  0  0  0  0
   47.7981    2.8483    6.5441 O   0  0  0  0  0  0  0  0  0  0  0  0
   46.7913    0.0480    7.6257 S   0  0  0  0  0  0  0  0  0  0  0  0
   46.2414    4.0728    7.7283 C   0  0  0  0  0  0  0  0  0  0  0  0
   45.0769    1.8158    8.8931 C   0  0  0  0  0  0  0  0  0  0  0  0
   45.2107    4.2111    8.5716 C   0  0  0  0  0  0  0  0  0  0  0  0
   44.6136    3.0438    9.1696 C   0  0  0  0  0  0  0  0  0  0  0  0
   46.3867    3.8606    7.6795 N   0  0  0  0  0  0  0  0  0  0  0  0
   46.7558    2.5425    7.3689 C   0  0  0  0  0  0  0  0  0  0  0  0
   47.0370    4.9434    7.1075 O   0  0  0  0  0  0  0  0  0  0  0  0
   47.9777    2.0265    6.3129 S   0  0  0  0  0  0  0  0  0  0  0  0
   45.3848    4.2180    8.5459 C   0  0  0  0  0  0  0  0  0  0  0  0
   45.9236    1.5131    8.0983 C   0  0  0  0  0  0  0  0  0  0  0  0
   44.6669    3.2793    9.1754 C   0  0  0  0  0  0  0  0  0  0  0  0
   44.9488    1.8855    8.9410 C   0  0  0  0  0  0  0  0  0  0  0  0
   46.7193    4.9255    7.2568 H   0  0  0  0  0  0  0  0  0  0  0  0
   44.6371    0.9322    9.3358 H   0  0  0  0  0  0  0  0  0  0  0  0
   44.8185    5.1904    8.8110 H   0  0  0  0  0  0  0  0  0  0  0  0
   43.7815    3.1847    9.8478 H   0  0  0  0  0  0  0  0  0  0  0  0
   45.2048    5.2778    8.6942 H   0  0  0  0  0  0  0  0  0  0  0  0
   46.1444    0.4702    7.9143 H   0  0  0  0  0  0  0  0  0  0  0  0
   43.8754    3.5535    9.8598 H   0  0  0  0  0  0  0  0  0  0  0  0
   44.3530    1.1478    9.4631 H   0  0  0  0  0  0  0  0  0  0  0  0
  3  2  1  0
  4  2  1  0
  5  3  2  0
  6  2  1  0
  7  3  1  0
  8  6  2  0
  9  7  2  0
  8  9  1  0
 11 10  1  0
 12 10  1  0
 13 11  2  0
 14 10  1  0
 15 11  1  0
 16 14  2  0
 17 16  1  0
 15 17  2  0
  6 18  1  0
  7 19  1  0
  8 20  1  0
  9 21  1  0
 14 22  1  0
 15 23  1  0
 16 24  1  0
 17 25  1  0
M  CHG  3   1   2   4  -1  12  -1
M  END
> <Uni-Dock RESULT> 
ENERGY=   -6.842  LOWER_BOUND=    2.282  UPPER_BOUND=    3.513
INTER + INTRA:          -6.842
INTER:                  -6.842
INTRA:                   0.000
UNBOUND:                 0.000

$$$$

     RDKit          3D

 25 24  0  0  0  0  0  0  0  0999 V2000
   45.1121    3.7247    9.1711 Zn  0  0  0  0  0 15  0  0  0  0  0  0
   44.4268    3.0790   10.0836 N   0  0  0  0  0  0  0  0  0  0  0  0
   44.7214    4.4291   10.3303 C   0  0  0  0  0  0  0  0  0  0  0  0
   43.7070    2.3217   10.9951 O   0  0  0  0  0  0  0  0  0  0  0  0
   44.2967    5.3550   11.6857 S   0  0  0  0  0  0  0  0  0  0  0  0
   44.7989    2.3805    8.9631 C   0  0  0  0  0  0  0  0  0  0  0  0
   45.5129    5.0702    9.2138 C   0  0  0  0  0  0  0  0  0  0  0  0
   45.5002    2.9802    7.9929 C   0  0  0  0  0  0  0  0  0  0  0  0
   45.8659    4.3677    8.1271 C   0  0  0  0  0  0  0  0  0  0  0  0
   44.7461    2.4661    9.2048 N   0  0  0  0  0  0  0  0  0  0  0  0
   44.3357    3.2879   10.2661 C   0  0  0  0  0  0  0  0  0  0  0  0
   44.4033    1.1232    9.1608 O   0  0  0  0  0  0  0  0  0  0  0  0
   43.4072    2.8551   11.6171 S   0  0  0  0  0  0  0  0  0  0  0  0
   45.5000    2.8748    8.1340 C   0  0  0  0  0  0  0  0  0  0  0  0
   44.8140    4.7143   10.1222 C   0  0  0  0  0  0  0  0  0  0  0  0
   45.9069    4.1468    8.0384 C   0  0  0  0  0  0  0  0  0  0  0  0
   45.5504    5.0917    9.0665 C   0  0  0  0  0  0  0  0  0  0  0  0
   44.5035    1.3381    8.9013 H   0  0  0  0  0  0  0  0  0  0  0  0
   45.7816    6.1120    9.3258 H   0  0  0  0  0  0  0  0  0  0  0  0
   45.7970    2.4357    7.1066 H   0  0  0  0  0  0  0  0  0  0  0  0
   46.4329    4.8274    7.3276 H   0  0  0  0  0  0  0  0  0  0  0  0
   45.7467    2.1322    7.3821 H   0  0  0  0  0  0  0  0  0  0  0  0
   44.5401    5.4143   10.9000 H   0  0  0  0  0  0  0  0  0  0  0  0
   46.5017    4.4763    7.1970 H   0  0  0  0  0  0  0  0  0  0  0  0
   45.8927    6.1135    8.9639 H   0  0  0  0  0  0  0  0  0  0  0  0
  3  2  1  0
  4  2  1  0
  5  3  2  0
  6  2  1  0
  7  3  1  0
  8  6  2  0
  9  7  2  0
  8  9  1  0
 11 10  1  0
 12 10  1  0
 13 11  2  0
 14 10  1  0
 15 11  1  0
 16 14  2  0
 17 16  1  0
 15 17  2  0
  6 18  1  0
  7 19  1  0
  8 20  1  0
  9 21  1  0
 14 22  1  0
 15 23  1  0
 16 24  1  0
 17 25  1  0
M  CHG  3   1   2   4  -1  12  -1
M  END
> <Uni-Dock RESULT> 
ENERGY=   -6.356  LOWER_BOUND=    2.281  UPPER_BOUND=    2.858
INTER + INTRA:          -6.356
INTER:                  -6.356
INTRA:                   0.000
UNBOUND:                 0.000

$$$$
