
     RDKit          3D

 25 24  0  0  0  0  0  0  0  0999 V2000
   46.7124    2.5577    7.2311 Zn  0  0  0  0  0 15  0  0  0  0  0  0
   45.8891    2.0437    8.1127 N   0  0  0  0  0  0  0  0  0  0  0  0
   46.7273    1.1585    7.4170 C   0  0  0  0  0  0  0  0  0  0  0  0
   44.9885    1.5853    9.0621 O   0  0  0  0  0  0  0  0  0  0  0  0
   46.8159   -0.5276    7.5718 S   0  0  0  0  0  0  0  0  0  0  0  0
   45.8623    3.4049    7.9439 C   0  0  0  0  0  0  0  0  0  0  0  0
   47.6310    1.8603    6.4296 C   0  0  0  0  0  0  0  0  0  0  0  0
   46.6773    3.9938    7.0597 C   0  0  0  0  0  0  0  0  0  0  0  0
   47.5877    3.1926    6.2812 C   0  0  0  0  0  0  0  0  0  0  0  0
   46.4898    1.3544    7.7018 N   0  0  0  0  0  0  0  0  0  0  0  0
   45.7464    2.4113    8.2499 C   0  0  0  0  0  0  0  0  0  0  0  0
   46.3176    0.0506    8.1410 O   0  0  0  0  0  0  0  0  0  0  0  0
   44.5709    2.3330    9.4693 S   0  0  0  0  0  0  0  0  0  0  0  0
   47.4314    1.4799    6.7122 C   0  0  0  0  0  0  0  0  0  0  0  0
   46.0855    3.7487    7.6328 C   0  0  0  0  0  0  0  0  0  0  0  0
   47.7070    2.6805    6.1878 C   0  0  0  0  0  0  0  0  0  0  0  0
   47.0100    3.8477    6.6662 C   0  0  0  0  0  0  0  0  0  0  0  0
   45.1624    3.9715    8.5495 H   0  0  0  0  0  0  0  0  0  0  0  0
   48.3100    1.2484    5.8510 H   0  0  0  0  0  0  0  0  0  0  0  0
   46.6618    5.0666    6.9212 H   0  0  0  0  0  0  0  0  0  0  0  0
   48.2352    3.6948    5.5737 H   0  0  0  0  0  0  0  0  0  0  0  0
   47.9332    0.5766    6.3805 H   0  0  0  0  0  0  0  0  0  0  0  0
   45.5557    4.6174    8.0001 H   0  0  0  0  0  0  0  0  0  0  0  0
   48.4483    2.7871    5.4072 H   0  0  0  0  0  0  0  0  0  0  0  0
   47.2524    4.8058    6.2245 H   0  0  0  0  0  0  0  0  0  0  0  0
  3  2  1  0
  4  2  1  0
  5  3  2  0
  6  2  1  0
  7  3  1  0
  8  6  2  0
  9  7  2  0
  8  9  1  0
 11 10  1  0
 12 10  1  0
 13 11  2  0
 14 10  1  0
 15 11  1  0
 16 14  2  0
 17 16  1  0
 15 17  2  0
  6 18  1  0
  7 19  1  0
  8 20  1  0
  9 21  1  0
 14 22  1  0
 15 23  1  0
 16 24  1  0
 17 25  1  0
M  CHG  3   1   2   4  -1  12  -1
M  END
> <Uni-Dock RESULT> 
ENERGY=   -8.634  LOWER_BOUND=    0.000  UPPER_BOUND=    0.000
INTER + INTRA:          -8.634
INTER:                  -8.634
INTRA:                   0.000
UNBOUND:                 0.000

$$$$

     RDKit          3D

 25 24  0  0  0  0  0  0  0  0999 V2000
   46.7093    2.5601    7.2343 Zn  0  0  0  0  0 15  0  0  0  0  0  0
   46.4788    1.3551    7.6971 N   0  0  0  0  0  0  0  0  0  0  0  0
   45.7471    2.4141    8.2568 C   0  0  0  0  0  0  0  0  0  0  0  0
   46.2980    0.0494    8.1272 O   0  0  0  0  0  0  0  0  0  0  0  0
   44.5771    2.3363    9.4815 S   0  0  0  0  0  0  0  0  0  0  0  0
   47.4167    1.4802    6.7037 C   0  0  0  0  0  0  0  0  0  0  0  0
   46.0945    3.7532    7.6482 C   0  0  0  0  0  0  0  0  0  0  0  0
   47.6998    2.6826    6.1870 C   0  0  0  0  0  0  0  0  0  0  0  0
   47.0150    3.8518    6.6777 C   0  0  0  0  0  0  0  0  0  0  0  0
   45.8782    2.0447    8.1077 N   0  0  0  0  0  0  0  0  0  0  0  0
   46.7281    1.1614    7.4238 C   0  0  0  0  0  0  0  0  0  0  0  0
   44.9690    1.5846    9.0480 O   0  0  0  0  0  0  0  0  0  0  0  0
   46.8224   -0.5239    7.5837 S   0  0  0  0  0  0  0  0  0  0  0  0
   45.8476    3.4052    7.9352 C   0  0  0  0  0  0  0  0  0  0  0  0
   47.6401    1.8648    6.4451 C   0  0  0  0  0  0  0  0  0  0  0  0
   46.6699    3.9956    7.0590 C   0  0  0  0  0  0  0  0  0  0  0  0
   47.5926    3.1965    6.2929 C   0  0  0  0  0  0  0  0  0  0  0  0
   47.9093    0.5753    6.3626 H   0  0  0  0  0  0  0  0  0  0  0  0
   45.5739    4.6235    8.0247 H   0  0  0  0  0  0  0  0  0  0  0  0
   48.4381    2.7888    5.4035 H   0  0  0  0  0  0  0  0  0  0  0  0
   47.2635    4.8112    6.2421 H   0  0  0  0  0  0  0  0  0  0  0  0
   45.1383    3.9702    8.5316 H   0  0  0  0  0  0  0  0  0  0  0  0
   48.3283    1.2545    5.8758 H   0  0  0  0  0  0  0  0  0  0  0  0
   46.6514    5.0679    6.9177 H   0  0  0  0  0  0  0  0  0  0  0  0
   48.2461    3.6998    5.5917 H   0  0  0  0  0  0  0  0  0  0  0  0
  3  2  1  0
  4  2  1  0
  5  3  2  0
  6  2  1  0
  7  3  1  0
  8  6  2  0
  9  7  2  0
  8  9  1  0
 11 10  1  0
 12 10  1  0
 13 11  2  0
 14 10  1  0
 15 11  1  0
 16 14  2  0
 17 16  1  0
 15 17  2  0
  6 18  1  0
  7 19  1  0
  8 20  1  0
  9 21  1  0
 14 22  1  0
 15 23  1  0
 16 24  1  0
 17 25  1  0
M  CHG  3   1   2   4  -1  12  -1
M  END
> <Uni-Dock RESULT> 
ENERGY=   -8.630  LOWER_BOUND=    0.015  UPPER_BOUND=    2.315
INTER + INTRA:          -8.630
INTER:                  -8.630
INTRA:                   0.000
UNBOUND:                 0.000

$$$$

     RDKit          3D

 25 24  0  0  0  0  0  0  0  0999 V2000
   46.1415    2.6915    7.7689 Zn  0  0  0  0  0 15  0  0  0  0  0  0
   47.0370    2.2716    6.9080 N   0  0  0  0  0  0  0  0  0  0  0  0
   46.4171    1.3079    7.7187 C   0  0  0  0  0  0  0  0  0  0  0  0
   47.9950    1.9149    5.9713 O   0  0  0  0  0  0  0  0  0  0  0  0
   46.6814   -0.3668    7.7301 S   0  0  0  0  0  0  0  0  0  0  0  0
   46.7807    3.6188    6.9444 C   0  0  0  0  0  0  0  0  0  0  0  0
   45.4056    1.9047    8.6700 C   0  0  0  0  0  0  0  0  0  0  0  0
   45.8776    4.1136    7.8003 C   0  0  0  0  0  0  0  0  0  0  0  0
   45.1711    3.2252    8.6882 C   0  0  0  0  0  0  0  0  0  0  0  0
   46.6025    1.5185    7.4071 N   0  0  0  0  0  0  0  0  0  0  0  0
   47.0966    2.6448    6.7305 C   0  0  0  0  0  0  0  0  0  0  0  0
   47.0359    0.2406    7.0883 O   0  0  0  0  0  0  0  0  0  0  0  0
   48.2383    2.6871    5.4777 S   0  0  0  0  0  0  0  0  0  0  0  0
   45.6751    1.5469    8.4174 C   0  0  0  0  0  0  0  0  0  0  0  0
   46.4964    3.9389    7.2298 C   0  0  0  0  0  0  0  0  0  0  0  0
   45.1638    2.7118    8.8350 C   0  0  0  0  0  0  0  0  0  0  0  0
   45.5908    3.9427    8.2191 C   0  0  0  0  0  0  0  0  0  0  0  0
   47.3341    4.2530    6.2593 H   0  0  0  0  0  0  0  0  0  0  0  0
   44.8817    1.2280    9.3317 H   0  0  0  0  0  0  0  0  0  0  0  0
   45.6703    5.1747    7.8345 H   0  0  0  0  0  0  0  0  0  0  0  0
   44.4465    3.6522    9.3699 H   0  0  0  0  0  0  0  0  0  0  0  0
   45.3806    0.5981    8.8543 H   0  0  0  0  0  0  0  0  0  0  0  0
   46.8247    4.8562    6.7598 H   0  0  0  0  0  0  0  0  0  0  0  0
   44.4321    2.7419    9.6311 H   0  0  0  0  0  0  0  0  0  0  0  0
   45.1612    4.8700    8.5764 H   0  0  0  0  0  0  0  0  0  0  0  0
  3  2  1  0
  4  2  1  0
  5  3  2  0
  6  2  1  0
  7  3  1  0
  8  6  2  0
  9  7  2  0
  8  9  1  0
 11 10  1  0
 12 10  1  0
 13 11  2  0
 14 10  1  0
 15 11  1  0
 16 14  2  0
 17 16  1  0
 15 17  2  0
  6 18  1  0
  7 19  1  0
  8 20  1  0
  9 21  1  0
 14 22  1  0
 15 23  1  0
 16 24  1  0
 17 25  1  0
M  CHG  3   1   2   4  -1  12  -1
M  END
> <Uni-Dock RESULT> 
ENERGY=   -7.516  LOWER_BOUND=    1.474  UPPER_BOUND=    2.508
INTER + INTRA:          -7.516
INTER:                  -7.516
INTRA:                   0.000
UNBOUND:                 0.000

$$$$

     RDKit          3D

 25 24  0  0  0  0  0  0  0  0999 V2000
   45.0487    3.6467    9.2938 Zn  0  0  0  0  0 15  0  0  0  0  0  0
   44.4563    3.5706   10.4611 N   0  0  0  0  0  0  0  0  0  0  0  0
   44.9679    4.8194   10.0753 C   0  0  0  0  0  0  0  0  0  0  0  0
   43.8150    3.4011   11.6787 O   0  0  0  0  0  0  0  0  0  0  0  0
   44.9184    6.2759   10.9420 S   0  0  0  0  0  0  0  0  0  0  0  0
   44.5266    2.4223    9.7139 C   0  0  0  0  0  0  0  0  0  0  0  0
   45.6271    4.7886    8.7157 C   0  0  0  0  0  0  0  0  0  0  0  0
   45.1182    2.4309    8.5128 C   0  0  0  0  0  0  0  0  0  0  0  0
   45.6842    3.6540    8.0024 C   0  0  0  0  0  0  0  0  0  0  0  0
   44.7426    4.5047   10.2368 N   0  0  0  0  0  0  0  0  0  0  0  0
   44.3353    3.1735   10.4162 C   0  0  0  0  0  0  0  0  0  0  0  0
   44.4608    5.4769   11.1844 O   0  0  0  0  0  0  0  0  0  0  0  0
   43.4795    2.5153   11.7236 S   0  0  0  0  0  0  0  0  0  0  0  0
   45.4359    4.9802    9.1528 C   0  0  0  0  0  0  0  0  0  0  0  0
   44.7416    2.2764    9.2698 C   0  0  0  0  0  0  0  0  0  0  0  0
   45.7798    4.1570    8.1545 C   0  0  0  0  0  0  0  0  0  0  0  0
   45.4192    2.7632    8.2197 C   0  0  0  0  0  0  0  0  0  0  0  0
   44.0881    1.5230   10.1344 H   0  0  0  0  0  0  0  0  0  0  0  0
   46.0484    5.7127    8.3432 H   0  0  0  0  0  0  0  0  0  0  0  0
   45.1773    1.5293    7.9180 H   0  0  0  0  0  0  0  0  0  0  0  0
   46.1566    3.6324    7.0286 H   0  0  0  0  0  0  0  0  0  0  0  0
   45.6878    6.0358    9.1427 H   0  0  0  0  0  0  0  0  0  0  0  0
   44.4654    1.2322    9.3301 H   0  0  0  0  0  0  0  0  0  0  0  0
   46.3264    4.5248    7.2966 H   0  0  0  0  0  0  0  0  0  0  0  0
   45.7100    2.1201    7.3988 H   0  0  0  0  0  0  0  0  0  0  0  0
  3  2  1  0
  4  2  1  0
  5  3  2  0
  6  2  1  0
  7  3  1  0
  8  6  2  0
  9  7  2  0
  8  9  1  0
 11 10  1  0
 12 10  1  0
 13 11  2  0
 14 10  1  0
 15 11  1  0
 16 14  2  0
 17 16  1  0
 15 17  2  0
  6 18  1  0
  7 19  1  0
  8 20  1  0
  9 21  1  0
 14 22  1  0
 15 23  1  0
 16 24  1  0
 17 25  1  0
M  CHG  3   1   2   4  -1  12  -1
M  END
> <Uni-Dock RESULT> 
ENERGY=   -6.413  LOWER_BOUND=    3.100  UPPER_BOUND=    3.998
INTER + INTRA:          -6.413
INTER:                  -6.413
INTRA:                   0.000
UNBOUND:                 0.000

$$$$

     RDKit          3D

 25 24  0  0  0  0  0  0  0  0999 V2000
   45.0509    3.6506    9.3003 Zn  0  0  0  0  0 15  0  0  0  0  0  0
   44.7568    4.5051   10.2503 N   0  0  0  0  0  0  0  0  0  0  0  0
   44.3357    3.1771   10.4214 C   0  0  0  0  0  0  0  0  0  0  0  0
   44.4882    5.4735   11.2055 O   0  0  0  0  0  0  0  0  0  0  0  0
   43.4766    2.5189   11.7265 S   0  0  0  0  0  0  0  0  0  0  0  0
   45.4520    4.9809    9.1676 C   0  0  0  0  0  0  0  0  0  0  0  0
   44.7289    2.2838    9.2674 C   0  0  0  0  0  0  0  0  0  0  0  0
   45.7842    4.1610    8.1624 C   0  0  0  0  0  0  0  0  0  0  0  0
   45.4088    2.7708    8.2188 C   0  0  0  0  0  0  0  0  0  0  0  0
   44.4713    3.5705   10.4737 N   0  0  0  0  0  0  0  0  0  0  0  0
   44.9672    4.8235   10.0811 C   0  0  0  0  0  0  0  0  0  0  0  0
   43.8442    3.3967   11.6980 O   0  0  0  0  0  0  0  0  0  0  0  0
   44.9130    6.2807   10.9463 S   0  0  0  0  0  0  0  0  0  0  0  0
   44.5446    2.4219    9.7272 C   0  0  0  0  0  0  0  0  0  0  0  0
   45.6126    4.7970    8.7147 C   0  0  0  0  0  0  0  0  0  0  0  0
   45.1237    2.4344    8.5201 C   0  0  0  0  0  0  0  0  0  0  0  0
   45.6730    3.6621    8.0024 C   0  0  0  0  0  0  0  0  0  0  0  0
   45.7154    6.0337    9.1642 H   0  0  0  0  0  0  0  0  0  0  0  0
   44.4416    1.2423    9.3210 H   0  0  0  0  0  0  0  0  0  0  0  0
   46.3323    4.5291    7.3056 H   0  0  0  0  0  0  0  0  0  0  0  0
   45.6902    2.1306    7.3924 H   0  0  0  0  0  0  0  0  0  0  0  0
   44.1190    1.5192   10.1534 H   0  0  0  0  0  0  0  0  0  0  0  0
   46.0212    5.7245    8.3368 H   0  0  0  0  0  0  0  0  0  0  0  0
   45.1852    1.5326    7.9258 H   0  0  0  0  0  0  0  0  0  0  0  0
   46.1354    3.6436    7.0237 H   0  0  0  0  0  0  0  0  0  0  0  0
  3  2  1  0
  4  2  1  0
  5  3  2  0
  6  2  1  0
  7  3  1  0
  8  6  2  0
  9  7  2  0
  8  9  1  0
 11 10  1  0
 12 10  1  0
 13 11  2  0
 14 10  1  0
 15 11  1  0
 16 14  2  0
 17 16  1  0
 15 17  2  0
  6 18  1  0
  7 19  1  0
  8 20  1  0
  9 21  1  0
 14 22  1  0
 15 23  1  0
 16 24  1  0
 17 25  1  0
M  CHG  3   1   2   4  -1  12  -1
M  END
> <Uni-Dock RESULT> 
ENERGY=   -6.403  LOWER_BOUND=    3.104  UPPER_BOUND=    3.750
INTER + INTRA:          -6.403
INTER:                  -6.403
INTRA:                   0.000
UNBOUND:                 0.000

$$$$
