
     RDKit          3D

 25 24  0  0  0  0  0  0  0  0999 V2000
   46.6731    2.4572    7.3555 Zn  0  0  0  0  0 15  0  0  0  0  0  0
   46.1126    3.5920    7.6977 N   0  0  0  0  0  0  0  0  0  0  0  0
   45.6926    2.4341    8.3707 C   0  0  0  0  0  0  0  0  0  0  0  0
   45.5725    4.8336    7.9967 O   0  0  0  0  0  0  0  0  0  0  0  0
   44.5281    2.3091    9.5967 S   0  0  0  0  0  0  0  0  0  0  0  0
   47.0635    3.6313    6.7096 C   0  0  0  0  0  0  0  0  0  0  0  0
   46.4045    1.1887    7.8954 C   0  0  0  0  0  0  0  0  0  0  0  0
   47.6746    2.5080    6.3128 C   0  0  0  0  0  0  0  0  0  0  0  0
   47.3312    1.2507    6.9276 C   0  0  0  0  0  0  0  0  0  0  0  0
   45.8908    1.8326    8.2022 N   0  0  0  0  0  0  0  0  0  0  0  0
   45.7350    3.2223    8.0814 C   0  0  0  0  0  0  0  0  0  0  0  0
   45.1052    1.0939    9.0739 O   0  0  0  0  0  0  0  0  0  0  0  0
   44.6417    4.2215    8.9068 S   0  0  0  0  0  0  0  0  0  0  0  0
   46.7969    1.0749    7.5046 C   0  0  0  0  0  0  0  0  0  0  0  0
   46.6867    3.8342    7.0795 C   0  0  0  0  0  0  0  0  0  0  0  0
   47.6255    1.6502    6.6243 C   0  0  0  0  0  0  0  0  0  0  0  0
   47.5646    3.0738    6.4087 C   0  0  0  0  0  0  0  0  0  0  0  0
   47.2928    4.5979    6.2727 H   0  0  0  0  0  0  0  0  0  0  0  0
   46.1382    0.2509    8.3643 H   0  0  0  0  0  0  0  0  0  0  0  0
   48.4254    2.5313    5.5343 H   0  0  0  0  0  0  0  0  0  0  0  0
   47.8408    0.3582    6.5875 H   0  0  0  0  0  0  0  0  0  0  0  0
   46.8103    0.0069    7.6965 H   0  0  0  0  0  0  0  0  0  0  0  0
   46.6316    4.9036    6.9263 H   0  0  0  0  0  0  0  0  0  0  0  0
   48.3427    1.0591    6.0706 H   0  0  0  0  0  0  0  0  0  0  0  0
   48.2462    3.5127    5.6911 H   0  0  0  0  0  0  0  0  0  0  0  0
  3  2  1  0
  4  2  1  0
  5  3  2  0
  6  2  1  0
  7  3  1  0
  8  6  2  0
  9  7  2  0
  8  9  1  0
 11 10  1  0
 12 10  1  0
 13 11  2  0
 14 10  1  0
 15 11  1  0
 16 14  2  0
 17 16  1  0
 15 17  2  0
  6 18  1  0
  7 19  1  0
  8 20  1  0
  9 21  1  0
 14 22  1  0
 15 23  1  0
 16 24  1  0
 17 25  1  0
M  CHG  3   1   2   4  -1  12  -1
M  END
> <Uni-Dock RESULT> 
ENERGY=   -8.689  LOWER_BOUND=    0.000  UPPER_BOUND=    0.000
INTER + INTRA:          -8.689
INTER:                  -8.689
INTRA:                   0.000
UNBOUND:                 0.000

$$$$

     RDKit          3D

 25 24  0  0  0  0  0  0  0  0999 V2000
   45.6266    3.0203    8.3710 Zn  0  0  0  0  0 15  0  0  0  0  0  0
   45.9279    1.7497    8.2518 N   0  0  0  0  0  0  0  0  0  0  0  0
   46.6491    2.6623    7.4661 C   0  0  0  0  0  0  0  0  0  0  0  0
   46.1817    0.3881    8.1882 O   0  0  0  0  0  0  0  0  0  0  0  0
   47.8876    2.3278    6.3575 S   0  0  0  0  0  0  0  0  0  0  0  0
   44.9321    2.0812    9.1352 C   0  0  0  0  0  0  0  0  0  0  0  0
   46.2181    4.0940    7.6856 C   0  0  0  0  0  0  0  0  0  0  0  0
   44.5754    3.3605    9.3048 C   0  0  0  0  0  0  0  0  0  0  0  0
   45.2418    4.3950    8.5547 C   0  0  0  0  0  0  0  0  0  0  0  0
   46.5031    3.3005    7.4370 N   0  0  0  0  0  0  0  0  0  0  0  0
   46.3287    1.9498    7.7764 C   0  0  0  0  0  0  0  0  0  0  0  0
   47.4089    3.6855    6.4604 O   0  0  0  0  0  0  0  0  0  0  0  0
   47.1221    0.6022    7.1208 S   0  0  0  0  0  0  0  0  0  0  0  0
   45.8292    4.3519    8.0048 C   0  0  0  0  0  0  0  0  0  0  0  0
   45.2965    1.7462    8.8614 C   0  0  0  0  0  0  0  0  0  0  0  0
   44.9208    4.1351    8.9642 C   0  0  0  0  0  0  0  0  0  0  0  0
   44.6497    2.7892    9.4024 C   0  0  0  0  0  0  0  0  0  0  0  0
   44.4558    1.2725    9.6801 H   0  0  0  0  0  0  0  0  0  0  0  0
   46.7255    4.8616    7.1168 H   0  0  0  0  0  0  0  0  0  0  0  0
   43.7911    3.6294    9.9996 H   0  0  0  0  0  0  0  0  0  0  0  0
   44.9333    5.4207    8.7114 H   0  0  0  0  0  0  0  0  0  0  0  0
   46.0629    5.3491    7.6464 H   0  0  0  0  0  0  0  0  0  0  0  0
   45.1016    0.7316    9.1820 H   0  0  0  0  0  0  0  0  0  0  0  0
   44.3856    4.9592    9.4166 H   0  0  0  0  0  0  0  0  0  0  0  0
   43.9104    2.6429   10.1796 H   0  0  0  0  0  0  0  0  0  0  0  0
  3  2  1  0
  4  2  1  0
  5  3  2  0
  6  2  1  0
  7  3  1  0
  8  6  2  0
  9  7  2  0
  8  9  1  0
 11 10  1  0
 12 10  1  0
 13 11  2  0
 14 10  1  0
 15 11  1  0
 16 14  2  0
 17 16  1  0
 15 17  2  0
  6 18  1  0
  7 19  1  0
  8 20  1  0
  9 21  1  0
 14 22  1  0
 15 23  1  0
 16 24  1  0
 17 25  1  0
M  CHG  3   1   2   4  -1  12  -1
M  END
> <Uni-Dock RESULT> 
ENERGY=   -7.382  LOWER_BOUND=    1.942  UPPER_BOUND=    3.530
INTER + INTRA:          -7.382
INTER:                  -7.382
INTRA:                   0.000
UNBOUND:                 0.000

$$$$

     RDKit          3D

 25 24  0  0  0  0  0  0  0  0999 V2000
   45.6266    3.0208    8.3723 Zn  0  0  0  0  0 15  0  0  0  0  0  0
   46.5202    3.3080    7.4568 N   0  0  0  0  0  0  0  0  0  0  0  0
   46.3266    1.9534    7.7696 C   0  0  0  0  0  0  0  0  0  0  0  0
   47.4449    3.7004    6.5011 O   0  0  0  0  0  0  0  0  0  0  0  0
   47.1160    0.6094    7.1024 S   0  0  0  0  0  0  0  0  0  0  0  0
   45.8486    4.3564    8.0329 C   0  0  0  0  0  0  0  0  0  0  0  0
   45.2758    1.7419    8.8349 C   0  0  0  0  0  0  0  0  0  0  0  0
   44.9233    4.1324    8.9744 C   0  0  0  0  0  0  0  0  0  0  0  0
   44.6315    2.7820    9.3845 C   0  0  0  0  0  0  0  0  0  0  0  0
   45.9400    1.7527    8.2592 N   0  0  0  0  0  0  0  0  0  0  0  0
   46.6489    2.6677    7.4653 C   0  0  0  0  0  0  0  0  0  0  0  0
   46.2071    0.3932    8.2024 O   0  0  0  0  0  0  0  0  0  0  0  0
   47.8863    2.3393    6.3536 S   0  0  0  0  0  0  0  0  0  0  0  0
   44.9445    2.0793    9.1448 C   0  0  0  0  0  0  0  0  0  0  0  0
   46.2045    4.0964    7.6783 C   0  0  0  0  0  0  0  0  0  0  0  0
   44.5757    3.3559    9.3084 C   0  0  0  0  0  0  0  0  0  0  0  0
   45.2288    4.3926    8.5496 C   0  0  0  0  0  0  0  0  0  0  0  0
   46.0980    5.3573    7.6958 H   0  0  0  0  0  0  0  0  0  0  0  0
   45.0656    0.7239    9.1345 H   0  0  0  0  0  0  0  0  0  0  0  0
   44.3896    4.9541    9.4330 H   0  0  0  0  0  0  0  0  0  0  0  0
   43.8789    2.6299   10.1476 H   0  0  0  0  0  0  0  0  0  0  0  0
   44.4785    1.2691    9.6961 H   0  0  0  0  0  0  0  0  0  0  0  0
   46.7020    4.8657    7.1031 H   0  0  0  0  0  0  0  0  0  0  0  0
   43.7915    3.6210   10.0048 H   0  0  0  0  0  0  0  0  0  0  0  0
   44.9108    5.4162    8.7018 H   0  0  0  0  0  0  0  0  0  0  0  0
  3  2  1  0
  4  2  1  0
  5  3  2  0
  6  2  1  0
  7  3  1  0
  8  6  2  0
  9  7  2  0
  8  9  1  0
 11 10  1  0
 12 10  1  0
 13 11  2  0
 14 10  1  0
 15 11  1  0
 16 14  2  0
 17 16  1  0
 15 17  2  0
  6 18  1  0
  7 19  1  0
  8 20  1  0
  9 21  1  0
 14 22  1  0
 15 23  1  0
 16 24  1  0
 17 25  1  0
M  CHG  3   1   2   4  -1  12  -1
M  END
> <Uni-Dock RESULT> 
ENERGY=   -7.377  LOWER_BOUND=    1.943  UPPER_BOUND=    2.758
INTER + INTRA:          -7.377
INTER:                  -7.377
INTRA:                   0.000
UNBOUND:                 0.000

$$$$

     RDKit          3D

 25 24  0  0  0  0  0  0  0  0999 V2000
   45.0624    3.4797    9.1309 Zn  0  0  0  0  0 15  0  0  0  0  0  0
   44.8578    4.6269    9.7319 N   0  0  0  0  0  0  0  0  0  0  0  0
   44.3274    3.4763   10.3359 C   0  0  0  0  0  0  0  0  0  0  0  0
   44.6884    5.8804   10.2998 O   0  0  0  0  0  0  0  0  0  0  0  0
   43.4361    3.3743   11.7747 S   0  0  0  0  0  0  0  0  0  0  0  0
   45.5738    4.6472    8.5619 C   0  0  0  0  0  0  0  0  0  0  0  0
   44.6242    2.2154    9.5575 C   0  0  0  0  0  0  0  0  0  0  0  0
   45.8183    3.5107    7.8978 C   0  0  0  0  0  0  0  0  0  0  0  0
   45.3264    2.2589    8.4155 C   0  0  0  0  0  0  0  0  0  0  0  0
   44.3443    2.8854   10.0529 N   0  0  0  0  0  0  0  0  0  0  0  0
   44.4904    4.2783   10.1445 C   0  0  0  0  0  0  0  0  0  0  0  0
   43.6019    2.1773   10.9856 O   0  0  0  0  0  0  0  0  0  0  0  0
   43.8444    5.3165   11.3192 S   0  0  0  0  0  0  0  0  0  0  0  0
   44.8932    2.0953    9.0750 C   0  0  0  0  0  0  0  0  0  0  0  0
   45.3359    4.8538    9.0317 C   0  0  0  0  0  0  0  0  0  0  0  0
   45.6374    2.6388    8.1036 C   0  0  0  0  0  0  0  0  0  0  0  0
   45.8626    4.0621    8.0858 C   0  0  0  0  0  0  0  0  0  0  0  0
   45.9261    5.6102    8.2065 H   0  0  0  0  0  0  0  0  0  0  0  0
   44.2497    1.2820    9.9560 H   0  0  0  0  0  0  0  0  0  0  0  0
   46.3822    3.5190    6.9746 H   0  0  0  0  0  0  0  0  0  0  0  0
   45.5386    1.3555    7.8582 H   0  0  0  0  0  0  0  0  0  0  0  0
   44.6995    1.0287    9.1249 H   0  0  0  0  0  0  0  0  0  0  0  0
   45.4979    5.9233    9.0290 H   0  0  0  0  0  0  0  0  0  0  0  0
   46.0735    2.0221    7.3292 H   0  0  0  0  0  0  0  0  0  0  0  0
   46.4682    4.4748    7.2890 H   0  0  0  0  0  0  0  0  0  0  0  0
  3  2  1  0
  4  2  1  0
  5  3  2  0
  6  2  1  0
  7  3  1  0
  8  6  2  0
  9  7  2  0
  8  9  1  0
 11 10  1  0
 12 10  1  0
 13 11  2  0
 14 10  1  0
 15 11  1  0
 16 14  2  0
 17 16  1  0
 15 17  2  0
  6 18  1  0
  7 19  1  0
  8 20  1  0
  9 21  1  0
 14 22  1  0
 15 23  1  0
 16 24  1  0
 17 25  1  0
M  CHG  3   1   2   4  -1  12  -1
M  END
> <Uni-Dock RESULT> 
ENERGY=   -6.514  LOWER_BOUND=    2.258  UPPER_BOUND=    2.643
INTER + INTRA:          -6.514
INTER:                  -6.514
INTRA:                   0.000
UNBOUND:                 0.000

$$$$
