
     RDKit          3D

 42 44  0  0  0  0  0  0  0  0999 V2000
   50.3203  -17.2028   -7.4717 C   0  0  0  0  0  0  0  0  0  0  0  0
   48.8822  -17.1278   -7.1741 C   0  0  0  0  0  0  0  0  0  0  0  0
   51.2388  -16.5302   -6.5353 C   0  0  0  0  0  0  0  0  0  0  0  0
   48.9053  -14.5852   -7.3120 C   0  0  0  0  0  0  0  0  0  0  0  0
   50.1704  -14.2681   -6.9969 C   0  0  0  0  0  0  0  0  0  0  0  0
   48.2285  -15.8808   -7.0554 C   0  0  0  0  0  0  0  0  0  0  0  0
   51.1462  -15.1408   -6.3015 C   0  0  0  0  0  0  0  0  0  0  0  0
   50.7459  -17.8463   -8.5756 C   0  0  0  0  0  0  0  0  0  0  0  0
   53.7662  -18.6156  -10.7750 N   0  0  0  0  0  0  0  0  0  0  0  0
   52.1895  -17.8790   -9.0097 C   0  0  0  0  0  0  0  0  0  0  0  0
   52.1904  -17.2911   -5.8337 C   0  0  0  0  0  0  0  0  0  0  0  0
   48.1514  -18.3172   -7.0083 C   0  0  0  0  0  0  0  0  0  0  0  0
   52.3380  -18.4989  -10.4053 C   0  0  0  0  0  0  0  0  0  0  0  0
   52.0647  -14.5328   -5.4279 C   0  0  0  0  0  0  0  0  0  0  0  0
   46.8469  -15.8583   -6.7956 C   0  0  0  0  0  0  0  0  0  0  0  0
   54.2747  -17.3502  -11.3341 C   0  0  0  0  0  0  0  0  0  0  0  0
   53.9504  -19.6922  -11.7618 C   0  0  0  0  0  0  0  0  0  0  0  0
   53.0792  -16.6747   -4.9522 C   0  0  0  0  0  0  0  0  0  0  0  0
   46.7847  -18.2745   -6.7306 C   0  0  0  0  0  0  0  0  0  0  0  0
   46.1331  -17.0465   -6.6249 C   0  0  0  0  0  0  0  0  0  0  0  0
   53.0221  -15.2957   -4.7561 C   0  0  0  0  0  0  0  0  0  0  0  0
   48.2934  -13.7886   -7.7200 H   0  0  0  0  0  0  0  0  0  0  0  0
   50.4728  -13.2423   -7.1746 H   0  0  0  0  0  0  0  0  0  0  0  0
   50.0063  -18.3054   -9.2236 H   0  0  0  0  0  0  0  0  0  0  0  0
   52.5827  -16.8410   -9.0160 H   0  0  0  0  0  0  0  0  0  0  0  0
   52.7799  -18.4829   -8.2894 H   0  0  0  0  0  0  0  0  0  0  0  0
   52.2392  -18.3649   -5.9642 H   0  0  0  0  0  0  0  0  0  0  0  0
   48.6439  -19.2790   -7.0889 H   0  0  0  0  0  0  0  0  0  0  0  0
   51.8646  -19.5074  -10.3691 H   0  0  0  0  0  0  0  0  0  0  0  0
   51.7732  -17.8973  -11.1544 H   0  0  0  0  0  0  0  0  0  0  0  0
   52.0322  -13.4637   -5.2553 H   0  0  0  0  0  0  0  0  0  0  0  0
   46.3181  -14.9155   -6.7235 H   0  0  0  0  0  0  0  0  0  0  0  0
   54.1927  -16.5316  -10.5904 H   0  0  0  0  0  0  0  0  0  0  0  0
   55.3537  -17.4480  -11.5819 H   0  0  0  0  0  0  0  0  0  0  0  0
   53.7201  -17.0612  -12.2549 H   0  0  0  0  0  0  0  0  0  0  0  0
   53.6598  -20.6693  -11.3195 H   0  0  0  0  0  0  0  0  0  0  0  0
   55.0210  -19.7747  -12.0496 H   0  0  0  0  0  0  0  0  0  0  0  0
   53.3407  -19.5098  -12.6751 H   0  0  0  0  0  0  0  0  0  0  0  0
   53.8131  -17.2669   -4.4212 H   0  0  0  0  0  0  0  0  0  0  0  0
   46.2295  -19.1946   -6.6013 H   0  0  0  0  0  0  0  0  0  0  0  0
   45.0712  -17.0144   -6.4175 H   0  0  0  0  0  0  0  0  0  0  0  0
   53.7162  -14.8171   -4.0774 H   0  0  0  0  0  0  0  0  0  0  0  0
  2  1  1  0
  3  1  1  0
  4  6  1  0
  5  7  1  0
  6  2  2  0
  7  3  2  0
  8  1  2  3
  9 13  1  0
 10  8  1  0
 11  3  1  0
 12  2  1  0
 13 10  1  0
 14  7  1  0
 15  6  1  0
 16  9  1  0
 17  9  1  0
 18 11  2  0
 19 12  2  0
 20 19  1  0
 21 18  1  0
  5  4  2  0
 21 14  2  0
 20 15  2  0
  4 22  1  0
  5 23  1  0
  8 24  1  0
 10 25  1  0
 10 26  1  0
 11 27  1  0
 12 28  1  0
 13 29  1  0
 13 30  1  0
 14 31  1  0
 15 32  1  0
 16 33  1  0
 16 34  1  0
 16 35  1  0
 17 36  1  0
 17 37  1  0
 17 38  1  0
 18 39  1  0
 19 40  1  0
 20 41  1  0
 21 42  1  0
M  END
> <Uni-Dock RESULT> 
ENERGY=   -6.433  LOWER_BOUND=    0.000  UPPER_BOUND=    0.000
INTER + INTRA:          -6.433
INTER:                  -6.433
INTRA:                   0.000
UNBOUND:                 0.000

$$$$

     RDKit          3D

 42 44  0  0  0  0  0  0  0  0999 V2000
   50.2409  -17.0778   -7.5806 C   0  0  0  0  0  0  0  0  0  0  0  0
   51.1434  -17.3360   -6.4488 C   0  0  0  0  0  0  0  0  0  0  0  0
   48.8000  -16.9797   -7.2854 C   0  0  0  0  0  0  0  0  0  0  0  0
   49.9878  -19.5446   -5.9282 C   0  0  0  0  0  0  0  0  0  0  0  0
   48.7444  -19.3636   -6.3990 C   0  0  0  0  0  0  0  0  0  0  0  0
   50.9878  -18.4859   -5.6426 C   0  0  0  0  0  0  0  0  0  0  0  0
   48.1035  -18.0627   -6.7059 C   0  0  0  0  0  0  0  0  0  0  0  0
   50.7398  -16.9650   -8.8264 C   0  0  0  0  0  0  0  0  0  0  0  0
   49.8654  -16.6631  -12.5272 N   0  0  0  0  0  0  0  0  0  0  0  0
   49.8765  -16.8069  -10.0526 C   0  0  0  0  0  0  0  0  0  0  0  0
   48.1214  -15.7759   -7.5447 C   0  0  0  0  0  0  0  0  0  0  0  0
   52.1759  -16.4233   -6.1706 C   0  0  0  0  0  0  0  0  0  0  0  0
   50.7073  -16.9195  -11.3375 C   0  0  0  0  0  0  0  0  0  0  0  0
   46.7224  -17.9402   -6.4736 C   0  0  0  0  0  0  0  0  0  0  0  0
   51.8905  -18.7047   -4.5871 C   0  0  0  0  0  0  0  0  0  0  0  0
   49.1463  -17.8813  -12.9409 C   0  0  0  0  0  0  0  0  0  0  0  0
   50.6954  -16.1849  -13.6450 C   0  0  0  0  0  0  0  0  0  0  0  0
   46.7549  -15.6639   -7.2860 C   0  0  0  0  0  0  0  0  0  0  0  0
   53.0496  -16.6471   -5.1059 C   0  0  0  0  0  0  0  0  0  0  0  0
   52.9074  -17.7867   -4.3155 C   0  0  0  0  0  0  0  0  0  0  0  0
   46.0543  -16.7478   -6.7591 C   0  0  0  0  0  0  0  0  0  0  0  0
   50.2588  -20.5575   -5.6524 H   0  0  0  0  0  0  0  0  0  0  0  0
   48.1156  -20.2444   -6.4614 H   0  0  0  0  0  0  0  0  0  0  0  0
   51.8117  -17.0627   -8.9646 H   0  0  0  0  0  0  0  0  0  0  0  0
   49.0943  -17.5942  -10.0408 H   0  0  0  0  0  0  0  0  0  0  0  0
   49.3854  -15.8116  -10.0346 H   0  0  0  0  0  0  0  0  0  0  0  0
   48.6534  -14.9202   -7.9412 H   0  0  0  0  0  0  0  0  0  0  0  0
   52.2995  -15.5339   -6.7769 H   0  0  0  0  0  0  0  0  0  0  0  0
   51.5218  -16.1615  -11.2699 H   0  0  0  0  0  0  0  0  0  0  0  0
   51.1938  -17.9206  -11.3934 H   0  0  0  0  0  0  0  0  0  0  0  0
   46.1609  -18.7679   -6.0571 H   0  0  0  0  0  0  0  0  0  0  0  0
   51.8069  -19.5907   -3.9693 H   0  0  0  0  0  0  0  0  0  0  0  0
   48.4748  -18.2343  -12.1320 H   0  0  0  0  0  0  0  0  0  0  0  0
   48.5001  -17.6642  -13.8188 H   0  0  0  0  0  0  0  0  0  0  0  0
   49.8528  -18.6985  -13.2091 H   0  0  0  0  0  0  0  0  0  0  0  0
   51.1694  -15.2151  -13.3808 H   0  0  0  0  0  0  0  0  0  0  0  0
   50.0669  -16.0019  -14.5435 H   0  0  0  0  0  0  0  0  0  0  0  0
   51.4901  -16.9215  -13.9001 H   0  0  0  0  0  0  0  0  0  0  0  0
   46.2387  -14.7357   -7.4948 H   0  0  0  0  0  0  0  0  0  0  0  0
   53.8401  -15.9382   -4.8961 H   0  0  0  0  0  0  0  0  0  0  0  0
   53.5906  -17.9636   -3.4948 H   0  0  0  0  0  0  0  0  0  0  0  0
   44.9929  -16.6625   -6.5650 H   0  0  0  0  0  0  0  0  0  0  0  0
  2  1  1  0
  3  1  1  0
  4  6  1  0
  5  7  1  0
  6  2  2  0
  7  3  2  0
  8  1  2  3
  9 13  1  0
 10  8  1  0
 11  3  1  0
 12  2  1  0
 13 10  1  0
 14  7  1  0
 15  6  1  0
 16  9  1  0
 17  9  1  0
 18 11  2  0
 19 12  2  0
 20 19  1  0
 21 18  1  0
  5  4  2  0
 21 14  2  0
 20 15  2  0
  4 22  1  0
  5 23  1  0
  8 24  1  0
 10 25  1  0
 10 26  1  0
 11 27  1  0
 12 28  1  0
 13 29  1  0
 13 30  1  0
 14 31  1  0
 15 32  1  0
 16 33  1  0
 16 34  1  0
 16 35  1  0
 17 36  1  0
 17 37  1  0
 17 38  1  0
 18 39  1  0
 19 40  1  0
 20 41  1  0
 21 42  1  0
M  END
> <Uni-Dock RESULT> 
ENERGY=   -5.372  LOWER_BOUND=    2.038  UPPER_BOUND=    4.949
INTER + INTRA:          -5.372
INTER:                  -5.372
INTRA:                   0.000
UNBOUND:                 0.000

$$$$

     RDKit          3D

 42 44  0  0  0  0  0  0  0  0999 V2000
   49.4192  -16.6497   -7.6015 C   0  0  0  0  0  0  0  0  0  0  0  0
   50.5553  -16.3240   -6.7265 C   0  0  0  0  0  0  0  0  0  0  0  0
   48.3537  -17.4970   -7.0361 C   0  0  0  0  0  0  0  0  0  0  0  0
   51.1528  -18.7841   -6.4534 C   0  0  0  0  0  0  0  0  0  0  0  0
   49.9825  -19.4117   -6.6452 C   0  0  0  0  0  0  0  0  0  0  0  0
   51.3446  -17.3442   -6.1499 C   0  0  0  0  0  0  0  0  0  0  0  0
   48.6353  -18.7984   -6.5663 C   0  0  0  0  0  0  0  0  0  0  0  0
   49.3957  -16.1969   -8.8696 C   0  0  0  0  0  0  0  0  0  0  0  0
   47.5713  -16.3680  -12.2153 N   0  0  0  0  0  0  0  0  0  0  0  0
   48.3244  -16.5714   -9.8624 C   0  0  0  0  0  0  0  0  0  0  0  0
   47.0492  -16.9847   -6.9237 C   0  0  0  0  0  0  0  0  0  0  0  0
   50.8573  -14.9761   -6.4649 C   0  0  0  0  0  0  0  0  0  0  0  0
   48.6760  -16.0815  -11.2732 C   0  0  0  0  0  0  0  0  0  0  0  0
   47.5834  -19.5866   -6.0675 C   0  0  0  0  0  0  0  0  0  0  0  0
   52.4367  -16.9848   -5.3406 C   0  0  0  0  0  0  0  0  0  0  0  0
   47.6530  -17.7486  -12.7249 C   0  0  0  0  0  0  0  0  0  0  0  0
   47.6112  -15.4283  -13.3477 C   0  0  0  0  0  0  0  0  0  0  0  0
   46.0216  -17.7727   -6.4042 C   0  0  0  0  0  0  0  0  0  0  0  0
   51.9330  -14.6393   -5.6425 C   0  0  0  0  0  0  0  0  0  0  0  0
   52.7221  -15.6425   -5.0815 C   0  0  0  0  0  0  0  0  0  0  0  0
   46.2866  -19.0754   -5.9846 C   0  0  0  0  0  0  0  0  0  0  0  0
   52.0400  -19.4073   -6.4380 H   0  0  0  0  0  0  0  0  0  0  0  0
   50.0225  -20.4883   -6.7659 H   0  0  0  0  0  0  0  0  0  0  0  0
   50.2248  -15.5890   -9.2167 H   0  0  0  0  0  0  0  0  0  0  0  0
   48.2124  -17.6757   -9.8653 H   0  0  0  0  0  0  0  0  0  0  0  0
   47.3603  -16.1129   -9.5585 H   0  0  0  0  0  0  0  0  0  0  0  0
   46.8293  -15.9703   -7.2324 H   0  0  0  0  0  0  0  0  0  0  0  0
   50.2538  -14.1856   -6.8949 H   0  0  0  0  0  0  0  0  0  0  0  0
   48.8510  -14.9827  -11.2056 H   0  0  0  0  0  0  0  0  0  0  0  0
   49.6300  -16.5460  -11.6140 H   0  0  0  0  0  0  0  0  0  0  0  0
   47.7695  -20.5987   -5.7286 H   0  0  0  0  0  0  0  0  0  0  0  0
   53.0714  -17.7478   -4.9061 H   0  0  0  0  0  0  0  0  0  0  0  0
   47.5751  -18.4788  -11.8939 H   0  0  0  0  0  0  0  0  0  0  0  0
   46.8023  -17.9542  -13.4100 H   0  0  0  0  0  0  0  0  0  0  0  0
   48.6056  -17.9231  -13.2737 H   0  0  0  0  0  0  0  0  0  0  0  0
   47.4546  -14.3889  -12.9870 H   0  0  0  0  0  0  0  0  0  0  0  0
   46.7888  -15.6483  -14.0627 H   0  0  0  0  0  0  0  0  0  0  0  0
   48.5851  -15.4852  -13.8839 H   0  0  0  0  0  0  0  0  0  0  0  0
   45.0188  -17.3729   -6.3274 H   0  0  0  0  0  0  0  0  0  0  0  0
   52.1573  -13.5994   -5.4433 H   0  0  0  0  0  0  0  0  0  0  0  0
   53.5613  -15.3801   -4.4502 H   0  0  0  0  0  0  0  0  0  0  0  0
   45.4877  -19.6885   -5.5879 H   0  0  0  0  0  0  0  0  0  0  0  0
  2  1  1  0
  3  1  1  0
  4  6  1  0
  5  7  1  0
  6  2  2  0
  7  3  2  0
  8  1  2  3
  9 13  1  0
 10  8  1  0
 11  3  1  0
 12  2  1  0
 13 10  1  0
 14  7  1  0
 15  6  1  0
 16  9  1  0
 17  9  1  0
 18 11  2  0
 19 12  2  0
 20 19  1  0
 21 18  1  0
  5  4  2  0
 21 14  2  0
 20 15  2  0
  4 22  1  0
  5 23  1  0
  8 24  1  0
 10 25  1  0
 10 26  1  0
 11 27  1  0
 12 28  1  0
 13 29  1  0
 13 30  1  0
 14 31  1  0
 15 32  1  0
 16 33  1  0
 16 34  1  0
 16 35  1  0
 17 36  1  0
 17 37  1  0
 17 38  1  0
 18 39  1  0
 19 40  1  0
 20 41  1  0
 21 42  1  0
M  END
> <Uni-Dock RESULT> 
ENERGY=   -5.352  LOWER_BOUND=    2.741  UPPER_BOUND=    5.439
INTER + INTRA:          -5.352
INTER:                  -5.352
INTRA:                   0.000
UNBOUND:                 0.000

$$$$

     RDKit          3D

 42 44  0  0  0  0  0  0  0  0999 V2000
   49.3483  -17.9369   -7.4794 C   0  0  0  0  0  0  0  0  0  0  0  0
   48.1731  -18.4848   -6.7858 C   0  0  0  0  0  0  0  0  0  0  0  0
   49.7349  -16.5508   -7.1593 C   0  0  0  0  0  0  0  0  0  0  0  0
   46.6598  -16.6821   -7.7576 C   0  0  0  0  0  0  0  0  0  0  0  0
   47.4988  -15.6592   -7.9817 C   0  0  0  0  0  0  0  0  0  0  0  0
   46.9113  -17.8573   -6.8869 C   0  0  0  0  0  0  0  0  0  0  0  0
   48.8425  -15.4796   -7.3822 C   0  0  0  0  0  0  0  0  0  0  0  0
   50.0072  -18.6882   -8.3822 C   0  0  0  0  0  0  0  0  0  0  0  0
   52.7470  -18.6972  -11.0365 N   0  0  0  0  0  0  0  0  0  0  0  0
   51.1532  -18.1684   -9.2130 C   0  0  0  0  0  0  0  0  0  0  0  0
   50.9928  -16.2993   -6.5837 C   0  0  0  0  0  0  0  0  0  0  0  0
   48.3124  -19.6514   -6.0139 C   0  0  0  0  0  0  0  0  0  0  0  0
   51.5592  -19.1770  -10.2956 C   0  0  0  0  0  0  0  0  0  0  0  0
   49.2641  -14.1692   -7.0966 C   0  0  0  0  0  0  0  0  0  0  0  0
   45.8104  -18.4317   -6.2273 C   0  0  0  0  0  0  0  0  0  0  0  0
   52.3611  -17.7675  -12.1131 C   0  0  0  0  0  0  0  0  0  0  0  0
   53.4798  -19.8350  -11.6156 C   0  0  0  0  0  0  0  0  0  0  0  0
   51.3860  -14.9944   -6.2845 C   0  0  0  0  0  0  0  0  0  0  0  0
   47.2124  -20.1954   -5.3497 C   0  0  0  0  0  0  0  0  0  0  0  0
   45.9628  -19.5865   -5.4568 C   0  0  0  0  0  0  0  0  0  0  0  0
   50.5260  -13.9296   -6.5487 C   0  0  0  0  0  0  0  0  0  0  0  0
   45.6694  -16.6004   -8.1911 H   0  0  0  0  0  0  0  0  0  0  0  0
   47.1149  -14.8370   -8.5748 H   0  0  0  0  0  0  0  0  0  0  0  0
   49.6528  -19.6959   -8.5730 H   0  0  0  0  0  0  0  0  0  0  0  0
   50.8447  -17.2131   -9.6864 H   0  0  0  0  0  0  0  0  0  0  0  0
   52.0297  -17.9792   -8.5588 H   0  0  0  0  0  0  0  0  0  0  0  0
   51.6673  -17.1162   -6.3596 H   0  0  0  0  0  0  0  0  0  0  0  0
   49.2770  -20.1364   -5.9224 H   0  0  0  0  0  0  0  0  0  0  0  0
   51.7877  -20.1385   -9.7801 H   0  0  0  0  0  0  0  0  0  0  0  0
   50.7027  -19.3678  -10.9828 H   0  0  0  0  0  0  0  0  0  0  0  0
   48.6079  -13.3283   -7.2869 H   0  0  0  0  0  0  0  0  0  0  0  0
   44.8276  -17.9830   -6.3085 H   0  0  0  0  0  0  0  0  0  0  0  0
   51.8499  -16.8757  -11.6969 H   0  0  0  0  0  0  0  0  0  0  0  0
   53.2662  -17.3978  -12.6416 H   0  0  0  0  0  0  0  0  0  0  0  0
   51.6897  -18.2589  -12.8526 H   0  0  0  0  0  0  0  0  0  0  0  0
   53.8599  -20.4956  -10.8069 H   0  0  0  0  0  0  0  0  0  0  0  0
   54.3666  -19.4765  -12.1820 H   0  0  0  0  0  0  0  0  0  0  0  0
   52.8287  -20.4288  -12.2957 H   0  0  0  0  0  0  0  0  0  0  0  0
   52.3587  -14.8088   -5.8478 H   0  0  0  0  0  0  0  0  0  0  0  0
   47.3283  -21.0921   -4.7548 H   0  0  0  0  0  0  0  0  0  0  0  0
   45.1083  -20.0137   -4.9478 H   0  0  0  0  0  0  0  0  0  0  0  0
   50.8342  -12.9169   -6.3227 H   0  0  0  0  0  0  0  0  0  0  0  0
  2  1  1  0
  3  1  1  0
  4  6  1  0
  5  7  1  0
  6  2  2  0
  7  3  2  0
  8  1  2  3
  9 13  1  0
 10  8  1  0
 11  3  1  0
 12  2  1  0
 13 10  1  0
 14  7  1  0
 15  6  1  0
 16  9  1  0
 17  9  1  0
 18 11  2  0
 19 12  2  0
 20 19  1  0
 21 18  1  0
  5  4  2  0
 21 14  2  0
 20 15  2  0
  4 22  1  0
  5 23  1  0
  8 24  1  0
 10 25  1  0
 10 26  1  0
 11 27  1  0
 12 28  1  0
 13 29  1  0
 13 30  1  0
 14 31  1  0
 15 32  1  0
 16 33  1  0
 16 34  1  0
 16 35  1  0
 17 36  1  0
 17 37  1  0
 17 38  1  0
 18 39  1  0
 19 40  1  0
 20 41  1  0
 21 42  1  0
M  END
> <Uni-Dock RESULT> 
ENERGY=   -5.281  LOWER_BOUND=    1.237  UPPER_BOUND=    2.235
INTER + INTRA:          -5.281
INTER:                  -5.281
INTRA:                   0.000
UNBOUND:                 0.000

$$$$

     RDKit          3D

 42 44  0  0  0  0  0  0  0  0999 V2000
   47.8760  -17.1993   -7.8475 C   0  0  0  0  0  0  0  0  0  0  0  0
   48.8969  -16.2498   -7.3800 C   0  0  0  0  0  0  0  0  0  0  0  0
   47.4336  -18.2360   -6.8974 C   0  0  0  0  0  0  0  0  0  0  0  0
   50.5665  -18.1269   -6.9643 C   0  0  0  0  0  0  0  0  0  0  0  0
   49.7850  -19.1928   -6.7330 C   0  0  0  0  0  0  0  0  0  0  0  0
   50.1540  -16.7020   -6.9203 C   0  0  0  0  0  0  0  0  0  0  0  0
   48.3511  -19.1642   -6.3586 C   0  0  0  0  0  0  0  0  0  0  0  0
   47.4033  -17.1131   -9.1055 C   0  0  0  0  0  0  0  0  0  0  0  0
   45.2235  -18.7937  -11.7467 N   0  0  0  0  0  0  0  0  0  0  0  0
   46.4374  -18.1086   -9.6969 C   0  0  0  0  0  0  0  0  0  0  0  0
   46.0885  -18.2718   -6.4899 C   0  0  0  0  0  0  0  0  0  0  0  0
   48.6134  -14.8730   -7.3948 C   0  0  0  0  0  0  0  0  0  0  0  0
   46.2476  -17.8752  -11.2014 C   0  0  0  0  0  0  0  0  0  0  0  0
   47.8811  -20.1591   -5.4835 C   0  0  0  0  0  0  0  0  0  0  0  0
   51.1085  -15.7559   -6.5073 C   0  0  0  0  0  0  0  0  0  0  0  0
   45.8077  -20.1073  -12.0716 C   0  0  0  0  0  0  0  0  0  0  0  0
   44.6165  -18.2182  -12.9581 C   0  0  0  0  0  0  0  0  0  0  0  0
   45.6438  -19.2519   -5.6020 C   0  0  0  0  0  0  0  0  0  0  0  0
   49.5662  -13.9501   -6.9617 C   0  0  0  0  0  0  0  0  0  0  0  0
   50.8125  -14.3911   -6.5190 C   0  0  0  0  0  0  0  0  0  0  0  0
   46.5374  -20.1999   -5.1060 C   0  0  0  0  0  0  0  0  0  0  0  0
   51.6216  -18.3239   -7.1177 H   0  0  0  0  0  0  0  0  0  0  0  0
   50.2747  -20.1599   -6.7168 H   0  0  0  0  0  0  0  0  0  0  0  0
   47.7888  -16.3296   -9.7499 H   0  0  0  0  0  0  0  0  0  0  0  0
   46.8298  -19.1320   -9.5221 H   0  0  0  0  0  0  0  0  0  0  0  0
   45.4514  -18.0111   -9.1964 H   0  0  0  0  0  0  0  0  0  0  0  0
   45.3844  -17.5346   -6.8551 H   0  0  0  0  0  0  0  0  0  0  0  0
   47.6497  -14.5153   -7.7374 H   0  0  0  0  0  0  0  0  0  0  0  0
   45.9255  -16.8160  -11.3317 H   0  0  0  0  0  0  0  0  0  0  0  0
   47.2202  -17.9908  -11.7332 H   0  0  0  0  0  0  0  0  0  0  0  0
   48.5607  -20.9004   -5.0803 H   0  0  0  0  0  0  0  0  0  0  0  0
   52.0882  -16.0758   -6.1729 H   0  0  0  0  0  0  0  0  0  0  0  0
   46.2286  -20.5849  -11.1635 H   0  0  0  0  0  0  0  0  0  0  0  0
   45.0203  -20.7916  -12.4551 H   0  0  0  0  0  0  0  0  0  0  0  0
   46.6089  -20.0167  -12.8389 H   0  0  0  0  0  0  0  0  0  0  0  0
   44.0891  -17.2725  -12.7084 H   0  0  0  0  0  0  0  0  0  0  0  0
   43.8544  -18.9112  -13.3761 H   0  0  0  0  0  0  0  0  0  0  0  0
   45.3866  -18.0120  -13.7350 H   0  0  0  0  0  0  0  0  0  0  0  0
   44.6051  -19.2765   -5.2986 H   0  0  0  0  0  0  0  0  0  0  0  0
   49.3393  -12.8919   -6.9733 H   0  0  0  0  0  0  0  0  0  0  0  0
   51.5539  -13.6740   -6.1908 H   0  0  0  0  0  0  0  0  0  0  0  0
   46.1904  -20.9641   -4.4225 H   0  0  0  0  0  0  0  0  0  0  0  0
  2  1  1  0
  3  1  1  0
  4  6  1  0
  5  7  1  0
  6  2  2  0
  7  3  2  0
  8  1  2  3
  9 13  1  0
 10  8  1  0
 11  3  1  0
 12  2  1  0
 13 10  1  0
 14  7  1  0
 15  6  1  0
 16  9  1  0
 17  9  1  0
 18 11  2  0
 19 12  2  0
 20 19  1  0
 21 18  1  0
  5  4  2  0
 21 14  2  0
 20 15  2  0
  4 22  1  0
  5 23  1  0
  8 24  1  0
 10 25  1  0
 10 26  1  0
 11 27  1  0
 12 28  1  0
 13 29  1  0
 13 30  1  0
 14 31  1  0
 15 32  1  0
 16 33  1  0
 16 34  1  0
 16 35  1  0
 17 36  1  0
 17 37  1  0
 17 38  1  0
 18 39  1  0
 19 40  1  0
 20 41  1  0
 21 42  1  0
M  END
> <Uni-Dock RESULT> 
ENERGY=   -5.010  LOWER_BOUND=    3.182  UPPER_BOUND=    5.869
INTER + INTRA:          -5.010
INTER:                  -5.010
INTRA:                   0.000
UNBOUND:                 0.000

$$$$

     RDKit          3D

 42 44  0  0  0  0  0  0  0  0999 V2000
   47.0036  -16.0308  -10.6983 C   0  0  0  0  0  0  0  0  0  0  0  0
   46.8119  -16.2636   -9.2591 C   0  0  0  0  0  0  0  0  0  0  0  0
   45.8119  -15.6712  -11.4879 C   0  0  0  0  0  0  0  0  0  0  0  0
   45.1858  -18.1721   -9.7033 C   0  0  0  0  0  0  0  0  0  0  0  0
   44.6718  -17.8694  -10.9052 C   0  0  0  0  0  0  0  0  0  0  0  0
   45.9137  -17.2509   -8.7956 C   0  0  0  0  0  0  0  0  0  0  0  0
   44.7025  -16.5414  -11.5630 C   0  0  0  0  0  0  0  0  0  0  0  0
   48.2259  -16.1725  -11.2455 C   0  0  0  0  0  0  0  0  0  0  0  0
   50.1966  -16.2624  -14.5105 N   0  0  0  0  0  0  0  0  0  0  0  0
   48.4885  -16.0570  -12.7259 C   0  0  0  0  0  0  0  0  0  0  0  0
   45.7634  -14.4257  -12.1384 C   0  0  0  0  0  0  0  0  0  0  0  0
   47.5372  -15.4911   -8.3352 C   0  0  0  0  0  0  0  0  0  0  0  0
   49.9234  -16.4758  -13.0719 C   0  0  0  0  0  0  0  0  0  0  0  0
   43.6007  -16.1760  -12.3561 C   0  0  0  0  0  0  0  0  0  0  0  0
   45.7824  -17.4557   -7.4108 C   0  0  0  0  0  0  0  0  0  0  0  0
   49.7198  -17.4010  -15.3159 C   0  0  0  0  0  0  0  0  0  0  0  0
   51.6403  -16.0798  -14.7331 C   0  0  0  0  0  0  0  0  0  0  0  0
   44.6517  -14.0689  -12.9023 C   0  0  0  0  0  0  0  0  0  0  0  0
   47.3782  -15.6951   -6.9640 C   0  0  0  0  0  0  0  0  0  0  0  0
   46.5023  -16.6766   -6.5024 C   0  0  0  0  0  0  0  0  0  0  0  0
   43.5750  -14.9469  -13.0182 C   0  0  0  0  0  0  0  0  0  0  0  0
   44.9768  -19.1658   -9.3232 H   0  0  0  0  0  0  0  0  0  0  0  0
   44.0894  -18.6427  -11.3932 H   0  0  0  0  0  0  0  0  0  0  0  0
   49.0518  -16.4528  -10.5999 H   0  0  0  0  0  0  0  0  0  0  0  0
   47.7674  -16.7047  -13.2667 H   0  0  0  0  0  0  0  0  0  0  0  0
   48.3392  -15.0054  -13.0481 H   0  0  0  0  0  0  0  0  0  0  0  0
   46.5853  -13.7265  -12.0476 H   0  0  0  0  0  0  0  0  0  0  0  0
   48.2225  -14.7255   -8.6790 H   0  0  0  0  0  0  0  0  0  0  0  0
   50.6069  -15.8506  -12.4518 H   0  0  0  0  0  0  0  0  0  0  0  0
   50.0940  -17.5378  -12.7801 H   0  0  0  0  0  0  0  0  0  0  0  0
   42.7503  -16.8404  -12.4528 H   0  0  0  0  0  0  0  0  0  0  0  0
   45.1181  -18.2226   -7.0309 H   0  0  0  0  0  0  0  0  0  0  0  0
   48.6239  -17.5290  -15.2041 H   0  0  0  0  0  0  0  0  0  0  0  0
   49.9097  -17.2124  -16.3946 H   0  0  0  0  0  0  0  0  0  0  0  0
   50.2279  -18.3469  -15.0224 H   0  0  0  0  0  0  0  0  0  0  0  0
   51.9951  -15.1673  -14.2073 H   0  0  0  0  0  0  0  0  0  0  0  0
   51.8495  -15.9302  -15.8146 H   0  0  0  0  0  0  0  0  0  0  0  0
   52.2180  -16.9586  -14.3683 H   0  0  0  0  0  0  0  0  0  0  0  0
   44.6253  -13.1110  -13.4053 H   0  0  0  0  0  0  0  0  0  0  0  0
   47.9378  -15.0943   -6.2588 H   0  0  0  0  0  0  0  0  0  0  0  0
   46.3857  -16.8397   -5.4387 H   0  0  0  0  0  0  0  0  0  0  0  0
   42.7158  -14.6725  -13.6165 H   0  0  0  0  0  0  0  0  0  0  0  0
  2  1  1  0
  3  1  1  0
  4  6  1  0
  5  7  1  0
  6  2  2  0
  7  3  2  0
  8  1  2  3
  9 13  1  0
 10  8  1  0
 11  3  1  0
 12  2  1  0
 13 10  1  0
 14  7  1  0
 15  6  1  0
 16  9  1  0
 17  9  1  0
 18 11  2  0
 19 12  2  0
 20 19  1  0
 21 18  1  0
  5  4  2  0
 21 14  2  0
 20 15  2  0
  4 22  1  0
  5 23  1  0
  8 24  1  0
 10 25  1  0
 10 26  1  0
 11 27  1  0
 12 28  1  0
 13 29  1  0
 13 30  1  0
 14 31  1  0
 15 32  1  0
 16 33  1  0
 16 34  1  0
 16 35  1  0
 17 36  1  0
 17 37  1  0
 17 38  1  0
 18 39  1  0
 19 40  1  0
 20 41  1  0
 21 42  1  0
M  END
> <Uni-Dock RESULT> 
ENERGY=   -4.802  LOWER_BOUND=    4.486  UPPER_BOUND=    6.730
INTER + INTRA:          -4.802
INTER:                  -4.802
INTRA:                   0.000
UNBOUND:                 0.000

$$$$

     RDKit          3D

 42 44  0  0  0  0  0  0  0  0999 V2000
   48.9259  -17.4166   -8.4214 C   0  0  0  0  0  0  0  0  0  0  0  0
   48.3262  -16.8294   -9.6288 C   0  0  0  0  0  0  0  0  0  0  0  0
   48.0248  -18.1334   -7.5009 C   0  0  0  0  0  0  0  0  0  0  0  0
   46.7879  -15.3488   -8.2411 C   0  0  0  0  0  0  0  0  0  0  0  0
   46.6487  -16.0326   -7.0950 C   0  0  0  0  0  0  0  0  0  0  0  0
   47.2815  -15.8827   -9.5347 C   0  0  0  0  0  0  0  0  0  0  0  0
   46.9351  -17.4728   -6.8928 C   0  0  0  0  0  0  0  0  0  0  0  0
   50.2430  -17.2666   -8.1836 C   0  0  0  0  0  0  0  0  0  0  0  0
   53.0418  -17.8044   -5.6480 N   0  0  0  0  0  0  0  0  0  0  0  0
   50.9158  -17.7438   -6.9214 C   0  0  0  0  0  0  0  0  0  0  0  0
   48.2287  -19.5036   -7.2609 C   0  0  0  0  0  0  0  0  0  0  0  0
   48.8046  -17.2174  -10.8924 C   0  0  0  0  0  0  0  0  0  0  0  0
   52.3651  -17.2467   -6.8400 C   0  0  0  0  0  0  0  0  0  0  0  0
   46.1214  -18.1840   -5.9936 C   0  0  0  0  0  0  0  0  0  0  0  0
   46.7564  -15.3288  -10.7155 C   0  0  0  0  0  0  0  0  0  0  0  0
   52.7483  -17.0019   -4.4471 C   0  0  0  0  0  0  0  0  0  0  0  0
   54.4976  -17.8458   -5.8616 C   0  0  0  0  0  0  0  0  0  0  0  0
   47.3969  -20.1999   -6.3834 C   0  0  0  0  0  0  0  0  0  0  0  0
   48.2568  -16.6717  -12.0540 C   0  0  0  0  0  0  0  0  0  0  0  0
   47.2343  -15.7281  -11.9655 C   0  0  0  0  0  0  0  0  0  0  0  0
   46.3495  -19.5388   -5.7437 C   0  0  0  0  0  0  0  0  0  0  0  0
   46.4268  -14.3265   -8.2422 H   0  0  0  0  0  0  0  0  0  0  0  0
   46.1850  -15.5062   -6.2685 H   0  0  0  0  0  0  0  0  0  0  0  0
   50.8383  -16.7136   -8.9029 H   0  0  0  0  0  0  0  0  0  0  0  0
   50.3409  -17.3700   -6.0487 H   0  0  0  0  0  0  0  0  0  0  0  0
   50.9206  -18.8536   -6.9003 H   0  0  0  0  0  0  0  0  0  0  0  0
   49.0291  -20.0353   -7.7601 H   0  0  0  0  0  0  0  0  0  0  0  0
   49.5996  -17.9487  -10.9768 H   0  0  0  0  0  0  0  0  0  0  0  0
   52.8805  -17.5826   -7.7696 H   0  0  0  0  0  0  0  0  0  0  0  0
   52.3887  -16.1324   -6.8353 H   0  0  0  0  0  0  0  0  0  0  0  0
   45.2971  -17.6910   -5.4921 H   0  0  0  0  0  0  0  0  0  0  0  0
   45.9713  -14.5836  -10.6693 H   0  0  0  0  0  0  0  0  0  0  0  0
   51.6596  -16.9962   -4.2354 H   0  0  0  0  0  0  0  0  0  0  0  0
   53.2429  -17.4494   -3.5580 H   0  0  0  0  0  0  0  0  0  0  0  0
   53.1012  -15.9527   -4.5636 H   0  0  0  0  0  0  0  0  0  0  0  0
   54.7403  -18.5250   -6.7070 H   0  0  0  0  0  0  0  0  0  0  0  0
   55.0095  -18.2542   -4.9633 H   0  0  0  0  0  0  0  0  0  0  0  0
   54.9011  -16.8318   -6.0813 H   0  0  0  0  0  0  0  0  0  0  0  0
   47.5649  -21.2531   -6.1991 H   0  0  0  0  0  0  0  0  0  0  0  0
   48.6283  -16.9778  -13.0233 H   0  0  0  0  0  0  0  0  0  0  0  0
   46.8155  -15.2993  -12.8669 H   0  0  0  0  0  0  0  0  0  0  0  0
   45.7088  -20.0778   -5.0579 H   0  0  0  0  0  0  0  0  0  0  0  0
  2  1  1  0
  3  1  1  0
  4  6  1  0
  5  7  1  0
  6  2  2  0
  7  3  2  0
  8  1  2  3
  9 13  1  0
 10  8  1  0
 11  3  1  0
 12  2  1  0
 13 10  1  0
 14  7  1  0
 15  6  1  0
 16  9  1  0
 17  9  1  0
 18 11  2  0
 19 12  2  0
 20 19  1  0
 21 18  1  0
  5  4  2  0
 21 14  2  0
 20 15  2  0
  4 22  1  0
  5 23  1  0
  8 24  1  0
 10 25  1  0
 10 26  1  0
 11 27  1  0
 12 28  1  0
 13 29  1  0
 13 30  1  0
 14 31  1  0
 15 32  1  0
 16 33  1  0
 16 34  1  0
 16 35  1  0
 17 36  1  0
 17 37  1  0
 17 38  1  0
 18 39  1  0
 19 40  1  0
 20 41  1  0
 21 42  1  0
M  END
> <Uni-Dock RESULT> 
ENERGY=   -4.394  LOWER_BOUND=    2.612  UPPER_BOUND=    4.835
INTER + INTRA:          -4.394
INTER:                  -4.394
INTRA:                   0.000
UNBOUND:                 0.000

$$$$

     RDKit          3D

 42 44  0  0  0  0  0  0  0  0999 V2000
   47.0128  -16.3036  -10.0807 C   0  0  0  0  0  0  0  0  0  0  0  0
   47.2778  -15.8287  -11.4469 C   0  0  0  0  0  0  0  0  0  0  0  0
   48.0402  -16.0290   -9.0600 C   0  0  0  0  0  0  0  0  0  0  0  0
   49.3853  -17.2478  -11.6167 C   0  0  0  0  0  0  0  0  0  0  0  0
   49.7771  -17.3768  -10.3399 C   0  0  0  0  0  0  0  0  0  0  0  0
   48.4293  -16.2465  -12.1512 C   0  0  0  0  0  0  0  0  0  0  0  0
   49.3543  -16.5255   -9.2024 C   0  0  0  0  0  0  0  0  0  0  0  0
   45.8796  -16.9799   -9.8118 C   0  0  0  0  0  0  0  0  0  0  0  0
   43.9892  -18.9871   -7.1758 N   0  0  0  0  0  0  0  0  0  0  0  0
   45.5805  -17.5921   -8.4667 C   0  0  0  0  0  0  0  0  0  0  0  0
   47.7173  -15.2252   -7.9526 C   0  0  0  0  0  0  0  0  0  0  0  0
   46.3679  -14.9479  -12.0572 C   0  0  0  0  0  0  0  0  0  0  0  0
   44.3267  -18.4747   -8.5224 C   0  0  0  0  0  0  0  0  0  0  0  0
   50.2940  -16.2706   -8.1883 C   0  0  0  0  0  0  0  0  0  0  0  0
   48.6279  -15.7868  -13.4650 C   0  0  0  0  0  0  0  0  0  0  0  0
   44.7694  -20.1964   -6.8572 C   0  0  0  0  0  0  0  0  0  0  0  0
   42.5530  -19.2996   -7.0949 C   0  0  0  0  0  0  0  0  0  0  0  0
   48.6693  -14.9625   -6.9669 C   0  0  0  0  0  0  0  0  0  0  0  0
   46.5926  -14.4862  -13.3547 C   0  0  0  0  0  0  0  0  0  0  0  0
   47.7211  -14.9056  -14.0579 C   0  0  0  0  0  0  0  0  0  0  0  0
   49.9539  -15.4919   -7.0803 C   0  0  0  0  0  0  0  0  0  0  0  0
   49.8786  -17.8855  -12.3417 H   0  0  0  0  0  0  0  0  0  0  0  0
   50.5549  -18.1055  -10.1416 H   0  0  0  0  0  0  0  0  0  0  0  0
   45.1775  -17.1541  -10.6207 H   0  0  0  0  0  0  0  0  0  0  0  0
   46.4538  -18.1997   -8.1503 H   0  0  0  0  0  0  0  0  0  0  0  0
   45.4136  -16.7867   -7.7214 H   0  0  0  0  0  0  0  0  0  0  0  0
   46.7282  -14.7951   -7.8562 H   0  0  0  0  0  0  0  0  0  0  0  0
   45.4858  -14.6143  -11.5237 H   0  0  0  0  0  0  0  0  0  0  0  0
   43.4966  -17.8424   -8.9145 H   0  0  0  0  0  0  0  0  0  0  0  0
   44.4759  -19.3079   -9.2475 H   0  0  0  0  0  0  0  0  0  0  0  0
   51.3002  -16.6659   -8.2611 H   0  0  0  0  0  0  0  0  0  0  0  0
   49.4906  -16.1111  -14.0345 H   0  0  0  0  0  0  0  0  0  0  0  0
   45.8561  -19.9749   -6.8627 H   0  0  0  0  0  0  0  0  0  0  0  0
   44.5224  -20.5521   -5.8336 H   0  0  0  0  0  0  0  0  0  0  0  0
   44.5620  -21.0159   -7.5814 H   0  0  0  0  0  0  0  0  0  0  0  0
   41.9526  -18.3756   -7.2388 H   0  0  0  0  0  0  0  0  0  0  0  0
   42.2988  -19.6952   -6.0876 H   0  0  0  0  0  0  0  0  0  0  0  0
   42.2600  -20.0482   -7.8649 H   0  0  0  0  0  0  0  0  0  0  0  0
   48.4104  -14.3483   -6.1142 H   0  0  0  0  0  0  0  0  0  0  0  0
   45.8890  -13.8059  -13.8167 H   0  0  0  0  0  0  0  0  0  0  0  0
   47.8904  -14.5534  -15.0673 H   0  0  0  0  0  0  0  0  0  0  0  0
   50.6900  -15.2935   -6.3120 H   0  0  0  0  0  0  0  0  0  0  0  0
  2  1  1  0
  3  1  1  0
  4  6  1  0
  5  7  1  0
  6  2  2  0
  7  3  2  0
  8  1  2  3
  9 13  1  0
 10  8  1  0
 11  3  1  0
 12  2  1  0
 13 10  1  0
 14  7  1  0
 15  6  1  0
 16  9  1  0
 17  9  1  0
 18 11  2  0
 19 12  2  0
 20 19  1  0
 21 18  1  0
  5  4  2  0
 21 14  2  0
 20 15  2  0
  4 22  1  0
  5 23  1  0
  8 24  1  0
 10 25  1  0
 10 26  1  0
 11 27  1  0
 12 28  1  0
 13 29  1  0
 13 30  1  0
 14 31  1  0
 15 32  1  0
 16 33  1  0
 16 34  1  0
 16 35  1  0
 17 36  1  0
 17 37  1  0
 17 38  1  0
 18 39  1  0
 19 40  1  0
 20 41  1  0
 21 42  1  0
M  END
> <Uni-Dock RESULT> 
ENERGY=   -4.337  LOWER_BOUND=    4.288  UPPER_BOUND=    6.738
INTER + INTRA:          -4.337
INTER:                  -4.337
INTRA:                   0.000
UNBOUND:                 0.000

$$$$
