
     RDKit          3D

 42 44  0  0  0  0  0  0  0  0999 V2000
   49.1556  -17.8984   -7.5955 C   0  0  0  0  0  0  0  0  0  0  0  0
   49.5044  -16.4986   -7.3004 C   0  0  0  0  0  0  0  0  0  0  0  0
   48.0394  -18.4788   -6.8349 C   0  0  0  0  0  0  0  0  0  0  0  0
   47.2052  -15.6956   -8.0298 C   0  0  0  0  0  0  0  0  0  0  0  0
   46.4154  -16.7450   -7.7531 C   0  0  0  0  0  0  0  0  0  0  0  0
   48.5675  -15.4612   -7.4947 C   0  0  0  0  0  0  0  0  0  0  0  0
   46.7518  -17.8986   -6.8812 C   0  0  0  0  0  0  0  0  0  0  0  0
   49.8000  -18.6445   -8.5143 C   0  0  0  0  0  0  0  0  0  0  0  0
   52.7752  -18.9242   -8.1308 N   0  0  0  0  0  0  0  0  0  0  0  0
   50.8486  -18.1261   -9.4678 C   0  0  0  0  0  0  0  0  0  0  0  0
   48.2605  -19.6270   -6.0545 C   0  0  0  0  0  0  0  0  0  0  0  0
   50.7677  -16.2028   -6.7609 C   0  0  0  0  0  0  0  0  0  0  0  0
   52.0981  -19.0130   -9.4438 C   0  0  0  0  0  0  0  0  0  0  0  0
   45.7070  -18.5024   -6.1598 C   0  0  0  0  0  0  0  0  0  0  0  0
   48.9543  -14.1350   -7.2339 C   0  0  0  0  0  0  0  0  0  0  0  0
   53.4257  -20.2000   -7.7937 C   0  0  0  0  0  0  0  0  0  0  0  0
   53.7770  -17.8436   -8.1263 C   0  0  0  0  0  0  0  0  0  0  0  0
   47.2154  -20.1999   -5.3288 C   0  0  0  0  0  0  0  0  0  0  0  0
   51.1283  -14.8835   -6.4857 C   0  0  0  0  0  0  0  0  0  0  0  0
   50.2260  -13.8494   -6.7316 C   0  0  0  0  0  0  0  0  0  0  0  0
   45.9401  -19.6389   -5.3820 C   0  0  0  0  0  0  0  0  0  0  0  0
   46.7646  -14.8950   -8.6130 H   0  0  0  0  0  0  0  0  0  0  0  0
   45.4031  -16.7049   -8.1391 H   0  0  0  0  0  0  0  0  0  0  0  0
   49.4783  -19.6691   -8.6667 H   0  0  0  0  0  0  0  0  0  0  0  0
   51.1272  -17.0718   -9.2731 H   0  0  0  0  0  0  0  0  0  0  0  0
   50.4174  -18.1541  -10.4911 H   0  0  0  0  0  0  0  0  0  0  0  0
   49.2458  -20.0749   -6.0048 H   0  0  0  0  0  0  0  0  0  0  0  0
   51.4719  -16.9972   -6.5519 H   0  0  0  0  0  0  0  0  0  0  0  0
   52.7788  -18.7141  -10.2737 H   0  0  0  0  0  0  0  0  0  0  0  0
   51.7772  -20.0570   -9.6671 H   0  0  0  0  0  0  0  0  0  0  0  0
   44.7054  -18.0908   -6.1978 H   0  0  0  0  0  0  0  0  0  0  0  0
   48.2631  -13.3185   -7.4050 H   0  0  0  0  0  0  0  0  0  0  0  0
   54.1608  -20.4953   -8.5755 H   0  0  0  0  0  0  0  0  0  0  0  0
   52.6610  -21.0000   -7.6916 H   0  0  0  0  0  0  0  0  0  0  0  0
   53.9463  -20.1217   -6.8147 H   0  0  0  0  0  0  0  0  0  0  0  0
   54.6059  -18.0569   -8.8379 H   0  0  0  0  0  0  0  0  0  0  0  0
   54.1991  -17.7221   -7.1058 H   0  0  0  0  0  0  0  0  0  0  0  0
   53.3093  -16.8755   -8.4031 H   0  0  0  0  0  0  0  0  0  0  0  0
   47.3937  -21.0823   -4.7279 H   0  0  0  0  0  0  0  0  0  0  0  0
   52.1080  -14.6633   -6.0816 H   0  0  0  0  0  0  0  0  0  0  0  0
   50.5080  -12.8253   -6.5236 H   0  0  0  0  0  0  0  0  0  0  0  0
   45.1284  -20.0888   -4.8251 H   0  0  0  0  0  0  0  0  0  0  0  0
  2  1  1  0
  3  1  1  0
  4  6  1  0
  5  7  1  0
  6  2  2  0
  7  3  2  0
  8  1  2  3
  9 13  1  0
 10  8  1  0
 11  3  1  0
 12  2  1  0
 13 10  1  0
 14  7  1  0
 15  6  1  0
 16  9  1  0
 17  9  1  0
 18 11  2  0
 19 12  2  0
 20 19  1  0
 21 18  1  0
  5  4  2  0
 21 14  2  0
 20 15  2  0
  4 22  1  0
  5 23  1  0
  8 24  1  0
 10 25  1  0
 10 26  1  0
 11 27  1  0
 12 28  1  0
 13 29  1  0
 13 30  1  0
 14 31  1  0
 15 32  1  0
 16 33  1  0
 16 34  1  0
 16 35  1  0
 17 36  1  0
 17 37  1  0
 17 38  1  0
 18 39  1  0
 19 40  1  0
 20 41  1  0
 21 42  1  0
M  END
> <Uni-Dock RESULT> 
ENERGY=   -5.297  LOWER_BOUND=    0.000  UPPER_BOUND=    0.000
INTER + INTRA:          -5.297
INTER:                  -5.297
INTRA:                   0.000
UNBOUND:                 0.000

$$$$

     RDKit          3D

 42 44  0  0  0  0  0  0  0  0999 V2000
   49.1316  -16.8988   -7.9801 C   0  0  0  0  0  0  0  0  0  0  0  0
   48.4759  -17.9468   -7.1802 C   0  0  0  0  0  0  0  0  0  0  0  0
   48.4328  -16.4567   -9.1957 C   0  0  0  0  0  0  0  0  0  0  0  0
   46.4592  -16.4594   -6.7513 C   0  0  0  0  0  0  0  0  0  0  0  0
   46.4181  -15.6813   -7.8443 C   0  0  0  0  0  0  0  0  0  0  0  0
   47.2007  -17.7355   -6.6136 C   0  0  0  0  0  0  0  0  0  0  0  0
   47.1273  -15.9204   -9.1265 C   0  0  0  0  0  0  0  0  0  0  0  0
   50.3127  -16.3422   -7.6463 C   0  0  0  0  0  0  0  0  0  0  0  0
   52.6186  -18.2516   -7.3078 N   0  0  0  0  0  0  0  0  0  0  0  0
   51.0498  -16.5892   -6.3528 C   0  0  0  0  0  0  0  0  0  0  0  0
   49.0766  -16.5693  -10.4403 C   0  0  0  0  0  0  0  0  0  0  0  0
   49.1047  -19.1946   -7.0319 C   0  0  0  0  0  0  0  0  0  0  0  0
   52.5164  -16.9467   -6.6171 C   0  0  0  0  0  0  0  0  0  0  0  0
   46.5069  -15.4848  -10.3105 C   0  0  0  0  0  0  0  0  0  0  0  0
   46.6269  -18.7500   -5.8275 C   0  0  0  0  0  0  0  0  0  0  0  0
   53.7822  -18.2739   -8.2077 C   0  0  0  0  0  0  0  0  0  0  0  0
   52.7246  -19.3550   -6.3370 C   0  0  0  0  0  0  0  0  0  0  0  0
   48.4363  -16.1507  -11.6073 C   0  0  0  0  0  0  0  0  0  0  0  0
   48.5114  -20.1996   -6.2674 C   0  0  0  0  0  0  0  0  0  0  0  0
   47.2782  -19.9738   -5.6573 C   0  0  0  0  0  0  0  0  0  0  0  0
   47.1535  -15.6083  -11.5424 C   0  0  0  0  0  0  0  0  0  0  0  0
   45.8050  -16.1833   -5.9322 H   0  0  0  0  0  0  0  0  0  0  0  0
   45.7356  -14.8394   -7.8146 H   0  0  0  0  0  0  0  0  0  0  0  0
   50.7255  -15.5768   -8.2946 H   0  0  0  0  0  0  0  0  0  0  0  0
   50.5753  -17.3700   -5.7266 H   0  0  0  0  0  0  0  0  0  0  0  0
   51.0182  -15.6492   -5.7618 H   0  0  0  0  0  0  0  0  0  0  0  0
   50.0741  -16.9873  -10.5060 H   0  0  0  0  0  0  0  0  0  0  0  0
   50.0549  -19.3878   -7.5119 H   0  0  0  0  0  0  0  0  0  0  0  0
   53.0745  -16.9519   -5.6528 H   0  0  0  0  0  0  0  0  0  0  0  0
   52.9606  -16.1264   -7.2276 H   0  0  0  0  0  0  0  0  0  0  0  0
   45.5158  -15.0480  -10.2812 H   0  0  0  0  0  0  0  0  0  0  0  0
   45.6629  -18.5996   -5.3564 H   0  0  0  0  0  0  0  0  0  0  0  0
   54.7244  -18.0692   -7.6517 H   0  0  0  0  0  0  0  0  0  0  0  0
   53.6578  -17.5120   -9.0072 H   0  0  0  0  0  0  0  0  0  0  0  0
   53.8629  -19.2619   -8.7107 H   0  0  0  0  0  0  0  0  0  0  0  0
   53.6694  -19.2903   -5.7520 H   0  0  0  0  0  0  0  0  0  0  0  0
   52.6941  -20.3308   -6.8674 H   0  0  0  0  0  0  0  0  0  0  0  0
   51.8669  -19.3398   -5.6324 H   0  0  0  0  0  0  0  0  0  0  0  0
   48.9371  -16.2430  -12.5623 H   0  0  0  0  0  0  0  0  0  0  0  0
   49.0084  -21.1536   -6.1482 H   0  0  0  0  0  0  0  0  0  0  0  0
   46.8208  -20.7514   -5.0592 H   0  0  0  0  0  0  0  0  0  0  0  0
   46.6610  -15.2765  -12.4473 H   0  0  0  0  0  0  0  0  0  0  0  0
  2  1  1  0
  3  1  1  0
  4  6  1  0
  5  7  1  0
  6  2  2  0
  7  3  2  0
  8  1  2  3
  9 13  1  0
 10  8  1  0
 11  3  1  0
 12  2  1  0
 13 10  1  0
 14  7  1  0
 15  6  1  0
 16  9  1  0
 17  9  1  0
 18 11  2  0
 19 12  2  0
 20 19  1  0
 21 18  1  0
  5  4  2  0
 21 14  2  0
 20 15  2  0
  4 22  1  0
  5 23  1  0
  8 24  1  0
 10 25  1  0
 10 26  1  0
 11 27  1  0
 12 28  1  0
 13 29  1  0
 13 30  1  0
 14 31  1  0
 15 32  1  0
 16 33  1  0
 16 34  1  0
 16 35  1  0
 17 36  1  0
 17 37  1  0
 17 38  1  0
 18 39  1  0
 19 40  1  0
 20 41  1  0
 21 42  1  0
M  END
> <Uni-Dock RESULT> 
ENERGY=   -5.163  LOWER_BOUND=    1.687  UPPER_BOUND=    4.196
INTER + INTRA:          -5.163
INTER:                  -5.163
INTRA:                   0.000
UNBOUND:                 0.000

$$$$

     RDKit          3D

 42 44  0  0  0  0  0  0  0  0999 V2000
   49.3266  -17.4413   -7.6213 C   0  0  0  0  0  0  0  0  0  0  0  0
   48.4520  -18.3311   -6.8393 C   0  0  0  0  0  0  0  0  0  0  0  0
   50.2849  -16.6211   -6.8661 C   0  0  0  0  0  0  0  0  0  0  0  0
   50.4490  -19.6159   -5.9312 C   0  0  0  0  0  0  0  0  0  0  0  0
   51.4231  -18.6925   -5.9175 C   0  0  0  0  0  0  0  0  0  0  0  0
   48.9938  -19.3506   -6.0276 C   0  0  0  0  0  0  0  0  0  0  0  0
   51.2486  -17.2221   -6.0255 C   0  0  0  0  0  0  0  0  0  0  0  0
   49.2858  -17.3569   -8.9656 C   0  0  0  0  0  0  0  0  0  0  0  0
   46.6152  -16.6340  -10.1585 N   0  0  0  0  0  0  0  0  0  0  0  0
   48.4675  -18.2522   -9.8635 C   0  0  0  0  0  0  0  0  0  0  0  0
   50.2390  -15.2212   -6.9867 C   0  0  0  0  0  0  0  0  0  0  0  0
   47.0628  -18.1203   -6.8565 C   0  0  0  0  0  0  0  0  0  0  0  0
   47.6483  -17.4269  -10.8617 C   0  0  0  0  0  0  0  0  0  0  0  0
   52.1632  -16.4010   -5.3430 C   0  0  0  0  0  0  0  0  0  0  0  0
   48.1208  -20.1999   -5.3255 C   0  0  0  0  0  0  0  0  0  0  0  0
   46.3656  -15.3656  -10.8608 C   0  0  0  0  0  0  0  0  0  0  0  0
   45.3562  -17.3911  -10.0452 C   0  0  0  0  0  0  0  0  0  0  0  0
   51.1421  -14.4217   -6.2850 C   0  0  0  0  0  0  0  0  0  0  0  0
   46.2111  -18.9579   -6.1358 C   0  0  0  0  0  0  0  0  0  0  0  0
   46.7390  -20.0032   -5.3790 C   0  0  0  0  0  0  0  0  0  0  0  0
   52.1035  -15.0109   -5.4648 C   0  0  0  0  0  0  0  0  0  0  0  0
   50.7478  -20.6417   -5.7477 H   0  0  0  0  0  0  0  0  0  0  0  0
   52.4283  -19.0512   -5.7268 H   0  0  0  0  0  0  0  0  0  0  0  0
   49.9656  -16.6727   -9.4619 H   0  0  0  0  0  0  0  0  0  0  0  0
   47.8031  -18.9378   -9.3018 H   0  0  0  0  0  0  0  0  0  0  0  0
   49.1728  -18.8939  -10.4334 H   0  0  0  0  0  0  0  0  0  0  0  0
   49.4985  -14.7494   -7.6216 H   0  0  0  0  0  0  0  0  0  0  0  0
   46.6413  -17.3041   -7.4281 H   0  0  0  0  0  0  0  0  0  0  0  0
   47.1942  -18.1072  -11.6182 H   0  0  0  0  0  0  0  0  0  0  0  0
   48.3557  -16.7707  -11.4202 H   0  0  0  0  0  0  0  0  0  0  0  0
   52.9269  -16.8385   -4.7111 H   0  0  0  0  0  0  0  0  0  0  0  0
   48.5117  -21.0093   -4.7206 H   0  0  0  0  0  0  0  0  0  0  0  0
   46.0496  -15.5442  -11.9130 H   0  0  0  0  0  0  0  0  0  0  0  0
   47.2861  -14.7429  -10.8573 H   0  0  0  0  0  0  0  0  0  0  0  0
   45.5772  -14.7825  -10.3372 H   0  0  0  0  0  0  0  0  0  0  0  0
   44.9075  -17.5828  -11.0456 H   0  0  0  0  0  0  0  0  0  0  0  0
   44.6282  -16.8255   -9.4250 H   0  0  0  0  0  0  0  0  0  0  0  0
   45.5290  -18.3640   -9.5392 H   0  0  0  0  0  0  0  0  0  0  0  0
   51.0991  -13.3445   -6.3806 H   0  0  0  0  0  0  0  0  0  0  0  0
   45.1413  -18.7960   -6.1643 H   0  0  0  0  0  0  0  0  0  0  0  0
   46.0777  -20.6566   -4.8247 H   0  0  0  0  0  0  0  0  0  0  0  0
   52.8086  -14.3901   -4.9273 H   0  0  0  0  0  0  0  0  0  0  0  0
  2  1  1  0
  3  1  1  0
  4  6  1  0
  5  7  1  0
  6  2  2  0
  7  3  2  0
  8  1  2  3
  9 13  1  0
 10  8  1  0
 11  3  1  0
 12  2  1  0
 13 10  1  0
 14  7  1  0
 15  6  1  0
 16  9  1  0
 17  9  1  0
 18 11  2  0
 19 12  2  0
 20 19  1  0
 21 18  1  0
  5  4  2  0
 21 14  2  0
 20 15  2  0
  4 22  1  0
  5 23  1  0
  8 24  1  0
 10 25  1  0
 10 26  1  0
 11 27  1  0
 12 28  1  0
 13 29  1  0
 13 30  1  0
 14 31  1  0
 15 32  1  0
 16 33  1  0
 16 34  1  0
 16 35  1  0
 17 36  1  0
 17 37  1  0
 17 38  1  0
 18 39  1  0
 19 40  1  0
 20 41  1  0
 21 42  1  0
M  END
> <Uni-Dock RESULT> 
ENERGY=   -4.693  LOWER_BOUND=    2.252  UPPER_BOUND=    5.704
INTER + INTRA:          -4.693
INTER:                  -4.693
INTRA:                   0.000
UNBOUND:                 0.000

$$$$

     RDKit          3D

 42 44  0  0  0  0  0  0  0  0999 V2000
   49.6029  -16.9051   -8.7630 C   0  0  0  0  0  0  0  0  0  0  0  0
   50.6995  -16.8310   -7.7831 C   0  0  0  0  0  0  0  0  0  0  0  0
   48.2357  -16.9653   -8.2260 C   0  0  0  0  0  0  0  0  0  0  0  0
   49.8308  -14.6235   -6.8690 C   0  0  0  0  0  0  0  0  0  0  0  0
   48.5077  -14.7077   -7.0789 C   0  0  0  0  0  0  0  0  0  0  0  0
   50.7913  -15.7525   -6.8775 C   0  0  0  0  0  0  0  0  0  0  0  0
   47.7391  -15.9389   -7.3914 C   0  0  0  0  0  0  0  0  0  0  0  0
   49.8002  -16.9144  -10.0961 C   0  0  0  0  0  0  0  0  0  0  0  0
   51.5807  -19.1056  -11.1478 N   0  0  0  0  0  0  0  0  0  0  0  0
   51.1307  -16.6983  -10.7746 C   0  0  0  0  0  0  0  0  0  0  0  0
   47.4150  -18.0593   -8.5514 C   0  0  0  0  0  0  0  0  0  0  0  0
   51.6308  -17.8807   -7.7112 C   0  0  0  0  0  0  0  0  0  0  0  0
   51.4024  -17.7944  -11.8107 C   0  0  0  0  0  0  0  0  0  0  0  0
   46.4165  -16.0235   -6.9222 C   0  0  0  0  0  0  0  0  0  0  0  0
   51.8743  -15.7036   -5.9825 C   0  0  0  0  0  0  0  0  0  0  0  0
   51.0924  -20.1942  -12.0086 C   0  0  0  0  0  0  0  0  0  0  0  0
   52.9965  -19.3388  -10.8130 C   0  0  0  0  0  0  0  0  0  0  0  0
   46.1117  -18.1358   -8.0590 C   0  0  0  0  0  0  0  0  0  0  0  0
   52.6872  -17.8283   -6.8015 C   0  0  0  0  0  0  0  0  0  0  0  0
   52.8147  -16.7357   -5.9448 C   0  0  0  0  0  0  0  0  0  0  0  0
   45.6127  -17.1188   -7.2461 C   0  0  0  0  0  0  0  0  0  0  0  0
   50.2143  -13.6578   -6.5598 H   0  0  0  0  0  0  0  0  0  0  0  0
   47.9337  -13.8010   -6.9245 H   0  0  0  0  0  0  0  0  0  0  0  0
   48.9343  -16.9730  -10.7468 H   0  0  0  0  0  0  0  0  0  0  0  0
   51.9751  -16.6327  -10.0606 H   0  0  0  0  0  0  0  0  0  0  0  0
   51.0864  -15.7209  -11.3006 H   0  0  0  0  0  0  0  0  0  0  0  0
   47.7886  -18.8563   -9.1833 H   0  0  0  0  0  0  0  0  0  0  0  0
   51.5352  -18.7411   -8.3603 H   0  0  0  0  0  0  0  0  0  0  0  0
   52.2976  -17.5184  -12.4139 H   0  0  0  0  0  0  0  0  0  0  0  0
   50.5431  -17.8102  -12.5208 H   0  0  0  0  0  0  0  0  0  0  0  0
   46.0044  -15.2377   -6.3003 H   0  0  0  0  0  0  0  0  0  0  0  0
   51.9836  -14.8701   -5.2990 H   0  0  0  0  0  0  0  0  0  0  0  0
   51.6166  -20.1961  -12.9905 H   0  0  0  0  0  0  0  0  0  0  0  0
   49.9999  -20.0819  -12.1787 H   0  0  0  0  0  0  0  0  0  0  0  0
   51.2444  -21.1771  -11.5123 H   0  0  0  0  0  0  0  0  0  0  0  0
   53.6218  -19.4187  -11.7304 H   0  0  0  0  0  0  0  0  0  0  0  0
   53.0976  -20.2756  -10.2242 H   0  0  0  0  0  0  0  0  0  0  0  0
   53.3906  -18.5138  -10.1834 H   0  0  0  0  0  0  0  0  0  0  0  0
   45.4865  -18.9825   -8.3115 H   0  0  0  0  0  0  0  0  0  0  0  0
   53.4072  -18.6355   -6.7611 H   0  0  0  0  0  0  0  0  0  0  0  0
   53.6377  -16.6923   -5.2432 H   0  0  0  0  0  0  0  0  0  0  0  0
   44.5989  -17.1752   -6.8714 H   0  0  0  0  0  0  0  0  0  0  0  0
  2  1  1  0
  3  1  1  0
  4  6  1  0
  5  7  1  0
  6  2  2  0
  7  3  2  0
  8  1  2  3
  9 13  1  0
 10  8  1  0
 11  3  1  0
 12  2  1  0
 13 10  1  0
 14  7  1  0
 15  6  1  0
 16  9  1  0
 17  9  1  0
 18 11  2  0
 19 12  2  0
 20 19  1  0
 21 18  1  0
  5  4  2  0
 21 14  2  0
 20 15  2  0
  4 22  1  0
  5 23  1  0
  8 24  1  0
 10 25  1  0
 10 26  1  0
 11 27  1  0
 12 28  1  0
 13 29  1  0
 13 30  1  0
 14 31  1  0
 15 32  1  0
 16 33  1  0
 16 34  1  0
 16 35  1  0
 17 36  1  0
 17 37  1  0
 17 38  1  0
 18 39  1  0
 19 40  1  0
 20 41  1  0
 21 42  1  0
M  END
> <Uni-Dock RESULT> 
ENERGY=   -4.599  LOWER_BOUND=    1.937  UPPER_BOUND=    2.940
INTER + INTRA:          -4.599
INTER:                  -4.599
INTRA:                   0.000
UNBOUND:                 0.000

$$$$

     RDKit          3D

 42 44  0  0  0  0  0  0  0  0999 V2000
   49.5380  -18.9578   -7.3463 C   0  0  0  0  0  0  0  0  0  0  0  0
   48.4446  -17.9744   -7.2728 C   0  0  0  0  0  0  0  0  0  0  0  0
   50.2011  -19.3089   -6.0820 C   0  0  0  0  0  0  0  0  0  0  0  0
   47.0818  -19.4942   -5.7575 C   0  0  0  0  0  0  0  0  0  0  0  0
   48.0227  -20.1881   -5.0981 C   0  0  0  0  0  0  0  0  0  0  0  0
   47.2892  -18.2304   -6.5039 C   0  0  0  0  0  0  0  0  0  0  0  0
   49.4657  -19.8518   -5.0044 C   0  0  0  0  0  0  0  0  0  0  0  0
   49.9388  -19.5354   -8.4960 C   0  0  0  0  0  0  0  0  0  0  0  0
   50.7909  -17.6519  -10.6877 N   0  0  0  0  0  0  0  0  0  0  0  0
   49.2439  -19.3847   -9.8272 C   0  0  0  0  0  0  0  0  0  0  0  0
   51.5852  -19.1017   -5.9490 C   0  0  0  0  0  0  0  0  0  0  0  0
   48.5835  -16.7399   -7.9294 C   0  0  0  0  0  0  0  0  0  0  0  0
   50.2417  -19.0052  -10.9267 C   0  0  0  0  0  0  0  0  0  0  0  0
   50.1449  -20.1985   -3.8233 C   0  0  0  0  0  0  0  0  0  0  0  0
   46.2542  -17.2792   -6.4903 C   0  0  0  0  0  0  0  0  0  0  0  0
   52.1762  -17.5594  -11.1744 C   0  0  0  0  0  0  0  0  0  0  0  0
   49.9667  -16.6243  -11.3479 C   0  0  0  0  0  0  0  0  0  0  0  0
   52.2381  -19.4329   -4.7611 C   0  0  0  0  0  0  0  0  0  0  0  0
   47.5565  -15.7965   -7.8874 C   0  0  0  0  0  0  0  0  0  0  0  0
   46.3885  -16.0702   -7.1767 C   0  0  0  0  0  0  0  0  0  0  0  0
   51.5191  -19.9813   -3.6999 C   0  0  0  0  0  0  0  0  0  0  0  0
   46.0581  -19.8326   -5.6439 H   0  0  0  0  0  0  0  0  0  0  0  0
   47.6797  -21.0313   -4.5092 H   0  0  0  0  0  0  0  0  0  0  0  0
   50.7548  -20.2491   -8.4594 H   0  0  0  0  0  0  0  0  0  0  0  0
   48.4117  -18.6542   -9.8007 H   0  0  0  0  0  0  0  0  0  0  0  0
   48.7931  -20.3665  -10.0854 H   0  0  0  0  0  0  0  0  0  0  0  0
   52.1572  -18.6778   -6.7657 H   0  0  0  0  0  0  0  0  0  0  0  0
   49.4905  -16.5091   -8.4724 H   0  0  0  0  0  0  0  0  0  0  0  0
   49.7398  -19.0712  -11.9193 H   0  0  0  0  0  0  0  0  0  0  0  0
   51.0468  -19.7763  -10.9348 H   0  0  0  0  0  0  0  0  0  0  0  0
   49.6079  -20.6384   -2.9914 H   0  0  0  0  0  0  0  0  0  0  0  0
   45.3444  -17.4667   -5.9327 H   0  0  0  0  0  0  0  0  0  0  0  0
   52.2385  -17.8032  -12.2586 H   0  0  0  0  0  0  0  0  0  0  0  0
   52.8254  -18.2594  -10.6054 H   0  0  0  0  0  0  0  0  0  0  0  0
   52.5772  -16.5362  -11.0072 H   0  0  0  0  0  0  0  0  0  0  0  0
   49.9972  -16.7306  -12.4555 H   0  0  0  0  0  0  0  0  0  0  0  0
   50.3306  -15.6114  -11.0720 H   0  0  0  0  0  0  0  0  0  0  0  0
   48.9110  -16.6943  -11.0116 H   0  0  0  0  0  0  0  0  0  0  0  0
   53.3035  -19.2680   -4.6650 H   0  0  0  0  0  0  0  0  0  0  0  0
   47.6668  -14.8530   -8.4061 H   0  0  0  0  0  0  0  0  0  0  0  0
   45.5894  -15.3407   -7.1491 H   0  0  0  0  0  0  0  0  0  0  0  0
   52.0280  -20.2454   -2.7819 H   0  0  0  0  0  0  0  0  0  0  0  0
  2  1  1  0
  3  1  1  0
  4  6  1  0
  5  7  1  0
  6  2  2  0
  7  3  2  0
  8  1  2  3
  9 13  1  0
 10  8  1  0
 11  3  1  0
 12  2  1  0
 13 10  1  0
 14  7  1  0
 15  6  1  0
 16  9  1  0
 17  9  1  0
 18 11  2  0
 19 12  2  0
 20 19  1  0
 21 18  1  0
  5  4  2  0
 21 14  2  0
 20 15  2  0
  4 22  1  0
  5 23  1  0
  8 24  1  0
 10 25  1  0
 10 26  1  0
 11 27  1  0
 12 28  1  0
 13 29  1  0
 13 30  1  0
 14 31  1  0
 15 32  1  0
 16 33  1  0
 16 34  1  0
 16 35  1  0
 17 36  1  0
 17 37  1  0
 17 38  1  0
 18 39  1  0
 19 40  1  0
 20 41  1  0
 21 42  1  0
M  END
> <Uni-Dock RESULT> 
ENERGY=   -4.189  LOWER_BOUND=    2.048  UPPER_BOUND=    3.811
INTER + INTRA:          -4.189
INTER:                  -4.189
INTRA:                   0.000
UNBOUND:                 0.000

$$$$

     RDKit          3D

 42 44  0  0  0  0  0  0  0  0999 V2000
   45.8646  -17.2113  -10.1732 C   0  0  0  0  0  0  0  0  0  0  0  0
   46.6067  -16.5927   -9.0621 C   0  0  0  0  0  0  0  0  0  0  0  0
   45.6014  -16.3667  -11.3474 C   0  0  0  0  0  0  0  0  0  0  0  0
   48.6333  -16.1905  -10.5434 C   0  0  0  0  0  0  0  0  0  0  0  0
   48.0929  -16.0398  -11.7627 C   0  0  0  0  0  0  0  0  0  0  0  0
   47.9145  -16.0967   -9.2504 C   0  0  0  0  0  0  0  0  0  0  0  0
   46.6640  -15.7788  -12.0700 C   0  0  0  0  0  0  0  0  0  0  0  0
   45.4343  -18.4883  -10.1565 C   0  0  0  0  0  0  0  0  0  0  0  0
   43.6415  -19.2428   -7.8555 N   0  0  0  0  0  0  0  0  0  0  0  0
   45.7736  -19.5009   -9.0902 C   0  0  0  0  0  0  0  0  0  0  0  0
   44.2739  -16.1456  -11.7537 C   0  0  0  0  0  0  0  0  0  0  0  0
   45.9783  -16.4409   -7.8144 C   0  0  0  0  0  0  0  0  0  0  0  0
   44.5104  -20.2000   -8.5760 C   0  0  0  0  0  0  0  0  0  0  0  0
   46.3680  -15.0004  -13.2027 C   0  0  0  0  0  0  0  0  0  0  0  0
   48.5997  -15.5458   -8.1535 C   0  0  0  0  0  0  0  0  0  0  0  0
   42.2240  -19.5984   -8.0244 C   0  0  0  0  0  0  0  0  0  0  0  0
   43.9734  -19.2067   -6.4204 C   0  0  0  0  0  0  0  0  0  0  0  0
   43.9991  -15.3529  -12.8687 C   0  0  0  0  0  0  0  0  0  0  0  0
   46.6641  -15.8710   -6.7414 C   0  0  0  0  0  0  0  0  0  0  0  0
   47.9773  -15.4331   -6.9081 C   0  0  0  0  0  0  0  0  0  0  0  0
   45.0448  -14.7817  -13.5928 C   0  0  0  0  0  0  0  0  0  0  0  0
   49.7125  -16.2830  -10.4971 H   0  0  0  0  0  0  0  0  0  0  0  0
   48.7816  -16.0264  -12.5999 H   0  0  0  0  0  0  0  0  0  0  0  0
   44.8926  -18.8630  -11.0183 H   0  0  0  0  0  0  0  0  0  0  0  0
   46.3379  -19.0645   -8.2428 H   0  0  0  0  0  0  0  0  0  0  0  0
   46.4360  -20.2652   -9.5494 H   0  0  0  0  0  0  0  0  0  0  0  0
   43.4512  -16.5842  -11.2018 H   0  0  0  0  0  0  0  0  0  0  0  0
   44.9549  -16.7634   -7.6755 H   0  0  0  0  0  0  0  0  0  0  0  0
   44.8015  -21.0555   -7.9242 H   0  0  0  0  0  0  0  0  0  0  0  0
   43.9871  -20.6439   -9.4546 H   0  0  0  0  0  0  0  0  0  0  0  0
   47.1658  -14.5584  -13.7876 H   0  0  0  0  0  0  0  0  0  0  0  0
   49.6158  -15.1869   -8.2656 H   0  0  0  0  0  0  0  0  0  0  0  0
   42.0232  -20.6320   -7.6635 H   0  0  0  0  0  0  0  0  0  0  0  0
   41.9397  -19.5248   -9.0962 H   0  0  0  0  0  0  0  0  0  0  0  0
   41.5777  -18.8858   -7.4674 H   0  0  0  0  0  0  0  0  0  0  0  0
   43.7566  -20.1820   -5.9299 H   0  0  0  0  0  0  0  0  0  0  0  0
   43.3863  -18.4099   -5.9154 H   0  0  0  0  0  0  0  0  0  0  0  0
   45.0467  -18.9639   -6.2731 H   0  0  0  0  0  0  0  0  0  0  0  0
   42.9744  -15.1848  -13.1740 H   0  0  0  0  0  0  0  0  0  0  0  0
   46.1767  -15.7691   -5.7804 H   0  0  0  0  0  0  0  0  0  0  0  0
   48.5113  -14.9964   -6.0740 H   0  0  0  0  0  0  0  0  0  0  0  0
   44.8308  -14.1736  -14.4622 H   0  0  0  0  0  0  0  0  0  0  0  0
  2  1  1  0
  3  1  1  0
  4  6  1  0
  5  7  1  0
  6  2  2  0
  7  3  2  0
  8  1  2  3
  9 13  1  0
 10  8  1  0
 11  3  1  0
 12  2  1  0
 13 10  1  0
 14  7  1  0
 15  6  1  0
 16  9  1  0
 17  9  1  0
 18 11  2  0
 19 12  2  0
 20 19  1  0
 21 18  1  0
  5  4  2  0
 21 14  2  0
 20 15  2  0
  4 22  1  0
  5 23  1  0
  8 24  1  0
 10 25  1  0
 10 26  1  0
 11 27  1  0
 12 28  1  0
 13 29  1  0
 13 30  1  0
 14 31  1  0
 15 32  1  0
 16 33  1  0
 16 34  1  0
 16 35  1  0
 17 36  1  0
 17 37  1  0
 17 38  1  0
 18 39  1  0
 19 40  1  0
 20 41  1  0
 21 42  1  0
M  END
> <Uni-Dock RESULT> 
ENERGY=   -4.161  LOWER_BOUND=    3.896  UPPER_BOUND=    6.562
INTER + INTRA:          -4.161
INTER:                  -4.161
INTRA:                   0.000
UNBOUND:                 0.000

$$$$

     RDKit          3D

 42 44  0  0  0  0  0  0  0  0999 V2000
   49.7876  -18.1144   -8.3679 C   0  0  0  0  0  0  0  0  0  0  0  0
   48.5564  -17.4186   -7.9579 C   0  0  0  0  0  0  0  0  0  0  0  0
   50.8634  -18.2037   -7.3699 C   0  0  0  0  0  0  0  0  0  0  0  0
   48.1334  -19.1060   -6.1041 C   0  0  0  0  0  0  0  0  0  0  0  0
   49.3704  -19.5047   -5.7685 C   0  0  0  0  0  0  0  0  0  0  0  0
   47.7856  -17.8871   -6.8725 C   0  0  0  0  0  0  0  0  0  0  0  0
   50.6434  -18.8269   -6.1210 C   0  0  0  0  0  0  0  0  0  0  0  0
   49.9582  -18.6613   -9.5877 C   0  0  0  0  0  0  0  0  0  0  0  0
   49.6181  -16.7931  -11.9269 N   0  0  0  0  0  0  0  0  0  0  0  0
   48.8833  -18.7786  -10.6405 C   0  0  0  0  0  0  0  0  0  0  0  0
   52.1262  -17.6622   -7.6674 C   0  0  0  0  0  0  0  0  0  0  0  0
   48.1798  -16.2378   -8.6200 C   0  0  0  0  0  0  0  0  0  0  0  0
   49.3793  -18.2523  -11.9916 C   0  0  0  0  0  0  0  0  0  0  0  0
   51.7080  -18.9141   -5.2070 C   0  0  0  0  0  0  0  0  0  0  0  0
   46.5985  -17.2127   -6.5375 C   0  0  0  0  0  0  0  0  0  0  0  0
   50.7258  -16.4075  -12.8150 C   0  0  0  0  0  0  0  0  0  0  0  0
   48.4049  -16.0435  -12.2975 C   0  0  0  0  0  0  0  0  0  0  0  0
   53.1649  -17.7402   -6.7389 C   0  0  0  0  0  0  0  0  0  0  0  0
   47.0104  -15.5671   -8.2605 C   0  0  0  0  0  0  0  0  0  0  0  0
   46.2151  -16.0599   -7.2267 C   0  0  0  0  0  0  0  0  0  0  0  0
   52.9564  -18.3660   -5.5106 C   0  0  0  0  0  0  0  0  0  0  0  0
   47.3089  -19.6703   -5.6831 H   0  0  0  0  0  0  0  0  0  0  0  0
   49.4410  -20.3603   -5.1065 H   0  0  0  0  0  0  0  0  0  0  0  0
   50.8992  -19.1544   -9.8066 H   0  0  0  0  0  0  0  0  0  0  0  0
   47.9419  -18.2685  -10.3565 H   0  0  0  0  0  0  0  0  0  0  0  0
   48.6365  -19.8558  -10.7521 H   0  0  0  0  0  0  0  0  0  0  0  0
   52.3034  -17.1742   -8.6185 H   0  0  0  0  0  0  0  0  0  0  0  0
   48.7954  -15.8368   -9.4142 H   0  0  0  0  0  0  0  0  0  0  0  0
   48.6374  -18.5085  -12.7824 H   0  0  0  0  0  0  0  0  0  0  0  0
   50.3114  -18.8068  -12.2500 H   0  0  0  0  0  0  0  0  0  0  0  0
   51.5717  -19.4081   -4.2523 H   0  0  0  0  0  0  0  0  0  0  0  0
   45.9737  -17.5714   -5.7283 H   0  0  0  0  0  0  0  0  0  0  0  0
   50.5206  -16.7076  -13.8670 H   0  0  0  0  0  0  0  0  0  0  0  0
   51.6685  -16.8885  -12.4760 H   0  0  0  0  0  0  0  0  0  0  0  0
   50.8891  -15.3087  -12.7745 H   0  0  0  0  0  0  0  0  0  0  0  0
   48.1291  -16.2197  -13.3614 H   0  0  0  0  0  0  0  0  0  0  0  0
   48.5692  -14.9557  -12.1422 H   0  0  0  0  0  0  0  0  0  0  0  0
   47.5503  -16.3394  -11.6536 H   0  0  0  0  0  0  0  0  0  0  0  0
   54.1336  -17.3185   -6.9739 H   0  0  0  0  0  0  0  0  0  0  0  0
   46.7212  -14.6650   -8.7838 H   0  0  0  0  0  0  0  0  0  0  0  0
   45.3048  -15.5428   -6.9518 H   0  0  0  0  0  0  0  0  0  0  0  0
   53.7651  -18.4331   -4.7944 H   0  0  0  0  0  0  0  0  0  0  0  0
  2  1  1  0
  3  1  1  0
  4  6  1  0
  5  7  1  0
  6  2  2  0
  7  3  2  0
  8  1  2  3
  9 13  1  0
 10  8  1  0
 11  3  1  0
 12  2  1  0
 13 10  1  0
 14  7  1  0
 15  6  1  0
 16  9  1  0
 17  9  1  0
 18 11  2  0
 19 12  2  0
 20 19  1  0
 21 18  1  0
  5  4  2  0
 21 14  2  0
 20 15  2  0
  4 22  1  0
  5 23  1  0
  8 24  1  0
 10 25  1  0
 10 26  1  0
 11 27  1  0
 12 28  1  0
 13 29  1  0
 13 30  1  0
 14 31  1  0
 15 32  1  0
 16 33  1  0
 16 34  1  0
 16 35  1  0
 17 36  1  0
 17 37  1  0
 17 38  1  0
 18 39  1  0
 19 40  1  0
 20 41  1  0
 21 42  1  0
M  END
> <Uni-Dock RESULT> 
ENERGY=   -4.140  LOWER_BOUND=    2.332  UPPER_BOUND=    4.569
INTER + INTRA:          -4.140
INTER:                  -4.140
INTRA:                   0.000
UNBOUND:                 0.000

$$$$
