
     RDKit          3D

 42 44  0  0  0  0  0  0  0  0999 V2000
   50.3287  -17.0563   -7.6260 C   0  0  0  0  0  0  0  0  0  0  0  0
   51.2774  -16.4926   -6.6541 C   0  0  0  0  0  0  0  0  0  0  0  0
   48.8953  -16.9825   -7.2902 C   0  0  0  0  0  0  0  0  0  0  0  0
   50.2316  -14.1796   -6.8546 C   0  0  0  0  0  0  0  0  0  0  0  0
   48.9672  -14.4406   -7.2198 C   0  0  0  0  0  0  0  0  0  0  0  0
   51.1957  -15.1383   -6.2598 C   0  0  0  0  0  0  0  0  0  0  0  0
   48.2634  -15.7376   -7.0792 C   0  0  0  0  0  0  0  0  0  0  0  0
   50.7822  -17.5898   -8.7764 C   0  0  0  0  0  0  0  0  0  0  0  0
   49.7466  -18.7771  -12.2495 N   0  0  0  0  0  0  0  0  0  0  0  0
   49.8744  -18.0943   -9.8695 C   0  0  0  0  0  0  0  0  0  0  0  0
   48.1594  -18.1704   -7.1351 C   0  0  0  0  0  0  0  0  0  0  0  0
   52.2796  -17.3174   -6.1138 C   0  0  0  0  0  0  0  0  0  0  0  0
   50.6628  -18.4088  -11.1476 C   0  0  0  0  0  0  0  0  0  0  0  0
   46.8867  -15.7101   -6.7957 C   0  0  0  0  0  0  0  0  0  0  0  0
   52.1404  -14.6367   -5.3472 C   0  0  0  0  0  0  0  0  0  0  0  0
   49.3684  -20.1997  -12.1724 C   0  0  0  0  0  0  0  0  0  0  0  0
   50.3835  -18.5131  -13.5502 C   0  0  0  0  0  0  0  0  0  0  0  0
   46.7985  -18.1253   -6.8303 C   0  0  0  0  0  0  0  0  0  0  0  0
   53.1957  -16.8066   -5.1936 C   0  0  0  0  0  0  0  0  0  0  0  0
   53.1265  -15.4676   -4.8112 C   0  0  0  0  0  0  0  0  0  0  0  0
   46.1609  -16.8963   -6.6692 C   0  0  0  0  0  0  0  0  0  0  0  0
   50.5531  -13.1465   -6.9253 H   0  0  0  0  0  0  0  0  0  0  0  0
   48.3735  -13.5965   -7.5524 H   0  0  0  0  0  0  0  0  0  0  0  0
   51.8524  -17.5981   -8.9565 H   0  0  0  0  0  0  0  0  0  0  0  0
   49.3611  -19.0095   -9.5143 H   0  0  0  0  0  0  0  0  0  0  0  0
   49.1116  -17.3191  -10.1015 H   0  0  0  0  0  0  0  0  0  0  0  0
   48.6424  -19.1337   -7.2428 H   0  0  0  0  0  0  0  0  0  0  0  0
   52.3466  -18.3595   -6.4023 H   0  0  0  0  0  0  0  0  0  0  0  0
   51.2365  -17.4909  -11.4137 H   0  0  0  0  0  0  0  0  0  0  0  0
   51.4060  -19.2158  -10.9516 H   0  0  0  0  0  0  0  0  0  0  0  0
   46.3738  -14.7656   -6.6589 H   0  0  0  0  0  0  0  0  0  0  0  0
   52.1135  -13.5959   -5.0472 H   0  0  0  0  0  0  0  0  0  0  0  0
   48.8357  -20.4127  -11.2233 H   0  0  0  0  0  0  0  0  0  0  0  0
   48.6656  -20.4538  -12.9950 H   0  0  0  0  0  0  0  0  0  0  0  0
   50.2602  -20.8616  -12.2455 H   0  0  0  0  0  0  0  0  0  0  0  0
   50.5890  -17.4266  -13.6611 H   0  0  0  0  0  0  0  0  0  0  0  0
   51.3378  -19.0769  -13.6530 H   0  0  0  0  0  0  0  0  0  0  0  0
   49.7014  -18.7980  -14.3804 H   0  0  0  0  0  0  0  0  0  0  0  0
   46.2380  -19.0446   -6.7191 H   0  0  0  0  0  0  0  0  0  0  0  0
   53.9625  -17.4487   -4.7797 H   0  0  0  0  0  0  0  0  0  0  0  0
   53.8426  -15.0703   -4.1035 H   0  0  0  0  0  0  0  0  0  0  0  0
   45.1037  -16.8618   -6.4395 H   0  0  0  0  0  0  0  0  0  0  0  0
  2  1  1  0
  3  1  1  0
  4  6  1  0
  5  7  1  0
  6  2  2  0
  7  3  2  0
  8  1  2  3
  9 13  1  0
 10  8  1  0
 11  3  1  0
 12  2  1  0
 13 10  1  0
 14  7  1  0
 15  6  1  0
 16  9  1  0
 17  9  1  0
 18 11  2  0
 19 12  2  0
 20 19  1  0
 21 18  1  0
  5  4  2  0
 21 14  2  0
 20 15  2  0
  4 22  1  0
  5 23  1  0
  8 24  1  0
 10 25  1  0
 10 26  1  0
 11 27  1  0
 12 28  1  0
 13 29  1  0
 13 30  1  0
 14 31  1  0
 15 32  1  0
 16 33  1  0
 16 34  1  0
 16 35  1  0
 17 36  1  0
 17 37  1  0
 17 38  1  0
 18 39  1  0
 19 40  1  0
 20 41  1  0
 21 42  1  0
M  END
> <Uni-Dock RESULT> 
ENERGY=   -6.197  LOWER_BOUND=    0.000  UPPER_BOUND=    0.000
INTER + INTRA:          -6.197
INTER:                  -6.197
INTRA:                   0.000
UNBOUND:                 0.000

$$$$

     RDKit          3D

 42 44  0  0  0  0  0  0  0  0999 V2000
   47.8140  -17.2759   -7.8608 C   0  0  0  0  0  0  0  0  0  0  0  0
   47.3816  -18.2839   -6.8813 C   0  0  0  0  0  0  0  0  0  0  0  0
   48.8201  -16.2935   -7.4183 C   0  0  0  0  0  0  0  0  0  0  0  0
   49.7509  -19.1861   -6.6446 C   0  0  0  0  0  0  0  0  0  0  0  0
   50.5182  -18.1306   -6.9570 C   0  0  0  0  0  0  0  0  0  0  0  0
   48.3138  -19.1558   -6.2756 C   0  0  0  0  0  0  0  0  0  0  0  0
   50.0930  -16.7107   -6.9718 C   0  0  0  0  0  0  0  0  0  0  0  0
   47.3091  -17.2915   -9.1092 C   0  0  0  0  0  0  0  0  0  0  0  0
   47.7701  -15.9366  -12.6442 N   0  0  0  0  0  0  0  0  0  0  0  0
   47.7731  -16.3615  -10.2016 C   0  0  0  0  0  0  0  0  0  0  0  0
   48.4906  -14.9268   -7.3996 C   0  0  0  0  0  0  0  0  0  0  0  0
   46.0191  -18.3782   -6.5478 C   0  0  0  0  0  0  0  0  0  0  0  0
   47.2046  -16.7761  -11.5650 C   0  0  0  0  0  0  0  0  0  0  0  0
   51.0355  -15.7391   -6.5921 C   0  0  0  0  0  0  0  0  0  0  0  0
   47.8507  -20.1210   -5.3641 C   0  0  0  0  0  0  0  0  0  0  0  0
   47.0390  -14.6624  -12.7640 C   0  0  0  0  0  0  0  0  0  0  0  0
   47.7125  -16.6530  -13.9290 C   0  0  0  0  0  0  0  0  0  0  0  0
   49.4308  -13.9776   -6.9972 C   0  0  0  0  0  0  0  0  0  0  0  0
   45.5812  -19.3293   -5.6254 C   0  0  0  0  0  0  0  0  0  0  0  0
   46.4959  -20.2000   -5.0347 C   0  0  0  0  0  0  0  0  0  0  0  0
   50.7047  -14.3826   -6.6021 C   0  0  0  0  0  0  0  0  0  0  0  0
   50.2513  -20.1455   -6.5754 H   0  0  0  0  0  0  0  0  0  0  0  0
   51.5735  -18.3259   -7.1113 H   0  0  0  0  0  0  0  0  0  0  0  0
   46.5791  -18.0534   -9.3627 H   0  0  0  0  0  0  0  0  0  0  0  0
   47.4439  -15.3320   -9.9587 H   0  0  0  0  0  0  0  0  0  0  0  0
   48.8836  -16.3825  -10.2558 H   0  0  0  0  0  0  0  0  0  0  0  0
   47.5011  -14.5965   -7.6899 H   0  0  0  0  0  0  0  0  0  0  0  0
   45.2964  -17.7094   -6.9995 H   0  0  0  0  0  0  0  0  0  0  0  0
   47.4789  -17.8447  -11.7239 H   0  0  0  0  0  0  0  0  0  0  0  0
   46.0916  -16.7210  -11.5498 H   0  0  0  0  0  0  0  0  0  0  0  0
   52.0286  -16.0334   -6.2740 H   0  0  0  0  0  0  0  0  0  0  0  0
   48.5424  -20.8167   -4.9041 H   0  0  0  0  0  0  0  0  0  0  0  0
   47.1149  -14.0772  -11.8250 H   0  0  0  0  0  0  0  0  0  0  0  0
   47.4889  -14.0370  -13.5651 H   0  0  0  0  0  0  0  0  0  0  0  0
   45.9649  -14.8311  -13.0017 H   0  0  0  0  0  0  0  0  0  0  0  0
   48.3378  -17.5705  -13.8828 H   0  0  0  0  0  0  0  0  0  0  0  0
   46.6669  -16.9370  -14.1849 H   0  0  0  0  0  0  0  0  0  0  0  0
   48.1277  -16.0211  -14.7438 H   0  0  0  0  0  0  0  0  0  0  0  0
   49.1710  -12.9268   -6.9921 H   0  0  0  0  0  0  0  0  0  0  0  0
   44.5311  -19.3937   -5.3715 H   0  0  0  0  0  0  0  0  0  0  0  0
   46.1542  -20.9427   -4.3253 H   0  0  0  0  0  0  0  0  0  0  0  0
   51.4358  -13.6452   -6.2965 H   0  0  0  0  0  0  0  0  0  0  0  0
  2  1  1  0
  3  1  1  0
  4  6  1  0
  5  7  1  0
  6  2  2  0
  7  3  2  0
  8  1  2  3
  9 13  1  0
 10  8  1  0
 11  3  1  0
 12  2  1  0
 13 10  1  0
 14  7  1  0
 15  6  1  0
 16  9  1  0
 17  9  1  0
 18 11  2  0
 19 12  2  0
 20 19  1  0
 21 18  1  0
  5  4  2  0
 21 14  2  0
 20 15  2  0
  4 22  1  0
  5 23  1  0
  8 24  1  0
 10 25  1  0
 10 26  1  0
 11 27  1  0
 12 28  1  0
 13 29  1  0
 13 30  1  0
 14 31  1  0
 15 32  1  0
 16 33  1  0
 16 34  1  0
 16 35  1  0
 17 36  1  0
 17 37  1  0
 17 38  1  0
 18 39  1  0
 19 40  1  0
 20 41  1  0
 21 42  1  0
M  END
> <Uni-Dock RESULT> 
ENERGY=   -5.334  LOWER_BOUND=    2.245  UPPER_BOUND=    4.823
INTER + INTRA:          -5.334
INTER:                  -5.334
INTRA:                   0.000
UNBOUND:                 0.000

$$$$

     RDKit          3D

 42 44  0  0  0  0  0  0  0  0999 V2000
   50.2274  -17.3744   -7.7172 C   0  0  0  0  0  0  0  0  0  0  0  0
   48.8414  -16.9884   -7.4134 C   0  0  0  0  0  0  0  0  0  0  0  0
   51.0852  -17.7581   -6.5814 C   0  0  0  0  0  0  0  0  0  0  0  0
   48.3443  -19.2700   -6.3980 C   0  0  0  0  0  0  0  0  0  0  0  0
   49.5466  -19.6920   -5.9777 C   0  0  0  0  0  0  0  0  0  0  0  0
   47.9686  -17.8774   -6.7469 C   0  0  0  0  0  0  0  0  0  0  0  0
   50.7426  -18.8465   -5.7497 C   0  0  0  0  0  0  0  0  0  0  0  0
   50.6571  -17.3884   -8.9934 C   0  0  0  0  0  0  0  0  0  0  0  0
   53.4413  -18.5985  -11.3018 N   0  0  0  0  0  0  0  0  0  0  0  0
   52.0272  -17.8688   -9.4006 C   0  0  0  0  0  0  0  0  0  0  0  0
   52.2360  -17.0019   -6.2975 C   0  0  0  0  0  0  0  0  0  0  0  0
   48.3828  -15.7156   -7.7957 C   0  0  0  0  0  0  0  0  0  0  0  0
   52.1400  -18.0038  -10.9247 C   0  0  0  0  0  0  0  0  0  0  0  0
   51.6065  -19.2011   -4.6988 C   0  0  0  0  0  0  0  0  0  0  0  0
   46.6442  -17.4745   -6.5006 C   0  0  0  0  0  0  0  0  0  0  0  0
   54.5000  -17.5739  -11.3474 C   0  0  0  0  0  0  0  0  0  0  0  0
   53.3399  -19.2519  -12.6171 C   0  0  0  0  0  0  0  0  0  0  0  0
   53.0701  -17.3539   -5.2358 C   0  0  0  0  0  0  0  0  0  0  0  0
   47.0707  -15.3260   -7.5242 C   0  0  0  0  0  0  0  0  0  0  0  0
   46.2023  -16.2047   -6.8779 C   0  0  0  0  0  0  0  0  0  0  0  0
   52.7602  -18.4574   -4.4425 C   0  0  0  0  0  0  0  0  0  0  0  0
   47.5476  -20.0054   -6.4043 H   0  0  0  0  0  0  0  0  0  0  0  0
   49.6191  -20.7314   -5.6779 H   0  0  0  0  0  0  0  0  0  0  0  0
   49.9623  -17.1024   -9.7766 H   0  0  0  0  0  0  0  0  0  0  0  0
   52.7831  -17.1467   -9.0341 H   0  0  0  0  0  0  0  0  0  0  0  0
   52.2216  -18.8614   -8.9383 H   0  0  0  0  0  0  0  0  0  0  0  0
   52.4836  -16.1334   -6.8950 H   0  0  0  0  0  0  0  0  0  0  0  0
   49.0455  -15.0225   -8.2996 H   0  0  0  0  0  0  0  0  0  0  0  0
   51.3043  -18.6614  -11.2589 H   0  0  0  0  0  0  0  0  0  0  0  0
   51.9920  -17.0116  -11.4102 H   0  0  0  0  0  0  0  0  0  0  0  0
   51.3798  -20.0504   -4.0654 H   0  0  0  0  0  0  0  0  0  0  0  0
   45.9488  -18.1468   -6.0123 H   0  0  0  0  0  0  0  0  0  0  0  0
   54.6347  -17.1049  -10.3515 H   0  0  0  0  0  0  0  0  0  0  0  0
   55.4731  -18.0408  -11.6127 H   0  0  0  0  0  0  0  0  0  0  0  0
   54.2670  -16.7820  -12.0940 H   0  0  0  0  0  0  0  0  0  0  0  0
   52.6116  -20.0900  -12.5719 H   0  0  0  0  0  0  0  0  0  0  0  0
   53.0172  -18.5304  -13.4011 H   0  0  0  0  0  0  0  0  0  0  0  0
   54.3187  -19.6912  -12.9078 H   0  0  0  0  0  0  0  0  0  0  0  0
   53.9576  -16.7702   -5.0282 H   0  0  0  0  0  0  0  0  0  0  0  0
   46.7259  -14.3433   -7.8188 H   0  0  0  0  0  0  0  0  0  0  0  0
   45.1824  -15.9045   -6.6750 H   0  0  0  0  0  0  0  0  0  0  0  0
   53.4112  -18.7340   -3.6231 H   0  0  0  0  0  0  0  0  0  0  0  0
  2  1  1  0
  3  1  1  0
  4  6  1  0
  5  7  1  0
  6  2  2  0
  7  3  2  0
  8  1  2  3
  9 13  1  0
 10  8  1  0
 11  3  1  0
 12  2  1  0
 13 10  1  0
 14  7  1  0
 15  6  1  0
 16  9  1  0
 17  9  1  0
 18 11  2  0
 19 12  2  0
 20 19  1  0
 21 18  1  0
  5  4  2  0
 21 14  2  0
 20 15  2  0
  4 22  1  0
  5 23  1  0
  8 24  1  0
 10 25  1  0
 10 26  1  0
 11 27  1  0
 12 28  1  0
 13 29  1  0
 13 30  1  0
 14 31  1  0
 15 32  1  0
 16 33  1  0
 16 34  1  0
 16 35  1  0
 17 36  1  0
 17 37  1  0
 17 38  1  0
 18 39  1  0
 19 40  1  0
 20 41  1  0
 21 42  1  0
M  END
> <Uni-Dock RESULT> 
ENERGY=   -5.046  LOWER_BOUND=    1.844  UPPER_BOUND=    4.795
INTER + INTRA:          -5.046
INTER:                  -5.046
INTRA:                   0.000
UNBOUND:                 0.000

$$$$

     RDKit          3D

 42 44  0  0  0  0  0  0  0  0999 V2000
   50.1002  -17.5172   -8.2471 C   0  0  0  0  0  0  0  0  0  0  0  0
   49.9546  -18.3064   -9.4794 C   0  0  0  0  0  0  0  0  0  0  0  0
   48.8697  -16.9716   -7.6462 C   0  0  0  0  0  0  0  0  0  0  0  0
   48.4693  -20.0104   -8.3073 C   0  0  0  0  0  0  0  0  0  0  0  0
   47.9106  -19.3040   -7.3127 C   0  0  0  0  0  0  0  0  0  0  0  0
   49.1428  -19.4623   -9.5107 C   0  0  0  0  0  0  0  0  0  0  0  0
   47.8280  -17.8266   -7.2250 C   0  0  0  0  0  0  0  0  0  0  0  0
   51.3192  -17.3385   -7.7033 C   0  0  0  0  0  0  0  0  0  0  0  0
   53.1643  -16.2171   -4.5596 N   0  0  0  0  0  0  0  0  0  0  0  0
   51.5446  -16.6327   -6.3901 C   0  0  0  0  0  0  0  0  0  0  0  0
   48.7145  -15.5789   -7.5323 C   0  0  0  0  0  0  0  0  0  0  0  0
   50.6370  -17.9012  -10.6399 C   0  0  0  0  0  0  0  0  0  0  0  0
   52.9912  -16.8016   -5.9078 C   0  0  0  0  0  0  0  0  0  0  0  0
   46.6864  -17.2674   -6.6245 C   0  0  0  0  0  0  0  0  0  0  0  0
   49.0541  -20.1999  -10.7045 C   0  0  0  0  0  0  0  0  0  0  0  0
   53.3949  -14.7634   -4.6368 C   0  0  0  0  0  0  0  0  0  0  0  0
   54.2993  -16.8536   -3.8712 C   0  0  0  0  0  0  0  0  0  0  0  0
   47.5643  -15.0397   -6.9549 C   0  0  0  0  0  0  0  0  0  0  0  0
   50.5203  -18.6348  -11.8211 C   0  0  0  0  0  0  0  0  0  0  0  0
   49.7302  -19.7832  -11.8531 C   0  0  0  0  0  0  0  0  0  0  0  0
   46.5551  -15.8835   -6.4937 C   0  0  0  0  0  0  0  0  0  0  0  0
   48.3434  -21.0866   -8.2675 H   0  0  0  0  0  0  0  0  0  0  0  0
   47.3788  -19.8686   -6.5550 H   0  0  0  0  0  0  0  0  0  0  0  0
   52.1771  -17.7808   -8.1995 H   0  0  0  0  0  0  0  0  0  0  0  0
   51.3189  -15.5558   -6.5194 H   0  0  0  0  0  0  0  0  0  0  0  0
   50.8600  -17.0558   -5.6226 H   0  0  0  0  0  0  0  0  0  0  0  0
   49.4826  -14.9089   -7.8983 H   0  0  0  0  0  0  0  0  0  0  0  0
   51.2555  -17.0118  -10.6300 H   0  0  0  0  0  0  0  0  0  0  0  0
   53.2038  -17.8956   -5.8840 H   0  0  0  0  0  0  0  0  0  0  0  0
   53.6961  -16.3456   -6.6408 H   0  0  0  0  0  0  0  0  0  0  0  0
   45.8870  -17.9052   -6.2667 H   0  0  0  0  0  0  0  0  0  0  0  0
   48.4571  -21.1030  -10.7476 H   0  0  0  0  0  0  0  0  0  0  0  0
   52.5271  -14.2531   -5.1021 H   0  0  0  0  0  0  0  0  0  0  0  0
   53.5031  -14.3383   -3.6156 H   0  0  0  0  0  0  0  0  0  0  0  0
   54.3119  -14.5280   -5.2220 H   0  0  0  0  0  0  0  0  0  0  0  0
   54.0969  -17.9360   -3.7219 H   0  0  0  0  0  0  0  0  0  0  0  0
   55.2407  -16.7358   -4.4537 H   0  0  0  0  0  0  0  0  0  0  0  0
   54.4383  -16.4098   -2.8616 H   0  0  0  0  0  0  0  0  0  0  0  0
   47.4558  -13.9665   -6.8651 H   0  0  0  0  0  0  0  0  0  0  0  0
   51.0462  -18.3148  -12.7113 H   0  0  0  0  0  0  0  0  0  0  0  0
   49.6468  -20.3561  -12.7677 H   0  0  0  0  0  0  0  0  0  0  0  0
   45.6660  -15.4649   -6.0398 H   0  0  0  0  0  0  0  0  0  0  0  0
  2  1  1  0
  3  1  1  0
  4  6  1  0
  5  7  1  0
  6  2  2  0
  7  3  2  0
  8  1  2  3
  9 13  1  0
 10  8  1  0
 11  3  1  0
 12  2  1  0
 13 10  1  0
 14  7  1  0
 15  6  1  0
 16  9  1  0
 17  9  1  0
 18 11  2  0
 19 12  2  0
 20 19  1  0
 21 18  1  0
  5  4  2  0
 21 14  2  0
 20 15  2  0
  4 22  1  0
  5 23  1  0
  8 24  1  0
 10 25  1  0
 10 26  1  0
 11 27  1  0
 12 28  1  0
 13 29  1  0
 13 30  1  0
 14 31  1  0
 15 32  1  0
 16 33  1  0
 16 34  1  0
 16 35  1  0
 17 36  1  0
 17 37  1  0
 17 38  1  0
 18 39  1  0
 19 40  1  0
 20 41  1  0
 21 42  1  0
M  END
> <Uni-Dock RESULT> 
ENERGY=   -4.458  LOWER_BOUND=    2.165  UPPER_BOUND=    5.812
INTER + INTRA:          -4.458
INTER:                  -4.458
INTRA:                   0.000
UNBOUND:                 0.000

$$$$

     RDKit          3D

 42 44  0  0  0  0  0  0  0  0999 V2000
   44.9229  -14.8594  -12.1549 C   0  0  0  0  0  0  0  0  0  0  0  0
   43.5168  -15.0857  -12.5207 C   0  0  0  0  0  0  0  0  0  0  0  0
   45.6545  -13.8187  -12.8998 C   0  0  0  0  0  0  0  0  0  0  0  0
   42.8946  -12.6877  -11.9323 C   0  0  0  0  0  0  0  0  0  0  0  0
   44.0427  -12.0162  -12.1093 C   0  0  0  0  0  0  0  0  0  0  0  0
   42.5709  -14.0382  -12.4553 C   0  0  0  0  0  0  0  0  0  0  0  0
   45.2169  -12.4763  -12.8884 C   0  0  0  0  0  0  0  0  0  0  0  0
   45.4824  -15.5744  -11.1603 C   0  0  0  0  0  0  0  0  0  0  0  0
   48.4788  -15.7771   -8.8098 N   0  0  0  0  0  0  0  0  0  0  0  0
   46.8825  -15.3347  -10.6545 C   0  0  0  0  0  0  0  0  0  0  0  0
   46.7771  -14.1771  -13.6666 C   0  0  0  0  0  0  0  0  0  0  0  0
   43.1127  -16.3657  -12.9392 C   0  0  0  0  0  0  0  0  0  0  0  0
   47.1514  -16.1216   -9.3651 C   0  0  0  0  0  0  0  0  0  0  0  0
   45.9637  -11.5088  -13.5832 C   0  0  0  0  0  0  0  0  0  0  0  0
   41.2321  -14.3079  -12.7900 C   0  0  0  0  0  0  0  0  0  0  0  0
   49.5466  -16.5525   -9.4664 C   0  0  0  0  0  0  0  0  0  0  0  0
   48.5079  -16.0392   -7.3614 C   0  0  0  0  0  0  0  0  0  0  0  0
   47.4931  -13.2074  -14.3694 C   0  0  0  0  0  0  0  0  0  0  0  0
   41.7835  -16.6089  -13.2869 C   0  0  0  0  0  0  0  0  0  0  0  0
   40.8442  -15.5813  -13.2119 C   0  0  0  0  0  0  0  0  0  0  0  0
   47.0919  -11.8734  -14.3208 C   0  0  0  0  0  0  0  0  0  0  0  0
   42.0957  -12.1568  -11.4270 H   0  0  0  0  0  0  0  0  0  0  0  0
   44.0735  -10.9994  -11.7344 H   0  0  0  0  0  0  0  0  0  0  0  0
   44.8754  -16.3164  -10.6516 H   0  0  0  0  0  0  0  0  0  0  0  0
   47.6034  -15.6444  -11.4365 H   0  0  0  0  0  0  0  0  0  0  0  0
   47.0182  -14.2507  -10.4467 H   0  0  0  0  0  0  0  0  0  0  0  0
   47.0938  -15.2109  -13.7265 H   0  0  0  0  0  0  0  0  0  0  0  0
   43.8309  -17.1743  -13.0013 H   0  0  0  0  0  0  0  0  0  0  0  0
   46.3483  -15.8501   -8.6412 H   0  0  0  0  0  0  0  0  0  0  0  0
   47.0643  -17.2158   -9.5578 H   0  0  0  0  0  0  0  0  0  0  0  0
   45.6642  -10.4677  -13.5650 H   0  0  0  0  0  0  0  0  0  0  0  0
   40.4833  -13.5275  -12.7252 H   0  0  0  0  0  0  0  0  0  0  0  0
   49.5819  -16.3295  -10.5522 H   0  0  0  0  0  0  0  0  0  0  0  0
   50.5373  -16.2673   -9.0513 H   0  0  0  0  0  0  0  0  0  0  0  0
   49.4000  -17.6467   -9.3244 H   0  0  0  0  0  0  0  0  0  0  0  0
   47.7706  -15.3905   -6.8413 H   0  0  0  0  0  0  0  0  0  0  0  0
   48.2752  -17.1052   -7.1405 H   0  0  0  0  0  0  0  0  0  0  0  0
   49.5072  -15.7906   -6.9428 H   0  0  0  0  0  0  0  0  0  0  0  0
   48.3601  -13.4910  -14.9520 H   0  0  0  0  0  0  0  0  0  0  0  0
   41.4808  -17.5962  -13.6111 H   0  0  0  0  0  0  0  0  0  0  0  0
   39.8117  -15.7730  -13.4742 H   0  0  0  0  0  0  0  0  0  0  0  0
   47.6517  -11.1205  -14.8607 H   0  0  0  0  0  0  0  0  0  0  0  0
  2  1  1  0
  3  1  1  0
  4  6  1  0
  5  7  1  0
  6  2  2  0
  7  3  2  0
  8  1  2  3
  9 13  1  0
 10  8  1  0
 11  3  1  0
 12  2  1  0
 13 10  1  0
 14  7  1  0
 15  6  1  0
 16  9  1  0
 17  9  1  0
 18 11  2  0
 19 12  2  0
 20 19  1  0
 21 18  1  0
  5  4  2  0
 21 14  2  0
 20 15  2  0
  4 22  1  0
  5 23  1  0
  8 24  1  0
 10 25  1  0
 10 26  1  0
 11 27  1  0
 12 28  1  0
 13 29  1  0
 13 30  1  0
 14 31  1  0
 15 32  1  0
 16 33  1  0
 16 34  1  0
 16 35  1  0
 17 36  1  0
 17 37  1  0
 17 38  1  0
 18 39  1  0
 19 40  1  0
 20 41  1  0
 21 42  1  0
M  END
> <Uni-Dock RESULT> 
ENERGY=   -4.264  LOWER_BOUND=    6.282  UPPER_BOUND=    8.965
INTER + INTRA:          -4.264
INTER:                  -4.264
INTRA:                   0.000
UNBOUND:                 0.000

$$$$

     RDKit          3D

 42 44  0  0  0  0  0  0  0  0999 V2000
   47.2615  -16.2182  -10.7962 C   0  0  0  0  0  0  0  0  0  0  0  0
   46.1708  -15.6366  -11.5927 C   0  0  0  0  0  0  0  0  0  0  0  0
   47.0142  -16.4157   -9.3564 C   0  0  0  0  0  0  0  0  0  0  0  0
   44.6119  -17.5644  -11.0121 C   0  0  0  0  0  0  0  0  0  0  0  0
   45.0787  -17.9970   -9.8309 C   0  0  0  0  0  0  0  0  0  0  0  0
   44.9034  -16.2580  -11.6529 C   0  0  0  0  0  0  0  0  0  0  0  0
   45.9631  -17.2454   -8.9087 C   0  0  0  0  0  0  0  0  0  0  0  0
   48.4178  -16.5663  -11.3924 C   0  0  0  0  0  0  0  0  0  0  0  0
   51.6485  -18.5437  -10.9487 N   0  0  0  0  0  0  0  0  0  0  0  0
   49.5448  -17.2613  -10.6712 C   0  0  0  0  0  0  0  0  0  0  0  0
   47.8087  -15.7334   -8.4183 C   0  0  0  0  0  0  0  0  0  0  0  0
   46.3986  -14.4456  -12.3042 C   0  0  0  0  0  0  0  0  0  0  0  0
   50.6165  -17.7517  -11.6536 C   0  0  0  0  0  0  0  0  0  0  0  0
   45.7839  -17.4348   -7.5272 C   0  0  0  0  0  0  0  0  0  0  0  0
   43.8985  -15.6794  -12.4482 C   0  0  0  0  0  0  0  0  0  0  0  0
   52.6613  -17.6676  -10.3328 C   0  0  0  0  0  0  0  0  0  0  0  0
   52.3093  -19.4669  -11.8858 C   0  0  0  0  0  0  0  0  0  0  0  0
   47.6018  -15.9148   -7.0504 C   0  0  0  0  0  0  0  0  0  0  0  0
   45.3825  -13.8753  -13.0718 C   0  0  0  0  0  0  0  0  0  0  0  0
   44.1341  -14.4918  -13.1442 C   0  0  0  0  0  0  0  0  0  0  0  0
   46.5960  -16.7712   -6.6054 C   0  0  0  0  0  0  0  0  0  0  0  0
   43.8852  -18.1984  -11.5075 H   0  0  0  0  0  0  0  0  0  0  0  0
   44.6883  -18.9422   -9.4709 H   0  0  0  0  0  0  0  0  0  0  0  0
   48.5205  -16.3990  -12.4598 H   0  0  0  0  0  0  0  0  0  0  0  0
   49.9979  -16.5537   -9.9492 H   0  0  0  0  0  0  0  0  0  0  0  0
   49.1420  -18.1363  -10.1154 H   0  0  0  0  0  0  0  0  0  0  0  0
   48.5849  -15.0536   -8.7470 H   0  0  0  0  0  0  0  0  0  0  0  0
   47.3638  -13.9557  -12.2586 H   0  0  0  0  0  0  0  0  0  0  0  0
   50.1004  -18.3815  -12.4149 H   0  0  0  0  0  0  0  0  0  0  0  0
   51.0674  -16.8871  -12.1930 H   0  0  0  0  0  0  0  0  0  0  0  0
   45.0027  -18.0899   -7.1604 H   0  0  0  0  0  0  0  0  0  0  0  0
   42.9257  -16.1494  -12.5298 H   0  0  0  0  0  0  0  0  0  0  0  0
   52.1958  -16.9991   -9.5801 H   0  0  0  0  0  0  0  0  0  0  0  0
   53.4168  -18.2774   -9.7918 H   0  0  0  0  0  0  0  0  0  0  0  0
   53.1815  -17.0481  -11.0972 H   0  0  0  0  0  0  0  0  0  0  0  0
   51.5725  -20.1956  -12.2872 H   0  0  0  0  0  0  0  0  0  0  0  0
   52.7751  -18.9153  -12.7331 H   0  0  0  0  0  0  0  0  0  0  0  0
   53.0922  -20.0566  -11.3613 H   0  0  0  0  0  0  0  0  0  0  0  0
   48.2222  -15.3907   -6.3349 H   0  0  0  0  0  0  0  0  0  0  0  0
   45.5646  -12.9565  -13.6142 H   0  0  0  0  0  0  0  0  0  0  0  0
   43.3490  -14.0529  -13.7464 H   0  0  0  0  0  0  0  0  0  0  0  0
   46.4403  -16.9167   -5.5441 H   0  0  0  0  0  0  0  0  0  0  0  0
  2  1  1  0
  3  1  1  0
  4  6  1  0
  5  7  1  0
  6  2  2  0
  7  3  2  0
  8  1  2  3
  9 13  1  0
 10  8  1  0
 11  3  1  0
 12  2  1  0
 13 10  1  0
 14  7  1  0
 15  6  1  0
 16  9  1  0
 17  9  1  0
 18 11  2  0
 19 12  2  0
 20 19  1  0
 21 18  1  0
  5  4  2  0
 21 14  2  0
 20 15  2  0
  4 22  1  0
  5 23  1  0
  8 24  1  0
 10 25  1  0
 10 26  1  0
 11 27  1  0
 12 28  1  0
 13 29  1  0
 13 30  1  0
 14 31  1  0
 15 32  1  0
 16 33  1  0
 16 34  1  0
 16 35  1  0
 17 36  1  0
 17 37  1  0
 17 38  1  0
 18 39  1  0
 19 40  1  0
 20 41  1  0
 21 42  1  0
M  END
> <Uni-Dock RESULT> 
ENERGY=   -4.175  LOWER_BOUND=    3.780  UPPER_BOUND=    6.195
INTER + INTRA:          -4.175
INTER:                  -4.175
INTRA:                   0.000
UNBOUND:                 0.000

$$$$

     RDKit          3D

 42 44  0  0  0  0  0  0  0  0999 V2000
   47.1403  -16.5663   -9.8261 C   0  0  0  0  0  0  0  0  0  0  0  0
   48.4447  -16.7998   -9.1887 C   0  0  0  0  0  0  0  0  0  0  0  0
   46.0223  -17.4331   -9.4117 C   0  0  0  0  0  0  0  0  0  0  0  0
   47.4919  -16.3146   -6.8777 C   0  0  0  0  0  0  0  0  0  0  0  0
   46.1934  -16.6278   -7.0047 C   0  0  0  0  0  0  0  0  0  0  0  0
   48.5925  -16.7228   -7.7857 C   0  0  0  0  0  0  0  0  0  0  0  0
   45.5941  -17.4705   -8.0668 C   0  0  0  0  0  0  0  0  0  0  0  0
   47.0011  -15.5781  -10.7303 C   0  0  0  0  0  0  0  0  0  0  0  0
   44.4564  -13.4747  -12.6395 N   0  0  0  0  0  0  0  0  0  0  0  0
   45.6792  -15.2056  -11.3528 C   0  0  0  0  0  0  0  0  0  0  0  0
   45.4043  -18.2658  -10.3611 C   0  0  0  0  0  0  0  0  0  0  0  0
   49.5582  -17.1018   -9.9922 C   0  0  0  0  0  0  0  0  0  0  0  0
   45.7857  -13.8957  -12.1446 C   0  0  0  0  0  0  0  0  0  0  0  0
   44.5012  -18.2843   -7.7206 C   0  0  0  0  0  0  0  0  0  0  0  0
   49.8645  -16.9282   -7.2228 C   0  0  0  0  0  0  0  0  0  0  0  0
   44.1136  -14.1669  -13.8948 C   0  0  0  0  0  0  0  0  0  0  0  0
   44.4349  -12.0200  -12.8648 C   0  0  0  0  0  0  0  0  0  0  0  0
   44.3357  -19.0851   -9.9952 C   0  0  0  0  0  0  0  0  0  0  0  0
   50.8086  -17.3227   -9.4134 C   0  0  0  0  0  0  0  0  0  0  0  0
   50.9616  -17.2354   -8.0304 C   0  0  0  0  0  0  0  0  0  0  0  0
   43.8791  -19.0879   -8.6782 C   0  0  0  0  0  0  0  0  0  0  0  0
   47.7757  -15.7797   -5.9784 H   0  0  0  0  0  0  0  0  0  0  0  0
   45.5386  -16.3217   -6.1967 H   0  0  0  0  0  0  0  0  0  0  0  0
   47.8694  -14.9752  -10.9759 H   0  0  0  0  0  0  0  0  0  0  0  0
   45.3586  -16.0233  -12.0279 H   0  0  0  0  0  0  0  0  0  0  0  0
   44.9181  -15.0786  -10.5521 H   0  0  0  0  0  0  0  0  0  0  0  0
   45.7557  -18.2863  -11.3852 H   0  0  0  0  0  0  0  0  0  0  0  0
   49.4551  -17.1718  -11.0683 H   0  0  0  0  0  0  0  0  0  0  0  0
   46.2009  -13.1266  -11.4527 H   0  0  0  0  0  0  0  0  0  0  0  0
   46.5120  -14.0110  -12.9819 H   0  0  0  0  0  0  0  0  0  0  0  0
   44.1359  -18.3072   -6.7008 H   0  0  0  0  0  0  0  0  0  0  0  0
   50.0086  -16.8513   -6.1517 H   0  0  0  0  0  0  0  0  0  0  0  0
   44.0682  -15.2638  -13.7378 H   0  0  0  0  0  0  0  0  0  0  0  0
   43.1051  -13.8537  -14.2414 H   0  0  0  0  0  0  0  0  0  0  0  0
   44.8531  -13.9445  -14.6964 H   0  0  0  0  0  0  0  0  0  0  0  0
   44.5989  -11.4828  -11.9059 H   0  0  0  0  0  0  0  0  0  0  0  0
   45.2193  -11.7138  -13.5929 H   0  0  0  0  0  0  0  0  0  0  0  0
   43.4404  -11.7018  -13.2461 H   0  0  0  0  0  0  0  0  0  0  0  0
   43.8613  -19.7182  -10.7339 H   0  0  0  0  0  0  0  0  0  0  0  0
   51.6604  -17.5578  -10.0384 H   0  0  0  0  0  0  0  0  0  0  0  0
   51.9335  -17.3990   -7.5831 H   0  0  0  0  0  0  0  0  0  0  0  0
   43.0458  -19.7186   -8.3963 H   0  0  0  0  0  0  0  0  0  0  0  0
  2  1  1  0
  3  1  1  0
  4  6  1  0
  5  7  1  0
  6  2  2  0
  7  3  2  0
  8  1  2  3
  9 13  1  0
 10  8  1  0
 11  3  1  0
 12  2  1  0
 13 10  1  0
 14  7  1  0
 15  6  1  0
 16  9  1  0
 17  9  1  0
 18 11  2  0
 19 12  2  0
 20 19  1  0
 21 18  1  0
  5  4  2  0
 21 14  2  0
 20 15  2  0
  4 22  1  0
  5 23  1  0
  8 24  1  0
 10 25  1  0
 10 26  1  0
 11 27  1  0
 12 28  1  0
 13 29  1  0
 13 30  1  0
 14 31  1  0
 15 32  1  0
 16 33  1  0
 16 34  1  0
 16 35  1  0
 17 36  1  0
 17 37  1  0
 17 38  1  0
 18 39  1  0
 19 40  1  0
 20 41  1  0
 21 42  1  0
M  END
> <Uni-Dock RESULT> 
ENERGY=   -4.146  LOWER_BOUND=    3.899  UPPER_BOUND=    5.011
INTER + INTRA:          -4.146
INTER:                  -4.146
INTRA:                   0.000
UNBOUND:                 0.000

$$$$

     RDKit          3D

 42 44  0  0  0  0  0  0  0  0999 V2000
   46.5290  -16.1070  -10.8748 C   0  0  0  0  0  0  0  0  0  0  0  0
   47.3957  -16.0204   -9.6902 C   0  0  0  0  0  0  0  0  0  0  0  0
   46.9319  -15.3338  -12.0635 C   0  0  0  0  0  0  0  0  0  0  0  0
   49.3822  -16.9604  -10.9762 C   0  0  0  0  0  0  0  0  0  0  0  0
   49.1210  -16.6166  -12.2467 C   0  0  0  0  0  0  0  0  0  0  0  0
   48.7592  -16.3844   -9.7587 C   0  0  0  0  0  0  0  0  0  0  0  0
   48.1728  -15.5691  -12.6947 C   0  0  0  0  0  0  0  0  0  0  0  0
   45.4320  -16.8878  -10.8496 C   0  0  0  0  0  0  0  0  0  0  0  0
   42.7618  -18.5334  -13.0192 N   0  0  0  0  0  0  0  0  0  0  0  0
   44.5485  -17.1134  -12.0505 C   0  0  0  0  0  0  0  0  0  0  0  0
   46.0876  -14.3190  -12.5471 C   0  0  0  0  0  0  0  0  0  0  0  0
   46.8541  -15.5698   -8.4735 C   0  0  0  0  0  0  0  0  0  0  0  0
   43.5330  -18.2342  -11.7924 C   0  0  0  0  0  0  0  0  0  0  0  0
   48.5029  -14.8341  -13.8468 C   0  0  0  0  0  0  0  0  0  0  0  0
   49.5433  -16.3097   -8.5940 C   0  0  0  0  0  0  0  0  0  0  0  0
   41.6361  -17.5957  -13.1805 C   0  0  0  0  0  0  0  0  0  0  0  0
   42.2444  -19.9108  -12.9714 C   0  0  0  0  0  0  0  0  0  0  0  0
   46.4417  -13.5829  -13.6783 C   0  0  0  0  0  0  0  0  0  0  0  0
   47.6533  -15.4829   -7.3330 C   0  0  0  0  0  0  0  0  0  0  0  0
   48.9962  -15.8530   -7.3930 C   0  0  0  0  0  0  0  0  0  0  0  0
   47.6442  -13.8460  -14.3325 C   0  0  0  0  0  0  0  0  0  0  0  0
   50.1867  -17.6707  -10.8220 H   0  0  0  0  0  0  0  0  0  0  0  0
   49.7377  -17.0762  -13.0109 H   0  0  0  0  0  0  0  0  0  0  0  0
   45.2071  -17.4351   -9.9398 H   0  0  0  0  0  0  0  0  0  0  0  0
   44.0126  -16.1720  -12.2824 H   0  0  0  0  0  0  0  0  0  0  0  0
   45.1781  -17.3952  -12.9228 H   0  0  0  0  0  0  0  0  0  0  0  0
   45.1566  -14.0922  -12.0425 H   0  0  0  0  0  0  0  0  0  0  0  0
   45.8122  -15.2798   -8.4111 H   0  0  0  0  0  0  0  0  0  0  0  0
   44.1098  -19.1322  -11.4709 H   0  0  0  0  0  0  0  0  0  0  0  0
   42.8603  -17.9560  -10.9486 H   0  0  0  0  0  0  0  0  0  0  0  0
   49.4363  -15.0175  -14.3654 H   0  0  0  0  0  0  0  0  0  0  0  0
   50.5854  -16.6056   -8.6150 H   0  0  0  0  0  0  0  0  0  0  0  0
   42.0042  -16.5539  -13.2754 H   0  0  0  0  0  0  0  0  0  0  0  0
   41.0802  -17.8226  -14.1158 H   0  0  0  0  0  0  0  0  0  0  0  0
   40.9312  -17.6556  -12.3212 H   0  0  0  0  0  0  0  0  0  0  0  0
   43.0873  -20.6345  -12.9446 H   0  0  0  0  0  0  0  0  0  0  0  0
   41.6004  -20.0681  -12.0771 H   0  0  0  0  0  0  0  0  0  0  0  0
   41.6562  -20.1356  -13.8874 H   0  0  0  0  0  0  0  0  0  0  0  0
   45.7828  -12.8078  -14.0479 H   0  0  0  0  0  0  0  0  0  0  0  0
   47.2298  -15.1321   -6.4007 H   0  0  0  0  0  0  0  0  0  0  0  0
   49.6132  -15.7929   -6.5058 H   0  0  0  0  0  0  0  0  0  0  0  0
   47.9153  -13.2792  -15.2140 H   0  0  0  0  0  0  0  0  0  0  0  0
  2  1  1  0
  3  1  1  0
  4  6  1  0
  5  7  1  0
  6  2  2  0
  7  3  2  0
  8  1  2  3
  9 13  1  0
 10  8  1  0
 11  3  1  0
 12  2  1  0
 13 10  1  0
 14  7  1  0
 15  6  1  0
 16  9  1  0
 17  9  1  0
 18 11  2  0
 19 12  2  0
 20 19  1  0
 21 18  1  0
  5  4  2  0
 21 14  2  0
 20 15  2  0
  4 22  1  0
  5 23  1  0
  8 24  1  0
 10 25  1  0
 10 26  1  0
 11 27  1  0
 12 28  1  0
 13 29  1  0
 13 30  1  0
 14 31  1  0
 15 32  1  0
 16 33  1  0
 16 34  1  0
 16 35  1  0
 17 36  1  0
 17 37  1  0
 17 38  1  0
 18 39  1  0
 19 40  1  0
 20 41  1  0
 21 42  1  0
M  END
> <Uni-Dock RESULT> 
ENERGY=   -4.145  LOWER_BOUND=    4.631  UPPER_BOUND=    6.360
INTER + INTRA:          -4.145
INTER:                  -4.145
INTRA:                   0.000
UNBOUND:                 0.000

$$$$

     RDKit          3D

 42 44  0  0  0  0  0  0  0  0999 V2000
   49.0100  -18.0835   -7.2352 C   0  0  0  0  0  0  0  0  0  0  0  0
   47.6494  -18.4914   -6.8548 C   0  0  0  0  0  0  0  0  0  0  0  0
   49.2162  -17.6352   -8.6243 C   0  0  0  0  0  0  0  0  0  0  0  0
   46.7190  -16.1852   -7.4020 C   0  0  0  0  0  0  0  0  0  0  0  0
   47.5708  -15.7178   -8.3274 C   0  0  0  0  0  0  0  0  0  0  0  0
   46.5612  -17.5991   -6.9798 C   0  0  0  0  0  0  0  0  0  0  0  0
   48.5131  -16.5242   -9.1392 C   0  0  0  0  0  0  0  0  0  0  0  0
   49.9995  -18.1083   -6.3220 C   0  0  0  0  0  0  0  0  0  0  0  0
   53.5463  -16.9203   -5.5782 N   0  0  0  0  0  0  0  0  0  0  0  0
   51.3953  -17.6105   -6.5999 C   0  0  0  0  0  0  0  0  0  0  0  0
   50.0918  -18.3513   -9.4593 C   0  0  0  0  0  0  0  0  0  0  0  0
   47.4343  -19.7890   -6.3581 C   0  0  0  0  0  0  0  0  0  0  0  0
   52.2255  -17.5318   -5.3121 C   0  0  0  0  0  0  0  0  0  0  0  0
   48.7656  -16.1081  -10.4582 C   0  0  0  0  0  0  0  0  0  0  0  0
   45.2823  -18.0246   -6.5793 C   0  0  0  0  0  0  0  0  0  0  0  0
   54.5000  -17.9195   -6.0925 C   0  0  0  0  0  0  0  0  0  0  0  0
   54.0867  -16.3210   -4.3469 C   0  0  0  0  0  0  0  0  0  0  0  0
   50.3128  -17.9381  -10.7736 C   0  0  0  0  0  0  0  0  0  0  0  0
   46.1542  -20.2000   -5.9849 C   0  0  0  0  0  0  0  0  0  0  0  0
   45.0795  -19.3186   -6.0949 C   0  0  0  0  0  0  0  0  0  0  0  0
   49.6569  -16.8127  -11.2698 C   0  0  0  0  0  0  0  0  0  0  0  0
   46.0209  -15.4705   -6.9810 H   0  0  0  0  0  0  0  0  0  0  0  0
   47.4874  -14.6661   -8.5774 H   0  0  0  0  0  0  0  0  0  0  0  0
   49.7667  -18.4414   -5.3157 H   0  0  0  0  0  0  0  0  0  0  0  0
   51.8847  -18.2991   -7.3165 H   0  0  0  0  0  0  0  0  0  0  0  0
   51.3410  -16.5963   -7.0529 H   0  0  0  0  0  0  0  0  0  0  0  0
   50.5984  -19.2359   -9.0941 H   0  0  0  0  0  0  0  0  0  0  0  0
   48.2598  -20.4846   -6.2658 H   0  0  0  0  0  0  0  0  0  0  0  0
   51.6507  -16.9084   -4.5885 H   0  0  0  0  0  0  0  0  0  0  0  0
   52.3316  -18.5454   -4.8611 H   0  0  0  0  0  0  0  0  0  0  0  0
   48.2601  -15.2407  -10.8658 H   0  0  0  0  0  0  0  0  0  0  0  0
   44.4358  -17.3513   -6.6432 H   0  0  0  0  0  0  0  0  0  0  0  0
   54.1416  -18.3463   -7.0513 H   0  0  0  0  0  0  0  0  0  0  0  0
   55.4796  -17.4395   -6.3051 H   0  0  0  0  0  0  0  0  0  0  0  0
   54.6563  -18.7452   -5.3628 H   0  0  0  0  0  0  0  0  0  0  0  0
   53.4235  -15.4999   -3.9991 H   0  0  0  0  0  0  0  0  0  0  0  0
   54.1820  -17.0800   -3.5380 H   0  0  0  0  0  0  0  0  0  0  0  0
   55.0835  -15.8693   -4.5412 H   0  0  0  0  0  0  0  0  0  0  0  0
   50.9936  -18.4913  -11.4077 H   0  0  0  0  0  0  0  0  0  0  0  0
   45.9961  -21.2016   -5.6064 H   0  0  0  0  0  0  0  0  0  0  0  0
   44.0882  -19.6357   -5.7976 H   0  0  0  0  0  0  0  0  0  0  0  0
   49.8339  -16.4887  -12.2874 H   0  0  0  0  0  0  0  0  0  0  0  0
  2  1  1  0
  3  1  1  0
  4  6  1  0
  5  7  1  0
  6  2  2  0
  7  3  2  0
  8  1  2  3
  9 13  1  0
 10  8  1  0
 11  3  1  0
 12  2  1  0
 13 10  1  0
 14  7  1  0
 15  6  1  0
 16  9  1  0
 17  9  1  0
 18 11  2  0
 19 12  2  0
 20 19  1  0
 21 18  1  0
  5  4  2  0
 21 14  2  0
 20 15  2  0
  4 22  1  0
  5 23  1  0
  8 24  1  0
 10 25  1  0
 10 26  1  0
 11 27  1  0
 12 28  1  0
 13 29  1  0
 13 30  1  0
 14 31  1  0
 15 32  1  0
 16 33  1  0
 16 34  1  0
 16 35  1  0
 17 36  1  0
 17 37  1  0
 17 38  1  0
 18 39  1  0
 19 40  1  0
 20 41  1  0
 21 42  1  0
M  END
> <Uni-Dock RESULT> 
ENERGY=   -3.987  LOWER_BOUND=    2.432  UPPER_BOUND=    5.726
INTER + INTRA:          -3.987
INTER:                  -3.987
INTRA:                   0.000
UNBOUND:                 0.000

$$$$
