
     RDKit          3D

 42 44  0  0  0  0  0  0  0  0999 V2000
   50.0303  -16.9933   -8.1455 C   0  0  0  0  0  0  0  0  0  0  0  0
   48.6192  -17.0566   -7.7365 C   0  0  0  0  0  0  0  0  0  0  0  0
   51.0056  -16.5678   -7.1249 C   0  0  0  0  0  0  0  0  0  0  0  0
   48.5869  -14.5732   -7.1767 C   0  0  0  0  0  0  0  0  0  0  0  0
   49.8669  -14.3063   -6.8763 C   0  0  0  0  0  0  0  0  0  0  0  0
   47.9549  -15.9144   -7.2363 C   0  0  0  0  0  0  0  0  0  0  0  0
   50.9078  -15.2980   -6.5149 C   0  0  0  0  0  0  0  0  0  0  0  0
   50.3737  -17.3022   -9.4119 C   0  0  0  0  0  0  0  0  0  0  0  0
   52.5366  -19.1058  -11.4158 N   0  0  0  0  0  0  0  0  0  0  0  0
   51.7748  -17.2189   -9.9641 C   0  0  0  0  0  0  0  0  0  0  0  0
   52.0208  -17.4542   -6.7241 C   0  0  0  0  0  0  0  0  0  0  0  0
   47.9254  -18.2742   -7.8487 C   0  0  0  0  0  0  0  0  0  0  0  0
   52.4459  -18.6059  -10.0262 C   0  0  0  0  0  0  0  0  0  0  0  0
   51.8797  -14.9157   -5.5739 C   0  0  0  0  0  0  0  0  0  0  0  0
   46.5980  -16.0163   -6.8826 C   0  0  0  0  0  0  0  0  0  0  0  0
   53.5186  -20.2000  -11.4918 C   0  0  0  0  0  0  0  0  0  0  0  0
   51.2285  -19.5901  -11.8904 C   0  0  0  0  0  0  0  0  0  0  0  0
   52.9638  -17.0668   -5.7716 C   0  0  0  0  0  0  0  0  0  0  0  0
   46.5842  -18.3608   -7.4734 C   0  0  0  0  0  0  0  0  0  0  0  0
   45.9212  -17.2331   -6.9916 C   0  0  0  0  0  0  0  0  0  0  0  0
   52.8985  -15.7958   -5.2033 C   0  0  0  0  0  0  0  0  0  0  0  0
   47.9315  -13.7196   -7.3082 H   0  0  0  0  0  0  0  0  0  0  0  0
   50.1374  -13.2601   -6.7881 H   0  0  0  0  0  0  0  0  0  0  0  0
   49.5962  -17.6139  -10.0989 H   0  0  0  0  0  0  0  0  0  0  0  0
   52.3956  -16.5231   -9.3598 H   0  0  0  0  0  0  0  0  0  0  0  0
   51.7283  -16.7676  -10.9787 H   0  0  0  0  0  0  0  0  0  0  0  0
   52.0785  -18.4493   -7.1439 H   0  0  0  0  0  0  0  0  0  0  0  0
   48.4270  -19.1587   -8.2229 H   0  0  0  0  0  0  0  0  0  0  0  0
   51.9272  -19.3441   -9.3717 H   0  0  0  0  0  0  0  0  0  0  0  0
   53.4701  -18.4853   -9.6054 H   0  0  0  0  0  0  0  0  0  0  0  0
   51.8423  -13.9353   -5.1142 H   0  0  0  0  0  0  0  0  0  0  0  0
   46.0599  -15.1491   -6.5189 H   0  0  0  0  0  0  0  0  0  0  0  0
   53.6008  -20.5734  -12.5355 H   0  0  0  0  0  0  0  0  0  0  0  0
   54.5263  -19.8318  -11.2021 H   0  0  0  0  0  0  0  0  0  0  0  0
   53.2339  -21.0444  -10.8246 H   0  0  0  0  0  0  0  0  0  0  0  0
   50.5104  -18.7485  -11.9641 H   0  0  0  0  0  0  0  0  0  0  0  0
   50.8136  -20.3714  -11.2151 H   0  0  0  0  0  0  0  0  0  0  0  0
   51.3207  -20.0133  -12.9142 H   0  0  0  0  0  0  0  0  0  0  0  0
   53.7462  -17.7531   -5.4742 H   0  0  0  0  0  0  0  0  0  0  0  0
   46.0575  -19.3024   -7.5600 H   0  0  0  0  0  0  0  0  0  0  0  0
   44.8787  -17.2992   -6.7082 H   0  0  0  0  0  0  0  0  0  0  0  0
   53.6343  -15.4934   -4.4692 H   0  0  0  0  0  0  0  0  0  0  0  0
  2  1  1  0
  3  1  1  0
  4  6  1  0
  5  7  1  0
  6  2  2  0
  7  3  2  0
  8  1  2  3
  9 13  1  0
 10  8  1  0
 11  3  1  0
 12  2  1  0
 13 10  1  0
 14  7  1  0
 15  6  1  0
 16  9  1  0
 17  9  1  0
 18 11  2  0
 19 12  2  0
 20 19  1  0
 21 18  1  0
  5  4  2  0
 21 14  2  0
 20 15  2  0
  4 22  1  0
  5 23  1  0
  8 24  1  0
 10 25  1  0
 10 26  1  0
 11 27  1  0
 12 28  1  0
 13 29  1  0
 13 30  1  0
 14 31  1  0
 15 32  1  0
 16 33  1  0
 16 34  1  0
 16 35  1  0
 17 36  1  0
 17 37  1  0
 17 38  1  0
 18 39  1  0
 19 40  1  0
 20 41  1  0
 21 42  1  0
M  END
> <Uni-Dock RESULT> 
ENERGY=   -5.323  LOWER_BOUND=    0.000  UPPER_BOUND=    0.000
INTER + INTRA:          -5.323
INTER:                  -5.323
INTRA:                   0.000
UNBOUND:                 0.000

$$$$

     RDKit          3D

 42 44  0  0  0  0  0  0  0  0999 V2000
   48.5335  -16.9426   -7.9580 C   0  0  0  0  0  0  0  0  0  0  0  0
   49.5623  -16.1316   -7.2900 C   0  0  0  0  0  0  0  0  0  0  0  0
   47.8009  -17.9144   -7.1257 C   0  0  0  0  0  0  0  0  0  0  0  0
   50.8833  -18.2057   -6.6307 C   0  0  0  0  0  0  0  0  0  0  0  0
   49.9462  -19.1638   -6.5694 C   0  0  0  0  0  0  0  0  0  0  0  0
   50.6498  -16.7403   -6.6246 C   0  0  0  0  0  0  0  0  0  0  0  0
   48.4833  -18.9533   -6.4555 C   0  0  0  0  0  0  0  0  0  0  0  0
   48.3122  -16.7863   -9.2786 C   0  0  0  0  0  0  0  0  0  0  0  0
   45.9162  -16.3585  -11.7327 N   0  0  0  0  0  0  0  0  0  0  0  0
   47.3287  -17.5978  -10.0842 C   0  0  0  0  0  0  0  0  0  0  0  0
   46.4107  -17.7793   -6.9638 C   0  0  0  0  0  0  0  0  0  0  0  0
   49.4578  -14.7299   -7.3186 C   0  0  0  0  0  0  0  0  0  0  0  0
   46.0186  -16.8229  -10.3316 C   0  0  0  0  0  0  0  0  0  0  0  0
   47.7435  -19.8816   -5.7023 C   0  0  0  0  0  0  0  0  0  0  0  0
   51.6232  -15.9236   -6.0228 C   0  0  0  0  0  0  0  0  0  0  0  0
   44.5224  -15.9982  -12.0407 C   0  0  0  0  0  0  0  0  0  0  0  0
   46.7854  -15.1923  -11.9684 C   0  0  0  0  0  0  0  0  0  0  0  0
   45.6951  -18.6966   -6.1935 C   0  0  0  0  0  0  0  0  0  0  0  0
   50.4231  -13.9362   -6.6979 C   0  0  0  0  0  0  0  0  0  0  0  0
   51.5049  -14.5324   -6.0514 C   0  0  0  0  0  0  0  0  0  0  0  0
   46.3595  -19.7516   -5.5704 C   0  0  0  0  0  0  0  0  0  0  0  0
   51.9159  -18.5346   -6.5986 H   0  0  0  0  0  0  0  0  0  0  0  0
   50.3002  -20.1856   -6.4907 H   0  0  0  0  0  0  0  0  0  0  0  0
   48.8888  -16.0437   -9.8168 H   0  0  0  0  0  0  0  0  0  0  0  0
   47.1096  -18.5639   -9.5811 H   0  0  0  0  0  0  0  0  0  0  0  0
   47.8038  -17.8698  -11.0514 H   0  0  0  0  0  0  0  0  0  0  0  0
   45.8807  -16.9589   -7.4282 H   0  0  0  0  0  0  0  0  0  0  0  0
   48.6235  -14.2523   -7.8184 H   0  0  0  0  0  0  0  0  0  0  0  0
   45.9034  -15.9714   -9.6216 H   0  0  0  0  0  0  0  0  0  0  0  0
   45.1838  -17.5260  -10.1095 H   0  0  0  0  0  0  0  0  0  0  0  0
   48.2416  -20.7042   -5.2032 H   0  0  0  0  0  0  0  0  0  0  0  0
   52.4791  -16.3658   -5.5270 H   0  0  0  0  0  0  0  0  0  0  0  0
   44.4353  -15.6589  -13.0956 H   0  0  0  0  0  0  0  0  0  0  0  0
   43.8639  -16.8869  -11.9337 H   0  0  0  0  0  0  0  0  0  0  0  0
   44.1564  -15.1907  -11.3674 H   0  0  0  0  0  0  0  0  0  0  0  0
   47.8512  -15.4805  -11.8682 H   0  0  0  0  0  0  0  0  0  0  0  0
   46.5584  -14.3647  -11.2597 H   0  0  0  0  0  0  0  0  0  0  0  0
   46.6585  -14.8190  -13.0078 H   0  0  0  0  0  0  0  0  0  0  0  0
   44.6240  -18.5890   -6.0802 H   0  0  0  0  0  0  0  0  0  0  0  0
   50.3343  -12.8578   -6.7217 H   0  0  0  0  0  0  0  0  0  0  0  0
   52.2574  -13.9158   -5.5771 H   0  0  0  0  0  0  0  0  0  0  0  0
   45.8028  -20.4666   -4.9784 H   0  0  0  0  0  0  0  0  0  0  0  0
  2  1  1  0
  3  1  1  0
  4  6  1  0
  5  7  1  0
  6  2  2  0
  7  3  2  0
  8  1  2  3
  9 13  1  0
 10  8  1  0
 11  3  1  0
 12  2  1  0
 13 10  1  0
 14  7  1  0
 15  6  1  0
 16  9  1  0
 17  9  1  0
 18 11  2  0
 19 12  2  0
 20 19  1  0
 21 18  1  0
  5  4  2  0
 21 14  2  0
 20 15  2  0
  4 22  1  0
  5 23  1  0
  8 24  1  0
 10 25  1  0
 10 26  1  0
 11 27  1  0
 12 28  1  0
 13 29  1  0
 13 30  1  0
 14 31  1  0
 15 32  1  0
 16 33  1  0
 16 34  1  0
 16 35  1  0
 17 36  1  0
 17 37  1  0
 17 38  1  0
 18 39  1  0
 19 40  1  0
 20 41  1  0
 21 42  1  0
M  END
> <Uni-Dock RESULT> 
ENERGY=   -5.238  LOWER_BOUND=    2.753  UPPER_BOUND=    5.555
INTER + INTRA:          -5.238
INTER:                  -5.238
INTRA:                   0.000
UNBOUND:                 0.000

$$$$

     RDKit          3D

 42 44  0  0  0  0  0  0  0  0999 V2000
   49.7096  -18.4094   -7.3882 C   0  0  0  0  0  0  0  0  0  0  0  0
   50.3187  -18.9307   -6.1555 C   0  0  0  0  0  0  0  0  0  0  0  0
   48.5349  -17.5314   -7.2360 C   0  0  0  0  0  0  0  0  0  0  0  0
   48.1624  -20.1118   -5.4942 C   0  0  0  0  0  0  0  0  0  0  0  0
   47.2114  -19.3798   -6.0940 C   0  0  0  0  0  0  0  0  0  0  0  0
   49.5653  -19.7001   -5.2408 C   0  0  0  0  0  0  0  0  0  0  0  0
   47.3611  -17.9958   -6.6032 C   0  0  0  0  0  0  0  0  0  0  0  0
   50.2221  -18.7565   -8.5857 C   0  0  0  0  0  0  0  0  0  0  0  0
   51.2780  -17.6100  -11.6708 N   0  0  0  0  0  0  0  0  0  0  0  0
   49.6513  -18.3345   -9.9165 C   0  0  0  0  0  0  0  0  0  0  0  0
   48.5998  -16.2021   -7.6894 C   0  0  0  0  0  0  0  0  0  0  0  0
   51.6719  -18.6578   -5.8891 C   0  0  0  0  0  0  0  0  0  0  0  0
   50.4454  -17.1646  -10.5317 C   0  0  0  0  0  0  0  0  0  0  0  0
   46.2499  -17.1393   -6.5119 C   0  0  0  0  0  0  0  0  0  0  0  0
   50.1974  -20.1997   -4.0886 C   0  0  0  0  0  0  0  0  0  0  0  0
   51.6893  -16.4480  -12.4757 C   0  0  0  0  0  0  0  0  0  0  0  0
   52.4763  -18.3277  -11.2015 C   0  0  0  0  0  0  0  0  0  0  0  0
   47.4949  -15.3584   -7.5700 C   0  0  0  0  0  0  0  0  0  0  0  0
   52.2766  -19.1452   -4.7299 C   0  0  0  0  0  0  0  0  0  0  0  0
   51.5404  -19.9157   -3.8311 C   0  0  0  0  0  0  0  0  0  0  0  0
   46.3184  -15.8290   -6.9896 C   0  0  0  0  0  0  0  0  0  0  0  0
   47.8524  -21.0653   -5.0815 H   0  0  0  0  0  0  0  0  0  0  0  0
   46.2130  -19.8022   -6.1133 H   0  0  0  0  0  0  0  0  0  0  0  0
   51.0930  -19.4004   -8.6103 H   0  0  0  0  0  0  0  0  0  0  0  0
   48.5805  -18.0555   -9.8152 H   0  0  0  0  0  0  0  0  0  0  0  0
   49.6645  -19.2107  -10.6002 H   0  0  0  0  0  0  0  0  0  0  0  0
   49.5090  -15.8154   -8.1295 H   0  0  0  0  0  0  0  0  0  0  0  0
   52.2571  -18.0616   -6.5792 H   0  0  0  0  0  0  0  0  0  0  0  0
   51.0653  -16.6408   -9.7676 H   0  0  0  0  0  0  0  0  0  0  0  0
   49.6964  -16.4201  -10.8856 H   0  0  0  0  0  0  0  0  0  0  0  0
   45.3285  -17.4829   -6.0569 H   0  0  0  0  0  0  0  0  0  0  0  0
   49.6477  -20.8120   -3.3838 H   0  0  0  0  0  0  0  0  0  0  0  0
   52.3061  -16.7760  -13.3403 H   0  0  0  0  0  0  0  0  0  0  0  0
   50.7963  -15.9358  -12.8940 H   0  0  0  0  0  0  0  0  0  0  0  0
   52.2735  -15.7221  -11.8666 H   0  0  0  0  0  0  0  0  0  0  0  0
   52.1870  -19.2760  -10.7054 H   0  0  0  0  0  0  0  0  0  0  0  0
   53.0719  -17.7079  -10.4946 H   0  0  0  0  0  0  0  0  0  0  0  0
   53.1208  -18.6088  -12.0625 H   0  0  0  0  0  0  0  0  0  0  0  0
   47.5515  -14.3386   -7.9282 H   0  0  0  0  0  0  0  0  0  0  0  0
   53.3181  -18.9285   -4.5304 H   0  0  0  0  0  0  0  0  0  0  0  0
   52.0124  -20.3001   -2.9361 H   0  0  0  0  0  0  0  0  0  0  0  0
   45.4594  -15.1760   -6.9031 H   0  0  0  0  0  0  0  0  0  0  0  0
  2  1  1  0
  3  1  1  0
  4  6  1  0
  5  7  1  0
  6  2  2  0
  7  3  2  0
  8  1  2  3
  9 13  1  0
 10  8  1  0
 11  3  1  0
 12  2  1  0
 13 10  1  0
 14  7  1  0
 15  6  1  0
 16  9  1  0
 17  9  1  0
 18 11  2  0
 19 12  2  0
 20 19  1  0
 21 18  1  0
  5  4  2  0
 21 14  2  0
 20 15  2  0
  4 22  1  0
  5 23  1  0
  8 24  1  0
 10 25  1  0
 10 26  1  0
 11 27  1  0
 12 28  1  0
 13 29  1  0
 13 30  1  0
 14 31  1  0
 15 32  1  0
 16 33  1  0
 16 34  1  0
 16 35  1  0
 17 36  1  0
 17 37  1  0
 17 38  1  0
 18 39  1  0
 19 40  1  0
 20 41  1  0
 21 42  1  0
M  END
> <Uni-Dock RESULT> 
ENERGY=   -4.871  LOWER_BOUND=    2.113  UPPER_BOUND=    4.615
INTER + INTRA:          -4.871
INTER:                  -4.871
INTRA:                   0.000
UNBOUND:                 0.000

$$$$

     RDKit          3D

 42 44  0  0  0  0  0  0  0  0999 V2000
   50.1120  -17.7577   -8.0364 C   0  0  0  0  0  0  0  0  0  0  0  0
   51.0685  -17.9036   -6.9290 C   0  0  0  0  0  0  0  0  0  0  0  0
   48.7718  -17.2425   -7.7012 C   0  0  0  0  0  0  0  0  0  0  0  0
   49.5453  -19.5501   -5.7244 C   0  0  0  0  0  0  0  0  0  0  0  0
   48.3209  -19.2142   -6.1580 C   0  0  0  0  0  0  0  0  0  0  0  0
   50.7726  -18.7210   -5.8152 C   0  0  0  0  0  0  0  0  0  0  0  0
   47.9374  -17.9313   -6.7939 C   0  0  0  0  0  0  0  0  0  0  0  0
   50.4778  -18.1070   -9.2859 C   0  0  0  0  0  0  0  0  0  0  0  0
   50.5400  -17.1498  -12.6066 N   0  0  0  0  0  0  0  0  0  0  0  0
   49.5699  -18.0581  -10.4894 C   0  0  0  0  0  0  0  0  0  0  0  0
   48.3365  -16.0279   -8.2601 C   0  0  0  0  0  0  0  0  0  0  0  0
   52.2948  -17.2184   -6.9856 C   0  0  0  0  0  0  0  0  0  0  0  0
   49.8344  -16.8075  -11.3519 C   0  0  0  0  0  0  0  0  0  0  0  0
   46.6520  -17.4267   -6.5300 C   0  0  0  0  0  0  0  0  0  0  0  0
   51.7289  -18.8508   -4.7928 C   0  0  0  0  0  0  0  0  0  0  0  0
   50.4151  -16.0434  -13.5698 C   0  0  0  0  0  0  0  0  0  0  0  0
   51.9665  -17.4192  -12.3548 C   0  0  0  0  0  0  0  0  0  0  0  0
   47.0661  -15.5296   -7.9692 C   0  0  0  0  0  0  0  0  0  0  0  0
   53.2230  -17.3437   -5.9513 C   0  0  0  0  0  0  0  0  0  0  0  0
   52.9406  -18.1595   -4.8565 C   0  0  0  0  0  0  0  0  0  0  0  0
   46.2214  -16.2326   -7.1118 C   0  0  0  0  0  0  0  0  0  0  0  0
   49.6279  -20.4847   -5.1811 H   0  0  0  0  0  0  0  0  0  0  0  0
   47.5173  -19.9042   -5.9267 H   0  0  0  0  0  0  0  0  0  0  0  0
   51.4854  -18.4701   -9.4492 H   0  0  0  0  0  0  0  0  0  0  0  0
   48.5032  -18.0875  -10.1797 H   0  0  0  0  0  0  0  0  0  0  0  0
   49.7286  -18.9802  -11.0892 H   0  0  0  0  0  0  0  0  0  0  0  0
   48.9837  -15.4618   -8.9162 H   0  0  0  0  0  0  0  0  0  0  0  0
   52.5288  -16.5820   -7.8307 H   0  0  0  0  0  0  0  0  0  0  0  0
   50.3905  -16.0258  -10.7842 H   0  0  0  0  0  0  0  0  0  0  0  0
   48.8397  -16.3672  -11.5913 H   0  0  0  0  0  0  0  0  0  0  0  0
   45.9829  -17.9534   -5.8601 H   0  0  0  0  0  0  0  0  0  0  0  0
   51.5357  -19.4903   -3.9397 H   0  0  0  0  0  0  0  0  0  0  0  0
   50.9333  -16.2980  -14.5196 H   0  0  0  0  0  0  0  0  0  0  0  0
   49.3463  -15.8736  -13.8223 H   0  0  0  0  0  0  0  0  0  0  0  0
   50.8465  -15.1022  -13.1609 H   0  0  0  0  0  0  0  0  0  0  0  0
   52.0822  -18.3313  -11.7353 H   0  0  0  0  0  0  0  0  0  0  0  0
   52.4596  -16.5615  -11.8450 H   0  0  0  0  0  0  0  0  0  0  0  0
   52.4968  -17.6208  -13.3108 H   0  0  0  0  0  0  0  0  0  0  0  0
   46.7365  -14.5974   -8.4095 H   0  0  0  0  0  0  0  0  0  0  0  0
   54.1638  -16.8108   -6.0007 H   0  0  0  0  0  0  0  0  0  0  0  0
   53.6646  -18.2623   -4.0585 H   0  0  0  0  0  0  0  0  0  0  0  0
   45.2335  -15.8489   -6.8918 H   0  0  0  0  0  0  0  0  0  0  0  0
  2  1  1  0
  3  1  1  0
  4  6  1  0
  5  7  1  0
  6  2  2  0
  7  3  2  0
  8  1  2  3
  9 13  1  0
 10  8  1  0
 11  3  1  0
 12  2  1  0
 13 10  1  0
 14  7  1  0
 15  6  1  0
 16  9  1  0
 17  9  1  0
 18 11  2  0
 19 12  2  0
 20 19  1  0
 21 18  1  0
  5  4  2  0
 21 14  2  0
 20 15  2  0
  4 22  1  0
  5 23  1  0
  8 24  1  0
 10 25  1  0
 10 26  1  0
 11 27  1  0
 12 28  1  0
 13 29  1  0
 13 30  1  0
 14 31  1  0
 15 32  1  0
 16 33  1  0
 16 34  1  0
 16 35  1  0
 17 36  1  0
 17 37  1  0
 17 38  1  0
 18 39  1  0
 19 40  1  0
 20 41  1  0
 21 42  1  0
M  END
> <Uni-Dock RESULT> 
ENERGY=   -4.644  LOWER_BOUND=    1.820  UPPER_BOUND=    4.737
INTER + INTRA:          -4.644
INTER:                  -4.644
INTRA:                   0.000
UNBOUND:                 0.000

$$$$

     RDKit          3D

 42 44  0  0  0  0  0  0  0  0999 V2000
   49.0465  -17.3628   -8.0526 C   0  0  0  0  0  0  0  0  0  0  0  0
   48.5298  -16.8546   -9.3321 C   0  0  0  0  0  0  0  0  0  0  0  0
   48.1080  -18.1194   -7.2036 C   0  0  0  0  0  0  0  0  0  0  0  0
   46.7634  -15.4507   -8.1529 C   0  0  0  0  0  0  0  0  0  0  0  0
   46.5579  -16.1119   -7.0037 C   0  0  0  0  0  0  0  0  0  0  0  0
   47.4185  -15.9831   -9.3732 C   0  0  0  0  0  0  0  0  0  0  0  0
   46.9204  -17.5224   -6.7270 C   0  0  0  0  0  0  0  0  0  0  0  0
   50.3232  -17.1117   -7.7002 C   0  0  0  0  0  0  0  0  0  0  0  0
   53.2622  -18.4697   -6.4897 N   0  0  0  0  0  0  0  0  0  0  0  0
   50.9486  -17.5283   -6.3924 C   0  0  0  0  0  0  0  0  0  0  0  0
   48.3789  -19.4652   -6.8999 C   0  0  0  0  0  0  0  0  0  0  0  0
   49.1560  -17.2439  -10.5291 C   0  0  0  0  0  0  0  0  0  0  0  0
   51.8193  -18.7907   -6.5540 C   0  0  0  0  0  0  0  0  0  0  0  0
   46.0708  -18.2659   -5.8892 C   0  0  0  0  0  0  0  0  0  0  0  0
   46.9763  -15.5020  -10.6180 C   0  0  0  0  0  0  0  0  0  0  0  0
   54.0376  -19.6953   -6.2365 C   0  0  0  0  0  0  0  0  0  0  0  0
   53.7230  -17.8511   -7.7451 C   0  0  0  0  0  0  0  0  0  0  0  0
   47.5128  -20.1956   -6.0855 C   0  0  0  0  0  0  0  0  0  0  0  0
   48.6899  -16.7719  -11.7568 C   0  0  0  0  0  0  0  0  0  0  0  0
   47.6018  -15.9015  -11.8011 C   0  0  0  0  0  0  0  0  0  0  0  0
   46.3644  -19.5940   -5.5737 C   0  0  0  0  0  0  0  0  0  0  0  0
   46.3352  -14.4572   -8.2239 H   0  0  0  0  0  0  0  0  0  0  0  0
   45.9794  -15.5982   -6.2442 H   0  0  0  0  0  0  0  0  0  0  0  0
   50.9505  -16.5543   -8.3854 H   0  0  0  0  0  0  0  0  0  0  0  0
   50.1686  -17.7008   -5.6200 H   0  0  0  0  0  0  0  0  0  0  0  0
   51.5616  -16.6840   -6.0093 H   0  0  0  0  0  0  0  0  0  0  0  0
   49.2578  -19.9526   -7.2998 H   0  0  0  0  0  0  0  0  0  0  0  0
   50.0036  -17.9186  -10.5103 H   0  0  0  0  0  0  0  0  0  0  0  0
   51.5763  -19.3412   -7.4923 H   0  0  0  0  0  0  0  0  0  0  0  0
   51.5513  -19.4741   -5.7163 H   0  0  0  0  0  0  0  0  0  0  0  0
   45.1690  -17.8197   -5.4875 H   0  0  0  0  0  0  0  0  0  0  0  0
   46.1412  -14.8139  -10.6743 H   0  0  0  0  0  0  0  0  0  0  0  0
   55.1223  -19.4603   -6.1755 H   0  0  0  0  0  0  0  0  0  0  0  0
   53.7489  -20.1364   -5.2582 H   0  0  0  0  0  0  0  0  0  0  0  0
   53.8732  -20.4494   -7.0387 H   0  0  0  0  0  0  0  0  0  0  0  0
   53.2434  -16.8615   -7.8850 H   0  0  0  0  0  0  0  0  0  0  0  0
   53.5002  -18.4970   -8.6237 H   0  0  0  0  0  0  0  0  0  0  0  0
   54.8183  -17.6653   -7.7056 H   0  0  0  0  0  0  0  0  0  0  0  0
   47.7328  -21.2291   -5.8511 H   0  0  0  0  0  0  0  0  0  0  0  0
   49.1755  -17.0783  -12.6743 H   0  0  0  0  0  0  0  0  0  0  0  0
   47.2460  -15.5296  -12.7532 H   0  0  0  0  0  0  0  0  0  0  0  0
   45.6963  -20.1592   -4.9366 H   0  0  0  0  0  0  0  0  0  0  0  0
  2  1  1  0
  3  1  1  0
  4  6  1  0
  5  7  1  0
  6  2  2  0
  7  3  2  0
  8  1  2  3
  9 13  1  0
 10  8  1  0
 11  3  1  0
 12  2  1  0
 13 10  1  0
 14  7  1  0
 15  6  1  0
 16  9  1  0
 17  9  1  0
 18 11  2  0
 19 12  2  0
 20 19  1  0
 21 18  1  0
  5  4  2  0
 21 14  2  0
 20 15  2  0
  4 22  1  0
  5 23  1  0
  8 24  1  0
 10 25  1  0
 10 26  1  0
 11 27  1  0
 12 28  1  0
 13 29  1  0
 13 30  1  0
 14 31  1  0
 15 32  1  0
 16 33  1  0
 16 34  1  0
 16 35  1  0
 17 36  1  0
 17 37  1  0
 17 38  1  0
 18 39  1  0
 19 40  1  0
 20 41  1  0
 21 42  1  0
M  END
> <Uni-Dock RESULT> 
ENERGY=   -4.590  LOWER_BOUND=    2.409  UPPER_BOUND=    4.390
INTER + INTRA:          -4.590
INTER:                  -4.590
INTRA:                   0.000
UNBOUND:                 0.000

$$$$

     RDKit          3D

 42 44  0  0  0  0  0  0  0  0999 V2000
   46.2190  -16.8143  -10.2190 C   0  0  0  0  0  0  0  0  0  0  0  0
   46.1747  -16.0388  -11.4676 C   0  0  0  0  0  0  0  0  0  0  0  0
   47.0589  -16.2835   -9.1296 C   0  0  0  0  0  0  0  0  0  0  0  0
   48.6841  -16.2968  -11.8109 C   0  0  0  0  0  0  0  0  0  0  0  0
   49.1532  -16.4546  -10.5639 C   0  0  0  0  0  0  0  0  0  0  0  0
   47.3546  -15.7600  -12.1930 C   0  0  0  0  0  0  0  0  0  0  0  0
   48.4471  -16.0986   -9.3101 C   0  0  0  0  0  0  0  0  0  0  0  0
   45.5217  -17.9638  -10.1209 C   0  0  0  0  0  0  0  0  0  0  0  0
   43.3373  -19.8118   -8.1817 N   0  0  0  0  0  0  0  0  0  0  0  0
   45.5341  -18.8732   -8.9176 C   0  0  0  0  0  0  0  0  0  0  0  0
   46.4625  -15.9175   -7.9101 C   0  0  0  0  0  0  0  0  0  0  0  0
   44.9366  -15.5718  -11.9426 C   0  0  0  0  0  0  0  0  0  0  0  0
   44.2786  -18.6786   -8.0437 C   0  0  0  0  0  0  0  0  0  0  0  0
   49.2187  -15.6257   -8.2342 C   0  0  0  0  0  0  0  0  0  0  0  0
   47.2598  -15.0375  -13.3954 C   0  0  0  0  0  0  0  0  0  0  0  0
   42.3783  -19.8058   -7.0648 C   0  0  0  0  0  0  0  0  0  0  0  0
   42.6023  -19.7368   -9.4566 C   0  0  0  0  0  0  0  0  0  0  0  0
   47.2402  -15.4279   -6.8602 C   0  0  0  0  0  0  0  0  0  0  0  0
   44.8651  -14.8386  -13.1277 C   0  0  0  0  0  0  0  0  0  0  0  0
   46.0253  -14.5724  -13.8536 C   0  0  0  0  0  0  0  0  0  0  0  0
   48.6181  -15.2902   -7.0191 C   0  0  0  0  0  0  0  0  0  0  0  0
   49.3760  -16.5052  -12.6193 H   0  0  0  0  0  0  0  0  0  0  0  0
   50.1847  -16.7749  -10.4696 H   0  0  0  0  0  0  0  0  0  0  0  0
   44.9219  -18.2804  -10.9656 H   0  0  0  0  0  0  0  0  0  0  0  0
   46.4495  -18.7094   -8.3095 H   0  0  0  0  0  0  0  0  0  0  0  0
   45.5985  -19.9251   -9.2706 H   0  0  0  0  0  0  0  0  0  0  0  0
   45.3931  -16.0042   -7.7736 H   0  0  0  0  0  0  0  0  0  0  0  0
   44.0264  -15.7722  -11.3901 H   0  0  0  0  0  0  0  0  0  0  0  0
   43.7702  -17.7111   -8.2628 H   0  0  0  0  0  0  0  0  0  0  0  0
   44.6298  -18.6115   -6.9888 H   0  0  0  0  0  0  0  0  0  0  0  0
   50.2901  -15.5036   -8.3396 H   0  0  0  0  0  0  0  0  0  0  0  0
   48.1471  -14.8313  -13.9822 H   0  0  0  0  0  0  0  0  0  0  0  0
   41.6745  -20.6614   -7.1554 H   0  0  0  0  0  0  0  0  0  0  0  0
   42.9136  -19.9310   -6.0990 H   0  0  0  0  0  0  0  0  0  0  0  0
   41.7963  -18.8572   -7.0381 H   0  0  0  0  0  0  0  0  0  0  0  0
   43.2973  -19.8718  -10.3098 H   0  0  0  0  0  0  0  0  0  0  0  0
   42.0702  -18.7652   -9.5639 H   0  0  0  0  0  0  0  0  0  0  0  0
   41.8599  -20.5615   -9.5242 H   0  0  0  0  0  0  0  0  0  0  0  0
   46.7736  -15.1553   -5.9224 H   0  0  0  0  0  0  0  0  0  0  0  0
   43.9087  -14.4801  -13.4856 H   0  0  0  0  0  0  0  0  0  0  0  0
   45.9678  -14.0105  -14.7768 H   0  0  0  0  0  0  0  0  0  0  0  0
   49.2218  -14.9165   -6.2021 H   0  0  0  0  0  0  0  0  0  0  0  0
  2  1  1  0
  3  1  1  0
  4  6  1  0
  5  7  1  0
  6  2  2  0
  7  3  2  0
  8  1  2  3
  9 13  1  0
 10  8  1  0
 11  3  1  0
 12  2  1  0
 13 10  1  0
 14  7  1  0
 15  6  1  0
 16  9  1  0
 17  9  1  0
 18 11  2  0
 19 12  2  0
 20 19  1  0
 21 18  1  0
  5  4  2  0
 21 14  2  0
 20 15  2  0
  4 22  1  0
  5 23  1  0
  8 24  1  0
 10 25  1  0
 10 26  1  0
 11 27  1  0
 12 28  1  0
 13 29  1  0
 13 30  1  0
 14 31  1  0
 15 32  1  0
 16 33  1  0
 16 34  1  0
 16 35  1  0
 17 36  1  0
 17 37  1  0
 17 38  1  0
 18 39  1  0
 19 40  1  0
 20 41  1  0
 21 42  1  0
M  END
> <Uni-Dock RESULT> 
ENERGY=   -4.534  LOWER_BOUND=    4.246  UPPER_BOUND=    6.495
INTER + INTRA:          -4.534
INTER:                  -4.534
INTRA:                   0.000
UNBOUND:                 0.000

$$$$

     RDKit          3D

 42 44  0  0  0  0  0  0  0  0999 V2000
   46.9158  -16.8560  -10.6972 C   0  0  0  0  0  0  0  0  0  0  0  0
   46.8165  -16.6281   -9.2479 C   0  0  0  0  0  0  0  0  0  0  0  0
   45.6898  -16.6595  -11.4923 C   0  0  0  0  0  0  0  0  0  0  0  0
   45.0608  -18.4551   -9.0000 C   0  0  0  0  0  0  0  0  0  0  0  0
   44.4772  -18.4903  -10.2076 C   0  0  0  0  0  0  0  0  0  0  0  0
   45.9023  -17.3599   -8.4574 C   0  0  0  0  0  0  0  0  0  0  0  0
   44.5319  -17.4271  -11.2391 C   0  0  0  0  0  0  0  0  0  0  0  0
   48.0901  -17.2433  -11.2341 C   0  0  0  0  0  0  0  0  0  0  0  0
   50.3879  -16.6897  -13.7561 N   0  0  0  0  0  0  0  0  0  0  0  0
   48.3010  -17.5632  -12.6929 C   0  0  0  0  0  0  0  0  0  0  0  0
   45.6605  -15.6662  -12.4870 C   0  0  0  0  0  0  0  0  0  0  0  0
   47.6474  -15.6676   -8.6449 C   0  0  0  0  0  0  0  0  0  0  0  0
   48.9728  -16.3940  -13.4410 C   0  0  0  0  0  0  0  0  0  0  0  0
   43.3957  -17.2353  -12.0445 C   0  0  0  0  0  0  0  0  0  0  0  0
   45.8614  -17.1265   -7.0716 C   0  0  0  0  0  0  0  0  0  0  0  0
   50.8726  -15.7688  -14.7974 C   0  0  0  0  0  0  0  0  0  0  0  0
   51.2350  -16.5607  -12.5575 C   0  0  0  0  0  0  0  0  0  0  0  0
   44.5164  -15.4736  -13.2620 C   0  0  0  0  0  0  0  0  0  0  0  0
   47.5780  -15.4354   -7.2707 C   0  0  0  0  0  0  0  0  0  0  0  0
   46.6865  -16.1645   -6.4850 C   0  0  0  0  0  0  0  0  0  0  0  0
   43.3880  -16.2631  -13.0468 C   0  0  0  0  0  0  0  0  0  0  0  0
   44.8265  -19.2699   -8.3243 H   0  0  0  0  0  0  0  0  0  0  0  0
   43.8191  -19.3290  -10.4050 H   0  0  0  0  0  0  0  0  0  0  0  0
   48.9467  -17.3574  -10.5807 H   0  0  0  0  0  0  0  0  0  0  0  0
   47.3381  -17.8242  -13.1821 H   0  0  0  0  0  0  0  0  0  0  0  0
   48.9272  -18.4784  -12.7668 H   0  0  0  0  0  0  0  0  0  0  0  0
   46.5217  -15.0348  -12.6585 H   0  0  0  0  0  0  0  0  0  0  0  0
   48.3461  -15.0944   -9.2425 H   0  0  0  0  0  0  0  0  0  0  0  0
   48.8834  -15.4376  -12.8755 H   0  0  0  0  0  0  0  0  0  0  0  0
   48.4024  -16.2488  -14.3865 H   0  0  0  0  0  0  0  0  0  0  0  0
   42.5055  -17.8328  -11.8883 H   0  0  0  0  0  0  0  0  0  0  0  0
   45.1858  -17.6915   -6.4405 H   0  0  0  0  0  0  0  0  0  0  0  0
   51.9322  -15.9923  -15.0478 H   0  0  0  0  0  0  0  0  0  0  0  0
   50.2863  -15.9036  -15.7317 H   0  0  0  0  0  0  0  0  0  0  0  0
   50.7925  -14.7087  -14.4671 H   0  0  0  0  0  0  0  0  0  0  0  0
   50.9678  -17.3368  -11.8123 H   0  0  0  0  0  0  0  0  0  0  0  0
   51.1350  -15.5538  -12.0940 H   0  0  0  0  0  0  0  0  0  0  0  0
   52.3022  -16.7310  -12.8178 H   0  0  0  0  0  0  0  0  0  0  0  0
   44.5051  -14.7114  -14.0304 H   0  0  0  0  0  0  0  0  0  0  0  0
   48.2189  -14.6923   -6.8142 H   0  0  0  0  0  0  0  0  0  0  0  0
   46.6390  -15.9894   -5.4179 H   0  0  0  0  0  0  0  0  0  0  0  0
   42.5030  -16.1176  -13.6527 H   0  0  0  0  0  0  0  0  0  0  0  0
  2  1  1  0
  3  1  1  0
  4  6  1  0
  5  7  1  0
  6  2  2  0
  7  3  2  0
  8  1  2  3
  9 13  1  0
 10  8  1  0
 11  3  1  0
 12  2  1  0
 13 10  1  0
 14  7  1  0
 15  6  1  0
 16  9  1  0
 17  9  1  0
 18 11  2  0
 19 12  2  0
 20 19  1  0
 21 18  1  0
  5  4  2  0
 21 14  2  0
 20 15  2  0
  4 22  1  0
  5 23  1  0
  8 24  1  0
 10 25  1  0
 10 26  1  0
 11 27  1  0
 12 28  1  0
 13 29  1  0
 13 30  1  0
 14 31  1  0
 15 32  1  0
 16 33  1  0
 16 34  1  0
 16 35  1  0
 17 36  1  0
 17 37  1  0
 17 38  1  0
 18 39  1  0
 19 40  1  0
 20 41  1  0
 21 42  1  0
M  END
> <Uni-Dock RESULT> 
ENERGY=   -4.179  LOWER_BOUND=    3.881  UPPER_BOUND=    6.370
INTER + INTRA:          -4.179
INTER:                  -4.179
INTRA:                   0.000
UNBOUND:                 0.000

$$$$

     RDKit          3D

 42 44  0  0  0  0  0  0  0  0999 V2000
   42.4753  -11.8688  -12.3914 C   0  0  0  0  0  0  0  0  0  0  0  0
   42.2460  -13.3078  -12.5893 C   0  0  0  0  0  0  0  0  0  0  0  0
   41.7212  -11.2126  -11.3077 C   0  0  0  0  0  0  0  0  0  0  0  0
   39.7737  -12.9298  -13.0655 C   0  0  0  0  0  0  0  0  0  0  0  0
   39.5001  -11.7957  -12.4028 C   0  0  0  0  0  0  0  0  0  0  0  0
   40.9534  -13.8072  -12.8647 C   0  0  0  0  0  0  0  0  0  0  0  0
   40.3091  -11.2003  -11.3128 C   0  0  0  0  0  0  0  0  0  0  0  0
   43.3326  -11.2114  -13.1977 C   0  0  0  0  0  0  0  0  0  0  0  0
   45.9898   -9.0051  -13.3333 N   0  0  0  0  0  0  0  0  0  0  0  0
   43.6060   -9.7296  -13.1310 C   0  0  0  0  0  0  0  0  0  0  0  0
   42.4167  -10.6285  -10.2343 C   0  0  0  0  0  0  0  0  0  0  0  0
   43.3333  -14.1949  -12.5038 C   0  0  0  0  0  0  0  0  0  0  0  0
   44.9266   -9.4266  -12.3946 C   0  0  0  0  0  0  0  0  0  0  0  0
   39.6282  -10.5313  -10.2806 C   0  0  0  0  0  0  0  0  0  0  0  0
   40.7869  -15.1877  -13.0728 C   0  0  0  0  0  0  0  0  0  0  0  0
   47.0777   -8.3438  -12.5941 C   0  0  0  0  0  0  0  0  0  0  0  0
   46.5322  -10.1593  -14.0712 C   0  0  0  0  0  0  0  0  0  0  0  0
   41.7240   -9.9885   -9.2061 C   0  0  0  0  0  0  0  0  0  0  0  0
   43.1449  -15.5645  -12.6932 C   0  0  0  0  0  0  0  0  0  0  0  0
   41.8733  -16.0601  -12.9780 C   0  0  0  0  0  0  0  0  0  0  0  0
   40.3316   -9.9325   -9.2335 C   0  0  0  0  0  0  0  0  0  0  0  0
   39.0169  -13.2817  -13.7575 H   0  0  0  0  0  0  0  0  0  0  0  0
   38.5447  -11.3283  -12.6134 H   0  0  0  0  0  0  0  0  0  0  0  0
   43.8538  -11.7697  -13.9661 H   0  0  0  0  0  0  0  0  0  0  0  0
   42.7651   -9.1957  -12.6385 H   0  0  0  0  0  0  0  0  0  0  0  0
   43.6425   -9.3302  -14.1675 H   0  0  0  0  0  0  0  0  0  0  0  0
   43.4963  -10.6747  -10.1891 H   0  0  0  0  0  0  0  0  0  0  0  0
   44.3275  -13.8242  -12.2845 H   0  0  0  0  0  0  0  0  0  0  0  0
   45.2620  -10.2922  -11.7775 H   0  0  0  0  0  0  0  0  0  0  0  0
   44.7119   -8.6009  -11.6786 H   0  0  0  0  0  0  0  0  0  0  0  0
   38.5458  -10.4832  -10.2788 H   0  0  0  0  0  0  0  0  0  0  0  0
   39.8100  -15.5924  -13.3089 H   0  0  0  0  0  0  0  0  0  0  0  0
   47.8755   -8.0138  -13.2942 H   0  0  0  0  0  0  0  0  0  0  0  0
   46.6974   -7.4309  -12.0872 H   0  0  0  0  0  0  0  0  0  0  0  0
   47.5204   -9.0250  -11.8330 H   0  0  0  0  0  0  0  0  0  0  0  0
   45.7562  -10.5904  -14.7354 H   0  0  0  0  0  0  0  0  0  0  0  0
   46.9051  -10.9470  -13.3791 H   0  0  0  0  0  0  0  0  0  0  0  0
   47.3667   -9.8385  -14.7320 H   0  0  0  0  0  0  0  0  0  0  0  0
   42.2679   -9.5354   -8.3873 H   0  0  0  0  0  0  0  0  0  0  0  0
   43.9864  -16.2415  -12.6229 H   0  0  0  0  0  0  0  0  0  0  0  0
   41.7295  -17.1217  -13.1327 H   0  0  0  0  0  0  0  0  0  0  0  0
   39.7951   -9.4301   -8.4389 H   0  0  0  0  0  0  0  0  0  0  0  0
  2  1  1  0
  3  1  1  0
  4  6  1  0
  5  7  1  0
  6  2  2  0
  7  3  2  0
  8  1  2  3
  9 13  1  0
 10  8  1  0
 11  3  1  0
 12  2  1  0
 13 10  1  0
 14  7  1  0
 15  6  1  0
 16  9  1  0
 17  9  1  0
 18 11  2  0
 19 12  2  0
 20 19  1  0
 21 18  1  0
  5  4  2  0
 21 14  2  0
 20 15  2  0
  4 22  1  0
  5 23  1  0
  8 24  1  0
 10 25  1  0
 10 26  1  0
 11 27  1  0
 12 28  1  0
 13 29  1  0
 13 30  1  0
 14 31  1  0
 15 32  1  0
 16 33  1  0
 16 34  1  0
 16 35  1  0
 17 36  1  0
 17 37  1  0
 17 38  1  0
 18 39  1  0
 19 40  1  0
 20 41  1  0
 21 42  1  0
M  END
> <Uni-Dock RESULT> 
ENERGY=   -4.024  LOWER_BOUND=    9.323  UPPER_BOUND=   11.145
INTER + INTRA:          -4.024
INTER:                  -4.024
INTRA:                   0.000
UNBOUND:                 0.000

$$$$

     RDKit          3D

 42 44  0  0  0  0  0  0  0  0999 V2000
   46.6910  -16.4000   -9.8868 C   0  0  0  0  0  0  0  0  0  0  0  0
   46.2677  -17.1651   -8.7044 C   0  0  0  0  0  0  0  0  0  0  0  0
   48.0817  -16.5829  -10.3410 C   0  0  0  0  0  0  0  0  0  0  0  0
   48.0368  -16.0513   -7.2512 C   0  0  0  0  0  0  0  0  0  0  0  0
   48.9938  -15.7161   -8.1298 C   0  0  0  0  0  0  0  0  0  0  0  0
   46.9400  -17.0266   -7.4695 C   0  0  0  0  0  0  0  0  0  0  0  0
   49.1671  -16.2734   -9.4924 C   0  0  0  0  0  0  0  0  0  0  0  0
   45.8207  -15.5658  -10.4899 C   0  0  0  0  0  0  0  0  0  0  0  0
   44.4618  -14.5637  -13.5059 N   0  0  0  0  0  0  0  0  0  0  0  0
   46.1536  -14.6874  -11.6700 C   0  0  0  0  0  0  0  0  0  0  0  0
   48.3292  -17.1118  -11.6200 C   0  0  0  0  0  0  0  0  0  0  0  0
   45.1761  -18.0447   -8.8099 C   0  0  0  0  0  0  0  0  0  0  0  0
   45.6426  -15.2929  -12.9929 C   0  0  0  0  0  0  0  0  0  0  0  0
   50.4780  -16.4262   -9.9769 C   0  0  0  0  0  0  0  0  0  0  0  0
   46.4829  -17.7588   -6.3596 C   0  0  0  0  0  0  0  0  0  0  0  0
   44.2534  -14.8843  -14.9276 C   0  0  0  0  0  0  0  0  0  0  0  0
   43.2507  -14.9149  -12.7437 C   0  0  0  0  0  0  0  0  0  0  0  0
   49.6371  -17.2785  -12.0764 C   0  0  0  0  0  0  0  0  0  0  0  0
   44.7498  -18.7784   -7.7022 C   0  0  0  0  0  0  0  0  0  0  0  0
   45.4020  -18.6351   -6.4784 C   0  0  0  0  0  0  0  0  0  0  0  0
   50.7103  -16.9281  -11.2590 C   0  0  0  0  0  0  0  0  0  0  0  0
   48.1224  -15.6290   -6.2563 H   0  0  0  0  0  0  0  0  0  0  0  0
   49.7729  -15.0533   -7.7703 H   0  0  0  0  0  0  0  0  0  0  0  0
   44.8132  -15.4950  -10.0978 H   0  0  0  0  0  0  0  0  0  0  0  0
   47.2487  -14.5090  -11.7317 H   0  0  0  0  0  0  0  0  0  0  0  0
   45.7004  -13.6863  -11.5041 H   0  0  0  0  0  0  0  0  0  0  0  0
   47.5091  -17.4024  -12.2625 H   0  0  0  0  0  0  0  0  0  0  0  0
   44.6584  -18.1654   -9.7541 H   0  0  0  0  0  0  0  0  0  0  0  0
   45.4236  -16.3811  -12.8903 H   0  0  0  0  0  0  0  0  0  0  0  0
   46.4778  -15.2132  -13.7254 H   0  0  0  0  0  0  0  0  0  0  0  0
   51.3264  -16.1674   -9.3546 H   0  0  0  0  0  0  0  0  0  0  0  0
   46.9666  -17.6522   -5.3960 H   0  0  0  0  0  0  0  0  0  0  0  0
   43.3743  -14.3311  -15.3234 H   0  0  0  0  0  0  0  0  0  0  0  0
   45.1322  -14.5617  -15.5263 H   0  0  0  0  0  0  0  0  0  0  0  0
   44.0931  -15.9760  -15.0755 H   0  0  0  0  0  0  0  0  0  0  0  0
   43.3391  -14.5611  -11.6967 H   0  0  0  0  0  0  0  0  0  0  0  0
   43.0703  -16.0131  -12.7483 H   0  0  0  0  0  0  0  0  0  0  0  0
   42.3617  -14.4038  -13.1728 H   0  0  0  0  0  0  0  0  0  0  0  0
   49.8183  -17.6797  -13.0653 H   0  0  0  0  0  0  0  0  0  0  0  0
   43.9103  -19.4557   -7.7919 H   0  0  0  0  0  0  0  0  0  0  0  0
   45.0656  -19.1986   -5.6177 H   0  0  0  0  0  0  0  0  0  0  0  0
   51.7247  -17.0515  -11.6162 H   0  0  0  0  0  0  0  0  0  0  0  0
  2  1  1  0
  3  1  1  0
  4  6  1  0
  5  7  1  0
  6  2  2  0
  7  3  2  0
  8  1  2  3
  9 13  1  0
 10  8  1  0
 11  3  1  0
 12  2  1  0
 13 10  1  0
 14  7  1  0
 15  6  1  0
 16  9  1  0
 17  9  1  0
 18 11  2  0
 19 12  2  0
 20 19  1  0
 21 18  1  0
  5  4  2  0
 21 14  2  0
 20 15  2  0
  4 22  1  0
  5 23  1  0
  8 24  1  0
 10 25  1  0
 10 26  1  0
 11 27  1  0
 12 28  1  0
 13 29  1  0
 13 30  1  0
 14 31  1  0
 15 32  1  0
 16 33  1  0
 16 34  1  0
 16 35  1  0
 17 36  1  0
 17 37  1  0
 17 38  1  0
 18 39  1  0
 19 40  1  0
 20 41  1  0
 21 42  1  0
M  END
> <Uni-Dock RESULT> 
ENERGY=   -4.002  LOWER_BOUND=    4.023  UPPER_BOUND=    5.644
INTER + INTRA:          -4.002
INTER:                  -4.002
INTRA:                   0.000
UNBOUND:                 0.000

$$$$
