
     RDKit          3D

 42 44  0  0  0  0  0  0  0  0999 V2000
   50.3052  -17.0274   -7.6419 C   0  0  0  0  0  0  0  0  0  0  0  0
   51.2688  -16.5124   -6.6575 C   0  0  0  0  0  0  0  0  0  0  0  0
   48.8751  -16.9118   -7.3023 C   0  0  0  0  0  0  0  0  0  0  0  0
   50.3020  -14.1626   -6.8229 C   0  0  0  0  0  0  0  0  0  0  0  0
   49.0303  -14.3751   -7.1943 C   0  0  0  0  0  0  0  0  0  0  0  0
   51.2316  -15.1626   -6.2414 C   0  0  0  0  0  0  0  0  0  0  0  0
   48.2835  -15.6501   -7.0755 C   0  0  0  0  0  0  0  0  0  0  0  0
   50.7494  -17.5694   -8.7939 C   0  0  0  0  0  0  0  0  0  0  0  0
   48.9728  -20.1976  -10.9552 N   0  0  0  0  0  0  0  0  0  0  0  0
   49.8639  -18.0624   -9.9087 C   0  0  0  0  0  0  0  0  0  0  0  0
   48.1000  -18.0770   -7.1661 C   0  0  0  0  0  0  0  0  0  0  0  0
   52.2390  -17.3799   -6.1254 C   0  0  0  0  0  0  0  0  0  0  0  0
   49.9521  -19.5979  -10.0211 C   0  0  0  0  0  0  0  0  0  0  0  0
   46.9070  -15.5816   -6.7977 C   0  0  0  0  0  0  0  0  0  0  0  0
   52.1887  -14.7081   -5.3173 C   0  0  0  0  0  0  0  0  0  0  0  0
   49.0893  -19.6732  -12.3246 C   0  0  0  0  0  0  0  0  0  0  0  0
   47.5871  -20.1093  -10.4662 C   0  0  0  0  0  0  0  0  0  0  0  0
   46.7395  -17.9919   -6.8695 C   0  0  0  0  0  0  0  0  0  0  0  0
   53.1679  -16.9154   -5.1936 C   0  0  0  0  0  0  0  0  0  0  0  0
   53.1434  -15.5809   -4.7906 C   0  0  0  0  0  0  0  0  0  0  0  0
   46.1418  -16.7451   -6.6934 C   0  0  0  0  0  0  0  0  0  0  0  0
   50.6582  -13.1400   -6.8766 H   0  0  0  0  0  0  0  0  0  0  0  0
   48.4660  -13.5066   -7.5146 H   0  0  0  0  0  0  0  0  0  0  0  0
   51.8185  -17.6424   -8.9603 H   0  0  0  0  0  0  0  0  0  0  0  0
   48.8186  -17.7259   -9.7723 H   0  0  0  0  0  0  0  0  0  0  0  0
   50.2283  -17.6028  -10.8514 H   0  0  0  0  0  0  0  0  0  0  0  0
   48.5500  -19.0529   -7.2889 H   0  0  0  0  0  0  0  0  0  0  0  0
   52.2710  -18.4193   -6.4293 H   0  0  0  0  0  0  0  0  0  0  0  0
   49.8263  -20.0579   -9.0170 H   0  0  0  0  0  0  0  0  0  0  0  0
   50.9781  -19.8732  -10.3511 H   0  0  0  0  0  0  0  0  0  0  0  0
   46.4246  -14.6230   -6.6493 H   0  0  0  0  0  0  0  0  0  0  0  0
   52.1961  -13.6720   -5.0007 H   0  0  0  0  0  0  0  0  0  0  0  0
   48.7147  -18.6287  -12.3940 H   0  0  0  0  0  0  0  0  0  0  0  0
   48.4975  -20.3071  -13.0187 H   0  0  0  0  0  0  0  0  0  0  0  0
   50.1472  -19.7060  -12.6632 H   0  0  0  0  0  0  0  0  0  0  0  0
   46.9383  -20.7809  -11.0676 H   0  0  0  0  0  0  0  0  0  0  0  0
   47.1865  -19.0762  -10.5445 H   0  0  0  0  0  0  0  0  0  0  0  0
   47.5221  -20.4474   -9.4096 H   0  0  0  0  0  0  0  0  0  0  0  0
   46.1483  -18.8940   -6.7774 H   0  0  0  0  0  0  0  0  0  0  0  0
   53.9100  -17.5900   -4.7864 H   0  0  0  0  0  0  0  0  0  0  0  0
   53.8694  -15.2196   -4.0738 H   0  0  0  0  0  0  0  0  0  0  0  0
   45.0848  -16.6792   -6.4695 H   0  0  0  0  0  0  0  0  0  0  0  0
  2  1  1  0
  3  1  1  0
  4  6  1  0
  5  7  1  0
  6  2  2  0
  7  3  2  0
  8  1  2  3
  9 13  1  0
 10  8  1  0
 11  3  1  0
 12  2  1  0
 13 10  1  0
 14  7  1  0
 15  6  1  0
 16  9  1  0
 17  9  1  0
 18 11  2  0
 19 12  2  0
 20 19  1  0
 21 18  1  0
  5  4  2  0
 21 14  2  0
 20 15  2  0
  4 22  1  0
  5 23  1  0
  8 24  1  0
 10 25  1  0
 10 26  1  0
 11 27  1  0
 12 28  1  0
 13 29  1  0
 13 30  1  0
 14 31  1  0
 15 32  1  0
 16 33  1  0
 16 34  1  0
 16 35  1  0
 17 36  1  0
 17 37  1  0
 17 38  1  0
 18 39  1  0
 19 40  1  0
 20 41  1  0
 21 42  1  0
M  END
> <Uni-Dock RESULT> 
ENERGY=   -6.163  LOWER_BOUND=    0.000  UPPER_BOUND=    0.000
INTER + INTRA:          -6.163
INTER:                  -6.163
INTRA:                   0.000
UNBOUND:                 0.000

$$$$

     RDKit          3D

 42 44  0  0  0  0  0  0  0  0999 V2000
   50.2484  -17.0493   -7.7336 C   0  0  0  0  0  0  0  0  0  0  0  0
   51.2129  -16.5277   -6.7536 C   0  0  0  0  0  0  0  0  0  0  0  0
   48.8205  -16.9697   -7.3749 C   0  0  0  0  0  0  0  0  0  0  0  0
   50.1937  -14.1973   -6.8729 C   0  0  0  0  0  0  0  0  0  0  0  0
   48.9224  -14.4320   -7.2319 C   0  0  0  0  0  0  0  0  0  0  0  0
   51.1518  -15.1851   -6.3175 C   0  0  0  0  0  0  0  0  0  0  0  0
   48.2048  -15.7245   -7.1226 C   0  0  0  0  0  0  0  0  0  0  0  0
   50.6898  -17.5650   -8.8988 C   0  0  0  0  0  0  0  0  0  0  0  0
   48.9433  -20.1999  -11.0764 N   0  0  0  0  0  0  0  0  0  0  0  0
   49.8013  -18.0611  -10.0098 C   0  0  0  0  0  0  0  0  0  0  0  0
   48.0724  -18.1533   -7.2464 C   0  0  0  0  0  0  0  0  0  0  0  0
   52.2081  -17.3814   -6.2460 C   0  0  0  0  0  0  0  0  0  0  0  0
   49.9210  -19.5925  -10.1457 C   0  0  0  0  0  0  0  0  0  0  0  0
   46.8306  -15.6899   -6.8271 C   0  0  0  0  0  0  0  0  0  0  0  0
   52.1104  -14.7233   -5.3985 C   0  0  0  0  0  0  0  0  0  0  0  0
   49.0314  -19.6535  -12.4393 C   0  0  0  0  0  0  0  0  0  0  0  0
   47.5623  -20.1487  -10.5694 C   0  0  0  0  0  0  0  0  0  0  0  0
   46.7143  -18.1020   -6.9320 C   0  0  0  0  0  0  0  0  0  0  0  0
   53.1383  -16.9103   -5.3190 C   0  0  0  0  0  0  0  0  0  0  0  0
   53.0901  -15.5825   -4.8963 C   0  0  0  0  0  0  0  0  0  0  0  0
   46.0920  -16.8711   -6.7305 C   0  0  0  0  0  0  0  0  0  0  0  0
   50.5271  -13.1665   -6.9160 H   0  0  0  0  0  0  0  0  0  0  0  0
   48.3355  -13.5714   -7.5326 H   0  0  0  0  0  0  0  0  0  0  0  0
   51.7581  -17.6124   -9.0792 H   0  0  0  0  0  0  0  0  0  0  0  0
   48.7507  -17.7494   -9.8557 H   0  0  0  0  0  0  0  0  0  0  0  0
   50.1439  -17.5802  -10.9500 H   0  0  0  0  0  0  0  0  0  0  0  0
   48.5418  -19.1174   -7.3889 H   0  0  0  0  0  0  0  0  0  0  0  0
   52.2587  -18.4154   -6.5656 H   0  0  0  0  0  0  0  0  0  0  0  0
   49.8177  -20.0695   -9.1469 H   0  0  0  0  0  0  0  0  0  0  0  0
   50.9486  -19.8407  -10.4921 H   0  0  0  0  0  0  0  0  0  0  0  0
   46.3296  -14.7442   -6.6589 H   0  0  0  0  0  0  0  0  0  0  0  0
   52.0994  -13.6918   -5.0669 H   0  0  0  0  0  0  0  0  0  0  0  0
   48.6336  -18.6165  -12.4889 H   0  0  0  0  0  0  0  0  0  0  0  0
   48.4448  -20.2901  -13.1354 H   0  0  0  0  0  0  0  0  0  0  0  0
   50.0855  -19.6585  -12.7912 H   0  0  0  0  0  0  0  0  0  0  0  0
   46.9206  -20.8255  -11.1726 H   0  0  0  0  0  0  0  0  0  0  0  0
   47.1386  -19.1236  -10.6276 H   0  0  0  0  0  0  0  0  0  0  0  0
   47.5178  -20.5032   -9.5171 H   0  0  0  0  0  0  0  0  0  0  0  0
   46.1438  -19.0179   -6.8459 H   0  0  0  0  0  0  0  0  0  0  0  0
   53.8999  -17.5744   -4.9308 H   0  0  0  0  0  0  0  0  0  0  0  0
   53.8172  -15.2159   -4.1832 H   0  0  0  0  0  0  0  0  0  0  0  0
   45.0368  -16.8314   -6.4928 H   0  0  0  0  0  0  0  0  0  0  0  0
  2  1  1  0
  3  1  1  0
  4  6  1  0
  5  7  1  0
  6  2  2  0
  7  3  2  0
  8  1  2  3
  9 13  1  0
 10  8  1  0
 11  3  1  0
 12  2  1  0
 13 10  1  0
 14  7  1  0
 15  6  1  0
 16  9  1  0
 17  9  1  0
 18 11  2  0
 19 12  2  0
 20 19  1  0
 21 18  1  0
  5  4  2  0
 21 14  2  0
 20 15  2  0
  4 22  1  0
  5 23  1  0
  8 24  1  0
 10 25  1  0
 10 26  1  0
 11 27  1  0
 12 28  1  0
 13 29  1  0
 13 30  1  0
 14 31  1  0
 15 32  1  0
 16 33  1  0
 16 34  1  0
 16 35  1  0
 17 36  1  0
 17 37  1  0
 17 38  1  0
 18 39  1  0
 19 40  1  0
 20 41  1  0
 21 42  1  0
M  END
> <Uni-Dock RESULT> 
ENERGY=   -6.152  LOWER_BOUND=    0.122  UPPER_BOUND=    0.122
INTER + INTRA:          -6.152
INTER:                  -6.152
INTRA:                   0.000
UNBOUND:                 0.000

$$$$

     RDKit          3D

 42 44  0  0  0  0  0  0  0  0999 V2000
   45.6881  -19.0575   -8.9207 C   0  0  0  0  0  0  0  0  0  0  0  0
   44.3483  -19.4036   -8.4229 C   0  0  0  0  0  0  0  0  0  0  0  0
   46.2604  -17.7767   -8.4669 C   0  0  0  0  0  0  0  0  0  0  0  0
   45.1513  -19.3708   -6.0067 C   0  0  0  0  0  0  0  0  0  0  0  0
   46.1905  -18.5225   -6.0360 C   0  0  0  0  0  0  0  0  0  0  0  0
   44.0920  -19.5063   -7.0372 C   0  0  0  0  0  0  0  0  0  0  0  0
   46.4795  -17.5262   -7.0949 C   0  0  0  0  0  0  0  0  0  0  0  0
   46.3336  -19.9026   -9.7498 C   0  0  0  0  0  0  0  0  0  0  0  0
   49.0117  -19.0048  -12.3492 N   0  0  0  0  0  0  0  0  0  0  0  0
   47.7337  -19.6964  -10.2667 C   0  0  0  0  0  0  0  0  0  0  0  0
   46.5568  -16.7781   -9.4114 C   0  0  0  0  0  0  0  0  0  0  0  0
   43.3106  -19.6343   -9.3431 C   0  0  0  0  0  0  0  0  0  0  0  0
   47.7069  -19.4142  -11.7826 C   0  0  0  0  0  0  0  0  0  0  0  0
   47.0682  -16.3092   -6.7087 C   0  0  0  0  0  0  0  0  0  0  0  0
   42.8021  -19.8647   -6.6078 C   0  0  0  0  0  0  0  0  0  0  0  0
   50.0712  -20.0016  -12.1306 C   0  0  0  0  0  0  0  0  0  0  0  0
   49.4361  -17.6683  -11.9016 C   0  0  0  0  0  0  0  0  0  0  0  0
   47.1216  -15.5677   -9.0087 C   0  0  0  0  0  0  0  0  0  0  0  0
   42.0316  -19.9689   -8.8972 C   0  0  0  0  0  0  0  0  0  0  0  0
   41.7777  -20.0848   -7.5312 C   0  0  0  0  0  0  0  0  0  0  0  0
   47.3845  -15.3366   -7.6595 C   0  0  0  0  0  0  0  0  0  0  0  0
   45.0288  -19.9561   -5.1023 H   0  0  0  0  0  0  0  0  0  0  0  0
   46.8183  -18.4924   -5.1526 H   0  0  0  0  0  0  0  0  0  0  0  0
   45.8356  -20.8149  -10.0593 H   0  0  0  0  0  0  0  0  0  0  0  0
   48.2531  -18.8906   -9.7141 H   0  0  0  0  0  0  0  0  0  0  0  0
   48.3000  -20.6323  -10.0765 H   0  0  0  0  0  0  0  0  0  0  0  0
   46.3494  -16.9366  -10.4611 H   0  0  0  0  0  0  0  0  0  0  0  0
   43.4928  -19.5486  -10.4077 H   0  0  0  0  0  0  0  0  0  0  0  0
   46.9506  -18.6313  -12.0076 H   0  0  0  0  0  0  0  0  0  0  0  0
   47.3577  -20.3294  -12.3098 H   0  0  0  0  0  0  0  0  0  0  0  0
   47.2732  -16.1063   -5.6644 H   0  0  0  0  0  0  0  0  0  0  0  0
   42.5865  -19.9733   -5.5516 H   0  0  0  0  0  0  0  0  0  0  0  0
   50.3923  -20.0281  -11.0665 H   0  0  0  0  0  0  0  0  0  0  0  0
   50.9528  -19.7534  -12.7592 H   0  0  0  0  0  0  0  0  0  0  0  0
   49.7205  -21.0120  -12.4325 H   0  0  0  0  0  0  0  0  0  0  0  0
   50.2748  -17.3134  -12.5375 H   0  0  0  0  0  0  0  0  0  0  0  0
   49.7793  -17.6761  -10.8451 H   0  0  0  0  0  0  0  0  0  0  0  0
   48.6069  -16.9367  -12.0110 H   0  0  0  0  0  0  0  0  0  0  0  0
   47.3566  -14.8090   -9.7441 H   0  0  0  0  0  0  0  0  0  0  0  0
   41.2373  -20.1423   -9.6118 H   0  0  0  0  0  0  0  0  0  0  0  0
   40.7872  -20.3523   -7.1866 H   0  0  0  0  0  0  0  0  0  0  0  0
   47.8286  -14.3998   -7.3481 H   0  0  0  0  0  0  0  0  0  0  0  0
  2  1  1  0
  3  1  1  0
  4  6  1  0
  5  7  1  0
  6  2  2  0
  7  3  2  0
  8  1  2  3
  9 13  1  0
 10  8  1  0
 11  3  1  0
 12  2  1  0
 13 10  1  0
 14  7  1  0
 15  6  1  0
 16  9  1  0
 17  9  1  0
 18 11  2  0
 19 12  2  0
 20 19  1  0
 21 18  1  0
  5  4  2  0
 21 14  2  0
 20 15  2  0
  4 22  1  0
  5 23  1  0
  8 24  1  0
 10 25  1  0
 10 26  1  0
 11 27  1  0
 12 28  1  0
 13 29  1  0
 13 30  1  0
 14 31  1  0
 15 32  1  0
 16 33  1  0
 16 34  1  0
 16 35  1  0
 17 36  1  0
 17 37  1  0
 17 38  1  0
 18 39  1  0
 19 40  1  0
 20 41  1  0
 21 42  1  0
M  END
> <Uni-Dock RESULT> 
ENERGY=   -5.033  LOWER_BOUND=    3.333  UPPER_BOUND=    6.366
INTER + INTRA:          -5.033
INTER:                  -5.033
INTRA:                   0.000
UNBOUND:                 0.000

$$$$

     RDKit          3D

 42 44  0  0  0  0  0  0  0  0999 V2000
   49.7782  -18.1616   -7.4031 C   0  0  0  0  0  0  0  0  0  0  0  0
   48.5667  -17.3489   -7.2175 C   0  0  0  0  0  0  0  0  0  0  0  0
   50.3870  -18.7416   -6.1919 C   0  0  0  0  0  0  0  0  0  0  0  0
   47.3059  -19.3168   -6.2068 C   0  0  0  0  0  0  0  0  0  0  0  0
   48.2813  -20.0748   -5.6828 C   0  0  0  0  0  0  0  0  0  0  0  0
   47.4133  -17.8923   -6.6085 C   0  0  0  0  0  0  0  0  0  0  0  0
   49.6628  -19.6354   -5.3734 C   0  0  0  0  0  0  0  0  0  0  0  0
   50.2763  -18.3484   -8.6422 C   0  0  0  0  0  0  0  0  0  0  0  0
   53.9228  -19.0863   -9.5874 N   0  0  0  0  0  0  0  0  0  0  0  0
   51.4634  -19.2168   -8.9687 C   0  0  0  0  0  0  0  0  0  0  0  0
   51.6933  -18.3697   -5.8282 C   0  0  0  0  0  0  0  0  0  0  0  0
   48.5612  -16.0123   -7.6538 C   0  0  0  0  0  0  0  0  0  0  0  0
   52.6500  -18.3470   -9.4308 C   0  0  0  0  0  0  0  0  0  0  0  0
   50.2959  -20.1998   -4.2521 C   0  0  0  0  0  0  0  0  0  0  0  0
   46.2694  -17.0857   -6.4750 C   0  0  0  0  0  0  0  0  0  0  0  0
   53.8264  -20.1998  -10.5438 C   0  0  0  0  0  0  0  0  0  0  0  0
   54.4868  -19.5333   -8.3033 C   0  0  0  0  0  0  0  0  0  0  0  0
   52.2993  -18.9237   -4.7004 C   0  0  0  0  0  0  0  0  0  0  0  0
   47.4231  -15.2211   -7.4940 C   0  0  0  0  0  0  0  0  0  0  0  0
   46.2783  -15.7573   -6.9061 C   0  0  0  0  0  0  0  0  0  0  0  0
   51.6042  -19.8440   -3.9175 C   0  0  0  0  0  0  0  0  0  0  0  0
   46.3211  -19.7664   -6.2651 H   0  0  0  0  0  0  0  0  0  0  0  0
   48.0020  -21.0715   -5.3603 H   0  0  0  0  0  0  0  0  0  0  0  0
   49.7863  -17.8672   -9.4815 H   0  0  0  0  0  0  0  0  0  0  0  0
   51.7417  -19.8585   -8.1113 H   0  0  0  0  0  0  0  0  0  0  0  0
   51.1620  -19.8963   -9.7934 H   0  0  0  0  0  0  0  0  0  0  0  0
   52.2431  -17.6489   -6.4184 H   0  0  0  0  0  0  0  0  0  0  0  0
   49.4430  -15.5818   -8.1130 H   0  0  0  0  0  0  0  0  0  0  0  0
   52.8022  -17.5069   -8.7188 H   0  0  0  0  0  0  0  0  0  0  0  0
   52.3880  -17.8731  -10.4025 H   0  0  0  0  0  0  0  0  0  0  0  0
   49.7705  -20.9107   -3.6258 H   0  0  0  0  0  0  0  0  0  0  0  0
   45.3649  -17.4863   -6.0332 H   0  0  0  0  0  0  0  0  0  0  0  0
   53.2342  -21.0439  -10.1279 H   0  0  0  0  0  0  0  0  0  0  0  0
   54.8445  -20.5703  -10.7893 H   0  0  0  0  0  0  0  0  0  0  0  0
   53.3590  -19.8568  -11.4918 H   0  0  0  0  0  0  0  0  0  0  0  0
   55.5404  -19.8520   -8.4521 H   0  0  0  0  0  0  0  0  0  0  0  0
   53.9205  -20.3895   -7.8790 H   0  0  0  0  0  0  0  0  0  0  0  0
   54.4952  -18.7003   -7.5678 H   0  0  0  0  0  0  0  0  0  0  0  0
   53.3093  -18.6397   -4.4342 H   0  0  0  0  0  0  0  0  0  0  0  0
   47.4276  -14.1921   -7.8300 H   0  0  0  0  0  0  0  0  0  0  0  0
   45.3932  -15.1452   -6.7900 H   0  0  0  0  0  0  0  0  0  0  0  0
   52.0770  -20.2784   -3.0461 H   0  0  0  0  0  0  0  0  0  0  0  0
  2  1  1  0
  3  1  1  0
  4  6  1  0
  5  7  1  0
  6  2  2  0
  7  3  2  0
  8  1  2  3
  9 13  1  0
 10  8  1  0
 11  3  1  0
 12  2  1  0
 13 10  1  0
 14  7  1  0
 15  6  1  0
 16  9  1  0
 17  9  1  0
 18 11  2  0
 19 12  2  0
 20 19  1  0
 21 18  1  0
  5  4  2  0
 21 14  2  0
 20 15  2  0
  4 22  1  0
  5 23  1  0
  8 24  1  0
 10 25  1  0
 10 26  1  0
 11 27  1  0
 12 28  1  0
 13 29  1  0
 13 30  1  0
 14 31  1  0
 15 32  1  0
 16 33  1  0
 16 34  1  0
 16 35  1  0
 17 36  1  0
 17 37  1  0
 17 38  1  0
 18 39  1  0
 19 40  1  0
 20 41  1  0
 21 42  1  0
M  END
> <Uni-Dock RESULT> 
ENERGY=   -4.653  LOWER_BOUND=    2.441  UPPER_BOUND=    5.081
INTER + INTRA:          -4.653
INTER:                  -4.653
INTRA:                   0.000
UNBOUND:                 0.000

$$$$

     RDKit          3D

 42 44  0  0  0  0  0  0  0  0999 V2000
   49.9590  -17.6888   -8.2307 C   0  0  0  0  0  0  0  0  0  0  0  0
   48.6734  -17.1193   -7.8000 C   0  0  0  0  0  0  0  0  0  0  0  0
   50.9574  -17.9580   -7.1797 C   0  0  0  0  0  0  0  0  0  0  0  0
   48.1814  -19.1390   -6.3294 C   0  0  0  0  0  0  0  0  0  0  0  0
   49.4018  -19.6033   -6.0206 C   0  0  0  0  0  0  0  0  0  0  0  0
   47.8573  -17.7930   -6.8637 C   0  0  0  0  0  0  0  0  0  0  0  0
   50.6772  -18.8553   -6.1263 C   0  0  0  0  0  0  0  0  0  0  0  0
   50.1747  -17.9437   -9.5372 C   0  0  0  0  0  0  0  0  0  0  0  0
   53.5570  -18.0566  -11.3489 N   0  0  0  0  0  0  0  0  0  0  0  0
   51.4163  -18.5919  -10.0922 C   0  0  0  0  0  0  0  0  0  0  0  0
   52.1905  -17.2829   -7.2076 C   0  0  0  0  0  0  0  0  0  0  0  0
   48.2549  -15.8862   -8.3302 C   0  0  0  0  0  0  0  0  0  0  0  0
   52.2236  -17.5745  -10.9236 C   0  0  0  0  0  0  0  0  0  0  0  0
   51.6735  -19.1171   -5.1694 C   0  0  0  0  0  0  0  0  0  0  0  0
   46.6245  -17.2230   -6.5004 C   0  0  0  0  0  0  0  0  0  0  0  0
   53.4940  -19.2898  -12.1483 C   0  0  0  0  0  0  0  0  0  0  0  0
   54.5000  -18.1955  -10.2272 C   0  0  0  0  0  0  0  0  0  0  0  0
   53.1604  -17.5392   -6.2382 C   0  0  0  0  0  0  0  0  0  0  0  0
   47.0373  -15.3263   -7.9419 C   0  0  0  0  0  0  0  0  0  0  0  0
   46.2226  -15.9943   -7.0288 C   0  0  0  0  0  0  0  0  0  0  0  0
   52.9052  -18.4614   -5.2245 C   0  0  0  0  0  0  0  0  0  0  0  0
   47.3426  -19.7816   -6.0867 H   0  0  0  0  0  0  0  0  0  0  0  0
   49.4460  -20.5804   -5.5529 H   0  0  0  0  0  0  0  0  0  0  0  0
   49.4004  -17.6941  -10.2542 H   0  0  0  0  0  0  0  0  0  0  0  0
   52.0326  -19.0374   -9.2882 H   0  0  0  0  0  0  0  0  0  0  0  0
   51.0913  -19.4274  -10.7473 H   0  0  0  0  0  0  0  0  0  0  0  0
   52.4010  -16.5564   -7.9809 H   0  0  0  0  0  0  0  0  0  0  0  0
   48.8769  -15.3556   -9.0412 H   0  0  0  0  0  0  0  0  0  0  0  0
   52.3439  -16.6294  -10.3508 H   0  0  0  0  0  0  0  0  0  0  0  0
   51.6341  -17.3047  -11.8276 H   0  0  0  0  0  0  0  0  0  0  0  0
   51.4924  -19.8241   -4.3687 H   0  0  0  0  0  0  0  0  0  0  0  0
   45.9700  -17.7316   -5.8027 H   0  0  0  0  0  0  0  0  0  0  0  0
   53.2303  -20.1689  -11.5208 H   0  0  0  0  0  0  0  0  0  0  0  0
   54.4807  -19.4780  -12.6226 H   0  0  0  0  0  0  0  0  0  0  0  0
   52.7467  -19.1848  -12.9641 H   0  0  0  0  0  0  0  0  0  0  0  0
   55.5314  -18.3129  -10.6224 H   0  0  0  0  0  0  0  0  0  0  0  0
   54.2655  -19.0800   -9.5976 H   0  0  0  0  0  0  0  0  0  0  0  0
   54.4918  -17.2830   -9.5931 H   0  0  0  0  0  0  0  0  0  0  0  0
   54.1110  -17.0228   -6.2739 H   0  0  0  0  0  0  0  0  0  0  0  0
   46.7233  -14.3752   -8.3525 H   0  0  0  0  0  0  0  0  0  0  0  0
   45.2745  -15.5630   -6.7343 H   0  0  0  0  0  0  0  0  0  0  0  0
   53.6602  -18.6646   -4.4761 H   0  0  0  0  0  0  0  0  0  0  0  0
  2  1  1  0
  3  1  1  0
  4  6  1  0
  5  7  1  0
  6  2  2  0
  7  3  2  0
  8  1  2  3
  9 13  1  0
 10  8  1  0
 11  3  1  0
 12  2  1  0
 13 10  1  0
 14  7  1  0
 15  6  1  0
 16  9  1  0
 17  9  1  0
 18 11  2  0
 19 12  2  0
 20 19  1  0
 21 18  1  0
  5  4  2  0
 21 14  2  0
 20 15  2  0
  4 22  1  0
  5 23  1  0
  8 24  1  0
 10 25  1  0
 10 26  1  0
 11 27  1  0
 12 28  1  0
 13 29  1  0
 13 30  1  0
 14 31  1  0
 15 32  1  0
 16 33  1  0
 16 34  1  0
 16 35  1  0
 17 36  1  0
 17 37  1  0
 17 38  1  0
 18 39  1  0
 19 40  1  0
 20 41  1  0
 21 42  1  0
M  END
> <Uni-Dock RESULT> 
ENERGY=   -4.464  LOWER_BOUND=    2.167  UPPER_BOUND=    5.022
INTER + INTRA:          -4.464
INTER:                  -4.464
INTRA:                   0.000
UNBOUND:                 0.000

$$$$

     RDKit          3D

 42 44  0  0  0  0  0  0  0  0999 V2000
   45.8821  -18.2940   -8.8413 C   0  0  0  0  0  0  0  0  0  0  0  0
   44.9769  -18.8981   -7.8522 C   0  0  0  0  0  0  0  0  0  0  0  0
   46.8659  -17.3172   -8.3394 C   0  0  0  0  0  0  0  0  0  0  0  0
   46.9297  -19.8946   -6.5569 C   0  0  0  0  0  0  0  0  0  0  0  0
   47.9458  -19.0651   -6.8396 C   0  0  0  0  0  0  0  0  0  0  0  0
   45.4841  -19.6179   -6.7472 C   0  0  0  0  0  0  0  0  0  0  0  0
   47.8303  -17.6886   -7.3774 C   0  0  0  0  0  0  0  0  0  0  0  0
   45.7881  -18.6474  -10.1392 C   0  0  0  0  0  0  0  0  0  0  0  0
   46.7859  -16.5449  -13.1919 N   0  0  0  0  0  0  0  0  0  0  0  0
   46.7025  -18.1567  -11.2314 C   0  0  0  0  0  0  0  0  0  0  0  0
   46.8180  -15.9889   -8.7980 C   0  0  0  0  0  0  0  0  0  0  0  0
   43.5875  -18.7543   -8.0127 C   0  0  0  0  0  0  0  0  0  0  0  0
   45.9326  -17.2342  -12.1980 C   0  0  0  0  0  0  0  0  0  0  0  0
   48.7779  -16.7382   -6.9586 C   0  0  0  0  0  0  0  0  0  0  0  0
   44.5806  -20.2000   -5.8407 C   0  0  0  0  0  0  0  0  0  0  0  0
   47.5570  -17.4752  -14.0308 C   0  0  0  0  0  0  0  0  0  0  0  0
   47.6573  -15.5237  -12.5880 C   0  0  0  0  0  0  0  0  0  0  0  0
   47.7534  -15.0530   -8.3563 C   0  0  0  0  0  0  0  0  0  0  0  0
   42.7069  -19.3218   -7.0912 C   0  0  0  0  0  0  0  0  0  0  0  0
   43.2027  -20.0445   -6.0070 C   0  0  0  0  0  0  0  0  0  0  0  0
   48.7375  -15.4292   -7.4435 C   0  0  0  0  0  0  0  0  0  0  0  0
   47.1867  -20.8257   -6.0645 H   0  0  0  0  0  0  0  0  0  0  0  0
   48.9372  -19.3948   -6.5500 H   0  0  0  0  0  0  0  0  0  0  0  0
   45.0207  -19.3541  -10.4352 H   0  0  0  0  0  0  0  0  0  0  0  0
   47.5944  -17.6516  -10.8141 H   0  0  0  0  0  0  0  0  0  0  0  0
   47.0678  -19.0471  -11.7849 H   0  0  0  0  0  0  0  0  0  0  0  0
   46.0547  -15.6773   -9.4983 H   0  0  0  0  0  0  0  0  0  0  0  0
   43.1873  -18.1961   -8.8505 H   0  0  0  0  0  0  0  0  0  0  0  0
   45.3605  -16.4757  -11.6209 H   0  0  0  0  0  0  0  0  0  0  0  0
   45.1703  -17.8389  -12.7371 H   0  0  0  0  0  0  0  0  0  0  0  0
   49.5459  -17.0078   -6.2436 H   0  0  0  0  0  0  0  0  0  0  0  0
   44.9442  -20.7769   -4.9987 H   0  0  0  0  0  0  0  0  0  0  0  0
   48.3816  -17.9524  -13.4578 H   0  0  0  0  0  0  0  0  0  0  0  0
   47.9965  -16.9260  -14.8905 H   0  0  0  0  0  0  0  0  0  0  0  0
   46.8934  -18.2650  -14.4440 H   0  0  0  0  0  0  0  0  0  0  0  0
   48.0805  -14.8781  -13.3866 H   0  0  0  0  0  0  0  0  0  0  0  0
   48.4998  -15.9797  -12.0258 H   0  0  0  0  0  0  0  0  0  0  0  0
   47.0762  -14.8663  -11.9060 H   0  0  0  0  0  0  0  0  0  0  0  0
   47.7156  -14.0353   -8.7232 H   0  0  0  0  0  0  0  0  0  0  0  0
   41.6386  -19.2043   -7.2202 H   0  0  0  0  0  0  0  0  0  0  0  0
   42.5185  -20.4912   -5.2971 H   0  0  0  0  0  0  0  0  0  0  0  0
   49.4669  -14.7043   -7.1058 H   0  0  0  0  0  0  0  0  0  0  0  0
  2  1  1  0
  3  1  1  0
  4  6  1  0
  5  7  1  0
  6  2  2  0
  7  3  2  0
  8  1  2  3
  9 13  1  0
 10  8  1  0
 11  3  1  0
 12  2  1  0
 13 10  1  0
 14  7  1  0
 15  6  1  0
 16  9  1  0
 17  9  1  0
 18 11  2  0
 19 12  2  0
 20 19  1  0
 21 18  1  0
  5  4  2  0
 21 14  2  0
 20 15  2  0
  4 22  1  0
  5 23  1  0
  8 24  1  0
 10 25  1  0
 10 26  1  0
 11 27  1  0
 12 28  1  0
 13 29  1  0
 13 30  1  0
 14 31  1  0
 15 32  1  0
 16 33  1  0
 16 34  1  0
 16 35  1  0
 17 36  1  0
 17 37  1  0
 17 38  1  0
 18 39  1  0
 19 40  1  0
 20 41  1  0
 21 42  1  0
M  END
> <Uni-Dock RESULT> 
ENERGY=   -4.152  LOWER_BOUND=    2.926  UPPER_BOUND=    6.041
INTER + INTRA:          -4.152
INTER:                  -4.152
INTRA:                   0.000
UNBOUND:                 0.000

$$$$

     RDKit          3D

 42 44  0  0  0  0  0  0  0  0999 V2000
   42.8506  -11.2786  -12.0106 C   0  0  0  0  0  0  0  0  0  0  0  0
   41.9484  -10.7735  -10.9648 C   0  0  0  0  0  0  0  0  0  0  0  0
   42.8788  -12.7374  -12.2228 C   0  0  0  0  0  0  0  0  0  0  0  0
   39.9096  -11.7363  -12.1481 C   0  0  0  0  0  0  0  0  0  0  0  0
   40.4118  -12.7690  -12.8420 C   0  0  0  0  0  0  0  0  0  0  0  0
   40.5605  -11.0334  -11.0147 C   0  0  0  0  0  0  0  0  0  0  0  0
   41.7126  -13.4377  -12.6009 C   0  0  0  0  0  0  0  0  0  0  0  0
   43.5986  -10.4136  -12.7251 C   0  0  0  0  0  0  0  0  0  0  0  0
   46.9506  -11.1277  -14.4542 N   0  0  0  0  0  0  0  0  0  0  0  0
   44.5018  -10.7995  -13.8676 C   0  0  0  0  0  0  0  0  0  0  0  0
   44.0751  -13.4447  -12.0089 C   0  0  0  0  0  0  0  0  0  0  0  0
   42.4796  -10.0219   -9.9019 C   0  0  0  0  0  0  0  0  0  0  0  0
   45.9785  -10.5940  -13.4737 C   0  0  0  0  0  0  0  0  0  0  0  0
   41.7934  -14.8215  -12.8361 C   0  0  0  0  0  0  0  0  0  0  0  0
   39.7327  -10.5089  -10.0065 C   0  0  0  0  0  0  0  0  0  0  0  0
   46.7930  -10.5441  -15.7953 C   0  0  0  0  0  0  0  0  0  0  0  0
   46.9584  -12.5986  -14.5100 C   0  0  0  0  0  0  0  0  0  0  0  0
   44.1326  -14.8213  -12.2269 C   0  0  0  0  0  0  0  0  0  0  0  0
   41.6448   -9.5270   -8.8994 C   0  0  0  0  0  0  0  0  0  0  0  0
   40.2729   -9.7694   -8.9521 C   0  0  0  0  0  0  0  0  0  0  0  0
   42.9948  -15.5079  -12.6479 C   0  0  0  0  0  0  0  0  0  0  0  0
   38.8939  -11.4407  -12.3858 H   0  0  0  0  0  0  0  0  0  0  0  0
   39.7592  -13.2218  -13.5800 H   0  0  0  0  0  0  0  0  0  0  0  0
   43.5418   -9.3560  -12.4924 H   0  0  0  0  0  0  0  0  0  0  0  0
   44.3120  -11.8382  -14.1987 H   0  0  0  0  0  0  0  0  0  0  0  0
   44.2543  -10.1392  -14.7253 H   0  0  0  0  0  0  0  0  0  0  0  0
   44.9645  -12.9293  -11.6721 H   0  0  0  0  0  0  0  0  0  0  0  0
   43.5436   -9.8247   -9.8478 H   0  0  0  0  0  0  0  0  0  0  0  0
   46.1722  -11.0553  -12.4810 H   0  0  0  0  0  0  0  0  0  0  0  0
   46.1640   -9.5053  -13.3402 H   0  0  0  0  0  0  0  0  0  0  0  0
   40.9188  -15.3753  -13.1557 H   0  0  0  0  0  0  0  0  0  0  0  0
   38.6623  -10.6740  -10.0352 H   0  0  0  0  0  0  0  0  0  0  0  0
   45.8769  -10.9224  -16.2990 H   0  0  0  0  0  0  0  0  0  0  0  0
   47.6730  -10.8044  -16.4213 H   0  0  0  0  0  0  0  0  0  0  0  0
   46.7451   -9.4357  -15.7321 H   0  0  0  0  0  0  0  0  0  0  0  0
   47.8588  -12.9439  -15.0610 H   0  0  0  0  0  0  0  0  0  0  0  0
   46.0596  -12.9971  -15.0269 H   0  0  0  0  0  0  0  0  0  0  0  0
   47.0126  -13.0293  -13.4870 H   0  0  0  0  0  0  0  0  0  0  0  0
   45.0607  -15.3558  -12.0703 H   0  0  0  0  0  0  0  0  0  0  0  0
   42.0617   -8.9515   -8.0829 H   0  0  0  0  0  0  0  0  0  0  0  0
   39.6251   -9.3782   -8.1782 H   0  0  0  0  0  0  0  0  0  0  0  0
   43.0414  -16.5750  -12.8229 H   0  0  0  0  0  0  0  0  0  0  0  0
  2  1  1  0
  3  1  1  0
  4  6  1  0
  5  7  1  0
  6  2  2  0
  7  3  2  0
  8  1  2  3
  9 13  1  0
 10  8  1  0
 11  3  1  0
 12  2  1  0
 13 10  1  0
 14  7  1  0
 15  6  1  0
 16  9  1  0
 17  9  1  0
 18 11  2  0
 19 12  2  0
 20 19  1  0
 21 18  1  0
  5  4  2  0
 21 14  2  0
 20 15  2  0
  4 22  1  0
  5 23  1  0
  8 24  1  0
 10 25  1  0
 10 26  1  0
 11 27  1  0
 12 28  1  0
 13 29  1  0
 13 30  1  0
 14 31  1  0
 15 32  1  0
 16 33  1  0
 16 34  1  0
 16 35  1  0
 17 36  1  0
 17 37  1  0
 17 38  1  0
 18 39  1  0
 19 40  1  0
 20 41  1  0
 21 42  1  0
M  END
> <Uni-Dock RESULT> 
ENERGY=   -4.144  LOWER_BOUND=    8.385  UPPER_BOUND=   10.682
INTER + INTRA:          -4.144
INTER:                  -4.144
INTRA:                   0.000
UNBOUND:                 0.000

$$$$

     RDKit          3D

 42 44  0  0  0  0  0  0  0  0999 V2000
   43.0701  -11.5966  -12.2174 C   0  0  0  0  0  0  0  0  0  0  0  0
   42.1266  -11.0463  -11.2327 C   0  0  0  0  0  0  0  0  0  0  0  0
   43.1317  -13.0648  -12.3373 C   0  0  0  0  0  0  0  0  0  0  0  0
   40.1437  -12.1213  -12.4145 C   0  0  0  0  0  0  0  0  0  0  0  0
   40.6862  -13.1845  -13.0273 C   0  0  0  0  0  0  0  0  0  0  0  0
   40.7459  -11.3368  -11.3080 C   0  0  0  0  0  0  0  0  0  0  0  0
   41.9909  -13.8106  -12.7060 C   0  0  0  0  0  0  0  0  0  0  0  0
   43.8242  -10.7624  -12.9616 C   0  0  0  0  0  0  0  0  0  0  0  0
   47.2411  -11.5138  -14.5413 N   0  0  0  0  0  0  0  0  0  0  0  0
   44.7695  -11.1997  -14.0502 C   0  0  0  0  0  0  0  0  0  0  0  0
   44.3335  -13.7332  -12.0440 C   0  0  0  0  0  0  0  0  0  0  0  0
   42.6104  -10.2200  -10.2032 C   0  0  0  0  0  0  0  0  0  0  0  0
   46.2292  -10.9404  -13.6256 C   0  0  0  0  0  0  0  0  0  0  0  0
   42.1044  -15.2043  -12.8520 C   0  0  0  0  0  0  0  0  0  0  0  0
   39.8775  -10.7679  -10.3598 C   0  0  0  0  0  0  0  0  0  0  0  0
   47.1149  -11.0175  -15.9202 C   0  0  0  0  0  0  0  0  0  0  0  0
   47.2776  -12.9849  -14.5050 C   0  0  0  0  0  0  0  0  0  0  0  0
   44.4230  -15.1193  -12.1739 C   0  0  0  0  0  0  0  0  0  0  0  0
   41.7358   -9.6811   -9.2591 C   0  0  0  0  0  0  0  0  0  0  0  0
   40.3708   -9.9540   -9.3377 C   0  0  0  0  0  0  0  0  0  0  0  0
   43.3117  -15.8534  -12.5853 C   0  0  0  0  0  0  0  0  0  0  0  0
   39.1308  -11.8616  -12.7006 H   0  0  0  0  0  0  0  0  0  0  0  0
   40.0655  -13.6951  -13.7550 H   0  0  0  0  0  0  0  0  0  0  0  0
   43.7407   -9.6938  -12.7971 H   0  0  0  0  0  0  0  0  0  0  0  0
   44.6092  -12.2605  -14.3214 H   0  0  0  0  0  0  0  0  0  0  0  0
   44.5369  -10.5988  -14.9543 H   0  0  0  0  0  0  0  0  0  0  0  0
   45.2023  -13.1802  -11.7133 H   0  0  0  0  0  0  0  0  0  0  0  0
   43.6684   -9.9983  -10.1295 H   0  0  0  0  0  0  0  0  0  0  0  0
   46.4002  -11.3356  -12.6007 H   0  0  0  0  0  0  0  0  0  0  0  0
   46.3904   -9.8421  -13.5546 H   0  0  0  0  0  0  0  0  0  0  0  0
   41.2505  -15.7944  -13.1626 H   0  0  0  0  0  0  0  0  0  0  0  0
   38.8117  -10.9561  -10.4103 H   0  0  0  0  0  0  0  0  0  0  0  0
   46.2221  -11.4445  -16.4268 H   0  0  0  0  0  0  0  0  0  0  0  0
   48.0186  -11.2980  -16.5021 H   0  0  0  0  0  0  0  0  0  0  0  0
   47.0446   -9.9084  -15.9277 H   0  0  0  0  0  0  0  0  0  0  0  0
   48.2010  -13.3453  -15.0062 H   0  0  0  0  0  0  0  0  0  0  0  0
   46.4028  -13.4327  -15.0229 H   0  0  0  0  0  0  0  0  0  0  0  0
   47.3077  -13.3505  -13.4560 H   0  0  0  0  0  0  0  0  0  0  0  0
   45.3554  -15.6241  -11.9565 H   0  0  0  0  0  0  0  0  0  0  0  0
   42.1163   -9.0480   -8.4678 H   0  0  0  0  0  0  0  0  0  0  0  0
   39.6921   -9.5290   -8.6096 H   0  0  0  0  0  0  0  0  0  0  0  0
   43.3833  -16.9281  -12.6921 H   0  0  0  0  0  0  0  0  0  0  0  0
  2  1  1  0
  3  1  1  0
  4  6  1  0
  5  7  1  0
  6  2  2  0
  7  3  2  0
  8  1  2  3
  9 13  1  0
 10  8  1  0
 11  3  1  0
 12  2  1  0
 13 10  1  0
 14  7  1  0
 15  6  1  0
 16  9  1  0
 17  9  1  0
 18 11  2  0
 19 12  2  0
 20 19  1  0
 21 18  1  0
  5  4  2  0
 21 14  2  0
 20 15  2  0
  4 22  1  0
  5 23  1  0
  8 24  1  0
 10 25  1  0
 10 26  1  0
 11 27  1  0
 12 28  1  0
 13 29  1  0
 13 30  1  0
 14 31  1  0
 15 32  1  0
 16 33  1  0
 16 34  1  0
 16 35  1  0
 17 36  1  0
 17 37  1  0
 17 38  1  0
 18 39  1  0
 19 40  1  0
 20 41  1  0
 21 42  1  0
M  END
> <Uni-Dock RESULT> 
ENERGY=   -4.127  LOWER_BOUND=    8.134  UPPER_BOUND=   10.472
INTER + INTRA:          -4.127
INTER:                  -4.127
INTRA:                   0.000
UNBOUND:                 0.000

$$$$

     RDKit          3D

 42 44  0  0  0  0  0  0  0  0999 V2000
   47.0213  -16.5189   -9.8274 C   0  0  0  0  0  0  0  0  0  0  0  0
   48.3678  -16.7724   -9.2932 C   0  0  0  0  0  0  0  0  0  0  0  0
   45.9381  -17.4025   -9.3586 C   0  0  0  0  0  0  0  0  0  0  0  0
   47.5853  -16.3554   -6.9062 C   0  0  0  0  0  0  0  0  0  0  0  0
   46.2806  -16.6658   -6.9481 C   0  0  0  0  0  0  0  0  0  0  0  0
   48.6167  -16.7367   -7.9028 C   0  0  0  0  0  0  0  0  0  0  0  0
   45.6054  -17.4775   -7.9886 C   0  0  0  0  0  0  0  0  0  0  0  0
   46.8262  -15.5106  -10.7012 C   0  0  0  0  0  0  0  0  0  0  0  0
   44.0753  -15.2528  -13.3660 N   0  0  0  0  0  0  0  0  0  0  0  0
   45.4871  -15.1057  -11.2603 C   0  0  0  0  0  0  0  0  0  0  0  0
   45.2530  -18.2085  -10.2850 C   0  0  0  0  0  0  0  0  0  0  0  0
   49.4193  -17.0543  -10.1830 C   0  0  0  0  0  0  0  0  0  0  0  0
   45.4167  -15.4314  -12.7660 C   0  0  0  0  0  0  0  0  0  0  0  0
   44.5366  -18.2993   -7.5897 C   0  0  0  0  0  0  0  0  0  0  0  0
   49.9251  -16.9602   -7.4391 C   0  0  0  0  0  0  0  0  0  0  0  0
   43.5543  -13.8858  -13.2116 C   0  0  0  0  0  0  0  0  0  0  0  0
   43.1008  -16.2513  -12.8967 C   0  0  0  0  0  0  0  0  0  0  0  0
   44.2083  -19.0341   -9.8690 C   0  0  0  0  0  0  0  0  0  0  0  0
   50.7071  -17.2938   -9.7025 C   0  0  0  0  0  0  0  0  0  0  0  0
   50.9600  -17.2459   -8.3323 C   0  0  0  0  0  0  0  0  0  0  0  0
   43.8451  -19.0734   -8.5238 C   0  0  0  0  0  0  0  0  0  0  0  0
   47.9341  -15.8467   -6.0146 H   0  0  0  0  0  0  0  0  0  0  0  0
   45.6861  -16.3837   -6.0865 H   0  0  0  0  0  0  0  0  0  0  0  0
   47.6787  -14.9200  -11.0182 H   0  0  0  0  0  0  0  0  0  0  0  0
   44.6572  -15.5815  -10.7041 H   0  0  0  0  0  0  0  0  0  0  0  0
   45.3834  -14.0098  -11.1156 H   0  0  0  0  0  0  0  0  0  0  0  0
   45.5289  -18.1982  -11.3309 H   0  0  0  0  0  0  0  0  0  0  0  0
   49.2384  -17.0943  -11.2505 H   0  0  0  0  0  0  0  0  0  0  0  0
   45.7587  -16.4742  -12.9432 H   0  0  0  0  0  0  0  0  0  0  0  0
   46.1409  -14.7821  -13.3058 H   0  0  0  0  0  0  0  0  0  0  0  0
   44.2436  -18.3506   -6.5479 H   0  0  0  0  0  0  0  0  0  0  0  0
   50.1462  -16.9145   -6.3794 H   0  0  0  0  0  0  0  0  0  0  0  0
   43.2568  -13.6796  -12.1604 H   0  0  0  0  0  0  0  0  0  0  0  0
   42.6651  -13.7494  -13.8633 H   0  0  0  0  0  0  0  0  0  0  0  0
   44.3171  -13.1425  -13.5288 H   0  0  0  0  0  0  0  0  0  0  0  0
   42.2037  -16.2298  -13.5513 H   0  0  0  0  0  0  0  0  0  0  0  0
   42.7755  -16.0525  -11.8534 H   0  0  0  0  0  0  0  0  0  0  0  0
   43.5287  -17.2751  -12.9573 H   0  0  0  0  0  0  0  0  0  0  0  0
   43.6794  -19.6430  -10.5909 H   0  0  0  0  0  0  0  0  0  0  0  0
   51.5108  -17.5128  -10.3937 H   0  0  0  0  0  0  0  0  0  0  0  0
   51.9610  -17.4238   -7.9611 H   0  0  0  0  0  0  0  0  0  0  0  0
   43.0303  -19.7094   -8.2024 H   0  0  0  0  0  0  0  0  0  0  0  0
  2  1  1  0
  3  1  1  0
  4  6  1  0
  5  7  1  0
  6  2  2  0
  7  3  2  0
  8  1  2  3
  9 13  1  0
 10  8  1  0
 11  3  1  0
 12  2  1  0
 13 10  1  0
 14  7  1  0
 15  6  1  0
 16  9  1  0
 17  9  1  0
 18 11  2  0
 19 12  2  0
 20 19  1  0
 21 18  1  0
  5  4  2  0
 21 14  2  0
 20 15  2  0
  4 22  1  0
  5 23  1  0
  8 24  1  0
 10 25  1  0
 10 26  1  0
 11 27  1  0
 12 28  1  0
 13 29  1  0
 13 30  1  0
 14 31  1  0
 15 32  1  0
 16 33  1  0
 16 34  1  0
 16 35  1  0
 17 36  1  0
 17 37  1  0
 17 38  1  0
 18 39  1  0
 19 40  1  0
 20 41  1  0
 21 42  1  0
M  END
> <Uni-Dock RESULT> 
ENERGY=   -3.997  LOWER_BOUND=    3.700  UPPER_BOUND=    4.876
INTER + INTRA:          -3.997
INTER:                  -3.997
INTRA:                   0.000
UNBOUND:                 0.000

$$$$
