
     RDKit          3D

 42 44  0  0  0  0  0  0  0  0999 V2000
   50.3133  -16.8714   -7.8492 C   0  0  0  0  0  0  0  0  0  0  0  0
   51.2840  -16.4780   -6.8171 C   0  0  0  0  0  0  0  0  0  0  0  0
   48.8849  -16.8006   -7.4928 C   0  0  0  0  0  0  0  0  0  0  0  0
   50.3123  -14.1279   -6.6870 C   0  0  0  0  0  0  0  0  0  0  0  0
   49.0385  -14.2963   -7.0738 C   0  0  0  0  0  0  0  0  0  0  0  0
   51.2478  -15.1893   -6.2390 C   0  0  0  0  0  0  0  0  0  0  0  0
   48.2942  -15.5777   -7.1065 C   0  0  0  0  0  0  0  0  0  0  0  0
   50.7443  -17.2537   -9.0661 C   0  0  0  0  0  0  0  0  0  0  0  0
   51.5324  -18.9132  -11.4167 N   0  0  0  0  0  0  0  0  0  0  0  0
   49.8165  -17.5680  -10.2136 C   0  0  0  0  0  0  0  0  0  0  0  0
   48.1134  -17.9761   -7.4913 C   0  0  0  0  0  0  0  0  0  0  0  0
   52.2619  -17.4003   -6.4057 C   0  0  0  0  0  0  0  0  0  0  0  0
   50.5832  -17.7819  -11.5262 C   0  0  0  0  0  0  0  0  0  0  0  0
   46.9209  -15.5474   -6.8070 C   0  0  0  0  0  0  0  0  0  0  0  0
   52.2127  -14.8484   -5.2748 C   0  0  0  0  0  0  0  0  0  0  0  0
   52.6338  -18.7485  -12.3788 C   0  0  0  0  0  0  0  0  0  0  0  0
   50.8567  -20.1997  -11.6616 C   0  0  0  0  0  0  0  0  0  0  0  0
   46.7568  -17.9319   -7.1682 C   0  0  0  0  0  0  0  0  0  0  0  0
   53.1986  -17.0504   -5.4325 C   0  0  0  0  0  0  0  0  0  0  0  0
   53.1743  -15.7759   -4.8681 C   0  0  0  0  0  0  0  0  0  0  0  0
   46.1590  -16.7173   -6.8351 C   0  0  0  0  0  0  0  0  0  0  0  0
   50.6665  -13.1055   -6.6175 H   0  0  0  0  0  0  0  0  0  0  0  0
   48.4707  -13.3964   -7.2815 H   0  0  0  0  0  0  0  0  0  0  0  0
   51.8129  -17.2687   -9.2539 H   0  0  0  0  0  0  0  0  0  0  0  0
   49.1156  -16.7165  -10.3549 H   0  0  0  0  0  0  0  0  0  0  0  0
   49.2140  -18.4678   -9.9815 H   0  0  0  0  0  0  0  0  0  0  0  0
   48.5656  -18.9299   -7.7337 H   0  0  0  0  0  0  0  0  0  0  0  0
   52.2942  -18.3940   -6.8364 H   0  0  0  0  0  0  0  0  0  0  0  0
   51.1209  -16.8321  -11.7514 H   0  0  0  0  0  0  0  0  0  0  0  0
   49.8591  -17.9418  -12.3574 H   0  0  0  0  0  0  0  0  0  0  0  0
   46.4390  -14.6154   -6.5369 H   0  0  0  0  0  0  0  0  0  0  0  0
   52.2208  -13.8587   -4.8338 H   0  0  0  0  0  0  0  0  0  0  0  0
   52.2505  -18.6831  -13.4219 H   0  0  0  0  0  0  0  0  0  0  0  0
   53.3434  -19.6008  -12.3044 H   0  0  0  0  0  0  0  0  0  0  0  0
   53.2100  -17.8277  -12.1442 H   0  0  0  0  0  0  0  0  0  0  0  0
   51.5775  -21.0378  -11.5462 H   0  0  0  0  0  0  0  0  0  0  0  0
   50.4198  -20.2404  -12.6844 H   0  0  0  0  0  0  0  0  0  0  0  0
   50.0521  -20.3674  -10.9169 H   0  0  0  0  0  0  0  0  0  0  0  0
   46.1685  -18.8403   -7.1765 H   0  0  0  0  0  0  0  0  0  0  0  0
   53.9466  -17.7671   -5.1187 H   0  0  0  0  0  0  0  0  0  0  0  0
   53.9064  -15.5027   -4.1191 H   0  0  0  0  0  0  0  0  0  0  0  0
   45.1051  -16.6826   -6.5912 H   0  0  0  0  0  0  0  0  0  0  0  0
  2  1  1  0
  3  1  1  0
  4  6  1  0
  5  7  1  0
  6  2  2  0
  7  3  2  0
  8  1  2  3
  9 13  1  0
 10  8  1  0
 11  3  1  0
 12  2  1  0
 13 10  1  0
 14  7  1  0
 15  6  1  0
 16  9  1  0
 17  9  1  0
 18 11  2  0
 19 12  2  0
 20 19  1  0
 21 18  1  0
  5  4  2  0
 21 14  2  0
 20 15  2  0
  4 22  1  0
  5 23  1  0
  8 24  1  0
 10 25  1  0
 10 26  1  0
 11 27  1  0
 12 28  1  0
 13 29  1  0
 13 30  1  0
 14 31  1  0
 15 32  1  0
 16 33  1  0
 16 34  1  0
 16 35  1  0
 17 36  1  0
 17 37  1  0
 17 38  1  0
 18 39  1  0
 19 40  1  0
 20 41  1  0
 21 42  1  0
M  END
> <Uni-Dock RESULT> 
ENERGY=   -6.026  LOWER_BOUND=    0.000  UPPER_BOUND=    0.000
INTER + INTRA:          -6.026
INTER:                  -6.026
INTRA:                   0.000
UNBOUND:                 0.000

$$$$

     RDKit          3D

 42 44  0  0  0  0  0  0  0  0999 V2000
   50.2457  -16.9292   -7.9595 C   0  0  0  0  0  0  0  0  0  0  0  0
   51.2355  -16.5416   -6.9435 C   0  0  0  0  0  0  0  0  0  0  0  0
   48.8250  -16.8765   -7.5709 C   0  0  0  0  0  0  0  0  0  0  0  0
   50.2463  -14.2026   -6.7584 C   0  0  0  0  0  0  0  0  0  0  0  0
   48.9658  -14.3771   -7.1195 C   0  0  0  0  0  0  0  0  0  0  0  0
   51.2008  -15.2616   -6.3463 C   0  0  0  0  0  0  0  0  0  0  0  0
   48.2323  -15.6646   -7.1542 C   0  0  0  0  0  0  0  0  0  0  0  0
   50.6531  -17.2903   -9.1910 C   0  0  0  0  0  0  0  0  0  0  0  0
   51.4036  -18.9092  -11.5818 N   0  0  0  0  0  0  0  0  0  0  0  0
   49.7029  -17.5968  -10.3222 C   0  0  0  0  0  0  0  0  0  0  0  0
   48.0641  -18.0589   -7.5693 C   0  0  0  0  0  0  0  0  0  0  0  0
   52.2304  -17.4607   -6.5669 C   0  0  0  0  0  0  0  0  0  0  0  0
   50.4423  -17.7852  -11.6542 C   0  0  0  0  0  0  0  0  0  0  0  0
   46.8657  -15.6511   -6.8242 C   0  0  0  0  0  0  0  0  0  0  0  0
   52.1837  -14.9256   -5.3988 C   0  0  0  0  0  0  0  0  0  0  0  0
   52.4820  -18.7210  -12.5655 C   0  0  0  0  0  0  0  0  0  0  0  0
   50.7340  -20.1983  -11.8302 C   0  0  0  0  0  0  0  0  0  0  0  0
   46.7146  -18.0315   -7.2158 C   0  0  0  0  0  0  0  0  0  0  0  0
   53.1852  -17.1161   -5.6096 C   0  0  0  0  0  0  0  0  0  0  0  0
   53.1622  -15.8500   -5.0266 C   0  0  0  0  0  0  0  0  0  0  0  0
   46.1137  -16.8273   -6.8523 C   0  0  0  0  0  0  0  0  0  0  0  0
   50.5929  -13.1781   -6.6821 H   0  0  0  0  0  0  0  0  0  0  0  0
   48.3856  -13.4795   -7.3018 H   0  0  0  0  0  0  0  0  0  0  0  0
   51.7174  -17.2930   -9.4024 H   0  0  0  0  0  0  0  0  0  0  0  0
   48.9917  -16.7499  -10.4358 H   0  0  0  0  0  0  0  0  0  0  0  0
   49.1137  -18.5053  -10.0898 H   0  0  0  0  0  0  0  0  0  0  0  0
   48.5191  -19.0050   -7.8352 H   0  0  0  0  0  0  0  0  0  0  0  0
   52.2618  -18.4479   -7.0125 H   0  0  0  0  0  0  0  0  0  0  0  0
   50.9665  -16.8275  -11.8776 H   0  0  0  0  0  0  0  0  0  0  0  0
   49.7015  -17.9400  -12.4715 H   0  0  0  0  0  0  0  0  0  0  0  0
   46.3817  -14.7274   -6.5302 H   0  0  0  0  0  0  0  0  0  0  0  0
   52.1928  -13.9423   -4.9439 H   0  0  0  0  0  0  0  0  0  0  0  0
   52.0752  -18.6443  -13.5988 H   0  0  0  0  0  0  0  0  0  0  0  0
   53.2005  -19.5677  -12.5189 H   0  0  0  0  0  0  0  0  0  0  0  0
   53.0551  -17.7984  -12.3304 H   0  0  0  0  0  0  0  0  0  0  0  0
   51.4645  -21.0313  -11.7427 H   0  0  0  0  0  0  0  0  0  0  0  0
   50.2749  -20.2285  -12.8437 H   0  0  0  0  0  0  0  0  0  0  0  0
   49.9475  -20.3838  -11.0705 H   0  0  0  0  0  0  0  0  0  0  0  0
   46.1343  -18.9451   -7.2242 H   0  0  0  0  0  0  0  0  0  0  0  0
   53.9463  -17.8303   -5.3226 H   0  0  0  0  0  0  0  0  0  0  0  0
   53.9083  -15.5807   -4.2900 H   0  0  0  0  0  0  0  0  0  0  0  0
   45.0651  -16.8057   -6.5848 H   0  0  0  0  0  0  0  0  0  0  0  0
  2  1  1  0
  3  1  1  0
  4  6  1  0
  5  7  1  0
  6  2  2  0
  7  3  2  0
  8  1  2  3
  9 13  1  0
 10  8  1  0
 11  3  1  0
 12  2  1  0
 13 10  1  0
 14  7  1  0
 15  6  1  0
 16  9  1  0
 17  9  1  0
 18 11  2  0
 19 12  2  0
 20 19  1  0
 21 18  1  0
  5  4  2  0
 21 14  2  0
 20 15  2  0
  4 22  1  0
  5 23  1  0
  8 24  1  0
 10 25  1  0
 10 26  1  0
 11 27  1  0
 12 28  1  0
 13 29  1  0
 13 30  1  0
 14 31  1  0
 15 32  1  0
 16 33  1  0
 16 34  1  0
 16 35  1  0
 17 36  1  0
 17 37  1  0
 17 38  1  0
 18 39  1  0
 19 40  1  0
 20 41  1  0
 21 42  1  0
M  END
> <Uni-Dock RESULT> 
ENERGY=   -5.959  LOWER_BOUND=    0.159  UPPER_BOUND=    0.159
INTER + INTRA:          -5.959
INTER:                  -5.959
INTRA:                   0.000
UNBOUND:                 0.000

$$$$

     RDKit          3D

 42 44  0  0  0  0  0  0  0  0999 V2000
   48.2300  -17.0873   -7.8871 C   0  0  0  0  0  0  0  0  0  0  0  0
   47.6010  -18.0673   -6.9893 C   0  0  0  0  0  0  0  0  0  0  0  0
   49.2824  -16.2281   -7.3157 C   0  0  0  0  0  0  0  0  0  0  0  0
   49.8297  -19.2209   -6.5584 C   0  0  0  0  0  0  0  0  0  0  0  0
   50.7287  -18.2452   -6.7591 C   0  0  0  0  0  0  0  0  0  0  0  0
   48.3739  -19.0478   -6.3280 C   0  0  0  0  0  0  0  0  0  0  0  0
   50.4552  -16.7885   -6.7643 C   0  0  0  0  0  0  0  0  0  0  0  0
   47.8526  -17.0195   -9.1778 C   0  0  0  0  0  0  0  0  0  0  0  0
   46.5585  -16.1618  -11.7254 N   0  0  0  0  0  0  0  0  0  0  0  0
   48.5193  -16.1217  -10.1907 C   0  0  0  0  0  0  0  0  0  0  0  0
   49.0925  -14.8355   -7.2761 C   0  0  0  0  0  0  0  0  0  0  0  0
   46.2096  -18.0254   -6.7922 C   0  0  0  0  0  0  0  0  0  0  0  0
   48.0166  -16.3953  -11.6151 C   0  0  0  0  0  0  0  0  0  0  0  0
   51.4493  -15.9318   -6.2600 C   0  0  0  0  0  0  0  0  0  0  0  0
   47.7258  -19.9810   -5.4997 C   0  0  0  0  0  0  0  0  0  0  0  0
   45.9977  -16.9570  -12.8294 C   0  0  0  0  0  0  0  0  0  0  0  0
   46.2641  -14.7355  -11.9506 C   0  0  0  0  0  0  0  0  0  0  0  0
   50.0795  -14.0014   -6.7500 C   0  0  0  0  0  0  0  0  0  0  0  0
   45.5869  -18.9474   -5.9502 C   0  0  0  0  0  0  0  0  0  0  0  0
   46.3439  -19.9243   -5.3051 C   0  0  0  0  0  0  0  0  0  0  0  0
   51.2606  -14.5482   -6.2507 C   0  0  0  0  0  0  0  0  0  0  0  0
   50.2194  -20.2293   -6.4752 H   0  0  0  0  0  0  0  0  0  0  0  0
   51.7684  -18.5471   -6.8186 H   0  0  0  0  0  0  0  0  0  0  0  0
   47.0775  -17.6947   -9.5250 H   0  0  0  0  0  0  0  0  0  0  0  0
   49.6159  -16.3034  -10.1679 H   0  0  0  0  0  0  0  0  0  0  0  0
   48.3464  -15.0591   -9.9308 H   0  0  0  0  0  0  0  0  0  0  0  0
   48.1748  -14.3957   -7.6467 H   0  0  0  0  0  0  0  0  0  0  0  0
   45.6081  -17.2729   -7.2880 H   0  0  0  0  0  0  0  0  0  0  0  0
   48.2690  -17.4539  -11.8552 H   0  0  0  0  0  0  0  0  0  0  0  0
   48.5822  -15.7624  -12.3365 H   0  0  0  0  0  0  0  0  0  0  0  0
   52.3706  -16.3370   -5.8589 H   0  0  0  0  0  0  0  0  0  0  0  0
   48.2931  -20.7572   -5.0001 H   0  0  0  0  0  0  0  0  0  0  0  0
   46.4894  -16.7065  -13.7961 H   0  0  0  0  0  0  0  0  0  0  0  0
   44.9045  -16.7771  -12.9196 H   0  0  0  0  0  0  0  0  0  0  0  0
   46.1302  -18.0410  -12.6236 H   0  0  0  0  0  0  0  0  0  0  0  0
   45.1654  -14.5756  -12.0012 H   0  0  0  0  0  0  0  0  0  0  0  0
   46.7237  -14.3706  -12.8964 H   0  0  0  0  0  0  0  0  0  0  0  0
   46.6365  -14.1206  -11.1060 H   0  0  0  0  0  0  0  0  0  0  0  0
   49.9284  -12.9298   -6.7299 H   0  0  0  0  0  0  0  0  0  0  0  0
   44.5156  -18.9069   -5.8010 H   0  0  0  0  0  0  0  0  0  0  0  0
   45.8589  -20.6442   -4.6585 H   0  0  0  0  0  0  0  0  0  0  0  0
   52.0288  -13.9001   -5.8489 H   0  0  0  0  0  0  0  0  0  0  0  0
  2  1  1  0
  3  1  1  0
  4  6  1  0
  5  7  1  0
  6  2  2  0
  7  3  2  0
  8  1  2  3
  9 13  1  0
 10  8  1  0
 11  3  1  0
 12  2  1  0
 13 10  1  0
 14  7  1  0
 15  6  1  0
 16  9  1  0
 17  9  1  0
 18 11  2  0
 19 12  2  0
 20 19  1  0
 21 18  1  0
  5  4  2  0
 21 14  2  0
 20 15  2  0
  4 22  1  0
  5 23  1  0
  8 24  1  0
 10 25  1  0
 10 26  1  0
 11 27  1  0
 12 28  1  0
 13 29  1  0
 13 30  1  0
 14 31  1  0
 15 32  1  0
 16 33  1  0
 16 34  1  0
 16 35  1  0
 17 36  1  0
 17 37  1  0
 17 38  1  0
 18 39  1  0
 19 40  1  0
 20 41  1  0
 21 42  1  0
M  END
> <Uni-Dock RESULT> 
ENERGY=   -5.394  LOWER_BOUND=    2.462  UPPER_BOUND=    5.099
INTER + INTRA:          -5.394
INTER:                  -5.394
INTRA:                   0.000
UNBOUND:                 0.000

$$$$

     RDKit          3D

 42 44  0  0  0  0  0  0  0  0999 V2000
   50.1838  -18.1132   -7.1425 C   0  0  0  0  0  0  0  0  0  0  0  0
   48.9470  -17.3186   -7.1104 C   0  0  0  0  0  0  0  0  0  0  0  0
   50.6333  -18.7118   -5.8729 C   0  0  0  0  0  0  0  0  0  0  0  0
   47.5889  -19.3190   -6.3120 C   0  0  0  0  0  0  0  0  0  0  0  0
   48.4953  -20.0757   -5.6746 C   0  0  0  0  0  0  0  0  0  0  0  0
   47.7297  -17.8863   -6.6722 C   0  0  0  0  0  0  0  0  0  0  0  0
   49.8160  -19.6265   -5.1736 C   0  0  0  0  0  0  0  0  0  0  0  0
   50.8414  -18.2859   -8.3047 C   0  0  0  0  0  0  0  0  0  0  0  0
   52.8197  -18.0291  -10.5230 N   0  0  0  0  0  0  0  0  0  0  0  0
   52.0536  -19.1728   -8.4477 C   0  0  0  0  0  0  0  0  0  0  0  0
   51.8716  -18.3290   -5.3281 C   0  0  0  0  0  0  0  0  0  0  0  0
   48.9814  -15.9759   -7.5257 C   0  0  0  0  0  0  0  0  0  0  0  0
   52.4733  -19.3343   -9.9155 C   0  0  0  0  0  0  0  0  0  0  0  0
   50.2968  -20.2000   -3.9834 C   0  0  0  0  0  0  0  0  0  0  0  0
   46.5668  -17.0960   -6.6838 C   0  0  0  0  0  0  0  0  0  0  0  0
   52.6342  -18.0813  -11.9820 C   0  0  0  0  0  0  0  0  0  0  0  0
   54.2122  -17.6543  -10.2196 C   0  0  0  0  0  0  0  0  0  0  0  0
   52.3230  -18.8904   -4.1331 C   0  0  0  0  0  0  0  0  0  0  0  0
   47.8209  -15.2014   -7.5108 C   0  0  0  0  0  0  0  0  0  0  0  0
   46.6150  -15.7608   -7.0908 C   0  0  0  0  0  0  0  0  0  0  0  0
   51.5404  -19.8317   -3.4661 C   0  0  0  0  0  0  0  0  0  0  0  0
   46.6271  -19.7788   -6.5102 H   0  0  0  0  0  0  0  0  0  0  0  0
   48.1888  -21.0813   -5.4095 H   0  0  0  0  0  0  0  0  0  0  0  0
   50.4396  -17.8211   -9.1990 H   0  0  0  0  0  0  0  0  0  0  0  0
   51.8143  -20.1796   -8.0415 H   0  0  0  0  0  0  0  0  0  0  0  0
   52.8981  -18.7623   -7.8604 H   0  0  0  0  0  0  0  0  0  0  0  0
   52.4853  -17.5885   -5.8261 H   0  0  0  0  0  0  0  0  0  0  0  0
   49.9109  -15.5278   -7.8562 H   0  0  0  0  0  0  0  0  0  0  0  0
   51.6187  -19.8081  -10.4515 H   0  0  0  0  0  0  0  0  0  0  0  0
   53.3252  -20.0489   -9.9817 H   0  0  0  0  0  0  0  0  0  0  0  0
   49.7002  -20.9265   -3.4448 H   0  0  0  0  0  0  0  0  0  0  0  0
   45.6165  -17.5149   -6.3749 H   0  0  0  0  0  0  0  0  0  0  0  0
   53.2581  -18.8823  -12.4385 H   0  0  0  0  0  0  0  0  0  0  0  0
   52.9016  -17.1052  -12.4414 H   0  0  0  0  0  0  0  0  0  0  0  0
   51.5660  -18.2697  -12.2237 H   0  0  0  0  0  0  0  0  0  0  0  0
   54.4444  -16.6599  -10.6582 H   0  0  0  0  0  0  0  0  0  0  0  0
   54.9309  -18.4017  -10.6243 H   0  0  0  0  0  0  0  0  0  0  0  0
   54.3633  -17.5622   -9.1247 H   0  0  0  0  0  0  0  0  0  0  0  0
   53.2808  -18.5955   -3.7242 H   0  0  0  0  0  0  0  0  0  0  0  0
   47.8559  -14.1675   -7.8291 H   0  0  0  0  0  0  0  0  0  0  0  0
   45.7136  -15.1616   -7.0873 H   0  0  0  0  0  0  0  0  0  0  0  0
   51.8941  -20.2719   -2.5427 H   0  0  0  0  0  0  0  0  0  0  0  0
  2  1  1  0
  3  1  1  0
  4  6  1  0
  5  7  1  0
  6  2  2  0
  7  3  2  0
  8  1  2  3
  9 13  1  0
 10  8  1  0
 11  3  1  0
 12  2  1  0
 13 10  1  0
 14  7  1  0
 15  6  1  0
 16  9  1  0
 17  9  1  0
 18 11  2  0
 19 12  2  0
 20 19  1  0
 21 18  1  0
  5  4  2  0
 21 14  2  0
 20 15  2  0
  4 22  1  0
  5 23  1  0
  8 24  1  0
 10 25  1  0
 10 26  1  0
 11 27  1  0
 12 28  1  0
 13 29  1  0
 13 30  1  0
 14 31  1  0
 15 32  1  0
 16 33  1  0
 16 34  1  0
 16 35  1  0
 17 36  1  0
 17 37  1  0
 17 38  1  0
 18 39  1  0
 19 40  1  0
 20 41  1  0
 21 42  1  0
M  END
> <Uni-Dock RESULT> 
ENERGY=   -4.934  LOWER_BOUND=    2.159  UPPER_BOUND=    4.697
INTER + INTRA:          -4.934
INTER:                  -4.934
INTRA:                   0.000
UNBOUND:                 0.000

$$$$

     RDKit          3D

 42 44  0  0  0  0  0  0  0  0999 V2000
   48.6356  -17.5313   -7.8309 C   0  0  0  0  0  0  0  0  0  0  0  0
   47.9260  -18.4365   -6.9149 C   0  0  0  0  0  0  0  0  0  0  0  0
   49.6113  -16.6001   -7.2366 C   0  0  0  0  0  0  0  0  0  0  0  0
   50.1093  -19.4967   -6.1450 C   0  0  0  0  0  0  0  0  0  0  0  0
   51.0134  -18.5249   -6.3423 C   0  0  0  0  0  0  0  0  0  0  0  0
   48.6354  -19.3342   -6.0860 C   0  0  0  0  0  0  0  0  0  0  0  0
   50.7252  -17.0813   -6.5146 C   0  0  0  0  0  0  0  0  0  0  0  0
   48.3969  -17.5923   -9.1546 C   0  0  0  0  0  0  0  0  0  0  0  0
   47.3713  -17.0040  -11.8937 N   0  0  0  0  0  0  0  0  0  0  0  0
   49.1572  -16.7788  -10.1728 C   0  0  0  0  0  0  0  0  0  0  0  0
   49.4023  -15.2143   -7.3497 C   0  0  0  0  0  0  0  0  0  0  0  0
   46.5211  -18.4063   -6.8695 C   0  0  0  0  0  0  0  0  0  0  0  0
   48.8120  -17.1949  -11.6096 C   0  0  0  0  0  0  0  0  0  0  0  0
   51.6501  -16.1600   -5.9926 C   0  0  0  0  0  0  0  0  0  0  0  0
   47.9137  -20.1997   -5.2452 C   0  0  0  0  0  0  0  0  0  0  0  0
   46.9402  -17.9107  -12.9698 C   0  0  0  0  0  0  0  0  0  0  0  0
   47.0861  -15.6117  -12.2831 C   0  0  0  0  0  0  0  0  0  0  0  0
   50.3181  -14.3137   -6.8048 C   0  0  0  0  0  0  0  0  0  0  0  0
   45.8231  -19.2589   -6.0136 C   0  0  0  0  0  0  0  0  0  0  0  0
   46.5184  -20.1548   -5.2028 C   0  0  0  0  0  0  0  0  0  0  0  0
   51.4456  -14.7860   -6.1347 C   0  0  0  0  0  0  0  0  0  0  0  0
   50.4995  -20.4844   -5.9260 H   0  0  0  0  0  0  0  0  0  0  0  0
   52.0568  -18.8087   -6.2635 H   0  0  0  0  0  0  0  0  0  0  0  0
   47.6709  -18.3135   -9.5154 H   0  0  0  0  0  0  0  0  0  0  0  0
   50.2471  -16.9340  -10.0180 H   0  0  0  0  0  0  0  0  0  0  0  0
   48.9454  -15.7005  -10.0346 H   0  0  0  0  0  0  0  0  0  0  0  0
   48.5242  -14.8308   -7.8545 H   0  0  0  0  0  0  0  0  0  0  0  0
   45.9671  -17.7164   -7.4949 H   0  0  0  0  0  0  0  0  0  0  0  0
   49.1006  -18.2656  -11.7201 H   0  0  0  0  0  0  0  0  0  0  0  0
   49.4438  -16.6201  -12.3245 H   0  0  0  0  0  0  0  0  0  0  0  0
   52.5281  -16.5062   -5.4605 H   0  0  0  0  0  0  0  0  0  0  0  0
   48.4335  -20.9136   -4.6174 H   0  0  0  0  0  0  0  0  0  0  0  0
   47.5291  -17.7410  -13.8990 H   0  0  0  0  0  0  0  0  0  0  0  0
   45.8609  -17.7635  -13.1907 H   0  0  0  0  0  0  0  0  0  0  0  0
   47.0625  -18.9677  -12.6491 H   0  0  0  0  0  0  0  0  0  0  0  0
   45.9973  -15.4809  -12.4634 H   0  0  0  0  0  0  0  0  0  0  0  0
   47.6395  -15.3269  -13.2058 H   0  0  0  0  0  0  0  0  0  0  0  0
   47.3595  -14.9128  -11.4664 H   0  0  0  0  0  0  0  0  0  0  0  0
   50.1534  -13.2484   -6.9026 H   0  0  0  0  0  0  0  0  0  0  0  0
   44.7416  -19.2276   -5.9820 H   0  0  0  0  0  0  0  0  0  0  0  0
   45.9756  -20.8215   -4.5451 H   0  0  0  0  0  0  0  0  0  0  0  0
   52.1592  -14.0869   -5.7181 H   0  0  0  0  0  0  0  0  0  0  0  0
  2  1  1  0
  3  1  1  0
  4  6  1  0
  5  7  1  0
  6  2  2  0
  7  3  2  0
  8  1  2  3
  9 13  1  0
 10  8  1  0
 11  3  1  0
 12  2  1  0
 13 10  1  0
 14  7  1  0
 15  6  1  0
 16  9  1  0
 17  9  1  0
 18 11  2  0
 19 12  2  0
 20 19  1  0
 21 18  1  0
  5  4  2  0
 21 14  2  0
 20 15  2  0
  4 22  1  0
  5 23  1  0
  8 24  1  0
 10 25  1  0
 10 26  1  0
 11 27  1  0
 12 28  1  0
 13 29  1  0
 13 30  1  0
 14 31  1  0
 15 32  1  0
 16 33  1  0
 16 34  1  0
 16 35  1  0
 17 36  1  0
 17 37  1  0
 17 38  1  0
 18 39  1  0
 19 40  1  0
 20 41  1  0
 21 42  1  0
M  END
> <Uni-Dock RESULT> 
ENERGY=   -4.905  LOWER_BOUND=    2.207  UPPER_BOUND=    4.874
INTER + INTRA:          -4.905
INTER:                  -4.905
INTRA:                   0.000
UNBOUND:                 0.000

$$$$

     RDKit          3D

 42 44  0  0  0  0  0  0  0  0999 V2000
   49.4550  -17.7374   -7.2817 C   0  0  0  0  0  0  0  0  0  0  0  0
   48.2388  -18.3360   -6.7121 C   0  0  0  0  0  0  0  0  0  0  0  0
   49.4190  -17.3654   -8.7074 C   0  0  0  0  0  0  0  0  0  0  0  0
   46.8667  -16.2618   -7.2588 C   0  0  0  0  0  0  0  0  0  0  0  0
   47.5128  -15.7291   -8.3074 C   0  0  0  0  0  0  0  0  0  0  0  0
   47.0055  -17.6475   -6.7459 C   0  0  0  0  0  0  0  0  0  0  0  0
   48.4800  -16.4267   -9.1877 C   0  0  0  0  0  0  0  0  0  0  0  0
   50.5316  -17.5306   -6.5000 C   0  0  0  0  0  0  0  0  0  0  0  0
   53.1930  -17.8200   -5.1834 N   0  0  0  0  0  0  0  0  0  0  0  0
   51.7778  -16.8248   -6.9746 C   0  0  0  0  0  0  0  0  0  0  0  0
   50.2996  -17.9905   -9.6078 C   0  0  0  0  0  0  0  0  0  0  0  0
   48.3104  -19.6109   -6.1238 C   0  0  0  0  0  0  0  0  0  0  0  0
   52.7568  -16.5576   -5.8227 C   0  0  0  0  0  0  0  0  0  0  0  0
   48.5015  -16.0747  -10.5488 C   0  0  0  0  0  0  0  0  0  0  0  0
   45.8745  -18.2478   -6.1652 C   0  0  0  0  0  0  0  0  0  0  0  0
   53.6055  -17.5704   -3.7929 C   0  0  0  0  0  0  0  0  0  0  0  0
   54.3109  -18.4320   -5.9233 C   0  0  0  0  0  0  0  0  0  0  0  0
   50.2913  -17.6465  -10.9600 C   0  0  0  0  0  0  0  0  0  0  0  0
   47.1725  -20.1991   -5.5707 C   0  0  0  0  0  0  0  0  0  0  0  0
   45.9562  -19.5183   -5.5909 C   0  0  0  0  0  0  0  0  0  0  0  0
   49.3993  -16.6830  -11.4284 C   0  0  0  0  0  0  0  0  0  0  0  0
   46.1088  -15.6432   -6.7915 H   0  0  0  0  0  0  0  0  0  0  0  0
   47.2208  -14.7269   -8.6001 H   0  0  0  0  0  0  0  0  0  0  0  0
   50.4753  -17.8222   -5.4564 H   0  0  0  0  0  0  0  0  0  0  0  0
   51.4915  -15.8479   -7.4215 H   0  0  0  0  0  0  0  0  0  0  0  0
   52.2792  -17.4230   -7.7603 H   0  0  0  0  0  0  0  0  0  0  0  0
   50.9889  -18.7512   -9.2628 H   0  0  0  0  0  0  0  0  0  0  0  0
   49.2492  -20.1514   -6.0993 H   0  0  0  0  0  0  0  0  0  0  0  0
   52.2318  -15.9018   -5.0905 H   0  0  0  0  0  0  0  0  0  0  0  0
   53.6275  -15.9760   -6.2027 H   0  0  0  0  0  0  0  0  0  0  0  0
   47.8105  -15.3349  -10.9348 H   0  0  0  0  0  0  0  0  0  0  0  0
   44.9226  -17.7302   -6.1573 H   0  0  0  0  0  0  0  0  0  0  0  0
   54.4302  -16.8242   -3.7456 H   0  0  0  0  0  0  0  0  0  0  0  0
   53.9414  -18.5152   -3.3133 H   0  0  0  0  0  0  0  0  0  0  0  0
   52.7424  -17.1972   -3.2007 H   0  0  0  0  0  0  0  0  0  0  0  0
   54.6047  -19.3919   -5.4463 H   0  0  0  0  0  0  0  0  0  0  0  0
   55.1968  -17.7587   -5.9501 H   0  0  0  0  0  0  0  0  0  0  0  0
   54.0074  -18.6731   -6.9625 H   0  0  0  0  0  0  0  0  0  0  0  0
   50.9775  -18.1274  -11.6451 H   0  0  0  0  0  0  0  0  0  0  0  0
   47.2350  -21.1822   -5.1222 H   0  0  0  0  0  0  0  0  0  0  0  0
   45.0757  -19.9719   -5.1543 H   0  0  0  0  0  0  0  0  0  0  0  0
   49.3979  -16.4118  -12.4763 H   0  0  0  0  0  0  0  0  0  0  0  0
  2  1  1  0
  3  1  1  0
  4  6  1  0
  5  7  1  0
  6  2  2  0
  7  3  2  0
  8  1  2  3
  9 13  1  0
 10  8  1  0
 11  3  1  0
 12  2  1  0
 13 10  1  0
 14  7  1  0
 15  6  1  0
 16  9  1  0
 17  9  1  0
 18 11  2  0
 19 12  2  0
 20 19  1  0
 21 18  1  0
  5  4  2  0
 21 14  2  0
 20 15  2  0
  4 22  1  0
  5 23  1  0
  8 24  1  0
 10 25  1  0
 10 26  1  0
 11 27  1  0
 12 28  1  0
 13 29  1  0
 13 30  1  0
 14 31  1  0
 15 32  1  0
 16 33  1  0
 16 34  1  0
 16 35  1  0
 17 36  1  0
 17 37  1  0
 17 38  1  0
 18 39  1  0
 19 40  1  0
 20 41  1  0
 21 42  1  0
M  END
> <Uni-Dock RESULT> 
ENERGY=   -4.835  LOWER_BOUND=    2.125  UPPER_BOUND=    5.193
INTER + INTRA:          -4.835
INTER:                  -4.835
INTRA:                   0.000
UNBOUND:                 0.000

$$$$

     RDKit          3D

 42 44  0  0  0  0  0  0  0  0999 V2000
   50.2318  -17.4809   -7.9342 C   0  0  0  0  0  0  0  0  0  0  0  0
   48.8588  -17.0588   -7.6198 C   0  0  0  0  0  0  0  0  0  0  0  0
   51.1453  -17.7028   -6.7991 C   0  0  0  0  0  0  0  0  0  0  0  0
   48.4294  -19.1803   -6.2787 C   0  0  0  0  0  0  0  0  0  0  0  0
   49.6539  -19.5387   -5.8633 C   0  0  0  0  0  0  0  0  0  0  0  0
   48.0260  -17.8494   -6.7967 C   0  0  0  0  0  0  0  0  0  0  0  0
   50.8518  -18.6673   -5.8106 C   0  0  0  0  0  0  0  0  0  0  0  0
   50.5998  -17.6699   -9.2155 C   0  0  0  0  0  0  0  0  0  0  0  0
   51.7844  -17.2795  -11.9256 N   0  0  0  0  0  0  0  0  0  0  0  0
   51.9511  -18.2055   -9.6199 C   0  0  0  0  0  0  0  0  0  0  0  0
   52.2990  -16.9089   -6.6745 C   0  0  0  0  0  0  0  0  0  0  0  0
   48.3719  -15.8516   -8.1510 C   0  0  0  0  0  0  0  0  0  0  0  0
   52.0212  -18.5021  -11.1245 C   0  0  0  0  0  0  0  0  0  0  0  0
   51.7664  -18.8708   -4.7624 C   0  0  0  0  0  0  0  0  0  0  0  0
   46.7113  -17.4189   -6.5448 C   0  0  0  0  0  0  0  0  0  0  0  0
   51.2675  -17.6352  -13.2568 C   0  0  0  0  0  0  0  0  0  0  0  0
   53.0222  -16.4938  -12.0751 C   0  0  0  0  0  0  0  0  0  0  0  0
   53.1842  -17.1081   -5.6145 C   0  0  0  0  0  0  0  0  0  0  0  0
   47.0709  -15.4309   -7.8732 C   0  0  0  0  0  0  0  0  0  0  0  0
   46.2415  -16.2137   -7.0715 C   0  0  0  0  0  0  0  0  0  0  0  0
   52.9228  -18.0942   -4.6643 C   0  0  0  0  0  0  0  0  0  0  0  0
   47.6394  -19.9110   -6.1459 H   0  0  0  0  0  0  0  0  0  0  0  0
   49.7494  -20.5270   -5.4278 H   0  0  0  0  0  0  0  0  0  0  0  0
   49.8648  -17.4960   -9.9946 H   0  0  0  0  0  0  0  0  0  0  0  0
   52.1439  -19.1520   -9.0694 H   0  0  0  0  0  0  0  0  0  0  0  0
   52.7453  -17.4849   -9.3435 H   0  0  0  0  0  0  0  0  0  0  0  0
   52.5095  -16.1290   -7.3960 H   0  0  0  0  0  0  0  0  0  0  0  0
   49.0044  -15.2334   -8.7770 H   0  0  0  0  0  0  0  0  0  0  0  0
   51.2500  -19.2763  -11.3432 H   0  0  0  0  0  0  0  0  0  0  0  0
   53.0076  -18.9588  -11.3674 H   0  0  0  0  0  0  0  0  0  0  0  0
   51.5775  -19.6257   -4.0087 H   0  0  0  0  0  0  0  0  0  0  0  0
   46.0454  -18.0189   -5.9362 H   0  0  0  0  0  0  0  0  0  0  0  0
   51.9743  -18.3041  -13.7974 H   0  0  0  0  0  0  0  0  0  0  0  0
   51.0968  -16.7195  -13.8632 H   0  0  0  0  0  0  0  0  0  0  0  0
   50.2851  -18.1457  -13.1600 H   0  0  0  0  0  0  0  0  0  0  0  0
   52.8187  -15.5667  -12.6532 H   0  0  0  0  0  0  0  0  0  0  0  0
   53.8124  -17.0771  -12.5987 H   0  0  0  0  0  0  0  0  0  0  0  0
   53.4048  -16.1735  -11.0845 H   0  0  0  0  0  0  0  0  0  0  0  0
   54.0738  -16.4974   -5.5300 H   0  0  0  0  0  0  0  0  0  0  0  0
   46.7042  -14.4988   -8.2833 H   0  0  0  0  0  0  0  0  0  0  0  0
   45.2297  -15.8905   -6.8631 H   0  0  0  0  0  0  0  0  0  0  0  0
   53.6132  -18.2528   -3.8460 H   0  0  0  0  0  0  0  0  0  0  0  0
  2  1  1  0
  3  1  1  0
  4  6  1  0
  5  7  1  0
  6  2  2  0
  7  3  2  0
  8  1  2  3
  9 13  1  0
 10  8  1  0
 11  3  1  0
 12  2  1  0
 13 10  1  0
 14  7  1  0
 15  6  1  0
 16  9  1  0
 17  9  1  0
 18 11  2  0
 19 12  2  0
 20 19  1  0
 21 18  1  0
  5  4  2  0
 21 14  2  0
 20 15  2  0
  4 22  1  0
  5 23  1  0
  8 24  1  0
 10 25  1  0
 10 26  1  0
 11 27  1  0
 12 28  1  0
 13 29  1  0
 13 30  1  0
 14 31  1  0
 15 32  1  0
 16 33  1  0
 16 34  1  0
 16 35  1  0
 17 36  1  0
 17 37  1  0
 17 38  1  0
 18 39  1  0
 19 40  1  0
 20 41  1  0
 21 42  1  0
M  END
> <Uni-Dock RESULT> 
ENERGY=   -4.752  LOWER_BOUND=    1.471  UPPER_BOUND=    4.653
INTER + INTRA:          -4.752
INTER:                  -4.752
INTRA:                   0.000
UNBOUND:                 0.000

$$$$

     RDKit          3D

 42 44  0  0  0  0  0  0  0  0999 V2000
   47.1191  -16.5928   -9.8505 C   0  0  0  0  0  0  0  0  0  0  0  0
   48.4347  -16.7690   -9.2178 C   0  0  0  0  0  0  0  0  0  0  0  0
   46.0186  -17.4449   -9.3657 C   0  0  0  0  0  0  0  0  0  0  0  0
   47.5058  -16.1461   -6.9302 C   0  0  0  0  0  0  0  0  0  0  0  0
   46.2097  -16.4822   -7.0189 C   0  0  0  0  0  0  0  0  0  0  0  0
   48.5997  -16.5991   -7.8249 C   0  0  0  0  0  0  0  0  0  0  0  0
   45.6082  -17.3999   -8.0154 C   0  0  0  0  0  0  0  0  0  0  0  0
   46.9556  -15.6667  -10.8141 C   0  0  0  0  0  0  0  0  0  0  0  0
   46.6517  -14.3441  -13.4709 N   0  0  0  0  0  0  0  0  0  0  0  0
   45.6198  -15.3458  -11.4379 C   0  0  0  0  0  0  0  0  0  0  0  0
   45.4030  -18.3488  -10.2493 C   0  0  0  0  0  0  0  0  0  0  0  0
   49.5414  -17.1084  -10.0155 C   0  0  0  0  0  0  0  0  0  0  0  0
   45.6992  -14.1206  -12.3594 C   0  0  0  0  0  0  0  0  0  0  0  0
   44.5321  -18.2046   -7.6017 C   0  0  0  0  0  0  0  0  0  0  0  0
   49.8815  -16.7516   -7.2676 C   0  0  0  0  0  0  0  0  0  0  0  0
   47.1687  -13.0576  -13.9647 C   0  0  0  0  0  0  0  0  0  0  0  0
   46.0124  -15.0731  -14.5806 C   0  0  0  0  0  0  0  0  0  0  0  0
   44.3519  -19.1576   -9.8159 C   0  0  0  0  0  0  0  0  0  0  0  0
   50.8020  -17.2756   -9.4412 C   0  0  0  0  0  0  0  0  0  0  0  0
   50.9720  -17.0969   -8.0691 C   0  0  0  0  0  0  0  0  0  0  0  0
   43.9109  -19.0791   -8.4957 C   0  0  0  0  0  0  0  0  0  0  0  0
   47.7942  -15.5503   -6.0715 H   0  0  0  0  0  0  0  0  0  0  0  0
   45.5614  -16.1321   -6.2236 H   0  0  0  0  0  0  0  0  0  0  0  0
   47.8134  -15.0708  -11.1080 H   0  0  0  0  0  0  0  0  0  0  0  0
   44.8875  -15.1270  -10.6305 H   0  0  0  0  0  0  0  0  0  0  0  0
   45.2454  -16.2186  -12.0076 H   0  0  0  0  0  0  0  0  0  0  0  0
   45.7429  -18.4325  -11.2742 H   0  0  0  0  0  0  0  0  0  0  0  0
   49.4250  -17.2489  -11.0835 H   0  0  0  0  0  0  0  0  0  0  0  0
   46.0168  -13.2568  -11.7312 H   0  0  0  0  0  0  0  0  0  0  0  0
   44.6819  -13.8777  -12.7427 H   0  0  0  0  0  0  0  0  0  0  0  0
   44.1800  -18.1654   -6.5779 H   0  0  0  0  0  0  0  0  0  0  0  0
   50.0386  -16.6034   -6.2059 H   0  0  0  0  0  0  0  0  0  0  0  0
   46.3415  -12.3974  -14.3097 H   0  0  0  0  0  0  0  0  0  0  0  0
   47.8777  -13.2222  -14.8047 H   0  0  0  0  0  0  0  0  0  0  0  0
   47.7357  -12.5410  -13.1606 H   0  0  0  0  0  0  0  0  0  0  0  0
   46.7496  -15.2571  -15.3917 H   0  0  0  0  0  0  0  0  0  0  0  0
   45.1532  -14.5028  -14.9992 H   0  0  0  0  0  0  0  0  0  0  0  0
   45.6569  -16.0678  -14.2423 H   0  0  0  0  0  0  0  0  0  0  0  0
   43.8787  -19.8456  -10.5045 H   0  0  0  0  0  0  0  0  0  0  0  0
   51.6487  -17.5398  -10.0615 H   0  0  0  0  0  0  0  0  0  0  0  0
   51.9519  -17.2189   -7.6256 H   0  0  0  0  0  0  0  0  0  0  0  0
   43.0910  -19.7019   -8.1619 H   0  0  0  0  0  0  0  0  0  0  0  0
  2  1  1  0
  3  1  1  0
  4  6  1  0
  5  7  1  0
  6  2  2  0
  7  3  2  0
  8  1  2  3
  9 13  1  0
 10  8  1  0
 11  3  1  0
 12  2  1  0
 13 10  1  0
 14  7  1  0
 15  6  1  0
 16  9  1  0
 17  9  1  0
 18 11  2  0
 19 12  2  0
 20 19  1  0
 21 18  1  0
  5  4  2  0
 21 14  2  0
 20 15  2  0
  4 22  1  0
  5 23  1  0
  8 24  1  0
 10 25  1  0
 10 26  1  0
 11 27  1  0
 12 28  1  0
 13 29  1  0
 13 30  1  0
 14 31  1  0
 15 32  1  0
 16 33  1  0
 16 34  1  0
 16 35  1  0
 17 36  1  0
 17 37  1  0
 17 38  1  0
 18 39  1  0
 19 40  1  0
 20 41  1  0
 21 42  1  0
M  END
> <Uni-Dock RESULT> 
ENERGY=   -4.205  LOWER_BOUND=    3.514  UPPER_BOUND=    4.733
INTER + INTRA:          -4.205
INTER:                  -4.205
INTRA:                   0.000
UNBOUND:                 0.000

$$$$

     RDKit          3D

 42 44  0  0  0  0  0  0  0  0999 V2000
   46.9053  -16.8100  -10.8484 C   0  0  0  0  0  0  0  0  0  0  0  0
   45.6968  -16.5110  -11.6309 C   0  0  0  0  0  0  0  0  0  0  0  0
   46.8185  -16.6480   -9.3860 C   0  0  0  0  0  0  0  0  0  0  0  0
   44.3687  -18.3119  -10.4158 C   0  0  0  0  0  0  0  0  0  0  0  0
   44.9847  -18.4038   -9.2272 C   0  0  0  0  0  0  0  0  0  0  0  0
   44.4858  -17.1970  -11.3882 C   0  0  0  0  0  0  0  0  0  0  0  0
   45.8896  -17.3941   -8.6283 C   0  0  0  0  0  0  0  0  0  0  0  0
   48.0212  -17.2339  -11.4713 C   0  0  0  0  0  0  0  0  0  0  0  0
   50.7274  -17.3147  -12.7245 N   0  0  0  0  0  0  0  0  0  0  0  0
   49.2672  -17.6656  -10.7380 C   0  0  0  0  0  0  0  0  0  0  0  0
   47.6385  -15.7027   -8.7451 C   0  0  0  0  0  0  0  0  0  0  0  0
   45.7538  -15.5295  -12.6358 C   0  0  0  0  0  0  0  0  0  0  0  0
   50.3038  -18.2829  -11.6872 C   0  0  0  0  0  0  0  0  0  0  0  0
   45.8625  -17.2340   -7.2318 C   0  0  0  0  0  0  0  0  0  0  0  0
   43.3628  -16.8965  -12.1792 C   0  0  0  0  0  0  0  0  0  0  0  0
   51.2082  -18.0267  -13.9194 C   0  0  0  0  0  0  0  0  0  0  0  0
   51.7917  -16.4282  -12.2214 C   0  0  0  0  0  0  0  0  0  0  0  0
   47.5817  -15.5396   -7.3605 C   0  0  0  0  0  0  0  0  0  0  0  0
   44.6231  -15.2306  -13.3969 C   0  0  0  0  0  0  0  0  0  0  0  0
   43.4293  -15.9136  -13.1692 C   0  0  0  0  0  0  0  0  0  0  0  0
   46.7010  -16.3109   -6.6035 C   0  0  0  0  0  0  0  0  0  0  0  0
   43.6520  -19.0905  -10.6516 H   0  0  0  0  0  0  0  0  0  0  0  0
   44.7120  -19.2468   -8.6025 H   0  0  0  0  0  0  0  0  0  0  0  0
   48.0015  -17.3383  -12.5511 H   0  0  0  0  0  0  0  0  0  0  0  0
   48.9927  -18.4296   -9.9783 H   0  0  0  0  0  0  0  0  0  0  0  0
   49.7143  -16.8036  -10.2055 H   0  0  0  0  0  0  0  0  0  0  0  0
   48.3178  -15.0855   -9.3199 H   0  0  0  0  0  0  0  0  0  0  0  0
   46.6750  -14.9915  -12.8253 H   0  0  0  0  0  0  0  0  0  0  0  0
   49.8325  -19.1805  -12.1499 H   0  0  0  0  0  0  0  0  0  0  0  0
   51.1749  -18.6496  -11.0979 H   0  0  0  0  0  0  0  0  0  0  0  0
   45.1790  -17.8170   -6.6262 H   0  0  0  0  0  0  0  0  0  0  0  0
   42.4292  -17.4252  -12.0286 H   0  0  0  0  0  0  0  0  0  0  0  0
   52.0575  -18.7020  -13.6708 H   0  0  0  0  0  0  0  0  0  0  0  0
   51.5347  -17.3021  -14.6965 H   0  0  0  0  0  0  0  0  0  0  0  0
   50.3842  -18.6260  -14.3631 H   0  0  0  0  0  0  0  0  0  0  0  0
   52.0755  -15.6906  -13.0028 H   0  0  0  0  0  0  0  0  0  0  0  0
   52.6964  -17.0063  -11.9281 H   0  0  0  0  0  0  0  0  0  0  0  0
   51.4353  -15.8451  -11.3479 H   0  0  0  0  0  0  0  0  0  0  0  0
   48.2215  -14.8147   -6.8741 H   0  0  0  0  0  0  0  0  0  0  0  0
   44.6740  -14.4716  -14.1668 H   0  0  0  0  0  0  0  0  0  0  0  0
   42.5549  -15.6868  -13.7656 H   0  0  0  0  0  0  0  0  0  0  0  0
   46.6622  -16.1887   -5.5288 H   0  0  0  0  0  0  0  0  0  0  0  0
  2  1  1  0
  3  1  1  0
  4  6  1  0
  5  7  1  0
  6  2  2  0
  7  3  2  0
  8  1  2  3
  9 13  1  0
 10  8  1  0
 11  3  1  0
 12  2  1  0
 13 10  1  0
 14  7  1  0
 15  6  1  0
 16  9  1  0
 17  9  1  0
 18 11  2  0
 19 12  2  0
 20 19  1  0
 21 18  1  0
  5  4  2  0
 21 14  2  0
 20 15  2  0
  4 22  1  0
  5 23  1  0
  8 24  1  0
 10 25  1  0
 10 26  1  0
 11 27  1  0
 12 28  1  0
 13 29  1  0
 13 30  1  0
 14 31  1  0
 15 32  1  0
 16 33  1  0
 16 34  1  0
 16 35  1  0
 17 36  1  0
 17 37  1  0
 17 38  1  0
 18 39  1  0
 19 40  1  0
 20 41  1  0
 21 42  1  0
M  END
> <Uni-Dock RESULT> 
ENERGY=   -3.959  LOWER_BOUND=    3.550  UPPER_BOUND=    6.368
INTER + INTRA:          -3.959
INTER:                  -3.959
INTRA:                   0.000
UNBOUND:                 0.000

$$$$
