
     RDKit          3D

 42 44  0  0  0  0  0  0  0  0999 V2000
   50.3282  -17.0608   -7.6196 C   0  0  0  0  0  0  0  0  0  0  0  0
   48.8947  -16.9846   -7.2841 C   0  0  0  0  0  0  0  0  0  0  0  0
   51.2772  -16.4955   -6.6493 C   0  0  0  0  0  0  0  0  0  0  0  0
   48.9695  -14.4424   -7.2223 C   0  0  0  0  0  0  0  0  0  0  0  0
   50.2339  -14.1819   -6.8568 C   0  0  0  0  0  0  0  0  0  0  0  0
   48.2640  -15.7381   -7.0785 C   0  0  0  0  0  0  0  0  0  0  0  0
   51.1968  -15.1399   -6.2589 C   0  0  0  0  0  0  0  0  0  0  0  0
   50.7808  -17.5958   -8.7697 C   0  0  0  0  0  0  0  0  0  0  0  0
   49.8487  -18.9234  -12.2650 N   0  0  0  0  0  0  0  0  0  0  0  0
   49.8717  -18.1000   -9.8617 C   0  0  0  0  0  0  0  0  0  0  0  0
   52.2786  -17.3197   -6.1067 C   0  0  0  0  0  0  0  0  0  0  0  0
   48.1573  -18.1711   -7.1260 C   0  0  0  0  0  0  0  0  0  0  0  0
   50.6731  -18.4323  -11.1374 C   0  0  0  0  0  0  0  0  0  0  0  0
   52.1419  -14.6366   -5.3476 C   0  0  0  0  0  0  0  0  0  0  0  0
   46.8868  -15.7082   -6.7975 C   0  0  0  0  0  0  0  0  0  0  0  0
   48.8924  -17.9197  -12.7581 C   0  0  0  0  0  0  0  0  0  0  0  0
   49.1774  -20.1998  -11.9734 C   0  0  0  0  0  0  0  0  0  0  0  0
   53.1951  -16.8071   -5.1879 C   0  0  0  0  0  0  0  0  0  0  0  0
   46.7960  -18.1234   -6.8239 C   0  0  0  0  0  0  0  0  0  0  0  0
   46.1595  -16.8931   -6.6683 C   0  0  0  0  0  0  0  0  0  0  0  0
   53.1271  -15.4670   -4.8092 C   0  0  0  0  0  0  0  0  0  0  0  0
   48.3771  -13.5988   -7.5579 H   0  0  0  0  0  0  0  0  0  0  0  0
   50.5565  -13.1494   -6.9304 H   0  0  0  0  0  0  0  0  0  0  0  0
   51.8507  -17.6037   -8.9505 H   0  0  0  0  0  0  0  0  0  0  0  0
   49.1202  -17.3140  -10.0841 H   0  0  0  0  0  0  0  0  0  0  0  0
   49.3552  -19.0106   -9.4993 H   0  0  0  0  0  0  0  0  0  0  0  0
   52.3446  -18.3627   -6.3924 H   0  0  0  0  0  0  0  0  0  0  0  0
   48.6393  -19.1353   -7.2298 H   0  0  0  0  0  0  0  0  0  0  0  0
   51.2292  -17.5257  -11.4641 H   0  0  0  0  0  0  0  0  0  0  0  0
   51.4439  -19.1970  -10.8940 H   0  0  0  0  0  0  0  0  0  0  0  0
   52.1159  -13.5950   -5.0506 H   0  0  0  0  0  0  0  0  0  0  0  0
   46.3746  -14.7626   -6.6648 H   0  0  0  0  0  0  0  0  0  0  0  0
   48.0390  -17.7882  -12.0582 H   0  0  0  0  0  0  0  0  0  0  0  0
   48.4910  -18.2418  -13.7424 H   0  0  0  0  0  0  0  0  0  0  0  0
   49.3966  -16.9411  -12.9092 H   0  0  0  0  0  0  0  0  0  0  0  0
   48.7883  -20.6387  -12.9168 H   0  0  0  0  0  0  0  0  0  0  0  0
   49.8957  -20.9283  -11.5397 H   0  0  0  0  0  0  0  0  0  0  0  0
   48.3253  -20.0637  -11.2728 H   0  0  0  0  0  0  0  0  0  0  0  0
   53.9613  -17.4486   -4.7721 H   0  0  0  0  0  0  0  0  0  0  0  0
   46.2341  -19.0417   -6.7107 H   0  0  0  0  0  0  0  0  0  0  0  0
   45.1019  -16.8567   -6.4406 H   0  0  0  0  0  0  0  0  0  0  0  0
   53.8436  -15.0683   -4.1025 H   0  0  0  0  0  0  0  0  0  0  0  0
  2  1  1  0
  3  1  1  0
  4  6  1  0
  5  7  1  0
  6  2  2  0
  7  3  2  0
  8  1  2  3
  9 13  1  0
 10  8  1  0
 11  3  1  0
 12  2  1  0
 13 10  1  0
 14  7  1  0
 15  6  1  0
 16  9  1  0
 17  9  1  0
 18 11  2  0
 19 12  2  0
 20 19  1  0
 21 18  1  0
  5  4  2  0
 21 14  2  0
 20 15  2  0
  4 22  1  0
  5 23  1  0
  8 24  1  0
 10 25  1  0
 10 26  1  0
 11 27  1  0
 12 28  1  0
 13 29  1  0
 13 30  1  0
 14 31  1  0
 15 32  1  0
 16 33  1  0
 16 34  1  0
 16 35  1  0
 17 36  1  0
 17 37  1  0
 17 38  1  0
 18 39  1  0
 19 40  1  0
 20 41  1  0
 21 42  1  0
M  END
> <Uni-Dock RESULT> 
ENERGY=   -6.201  LOWER_BOUND=    0.000  UPPER_BOUND=    0.000
INTER + INTRA:          -6.201
INTER:                  -6.201
INTRA:                   0.000
UNBOUND:                 0.000

$$$$

     RDKit          3D

 42 44  0  0  0  0  0  0  0  0999 V2000
   47.5223  -17.2995   -8.0299 C   0  0  0  0  0  0  0  0  0  0  0  0
   48.5337  -16.3246   -7.5827 C   0  0  0  0  0  0  0  0  0  0  0  0
   47.0720  -18.2990   -7.0501 C   0  0  0  0  0  0  0  0  0  0  0  0
   50.2106  -18.1758   -7.1000 C   0  0  0  0  0  0  0  0  0  0  0  0
   49.4306  -19.2223   -6.7890 C   0  0  0  0  0  0  0  0  0  0  0  0
   49.7993  -16.7519   -7.1249 C   0  0  0  0  0  0  0  0  0  0  0  0
   47.9907  -19.1770   -6.4326 C   0  0  0  0  0  0  0  0  0  0  0  0
   47.0303  -17.3172   -9.2834 C   0  0  0  0  0  0  0  0  0  0  0  0
   47.3753  -15.9638  -12.8747 N   0  0  0  0  0  0  0  0  0  0  0  0
   47.5149  -16.3974  -10.3755 C   0  0  0  0  0  0  0  0  0  0  0  0
   45.7057  -18.3794   -6.7284 C   0  0  0  0  0  0  0  0  0  0  0  0
   48.2173  -14.9548   -7.5730 C   0  0  0  0  0  0  0  0  0  0  0  0
   46.9358  -16.8123  -11.7438 C   0  0  0  0  0  0  0  0  0  0  0  0
   47.5108  -20.1339   -5.5210 C   0  0  0  0  0  0  0  0  0  0  0  0
   50.7483  -15.7875   -6.7433 C   0  0  0  0  0  0  0  0  0  0  0  0
   48.8240  -16.0389  -13.1210 C   0  0  0  0  0  0  0  0  0  0  0  0
   46.9278  -14.5674  -12.7538 C   0  0  0  0  0  0  0  0  0  0  0  0
   45.2511  -19.3223   -5.8058 C   0  0  0  0  0  0  0  0  0  0  0  0
   49.1637  -14.0126   -7.1687 C   0  0  0  0  0  0  0  0  0  0  0  0
   50.4308  -14.4279   -6.7624 C   0  0  0  0  0  0  0  0  0  0  0  0
   46.1525  -20.1988   -5.2032 C   0  0  0  0  0  0  0  0  0  0  0  0
   51.2651  -18.3818   -7.2448 H   0  0  0  0  0  0  0  0  0  0  0  0
   49.9213  -20.1860   -6.7113 H   0  0  0  0  0  0  0  0  0  0  0  0
   46.2972  -18.0747   -9.5405 H   0  0  0  0  0  0  0  0  0  0  0  0
   48.6235  -16.4432  -10.4071 H   0  0  0  0  0  0  0  0  0  0  0  0
   47.1961  -15.3642  -10.1346 H   0  0  0  0  0  0  0  0  0  0  0  0
   44.9934  -17.7057   -7.1894 H   0  0  0  0  0  0  0  0  0  0  0  0
   47.2332  -14.6163   -7.8723 H   0  0  0  0  0  0  0  0  0  0  0  0
   47.2177  -17.8681  -11.9531 H   0  0  0  0  0  0  0  0  0  0  0  0
   45.8246  -16.7939  -11.6894 H   0  0  0  0  0  0  0  0  0  0  0  0
   48.1919  -20.8338   -5.0520 H   0  0  0  0  0  0  0  0  0  0  0  0
   51.7362  -16.0896   -6.4165 H   0  0  0  0  0  0  0  0  0  0  0  0
   49.4002  -15.4850  -12.3486 H   0  0  0  0  0  0  0  0  0  0  0  0
   49.0551  -15.5970  -14.1136 H   0  0  0  0  0  0  0  0  0  0  0  0
   49.1623  -17.0971  -13.1418 H   0  0  0  0  0  0  0  0  0  0  0  0
   47.0632  -14.0485  -13.7266 H   0  0  0  0  0  0  0  0  0  0  0  0
   45.8463  -14.5246  -12.5023 H   0  0  0  0  0  0  0  0  0  0  0  0
   47.5062  -14.0176  -11.9801 H   0  0  0  0  0  0  0  0  0  0  0  0
   44.1982  -19.3760   -5.5608 H   0  0  0  0  0  0  0  0  0  0  0  0
   48.9141  -12.9594   -7.1709 H   0  0  0  0  0  0  0  0  0  0  0  0
   51.1668  -13.6960   -6.4553 H   0  0  0  0  0  0  0  0  0  0  0  0
   45.7976  -20.9352   -4.4937 H   0  0  0  0  0  0  0  0  0  0  0  0
  2  1  1  0
  3  1  1  0
  4  6  1  0
  5  7  1  0
  6  2  2  0
  7  3  2  0
  8  1  2  3
  9 13  1  0
 10  8  1  0
 11  3  1  0
 12  2  1  0
 13 10  1  0
 14  7  1  0
 15  6  1  0
 16  9  1  0
 17  9  1  0
 18 11  2  0
 19 12  2  0
 20 19  1  0
 21 18  1  0
  5  4  2  0
 21 14  2  0
 20 15  2  0
  4 22  1  0
  5 23  1  0
  8 24  1  0
 10 25  1  0
 10 26  1  0
 11 27  1  0
 12 28  1  0
 13 29  1  0
 13 30  1  0
 14 31  1  0
 15 32  1  0
 16 33  1  0
 16 34  1  0
 16 35  1  0
 17 36  1  0
 17 37  1  0
 17 38  1  0
 18 39  1  0
 19 40  1  0
 20 41  1  0
 21 42  1  0
M  END
> <Uni-Dock RESULT> 
ENERGY=   -5.138  LOWER_BOUND=    2.176  UPPER_BOUND=    4.917
INTER + INTRA:          -5.138
INTER:                  -5.138
INTRA:                   0.000
UNBOUND:                 0.000

$$$$

     RDKit          3D

 42 44  0  0  0  0  0  0  0  0999 V2000
   50.2127  -17.3708   -7.7603 C   0  0  0  0  0  0  0  0  0  0  0  0
   51.0850  -17.7364   -6.6295 C   0  0  0  0  0  0  0  0  0  0  0  0
   48.8296  -16.9840   -7.4454 C   0  0  0  0  0  0  0  0  0  0  0  0
   49.5591  -19.6661   -5.9816 C   0  0  0  0  0  0  0  0  0  0  0  0
   48.3507  -19.2525   -6.3926 C   0  0  0  0  0  0  0  0  0  0  0  0
   50.7558  -18.8150   -5.7797 C   0  0  0  0  0  0  0  0  0  0  0  0
   47.9671  -17.8657   -6.7562 C   0  0  0  0  0  0  0  0  0  0  0  0
   50.6267  -17.4042   -9.0414 C   0  0  0  0  0  0  0  0  0  0  0  0
   53.3949  -18.5153  -11.4808 N   0  0  0  0  0  0  0  0  0  0  0  0
   51.9924  -17.8892   -9.4572 C   0  0  0  0  0  0  0  0  0  0  0  0
   48.3630  -15.7179   -7.8401 C   0  0  0  0  0  0  0  0  0  0  0  0
   52.2373  -16.9739   -6.3701 C   0  0  0  0  0  0  0  0  0  0  0  0
   52.0848  -18.0297  -10.9907 C   0  0  0  0  0  0  0  0  0  0  0  0
   46.6448  -17.4628   -6.4996 C   0  0  0  0  0  0  0  0  0  0  0  0
   51.6342  -19.1541   -4.7358 C   0  0  0  0  0  0  0  0  0  0  0  0
   53.7077  -19.8805  -11.0299 C   0  0  0  0  0  0  0  0  0  0  0  0
   54.4994  -17.5901  -11.1822 C   0  0  0  0  0  0  0  0  0  0  0  0
   47.0532  -15.3279   -7.5584 C   0  0  0  0  0  0  0  0  0  0  0  0
   53.0860  -17.3104   -5.3150 C   0  0  0  0  0  0  0  0  0  0  0  0
   52.7893  -18.4046   -4.5040 C   0  0  0  0  0  0  0  0  0  0  0  0
   46.1950  -16.1995   -6.8894 C   0  0  0  0  0  0  0  0  0  0  0  0
   49.6379  -20.7011   -5.6688 H   0  0  0  0  0  0  0  0  0  0  0  0
   47.5558  -19.9897   -6.3791 H   0  0  0  0  0  0  0  0  0  0  0  0
   49.9212  -17.1330   -9.8201 H   0  0  0  0  0  0  0  0  0  0  0  0
   52.1766  -18.8733   -8.9779 H   0  0  0  0  0  0  0  0  0  0  0  0
   52.7487  -17.1608   -9.1043 H   0  0  0  0  0  0  0  0  0  0  0  0
   49.0179  -15.0303   -8.3618 H   0  0  0  0  0  0  0  0  0  0  0  0
   52.4751  -16.1125   -6.9818 H   0  0  0  0  0  0  0  0  0  0  0  0
   51.2883  -18.7230  -11.3412 H   0  0  0  0  0  0  0  0  0  0  0  0
   51.8664  -17.0448  -11.4602 H   0  0  0  0  0  0  0  0  0  0  0  0
   45.9571  -18.1298   -5.9937 H   0  0  0  0  0  0  0  0  0  0  0  0
   51.4180  -19.9959   -4.0888 H   0  0  0  0  0  0  0  0  0  0  0  0
   53.9871  -19.9028   -9.9543 H   0  0  0  0  0  0  0  0  0  0  0  0
   54.5589  -20.2806  -11.6207 H   0  0  0  0  0  0  0  0  0  0  0  0
   52.8409  -20.5553  -11.1974 H   0  0  0  0  0  0  0  0  0  0  0  0
   55.3926  -17.8732  -11.7789 H   0  0  0  0  0  0  0  0  0  0  0  0
   54.2259  -16.5512  -11.4663 H   0  0  0  0  0  0  0  0  0  0  0  0
   54.7750  -17.6153  -10.1057 H   0  0  0  0  0  0  0  0  0  0  0  0
   46.7021  -14.3503   -7.8627 H   0  0  0  0  0  0  0  0  0  0  0  0
   53.9749  -16.7222   -5.1265 H   0  0  0  0  0  0  0  0  0  0  0  0
   53.4517  -18.6693   -3.6898 H   0  0  0  0  0  0  0  0  0  0  0  0
   45.1767  -15.8991   -6.6785 H   0  0  0  0  0  0  0  0  0  0  0  0
  2  1  1  0
  3  1  1  0
  4  6  1  0
  5  7  1  0
  6  2  2  0
  7  3  2  0
  8  1  2  3
  9 13  1  0
 10  8  1  0
 11  3  1  0
 12  2  1  0
 13 10  1  0
 14  7  1  0
 15  6  1  0
 16  9  1  0
 17  9  1  0
 18 11  2  0
 19 12  2  0
 20 19  1  0
 21 18  1  0
  5  4  2  0
 21 14  2  0
 20 15  2  0
  4 22  1  0
  5 23  1  0
  8 24  1  0
 10 25  1  0
 10 26  1  0
 11 27  1  0
 12 28  1  0
 13 29  1  0
 13 30  1  0
 14 31  1  0
 15 32  1  0
 16 33  1  0
 16 34  1  0
 16 35  1  0
 17 36  1  0
 17 37  1  0
 17 38  1  0
 18 39  1  0
 19 40  1  0
 20 41  1  0
 21 42  1  0
M  END
> <Uni-Dock RESULT> 
ENERGY=   -5.045  LOWER_BOUND=    1.867  UPPER_BOUND=    4.893
INTER + INTRA:          -5.045
INTER:                  -5.045
INTRA:                   0.000
UNBOUND:                 0.000

$$$$

     RDKit          3D

 42 44  0  0  0  0  0  0  0  0999 V2000
   51.2867  -17.9435   -6.7193 C   0  0  0  0  0  0  0  0  0  0  0  0
   50.6950  -16.5999   -6.8523 C   0  0  0  0  0  0  0  0  0  0  0  0
   51.4704  -18.4659   -5.3573 C   0  0  0  0  0  0  0  0  0  0  0  0
   52.6138  -15.5466   -5.5560 C   0  0  0  0  0  0  0  0  0  0  0  0
   53.0099  -16.5342   -4.7386 C   0  0  0  0  0  0  0  0  0  0  0  0
   51.3225  -15.4719   -6.2800 C   0  0  0  0  0  0  0  0  0  0  0  0
   52.2526  -17.7675   -4.4102 C   0  0  0  0  0  0  0  0  0  0  0  0
   51.6772  -18.6769   -7.7793 C   0  0  0  0  0  0  0  0  0  0  0  0
   52.3507  -18.7096  -11.5731 N   0  0  0  0  0  0  0  0  0  0  0  0
   51.6216  -18.1734   -9.1993 C   0  0  0  0  0  0  0  0  0  0  0  0
   50.8584  -19.6795   -4.9980 C   0  0  0  0  0  0  0  0  0  0  0  0
   49.4683  -16.4476   -7.5222 C   0  0  0  0  0  0  0  0  0  0  0  0
   52.3489  -19.1402  -10.1565 C   0  0  0  0  0  0  0  0  0  0  0  0
   52.4214  -18.3183   -3.1276 C   0  0  0  0  0  0  0  0  0  0  0  0
   50.7446  -14.2034   -6.4626 C   0  0  0  0  0  0  0  0  0  0  0  0
   53.0854  -17.4536  -11.7916 C   0  0  0  0  0  0  0  0  0  0  0  0
   51.0013  -18.6451  -12.1562 C   0  0  0  0  0  0  0  0  0  0  0  0
   51.0208  -20.2000   -3.7136 C   0  0  0  0  0  0  0  0  0  0  0  0
   48.8969  -15.1837   -7.6739 C   0  0  0  0  0  0  0  0  0  0  0  0
   49.5387  -14.0617   -7.1522 C   0  0  0  0  0  0  0  0  0  0  0  0
   51.8018  -19.5205   -2.7797 C   0  0  0  0  0  0  0  0  0  0  0  0
   53.2545  -14.6737   -5.6093 H   0  0  0  0  0  0  0  0  0  0  0  0
   53.9388  -16.3760   -4.2023 H   0  0  0  0  0  0  0  0  0  0  0  0
   52.1166  -19.6526   -7.5993 H   0  0  0  0  0  0  0  0  0  0  0  0
   52.1035  -17.1741   -9.2369 H   0  0  0  0  0  0  0  0  0  0  0  0
   50.5595  -18.0811   -9.5003 H   0  0  0  0  0  0  0  0  0  0  0  0
   50.2496  -20.2193   -5.7133 H   0  0  0  0  0  0  0  0  0  0  0  0
   48.9497  -17.3103   -7.9214 H   0  0  0  0  0  0  0  0  0  0  0  0
   53.4006  -19.2668   -9.8159 H   0  0  0  0  0  0  0  0  0  0  0  0
   51.8776  -20.1457  -10.0855 H   0  0  0  0  0  0  0  0  0  0  0  0
   53.0355  -17.8140   -2.3912 H   0  0  0  0  0  0  0  0  0  0  0  0
   51.2231  -13.3194   -6.0580 H   0  0  0  0  0  0  0  0  0  0  0  0
   52.5152  -16.5752  -11.4192 H   0  0  0  0  0  0  0  0  0  0  0  0
   53.2699  -17.3158  -12.8782 H   0  0  0  0  0  0  0  0  0  0  0  0
   54.0756  -17.4879  -11.2885 H   0  0  0  0  0  0  0  0  0  0  0  0
   51.0778  -18.5662  -13.2616 H   0  0  0  0  0  0  0  0  0  0  0  0
   50.4328  -19.5722  -11.9280 H   0  0  0  0  0  0  0  0  0  0  0  0
   50.4346  -17.7657  -11.7807 H   0  0  0  0  0  0  0  0  0  0  0  0
   50.5438  -21.1333   -3.4434 H   0  0  0  0  0  0  0  0  0  0  0  0
   47.9556  -15.0745   -8.1971 H   0  0  0  0  0  0  0  0  0  0  0  0
   49.0984  -13.0807   -7.2761 H   0  0  0  0  0  0  0  0  0  0  0  0
   51.9338  -19.9293   -1.7861 H   0  0  0  0  0  0  0  0  0  0  0  0
  2  1  1  0
  3  1  1  0
  4  6  1  0
  5  7  1  0
  6  2  2  0
  7  3  2  0
  8  1  2  3
  9 13  1  0
 10  8  1  0
 11  3  1  0
 12  2  1  0
 13 10  1  0
 14  7  1  0
 15  6  1  0
 16  9  1  0
 17  9  1  0
 18 11  2  0
 19 12  2  0
 20 19  1  0
 21 18  1  0
  5  4  2  0
 21 14  2  0
 20 15  2  0
  4 22  1  0
  5 23  1  0
  8 24  1  0
 10 25  1  0
 10 26  1  0
 11 27  1  0
 12 28  1  0
 13 29  1  0
 13 30  1  0
 14 31  1  0
 15 32  1  0
 16 33  1  0
 16 34  1  0
 16 35  1  0
 17 36  1  0
 17 37  1  0
 17 38  1  0
 18 39  1  0
 19 40  1  0
 20 41  1  0
 21 42  1  0
M  END
> <Uni-Dock RESULT> 
ENERGY=   -4.637  LOWER_BOUND=    1.963  UPPER_BOUND=    3.337
INTER + INTRA:          -4.637
INTER:                  -4.637
INTRA:                   0.000
UNBOUND:                 0.000

$$$$

     RDKit          3D

 42 44  0  0  0  0  0  0  0  0999 V2000
   47.1626  -16.5466   -9.8514 C   0  0  0  0  0  0  0  0  0  0  0  0
   46.0398  -17.4088   -9.4400 C   0  0  0  0  0  0  0  0  0  0  0  0
   48.4591  -16.7716   -9.1954 C   0  0  0  0  0  0  0  0  0  0  0  0
   46.1809  -16.5724   -7.0416 C   0  0  0  0  0  0  0  0  0  0  0  0
   47.4778  -16.2580   -6.9025 C   0  0  0  0  0  0  0  0  0  0  0  0
   45.5943  -17.4282   -8.1003 C   0  0  0  0  0  0  0  0  0  0  0  0
   48.5896  -16.6772   -7.7917 C   0  0  0  0  0  0  0  0  0  0  0  0
   47.0333  -15.5681  -10.7677 C   0  0  0  0  0  0  0  0  0  0  0  0
   44.5905  -13.4684  -12.8824 N   0  0  0  0  0  0  0  0  0  0  0  0
   45.7182  -15.2032  -11.4085 C   0  0  0  0  0  0  0  0  0  0  0  0
   49.5825  -17.0829   -9.9813 C   0  0  0  0  0  0  0  0  0  0  0  0
   45.4333  -18.2532  -10.3864 C   0  0  0  0  0  0  0  0  0  0  0  0
   45.8461  -13.9034  -12.2293 C   0  0  0  0  0  0  0  0  0  0  0  0
   49.8546  -16.8751   -7.2106 C   0  0  0  0  0  0  0  0  0  0  0  0
   44.4961  -18.2363   -7.7579 C   0  0  0  0  0  0  0  0  0  0  0  0
   43.5331  -13.1192  -11.9208 C   0  0  0  0  0  0  0  0  0  0  0  0
   44.1019  -14.4275  -13.8856 C   0  0  0  0  0  0  0  0  0  0  0  0
   50.8255  -17.2961   -9.3845 C   0  0  0  0  0  0  0  0  0  0  0  0
   44.3591  -19.0665  -10.0238 C   0  0  0  0  0  0  0  0  0  0  0  0
   43.8854  -19.0517   -8.7129 C   0  0  0  0  0  0  0  0  0  0  0  0
   50.9615  -17.1918   -8.0008 C   0  0  0  0  0  0  0  0  0  0  0  0
   45.5162  -16.2559   -6.2457 H   0  0  0  0  0  0  0  0  0  0  0  0
   47.7505  -15.7118   -6.0065 H   0  0  0  0  0  0  0  0  0  0  0  0
   47.9039  -14.9666  -11.0082 H   0  0  0  0  0  0  0  0  0  0  0  0
   44.9622  -15.0686  -10.6069 H   0  0  0  0  0  0  0  0  0  0  0  0
   45.4063  -16.0332  -12.0726 H   0  0  0  0  0  0  0  0  0  0  0  0
   49.4924  -17.1662  -11.0578 H   0  0  0  0  0  0  0  0  0  0  0  0
   45.7978  -18.2872  -11.4056 H   0  0  0  0  0  0  0  0  0  0  0  0
   46.2094  -13.0879  -11.5652 H   0  0  0  0  0  0  0  0  0  0  0  0
   46.6293  -14.0402  -13.0079 H   0  0  0  0  0  0  0  0  0  0  0  0
   49.9854  -16.7848   -6.1389 H   0  0  0  0  0  0  0  0  0  0  0  0
   44.1174  -18.2456   -6.7427 H   0  0  0  0  0  0  0  0  0  0  0  0
   43.0936  -14.0242  -11.4485 H   0  0  0  0  0  0  0  0  0  0  0  0
   42.7224  -12.5691  -12.4442 H   0  0  0  0  0  0  0  0  0  0  0  0
   43.9312  -12.4492  -11.1287 H   0  0  0  0  0  0  0  0  0  0  0  0
   43.3187  -13.9460  -14.5091 H   0  0  0  0  0  0  0  0  0  0  0  0
   44.9255  -14.7345  -14.5655 H   0  0  0  0  0  0  0  0  0  0  0  0
   43.6639  -15.3310  -13.4090 H   0  0  0  0  0  0  0  0  0  0  0  0
   51.6852  -17.5385   -9.9959 H   0  0  0  0  0  0  0  0  0  0  0  0
   43.8934  -19.7085  -10.7604 H   0  0  0  0  0  0  0  0  0  0  0  0
   43.0476  -19.6777   -8.4338 H   0  0  0  0  0  0  0  0  0  0  0  0
   51.9280  -17.3493   -7.5396 H   0  0  0  0  0  0  0  0  0  0  0  0
  2  1  1  0
  3  1  1  0
  4  6  1  0
  5  7  1  0
  6  2  2  0
  7  3  2  0
  8  1  2  3
  9 13  1  0
 10  8  1  0
 11  3  1  0
 12  2  1  0
 13 10  1  0
 14  7  1  0
 15  6  1  0
 16  9  1  0
 17  9  1  0
 18 11  2  0
 19 12  2  0
 20 19  1  0
 21 18  1  0
  5  4  2  0
 21 14  2  0
 20 15  2  0
  4 22  1  0
  5 23  1  0
  8 24  1  0
 10 25  1  0
 10 26  1  0
 11 27  1  0
 12 28  1  0
 13 29  1  0
 13 30  1  0
 14 31  1  0
 15 32  1  0
 16 33  1  0
 16 34  1  0
 16 35  1  0
 17 36  1  0
 17 37  1  0
 17 38  1  0
 18 39  1  0
 19 40  1  0
 20 41  1  0
 21 42  1  0
M  END
> <Uni-Dock RESULT> 
ENERGY=   -4.225  LOWER_BOUND=    3.616  UPPER_BOUND=    4.866
INTER + INTRA:          -4.225
INTER:                  -4.225
INTRA:                   0.000
UNBOUND:                 0.000

$$$$

     RDKit          3D

 42 44  0  0  0  0  0  0  0  0999 V2000
   46.4255  -16.1779  -10.7772 C   0  0  0  0  0  0  0  0  0  0  0  0
   46.7427  -15.3681  -11.9676 C   0  0  0  0  0  0  0  0  0  0  0  0
   47.3098  -16.0351   -9.6113 C   0  0  0  0  0  0  0  0  0  0  0  0
   49.0162  -16.4833  -12.2106 C   0  0  0  0  0  0  0  0  0  0  0  0
   49.3313  -16.8148  -10.9492 C   0  0  0  0  0  0  0  0  0  0  0  0
   47.9825  -15.5067  -12.6289 C   0  0  0  0  0  0  0  0  0  0  0  0
   48.6948  -16.2956   -9.7132 C   0  0  0  0  0  0  0  0  0  0  0  0
   45.3922  -17.0406  -10.7360 C   0  0  0  0  0  0  0  0  0  0  0  0
   42.6691  -18.8694  -12.7579 N   0  0  0  0  0  0  0  0  0  0  0  0
   44.5032  -17.3241  -11.9203 C   0  0  0  0  0  0  0  0  0  0  0  0
   46.7637  -15.6353   -8.3790 C   0  0  0  0  0  0  0  0  0  0  0  0
   45.8142  -14.4161  -12.4239 C   0  0  0  0  0  0  0  0  0  0  0  0
   43.5684  -18.5177  -11.6355 C   0  0  0  0  0  0  0  0  0  0  0  0
   49.4973  -16.1708   -8.5654 C   0  0  0  0  0  0  0  0  0  0  0  0
   48.2298  -14.7425  -13.7826 C   0  0  0  0  0  0  0  0  0  0  0  0
   43.3937  -19.3279  -13.9536 C   0  0  0  0  0  0  0  0  0  0  0  0
   41.7181  -17.7971  -13.0906 C   0  0  0  0  0  0  0  0  0  0  0  0
   47.5798  -15.4971   -7.2558 C   0  0  0  0  0  0  0  0  0  0  0  0
   46.0859  -13.6492  -13.5574 C   0  0  0  0  0  0  0  0  0  0  0  0
   47.2888  -13.8183  -14.2411 C   0  0  0  0  0  0  0  0  0  0  0  0
   48.9449  -15.7650   -7.3487 C   0  0  0  0  0  0  0  0  0  0  0  0
   49.6477  -16.8904  -12.9921 H   0  0  0  0  0  0  0  0  0  0  0  0
   50.1898  -17.4639  -10.8189 H   0  0  0  0  0  0  0  0  0  0  0  0
   45.2309  -17.6112   -9.8272 H   0  0  0  0  0  0  0  0  0  0  0  0
   45.1464  -17.5511  -12.7960 H   0  0  0  0  0  0  0  0  0  0  0  0
   43.8984  -16.4205  -12.1325 H   0  0  0  0  0  0  0  0  0  0  0  0
   45.7046  -15.4248   -8.2912 H   0  0  0  0  0  0  0  0  0  0  0  0
   44.8810  -14.2623  -11.8965 H   0  0  0  0  0  0  0  0  0  0  0  0
   44.1834  -19.4069  -11.3728 H   0  0  0  0  0  0  0  0  0  0  0  0
   42.9524  -18.2912  -10.7369 H   0  0  0  0  0  0  0  0  0  0  0  0
   50.5578  -16.3877   -8.6121 H   0  0  0  0  0  0  0  0  0  0  0  0
   49.1618  -14.8528  -14.3241 H   0  0  0  0  0  0  0  0  0  0  0  0
   43.8892  -18.4842  -14.4811 H   0  0  0  0  0  0  0  0  0  0  0  0
   42.6820  -19.8103  -14.6568 H   0  0  0  0  0  0  0  0  0  0  0  0
   44.1569  -20.0879  -13.6802 H   0  0  0  0  0  0  0  0  0  0  0  0
   40.9210  -18.1995  -13.7513 H   0  0  0  0  0  0  0  0  0  0  0  0
   41.2254  -17.4134  -12.1715 H   0  0  0  0  0  0  0  0  0  0  0  0
   42.2178  -16.9555  -13.6173 H   0  0  0  0  0  0  0  0  0  0  0  0
   47.1527  -15.1859   -6.3112 H   0  0  0  0  0  0  0  0  0  0  0  0
   45.3625  -12.9234  -13.9061 H   0  0  0  0  0  0  0  0  0  0  0  0
   47.4961  -13.2279  -15.1244 H   0  0  0  0  0  0  0  0  0  0  0  0
   49.5758  -15.6654   -6.4748 H   0  0  0  0  0  0  0  0  0  0  0  0
  2  1  1  0
  3  1  1  0
  4  6  1  0
  5  7  1  0
  6  2  2  0
  7  3  2  0
  8  1  2  3
  9 13  1  0
 10  8  1  0
 11  3  1  0
 12  2  1  0
 13 10  1  0
 14  7  1  0
 15  6  1  0
 16  9  1  0
 17  9  1  0
 18 11  2  0
 19 12  2  0
 20 19  1  0
 21 18  1  0
  5  4  2  0
 21 14  2  0
 20 15  2  0
  4 22  1  0
  5 23  1  0
  8 24  1  0
 10 25  1  0
 10 26  1  0
 11 27  1  0
 12 28  1  0
 13 29  1  0
 13 30  1  0
 14 31  1  0
 15 32  1  0
 16 33  1  0
 16 34  1  0
 16 35  1  0
 17 36  1  0
 17 37  1  0
 17 38  1  0
 18 39  1  0
 19 40  1  0
 20 41  1  0
 21 42  1  0
M  END
> <Uni-Dock RESULT> 
ENERGY=   -4.202  LOWER_BOUND=    4.031  UPPER_BOUND=    6.181
INTER + INTRA:          -4.202
INTER:                  -4.202
INTRA:                   0.000
UNBOUND:                 0.000

$$$$

     RDKit          3D

 42 44  0  0  0  0  0  0  0  0999 V2000
   43.4295  -11.9977  -12.2439 C   0  0  0  0  0  0  0  0  0  0  0  0
   43.4515  -13.4674  -12.3569 C   0  0  0  0  0  0  0  0  0  0  0  0
   42.3769  -11.4030  -11.4071 C   0  0  0  0  0  0  0  0  0  0  0  0
   41.1260  -13.4958  -13.3881 C   0  0  0  0  0  0  0  0  0  0  0  0
   40.5433  -12.4089  -12.8597 C   0  0  0  0  0  0  0  0  0  0  0  0
   42.3457  -14.1703  -12.8832 C   0  0  0  0  0  0  0  0  0  0  0  0
   41.0109  -11.6403  -11.6795 C   0  0  0  0  0  0  0  0  0  0  0  0
   44.3061  -11.2034  -12.8876 C   0  0  0  0  0  0  0  0  0  0  0  0
   47.0664  -10.9983  -15.5685 N   0  0  0  0  0  0  0  0  0  0  0  0
   45.3467  -11.7253  -13.8456 C   0  0  0  0  0  0  0  0  0  0  0  0
   42.7405  -10.5853  -10.3228 C   0  0  0  0  0  0  0  0  0  0  0  0
   44.5722  -14.1799  -11.8954 C   0  0  0  0  0  0  0  0  0  0  0  0
   46.0366  -10.5673  -14.5958 C   0  0  0  0  0  0  0  0  0  0  0  0
   40.0387  -11.0296  -10.8678 C   0  0  0  0  0  0  0  0  0  0  0  0
   42.4226  -15.5683  -13.0087 C   0  0  0  0  0  0  0  0  0  0  0  0
   46.5141  -11.7936  -16.6764 C   0  0  0  0  0  0  0  0  0  0  0  0
   48.2034  -11.6851  -14.9356 C   0  0  0  0  0  0  0  0  0  0  0  0
   41.7614  -10.0045   -9.5160 C   0  0  0  0  0  0  0  0  0  0  0  0
   44.6220  -15.5699  -12.0062 C   0  0  0  0  0  0  0  0  0  0  0  0
   43.5519  -16.2627  -12.5701 C   0  0  0  0  0  0  0  0  0  0  0  0
   40.4121  -10.2259   -9.7885 C   0  0  0  0  0  0  0  0  0  0  0  0
   40.5963  -13.9865  -14.1967 H   0  0  0  0  0  0  0  0  0  0  0  0
   39.5926  -12.1122  -13.2883 H   0  0  0  0  0  0  0  0  0  0  0  0
   44.2173  -10.1289  -12.7644 H   0  0  0  0  0  0  0  0  0  0  0  0
   44.8481  -12.3999  -14.5726 H   0  0  0  0  0  0  0  0  0  0  0  0
   46.1012  -12.2976  -13.2706 H   0  0  0  0  0  0  0  0  0  0  0  0
   43.7849  -10.4032  -10.0995 H   0  0  0  0  0  0  0  0  0  0  0  0
   45.4061  -13.6585  -11.4421 H   0  0  0  0  0  0  0  0  0  0  0  0
   45.2650   -9.9679  -15.1282 H   0  0  0  0  0  0  0  0  0  0  0  0
   46.5044   -9.8813  -13.8551 H   0  0  0  0  0  0  0  0  0  0  0  0
   38.9847  -11.1769  -11.0704 H   0  0  0  0  0  0  0  0  0  0  0  0
   41.5985  -16.1266  -13.4367 H   0  0  0  0  0  0  0  0  0  0  0  0
   46.2467  -12.8216  -16.3493 H   0  0  0  0  0  0  0  0  0  0  0  0
   47.2668  -11.8699  -17.4897 H   0  0  0  0  0  0  0  0  0  0  0  0
   45.6147  -11.2988  -17.1018 H   0  0  0  0  0  0  0  0  0  0  0  0
   49.0427  -11.7582  -15.6596 H   0  0  0  0  0  0  0  0  0  0  0  0
   48.5697  -11.1076  -14.0598 H   0  0  0  0  0  0  0  0  0  0  0  0
   47.9314  -12.7123  -14.6097 H   0  0  0  0  0  0  0  0  0  0  0  0
   42.0492   -9.3787   -8.6811 H   0  0  0  0  0  0  0  0  0  0  0  0
   45.4916  -16.1101  -11.6547 H   0  0  0  0  0  0  0  0  0  0  0  0
   43.5940  -17.3404  -12.6621 H   0  0  0  0  0  0  0  0  0  0  0  0
   39.6533   -9.7683   -9.1669 H   0  0  0  0  0  0  0  0  0  0  0  0
  2  1  1  0
  3  1  1  0
  4  6  1  0
  5  7  1  0
  6  2  2  0
  7  3  2  0
  8  1  2  3
  9 13  1  0
 10  8  1  0
 11  3  1  0
 12  2  1  0
 13 10  1  0
 14  7  1  0
 15  6  1  0
 16  9  1  0
 17  9  1  0
 18 11  2  0
 19 12  2  0
 20 19  1  0
 21 18  1  0
  5  4  2  0
 21 14  2  0
 20 15  2  0
  4 22  1  0
  5 23  1  0
  8 24  1  0
 10 25  1  0
 10 26  1  0
 11 27  1  0
 12 28  1  0
 13 29  1  0
 13 30  1  0
 14 31  1  0
 15 32  1  0
 16 33  1  0
 16 34  1  0
 16 35  1  0
 17 36  1  0
 17 37  1  0
 17 38  1  0
 18 39  1  0
 19 40  1  0
 20 41  1  0
 21 42  1  0
M  END
> <Uni-Dock RESULT> 
ENERGY=   -4.160  LOWER_BOUND=    7.735  UPPER_BOUND=   10.185
INTER + INTRA:          -4.160
INTER:                  -4.160
INTRA:                   0.000
UNBOUND:                 0.000

$$$$
