
     RDKit          3D

 42 44  0  0  0  0  0  0  0  0999 V2000
   50.2819  -17.2408   -7.4709 C   0  0  0  0  0  0  0  0  0  0  0  0
   48.8464  -17.1366   -7.1703 C   0  0  0  0  0  0  0  0  0  0  0  0
   51.2156  -16.5822   -6.5394 C   0  0  0  0  0  0  0  0  0  0  0  0
   48.9185  -14.5955   -7.3190 C   0  0  0  0  0  0  0  0  0  0  0  0
   50.1905  -14.3018   -7.0088 C   0  0  0  0  0  0  0  0  0  0  0  0
   48.2173  -15.8767   -7.0551 C   0  0  0  0  0  0  0  0  0  0  0  0
   51.1512  -15.1901   -6.3124 C   0  0  0  0  0  0  0  0  0  0  0  0
   50.6923  -17.8959   -8.5736 C   0  0  0  0  0  0  0  0  0  0  0  0
   53.6457  -18.6579  -10.9286 N   0  0  0  0  0  0  0  0  0  0  0  0
   52.1341  -17.9590   -9.0101 C   0  0  0  0  0  0  0  0  0  0  0  0
   52.1543  -17.3583   -5.8371 C   0  0  0  0  0  0  0  0  0  0  0  0
   48.0931  -18.3110   -6.9978 C   0  0  0  0  0  0  0  0  0  0  0  0
   52.2577  -18.5722  -10.4202 C   0  0  0  0  0  0  0  0  0  0  0  0
   52.0848  -14.5961   -5.4450 C   0  0  0  0  0  0  0  0  0  0  0  0
   46.8371  -15.8263   -6.7921 C   0  0  0  0  0  0  0  0  0  0  0  0
   54.2729  -17.3398  -11.1129 C   0  0  0  0  0  0  0  0  0  0  0  0
   54.4992  -19.5455  -10.1234 C   0  0  0  0  0  0  0  0  0  0  0  0
   53.0584  -16.7552   -4.9621 C   0  0  0  0  0  0  0  0  0  0  0  0
   46.7281  -18.2405   -6.7170 C   0  0  0  0  0  0  0  0  0  0  0  0
   46.1008  -16.9996   -6.6148 C   0  0  0  0  0  0  0  0  0  0  0  0
   53.0293  -15.3744   -4.7728 C   0  0  0  0  0  0  0  0  0  0  0  0
   48.3211  -13.7890   -7.7288 H   0  0  0  0  0  0  0  0  0  0  0  0
   50.5122  -13.2828   -7.1919 H   0  0  0  0  0  0  0  0  0  0  0  0
   49.9428  -18.3440   -9.2179 H   0  0  0  0  0  0  0  0  0  0  0  0
   52.6962  -18.5793   -8.2844 H   0  0  0  0  0  0  0  0  0  0  0  0
   52.5463  -16.9284   -9.0110 H   0  0  0  0  0  0  0  0  0  0  0  0
   52.1814  -18.4337   -5.9621 H   0  0  0  0  0  0  0  0  0  0  0  0
   48.5664  -19.2824   -7.0757 H   0  0  0  0  0  0  0  0  0  0  0  0
   51.8120  -19.5918  -10.4140 H   0  0  0  0  0  0  0  0  0  0  0  0
   51.6481  -17.9726  -11.1323 H   0  0  0  0  0  0  0  0  0  0  0  0
   52.0740  -13.5257   -5.2777 H   0  0  0  0  0  0  0  0  0  0  0  0
   46.3269  -14.8729   -6.7227 H   0  0  0  0  0  0  0  0  0  0  0  0
   55.1948  -17.4495  -11.7226 H   0  0  0  0  0  0  0  0  0  0  0  0
   53.5909  -16.6560  -11.6627 H   0  0  0  0  0  0  0  0  0  0  0  0
   54.5494  -16.8779  -10.1405 H   0  0  0  0  0  0  0  0  0  0  0  0
   54.7727  -19.0800   -9.1517 H   0  0  0  0  0  0  0  0  0  0  0  0
   55.4341  -19.7675  -10.6807 H   0  0  0  0  0  0  0  0  0  0  0  0
   53.9873  -20.5136   -9.9348 H   0  0  0  0  0  0  0  0  0  0  0  0
   53.7825  -17.3591   -4.4306 H   0  0  0  0  0  0  0  0  0  0  0  0
   46.1554  -19.1490   -6.5825 H   0  0  0  0  0  0  0  0  0  0  0  0
   45.0403  -16.9461   -6.4048 H   0  0  0  0  0  0  0  0  0  0  0  0
   53.7353  -14.9062   -4.0990 H   0  0  0  0  0  0  0  0  0  0  0  0
  2  1  1  0
  3  1  1  0
  4  6  1  0
  5  7  1  0
  6  2  2  0
  7  3  2  0
  8  1  2  3
  9 13  1  0
 10  8  1  0
 11  3  1  0
 12  2  1  0
 13 10  1  0
 14  7  1  0
 15  6  1  0
 16  9  1  0
 17  9  1  0
 18 11  2  0
 19 12  2  0
 20 19  1  0
 21 18  1  0
  5  4  2  0
 21 14  2  0
 20 15  2  0
  4 22  1  0
  5 23  1  0
  8 24  1  0
 10 25  1  0
 10 26  1  0
 11 27  1  0
 12 28  1  0
 13 29  1  0
 13 30  1  0
 14 31  1  0
 15 32  1  0
 16 33  1  0
 16 34  1  0
 16 35  1  0
 17 36  1  0
 17 37  1  0
 17 38  1  0
 18 39  1  0
 19 40  1  0
 20 41  1  0
 21 42  1  0
M  END
> <Uni-Dock RESULT> 
ENERGY=   -6.432  LOWER_BOUND=    0.000  UPPER_BOUND=    0.000
INTER + INTRA:          -6.432
INTER:                  -6.432
INTRA:                   0.000
UNBOUND:                 0.000

$$$$

     RDKit          3D

 42 44  0  0  0  0  0  0  0  0999 V2000
   50.2803  -17.2409   -7.4716 C   0  0  0  0  0  0  0  0  0  0  0  0
   48.8449  -17.1365   -7.1707 C   0  0  0  0  0  0  0  0  0  0  0  0
   51.2144  -16.5829   -6.5402 C   0  0  0  0  0  0  0  0  0  0  0  0
   48.9176  -14.5954   -7.3185 C   0  0  0  0  0  0  0  0  0  0  0  0
   50.1898  -14.3021   -7.0086 C   0  0  0  0  0  0  0  0  0  0  0  0
   48.2162  -15.8764   -7.0549 C   0  0  0  0  0  0  0  0  0  0  0  0
   51.1505  -15.1909   -6.3128 C   0  0  0  0  0  0  0  0  0  0  0  0
   50.6902  -17.8958   -8.5747 C   0  0  0  0  0  0  0  0  0  0  0  0
   53.6428  -18.6578  -10.9307 N   0  0  0  0  0  0  0  0  0  0  0  0
   52.1319  -17.9592   -9.0116 C   0  0  0  0  0  0  0  0  0  0  0  0
   52.1531  -17.3595   -5.8384 C   0  0  0  0  0  0  0  0  0  0  0  0
   48.0913  -18.3108   -6.9984 C   0  0  0  0  0  0  0  0  0  0  0  0
   52.2549  -18.5719  -10.4219 C   0  0  0  0  0  0  0  0  0  0  0  0
   52.0844  -14.5974   -5.4454 C   0  0  0  0  0  0  0  0  0  0  0  0
   46.8360  -15.8258   -6.7915 C   0  0  0  0  0  0  0  0  0  0  0  0
   54.2703  -17.3398  -11.1148 C   0  0  0  0  0  0  0  0  0  0  0  0
   54.4963  -19.5458  -10.1260 C   0  0  0  0  0  0  0  0  0  0  0  0
   53.0575  -16.7568   -4.9635 C   0  0  0  0  0  0  0  0  0  0  0  0
   46.7264  -18.2400   -6.7171 C   0  0  0  0  0  0  0  0  0  0  0  0
   46.0995  -16.9990   -6.6143 C   0  0  0  0  0  0  0  0  0  0  0  0
   53.0289  -15.3762   -4.7737 C   0  0  0  0  0  0  0  0  0  0  0  0
   48.3203  -13.7886   -7.7279 H   0  0  0  0  0  0  0  0  0  0  0  0
   50.5117  -13.2831   -7.1914 H   0  0  0  0  0  0  0  0  0  0  0  0
   49.9404  -18.3435   -9.2190 H   0  0  0  0  0  0  0  0  0  0  0  0
   52.6940  -18.5798   -8.2862 H   0  0  0  0  0  0  0  0  0  0  0  0
   52.5443  -16.9287   -9.0123 H   0  0  0  0  0  0  0  0  0  0  0  0
   52.1799  -18.4348   -5.9638 H   0  0  0  0  0  0  0  0  0  0  0  0
   48.5644  -19.2823   -7.0766 H   0  0  0  0  0  0  0  0  0  0  0  0
   51.8090  -19.5913  -10.4159 H   0  0  0  0  0  0  0  0  0  0  0  0
   51.6453  -17.9720  -11.1337 H   0  0  0  0  0  0  0  0  0  0  0  0
   52.0739  -13.5270   -5.2777 H   0  0  0  0  0  0  0  0  0  0  0  0
   46.3261  -14.8723   -6.7216 H   0  0  0  0  0  0  0  0  0  0  0  0
   55.1920  -17.4496  -11.7248 H   0  0  0  0  0  0  0  0  0  0  0  0
   53.5883  -16.6557  -11.6641 H   0  0  0  0  0  0  0  0  0  0  0  0
   54.5471  -16.8783  -10.1423 H   0  0  0  0  0  0  0  0  0  0  0  0
   54.7702  -19.0807   -9.1543 H   0  0  0  0  0  0  0  0  0  0  0  0
   55.4310  -19.7679  -10.6836 H   0  0  0  0  0  0  0  0  0  0  0  0
   53.9842  -20.5139   -9.9376 H   0  0  0  0  0  0  0  0  0  0  0  0
   53.7817  -17.3612   -4.4324 H   0  0  0  0  0  0  0  0  0  0  0  0
   46.1536  -19.1484   -6.5827 H   0  0  0  0  0  0  0  0  0  0  0  0
   45.0390  -16.9453   -6.4041 H   0  0  0  0  0  0  0  0  0  0  0  0
   53.7352  -14.9083   -4.0999 H   0  0  0  0  0  0  0  0  0  0  0  0
  2  1  1  0
  3  1  1  0
  4  6  1  0
  5  7  1  0
  6  2  2  0
  7  3  2  0
  8  1  2  3
  9 13  1  0
 10  8  1  0
 11  3  1  0
 12  2  1  0
 13 10  1  0
 14  7  1  0
 15  6  1  0
 16  9  1  0
 17  9  1  0
 18 11  2  0
 19 12  2  0
 20 19  1  0
 21 18  1  0
  5  4  2  0
 21 14  2  0
 20 15  2  0
  4 22  1  0
  5 23  1  0
  8 24  1  0
 10 25  1  0
 10 26  1  0
 11 27  1  0
 12 28  1  0
 13 29  1  0
 13 30  1  0
 14 31  1  0
 15 32  1  0
 16 33  1  0
 16 34  1  0
 16 35  1  0
 17 36  1  0
 17 37  1  0
 17 38  1  0
 18 39  1  0
 19 40  1  0
 20 41  1  0
 21 42  1  0
M  END
> <Uni-Dock RESULT> 
ENERGY=   -6.425  LOWER_BOUND=    0.002  UPPER_BOUND=    0.002
INTER + INTRA:          -6.425
INTER:                  -6.425
INTRA:                   0.000
UNBOUND:                 0.000

$$$$

     RDKit          3D

 42 44  0  0  0  0  0  0  0  0999 V2000
   49.3979  -17.8950   -7.4707 C   0  0  0  0  0  0  0  0  0  0  0  0
   48.2385  -18.4725   -6.7751 C   0  0  0  0  0  0  0  0  0  0  0  0
   49.7418  -16.4953   -7.1611 C   0  0  0  0  0  0  0  0  0  0  0  0
   46.6735  -16.7243   -7.7647 C   0  0  0  0  0  0  0  0  0  0  0  0
   47.4819  -15.6786   -7.9959 C   0  0  0  0  0  0  0  0  0  0  0  0
   46.9584  -17.8841   -6.8837 C   0  0  0  0  0  0  0  0  0  0  0  0
   48.8184  -15.4533   -7.3959 C   0  0  0  0  0  0  0  0  0  0  0  0
   50.0806  -18.6328   -8.3669 C   0  0  0  0  0  0  0  0  0  0  0  0
   52.7354  -18.6228  -11.1599 N   0  0  0  0  0  0  0  0  0  0  0  0
   51.2127  -18.0853   -9.1986 C   0  0  0  0  0  0  0  0  0  0  0  0
   50.9903  -16.2010   -6.5854 C   0  0  0  0  0  0  0  0  0  0  0  0
   48.4112  -19.6282   -5.9934 C   0  0  0  0  0  0  0  0  0  0  0  0
   51.6337  -19.0920  -10.2890 C   0  0  0  0  0  0  0  0  0  0  0  0
   49.2003  -14.1283   -7.1219 C   0  0  0  0  0  0  0  0  0  0  0  0
   45.8740  -18.4862   -6.2216 C   0  0  0  0  0  0  0  0  0  0  0  0
   52.3736  -17.4413  -11.9586 C   0  0  0  0  0  0  0  0  0  0  0  0
   53.9937  -18.4061  -10.4289 C   0  0  0  0  0  0  0  0  0  0  0  0
   51.3440  -14.8822   -6.2982 C   0  0  0  0  0  0  0  0  0  0  0  0
   47.3265  -20.1996   -5.3271 C   0  0  0  0  0  0  0  0  0  0  0  0
   46.0594  -19.6295   -5.4414 C   0  0  0  0  0  0  0  0  0  0  0  0
   50.4533  -13.8461   -6.5741 C   0  0  0  0  0  0  0  0  0  0  0  0
   45.6821  -16.6760   -8.2007 H   0  0  0  0  0  0  0  0  0  0  0  0
   47.0745  -14.8733   -8.5969 H   0  0  0  0  0  0  0  0  0  0  0  0
   49.7580  -19.6526   -8.5501 H   0  0  0  0  0  0  0  0  0  0  0  0
   52.0729  -17.8780   -8.5320 H   0  0  0  0  0  0  0  0  0  0  0  0
   50.8760  -17.1389   -9.6708 H   0  0  0  0  0  0  0  0  0  0  0  0
   51.6885  -16.9953   -6.3521 H   0  0  0  0  0  0  0  0  0  0  0  0
   49.3896  -20.0832   -5.8962 H   0  0  0  0  0  0  0  0  0  0  0  0
   51.9378  -20.0467   -9.8051 H   0  0  0  0  0  0  0  0  0  0  0  0
   50.7507  -19.3336  -10.9216 H   0  0  0  0  0  0  0  0  0  0  0  0
   48.5197  -13.3091   -7.3213 H   0  0  0  0  0  0  0  0  0  0  0  0
   44.8782  -18.0679   -6.3085 H   0  0  0  0  0  0  0  0  0  0  0  0
   53.1267  -17.2912  -12.7612 H   0  0  0  0  0  0  0  0  0  0  0  0
   51.3886  -17.5894  -12.4512 H   0  0  0  0  0  0  0  0  0  0  0  0
   52.3375  -16.5212  -11.3361 H   0  0  0  0  0  0  0  0  0  0  0  0
   53.9529  -17.4854   -9.8073 H   0  0  0  0  0  0  0  0  0  0  0  0
   54.8304  -18.3033  -11.1522 H   0  0  0  0  0  0  0  0  0  0  0  0
   54.2223  -19.2776   -9.7784 H   0  0  0  0  0  0  0  0  0  0  0  0
   52.3100  -14.6636   -5.8616 H   0  0  0  0  0  0  0  0  0  0  0  0
   47.4680  -21.0876   -4.7247 H   0  0  0  0  0  0  0  0  0  0  0  0
   45.2171  -20.0782   -4.9306 H   0  0  0  0  0  0  0  0  0  0  0  0
   50.7308  -12.8225   -6.3573 H   0  0  0  0  0  0  0  0  0  0  0  0
  2  1  1  0
  3  1  1  0
  4  6  1  0
  5  7  1  0
  6  2  2  0
  7  3  2  0
  8  1  2  3
  9 13  1  0
 10  8  1  0
 11  3  1  0
 12  2  1  0
 13 10  1  0
 14  7  1  0
 15  6  1  0
 16  9  1  0
 17  9  1  0
 18 11  2  0
 19 12  2  0
 20 19  1  0
 21 18  1  0
  5  4  2  0
 21 14  2  0
 20 15  2  0
  4 22  1  0
  5 23  1  0
  8 24  1  0
 10 25  1  0
 10 26  1  0
 11 27  1  0
 12 28  1  0
 13 29  1  0
 13 30  1  0
 14 31  1  0
 15 32  1  0
 16 33  1  0
 16 34  1  0
 16 35  1  0
 17 36  1  0
 17 37  1  0
 17 38  1  0
 18 39  1  0
 19 40  1  0
 20 41  1  0
 21 42  1  0
M  END
> <Uni-Dock RESULT> 
ENERGY=   -5.371  LOWER_BOUND=    1.217  UPPER_BOUND=    2.272
INTER + INTRA:          -5.371
INTER:                  -5.371
INTRA:                   0.000
UNBOUND:                 0.000

$$$$

     RDKit          3D

 42 44  0  0  0  0  0  0  0  0999 V2000
   49.3681  -16.6315   -7.6110 C   0  0  0  0  0  0  0  0  0  0  0  0
   50.5102  -16.2952   -6.7484 C   0  0  0  0  0  0  0  0  0  0  0  0
   48.3200  -17.4945   -7.0367 C   0  0  0  0  0  0  0  0  0  0  0  0
   51.1418  -18.7489   -6.4929 C   0  0  0  0  0  0  0  0  0  0  0  0
   49.9771  -19.3902   -6.6741 C   0  0  0  0  0  0  0  0  0  0  0  0
   51.3190  -17.3079   -6.1853 C   0  0  0  0  0  0  0  0  0  0  0  0
   48.6233  -18.7946   -6.5771 C   0  0  0  0  0  0  0  0  0  0  0  0
   49.3244  -16.1749   -8.8773 C   0  0  0  0  0  0  0  0  0  0  0  0
   47.5866  -16.4197  -12.3079 N   0  0  0  0  0  0  0  0  0  0  0  0
   48.2455  -16.5582   -9.8582 C   0  0  0  0  0  0  0  0  0  0  0  0
   47.0106  -16.9993   -6.9071 C   0  0  0  0  0  0  0  0  0  0  0  0
   50.7985  -14.9447   -6.4847 C   0  0  0  0  0  0  0  0  0  0  0  0
   48.5934  -16.0707  -11.2798 C   0  0  0  0  0  0  0  0  0  0  0  0
   47.5869  -19.5987   -6.0711 C   0  0  0  0  0  0  0  0  0  0  0  0
   52.4160  -16.9382   -5.3874 C   0  0  0  0  0  0  0  0  0  0  0  0
   47.4484  -17.8708  -12.5081 C   0  0  0  0  0  0  0  0  0  0  0  0
   46.2791  -15.7885  -12.0698 C   0  0  0  0  0  0  0  0  0  0  0  0
   45.9988  -17.8031   -6.3809 C   0  0  0  0  0  0  0  0  0  0  0  0
   51.8797  -14.5979   -5.6735 C   0  0  0  0  0  0  0  0  0  0  0  0
   52.6877  -15.5935   -5.1260 C   0  0  0  0  0  0  0  0  0  0  0  0
   46.2848  -19.1044   -5.9713 C   0  0  0  0  0  0  0  0  0  0  0  0
   52.0366  -19.3608   -6.4904 H   0  0  0  0  0  0  0  0  0  0  0  0
   50.0294  -20.4658   -6.8002 H   0  0  0  0  0  0  0  0  0  0  0  0
   50.1412  -15.5546   -9.2319 H   0  0  0  0  0  0  0  0  0  0  0  0
   47.2914  -16.0999   -9.5311 H   0  0  0  0  0  0  0  0  0  0  0  0
   48.1437  -17.6635   -9.8545 H   0  0  0  0  0  0  0  0  0  0  0  0
   46.7743  -15.9860   -7.2077 H   0  0  0  0  0  0  0  0  0  0  0  0
   50.1804  -14.1601   -6.9042 H   0  0  0  0  0  0  0  0  0  0  0  0
   48.7247  -14.9659  -11.2637 H   0  0  0  0  0  0  0  0  0  0  0  0
   49.5777  -16.4947  -11.5792 H   0  0  0  0  0  0  0  0  0  0  0  0
   47.7896  -20.6102   -5.7397 H   0  0  0  0  0  0  0  0  0  0  0  0
   53.0652  -17.6951   -4.9637 H   0  0  0  0  0  0  0  0  0  0  0  0
   46.8837  -18.0640  -13.4449 H   0  0  0  0  0  0  0  0  0  0  0  0
   48.4465  -18.3467  -12.6181 H   0  0  0  0  0  0  0  0  0  0  0  0
   46.9043  -18.3507  -11.6661 H   0  0  0  0  0  0  0  0  0  0  0  0
   45.7387  -16.2710  -11.2267 H   0  0  0  0  0  0  0  0  0  0  0  0
   45.6527  -15.8761  -12.9829 H   0  0  0  0  0  0  0  0  0  0  0  0
   46.4020  -14.7053  -11.8542 H   0  0  0  0  0  0  0  0  0  0  0  0
   44.9918  -17.4165   -6.2911 H   0  0  0  0  0  0  0  0  0  0  0  0
   52.0934  -13.5562   -5.4725 H   0  0  0  0  0  0  0  0  0  0  0  0
   53.5309  -15.3232   -4.5034 H   0  0  0  0  0  0  0  0  0  0  0  0
   45.4981  -19.7299   -5.5694 H   0  0  0  0  0  0  0  0  0  0  0  0
  2  1  1  0
  3  1  1  0
  4  6  1  0
  5  7  1  0
  6  2  2  0
  7  3  2  0
  8  1  2  3
  9 13  1  0
 10  8  1  0
 11  3  1  0
 12  2  1  0
 13 10  1  0
 14  7  1  0
 15  6  1  0
 16  9  1  0
 17  9  1  0
 18 11  2  0
 19 12  2  0
 20 19  1  0
 21 18  1  0
  5  4  2  0
 21 14  2  0
 20 15  2  0
  4 22  1  0
  5 23  1  0
  8 24  1  0
 10 25  1  0
 10 26  1  0
 11 27  1  0
 12 28  1  0
 13 29  1  0
 13 30  1  0
 14 31  1  0
 15 32  1  0
 16 33  1  0
 16 34  1  0
 16 35  1  0
 17 36  1  0
 17 37  1  0
 17 38  1  0
 18 39  1  0
 19 40  1  0
 20 41  1  0
 21 42  1  0
M  END
> <Uni-Dock RESULT> 
ENERGY=   -5.311  LOWER_BOUND=    2.616  UPPER_BOUND=    5.542
INTER + INTRA:          -5.311
INTER:                  -5.311
INTRA:                   0.000
UNBOUND:                 0.000

$$$$

     RDKit          3D

 42 44  0  0  0  0  0  0  0  0999 V2000
   47.8237  -17.1595   -7.8357 C   0  0  0  0  0  0  0  0  0  0  0  0
   48.8621  -16.2256   -7.3762 C   0  0  0  0  0  0  0  0  0  0  0  0
   47.3958  -18.2093   -6.8934 C   0  0  0  0  0  0  0  0  0  0  0  0
   50.5270  -18.1215   -7.0320 C   0  0  0  0  0  0  0  0  0  0  0  0
   49.7430  -19.1857   -6.8014 C   0  0  0  0  0  0  0  0  0  0  0  0
   50.1262  -16.6946   -6.9537 C   0  0  0  0  0  0  0  0  0  0  0  0
   48.3183  -19.1540   -6.3934 C   0  0  0  0  0  0  0  0  0  0  0  0
   47.3232  -17.0490   -9.0812 C   0  0  0  0  0  0  0  0  0  0  0  0
   45.1842  -18.7016  -11.8275 N   0  0  0  0  0  0  0  0  0  0  0  0
   46.3356  -18.0268   -9.6658 C   0  0  0  0  0  0  0  0  0  0  0  0
   46.0602  -18.2430   -6.4555 C   0  0  0  0  0  0  0  0  0  0  0  0
   48.5887  -14.8466   -7.3609 C   0  0  0  0  0  0  0  0  0  0  0  0
   46.1331  -17.7718  -11.1737 C   0  0  0  0  0  0  0  0  0  0  0  0
   47.8611  -20.1617   -5.5262 C   0  0  0  0  0  0  0  0  0  0  0  0
   51.0972  -15.7627   -6.5470 C   0  0  0  0  0  0  0  0  0  0  0  0
   45.6460  -20.0985  -11.8135 C   0  0  0  0  0  0  0  0  0  0  0  0
   43.8145  -18.5887  -11.3023 C   0  0  0  0  0  0  0  0  0  0  0  0
   45.6286  -19.2365   -5.5760 C   0  0  0  0  0  0  0  0  0  0  0  0
   49.5584  -13.9383   -6.9344 C   0  0  0  0  0  0  0  0  0  0  0  0
   50.8112  -14.3958   -6.5284 C   0  0  0  0  0  0  0  0  0  0  0  0
   46.5261  -20.2000   -5.1186 C   0  0  0  0  0  0  0  0  0  0  0  0
   51.5766  -18.3231   -7.2134 H   0  0  0  0  0  0  0  0  0  0  0  0
   50.2258  -20.1564   -6.8136 H   0  0  0  0  0  0  0  0  0  0  0  0
   47.6987  -16.2570   -9.7210 H   0  0  0  0  0  0  0  0  0  0  0  0
   45.3693  -17.9124   -9.1363 H   0  0  0  0  0  0  0  0  0  0  0  0
   46.7232  -19.0547   -9.5073 H   0  0  0  0  0  0  0  0  0  0  0  0
   45.3533  -17.4940   -6.7903 H   0  0  0  0  0  0  0  0  0  0  0  0
   47.6202  -14.4762   -7.6747 H   0  0  0  0  0  0  0  0  0  0  0  0
   45.7758  -16.7284  -11.3215 H   0  0  0  0  0  0  0  0  0  0  0  0
   47.1170  -17.8377  -11.6892 H   0  0  0  0  0  0  0  0  0  0  0  0
   48.5441  -20.9152   -5.1527 H   0  0  0  0  0  0  0  0  0  0  0  0
   52.0819  -16.0954   -6.2411 H   0  0  0  0  0  0  0  0  0  0  0  0
   45.0372  -20.6977  -12.5235 H   0  0  0  0  0  0  0  0  0  0  0  0
   46.7041  -20.1634  -12.1468 H   0  0  0  0  0  0  0  0  0  0  0  0
   45.5516  -20.5513  -10.8028 H   0  0  0  0  0  0  0  0  0  0  0  0
   43.7247  -19.0420  -10.2914 H   0  0  0  0  0  0  0  0  0  0  0  0
   43.1110  -19.1119  -11.9843 H   0  0  0  0  0  0  0  0  0  0  0  0
   43.5010  -17.5235  -11.2555 H   0  0  0  0  0  0  0  0  0  0  0  0
   44.5969  -19.2594   -5.2493 H   0  0  0  0  0  0  0  0  0  0  0  0
   49.3394  -12.8785   -6.9224 H   0  0  0  0  0  0  0  0  0  0  0  0
   51.5654  -13.6898   -6.2053 H   0  0  0  0  0  0  0  0  0  0  0  0
   46.1892  -20.9745   -4.4417 H   0  0  0  0  0  0  0  0  0  0  0  0
  2  1  1  0
  3  1  1  0
  4  6  1  0
  5  7  1  0
  6  2  2  0
  7  3  2  0
  8  1  2  3
  9 13  1  0
 10  8  1  0
 11  3  1  0
 12  2  1  0
 13 10  1  0
 14  7  1  0
 15  6  1  0
 16  9  1  0
 17  9  1  0
 18 11  2  0
 19 12  2  0
 20 19  1  0
 21 18  1  0
  5  4  2  0
 21 14  2  0
 20 15  2  0
  4 22  1  0
  5 23  1  0
  8 24  1  0
 10 25  1  0
 10 26  1  0
 11 27  1  0
 12 28  1  0
 13 29  1  0
 13 30  1  0
 14 31  1  0
 15 32  1  0
 16 33  1  0
 16 34  1  0
 16 35  1  0
 17 36  1  0
 17 37  1  0
 17 38  1  0
 18 39  1  0
 19 40  1  0
 20 41  1  0
 21 42  1  0
M  END
> <Uni-Dock RESULT> 
ENERGY=   -5.112  LOWER_BOUND=    3.044  UPPER_BOUND=    5.972
INTER + INTRA:          -5.112
INTER:                  -5.112
INTRA:                   0.000
UNBOUND:                 0.000

$$$$

     RDKit          3D

 42 44  0  0  0  0  0  0  0  0999 V2000
   46.7279  -16.1308  -10.6983 C   0  0  0  0  0  0  0  0  0  0  0  0
   46.6290  -16.3746   -9.2518 C   0  0  0  0  0  0  0  0  0  0  0  0
   45.4658  -15.9762  -11.4442 C   0  0  0  0  0  0  0  0  0  0  0  0
   45.3158  -18.5245   -9.6235 C   0  0  0  0  0  0  0  0  0  0  0  0
   44.7168  -18.3223  -10.8071 C   0  0  0  0  0  0  0  0  0  0  0  0
   45.9185  -17.4878   -8.7492 C   0  0  0  0  0  0  0  0  0  0  0  0
   44.5096  -17.0146  -11.4734 C   0  0  0  0  0  0  0  0  0  0  0  0
   47.9363  -16.0820  -11.2911 C   0  0  0  0  0  0  0  0  0  0  0  0
   49.8634  -16.0436  -14.6277 N   0  0  0  0  0  0  0  0  0  0  0  0
   48.1221  -15.9419  -12.7807 C   0  0  0  0  0  0  0  0  0  0  0  0
   45.1940  -14.7624  -12.0996 C   0  0  0  0  0  0  0  0  0  0  0  0
   47.2539  -15.4852   -8.3603 C   0  0  0  0  0  0  0  0  0  0  0  0
   49.5985  -16.1525  -13.1750 C   0  0  0  0  0  0  0  0  0  0  0  0
   43.3359  -16.8407  -12.2278 C   0  0  0  0  0  0  0  0  0  0  0  0
   45.8725  -17.6951   -7.3593 C   0  0  0  0  0  0  0  0  0  0  0  0
   49.1856  -17.0851  -15.4155 C   0  0  0  0  0  0  0  0  0  0  0  0
   49.5823  -14.7029  -15.1645 C   0  0  0  0  0  0  0  0  0  0  0  0
   44.0132  -14.5985  -12.8247 C   0  0  0  0  0  0  0  0  0  0  0  0
   47.1799  -15.6963   -6.9829 C   0  0  0  0  0  0  0  0  0  0  0  0
   46.4904  -16.8001   -6.4832 C   0  0  0  0  0  0  0  0  0  0  0  0
   43.0891  -15.6396  -12.8958 C   0  0  0  0  0  0  0  0  0  0  0  0
   45.2832  -19.5342   -9.2302 H   0  0  0  0  0  0  0  0  0  0  0  0
   44.2491  -19.1849  -11.2684 H   0  0  0  0  0  0  0  0  0  0  0  0
   48.8198  -16.2180  -10.6759 H   0  0  0  0  0  0  0  0  0  0  0  0
   47.7976  -14.9269  -13.0835 H   0  0  0  0  0  0  0  0  0  0  0  0
   47.4865  -16.6983  -13.2867 H   0  0  0  0  0  0  0  0  0  0  0  0
   45.8949  -13.9387  -12.0432 H   0  0  0  0  0  0  0  0  0  0  0  0
   47.7943  -14.6238   -8.7340 H   0  0  0  0  0  0  0  0  0  0  0  0
   50.2284  -15.4099  -12.6366 H   0  0  0  0  0  0  0  0  0  0  0  0
   49.9304  -17.1539  -12.8211 H   0  0  0  0  0  0  0  0  0  0  0  0
   42.6010  -17.6345  -12.2893 H   0  0  0  0  0  0  0  0  0  0  0  0
   45.3542  -18.5542   -6.9502 H   0  0  0  0  0  0  0  0  0  0  0  0
   49.6131  -17.1124  -16.4403 H   0  0  0  0  0  0  0  0  0  0  0  0
   49.3482  -18.0862  -14.9613 H   0  0  0  0  0  0  0  0  0  0  0  0
   48.0940  -16.8923  -15.4967 H   0  0  0  0  0  0  0  0  0  0  0  0
   48.4898  -14.5141  -15.2434 H   0  0  0  0  0  0  0  0  0  0  0  0
   50.0281  -14.6075  -16.1774 H   0  0  0  0  0  0  0  0  0  0  0  0
   50.0441  -13.9211  -14.5237 H   0  0  0  0  0  0  0  0  0  0  0  0
   43.8149  -13.6633  -13.3322 H   0  0  0  0  0  0  0  0  0  0  0  0
   47.6609  -15.0054   -6.3028 H   0  0  0  0  0  0  0  0  0  0  0  0
   46.4403  -16.9674   -5.4149 H   0  0  0  0  0  0  0  0  0  0  0  0
   42.1763  -15.5144  -13.4640 H   0  0  0  0  0  0  0  0  0  0  0  0
  2  1  1  0
  3  1  1  0
  4  6  1  0
  5  7  1  0
  6  2  2  0
  7  3  2  0
  8  1  2  3
  9 13  1  0
 10  8  1  0
 11  3  1  0
 12  2  1  0
 13 10  1  0
 14  7  1  0
 15  6  1  0
 16  9  1  0
 17  9  1  0
 18 11  2  0
 19 12  2  0
 20 19  1  0
 21 18  1  0
  5  4  2  0
 21 14  2  0
 20 15  2  0
  4 22  1  0
  5 23  1  0
  8 24  1  0
 10 25  1  0
 10 26  1  0
 11 27  1  0
 12 28  1  0
 13 29  1  0
 13 30  1  0
 14 31  1  0
 15 32  1  0
 16 33  1  0
 16 34  1  0
 16 35  1  0
 17 36  1  0
 17 37  1  0
 17 38  1  0
 18 39  1  0
 19 40  1  0
 20 41  1  0
 21 42  1  0
M  END
> <Uni-Dock RESULT> 
ENERGY=   -4.836  LOWER_BOUND=    4.690  UPPER_BOUND=    7.083
INTER + INTRA:          -4.836
INTER:                  -4.836
INTRA:                   0.000
UNBOUND:                 0.000

$$$$

     RDKit          3D

 42 44  0  0  0  0  0  0  0  0999 V2000
   46.7275  -16.1303  -10.6986 C   0  0  0  0  0  0  0  0  0  0  0  0
   46.6286  -16.3744   -9.2521 C   0  0  0  0  0  0  0  0  0  0  0  0
   45.4653  -15.9753  -11.4443 C   0  0  0  0  0  0  0  0  0  0  0  0
   45.3149  -18.5240   -9.6241 C   0  0  0  0  0  0  0  0  0  0  0  0
   44.7159  -18.3214  -10.8076 C   0  0  0  0  0  0  0  0  0  0  0  0
   45.9179  -17.4876   -8.7496 C   0  0  0  0  0  0  0  0  0  0  0  0
   44.5089  -17.0135  -11.4737 C   0  0  0  0  0  0  0  0  0  0  0  0
   47.9358  -16.0816  -11.2913 C   0  0  0  0  0  0  0  0  0  0  0  0
   49.8628  -16.0428  -14.6281 N   0  0  0  0  0  0  0  0  0  0  0  0
   48.1216  -15.9413  -12.7810 C   0  0  0  0  0  0  0  0  0  0  0  0
   45.1938  -14.7613  -12.0995 C   0  0  0  0  0  0  0  0  0  0  0  0
   47.2537  -15.4853   -8.3604 C   0  0  0  0  0  0  0  0  0  0  0  0
   49.5980  -16.1520  -13.1754 C   0  0  0  0  0  0  0  0  0  0  0  0
   43.3353  -16.8393  -12.2279 C   0  0  0  0  0  0  0  0  0  0  0  0
   45.8719  -17.6951   -7.3598 C   0  0  0  0  0  0  0  0  0  0  0  0
   49.1848  -17.0841  -15.4160 C   0  0  0  0  0  0  0  0  0  0  0  0
   49.5819  -14.7020  -15.1646 C   0  0  0  0  0  0  0  0  0  0  0  0
   44.0130  -14.5971  -12.8244 C   0  0  0  0  0  0  0  0  0  0  0  0
   47.1797  -15.6966   -6.9831 C   0  0  0  0  0  0  0  0  0  0  0  0
   46.4900  -16.8005   -6.4835 C   0  0  0  0  0  0  0  0  0  0  0  0
   43.0886  -15.6380  -12.8957 C   0  0  0  0  0  0  0  0  0  0  0  0
   45.2822  -19.5337   -9.2311 H   0  0  0  0  0  0  0  0  0  0  0  0
   44.2481  -19.1838  -11.2691 H   0  0  0  0  0  0  0  0  0  0  0  0
   48.8194  -16.2179  -10.6763 H   0  0  0  0  0  0  0  0  0  0  0  0
   47.7972  -14.9261  -13.0835 H   0  0  0  0  0  0  0  0  0  0  0  0
   47.4858  -16.6974  -13.2871 H   0  0  0  0  0  0  0  0  0  0  0  0
   45.8948  -13.9378  -12.0429 H   0  0  0  0  0  0  0  0  0  0  0  0
   47.7943  -14.6239   -8.7339 H   0  0  0  0  0  0  0  0  0  0  0  0
   50.2280  -15.4096  -12.6369 H   0  0  0  0  0  0  0  0  0  0  0  0
   49.9296  -17.1536  -12.8217 H   0  0  0  0  0  0  0  0  0  0  0  0
   42.6002  -17.6329  -12.2896 H   0  0  0  0  0  0  0  0  0  0  0  0
   45.3535  -18.5542   -6.9509 H   0  0  0  0  0  0  0  0  0  0  0  0
   49.6122  -17.1112  -16.4409 H   0  0  0  0  0  0  0  0  0  0  0  0
   49.3471  -18.0853  -14.9621 H   0  0  0  0  0  0  0  0  0  0  0  0
   48.0932  -16.8910  -15.4971 H   0  0  0  0  0  0  0  0  0  0  0  0
   48.4894  -14.5129  -15.2434 H   0  0  0  0  0  0  0  0  0  0  0  0
   50.0277  -14.6065  -16.1775 H   0  0  0  0  0  0  0  0  0  0  0  0
   50.0438  -13.9205  -14.5236 H   0  0  0  0  0  0  0  0  0  0  0  0
   43.8148  -13.6617  -13.3318 H   0  0  0  0  0  0  0  0  0  0  0  0
   47.6609  -15.0060   -6.3028 H   0  0  0  0  0  0  0  0  0  0  0  0
   46.4400  -16.9680   -5.4153 H   0  0  0  0  0  0  0  0  0  0  0  0
   42.1758  -15.5124  -13.4638 H   0  0  0  0  0  0  0  0  0  0  0  0
  2  1  1  0
  3  1  1  0
  4  6  1  0
  5  7  1  0
  6  2  2  0
  7  3  2  0
  8  1  2  3
  9 13  1  0
 10  8  1  0
 11  3  1  0
 12  2  1  0
 13 10  1  0
 14  7  1  0
 15  6  1  0
 16  9  1  0
 17  9  1  0
 18 11  2  0
 19 12  2  0
 20 19  1  0
 21 18  1  0
  5  4  2  0
 21 14  2  0
 20 15  2  0
  4 22  1  0
  5 23  1  0
  8 24  1  0
 10 25  1  0
 10 26  1  0
 11 27  1  0
 12 28  1  0
 13 29  1  0
 13 30  1  0
 14 31  1  0
 15 32  1  0
 16 33  1  0
 16 34  1  0
 16 35  1  0
 17 36  1  0
 17 37  1  0
 17 38  1  0
 18 39  1  0
 19 40  1  0
 20 41  1  0
 21 42  1  0
M  END
> <Uni-Dock RESULT> 
ENERGY=   -4.835  LOWER_BOUND=    4.691  UPPER_BOUND=    7.084
INTER + INTRA:          -4.835
INTER:                  -4.835
INTRA:                   0.000
UNBOUND:                 0.000

$$$$

     RDKit          3D

 42 44  0  0  0  0  0  0  0  0999 V2000
   48.9449  -17.3413   -8.4627 C   0  0  0  0  0  0  0  0  0  0  0  0
   48.2855  -16.7694   -9.6459 C   0  0  0  0  0  0  0  0  0  0  0  0
   48.1019  -18.1011   -7.5219 C   0  0  0  0  0  0  0  0  0  0  0  0
   46.7321  -15.3632   -8.1990 C   0  0  0  0  0  0  0  0  0  0  0  0
   46.6562  -16.0607   -7.0552 C   0  0  0  0  0  0  0  0  0  0  0  0
   47.2068  -15.8668   -9.5118 C   0  0  0  0  0  0  0  0  0  0  0  0
   47.0065  -17.4895   -6.8742 C   0  0  0  0  0  0  0  0  0  0  0  0
   50.2613  -17.1390   -8.2629 C   0  0  0  0  0  0  0  0  0  0  0  0
   53.2007  -17.4162   -5.7867 N   0  0  0  0  0  0  0  0  0  0  0  0
   50.9909  -17.5993   -7.0263 C   0  0  0  0  0  0  0  0  0  0  0  0
   48.3683  -19.4637   -7.3001 C   0  0  0  0  0  0  0  0  0  0  0  0
   48.7403  -17.1280  -10.9270 C   0  0  0  0  0  0  0  0  0  0  0  0
   52.4199  -17.0202   -6.9808 C   0  0  0  0  0  0  0  0  0  0  0  0
   46.2512  -18.2395   -5.9557 C   0  0  0  0  0  0  0  0  0  0  0  0
   46.6239  -15.3254  -10.6711 C   0  0  0  0  0  0  0  0  0  0  0  0
   52.6262  -16.9102   -4.5302 C   0  0  0  0  0  0  0  0  0  0  0  0
   53.4458  -18.8651   -5.7144 C   0  0  0  0  0  0  0  0  0  0  0  0
   47.5937  -20.1992   -6.4025 C   0  0  0  0  0  0  0  0  0  0  0  0
   48.1355  -16.5958  -12.0664 C   0  0  0  0  0  0  0  0  0  0  0  0
   47.0789  -15.6953  -11.9385 C   0  0  0  0  0  0  0  0  0  0  0  0
   46.5416  -19.5856   -5.7245 C   0  0  0  0  0  0  0  0  0  0  0  0
   46.3301  -14.3565   -8.1802 H   0  0  0  0  0  0  0  0  0  0  0  0
   46.1974  -15.5596   -6.2103 H   0  0  0  0  0  0  0  0  0  0  0  0
   50.8121  -16.5572   -8.9949 H   0  0  0  0  0  0  0  0  0  0  0  0
   51.0383  -18.7061   -7.0355 H   0  0  0  0  0  0  0  0  0  0  0  0
   50.4203  -17.2623   -6.1359 H   0  0  0  0  0  0  0  0  0  0  0  0
   49.1731  -19.9592   -7.8288 H   0  0  0  0  0  0  0  0  0  0  0  0
   49.5612  -17.8255  -11.0421 H   0  0  0  0  0  0  0  0  0  0  0  0
   52.9707  -17.3381   -7.8939 H   0  0  0  0  0  0  0  0  0  0  0  0
   52.3640  -15.9097   -7.0243 H   0  0  0  0  0  0  0  0  0  0  0  0
   45.4241  -17.7838   -5.4244 H   0  0  0  0  0  0  0  0  0  0  0  0
   45.8110  -14.6131  -10.5944 H   0  0  0  0  0  0  0  0  0  0  0  0
   53.3711  -17.0150   -3.7129 H   0  0  0  0  0  0  0  0  0  0  0  0
   52.3814  -15.8300   -4.6196 H   0  0  0  0  0  0  0  0  0  0  0  0
   51.7105  -17.4711   -4.2432 H   0  0  0  0  0  0  0  0  0  0  0  0
   52.5275  -19.4220   -5.4277 H   0  0  0  0  0  0  0  0  0  0  0  0
   54.2312  -19.0715   -4.9565 H   0  0  0  0  0  0  0  0  0  0  0  0
   53.8169  -19.2473   -6.6897 H   0  0  0  0  0  0  0  0  0  0  0  0
   47.8098  -21.2461   -6.2322 H   0  0  0  0  0  0  0  0  0  0  0  0
   48.4892  -16.8790  -13.0493 H   0  0  0  0  0  0  0  0  0  0  0  0
   46.6158  -15.2769  -12.8229 H   0  0  0  0  0  0  0  0  0  0  0  0
   45.9452  -20.1550   -5.0232 H   0  0  0  0  0  0  0  0  0  0  0  0
  2  1  1  0
  3  1  1  0
  4  6  1  0
  5  7  1  0
  6  2  2  0
  7  3  2  0
  8  1  2  3
  9 13  1  0
 10  8  1  0
 11  3  1  0
 12  2  1  0
 13 10  1  0
 14  7  1  0
 15  6  1  0
 16  9  1  0
 17  9  1  0
 18 11  2  0
 19 12  2  0
 20 19  1  0
 21 18  1  0
  5  4  2  0
 21 14  2  0
 20 15  2  0
  4 22  1  0
  5 23  1  0
  8 24  1  0
 10 25  1  0
 10 26  1  0
 11 27  1  0
 12 28  1  0
 13 29  1  0
 13 30  1  0
 14 31  1  0
 15 32  1  0
 16 33  1  0
 16 34  1  0
 16 35  1  0
 17 36  1  0
 17 37  1  0
 17 38  1  0
 18 39  1  0
 19 40  1  0
 20 41  1  0
 21 42  1  0
M  END
> <Uni-Dock RESULT> 
ENERGY=   -4.407  LOWER_BOUND=    2.530  UPPER_BOUND=    4.679
INTER + INTRA:          -4.407
INTER:                  -4.407
INTRA:                   0.000
UNBOUND:                 0.000

$$$$
