
     RDKit          3D

 42 44  0  0  0  0  0  0  0  0999 V2000
   50.2205  -16.8362   -8.1221 C   0  0  0  0  0  0  0  0  0  0  0  0
   51.1890  -16.5189   -7.0619 C   0  0  0  0  0  0  0  0  0  0  0  0
   48.7943  -16.8342   -7.7479 C   0  0  0  0  0  0  0  0  0  0  0  0
   50.1655  -14.2146   -6.7073 C   0  0  0  0  0  0  0  0  0  0  0  0
   48.8925  -14.3764   -7.0995 C   0  0  0  0  0  0  0  0  0  0  0  0
   51.1281  -15.2910   -6.3654 C   0  0  0  0  0  0  0  0  0  0  0  0
   48.1780  -15.6666   -7.2471 C   0  0  0  0  0  0  0  0  0  0  0  0
   50.6569  -17.1058   -9.3691 C   0  0  0  0  0  0  0  0  0  0  0  0
   48.9347  -19.1188  -12.0966 N   0  0  0  0  0  0  0  0  0  0  0  0
   49.7636  -17.3723  -10.5527 C   0  0  0  0  0  0  0  0  0  0  0  0
   48.0490  -18.0219   -7.8543 C   0  0  0  0  0  0  0  0  0  0  0  0
   52.1883  -17.4543   -6.7405 C   0  0  0  0  0  0  0  0  0  0  0  0
   49.8819  -18.8348  -10.9964 C   0  0  0  0  0  0  0  0  0  0  0  0
   46.8059  -15.6963   -6.9420 C   0  0  0  0  0  0  0  0  0  0  0  0
   52.0908  -15.0199   -5.3774 C   0  0  0  0  0  0  0  0  0  0  0  0
   47.6135  -19.5037  -11.5675 C   0  0  0  0  0  0  0  0  0  0  0  0
   49.4509  -20.2000  -12.9516 C   0  0  0  0  0  0  0  0  0  0  0  0
   46.6931  -18.0389   -7.5269 C   0  0  0  0  0  0  0  0  0  0  0  0
   53.1227  -17.1758   -5.7422 C   0  0  0  0  0  0  0  0  0  0  0  0
   53.0745  -15.9598   -5.0621 C   0  0  0  0  0  0  0  0  0  0  0  0
   46.0701  -16.8752   -7.0789 C   0  0  0  0  0  0  0  0  0  0  0  0
   50.4968  -13.1951   -6.5449 H   0  0  0  0  0  0  0  0  0  0  0  0
   48.3025  -13.4748   -7.2189 H   0  0  0  0  0  0  0  0  0  0  0  0
   51.7243  -17.1116   -9.5604 H   0  0  0  0  0  0  0  0  0  0  0  0
   50.0911  -16.7179  -11.3886 H   0  0  0  0  0  0  0  0  0  0  0  0
   48.7103  -17.1035  -10.3394 H   0  0  0  0  0  0  0  0  0  0  0  0
   48.5189  -18.9365   -8.1900 H   0  0  0  0  0  0  0  0  0  0  0  0
   52.2389  -18.4033   -7.2608 H   0  0  0  0  0  0  0  0  0  0  0  0
   49.7182  -19.5222  -10.1361 H   0  0  0  0  0  0  0  0  0  0  0  0
   50.9339  -18.9894  -11.3308 H   0  0  0  0  0  0  0  0  0  0  0  0
   46.3044  -14.8049   -6.5844 H   0  0  0  0  0  0  0  0  0  0  0  0
   52.0798  -14.0758   -4.8460 H   0  0  0  0  0  0  0  0  0  0  0  0
   47.1958  -18.7000  -10.9269 H   0  0  0  0  0  0  0  0  0  0  0  0
   47.6729  -20.4421  -10.9715 H   0  0  0  0  0  0  0  0  0  0  0  0
   46.8974  -19.6543  -12.4038 H   0  0  0  0  0  0  0  0  0  0  0  0
   48.7311  -20.4249  -13.7681 H   0  0  0  0  0  0  0  0  0  0  0  0
   50.3996  -19.8827  -13.4354 H   0  0  0  0  0  0  0  0  0  0  0  0
   49.6345  -21.1264  -12.3622 H   0  0  0  0  0  0  0  0  0  0  0  0
   46.1249  -18.9551   -7.6219 H   0  0  0  0  0  0  0  0  0  0  0  0
   53.8872  -17.9022   -5.4986 H   0  0  0  0  0  0  0  0  0  0  0  0
   53.8047  -15.7414   -4.2935 H   0  0  0  0  0  0  0  0  0  0  0  0
   45.0166  -16.8872   -6.8311 H   0  0  0  0  0  0  0  0  0  0  0  0
  2  1  1  0
  3  1  1  0
  4  6  1  0
  5  7  1  0
  6  2  2  0
  7  3  2  0
  8  1  2  3
  9 13  1  0
 10  8  1  0
 11  3  1  0
 12  2  1  0
 13 10  1  0
 14  7  1  0
 15  6  1  0
 16  9  1  0
 17  9  1  0
 18 11  2  0
 19 12  2  0
 20 19  1  0
 21 18  1  0
  5  4  2  0
 21 14  2  0
 20 15  2  0
  4 22  1  0
  5 23  1  0
  8 24  1  0
 10 25  1  0
 10 26  1  0
 11 27  1  0
 12 28  1  0
 13 29  1  0
 13 30  1  0
 14 31  1  0
 15 32  1  0
 16 33  1  0
 16 34  1  0
 16 35  1  0
 17 36  1  0
 17 37  1  0
 17 38  1  0
 18 39  1  0
 19 40  1  0
 20 41  1  0
 21 42  1  0
M  END
> <Uni-Dock RESULT> 
ENERGY=   -5.680  LOWER_BOUND=    0.000  UPPER_BOUND=    0.000
INTER + INTRA:          -5.680
INTER:                  -5.680
INTRA:                   0.000
UNBOUND:                 0.000

$$$$

     RDKit          3D

 42 44  0  0  0  0  0  0  0  0999 V2000
   45.6887  -19.0601   -8.9200 C   0  0  0  0  0  0  0  0  0  0  0  0
   44.3486  -19.4041   -8.4216 C   0  0  0  0  0  0  0  0  0  0  0  0
   46.2624  -17.7794   -8.4677 C   0  0  0  0  0  0  0  0  0  0  0  0
   45.1519  -19.3702   -6.0057 C   0  0  0  0  0  0  0  0  0  0  0  0
   46.1916  -18.5226   -6.0359 C   0  0  0  0  0  0  0  0  0  0  0  0
   44.0923  -19.5055   -7.0358 C   0  0  0  0  0  0  0  0  0  0  0  0
   46.4808  -17.5273   -7.0956 C   0  0  0  0  0  0  0  0  0  0  0  0
   46.3334  -19.9073   -9.7475 C   0  0  0  0  0  0  0  0  0  0  0  0
   49.0782  -19.1310  -12.2617 N   0  0  0  0  0  0  0  0  0  0  0  0
   47.7334  -19.7029  -10.2654 C   0  0  0  0  0  0  0  0  0  0  0  0
   46.5587  -16.7813   -9.4129 C   0  0  0  0  0  0  0  0  0  0  0  0
   43.3106  -19.6346   -9.3416 C   0  0  0  0  0  0  0  0  0  0  0  0
   47.7134  -19.4253  -11.7727 C   0  0  0  0  0  0  0  0  0  0  0  0
   47.0687  -16.3097   -6.7104 C   0  0  0  0  0  0  0  0  0  0  0  0
   42.8021  -19.8623   -6.6061 C   0  0  0  0  0  0  0  0  0  0  0  0
   49.3918  -17.6978  -12.1159 C   0  0  0  0  0  0  0  0  0  0  0  0
   49.2107  -19.5173  -13.6758 C   0  0  0  0  0  0  0  0  0  0  0  0
   47.1223  -15.5701   -9.0110 C   0  0  0  0  0  0  0  0  0  0  0  0
   42.0312  -19.9676   -8.8953 C   0  0  0  0  0  0  0  0  0  0  0  0
   41.7774  -20.0821   -7.5292 C   0  0  0  0  0  0  0  0  0  0  0  0
   47.3845  -15.3377   -7.6619 C   0  0  0  0  0  0  0  0  0  0  0  0
   45.0291  -19.9547   -5.1008 H   0  0  0  0  0  0  0  0  0  0  0  0
   46.8197  -18.4922   -5.1528 H   0  0  0  0  0  0  0  0  0  0  0  0
   45.8347  -20.8200  -10.0547 H   0  0  0  0  0  0  0  0  0  0  0  0
   48.3105  -20.6344  -10.0815 H   0  0  0  0  0  0  0  0  0  0  0  0
   48.2589  -18.8962   -9.7174 H   0  0  0  0  0  0  0  0  0  0  0  0
   46.3518  -16.9406  -10.4625 H   0  0  0  0  0  0  0  0  0  0  0  0
   43.4927  -19.5500  -10.4063 H   0  0  0  0  0  0  0  0  0  0  0  0
   47.0119  -18.5943  -12.0112 H   0  0  0  0  0  0  0  0  0  0  0  0
   47.3048  -20.3374  -12.2664 H   0  0  0  0  0  0  0  0  0  0  0  0
   47.2732  -16.1058   -5.6661 H   0  0  0  0  0  0  0  0  0  0  0  0
   42.5865  -19.9699   -5.5497 H   0  0  0  0  0  0  0  0  0  0  0  0
   49.3100  -17.3821  -11.0556 H   0  0  0  0  0  0  0  0  0  0  0  0
   48.7096  -17.0686  -12.7306 H   0  0  0  0  0  0  0  0  0  0  0  0
   50.4399  -17.5034  -12.4301 H   0  0  0  0  0  0  0  0  0  0  0  0
   50.2310  -19.2802  -14.0478 H   0  0  0  0  0  0  0  0  0  0  0  0
   49.0737  -20.6146  -13.7852 H   0  0  0  0  0  0  0  0  0  0  0  0
   48.4608  -18.9916  -14.3087 H   0  0  0  0  0  0  0  0  0  0  0  0
   47.3567  -14.8118   -9.7467 H   0  0  0  0  0  0  0  0  0  0  0  0
   41.2367  -20.1407   -9.6097 H   0  0  0  0  0  0  0  0  0  0  0  0
   40.7866  -20.3483   -7.1843 H   0  0  0  0  0  0  0  0  0  0  0  0
   47.8277  -14.4003   -7.3511 H   0  0  0  0  0  0  0  0  0  0  0  0
  2  1  1  0
  3  1  1  0
  4  6  1  0
  5  7  1  0
  6  2  2  0
  7  3  2  0
  8  1  2  3
  9 13  1  0
 10  8  1  0
 11  3  1  0
 12  2  1  0
 13 10  1  0
 14  7  1  0
 15  6  1  0
 16  9  1  0
 17  9  1  0
 18 11  2  0
 19 12  2  0
 20 19  1  0
 21 18  1  0
  5  4  2  0
 21 14  2  0
 20 15  2  0
  4 22  1  0
  5 23  1  0
  8 24  1  0
 10 25  1  0
 10 26  1  0
 11 27  1  0
 12 28  1  0
 13 29  1  0
 13 30  1  0
 14 31  1  0
 15 32  1  0
 16 33  1  0
 16 34  1  0
 16 35  1  0
 17 36  1  0
 17 37  1  0
 17 38  1  0
 18 39  1  0
 19 40  1  0
 20 41  1  0
 21 42  1  0
M  END
> <Uni-Dock RESULT> 
ENERGY=   -5.031  LOWER_BOUND=    3.194  UPPER_BOUND=    6.192
INTER + INTRA:          -5.031
INTER:                  -5.031
INTRA:                   0.000
UNBOUND:                 0.000

$$$$

     RDKit          3D

 42 44  0  0  0  0  0  0  0  0999 V2000
   49.9275  -17.6951   -8.2583 C   0  0  0  0  0  0  0  0  0  0  0  0
   48.6471  -17.1263   -7.8113 C   0  0  0  0  0  0  0  0  0  0  0  0
   50.9338  -17.9772   -7.2182 C   0  0  0  0  0  0  0  0  0  0  0  0
   48.1614  -19.1591   -6.3569 C   0  0  0  0  0  0  0  0  0  0  0  0
   49.3830  -19.6294   -6.0624 C   0  0  0  0  0  0  0  0  0  0  0  0
   47.8366  -17.8070   -6.8752 C   0  0  0  0  0  0  0  0  0  0  0  0
   50.6592  -18.8833   -6.1707 C   0  0  0  0  0  0  0  0  0  0  0  0
   50.1310  -17.9385   -9.5688 C   0  0  0  0  0  0  0  0  0  0  0  0
   53.4278  -18.1801  -11.4478 N   0  0  0  0  0  0  0  0  0  0  0  0
   51.3665  -18.5840  -10.1406 C   0  0  0  0  0  0  0  0  0  0  0  0
   52.1683  -17.3044   -7.2488 C   0  0  0  0  0  0  0  0  0  0  0  0
   48.2278  -15.8869   -8.3259 C   0  0  0  0  0  0  0  0  0  0  0  0
   52.1682  -17.5717  -10.9665 C   0  0  0  0  0  0  0  0  0  0  0  0
   51.6616  -19.1555   -5.2233 C   0  0  0  0  0  0  0  0  0  0  0  0
   46.6084  -17.2374   -6.4964 C   0  0  0  0  0  0  0  0  0  0  0  0
   54.4980  -18.0385  -10.4436 C   0  0  0  0  0  0  0  0  0  0  0  0
   53.8544  -17.5480  -12.7067 C   0  0  0  0  0  0  0  0  0  0  0  0
   53.1441  -17.5709   -6.2882 C   0  0  0  0  0  0  0  0  0  0  0  0
   47.0149  -15.3275   -7.9222 C   0  0  0  0  0  0  0  0  0  0  0  0
   46.2057  -16.0023   -7.0092 C   0  0  0  0  0  0  0  0  0  0  0  0
   52.8941  -18.5015   -5.2811 C   0  0  0  0  0  0  0  0  0  0  0  0
   47.3228  -19.8020   -6.1138 H   0  0  0  0  0  0  0  0  0  0  0  0
   49.4285  -20.6111   -5.6047 H   0  0  0  0  0  0  0  0  0  0  0  0
   49.3508  -17.6809  -10.2765 H   0  0  0  0  0  0  0  0  0  0  0  0
   51.0474  -19.4147  -10.8058 H   0  0  0  0  0  0  0  0  0  0  0  0
   51.9935  -19.0402   -9.3495 H   0  0  0  0  0  0  0  0  0  0  0  0
   52.3749  -16.5713   -8.0168 H   0  0  0  0  0  0  0  0  0  0  0  0
   48.8455  -15.3510   -9.0366 H   0  0  0  0  0  0  0  0  0  0  0  0
   52.3662  -16.6493  -10.3754 H   0  0  0  0  0  0  0  0  0  0  0  0
   51.5236  -17.2674  -11.8235 H   0  0  0  0  0  0  0  0  0  0  0  0
   51.4847  -19.8693   -4.4276 H   0  0  0  0  0  0  0  0  0  0  0  0
   45.9581  -17.7511   -5.7984 H   0  0  0  0  0  0  0  0  0  0  0  0
   54.2061  -18.5169   -9.4862 H   0  0  0  0  0  0  0  0  0  0  0  0
   54.7349  -16.9680  -10.2513 H   0  0  0  0  0  0  0  0  0  0  0  0
   55.4189  -18.5528  -10.7933 H   0  0  0  0  0  0  0  0  0  0  0  0
   54.8099  -17.9935  -13.0591 H   0  0  0  0  0  0  0  0  0  0  0  0
   53.0993  -17.7332  -13.5007 H   0  0  0  0  0  0  0  0  0  0  0  0
   53.9889  -16.4502  -12.5806 H   0  0  0  0  0  0  0  0  0  0  0  0
   54.0953  -17.0560   -6.3258 H   0  0  0  0  0  0  0  0  0  0  0  0
   46.7004  -14.3716   -8.3207 H   0  0  0  0  0  0  0  0  0  0  0  0
   45.2613  -15.5714   -6.7028 H   0  0  0  0  0  0  0  0  0  0  0  0
   53.6539  -18.7128   -4.5397 H   0  0  0  0  0  0  0  0  0  0  0  0
  2  1  1  0
  3  1  1  0
  4  6  1  0
  5  7  1  0
  6  2  2  0
  7  3  2  0
  8  1  2  3
  9 13  1  0
 10  8  1  0
 11  3  1  0
 12  2  1  0
 13 10  1  0
 14  7  1  0
 15  6  1  0
 16  9  1  0
 17  9  1  0
 18 11  2  0
 19 12  2  0
 20 19  1  0
 21 18  1  0
  5  4  2  0
 21 14  2  0
 20 15  2  0
  4 22  1  0
  5 23  1  0
  8 24  1  0
 10 25  1  0
 10 26  1  0
 11 27  1  0
 12 28  1  0
 13 29  1  0
 13 30  1  0
 14 31  1  0
 15 32  1  0
 16 33  1  0
 16 34  1  0
 16 35  1  0
 17 36  1  0
 17 37  1  0
 17 38  1  0
 18 39  1  0
 19 40  1  0
 20 41  1  0
 21 42  1  0
M  END
> <Uni-Dock RESULT> 
ENERGY=   -4.489  LOWER_BOUND=    2.176  UPPER_BOUND=    4.992
INTER + INTRA:          -4.489
INTER:                  -4.489
INTRA:                   0.000
UNBOUND:                 0.000

$$$$

     RDKit          3D

 42 44  0  0  0  0  0  0  0  0999 V2000
   49.6108  -18.4526   -7.5328 C   0  0  0  0  0  0  0  0  0  0  0  0
   48.4840  -17.5237   -7.3589 C   0  0  0  0  0  0  0  0  0  0  0  0
   50.2559  -18.9589   -6.3075 C   0  0  0  0  0  0  0  0  0  0  0  0
   47.1453  -19.2643   -6.0698 C   0  0  0  0  0  0  0  0  0  0  0  0
   48.0920  -20.0472   -5.5302 C   0  0  0  0  0  0  0  0  0  0  0  0
   47.3369  -17.9017   -6.6255 C   0  0  0  0  0  0  0  0  0  0  0  0
   49.5222  -19.6995   -5.3550 C   0  0  0  0  0  0  0  0  0  0  0  0
   50.0024  -18.8054   -8.7739 C   0  0  0  0  0  0  0  0  0  0  0  0
   53.4053  -20.0603   -9.9155 N   0  0  0  0  0  0  0  0  0  0  0  0
   51.0910  -19.8010   -9.0804 C   0  0  0  0  0  0  0  0  0  0  0  0
   51.6099  -18.6659   -6.0663 C   0  0  0  0  0  0  0  0  0  0  0  0
   48.5541  -16.2421   -7.9327 C   0  0  0  0  0  0  0  0  0  0  0  0
   52.3023  -19.0977   -9.7032 C   0  0  0  0  0  0  0  0  0  0  0  0
   50.1857  -20.1995   -4.2209 C   0  0  0  0  0  0  0  0  0  0  0  0
   46.2732  -16.9900   -6.5072 C   0  0  0  0  0  0  0  0  0  0  0  0
   54.2391  -20.1806   -8.7056 C   0  0  0  0  0  0  0  0  0  0  0  0
   54.2462  -19.6354  -11.0464 C   0  0  0  0  0  0  0  0  0  0  0  0
   52.2474  -19.1524   -4.9248 C   0  0  0  0  0  0  0  0  0  0  0  0
   47.4967  -15.3434   -7.7869 C   0  0  0  0  0  0  0  0  0  0  0  0
   46.3573  -15.7171   -7.0758 C   0  0  0  0  0  0  0  0  0  0  0  0
   51.5381  -19.9253   -4.0069 C   0  0  0  0  0  0  0  0  0  0  0  0
   46.1262  -19.6308   -6.0191 H   0  0  0  0  0  0  0  0  0  0  0  0
   47.7580  -20.9787   -5.0874 H   0  0  0  0  0  0  0  0  0  0  0  0
   49.4930  -18.3710   -9.6270 H   0  0  0  0  0  0  0  0  0  0  0  0
   50.6917  -20.5377   -9.8100 H   0  0  0  0  0  0  0  0  0  0  0  0
   51.3828  -20.3783   -8.1812 H   0  0  0  0  0  0  0  0  0  0  0  0
   52.1725  -18.0587   -6.7625 H   0  0  0  0  0  0  0  0  0  0  0  0
   49.4327  -15.9375   -8.4887 H   0  0  0  0  0  0  0  0  0  0  0  0
   52.6300  -18.2425   -9.0703 H   0  0  0  0  0  0  0  0  0  0  0  0
   51.9640  -18.6641  -10.6727 H   0  0  0  0  0  0  0  0  0  0  0  0
   49.6506  -20.7954   -3.4910 H   0  0  0  0  0  0  0  0  0  0  0  0
   45.3732  -17.2647   -5.9703 H   0  0  0  0  0  0  0  0  0  0  0  0
   53.6307  -20.5108   -7.8387 H   0  0  0  0  0  0  0  0  0  0  0  0
   54.7282  -19.2133   -8.4521 H   0  0  0  0  0  0  0  0  0  0  0  0
   55.0252  -20.9508   -8.8598 H   0  0  0  0  0  0  0  0  0  0  0  0
   55.0849  -20.3496  -11.1948 H   0  0  0  0  0  0  0  0  0  0  0  0
   53.6511  -19.6362  -11.9848 H   0  0  0  0  0  0  0  0  0  0  0  0
   54.6610  -18.6160  -10.8788 H   0  0  0  0  0  0  0  0  0  0  0  0
   53.2926  -18.9306   -4.7526 H   0  0  0  0  0  0  0  0  0  0  0  0
   47.5594  -14.3575   -8.2292 H   0  0  0  0  0  0  0  0  0  0  0  0
   45.5343  -15.0221   -6.9701 H   0  0  0  0  0  0  0  0  0  0  0  0
   52.0347  -20.3080   -3.1246 H   0  0  0  0  0  0  0  0  0  0  0  0
  2  1  1  0
  3  1  1  0
  4  6  1  0
  5  7  1  0
  6  2  2  0
  7  3  2  0
  8  1  2  3
  9 13  1  0
 10  8  1  0
 11  3  1  0
 12  2  1  0
 13 10  1  0
 14  7  1  0
 15  6  1  0
 16  9  1  0
 17  9  1  0
 18 11  2  0
 19 12  2  0
 20 19  1  0
 21 18  1  0
  5  4  2  0
 21 14  2  0
 20 15  2  0
  4 22  1  0
  5 23  1  0
  8 24  1  0
 10 25  1  0
 10 26  1  0
 11 27  1  0
 12 28  1  0
 13 29  1  0
 13 30  1  0
 14 31  1  0
 15 32  1  0
 16 33  1  0
 16 34  1  0
 16 35  1  0
 17 36  1  0
 17 37  1  0
 17 38  1  0
 18 39  1  0
 19 40  1  0
 20 41  1  0
 21 42  1  0
M  END
> <Uni-Dock RESULT> 
ENERGY=   -4.421  LOWER_BOUND=    2.701  UPPER_BOUND=    5.100
INTER + INTRA:          -4.421
INTER:                  -4.421
INTRA:                   0.000
UNBOUND:                 0.000

$$$$

     RDKit          3D

 42 44  0  0  0  0  0  0  0  0999 V2000
   47.6180  -17.7667   -7.5960 C   0  0  0  0  0  0  0  0  0  0  0  0
   48.5581  -16.6672   -7.3316 C   0  0  0  0  0  0  0  0  0  0  0  0
   47.8803  -18.6005   -8.7834 C   0  0  0  0  0  0  0  0  0  0  0  0
   50.5113  -18.2855   -7.1089 C   0  0  0  0  0  0  0  0  0  0  0  0
   50.1367  -19.3301   -7.8631 C   0  0  0  0  0  0  0  0  0  0  0  0
   49.9362  -16.9180   -7.1458 C   0  0  0  0  0  0  0  0  0  0  0  0
   49.0861  -19.3245   -8.9087 C   0  0  0  0  0  0  0  0  0  0  0  0
   46.5782  -17.9737   -6.7628 C   0  0  0  0  0  0  0  0  0  0  0  0
   43.2672  -19.6954   -7.4910 N   0  0  0  0  0  0  0  0  0  0  0  0
   45.5923  -19.1065   -6.8847 C   0  0  0  0  0  0  0  0  0  0  0  0
   46.9335  -18.6429   -9.8223 C   0  0  0  0  0  0  0  0  0  0  0  0
   48.0737  -15.3491   -7.2636 C   0  0  0  0  0  0  0  0  0  0  0  0
   44.2096  -18.5750   -7.2789 C   0  0  0  0  0  0  0  0  0  0  0  0
   49.2782  -20.1403  -10.0374 C   0  0  0  0  0  0  0  0  0  0  0  0
   50.7938  -15.8387   -6.8697 C   0  0  0  0  0  0  0  0  0  0  0  0
   43.3459  -20.1944   -8.8761 C   0  0  0  0  0  0  0  0  0  0  0  0
   41.8883  -19.2667   -7.2053 C   0  0  0  0  0  0  0  0  0  0  0  0
   47.1499  -19.4416  -10.9454 C   0  0  0  0  0  0  0  0  0  0  0  0
   48.9437  -14.2883   -7.0090 C   0  0  0  0  0  0  0  0  0  0  0  0
   50.3019  -14.5328   -6.8115 C   0  0  0  0  0  0  0  0  0  0  0  0
   48.3174  -20.1959  -11.0492 C   0  0  0  0  0  0  0  0  0  0  0  0
   51.3738  -18.4342   -6.4689 H   0  0  0  0  0  0  0  0  0  0  0  0
   50.7289  -20.2335   -7.7707 H   0  0  0  0  0  0  0  0  0  0  0  0
   46.4383  -17.3018   -5.9232 H   0  0  0  0  0  0  0  0  0  0  0  0
   45.5142  -19.6062   -5.8955 H   0  0  0  0  0  0  0  0  0  0  0  0
   45.9420  -19.8785   -7.5981 H   0  0  0  0  0  0  0  0  0  0  0  0
   46.0271  -18.0558   -9.7631 H   0  0  0  0  0  0  0  0  0  0  0  0
   47.0206  -15.1434   -7.4143 H   0  0  0  0  0  0  0  0  0  0  0  0
   44.2785  -17.9296   -8.1834 H   0  0  0  0  0  0  0  0  0  0  0  0
   43.8634  -17.9195   -6.4465 H   0  0  0  0  0  0  0  0  0  0  0  0
   50.1824  -20.7282  -10.1414 H   0  0  0  0  0  0  0  0  0  0  0  0
   51.8504  -16.0078   -6.6998 H   0  0  0  0  0  0  0  0  0  0  0  0
   44.3744  -20.5348   -9.1147 H   0  0  0  0  0  0  0  0  0  0  0  0
   43.0499  -19.4092   -9.6076 H   0  0  0  0  0  0  0  0  0  0  0  0
   42.6779  -21.0733   -9.0028 H   0  0  0  0  0  0  0  0  0  0  0  0
   41.1785  -20.1038   -7.3813 H   0  0  0  0  0  0  0  0  0  0  0  0
   41.7924  -18.9811   -6.1357 H   0  0  0  0  0  0  0  0  0  0  0  0
   41.5960  -18.4011   -7.8413 H   0  0  0  0  0  0  0  0  0  0  0  0
   46.4108  -19.4762  -11.7353 H   0  0  0  0  0  0  0  0  0  0  0  0
   48.5636  -13.2760   -6.9611 H   0  0  0  0  0  0  0  0  0  0  0  0
   50.9747  -13.7102   -6.6061 H   0  0  0  0  0  0  0  0  0  0  0  0
   48.4820  -20.8204  -11.9178 H   0  0  0  0  0  0  0  0  0  0  0  0
  2  1  1  0
  3  1  1  0
  4  6  1  0
  5  7  1  0
  6  2  2  0
  7  3  2  0
  8  1  2  3
  9 13  1  0
 10  8  1  0
 11  3  1  0
 12  2  1  0
 13 10  1  0
 14  7  1  0
 15  6  1  0
 16  9  1  0
 17  9  1  0
 18 11  2  0
 19 12  2  0
 20 19  1  0
 21 18  1  0
  5  4  2  0
 21 14  2  0
 20 15  2  0
  4 22  1  0
  5 23  1  0
  8 24  1  0
 10 25  1  0
 10 26  1  0
 11 27  1  0
 12 28  1  0
 13 29  1  0
 13 30  1  0
 14 31  1  0
 15 32  1  0
 16 33  1  0
 16 34  1  0
 16 35  1  0
 17 36  1  0
 17 37  1  0
 17 38  1  0
 18 39  1  0
 19 40  1  0
 20 41  1  0
 21 42  1  0
M  END
> <Uni-Dock RESULT> 
ENERGY=   -4.238  LOWER_BOUND=    2.491  UPPER_BOUND=    4.942
INTER + INTRA:          -4.238
INTER:                  -4.238
INTRA:                   0.000
UNBOUND:                 0.000

$$$$

     RDKit          3D

 42 44  0  0  0  0  0  0  0  0999 V2000
   45.8828  -18.2696   -8.8400 C   0  0  0  0  0  0  0  0  0  0  0  0
   44.9685  -18.8740   -7.8594 C   0  0  0  0  0  0  0  0  0  0  0  0
   46.8817  -17.3157   -8.3242 C   0  0  0  0  0  0  0  0  0  0  0  0
   46.9056  -19.9201   -6.5800 C   0  0  0  0  0  0  0  0  0  0  0  0
   47.9343  -19.1021   -6.8505 C   0  0  0  0  0  0  0  0  0  0  0  0
   45.4646  -19.6181   -6.7654 C   0  0  0  0  0  0  0  0  0  0  0  0
   47.8398  -17.7160   -7.3672 C   0  0  0  0  0  0  0  0  0  0  0  0
   45.7834  -18.6033  -10.1427 C   0  0  0  0  0  0  0  0  0  0  0  0
   46.8865  -16.6111  -13.1877 N   0  0  0  0  0  0  0  0  0  0  0  0
   46.7048  -18.1104  -11.2281 C   0  0  0  0  0  0  0  0  0  0  0  0
   46.8539  -15.9797   -8.7622 C   0  0  0  0  0  0  0  0  0  0  0  0
   43.5815  -18.7062   -8.0173 C   0  0  0  0  0  0  0  0  0  0  0  0
   45.9583  -17.1683  -12.1795 C   0  0  0  0  0  0  0  0  0  0  0  0
   48.8007  -16.7862   -6.9331 C   0  0  0  0  0  0  0  0  0  0  0  0
   44.5522  -20.1995   -5.8675 C   0  0  0  0  0  0  0  0  0  0  0  0
   47.5457  -15.3938  -12.6802 C   0  0  0  0  0  0  0  0  0  0  0  0
   46.1634  -16.2919  -14.4294 C   0  0  0  0  0  0  0  0  0  0  0  0
   47.8022  -15.0645   -8.3048 C   0  0  0  0  0  0  0  0  0  0  0  0
   42.6922  -19.2735   -7.1039 C   0  0  0  0  0  0  0  0  0  0  0  0
   43.1769  -20.0200   -6.0309 C   0  0  0  0  0  0  0  0  0  0  0  0
   48.7797  -15.4693   -7.3973 C   0  0  0  0  0  0  0  0  0  0  0  0
   47.1483  -20.8623   -6.1017 H   0  0  0  0  0  0  0  0  0  0  0  0
   48.9205  -19.4512   -6.5663 H   0  0  0  0  0  0  0  0  0  0  0  0
   45.0059  -19.2947  -10.4482 H   0  0  0  0  0  0  0  0  0  0  0  0
   47.0630  -18.9899  -11.8047 H   0  0  0  0  0  0  0  0  0  0  0  0
   47.6068  -17.6227  -10.8092 H   0  0  0  0  0  0  0  0  0  0  0  0
   46.0959  -15.6459   -9.4579 H   0  0  0  0  0  0  0  0  0  0  0  0
   43.1899  -18.1293   -8.8466 H   0  0  0  0  0  0  0  0  0  0  0  0
   45.4467  -16.3589  -11.6117 H   0  0  0  0  0  0  0  0  0  0  0  0
   45.1567  -17.7684  -12.6692 H   0  0  0  0  0  0  0  0  0  0  0  0
   49.5640  -17.0782   -6.2217 H   0  0  0  0  0  0  0  0  0  0  0  0
   44.9069  -20.7945   -5.0344 H   0  0  0  0  0  0  0  0  0  0  0  0
   48.1081  -15.6092  -11.7486 H   0  0  0  0  0  0  0  0  0  0  0  0
   46.8060  -14.5879  -12.4738 H   0  0  0  0  0  0  0  0  0  0  0  0
   48.2834  -15.0222  -13.4235 H   0  0  0  0  0  0  0  0  0  0  0  0
   46.8577  -15.8572  -15.1807 H   0  0  0  0  0  0  0  0  0  0  0  0
   45.7445  -17.2196  -14.8752 H   0  0  0  0  0  0  0  0  0  0  0  0
   45.3352  -15.5727  -14.2394 H   0  0  0  0  0  0  0  0  0  0  0  0
   47.7795  -14.0409   -8.6554 H   0  0  0  0  0  0  0  0  0  0  0  0
   41.6259  -19.1374   -7.2307 H   0  0  0  0  0  0  0  0  0  0  0  0
   42.4859  -20.4664   -5.3275 H   0  0  0  0  0  0  0  0  0  0  0  0
   49.5192  -14.7606   -7.0475 H   0  0  0  0  0  0  0  0  0  0  0  0
  2  1  1  0
  3  1  1  0
  4  6  1  0
  5  7  1  0
  6  2  2  0
  7  3  2  0
  8  1  2  3
  9 13  1  0
 10  8  1  0
 11  3  1  0
 12  2  1  0
 13 10  1  0
 14  7  1  0
 15  6  1  0
 16  9  1  0
 17  9  1  0
 18 11  2  0
 19 12  2  0
 20 19  1  0
 21 18  1  0
  5  4  2  0
 21 14  2  0
 20 15  2  0
  4 22  1  0
  5 23  1  0
  8 24  1  0
 10 25  1  0
 10 26  1  0
 11 27  1  0
 12 28  1  0
 13 29  1  0
 13 30  1  0
 14 31  1  0
 15 32  1  0
 16 33  1  0
 16 34  1  0
 16 35  1  0
 17 36  1  0
 17 37  1  0
 17 38  1  0
 18 39  1  0
 19 40  1  0
 20 41  1  0
 21 42  1  0
M  END
> <Uni-Dock RESULT> 
ENERGY=   -4.162  LOWER_BOUND=    2.754  UPPER_BOUND=    5.897
INTER + INTRA:          -4.162
INTER:                  -4.162
INTRA:                   0.000
UNBOUND:                 0.000

$$$$

     RDKit          3D

 42 44  0  0  0  0  0  0  0  0999 V2000
   42.6870  -11.8853  -12.3454 C   0  0  0  0  0  0  0  0  0  0  0  0
   41.8587  -11.2507  -11.3091 C   0  0  0  0  0  0  0  0  0  0  0  0
   42.5024  -13.3329  -12.5559 C   0  0  0  0  0  0  0  0  0  0  0  0
   39.7121  -11.9055  -12.5118 C   0  0  0  0  0  0  0  0  0  0  0  0
   40.0637  -13.0028  -13.1994 C   0  0  0  0  0  0  0  0  0  0  0  0
   40.4482  -11.3034  -11.3726 C   0  0  0  0  0  0  0  0  0  0  0  0
   41.2492  -13.8551  -12.9440 C   0  0  0  0  0  0  0  0  0  0  0  0
   43.5602  -11.1410  -13.0536 C   0  0  0  0  0  0  0  0  0  0  0  0
   46.7085  -12.2681  -14.8636 N   0  0  0  0  0  0  0  0  0  0  0  0
   44.4084  -11.6582  -14.1864 C   0  0  0  0  0  0  0  0  0  0  0  0
   43.5792  -14.2083  -12.3283 C   0  0  0  0  0  0  0  0  0  0  0  0
   42.4844  -10.5829  -10.2416 C   0  0  0  0  0  0  0  0  0  0  0  0
   45.8882  -11.6717  -13.7866 C   0  0  0  0  0  0  0  0  0  0  0  0
   41.1271  -15.2365  -13.1747 C   0  0  0  0  0  0  0  0  0  0  0  0
   39.6969  -10.6602  -10.3733 C   0  0  0  0  0  0  0  0  0  0  0  0
   46.7738  -13.7344  -14.7247 C   0  0  0  0  0  0  0  0  0  0  0  0
   48.0722  -11.7149  -14.8357 C   0  0  0  0  0  0  0  0  0  0  0  0
   43.4346  -15.5793  -12.5419 C   0  0  0  0  0  0  0  0  0  0  0  0
   41.7218   -9.9680   -9.2480 C   0  0  0  0  0  0  0  0  0  0  0  0
   40.3298  -10.0059   -9.3141 C   0  0  0  0  0  0  0  0  0  0  0  0
   42.2121  -16.0920  -12.9725 C   0  0  0  0  0  0  0  0  0  0  0  0
   38.7535  -11.4642  -12.7603 H   0  0  0  0  0  0  0  0  0  0  0  0
   39.3590  -13.3566  -13.9435 H   0  0  0  0  0  0  0  0  0  0  0  0
   43.6560  -10.0857  -12.8232 H   0  0  0  0  0  0  0  0  0  0  0  0
   44.2793  -10.9777  -15.0550 H   0  0  0  0  0  0  0  0  0  0  0  0
   44.0761  -12.6602  -14.5222 H   0  0  0  0  0  0  0  0  0  0  0  0
   44.5316  -13.8289  -11.9838 H   0  0  0  0  0  0  0  0  0  0  0  0
   43.5653  -10.5444  -10.1770 H   0  0  0  0  0  0  0  0  0  0  0  0
   46.0317  -12.2125  -12.8242 H   0  0  0  0  0  0  0  0  0  0  0  0
   46.1855  -10.6131  -13.6035 H   0  0  0  0  0  0  0  0  0  0  0  0
   40.1834  -15.6564  -13.5018 H   0  0  0  0  0  0  0  0  0  0  0  0
   38.6142  -10.6660  -10.4126 H   0  0  0  0  0  0  0  0  0  0  0  0
   45.7578  -14.1789  -14.7535 H   0  0  0  0  0  0  0  0  0  0  0  0
   47.2671  -14.0301  -13.7716 H   0  0  0  0  0  0  0  0  0  0  0  0
   47.3415  -14.1725  -15.5737 H   0  0  0  0  0  0  0  0  0  0  0  0
   48.6932  -12.1758  -15.6341 H   0  0  0  0  0  0  0  0  0  0  0  0
   48.0441  -10.6226  -15.0382 H   0  0  0  0  0  0  0  0  0  0  0  0
   48.5576  -11.8903  -13.8494 H   0  0  0  0  0  0  0  0  0  0  0  0
   44.2719  -16.2443  -12.3742 H   0  0  0  0  0  0  0  0  0  0  0  0
   42.2109   -9.4584   -8.4279 H   0  0  0  0  0  0  0  0  0  0  0  0
   39.7391   -9.5218   -8.5472 H   0  0  0  0  0  0  0  0  0  0  0  0
   42.1022  -17.1550  -13.1442 H   0  0  0  0  0  0  0  0  0  0  0  0
  2  1  1  0
  3  1  1  0
  4  6  1  0
  5  7  1  0
  6  2  2  0
  7  3  2  0
  8  1  2  3
  9 13  1  0
 10  8  1  0
 11  3  1  0
 12  2  1  0
 13 10  1  0
 14  7  1  0
 15  6  1  0
 16  9  1  0
 17  9  1  0
 18 11  2  0
 19 12  2  0
 20 19  1  0
 21 18  1  0
  5  4  2  0
 21 14  2  0
 20 15  2  0
  4 22  1  0
  5 23  1  0
  8 24  1  0
 10 25  1  0
 10 26  1  0
 11 27  1  0
 12 28  1  0
 13 29  1  0
 13 30  1  0
 14 31  1  0
 15 32  1  0
 16 33  1  0
 16 34  1  0
 16 35  1  0
 17 36  1  0
 17 37  1  0
 17 38  1  0
 18 39  1  0
 19 40  1  0
 20 41  1  0
 21 42  1  0
M  END
> <Uni-Dock RESULT> 
ENERGY=   -4.142  LOWER_BOUND=    8.253  UPPER_BOUND=   10.283
INTER + INTRA:          -4.142
INTER:                  -4.142
INTRA:                   0.000
UNBOUND:                 0.000

$$$$

     RDKit          3D

 42 44  0  0  0  0  0  0  0  0999 V2000
   47.0466  -16.5212   -9.8072 C   0  0  0  0  0  0  0  0  0  0  0  0
   48.3706  -16.7554   -9.2114 C   0  0  0  0  0  0  0  0  0  0  0  0
   45.9527  -17.4117   -9.3780 C   0  0  0  0  0  0  0  0  0  0  0  0
   47.4790  -16.3231   -6.8659 C   0  0  0  0  0  0  0  0  0  0  0  0
   46.1807  -16.6482   -6.9623 C   0  0  0  0  0  0  0  0  0  0  0  0
   48.5574  -16.7032   -7.8118 C   0  0  0  0  0  0  0  0  0  0  0  0
   45.5611  -17.4778   -8.0230 C   0  0  0  0  0  0  0  0  0  0  0  0
   46.8803  -15.5229  -10.6982 C   0  0  0  0  0  0  0  0  0  0  0  0
   44.2326  -15.1830  -13.4059 N   0  0  0  0  0  0  0  0  0  0  0  0
   45.5634  -15.1380  -11.3208 C   0  0  0  0  0  0  0  0  0  0  0  0
   45.3183  -18.2350  -10.3252 C   0  0  0  0  0  0  0  0  0  0  0  0
   49.4632  -17.0348  -10.0510 C   0  0  0  0  0  0  0  0  0  0  0  0
   45.5580  -15.4731  -12.8166 C   0  0  0  0  0  0  0  0  0  0  0  0
   44.4857  -18.3086   -7.6630 C   0  0  0  0  0  0  0  0  0  0  0  0
   49.8461  -16.9081   -7.2885 C   0  0  0  0  0  0  0  0  0  0  0  0
   43.3272  -16.3373  -13.2590 C   0  0  0  0  0  0  0  0  0  0  0  0
   44.3678  -14.8485  -14.8329 C   0  0  0  0  0  0  0  0  0  0  0  0
   44.2664  -19.0696   -9.9467 C   0  0  0  0  0  0  0  0  0  0  0  0
   50.7310  -17.2558   -9.5115 C   0  0  0  0  0  0  0  0  0  0  0  0
   50.9224  -17.1917   -8.1321 C   0  0  0  0  0  0  0  0  0  0  0  0
   43.8451  -19.1003   -8.6184 C   0  0  0  0  0  0  0  0  0  0  0  0
   47.7826  -15.8018   -5.9650 H   0  0  0  0  0  0  0  0  0  0  0  0
   45.5456  -16.3642   -6.1308 H   0  0  0  0  0  0  0  0  0  0  0  0
   47.7399  -14.9258  -10.9820 H   0  0  0  0  0  0  0  0  0  0  0  0
   45.4300  -14.0416  -11.2000 H   0  0  0  0  0  0  0  0  0  0  0  0
   44.7098  -15.6159  -10.8012 H   0  0  0  0  0  0  0  0  0  0  0  0
   45.6394  -18.2317  -11.3580 H   0  0  0  0  0  0  0  0  0  0  0  0
   49.3302  -17.0872  -11.1250 H   0  0  0  0  0  0  0  0  0  0  0  0
   45.8500  -16.5343  -12.9839 H   0  0  0  0  0  0  0  0  0  0  0  0
   46.3480  -14.8475  -13.2932 H   0  0  0  0  0  0  0  0  0  0  0  0
   44.1480  -18.3535   -6.6344 H   0  0  0  0  0  0  0  0  0  0  0  0
   50.0196  -16.8496   -6.2207 H   0  0  0  0  0  0  0  0  0  0  0  0
   43.1988  -16.6042  -12.1899 H   0  0  0  0  0  0  0  0  0  0  0  0
   43.7119  -17.2269  -13.8064 H   0  0  0  0  0  0  0  0  0  0  0  0
   42.3190  -16.0829  -13.6510 H   0  0  0  0  0  0  0  0  0  0  0  0
   43.3701  -14.6474  -15.2796 H   0  0  0  0  0  0  0  0  0  0  0  0
   44.9678  -13.9207  -14.9512 H   0  0  0  0  0  0  0  0  0  0  0  0
   44.8590  -15.6743  -15.3951 H   0  0  0  0  0  0  0  0  0  0  0  0
   43.7771  -19.6920  -10.6846 H   0  0  0  0  0  0  0  0  0  0  0  0
   51.5666  -17.4732  -10.1643 H   0  0  0  0  0  0  0  0  0  0  0  0
   51.9078  -17.3553   -7.7152 H   0  0  0  0  0  0  0  0  0  0  0  0
   43.0248  -19.7432   -8.3263 H   0  0  0  0  0  0  0  0  0  0  0  0
  2  1  1  0
  3  1  1  0
  4  6  1  0
  5  7  1  0
  6  2  2  0
  7  3  2  0
  8  1  2  3
  9 13  1  0
 10  8  1  0
 11  3  1  0
 12  2  1  0
 13 10  1  0
 14  7  1  0
 15  6  1  0
 16  9  1  0
 17  9  1  0
 18 11  2  0
 19 12  2  0
 20 19  1  0
 21 18  1  0
  5  4  2  0
 21 14  2  0
 20 15  2  0
  4 22  1  0
  5 23  1  0
  8 24  1  0
 10 25  1  0
 10 26  1  0
 11 27  1  0
 12 28  1  0
 13 29  1  0
 13 30  1  0
 14 31  1  0
 15 32  1  0
 16 33  1  0
 16 34  1  0
 16 35  1  0
 17 36  1  0
 17 37  1  0
 17 38  1  0
 18 39  1  0
 19 40  1  0
 20 41  1  0
 21 42  1  0
M  END
> <Uni-Dock RESULT> 
ENERGY=   -3.947  LOWER_BOUND=    3.259  UPPER_BOUND=    4.385
INTER + INTRA:          -3.947
INTER:                  -3.947
INTRA:                   0.000
UNBOUND:                 0.000

$$$$

     RDKit          3D

 42 44  0  0  0  0  0  0  0  0999 V2000
   43.2902  -14.4772  -13.3073 C   0  0  0  0  0  0  0  0  0  0  0  0
   41.9787  -13.9548  -12.8951 C   0  0  0  0  0  0  0  0  0  0  0  0
   43.8044  -15.6485  -12.5742 C   0  0  0  0  0  0  0  0  0  0  0  0
   40.8376  -16.1635  -13.4451 C   0  0  0  0  0  0  0  0  0  0  0  0
   41.8203  -17.0655  -13.2998 C   0  0  0  0  0  0  0  0  0  0  0  0
   40.8285  -14.7750  -12.9215 C   0  0  0  0  0  0  0  0  0  0  0  0
   43.0906  -16.8668  -12.5623 C   0  0  0  0  0  0  0  0  0  0  0  0
   43.9584  -13.8869  -14.3188 C   0  0  0  0  0  0  0  0  0  0  0  0
   47.6962  -13.9045  -15.0159 N   0  0  0  0  0  0  0  0  0  0  0  0
   45.2704  -14.3709  -14.8795 C   0  0  0  0  0  0  0  0  0  0  0  0
   45.0016  -15.5378  -11.8448 C   0  0  0  0  0  0  0  0  0  0  0  0
   41.8732  -12.6189  -12.4694 C   0  0  0  0  0  0  0  0  0  0  0  0
   46.3937  -13.3820  -14.5480 C   0  0  0  0  0  0  0  0  0  0  0  0
   43.6371  -17.9715  -11.8857 C   0  0  0  0  0  0  0  0  0  0  0  0
   39.5911  -14.2253  -12.5431 C   0  0  0  0  0  0  0  0  0  0  0  0
   48.3123  -14.7724  -13.9957 C   0  0  0  0  0  0  0  0  0  0  0  0
   48.6114  -12.7950  -15.3286 C   0  0  0  0  0  0  0  0  0  0  0  0
   45.5188  -16.6385  -11.1614 C   0  0  0  0  0  0  0  0  0  0  0  0
   40.6398  -12.0970  -12.0778 C   0  0  0  0  0  0  0  0  0  0  0  0
   39.5000  -12.8989  -12.1154 C   0  0  0  0  0  0  0  0  0  0  0  0
   44.8415  -17.8564  -11.1885 C   0  0  0  0  0  0  0  0  0  0  0  0
   39.9271  -16.5109  -13.9204 H   0  0  0  0  0  0  0  0  0  0  0  0
   41.6205  -18.0655  -13.6678 H   0  0  0  0  0  0  0  0  0  0  0  0
   43.5249  -13.0134  -14.7933 H   0  0  0  0  0  0  0  0  0  0  0  0
   45.1708  -14.4412  -15.9838 H   0  0  0  0  0  0  0  0  0  0  0  0
   45.5170  -15.3901  -14.5223 H   0  0  0  0  0  0  0  0  0  0  0  0
   45.5345  -14.5975  -11.8042 H   0  0  0  0  0  0  0  0  0  0  0  0
   42.7500  -11.9833  -12.4354 H   0  0  0  0  0  0  0  0  0  0  0  0
   46.4161  -13.1621  -13.4569 H   0  0  0  0  0  0  0  0  0  0  0  0
   46.1453  -12.4236  -15.0601 H   0  0  0  0  0  0  0  0  0  0  0  0
   43.1223  -18.9249  -11.8874 H   0  0  0  0  0  0  0  0  0  0  0  0
   38.6907  -14.8269  -12.5776 H   0  0  0  0  0  0  0  0  0  0  0  0
   47.6465  -15.6248  -13.7489 H   0  0  0  0  0  0  0  0  0  0  0  0
   48.5322  -14.2078  -13.0618 H   0  0  0  0  0  0  0  0  0  0  0  0
   49.2590  -15.2050  -14.3850 H   0  0  0  0  0  0  0  0  0  0  0  0
   49.5957  -13.1879  -15.6637 H   0  0  0  0  0  0  0  0  0  0  0  0
   48.2032  -12.1892  -16.1660 H   0  0  0  0  0  0  0  0  0  0  0  0
   48.7638  -12.1372  -14.4435 H   0  0  0  0  0  0  0  0  0  0  0  0
   46.4464  -16.5468  -10.6113 H   0  0  0  0  0  0  0  0  0  0  0  0
   40.5672  -11.0685  -11.7485 H   0  0  0  0  0  0  0  0  0  0  0  0
   38.5423  -12.4908  -11.8192 H   0  0  0  0  0  0  0  0  0  0  0  0
   45.2464  -18.7119  -10.6633 H   0  0  0  0  0  0  0  0  0  0  0  0
  2  1  1  0
  3  1  1  0
  4  6  1  0
  5  7  1  0
  6  2  2  0
  7  3  2  0
  8  1  2  3
  9 13  1  0
 10  8  1  0
 11  3  1  0
 12  2  1  0
 13 10  1  0
 14  7  1  0
 15  6  1  0
 16  9  1  0
 17  9  1  0
 18 11  2  0
 19 12  2  0
 20 19  1  0
 21 18  1  0
  5  4  2  0
 21 14  2  0
 20 15  2  0
  4 22  1  0
  5 23  1  0
  8 24  1  0
 10 25  1  0
 10 26  1  0
 11 27  1  0
 12 28  1  0
 13 29  1  0
 13 30  1  0
 14 31  1  0
 15 32  1  0
 16 33  1  0
 16 34  1  0
 16 35  1  0
 17 36  1  0
 17 37  1  0
 17 38  1  0
 18 39  1  0
 19 40  1  0
 20 41  1  0
 21 42  1  0
M  END
> <Uni-Dock RESULT> 
ENERGY=   -3.931  LOWER_BOUND=    6.707  UPPER_BOUND=    9.623
INTER + INTRA:          -3.931
INTER:                  -3.931
INTRA:                   0.000
UNBOUND:                 0.000

$$$$
