
     RDKit          3D

 42 44  0  0  0  0  0  0  0  0999 V2000
   48.6144  -16.9621   -7.9657 C   0  0  0  0  0  0  0  0  0  0  0  0
   49.6292  -16.1483   -7.2796 C   0  0  0  0  0  0  0  0  0  0  0  0
   47.8549  -17.9177   -7.1401 C   0  0  0  0  0  0  0  0  0  0  0  0
   50.9205  -18.2224   -6.5631 C   0  0  0  0  0  0  0  0  0  0  0  0
   49.9757  -19.1740   -6.5137 C   0  0  0  0  0  0  0  0  0  0  0  0
   50.6959  -16.7555   -6.5797 C   0  0  0  0  0  0  0  0  0  0  0  0
   48.5122  -18.9516   -6.4383 C   0  0  0  0  0  0  0  0  0  0  0  0
   48.4227  -16.8126   -9.2915 C   0  0  0  0  0  0  0  0  0  0  0  0
   46.8358  -15.6677  -11.5013 N   0  0  0  0  0  0  0  0  0  0  0  0
   47.4824  -17.6429  -10.1293 C   0  0  0  0  0  0  0  0  0  0  0  0
   46.4634  -17.7645   -7.0089 C   0  0  0  0  0  0  0  0  0  0  0  0
   49.5330  -14.7463   -7.3254 C   0  0  0  0  0  0  0  0  0  0  0  0
   46.3306  -16.7919  -10.6806 C   0  0  0  0  0  0  0  0  0  0  0  0
   47.7469  -19.8612   -5.6879 C   0  0  0  0  0  0  0  0  0  0  0  0
   51.6582  -15.9377   -5.9618 C   0  0  0  0  0  0  0  0  0  0  0  0
   47.0935  -16.0961  -12.8873 C   0  0  0  0  0  0  0  0  0  0  0  0
   45.8663  -14.5605  -11.5032 C   0  0  0  0  0  0  0  0  0  0  0  0
   45.7218  -18.6625   -6.2406 C   0  0  0  0  0  0  0  0  0  0  0  0
   50.4865  -13.9513   -6.6884 C   0  0  0  0  0  0  0  0  0  0  0  0
   51.5482  -14.5461   -6.0081 C   0  0  0  0  0  0  0  0  0  0  0  0
   46.3617  -19.7152   -5.5880 C   0  0  0  0  0  0  0  0  0  0  0  0
   51.9498  -18.5572   -6.5012 H   0  0  0  0  0  0  0  0  0  0  0  0
   50.3205  -20.1970   -6.4134 H   0  0  0  0  0  0  0  0  0  0  0  0
   49.0133  -16.0740   -9.8224 H   0  0  0  0  0  0  0  0  0  0  0  0
   48.0596  -18.0901  -10.9642 H   0  0  0  0  0  0  0  0  0  0  0  0
   47.0601  -18.4968   -9.5606 H   0  0  0  0  0  0  0  0  0  0  0  0
   45.9533  -16.9459   -7.4993 H   0  0  0  0  0  0  0  0  0  0  0  0
   48.7145  -14.2697   -7.8514 H   0  0  0  0  0  0  0  0  0  0  0  0
   45.6382  -17.4394  -11.2653 H   0  0  0  0  0  0  0  0  0  0  0  0
   45.7498  -16.4152   -9.8093 H   0  0  0  0  0  0  0  0  0  0  0  0
   48.2259  -20.6805   -5.1652 H   0  0  0  0  0  0  0  0  0  0  0  0
   52.4984  -16.3790   -5.4393 H   0  0  0  0  0  0  0  0  0  0  0  0
   46.1627  -16.4552  -13.3806 H   0  0  0  0  0  0  0  0  0  0  0  0
   47.5089  -15.2507  -13.4771 H   0  0  0  0  0  0  0  0  0  0  0  0
   47.8515  -16.9056  -12.9119 H   0  0  0  0  0  0  0  0  0  0  0  0
   45.7383  -14.1648  -10.4726 H   0  0  0  0  0  0  0  0  0  0  0  0
   44.8775  -14.8924  -11.8920 H   0  0  0  0  0  0  0  0  0  0  0  0
   46.2398  -13.7200  -12.1276 H   0  0  0  0  0  0  0  0  0  0  0  0
   44.6498  -18.5422   -6.1518 H   0  0  0  0  0  0  0  0  0  0  0  0
   50.4043  -12.8727   -6.7258 H   0  0  0  0  0  0  0  0  0  0  0  0
   52.2917  -13.9285   -5.5212 H   0  0  0  0  0  0  0  0  0  0  0  0
   45.7850  -20.4153   -4.9975 H   0  0  0  0  0  0  0  0  0  0  0  0
  2  1  1  0
  3  1  1  0
  4  6  1  0
  5  7  1  0
  6  2  2  0
  7  3  2  0
  8  1  2  3
  9 13  1  0
 10  8  1  0
 11  3  1  0
 12  2  1  0
 13 10  1  0
 14  7  1  0
 15  6  1  0
 16  9  1  0
 17  9  1  0
 18 11  2  0
 19 12  2  0
 20 19  1  0
 21 18  1  0
  5  4  2  0
 21 14  2  0
 20 15  2  0
  4 22  1  0
  5 23  1  0
  8 24  1  0
 10 25  1  0
 10 26  1  0
 11 27  1  0
 12 28  1  0
 13 29  1  0
 13 30  1  0
 14 31  1  0
 15 32  1  0
 16 33  1  0
 16 34  1  0
 16 35  1  0
 17 36  1  0
 17 37  1  0
 17 38  1  0
 18 39  1  0
 19 40  1  0
 20 41  1  0
 21 42  1  0
M  END
> <Uni-Dock RESULT> 
ENERGY=   -5.219  LOWER_BOUND=    0.000  UPPER_BOUND=    0.000
INTER + INTRA:          -5.219
INTER:                  -5.219
INTRA:                   0.000
UNBOUND:                 0.000

$$$$

     RDKit          3D

 42 44  0  0  0  0  0  0  0  0999 V2000
   49.9010  -16.9277   -8.5091 C   0  0  0  0  0  0  0  0  0  0  0  0
   48.5202  -16.8516   -8.0086 C   0  0  0  0  0  0  0  0  0  0  0  0
   50.9788  -16.8744   -7.5056 C   0  0  0  0  0  0  0  0  0  0  0  0
   48.9340  -14.5561   -6.9878 C   0  0  0  0  0  0  0  0  0  0  0  0
   50.2533  -14.5591   -6.7428 C   0  0  0  0  0  0  0  0  0  0  0  0
   48.0823  -15.7428   -7.2504 C   0  0  0  0  0  0  0  0  0  0  0  0
   51.1253  -15.7548   -6.6580 C   0  0  0  0  0  0  0  0  0  0  0  0
   50.1265  -17.0361   -9.8337 C   0  0  0  0  0  0  0  0  0  0  0  0
   50.7813  -18.7393  -12.1537 N   0  0  0  0  0  0  0  0  0  0  0  0
   51.4880  -17.0329  -10.4831 C   0  0  0  0  0  0  0  0  0  0  0  0
   51.8395  -17.9761   -7.3564 C   0  0  0  0  0  0  0  0  0  0  0  0
   47.6266  -17.8993   -8.2931 C   0  0  0  0  0  0  0  0  0  0  0  0
   51.7962  -18.3877  -11.1344 C   0  0  0  0  0  0  0  0  0  0  0  0
   52.1864  -15.7303   -5.7363 C   0  0  0  0  0  0  0  0  0  0  0  0
   46.7458  -15.6998   -6.8160 C   0  0  0  0  0  0  0  0  0  0  0  0
   51.0964  -18.1190  -13.4525 C   0  0  0  0  0  0  0  0  0  0  0  0
   50.7034  -20.2000  -12.3146 C   0  0  0  0  0  0  0  0  0  0  0  0
   52.8732  -17.9449   -6.4198 C   0  0  0  0  0  0  0  0  0  0  0  0
   46.3093  -17.8484   -7.8355 C   0  0  0  0  0  0  0  0  0  0  0  0
   45.8692  -16.7498   -7.0986 C   0  0  0  0  0  0  0  0  0  0  0  0
   53.0521  -16.8195   -5.6167 C   0  0  0  0  0  0  0  0  0  0  0  0
   48.4272  -13.6015   -6.9034 H   0  0  0  0  0  0  0  0  0  0  0  0
   50.7012  -13.6078   -6.4787 H   0  0  0  0  0  0  0  0  0  0  0  0
   49.2752  -17.0854  -10.5038 H   0  0  0  0  0  0  0  0  0  0  0  0
   51.5096  -16.2290  -11.2469 H   0  0  0  0  0  0  0  0  0  0  0  0
   52.2941  -16.7877   -9.7613 H   0  0  0  0  0  0  0  0  0  0  0  0
   51.7067  -18.8618   -7.9636 H   0  0  0  0  0  0  0  0  0  0  0  0
   47.9537  -18.7588   -8.8658 H   0  0  0  0  0  0  0  0  0  0  0  0
   52.8190  -18.3633  -11.5746 H   0  0  0  0  0  0  0  0  0  0  0  0
   51.8205  -19.1483  -10.3223 H   0  0  0  0  0  0  0  0  0  0  0  0
   52.3370  -14.8693   -5.0961 H   0  0  0  0  0  0  0  0  0  0  0  0
   46.3795  -14.8494   -6.2535 H   0  0  0  0  0  0  0  0  0  0  0  0
   52.0755  -18.4742  -13.8448 H   0  0  0  0  0  0  0  0  0  0  0  0
   50.3041  -18.3610  -14.1933 H   0  0  0  0  0  0  0  0  0  0  0  0
   51.1223  -17.0138  -13.3621 H   0  0  0  0  0  0  0  0  0  0  0  0
   50.3707  -20.6705  -11.3643 H   0  0  0  0  0  0  0  0  0  0  0  0
   51.6896  -20.6256  -12.6067 H   0  0  0  0  0  0  0  0  0  0  0  0
   49.9492  -20.4647  -13.0872 H   0  0  0  0  0  0  0  0  0  0  0  0
   53.5365  -18.7941   -6.3172 H   0  0  0  0  0  0  0  0  0  0  0  0
   45.6280  -18.6599   -8.0562 H   0  0  0  0  0  0  0  0  0  0  0  0
   44.8451  -16.7076   -6.7511 H   0  0  0  0  0  0  0  0  0  0  0  0
   53.8583  -16.7933   -4.8950 H   0  0  0  0  0  0  0  0  0  0  0  0
  2  1  1  0
  3  1  1  0
  4  6  1  0
  5  7  1  0
  6  2  2  0
  7  3  2  0
  8  1  2  3
  9 13  1  0
 10  8  1  0
 11  3  1  0
 12  2  1  0
 13 10  1  0
 14  7  1  0
 15  6  1  0
 16  9  1  0
 17  9  1  0
 18 11  2  0
 19 12  2  0
 20 19  1  0
 21 18  1  0
  5  4  2  0
 21 14  2  0
 20 15  2  0
  4 22  1  0
  5 23  1  0
  8 24  1  0
 10 25  1  0
 10 26  1  0
 11 27  1  0
 12 28  1  0
 13 29  1  0
 13 30  1  0
 14 31  1  0
 15 32  1  0
 16 33  1  0
 16 34  1  0
 16 35  1  0
 17 36  1  0
 17 37  1  0
 17 38  1  0
 18 39  1  0
 19 40  1  0
 20 41  1  0
 21 42  1  0
M  END
> <Uni-Dock RESULT> 
ENERGY=   -4.867  LOWER_BOUND=    2.452  UPPER_BOUND=    4.957
INTER + INTRA:          -4.867
INTER:                  -4.867
INTRA:                   0.000
UNBOUND:                 0.000

$$$$

     RDKit          3D

 42 44  0  0  0  0  0  0  0  0999 V2000
   50.0806  -17.8573   -8.0847 C   0  0  0  0  0  0  0  0  0  0  0  0
   51.0301  -18.0534   -6.9789 C   0  0  0  0  0  0  0  0  0  0  0  0
   48.7820  -17.2466   -7.7494 C   0  0  0  0  0  0  0  0  0  0  0  0
   49.4037  -19.5786   -5.7495 C   0  0  0  0  0  0  0  0  0  0  0  0
   48.2029  -19.1638   -6.1816 C   0  0  0  0  0  0  0  0  0  0  0  0
   50.6844  -18.8361   -5.8546 C   0  0  0  0  0  0  0  0  0  0  0  0
   47.9067  -17.8639   -6.8294 C   0  0  0  0  0  0  0  0  0  0  0  0
   50.4205  -18.2371   -9.3326 C   0  0  0  0  0  0  0  0  0  0  0  0
   51.3917  -17.5011  -12.0209 N   0  0  0  0  0  0  0  0  0  0  0  0
   49.5108  -18.1753  -10.5343 C   0  0  0  0  0  0  0  0  0  0  0  0
   48.4347  -16.0067   -8.3142 C   0  0  0  0  0  0  0  0  0  0  0  0
   52.2995  -17.4526   -7.0474 C   0  0  0  0  0  0  0  0  0  0  0  0
   50.0232  -17.1631  -11.5676 C   0  0  0  0  0  0  0  0  0  0  0  0
   46.6637  -17.2643   -6.5619 C   0  0  0  0  0  0  0  0  0  0  0  0
   51.6339  -19.0187   -4.8339 C   0  0  0  0  0  0  0  0  0  0  0  0
   51.3604  -18.4943  -13.1088 C   0  0  0  0  0  0  0  0  0  0  0  0
   52.0905  -16.2910  -12.4825 C   0  0  0  0  0  0  0  0  0  0  0  0
   47.2067  -15.4138   -8.0192 C   0  0  0  0  0  0  0  0  0  0  0  0
   53.2212  -17.6285   -6.0147 C   0  0  0  0  0  0  0  0  0  0  0  0
   52.8892  -18.4111   -4.9097 C   0  0  0  0  0  0  0  0  0  0  0  0
   46.3181  -16.0463   -7.1509 C   0  0  0  0  0  0  0  0  0  0  0  0
   49.4246  -20.5105   -5.1961 H   0  0  0  0  0  0  0  0  0  0  0  0
   47.3545  -19.7936   -5.9390 H   0  0  0  0  0  0  0  0  0  0  0  0
   51.4039  -18.6641   -9.4965 H   0  0  0  0  0  0  0  0  0  0  0  0
   49.4578  -19.1871  -10.9856 H   0  0  0  0  0  0  0  0  0  0  0  0
   48.4696  -17.9118  -10.2565 H   0  0  0  0  0  0  0  0  0  0  0  0
   49.1180  -15.4972   -8.9806 H   0  0  0  0  0  0  0  0  0  0  0  0
   52.5723  -16.8429   -7.9004 H   0  0  0  0  0  0  0  0  0  0  0  0
   49.3136  -17.1171  -12.4249 H   0  0  0  0  0  0  0  0  0  0  0  0
   50.0027  -16.1594  -11.0872 H   0  0  0  0  0  0  0  0  0  0  0  0
   45.9628  -17.7346   -5.8825 H   0  0  0  0  0  0  0  0  0  0  0  0
   51.4015  -19.6337   -3.9729 H   0  0  0  0  0  0  0  0  0  0  0  0
   50.8191  -18.1036  -13.9994 H   0  0  0  0  0  0  0  0  0  0  0  0
   52.3957  -18.7649  -13.4085 H   0  0  0  0  0  0  0  0  0  0  0  0
   50.8710  -19.4303  -12.7700 H   0  0  0  0  0  0  0  0  0  0  0  0
   52.2060  -15.5739  -11.6413 H   0  0  0  0  0  0  0  0  0  0  0  0
   51.5341  -15.7962  -13.3100 H   0  0  0  0  0  0  0  0  0  0  0  0
   53.1144  -16.5452  -12.8329 H   0  0  0  0  0  0  0  0  0  0  0  0
   46.9436  -14.4632   -8.4650 H   0  0  0  0  0  0  0  0  0  0  0  0
   54.1955  -17.1606   -6.0733 H   0  0  0  0  0  0  0  0  0  0  0  0
   53.6078  -18.5534   -4.1130 H   0  0  0  0  0  0  0  0  0  0  0  0
   45.3629  -15.5890   -6.9277 H   0  0  0  0  0  0  0  0  0  0  0  0
  2  1  1  0
  3  1  1  0
  4  6  1  0
  5  7  1  0
  6  2  2  0
  7  3  2  0
  8  1  2  3
  9 13  1  0
 10  8  1  0
 11  3  1  0
 12  2  1  0
 13 10  1  0
 14  7  1  0
 15  6  1  0
 16  9  1  0
 17  9  1  0
 18 11  2  0
 19 12  2  0
 20 19  1  0
 21 18  1  0
  5  4  2  0
 21 14  2  0
 20 15  2  0
  4 22  1  0
  5 23  1  0
  8 24  1  0
 10 25  1  0
 10 26  1  0
 11 27  1  0
 12 28  1  0
 13 29  1  0
 13 30  1  0
 14 31  1  0
 15 32  1  0
 16 33  1  0
 16 34  1  0
 16 35  1  0
 17 36  1  0
 17 37  1  0
 17 38  1  0
 18 39  1  0
 19 40  1  0
 20 41  1  0
 21 42  1  0
M  END
> <Uni-Dock RESULT> 
ENERGY=   -4.521  LOWER_BOUND=    2.431  UPPER_BOUND=    3.489
INTER + INTRA:          -4.521
INTER:                  -4.521
INTRA:                   0.000
UNBOUND:                 0.000

$$$$

     RDKit          3D

 42 44  0  0  0  0  0  0  0  0999 V2000
   49.1795  -17.5315   -7.9041 C   0  0  0  0  0  0  0  0  0  0  0  0
   48.7965  -17.0453   -9.2381 C   0  0  0  0  0  0  0  0  0  0  0  0
   48.1325  -18.1995   -7.1108 C   0  0  0  0  0  0  0  0  0  0  0  0
   47.0332  -15.4953   -8.2524 C   0  0  0  0  0  0  0  0  0  0  0  0
   46.6972  -16.0997   -7.1024 C   0  0  0  0  0  0  0  0  0  0  0  0
   47.7478  -16.1119   -9.3977 C   0  0  0  0  0  0  0  0  0  0  0  0
   46.9489  -17.5180   -6.7528 C   0  0  0  0  0  0  0  0  0  0  0  0
   50.4404  -17.3501   -7.4634 C   0  0  0  0  0  0  0  0  0  0  0  0
   53.1367  -18.4562   -6.9955 N   0  0  0  0  0  0  0  0  0  0  0  0
   50.9381  -17.7183   -6.0878 C   0  0  0  0  0  0  0  0  0  0  0  0
   48.2929  -19.5492   -6.7513 C   0  0  0  0  0  0  0  0  0  0  0  0
   49.4881  -17.5177  -10.3674 C   0  0  0  0  0  0  0  0  0  0  0  0
   51.9796  -18.8431   -6.1563 C   0  0  0  0  0  0  0  0  0  0  0  0
   45.9896  -18.1817   -5.9682 C   0  0  0  0  0  0  0  0  0  0  0  0
   47.4343  -15.6541  -10.6895 C   0  0  0  0  0  0  0  0  0  0  0  0
   54.1212  -17.6831   -6.2183 C   0  0  0  0  0  0  0  0  0  0  0  0
   53.7850  -19.6530   -7.5549 C   0  0  0  0  0  0  0  0  0  0  0  0
   47.3197  -20.2000   -5.9923 C   0  0  0  0  0  0  0  0  0  0  0  0
   49.1487  -17.0672  -11.6436 C   0  0  0  0  0  0  0  0  0  0  0  0
   48.1237  -16.1360  -11.8045 C   0  0  0  0  0  0  0  0  0  0  0  0
   46.1733  -19.5143   -5.5934 C   0  0  0  0  0  0  0  0  0  0  0  0
   46.6743  -14.4817   -8.3904 H   0  0  0  0  0  0  0  0  0  0  0  0
   46.0932  -15.5252   -6.4093 H   0  0  0  0  0  0  0  0  0  0  0  0
   51.1549  -16.8629   -8.1178 H   0  0  0  0  0  0  0  0  0  0  0  0
   51.3827  -16.8147   -5.6231 H   0  0  0  0  0  0  0  0  0  0  0  0
   50.1130  -18.0309   -5.4153 H   0  0  0  0  0  0  0  0  0  0  0  0
   49.1712  -20.0990   -7.0630 H   0  0  0  0  0  0  0  0  0  0  0  0
   50.2879  -18.2403  -10.2580 H   0  0  0  0  0  0  0  0  0  0  0  0
   52.3014  -19.1137   -5.1250 H   0  0  0  0  0  0  0  0  0  0  0  0
   51.4715  -19.7408   -6.5738 H   0  0  0  0  0  0  0  0  0  0  0  0
   45.0872  -17.6698   -5.6559 H   0  0  0  0  0  0  0  0  0  0  0  0
   46.6503  -14.9208  -10.8358 H   0  0  0  0  0  0  0  0  0  0  0  0
   54.5291  -18.2801   -5.3722 H   0  0  0  0  0  0  0  0  0  0  0  0
   54.9620  -17.3680   -6.8732 H   0  0  0  0  0  0  0  0  0  0  0  0
   53.6627  -16.7555   -5.8187 H   0  0  0  0  0  0  0  0  0  0  0  0
   53.0786  -20.1917   -8.2225 H   0  0  0  0  0  0  0  0  0  0  0  0
   54.1222  -20.3420   -6.7482 H   0  0  0  0  0  0  0  0  0  0  0  0
   54.6602  -19.3643   -8.1766 H   0  0  0  0  0  0  0  0  0  0  0  0
   47.4551  -21.2368   -5.7127 H   0  0  0  0  0  0  0  0  0  0  0  0
   49.6840  -17.4375  -12.5085 H   0  0  0  0  0  0  0  0  0  0  0  0
   47.8666  -15.7811  -12.7942 H   0  0  0  0  0  0  0  0  0  0  0  0
   45.4218  -20.0177   -4.9990 H   0  0  0  0  0  0  0  0  0  0  0  0
  2  1  1  0
  3  1  1  0
  4  6  1  0
  5  7  1  0
  6  2  2  0
  7  3  2  0
  8  1  2  3
  9 13  1  0
 10  8  1  0
 11  3  1  0
 12  2  1  0
 13 10  1  0
 14  7  1  0
 15  6  1  0
 16  9  1  0
 17  9  1  0
 18 11  2  0
 19 12  2  0
 20 19  1  0
 21 18  1  0
  5  4  2  0
 21 14  2  0
 20 15  2  0
  4 22  1  0
  5 23  1  0
  8 24  1  0
 10 25  1  0
 10 26  1  0
 11 27  1  0
 12 28  1  0
 13 29  1  0
 13 30  1  0
 14 31  1  0
 15 32  1  0
 16 33  1  0
 16 34  1  0
 16 35  1  0
 17 36  1  0
 17 37  1  0
 17 38  1  0
 18 39  1  0
 19 40  1  0
 20 41  1  0
 21 42  1  0
M  END
> <Uni-Dock RESULT> 
ENERGY=   -4.288  LOWER_BOUND=    2.422  UPPER_BOUND=    5.316
INTER + INTRA:          -4.288
INTER:                  -4.288
INTRA:                   0.000
UNBOUND:                 0.000

$$$$

     RDKit          3D

 42 44  0  0  0  0  0  0  0  0999 V2000
   50.3868  -18.6458   -6.9549 C   0  0  0  0  0  0  0  0  0  0  0  0
   50.7171  -19.0926   -5.5933 C   0  0  0  0  0  0  0  0  0  0  0  0
   49.2496  -17.7193   -7.0961 C   0  0  0  0  0  0  0  0  0  0  0  0
   48.4193  -20.1490   -5.2986 C   0  0  0  0  0  0  0  0  0  0  0  0
   47.6402  -19.4309   -6.1219 C   0  0  0  0  0  0  0  0  0  0  0  0
   49.7632  -19.7668   -4.7984 C   0  0  0  0  0  0  0  0  0  0  0  0
   47.9537  -18.0935   -6.6790 C   0  0  0  0  0  0  0  0  0  0  0  0
   51.1138  -19.0911   -7.9990 C   0  0  0  0  0  0  0  0  0  0  0  0
   53.2550  -18.6129   -9.9735 N   0  0  0  0  0  0  0  0  0  0  0  0
   50.8268  -18.7835   -9.4476 C   0  0  0  0  0  0  0  0  0  0  0  0
   49.4696  -16.4272   -7.6049 C   0  0  0  0  0  0  0  0  0  0  0  0
   52.0027  -18.8445   -5.0806 C   0  0  0  0  0  0  0  0  0  0  0  0
   51.9433  -17.9322  -10.0667 C   0  0  0  0  0  0  0  0  0  0  0  0
   46.8907  -17.1917   -6.8610 C   0  0  0  0  0  0  0  0  0  0  0  0
   50.1320  -20.1999   -3.5126 C   0  0  0  0  0  0  0  0  0  0  0  0
   53.4452  -19.5543  -11.0908 C   0  0  0  0  0  0  0  0  0  0  0  0
   54.3450  -17.6241   -9.9752 C   0  0  0  0  0  0  0  0  0  0  0  0
   48.4070  -15.5359   -7.7569 C   0  0  0  0  0  0  0  0  0  0  0  0
   52.3436  -19.2639   -3.7942 C   0  0  0  0  0  0  0  0  0  0  0  0
   51.4098  -19.9414   -3.0114 C   0  0  0  0  0  0  0  0  0  0  0  0
   47.1172  -15.9209   -7.3937 C   0  0  0  0  0  0  0  0  0  0  0  0
   47.9893  -21.0585   -4.8946 H   0  0  0  0  0  0  0  0  0  0  0  0
   46.6457  -19.8186   -6.3119 H   0  0  0  0  0  0  0  0  0  0  0  0
   51.9460  -19.7592   -7.8060 H   0  0  0  0  0  0  0  0  0  0  0  0
   50.7296  -19.7424   -9.9965 H   0  0  0  0  0  0  0  0  0  0  0  0
   49.8580  -18.2590   -9.5789 H   0  0  0  0  0  0  0  0  0  0  0  0
   50.4664  -16.1088   -7.8803 H   0  0  0  0  0  0  0  0  0  0  0  0
   52.7394  -18.3204   -5.6776 H   0  0  0  0  0  0  0  0  0  0  0  0
   51.6857  -17.6951  -11.1241 H   0  0  0  0  0  0  0  0  0  0  0  0
   51.9619  -16.9622   -9.5216 H   0  0  0  0  0  0  0  0  0  0  0  0
   45.8824  -17.4678   -6.5763 H   0  0  0  0  0  0  0  0  0  0  0  0
   49.4262  -20.7397   -2.8928 H   0  0  0  0  0  0  0  0  0  0  0  0
   53.4303  -19.0282  -12.0715 H   0  0  0  0  0  0  0  0  0  0  0  0
   54.4161  -20.0840  -10.9826 H   0  0  0  0  0  0  0  0  0  0  0  0
   52.6546  -20.3323  -11.0857 H   0  0  0  0  0  0  0  0  0  0  0  0
   54.2663  -16.9692   -9.0808 H   0  0  0  0  0  0  0  0  0  0  0  0
   54.3152  -16.9942  -10.8925 H   0  0  0  0  0  0  0  0  0  0  0  0
   55.3308  -18.1345   -9.9158 H   0  0  0  0  0  0  0  0  0  0  0  0
   48.5838  -14.5460   -8.1573 H   0  0  0  0  0  0  0  0  0  0  0  0
   53.3343  -19.0669   -3.4054 H   0  0  0  0  0  0  0  0  0  0  0  0
   51.6778  -20.2734   -2.0168 H   0  0  0  0  0  0  0  0  0  0  0  0
   46.2923  -15.2314   -7.5181 H   0  0  0  0  0  0  0  0  0  0  0  0
  2  1  1  0
  3  1  1  0
  4  6  1  0
  5  7  1  0
  6  2  2  0
  7  3  2  0
  8  1  2  3
  9 13  1  0
 10  8  1  0
 11  3  1  0
 12  2  1  0
 13 10  1  0
 14  7  1  0
 15  6  1  0
 16  9  1  0
 17  9  1  0
 18 11  2  0
 19 12  2  0
 20 19  1  0
 21 18  1  0
  5  4  2  0
 21 14  2  0
 20 15  2  0
  4 22  1  0
  5 23  1  0
  8 24  1  0
 10 25  1  0
 10 26  1  0
 11 27  1  0
 12 28  1  0
 13 29  1  0
 13 30  1  0
 14 31  1  0
 15 32  1  0
 16 33  1  0
 16 34  1  0
 16 35  1  0
 17 36  1  0
 17 37  1  0
 17 38  1  0
 18 39  1  0
 19 40  1  0
 20 41  1  0
 21 42  1  0
M  END
> <Uni-Dock RESULT> 
ENERGY=   -4.257  LOWER_BOUND=    2.959  UPPER_BOUND=    4.856
INTER + INTRA:          -4.257
INTER:                  -4.257
INTRA:                   0.000
UNBOUND:                 0.000

$$$$

     RDKit          3D

 42 44  0  0  0  0  0  0  0  0999 V2000
   46.7947  -16.3577  -10.0049 C   0  0  0  0  0  0  0  0  0  0  0  0
   46.5334  -17.0825   -8.7523 C   0  0  0  0  0  0  0  0  0  0  0  0
   48.0652  -16.6491  -10.6924 C   0  0  0  0  0  0  0  0  0  0  0  0
   48.6073  -16.0928   -7.6559 C   0  0  0  0  0  0  0  0  0  0  0  0
   49.4157  -15.8373   -8.6959 C   0  0  0  0  0  0  0  0  0  0  0  0
   47.4217  -16.9854   -7.6579 C   0  0  0  0  0  0  0  0  0  0  0  0
   49.3037  -16.4179  -10.0551 C   0  0  0  0  0  0  0  0  0  0  0  0
   45.8889  -15.4723  -10.4660 C   0  0  0  0  0  0  0  0  0  0  0  0
   43.6782  -14.8540  -12.3214 N   0  0  0  0  0  0  0  0  0  0  0  0
   46.0721  -14.6008  -11.6835 C   0  0  0  0  0  0  0  0  0  0  0  0
   48.0409  -17.2134  -11.9799 C   0  0  0  0  0  0  0  0  0  0  0  0
   45.3807  -17.8807   -8.6468 C   0  0  0  0  0  0  0  0  0  0  0  0
   45.0775  -14.9759  -12.7901 C   0  0  0  0  0  0  0  0  0  0  0  0
   50.4926  -16.6793  -10.7582 C   0  0  0  0  0  0  0  0  0  0  0  0
   47.1174  -17.6742   -6.4705 C   0  0  0  0  0  0  0  0  0  0  0  0
   43.1944  -13.4682  -12.4491 C   0  0  0  0  0  0  0  0  0  0  0  0
   42.8017  -15.7516  -13.0907 C   0  0  0  0  0  0  0  0  0  0  0  0
   49.2308  -17.4889  -12.6545 C   0  0  0  0  0  0  0  0  0  0  0  0
   45.1062  -18.5734   -7.4670 C   0  0  0  0  0  0  0  0  0  0  0  0
   45.9730  -18.4697   -6.3799 C   0  0  0  0  0  0  0  0  0  0  0  0
   50.4555  -17.2137  -12.0478 C   0  0  0  0  0  0  0  0  0  0  0  0
   48.8978  -15.6704   -6.7006 H   0  0  0  0  0  0  0  0  0  0  0  0
   50.2924  -15.2325   -8.4935 H   0  0  0  0  0  0  0  0  0  0  0  0
   44.9706  -15.3289   -9.9070 H   0  0  0  0  0  0  0  0  0  0  0  0
   45.9264  -13.5434  -11.3822 H   0  0  0  0  0  0  0  0  0  0  0  0
   47.1030  -14.6616  -12.0889 H   0  0  0  0  0  0  0  0  0  0  0  0
   47.0990  -17.4440  -12.4598 H   0  0  0  0  0  0  0  0  0  0  0  0
   44.6971  -17.9699   -9.4826 H   0  0  0  0  0  0  0  0  0  0  0  0
   45.2606  -14.3383  -13.6848 H   0  0  0  0  0  0  0  0  0  0  0  0
   45.3017  -16.0218  -13.0971 H   0  0  0  0  0  0  0  0  0  0  0  0
   51.4549  -16.4816  -10.3011 H   0  0  0  0  0  0  0  0  0  0  0  0
   47.7703  -17.5968   -5.6094 H   0  0  0  0  0  0  0  0  0  0  0  0
   43.2036  -13.1314  -13.5098 H   0  0  0  0  0  0  0  0  0  0  0  0
   42.1579  -13.3881  -12.0563 H   0  0  0  0  0  0  0  0  0  0  0  0
   43.8190  -12.7787  -11.8452 H   0  0  0  0  0  0  0  0  0  0  0  0
   43.0985  -16.8093  -12.9230 H   0  0  0  0  0  0  0  0  0  0  0  0
   42.8520  -15.5268  -14.1798 H   0  0  0  0  0  0  0  0  0  0  0  0
   41.7492  -15.6533  -12.7468 H   0  0  0  0  0  0  0  0  0  0  0  0
   49.2030  -17.9156  -13.6488 H   0  0  0  0  0  0  0  0  0  0  0  0
   44.2183  -19.1880   -7.3943 H   0  0  0  0  0  0  0  0  0  0  0  0
   45.7550  -19.0009   -5.4626 H   0  0  0  0  0  0  0  0  0  0  0  0
   51.3781  -17.4215  -12.5742 H   0  0  0  0  0  0  0  0  0  0  0  0
  2  1  1  0
  3  1  1  0
  4  6  1  0
  5  7  1  0
  6  2  2  0
  7  3  2  0
  8  1  2  3
  9 13  1  0
 10  8  1  0
 11  3  1  0
 12  2  1  0
 13 10  1  0
 14  7  1  0
 15  6  1  0
 16  9  1  0
 17  9  1  0
 18 11  2  0
 19 12  2  0
 20 19  1  0
 21 18  1  0
  5  4  2  0
 21 14  2  0
 20 15  2  0
  4 22  1  0
  5 23  1  0
  8 24  1  0
 10 25  1  0
 10 26  1  0
 11 27  1  0
 12 28  1  0
 13 29  1  0
 13 30  1  0
 14 31  1  0
 15 32  1  0
 16 33  1  0
 16 34  1  0
 16 35  1  0
 17 36  1  0
 17 37  1  0
 17 38  1  0
 18 39  1  0
 19 40  1  0
 20 41  1  0
 21 42  1  0
M  END
> <Uni-Dock RESULT> 
ENERGY=   -4.060  LOWER_BOUND=    2.165  UPPER_BOUND=    4.949
INTER + INTRA:          -4.060
INTER:                  -4.060
INTRA:                   0.000
UNBOUND:                 0.000

$$$$

     RDKit          3D

 42 44  0  0  0  0  0  0  0  0999 V2000
   43.8368  -14.0812  -13.1120 C   0  0  0  0  0  0  0  0  0  0  0  0
   44.4546  -15.1178  -12.2713 C   0  0  0  0  0  0  0  0  0  0  0  0
   42.4295  -13.7454  -12.8319 C   0  0  0  0  0  0  0  0  0  0  0  0
   42.7566  -16.8562  -13.0314 C   0  0  0  0  0  0  0  0  0  0  0  0
   41.6828  -16.1197  -13.3555 C   0  0  0  0  0  0  0  0  0  0  0  0
   43.9098  -16.4198  -12.2054 C   0  0  0  0  0  0  0  0  0  0  0  0
   41.4173  -14.7248  -12.9303 C   0  0  0  0  0  0  0  0  0  0  0  0
   44.5590  -13.4932  -14.0865 C   0  0  0  0  0  0  0  0  0  0  0  0
   46.1439  -11.1814  -15.0114 N   0  0  0  0  0  0  0  0  0  0  0  0
   44.0233  -12.4856  -15.0730 C   0  0  0  0  0  0  0  0  0  0  0  0
   42.0997  -12.4452  -12.4106 C   0  0  0  0  0  0  0  0  0  0  0  0
   45.6048  -14.8040  -11.5260 C   0  0  0  0  0  0  0  0  0  0  0  0
   44.6717  -11.1098  -14.8696 C   0  0  0  0  0  0  0  0  0  0  0  0
   40.0833  -14.3549  -12.6857 C   0  0  0  0  0  0  0  0  0  0  0  0
   44.5497  -17.3863  -11.4098 C   0  0  0  0  0  0  0  0  0  0  0  0
   46.5462  -11.0873  -16.4257 C   0  0  0  0  0  0  0  0  0  0  0  0
   46.7840  -10.0989  -14.2470 C   0  0  0  0  0  0  0  0  0  0  0  0
   40.7731  -12.1011  -12.1490 C   0  0  0  0  0  0  0  0  0  0  0  0
   46.2139  -15.7712  -10.7257 C   0  0  0  0  0  0  0  0  0  0  0  0
   45.6877  -17.0609  -10.6683 C   0  0  0  0  0  0  0  0  0  0  0  0
   39.7647  -13.0526  -12.2951 C   0  0  0  0  0  0  0  0  0  0  0  0
   42.7399  -17.8972  -13.3338 H   0  0  0  0  0  0  0  0  0  0  0  0
   40.8879  -16.6275  -13.8899 H   0  0  0  0  0  0  0  0  0  0  0  0
   45.5949  -13.7873  -14.2156 H   0  0  0  0  0  0  0  0  0  0  0  0
   44.2285  -12.8561  -16.0981 H   0  0  0  0  0  0  0  0  0  0  0  0
   42.9212  -12.3790  -15.0037 H   0  0  0  0  0  0  0  0  0  0  0  0
   42.8719  -11.6985  -12.2809 H   0  0  0  0  0  0  0  0  0  0  0  0
   46.0261  -13.8065  -11.5616 H   0  0  0  0  0  0  0  0  0  0  0  0
   44.2316  -10.3825  -15.5892 H   0  0  0  0  0  0  0  0  0  0  0  0
   44.3894  -10.7571  -13.8525 H   0  0  0  0  0  0  0  0  0  0  0  0
   39.2858  -15.0817  -12.7842 H   0  0  0  0  0  0  0  0  0  0  0  0
   44.1652  -18.3980  -11.3612 H   0  0  0  0  0  0  0  0  0  0  0  0
   46.2316  -10.1180  -16.8733 H   0  0  0  0  0  0  0  0  0  0  0  0
   47.6498  -11.1826  -16.5157 H   0  0  0  0  0  0  0  0  0  0  0  0
   46.1048  -11.9176  -17.0139 H   0  0  0  0  0  0  0  0  0  0  0  0
   46.5663  -10.2175  -13.1637 H   0  0  0  0  0  0  0  0  0  0  0  0
   46.4241   -9.1010  -14.5844 H   0  0  0  0  0  0  0  0  0  0  0  0
   47.8888  -10.1453  -14.3612 H   0  0  0  0  0  0  0  0  0  0  0  0
   40.5269  -11.0955  -11.8333 H   0  0  0  0  0  0  0  0  0  0  0  0
   47.0976  -15.5214  -10.1527 H   0  0  0  0  0  0  0  0  0  0  0  0
   46.1656  -17.8126  -10.0535 H   0  0  0  0  0  0  0  0  0  0  0  0
   38.7350  -12.7833  -12.0984 H   0  0  0  0  0  0  0  0  0  0  0  0
  2  1  1  0
  3  1  1  0
  4  6  1  0
  5  7  1  0
  6  2  2  0
  7  3  2  0
  8  1  2  3
  9 13  1  0
 10  8  1  0
 11  3  1  0
 12  2  1  0
 13 10  1  0
 14  7  1  0
 15  6  1  0
 16  9  1  0
 17  9  1  0
 18 11  2  0
 19 12  2  0
 20 19  1  0
 21 18  1  0
  5  4  2  0
 21 14  2  0
 20 15  2  0
  4 22  1  0
  5 23  1  0
  8 24  1  0
 10 25  1  0
 10 26  1  0
 11 27  1  0
 12 28  1  0
 13 29  1  0
 13 30  1  0
 14 31  1  0
 15 32  1  0
 16 33  1  0
 16 34  1  0
 16 35  1  0
 17 36  1  0
 17 37  1  0
 17 38  1  0
 18 39  1  0
 19 40  1  0
 20 41  1  0
 21 42  1  0
M  END
> <Uni-Dock RESULT> 
ENERGY=   -3.883  LOWER_BOUND=    5.040  UPPER_BOUND=    8.570
INTER + INTRA:          -3.883
INTER:                  -3.883
INTRA:                   0.000
UNBOUND:                 0.000

$$$$

     RDKit          3D

 42 44  0  0  0  0  0  0  0  0999 V2000
   46.5482  -17.7903  -10.3996 C   0  0  0  0  0  0  0  0  0  0  0  0
   46.5953  -17.1769   -9.0639 C   0  0  0  0  0  0  0  0  0  0  0  0
   45.2142  -18.0813  -10.9541 C   0  0  0  0  0  0  0  0  0  0  0  0
   45.4028  -19.1702   -8.0210 C   0  0  0  0  0  0  0  0  0  0  0  0
   44.6845  -19.6688   -9.0388 C   0  0  0  0  0  0  0  0  0  0  0  0
   46.0111  -17.8184   -7.9488 C   0  0  0  0  0  0  0  0  0  0  0  0
   44.3290  -18.9583  -10.2902 C   0  0  0  0  0  0  0  0  0  0  0  0
   47.6966  -18.0618  -11.0511 C   0  0  0  0  0  0  0  0  0  0  0  0
   49.6720  -17.3073  -13.1103 N   0  0  0  0  0  0  0  0  0  0  0  0
   47.7916  -18.7679  -12.3807 C   0  0  0  0  0  0  0  0  0  0  0  0
   44.7993  -17.4359  -12.1322 C   0  0  0  0  0  0  0  0  0  0  0  0
   47.2338  -15.9350   -8.8991 C   0  0  0  0  0  0  0  0  0  0  0  0
   48.3349  -17.8326  -13.4691 C   0  0  0  0  0  0  0  0  0  0  0  0
   43.0782  -19.2337  -10.8697 C   0  0  0  0  0  0  0  0  0  0  0  0
   46.1042  -17.2078   -6.6857 C   0  0  0  0  0  0  0  0  0  0  0  0
   50.7341  -18.2555  -13.4894 C   0  0  0  0  0  0  0  0  0  0  0  0
   49.9087  -16.0156  -13.7747 C   0  0  0  0  0  0  0  0  0  0  0  0
   43.5447  -17.7028  -12.6813 C   0  0  0  0  0  0  0  0  0  0  0  0
   47.2981  -15.3348   -7.6411 C   0  0  0  0  0  0  0  0  0  0  0  0
   46.7348  -15.9707   -6.5357 C   0  0  0  0  0  0  0  0  0  0  0  0
   42.6884  -18.6076  -12.0555 C   0  0  0  0  0  0  0  0  0  0  0  0
   45.4752  -19.7854   -7.1313 H   0  0  0  0  0  0  0  0  0  0  0  0
   44.2347  -20.6433   -8.8853 H   0  0  0  0  0  0  0  0  0  0  0  0
   48.6370  -17.8003  -10.5783 H   0  0  0  0  0  0  0  0  0  0  0  0
   48.4596  -19.6456  -12.2639 H   0  0  0  0  0  0  0  0  0  0  0  0
   46.8124  -19.1732  -12.7089 H   0  0  0  0  0  0  0  0  0  0  0  0
   45.4472  -16.7221  -12.6236 H   0  0  0  0  0  0  0  0  0  0  0  0
   47.6774  -15.4296   -9.7486 H   0  0  0  0  0  0  0  0  0  0  0  0
   48.3612  -18.3727  -14.4428 H   0  0  0  0  0  0  0  0  0  0  0  0
   47.6033  -17.0025  -13.5886 H   0  0  0  0  0  0  0  0  0  0  0  0
   42.3940  -19.9264  -10.3942 H   0  0  0  0  0  0  0  0  0  0  0  0
   45.6851  -17.6909   -5.8113 H   0  0  0  0  0  0  0  0  0  0  0  0
   50.7474  -18.4317  -14.5883 H   0  0  0  0  0  0  0  0  0  0  0  0
   51.7257  -17.8628  -13.1771 H   0  0  0  0  0  0  0  0  0  0  0  0
   50.5965  -19.2254  -12.9692 H   0  0  0  0  0  0  0  0  0  0  0  0
   49.1703  -15.2644  -13.4205 H   0  0  0  0  0  0  0  0  0  0  0  0
   49.8293  -16.1118  -14.8809 H   0  0  0  0  0  0  0  0  0  0  0  0
   50.9165  -15.6253  -13.5145 H   0  0  0  0  0  0  0  0  0  0  0  0
   43.2366  -17.2078  -13.5932 H   0  0  0  0  0  0  0  0  0  0  0  0
   47.7889  -14.3774   -7.5227 H   0  0  0  0  0  0  0  0  0  0  0  0
   46.7923  -15.5081   -5.5589 H   0  0  0  0  0  0  0  0  0  0  0  0
   41.7180  -18.8192  -12.4855 H   0  0  0  0  0  0  0  0  0  0  0  0
  2  1  1  0
  3  1  1  0
  4  6  1  0
  5  7  1  0
  6  2  2  0
  7  3  2  0
  8  1  2  3
  9 13  1  0
 10  8  1  0
 11  3  1  0
 12  2  1  0
 13 10  1  0
 14  7  1  0
 15  6  1  0
 16  9  1  0
 17  9  1  0
 18 11  2  0
 19 12  2  0
 20 19  1  0
 21 18  1  0
  5  4  2  0
 21 14  2  0
 20 15  2  0
  4 22  1  0
  5 23  1  0
  8 24  1  0
 10 25  1  0
 10 26  1  0
 11 27  1  0
 12 28  1  0
 13 29  1  0
 13 30  1  0
 14 31  1  0
 15 32  1  0
 16 33  1  0
 16 34  1  0
 16 35  1  0
 17 36  1  0
 17 37  1  0
 17 38  1  0
 18 39  1  0
 19 40  1  0
 20 41  1  0
 21 42  1  0
M  END
> <Uni-Dock RESULT> 
ENERGY=   -3.821  LOWER_BOUND=    3.041  UPPER_BOUND=    4.945
INTER + INTRA:          -3.821
INTER:                  -3.821
INTRA:                   0.000
UNBOUND:                 0.000

$$$$

     RDKit          3D

 42 44  0  0  0  0  0  0  0  0999 V2000
   42.4155  -12.3889  -12.9715 C   0  0  0  0  0  0  0  0  0  0  0  0
   42.0532  -13.8131  -13.0286 C   0  0  0  0  0  0  0  0  0  0  0  0
   41.9194  -11.6195  -11.8167 C   0  0  0  0  0  0  0  0  0  0  0  0
   39.5688  -13.2589  -13.0860 C   0  0  0  0  0  0  0  0  0  0  0  0
   39.5011  -12.0736  -12.4607 C   0  0  0  0  0  0  0  0  0  0  0  0
   40.6998  -14.2186  -13.0386 C   0  0  0  0  0  0  0  0  0  0  0  0
   40.5347  -11.4928  -11.5711 C   0  0  0  0  0  0  0  0  0  0  0  0
   43.1652  -11.8503  -13.9537 C   0  0  0  0  0  0  0  0  0  0  0  0
   45.8075  -10.9432  -14.9064 N   0  0  0  0  0  0  0  0  0  0  0  0
   43.5304  -10.3908  -14.0627 C   0  0  0  0  0  0  0  0  0  0  0  0
   42.8392  -11.0487  -10.9196 C   0  0  0  0  0  0  0  0  0  0  0  0
   43.0721  -14.7809  -13.0756 C   0  0  0  0  0  0  0  0  0  0  0  0
   45.0412  -10.1819  -13.8936 C   0  0  0  0  0  0  0  0  0  0  0  0
   40.1030  -10.7233  -10.4767 C   0  0  0  0  0  0  0  0  0  0  0  0
   40.4003  -15.5898  -13.1216 C   0  0  0  0  0  0  0  0  0  0  0  0
   45.9127  -10.1905  -16.1687 C   0  0  0  0  0  0  0  0  0  0  0  0
   47.1567  -11.2476  -14.4038 C   0  0  0  0  0  0  0  0  0  0  0  0
   42.3933  -10.3077   -9.8246 C   0  0  0  0  0  0  0  0  0  0  0  0
   42.7551  -16.1384  -13.1368 C   0  0  0  0  0  0  0  0  0  0  0  0
   41.4210  -16.5424  -13.1606 C   0  0  0  0  0  0  0  0  0  0  0  0
   41.0266  -10.1376   -9.6084 C   0  0  0  0  0  0  0  0  0  0  0  0
   38.6763  -13.5829  -13.6093 H   0  0  0  0  0  0  0  0  0  0  0  0
   38.5594  -11.5407  -12.5289 H   0  0  0  0  0  0  0  0  0  0  0  0
   43.5037  -12.4912  -14.7605 H   0  0  0  0  0  0  0  0  0  0  0  0
   43.2033  -10.0213  -15.0560 H   0  0  0  0  0  0  0  0  0  0  0  0
   42.9943   -9.7696  -13.3160 H   0  0  0  0  0  0  0  0  0  0  0  0
   43.9029  -11.1814  -11.0665 H   0  0  0  0  0  0  0  0  0  0  0  0
   44.1134  -14.4821  -13.0593 H   0  0  0  0  0  0  0  0  0  0  0  0
   45.2731   -9.0938  -13.9457 H   0  0  0  0  0  0  0  0  0  0  0  0
   45.3087  -10.5123  -12.8651 H   0  0  0  0  0  0  0  0  0  0  0  0
   39.0453  -10.5869  -10.2854 H   0  0  0  0  0  0  0  0  0  0  0  0
   39.3705  -15.9248  -13.1547 H   0  0  0  0  0  0  0  0  0  0  0  0
   46.4505   -9.2271  -16.0229 H   0  0  0  0  0  0  0  0  0  0  0  0
   46.4558  -10.7931  -16.9283 H   0  0  0  0  0  0  0  0  0  0  0  0
   44.9059   -9.9834  -16.5856 H   0  0  0  0  0  0  0  0  0  0  0  0
   47.0905  -11.8981  -13.5052 H   0  0  0  0  0  0  0  0  0  0  0  0
   47.7073  -10.3166  -14.1404 H   0  0  0  0  0  0  0  0  0  0  0  0
   47.7366  -11.8100  -15.1674 H   0  0  0  0  0  0  0  0  0  0  0  0
   43.1084   -9.8646   -9.1436 H   0  0  0  0  0  0  0  0  0  0  0  0
   43.5450  -16.8777  -13.1700 H   0  0  0  0  0  0  0  0  0  0  0  0
   41.1762  -17.5952  -13.2163 H   0  0  0  0  0  0  0  0  0  0  0  0
   40.6815   -9.5572   -8.7626 H   0  0  0  0  0  0  0  0  0  0  0  0
  2  1  1  0
  3  1  1  0
  4  6  1  0
  5  7  1  0
  6  2  2  0
  7  3  2  0
  8  1  2  3
  9 13  1  0
 10  8  1  0
 11  3  1  0
 12  2  1  0
 13 10  1  0
 14  7  1  0
 15  6  1  0
 16  9  1  0
 17  9  1  0
 18 11  2  0
 19 12  2  0
 20 19  1  0
 21 18  1  0
  5  4  2  0
 21 14  2  0
 20 15  2  0
  4 22  1  0
  5 23  1  0
  8 24  1  0
 10 25  1  0
 10 26  1  0
 11 27  1  0
 12 28  1  0
 13 29  1  0
 13 30  1  0
 14 31  1  0
 15 32  1  0
 16 33  1  0
 16 34  1  0
 16 35  1  0
 17 36  1  0
 17 37  1  0
 17 38  1  0
 18 39  1  0
 19 40  1  0
 20 41  1  0
 21 42  1  0
M  END
> <Uni-Dock RESULT> 
ENERGY=   -3.805  LOWER_BOUND=    8.257  UPPER_BOUND=   10.383
INTER + INTRA:          -3.805
INTER:                  -3.805
INTRA:                   0.000
UNBOUND:                 0.000

$$$$
