
     RDKit          3D

 81 84  0  0  0  0  0  0  0  0999 V2000
   46.3179    6.9110   12.7897 O   0  0  0  0  0  0  0  0  0  0  0  0
   46.6663    7.6204   12.7557 Cl  0  0  0  0  0  0  0  0  0  0  0  0
   46.6631    7.6177   12.7545 Cl  0  0  0  0  0  0  0  0  0  0  0  0
   47.5775   10.7065   13.3408 O   0  0  0  0  0  0  0  0  0  0  0  0
   49.9453   10.3003   14.5632 O   0  0  0  0  0  0  0  0  0  0  0  0
   44.6963    5.1904   12.8617 N   0  0  0  0  0  0  0  0  0  0  0  0
   45.7307    5.9580   12.2473 C   0  0  1  0  0  0  0  0  0  0  0  0
   45.2634    7.3536   12.0520 C   0  0  0  0  0  0  0  0  0  0  0  0
   45.9477    8.4654   12.4382 C   0  0  0  0  0  0  0  0  0  0  0  0
   47.2215    8.3051   13.1019 C   0  0  0  0  0  0  0  0  0  0  0  0
   47.7162    7.0398   13.3311 C   0  0  0  0  0  0  0  0  0  0  0  0
   44.0191    7.4700   11.4111 C   0  0  0  0  0  0  0  0  0  0  0  0
   47.0161    5.7925   12.9441 C   0  0  0  0  0  0  0  0  0  0  0  0
   47.9503    9.3843   13.5051 C   0  0  0  0  0  0  0  0  0  0  0  0
   45.4032    9.7010   12.1912 C   0  0  0  0  0  0  0  0  0  0  0  0
   43.3592    6.2043   11.0356 C   0  0  0  0  0  0  0  0  0  0  0  0
   43.4177    5.2659   12.2126 C   0  0  0  0  0  0  0  0  0  0  0  0
   43.4993    8.7188   11.1773 C   0  0  0  0  0  0  0  0  0  0  0  0
   48.9512    6.8528   13.9692 C   0  0  0  0  0  0  0  0  0  0  0  0
   49.1876    9.2081   14.1447 C   0  0  0  0  0  0  0  0  0  0  0  0
   44.1621    9.8575   11.5528 C   0  0  0  0  0  0  0  0  0  0  0  0
   49.6778    7.9477   14.3715 C   0  0  0  0  0  0  0  0  0  0  0  0
   45.0976    3.8501   13.1814 C   0  0  0  0  0  0  0  0  0  0  0  0
   49.4202    8.1282   14.0509 O   0  0  0  0  0  0  0  0  0  0  0  0
   50.0294   10.6769   13.3865 O   0  0  0  0  0  0  0  0  0  0  0  0
   43.9585    6.4987   11.1704 N   0  0  0  0  0  0  0  0  0  0  0  0
   44.6002    7.3043   12.2058 C   0  0  1  0  0  0  0  0  0  0  0  0
   45.6272    6.5276   12.9150 C   0  0  0  0  0  0  0  0  0  0  0  0
   46.8536    6.9444   13.3088 C   0  0  0  0  0  0  0  0  0  0  0  0
   47.2462    8.3050   12.9549 C   0  0  0  0  0  0  0  0  0  0  0  0
   46.3398    9.0457   12.2479 C   0  0  0  0  0  0  0  0  0  0  0  0
   45.2525    5.2034   13.2282 C   0  0  0  0  0  0  0  0  0  0  0  0
   45.0276    8.6231   11.7549 C   0  0  0  0  0  0  0  0  0  0  0  0
   48.4580    8.8150   13.3382 C   0  0  0  0  0  0  0  0  0  0  0  0
   47.7048    6.1050   13.9926 C   0  0  0  0  0  0  0  0  0  0  0  0
   43.9330    4.6653   12.8349 C   0  0  0  0  0  0  0  0  0  0  0  0
   43.1874    5.4896   11.8488 C   0  0  0  0  0  0  0  0  0  0  0  0
   46.1001    4.3619   13.9106 C   0  0  0  0  0  0  0  0  0  0  0  0
   46.7157   10.3542   11.9375 C   0  0  0  0  0  0  0  0  0  0  0  0
   48.8079   10.1338   13.0110 C   0  0  0  0  0  0  0  0  0  0  0  0
   47.3421    4.7847   14.3104 C   0  0  0  0  0  0  0  0  0  0  0  0
   47.9177   10.8999   12.3033 C   0  0  0  0  0  0  0  0  0  0  0  0
   44.9323    5.8900   10.2908 C   0  0  0  0  0  0  0  0  0  0  0  0
   46.6709    7.8290   12.6772 H   0  0  0  0  0  0  0  0  0  0  0  0
   45.4972    6.8236   12.2494 H   0  0  0  0  0  0  0  0  0  0  0  0
   45.6578    6.7554   12.3885 H   0  0  0  0  0  0  0  0  0  0  0  0
   45.6609    6.7581   12.3896 H   0  0  0  0  0  0  0  0  0  0  0  0
   48.1329   11.3862   12.8491 H   0  0  0  0  0  0  0  0  0  0  0  0
   50.9642   10.3012   14.4815 H   0  0  0  0  0  0  0  0  0  0  0  0
   45.8323    5.5498   11.1973 H   0  0  0  0  0  0  0  0  0  0  0  0
   47.7645    5.2329   12.3080 H   0  0  0  0  0  0  0  0  0  0  0  0
   46.9202    5.1887   13.8799 H   0  0  0  0  0  0  0  0  0  0  0  0
   45.8673   10.6306   12.4582 H   0  0  0  0  0  0  0  0  0  0  0  0
   43.8562    5.7142   10.1776 H   0  0  0  0  0  0  0  0  0  0  0  0
   42.2983    6.3771   10.7938 H   0  0  0  0  0  0  0  0  0  0  0  0
   43.1696    4.2513   11.8375 H   0  0  0  0  0  0  0  0  0  0  0  0
   42.6546    5.5735   12.9426 H   0  0  0  0  0  0  0  0  0  0  0  0
   42.5443    8.8161   10.6856 H   0  0  0  0  0  0  0  0  0  0  0  0
   49.3489    5.8597   14.1538 H   0  0  0  0  0  0  0  0  0  0  0  0
   43.7319   10.8094   11.3569 H   0  0  0  0  0  0  0  0  0  0  0  0
   50.6325    7.8558   14.8659 H   0  0  0  0  0  0  0  0  0  0  0  0
   45.8161    3.5166   12.3793 H   0  0  0  0  0  0  0  0  0  0  0  0
   45.5193    3.7374   14.1985 H   0  0  0  0  0  0  0  0  0  0  0  0
   44.1825    3.2124   13.1386 H   0  0  0  0  0  0  0  0  0  0  0  0
   50.3852    8.1855   13.7210 H   0  0  0  0  0  0  0  0  0  0  0  0
   50.3145   10.7545   14.3627 H   0  0  0  0  0  0  0  0  0  0  0  0
   43.7633    7.4353   12.9693 H   0  0  0  0  0  0  0  0  0  0  0  0
   44.2748    9.4364   11.9676 H   0  0  0  0  0  0  0  0  0  0  0  0
   45.1463    8.5541   10.6165 H   0  0  0  0  0  0  0  0  0  0  0  0
   48.6873    6.3704   14.3322 H   0  0  0  0  0  0  0  0  0  0  0  0
   43.2530    4.4938   13.7203 H   0  0  0  0  0  0  0  0  0  0  0  0
   44.1361    3.6310   12.4303 H   0  0  0  0  0  0  0  0  0  0  0  0
   42.6919    4.8089   11.1081 H   0  0  0  0  0  0  0  0  0  0  0  0
   42.3409    6.0390   12.3558 H   0  0  0  0  0  0  0  0  0  0  0  0
   45.8244    3.3460   14.1562 H   0  0  0  0  0  0  0  0  0  0  0  0
   46.0427   11.0079   11.3745 H   0  0  0  0  0  0  0  0  0  0  0  0
   48.0113    4.1269   14.8472 H   0  0  0  0  0  0  0  0  0  0  0  0
   48.2109   11.9121   12.0641 H   0  0  0  0  0  0  0  0  0  0  0  0
   44.7214    4.7961   10.2026 H   0  0  0  0  0  0  0  0  0  0  0  0
   44.7711    6.3079    9.2753 H   0  0  0  0  0  0  0  0  0  0  0  0
   45.9644    5.9894   10.6620 H   0  0  0  0  0  0  0  0  0  0  0  0
  4 14  1  0
  5 20  1  0
  6  7  1  0
  6 17  1  0
  6 23  1  0
  7  8  1  0
  7 13  1  0
  8  9  1  0
  8 12  2  0
  9 10  1  0
  9 15  2  0
 10 11  2  0
 10 14  1  0
 11 13  1  0
 11 19  1  0
 12 16  1  0
 12 18  1  0
 14 20  2  0
 15 21  1  0
 16 17  1  0
 18 21  2  0
 19 22  2  0
 20 22  1  0
 24 34  1  0
 25 40  1  0
 26 27  1  0
 26 37  1  0
 26 43  1  0
 27 28  1  0
 27 33  1  0
 28 29  1  0
 28 32  2  0
 29 30  1  0
 29 35  2  0
 30 31  2  0
 30 34  1  0
 31 33  1  0
 31 39  1  0
 32 36  1  0
 32 38  1  0
 34 40  2  0
 35 41  1  0
 36 37  1  0
 38 41  2  0
 39 42  2  0
 40 42  1  0
  1 44  1  0
  1 45  1  0
  2 46  1  0
  3 47  1  0
  4 48  1  0
  5 49  1  0
  7 50  1  1
 13 51  1  0
 13 52  1  0
 15 53  1  0
 16 54  1  0
 16 55  1  0
 17 56  1  0
 17 57  1  0
 18 58  1  0
 19 59  1  0
 21 60  1  0
 22 61  1  0
 23 62  1  0
 23 63  1  0
 23 64  1  0
 24 65  1  0
 25 66  1  0
 27 67  1  6
 33 68  1  0
 33 69  1  0
 35 70  1  0
 36 71  1  0
 36 72  1  0
 37 73  1  0
 37 74  1  0
 38 75  1  0
 39 76  1  0
 41 77  1  0
 42 78  1  0
 43 79  1  0
 43 80  1  0
 43 81  1  0
M  END
> <Uni-Dock RESULT> 
ENERGY=   -8.053  LOWER_BOUND=    0.000  UPPER_BOUND=    0.000
INTER + INTRA:          -8.053
INTER:                  -8.053
INTRA:                   0.000
UNBOUND:                 0.000

$$$$

     RDKit          3D

 81 84  0  0  0  0  0  0  0  0999 V2000
   46.4366    8.0230   12.5302 O   0  0  0  0  0  0  0  0  0  0  0  0
   46.3384    7.2556   12.6947 Cl  0  0  0  0  0  0  0  0  0  0  0  0
   46.3409    7.2591   12.6946 Cl  0  0  0  0  0  0  0  0  0  0  0  0
   45.6429    4.4206   14.1699 O   0  0  0  0  0  0  0  0  0  0  0  0
   43.2769    3.8318   13.0204 O   0  0  0  0  0  0  0  0  0  0  0  0
   47.1159   10.2867   12.6281 N   0  0  0  0  0  0  0  0  0  0  0  0
   47.1201    8.9647   12.0905 C   0  0  1  0  0  0  0  0  0  0  0  0
   47.6747    8.0226   13.0950 C   0  0  0  0  0  0  0  0  0  0  0  0
   47.0812    6.8608   13.4845 C   0  0  0  0  0  0  0  0  0  0  0  0
   45.8090    6.4983   12.9025 C   0  0  0  0  0  0  0  0  0  0  0  0
   45.2236    7.3288   11.9722 C   0  0  0  0  0  0  0  0  0  0  0  0
   48.9076    8.4114   13.6441 C   0  0  0  0  0  0  0  0  0  0  0  0
   45.8136    8.6088   11.5148 C   0  0  0  0  0  0  0  0  0  0  0  0
   45.1735    5.3443   13.2530 C   0  0  0  0  0  0  0  0  0  0  0  0
   47.7063    6.0758   14.4211 C   0  0  0  0  0  0  0  0  0  0  0  0
   49.4641    9.6882   13.1560 C   0  0  0  0  0  0  0  0  0  0  0  0
   48.3708   10.7245   13.1718 C   0  0  0  0  0  0  0  0  0  0  0  0
   49.5092    7.6061   14.5790 C   0  0  0  0  0  0  0  0  0  0  0  0
   43.9915    7.0016   11.3872 C   0  0  0  0  0  0  0  0  0  0  0  0
   43.9399    5.0075   12.6735 C   0  0  0  0  0  0  0  0  0  0  0  0
   48.9391    6.4309   14.9924 C   0  0  0  0  0  0  0  0  0  0  0  0
   43.3595    5.8357   11.7477 C   0  0  0  0  0  0  0  0  0  0  0  0
   46.5007   11.2503   11.7606 C   0  0  0  0  0  0  0  0  0  0  0  0
   43.7846    5.7406   11.8565 O   0  0  0  0  0  0  0  0  0  0  0  0
   44.2370    3.1783   12.5904 O   0  0  0  0  0  0  0  0  0  0  0  0
   49.0472    9.1711   13.0052 N   0  0  0  0  0  0  0  0  0  0  0  0
   47.9125    8.4480   13.5729 C   0  0  1  0  0  0  0  0  0  0  0  0
   46.6812    8.7272   12.8200 C   0  0  0  0  0  0  0  0  0  0  0  0
   45.7132    7.8503   12.4640 C   0  0  0  0  0  0  0  0  0  0  0  0
   45.9164    6.4476   12.8126 C   0  0  0  0  0  0  0  0  0  0  0  0
   47.0753    6.1353   13.4680 C   0  0  0  0  0  0  0  0  0  0  0  0
   46.5050   10.0806   12.4601 C   0  0  0  0  0  0  0  0  0  0  0  0
   48.1725    7.0361   13.8264 C   0  0  0  0  0  0  0  0  0  0  0  0
   44.9741    5.4998   12.5143 C   0  0  0  0  0  0  0  0  0  0  0  0
   44.5948    8.2657   11.7760 C   0  0  0  0  0  0  0  0  0  0  0  0
   47.5130   11.1049   12.8070 C   0  0  0  0  0  0  0  0  0  0  0  0
   48.8205   10.5689   13.2662 C   0  0  0  0  0  0  0  0  0  0  0  0
   45.3896   10.4992   11.7726 C   0  0  0  0  0  0  0  0  0  0  0  0
   47.2470    4.7948   13.8195 C   0  0  0  0  0  0  0  0  0  0  0  0
   45.1751    4.1602   12.8799 C   0  0  0  0  0  0  0  0  0  0  0  0
   44.4085    9.6108   11.4129 C   0  0  0  0  0  0  0  0  0  0  0  0
   46.3280    3.8185   13.5391 C   0  0  0  0  0  0  0  0  0  0  0  0
   49.1725    8.9320   11.5841 C   0  0  0  0  0  0  0  0  0  0  0  0
   46.4206    7.0632   12.7720 H   0  0  0  0  0  0  0  0  0  0  0  0
   47.3311    8.3828   12.7391 H   0  0  0  0  0  0  0  0  0  0  0  0
   47.1204    8.3903   12.6661 H   0  0  0  0  0  0  0  0  0  0  0  0
   47.1180    8.3868   12.6662 H   0  0  0  0  0  0  0  0  0  0  0  0
   45.8042    3.4514   13.9534 H   0  0  0  0  0  0  0  0  0  0  0  0
   42.7770    3.2788   12.3210 H   0  0  0  0  0  0  0  0  0  0  0  0
   47.8909    8.9732   11.2627 H   0  0  0  0  0  0  0  0  0  0  0  0
   45.8682    8.5100   10.3900 H   0  0  0  0  0  0  0  0  0  0  0  0
   45.0373    9.3912   11.7011 H   0  0  0  0  0  0  0  0  0  0  0  0
   47.3163    5.1464   14.7885 H   0  0  0  0  0  0  0  0  0  0  0  0
   49.8484    9.6069   12.1221 H   0  0  0  0  0  0  0  0  0  0  0  0
   50.2709   10.0384   13.8196 H   0  0  0  0  0  0  0  0  0  0  0  0
   48.7215   11.5826   12.5616 H   0  0  0  0  0  0  0  0  0  0  0  0
   48.2228   11.0602   14.2088 H   0  0  0  0  0  0  0  0  0  0  0  0
   50.4560    7.8980   15.0051 H   0  0  0  0  0  0  0  0  0  0  0  0
   43.5228    7.6498   10.6531 H   0  0  0  0  0  0  0  0  0  0  0  0
   49.4312    5.8303   15.7181 H   0  0  0  0  0  0  0  0  0  0  0  0
   42.4110    5.5402   11.3262 H   0  0  0  0  0  0  0  0  0  0  0  0
   46.7305   10.9404   10.7014 H   0  0  0  0  0  0  0  0  0  0  0  0
   45.4159   11.3842   11.9347 H   0  0  0  0  0  0  0  0  0  0  0  0
   46.9847   12.2351   11.9650 H   0  0  0  0  0  0  0  0  0  0  0  0
   43.5249    5.1060   11.0994 H   0  0  0  0  0  0  0  0  0  0  0  0
   43.2802    3.2181   12.9414 H   0  0  0  0  0  0  0  0  0  0  0  0
   47.7611    8.9745   14.5732 H   0  0  0  0  0  0  0  0  0  0  0  0
   48.4939    6.8217   14.8866 H   0  0  0  0  0  0  0  0  0  0  0  0
   49.0390    6.7371   13.1375 H   0  0  0  0  0  0  0  0  0  0  0  0
   43.7929    7.6252   11.4637 H   0  0  0  0  0  0  0  0  0  0  0  0
   47.1447   11.8270   13.5936 H   0  0  0  0  0  0  0  0  0  0  0  0
   47.6349   11.7362   11.8789 H   0  0  0  0  0  0  0  0  0  0  0  0
   49.6426   11.1900   12.8236 H   0  0  0  0  0  0  0  0  0  0  0  0
   48.9261   10.6938   14.3836 H   0  0  0  0  0  0  0  0  0  0  0  0
   45.2435   11.5327   11.4916 H   0  0  0  0  0  0  0  0  0  0  0  0
   48.1488    4.4687   14.3465 H   0  0  0  0  0  0  0  0  0  0  0  0
   43.5301    9.9354   10.8729 H   0  0  0  0  0  0  0  0  0  0  0  0
   46.4587    2.7806   13.8099 H   0  0  0  0  0  0  0  0  0  0  0  0
   49.2583    9.9092   11.0486 H   0  0  0  0  0  0  0  0  0  0  0  0
   50.1401    8.4144   11.4174 H   0  0  0  0  0  0  0  0  0  0  0  0
   48.3010    8.4088   11.1604 H   0  0  0  0  0  0  0  0  0  0  0  0
  4 14  1  0
  5 20  1  0
  6  7  1  0
  6 17  1  0
  6 23  1  0
  7  8  1  0
  7 13  1  0
  8  9  1  0
  8 12  2  0
  9 10  1  0
  9 15  2  0
 10 11  2  0
 10 14  1  0
 11 13  1  0
 11 19  1  0
 12 16  1  0
 12 18  1  0
 14 20  2  0
 15 21  1  0
 16 17  1  0
 18 21  2  0
 19 22  2  0
 20 22  1  0
 24 34  1  0
 25 40  1  0
 26 27  1  0
 26 37  1  0
 26 43  1  0
 27 28  1  0
 27 33  1  0
 28 29  1  0
 28 32  2  0
 29 30  1  0
 29 35  2  0
 30 31  2  0
 30 34  1  0
 31 33  1  0
 31 39  1  0
 32 36  1  0
 32 38  1  0
 34 40  2  0
 35 41  1  0
 36 37  1  0
 38 41  2  0
 39 42  2  0
 40 42  1  0
  1 44  1  0
  1 45  1  0
  2 46  1  0
  3 47  1  0
  4 48  1  0
  5 49  1  0
  7 50  1  1
 13 51  1  0
 13 52  1  0
 15 53  1  0
 16 54  1  0
 16 55  1  0
 17 56  1  0
 17 57  1  0
 18 58  1  0
 19 59  1  0
 21 60  1  0
 22 61  1  0
 23 62  1  0
 23 63  1  0
 23 64  1  0
 24 65  1  0
 25 66  1  0
 27 67  1  6
 33 68  1  0
 33 69  1  0
 35 70  1  0
 36 71  1  0
 36 72  1  0
 37 73  1  0
 37 74  1  0
 38 75  1  0
 39 76  1  0
 41 77  1  0
 42 78  1  0
 43 79  1  0
 43 80  1  0
 43 81  1  0
M  END
> <Uni-Dock RESULT> 
ENERGY=   -7.561  LOWER_BOUND=    1.803  UPPER_BOUND=    5.586
INTER + INTRA:          -7.561
INTER:                  -7.561
INTRA:                   0.000
UNBOUND:                 0.000

$$$$

     RDKit          3D

 81 84  0  0  0  0  0  0  0  0999 V2000
   47.7348    8.9662   20.9935 O   0  0  0  0  0  0  0  0  0  0  0  0
   47.7515    8.3009   20.5661 Cl  0  0  0  0  0  0  0  0  0  0  0  0
   47.7510    8.3051   20.5664 Cl  0  0  0  0  0  0  0  0  0  0  0  0
   48.7078    5.7518   18.7537 O   0  0  0  0  0  0  0  0  0  0  0  0
   48.7631    3.8092   20.6216 O   0  0  0  0  0  0  0  0  0  0  0  0
   47.9874   11.2131   21.6885 N   0  0  0  0  0  0  0  0  0  0  0  0
   47.2386   10.0734   21.2677 C   0  0  1  0  0  0  0  0  0  0  0  0
   47.6066    9.7261   19.8719 C   0  0  0  0  0  0  0  0  0  0  0  0
   47.9677    8.4838   19.4476 C   0  0  0  0  0  0  0  0  0  0  0  0
   48.0177    7.4057   20.4087 C   0  0  0  0  0  0  0  0  0  0  0  0
   47.7026    7.6525   21.7270 C   0  0  0  0  0  0  0  0  0  0  0  0
   47.5539   10.7999   18.9681 C   0  0  0  0  0  0  0  0  0  0  0  0
   47.3121    8.9821   22.2518 C   0  0  0  0  0  0  0  0  0  0  0  0
   48.3681    6.1418   20.0370 C   0  0  0  0  0  0  0  0  0  0  0  0
   48.2787    8.2972   18.1237 C   0  0  0  0  0  0  0  0  0  0  0  0
   47.1531   12.1046   19.5298 C   0  0  0  0  0  0  0  0  0  0  0  0
   47.9302   12.3388   20.7989 C   0  0  0  0  0  0  0  0  0  0  0  0
   47.8704   10.5834   17.6501 C   0  0  0  0  0  0  0  0  0  0  0  0
   47.7383    6.6256   22.6817 C   0  0  0  0  0  0  0  0  0  0  0  0
   48.4070    5.1067   20.9847 C   0  0  0  0  0  0  0  0  0  0  0  0
   48.2374    9.3459   17.1905 C   0  0  0  0  0  0  0  0  0  0  0  0
   48.0928    5.3551   22.2961 C   0  0  0  0  0  0  0  0  0  0  0  0
   47.7694   11.5591   23.0642 C   0  0  0  0  0  0  0  0  0  0  0  0
   47.9559    5.5287   21.9053 O   0  0  0  0  0  0  0  0  0  0  0  0
   47.7863    3.7673   19.8616 O   0  0  0  0  0  0  0  0  0  0  0  0
   47.1148   11.4296   19.6129 N   0  0  0  0  0  0  0  0  0  0  0  0
   47.9880   10.2614   19.6880 C   0  0  1  0  0  0  0  0  0  0  0  0
   48.0160    9.7128   21.0515 C   0  0  0  0  0  0  0  0  0  0  0  0
   47.9941    8.4099   21.4189 C   0  0  0  0  0  0  0  0  0  0  0  0
   47.8780    7.4147   20.3575 C   0  0  0  0  0  0  0  0  0  0  0  0
   47.7959    7.8846   19.0759 C   0  0  0  0  0  0  0  0  0  0  0  0
   48.0984   10.6816   22.0746 C   0  0  0  0  0  0  0  0  0  0  0  0
   47.7620    9.2800   18.6339 C   0  0  0  0  0  0  0  0  0  0  0  0
   47.8766    6.0747   20.6399 C   0  0  0  0  0  0  0  0  0  0  0  0
   48.0519    8.0436   22.7452 C   0  0  0  0  0  0  0  0  0  0  0  0
   48.1257   12.1265   21.7634 C   0  0  0  0  0  0  0  0  0  0  0  0
   47.7557   12.4753   20.3673 C   0  0  0  0  0  0  0  0  0  0  0  0
   48.1558   10.3196   23.4004 C   0  0  0  0  0  0  0  0  0  0  0  0
   47.7114    6.9229   18.0670 C   0  0  0  0  0  0  0  0  0  0  0  0
   47.7900    5.1318   19.6045 C   0  0  0  0  0  0  0  0  0  0  0  0
   48.1347    8.9996   23.7723 C   0  0  0  0  0  0  0  0  0  0  0  0
   47.7074    5.5747   18.3094 C   0  0  0  0  0  0  0  0  0  0  0  0
   45.8013   11.1467   20.1485 C   0  0  0  0  0  0  0  0  0  0  0  0
   47.7340    8.1982   20.3690 H   0  0  0  0  0  0  0  0  0  0  0  0
   47.5539    9.7879   20.4784 H   0  0  0  0  0  0  0  0  0  0  0  0
   47.5969    9.6673   20.6611 H   0  0  0  0  0  0  0  0  0  0  0  0
   47.5974    9.6630   20.6608 H   0  0  0  0  0  0  0  0  0  0  0  0
   48.2315    5.0251   18.2465 H   0  0  0  0  0  0  0  0  0  0  0  0
   48.2945    2.9972   21.0290 H   0  0  0  0  0  0  0  0  0  0  0  0
   46.1653   10.4227   21.1930 H   0  0  0  0  0  0  0  0  0  0  0  0
   46.3143    8.8071   22.7535 H   0  0  0  0  0  0  0  0  0  0  0  0
   48.0219    9.2060   23.0858 H   0  0  0  0  0  0  0  0  0  0  0  0
   48.5733    7.3574   17.6985 H   0  0  0  0  0  0  0  0  0  0  0  0
   46.0748   12.1396   19.7733 H   0  0  0  0  0  0  0  0  0  0  0  0
   47.3966   12.9195   18.8294 H   0  0  0  0  0  0  0  0  0  0  0  0
   47.4342   13.1712   21.3400 H   0  0  0  0  0  0  0  0  0  0  0  0
   48.9521   12.6455   20.5311 H   0  0  0  0  0  0  0  0  0  0  0  0
   47.8322   11.4031   16.9502 H   0  0  0  0  0  0  0  0  0  0  0  0
   47.4914    6.8107   23.7226 H   0  0  0  0  0  0  0  0  0  0  0  0
   48.4762    9.2120   16.1636 H   0  0  0  0  0  0  0  0  0  0  0  0
   48.1349    4.5320   22.9927 H   0  0  0  0  0  0  0  0  0  0  0  0
   46.6945   11.3172   23.3028 H   0  0  0  0  0  0  0  0  0  0  0  0
   48.4759   11.0770   23.7666 H   0  0  0  0  0  0  0  0  0  0  0  0
   47.9237   12.6607   23.1560 H   0  0  0  0  0  0  0  0  0  0  0  0
   47.3032    4.7788   22.1395 H   0  0  0  0  0  0  0  0  0  0  0  0
   48.5588    3.2999   20.3359 H   0  0  0  0  0  0  0  0  0  0  0  0
   49.0228   10.7182   19.5427 H   0  0  0  0  0  0  0  0  0  0  0  0
   48.4521    9.4033   17.7497 H   0  0  0  0  0  0  0  0  0  0  0  0
   46.6910    9.4469   18.2596 H   0  0  0  0  0  0  0  0  0  0  0  0
   48.0381    7.0327   23.1042 H   0  0  0  0  0  0  0  0  0  0  0  0
   49.1295   12.5977   21.9785 H   0  0  0  0  0  0  0  0  0  0  0  0
   47.4229   12.6090   22.5037 H   0  0  0  0  0  0  0  0  0  0  0  0
   47.1182   13.3978   20.3808 H   0  0  0  0  0  0  0  0  0  0  0  0
   48.6748   12.7611   19.7767 H   0  0  0  0  0  0  0  0  0  0  0  0
   48.2191   11.0522   24.1926 H   0  0  0  0  0  0  0  0  0  0  0  0
   47.6434    7.2225   17.0168 H   0  0  0  0  0  0  0  0  0  0  0  0
   48.1799    8.7105   24.8130 H   0  0  0  0  0  0  0  0  0  0  0  0
   47.6420    4.8287   17.5304 H   0  0  0  0  0  0  0  0  0  0  0  0
   45.5241   11.9355   20.8901 H   0  0  0  0  0  0  0  0  0  0  0  0
   45.0732   11.2494   19.3172 H   0  0  0  0  0  0  0  0  0  0  0  0
   45.7535   10.1802   20.6746 H   0  0  0  0  0  0  0  0  0  0  0  0
  4 14  1  0
  5 20  1  0
  6  7  1  0
  6 17  1  0
  6 23  1  0
  7  8  1  0
  7 13  1  0
  8  9  1  0
  8 12  2  0
  9 10  1  0
  9 15  2  0
 10 11  2  0
 10 14  1  0
 11 13  1  0
 11 19  1  0
 12 16  1  0
 12 18  1  0
 14 20  2  0
 15 21  1  0
 16 17  1  0
 18 21  2  0
 19 22  2  0
 20 22  1  0
 24 34  1  0
 25 40  1  0
 26 27  1  0
 26 37  1  0
 26 43  1  0
 27 28  1  0
 27 33  1  0
 28 29  1  0
 28 32  2  0
 29 30  1  0
 29 35  2  0
 30 31  2  0
 30 34  1  0
 31 33  1  0
 31 39  1  0
 32 36  1  0
 32 38  1  0
 34 40  2  0
 35 41  1  0
 36 37  1  0
 38 41  2  0
 39 42  2  0
 40 42  1  0
  1 44  1  0
  1 45  1  0
  2 46  1  0
  3 47  1  0
  4 48  1  0
  5 49  1  0
  7 50  1  1
 13 51  1  0
 13 52  1  0
 15 53  1  0
 16 54  1  0
 16 55  1  0
 17 56  1  0
 17 57  1  0
 18 58  1  0
 19 59  1  0
 21 60  1  0
 22 61  1  0
 23 62  1  0
 23 63  1  0
 23 64  1  0
 24 65  1  0
 25 66  1  0
 27 67  1  6
 33 68  1  0
 33 69  1  0
 35 70  1  0
 36 71  1  0
 36 72  1  0
 37 73  1  0
 37 74  1  0
 38 75  1  0
 39 76  1  0
 41 77  1  0
 42 78  1  0
 43 79  1  0
 43 80  1  0
 43 81  1  0
M  END
> <Uni-Dock RESULT> 
ENERGY=   -7.227  LOWER_BOUND=    7.124  UPPER_BOUND=    9.155
INTER + INTRA:          -7.227
INTER:                  -7.227
INTRA:                   0.000
UNBOUND:                 0.000

$$$$

     RDKit          3D

 81 84  0  0  0  0  0  0  0  0999 V2000
   46.3429    8.9876   12.4024 O   0  0  0  0  0  0  0  0  0  0  0  0
   46.0542    9.6890   12.1780 Cl  0  0  0  0  0  0  0  0  0  0  0  0
   46.0572    9.6867   12.1799 Cl  0  0  0  0  0  0  0  0  0  0  0  0
   45.3273   12.3956   10.4919 O   0  0  0  0  0  0  0  0  0  0  0  0
   42.8287   11.8095    9.6678 O   0  0  0  0  0  0  0  0  0  0  0  0
   47.8148    7.2070   12.9101 N   0  0  0  0  0  0  0  0  0  0  0  0
   46.9057    8.2572   13.2373 C   0  0  1  0  0  0  0  0  0  0  0  0
   47.4941    9.5627   12.8450 C   0  0  0  0  0  0  0  0  0  0  0  0
   46.8620   10.5089   12.0976 C   0  0  0  0  0  0  0  0  0  0  0  0
   45.5217   10.2447   11.6260 C   0  0  0  0  0  0  0  0  0  0  0  0
   44.9127    9.0489   11.9380 C   0  0  0  0  0  0  0  0  0  0  0  0
   48.7996    9.7810   13.3146 C   0  0  0  0  0  0  0  0  0  0  0  0
   45.5503    7.9769   12.7380 C   0  0  0  0  0  0  0  0  0  0  0  0
   44.8413   11.1592   10.8783 C   0  0  0  0  0  0  0  0  0  0  0  0
   47.5199   11.6790   11.8107 C   0  0  0  0  0  0  0  0  0  0  0  0
   49.3948    8.6922   14.1136 C   0  0  0  0  0  0  0  0  0  0  0  0
   49.1521    7.3873   13.4011 C   0  0  0  0  0  0  0  0  0  0  0  0
   49.4328   10.9608   13.0118 C   0  0  0  0  0  0  0  0  0  0  0  0
   43.6113    8.7658   11.4980 C   0  0  0  0  0  0  0  0  0  0  0  0
   43.5383   10.8858   10.4329 C   0  0  0  0  0  0  0  0  0  0  0  0
   48.8251   11.9335   12.2624 C   0  0  0  0  0  0  0  0  0  0  0  0
   42.9344    9.6949   10.7448 C   0  0  0  0  0  0  0  0  0  0  0  0
   47.2842    5.8976   13.1626 C   0  0  0  0  0  0  0  0  0  0  0  0
   43.2346    9.9554   10.9538 O   0  0  0  0  0  0  0  0  0  0  0  0
   42.8873   12.6140   10.6075 O   0  0  0  0  0  0  0  0  0  0  0  0
   48.8094    8.9751   13.9107 N   0  0  0  0  0  0  0  0  0  0  0  0
   48.1337    9.3875   12.6834 C   0  0  1  0  0  0  0  0  0  0  0  0
   46.9872    8.5138   12.3955 C   0  0  0  0  0  0  0  0  0  0  0  0
   45.7637    8.8773   11.9442 C   0  0  0  0  0  0  0  0  0  0  0  0
   45.5113   10.3034   11.7626 C   0  0  0  0  0  0  0  0  0  0  0  0
   46.5352   11.1563   12.0697 C   0  0  0  0  0  0  0  0  0  0  0  0
   47.2284    7.1384   12.6014 C   0  0  0  0  0  0  0  0  0  0  0  0
   47.8531   10.8162   12.6093 C   0  0  0  0  0  0  0  0  0  0  0  0
   44.3104   10.7550   11.2838 C   0  0  0  0  0  0  0  0  0  0  0  0
   44.7893    7.9368   11.6936 C   0  0  0  0  0  0  0  0  0  0  0  0
   48.5351    6.6534   13.0940 C   0  0  0  0  0  0  0  0  0  0  0  0
   49.4328    7.7069   13.6345 C   0  0  0  0  0  0  0  0  0  0  0  0
   46.2577    6.1962   12.3527 C   0  0  0  0  0  0  0  0  0  0  0  0
   46.2913   12.5163   11.8674 C   0  0  0  0  0  0  0  0  0  0  0  0
   44.0946   12.1280   11.0914 C   0  0  0  0  0  0  0  0  0  0  0  0
   45.0185    6.5646   11.8945 C   0  0  0  0  0  0  0  0  0  0  0  0
   45.1044   13.0062   11.3902 C   0  0  0  0  0  0  0  0  0  0  0  0
   47.8817    8.8571   15.0142 C   0  0  0  0  0  0  0  0  0  0  0  0
   46.0730    9.9111   12.1691 H   0  0  0  0  0  0  0  0  0  0  0  0
   47.2029    9.0259   12.8841 H   0  0  0  0  0  0  0  0  0  0  0  0
   47.0249    8.9274   12.7924 H   0  0  0  0  0  0  0  0  0  0  0  0
   47.0219    8.9298   12.7905 H   0  0  0  0  0  0  0  0  0  0  0  0
   44.8751   13.2670   10.7119 H   0  0  0  0  0  0  0  0  0  0  0  0
   41.8254   11.9509    9.8032 H   0  0  0  0  0  0  0  0  0  0  0  0
   46.8752    8.2949   14.3674 H   0  0  0  0  0  0  0  0  0  0  0  0
   44.8265    7.7867   13.5852 H   0  0  0  0  0  0  0  0  0  0  0  0
   45.5094    7.0547   12.1076 H   0  0  0  0  0  0  0  0  0  0  0  0
   47.1040   12.4799   11.2306 H   0  0  0  0  0  0  0  0  0  0  0  0
   48.9472    8.6236   15.1227 H   0  0  0  0  0  0  0  0  0  0  0  0
   50.4842    8.8294   14.2053 H   0  0  0  0  0  0  0  0  0  0  0  0
   49.3576    6.5728   14.1265 H   0  0  0  0  0  0  0  0  0  0  0  0
   49.8624    7.3087   12.5649 H   0  0  0  0  0  0  0  0  0  0  0  0
   50.4353   11.1357   13.3689 H   0  0  0  0  0  0  0  0  0  0  0  0
   43.1235    7.8264   11.7390 H   0  0  0  0  0  0  0  0  0  0  0  0
   49.3431   12.8359   12.0459 H   0  0  0  0  0  0  0  0  0  0  0  0
   41.9322    9.5240   10.3831 H   0  0  0  0  0  0  0  0  0  0  0  0
   46.6232    5.9753   14.0724 H   0  0  0  0  0  0  0  0  0  0  0  0
   46.7590    5.4507   12.2969 H   0  0  0  0  0  0  0  0  0  0  0  0
   48.1481    5.2306   13.3959 H   0  0  0  0  0  0  0  0  0  0  0  0
   42.3131   10.2376   11.2922 H   0  0  0  0  0  0  0  0  0  0  0  0
   42.5161   12.3426    9.6970 H   0  0  0  0  0  0  0  0  0  0  0  0
   48.9006    9.1261   11.8809 H   0  0  0  0  0  0  0  0  0  0  0  0
   48.6413   11.4006   12.0520 H   0  0  0  0  0  0  0  0  0  0  0  0
   47.8398   11.2007   13.6895 H   0  0  0  0  0  0  0  0  0  0  0  0
   43.8016    8.1560   11.3366 H   0  0  0  0  0  0  0  0  0  0  0  0
   49.1116    6.0846   12.3066 H   0  0  0  0  0  0  0  0  0  0  0  0
   48.2942    5.8805   13.8810 H   0  0  0  0  0  0  0  0  0  0  0  0
   49.9443    7.3122   14.5510 H   0  0  0  0  0  0  0  0  0  0  0  0
   50.2655    7.9266   12.9041 H   0  0  0  0  0  0  0  0  0  0  0  0
   46.4305    5.1404   12.5065 H   0  0  0  0  0  0  0  0  0  0  0  0
   47.0631   13.2593   12.0900 H   0  0  0  0  0  0  0  0  0  0  0  0
   44.2527    5.8275   11.6974 H   0  0  0  0  0  0  0  0  0  0  0  0
   44.9133   14.0581   11.2330 H   0  0  0  0  0  0  0  0  0  0  0  0
   48.0165    7.8642   15.5091 H   0  0  0  0  0  0  0  0  0  0  0  0
   48.1713    9.6116   15.7751 H   0  0  0  0  0  0  0  0  0  0  0  0
   46.8291    8.9171   14.6958 H   0  0  0  0  0  0  0  0  0  0  0  0
  4 14  1  0
  5 20  1  0
  6  7  1  0
  6 17  1  0
  6 23  1  0
  7  8  1  0
  7 13  1  0
  8  9  1  0
  8 12  2  0
  9 10  1  0
  9 15  2  0
 10 11  2  0
 10 14  1  0
 11 13  1  0
 11 19  1  0
 12 16  1  0
 12 18  1  0
 14 20  2  0
 15 21  1  0
 16 17  1  0
 18 21  2  0
 19 22  2  0
 20 22  1  0
 24 34  1  0
 25 40  1  0
 26 27  1  0
 26 37  1  0
 26 43  1  0
 27 28  1  0
 27 33  1  0
 28 29  1  0
 28 32  2  0
 29 30  1  0
 29 35  2  0
 30 31  2  0
 30 34  1  0
 31 33  1  0
 31 39  1  0
 32 36  1  0
 32 38  1  0
 34 40  2  0
 35 41  1  0
 36 37  1  0
 38 41  2  0
 39 42  2  0
 40 42  1  0
  1 44  1  0
  1 45  1  0
  2 46  1  0
  3 47  1  0
  4 48  1  0
  5 49  1  0
  7 50  1  1
 13 51  1  0
 13 52  1  0
 15 53  1  0
 16 54  1  0
 16 55  1  0
 17 56  1  0
 17 57  1  0
 18 58  1  0
 19 59  1  0
 21 60  1  0
 22 61  1  0
 23 62  1  0
 23 63  1  0
 23 64  1  0
 24 65  1  0
 25 66  1  0
 27 67  1  6
 33 68  1  0
 33 69  1  0
 35 70  1  0
 36 71  1  0
 36 72  1  0
 37 73  1  0
 37 74  1  0
 38 75  1  0
 39 76  1  0
 41 77  1  0
 42 78  1  0
 43 79  1  0
 43 80  1  0
 43 81  1  0
M  END
> <Uni-Dock RESULT> 
ENERGY=   -7.100  LOWER_BOUND=    2.230  UPPER_BOUND=    4.799
INTER + INTRA:          -7.100
INTER:                  -7.100
INTRA:                   0.000
UNBOUND:                 0.000

$$$$

     RDKit          3D

 81 84  0  0  0  0  0  0  0  0999 V2000
   48.0676    9.0511   19.9794 O   0  0  0  0  0  0  0  0  0  0  0  0
   48.0891    8.2903   20.1948 Cl  0  0  0  0  0  0  0  0  0  0  0  0
   48.0892    8.2945   20.1958 Cl  0  0  0  0  0  0  0  0  0  0  0  0
   47.2734    5.2503   21.0838 O   0  0  0  0  0  0  0  0  0  0  0  0
   47.5982    3.9471   18.7468 O   0  0  0  0  0  0  0  0  0  0  0  0
   47.6245   11.3741   19.9286 N   0  0  0  0  0  0  0  0  0  0  0  0
   48.4578   10.2269   20.0909 C   0  0  1  0  0  0  0  0  0  0  0  0
   48.0124    9.4544   21.2780 C   0  0  0  0  0  0  0  0  0  0  0  0
   47.7583    8.1169   21.2865 C   0  0  0  0  0  0  0  0  0  0  0  0
   47.9129    7.3697   20.0591 C   0  0  0  0  0  0  0  0  0  0  0  0
   48.3105    8.0193   18.9111 C   0  0  0  0  0  0  0  0  0  0  0  0
   47.8659   10.2146   22.4498 C   0  0  0  0  0  0  0  0  0  0  0  0
   48.5926    9.4720   18.8351 C   0  0  0  0  0  0  0  0  0  0  0  0
   47.6762    6.0280   20.0127 C   0  0  0  0  0  0  0  0  0  0  0  0
   47.3573    7.5233   22.4574 C   0  0  0  0  0  0  0  0  0  0  0  0
   48.1641   11.6554   22.3328 C   0  0  0  0  0  0  0  0  0  0  0  0
   47.4778   12.1882   21.1022 C   0  0  0  0  0  0  0  0  0  0  0  0
   47.4634    9.5938   23.6061 C   0  0  0  0  0  0  0  0  0  0  0  0
   48.4730    7.3201   17.7061 C   0  0  0  0  0  0  0  0  0  0  0  0
   47.8359    5.3187   18.8117 C   0  0  0  0  0  0  0  0  0  0  0  0
   47.1999    8.2500   23.6489 C   0  0  0  0  0  0  0  0  0  0  0  0
   48.2319    5.9677   17.6705 C   0  0  0  0  0  0  0  0  0  0  0  0
   47.9198   12.1270   18.7430 C   0  0  0  0  0  0  0  0  0  0  0  0
   48.3142    6.0291   18.1076 O   0  0  0  0  0  0  0  0  0  0  0  0
   48.5044    3.7638   19.5707 O   0  0  0  0  0  0  0  0  0  0  0  0
   48.2851   11.0404   22.0660 N   0  0  0  0  0  0  0  0  0  0  0  0
   47.5587    9.8783   21.5614 C   0  0  1  0  0  0  0  0  0  0  0  0
   47.7102    9.7556   20.1044 C   0  0  0  0  0  0  0  0  0  0  0  0
   47.9102    8.6255   19.3864 C   0  0  0  0  0  0  0  0  0  0  0  0
   48.0457    7.3748   20.1265 C   0  0  0  0  0  0  0  0  0  0  0  0
   47.9638    7.4511   21.4894 C   0  0  0  0  0  0  0  0  0  0  0  0
   47.6077   10.9727   19.3971 C   0  0  0  0  0  0  0  0  0  0  0  0
   47.8022    8.6520   22.3112 C   0  0  0  0  0  0  0  0  0  0  0  0
   48.2223    6.1825   19.4765 C   0  0  0  0  0  0  0  0  0  0  0  0
   48.0084    8.6629   18.0132 C   0  0  0  0  0  0  0  0  0  0  0  0
   47.3912   12.2543   20.1014 C   0  0  0  0  0  0  0  0  0  0  0  0
   47.5981   12.2053   21.5719 C   0  0  0  0  0  0  0  0  0  0  0  0
   47.7058   11.0142   18.0256 C   0  0  0  0  0  0  0  0  0  0  0  0
   48.0687    6.2452   22.1855 C   0  0  0  0  0  0  0  0  0  0  0  0
   48.3249    4.9867   20.2033 C   0  0  0  0  0  0  0  0  0  0  0  0
   47.9073    9.8690   17.2983 C   0  0  0  0  0  0  0  0  0  0  0  0
   48.2454    5.0335   21.5715 C   0  0  0  0  0  0  0  0  0  0  0  0
   49.6634   11.0375   21.6270 C   0  0  0  0  0  0  0  0  0  0  0  0
   48.1011    8.1359   20.3553 H   0  0  0  0  0  0  0  0  0  0  0  0
   48.1098    9.6964   20.7244 H   0  0  0  0  0  0  0  0  0  0  0  0
   48.0966    9.6319   20.5112 H   0  0  0  0  0  0  0  0  0  0  0  0
   48.0965    9.6277   20.5102 H   0  0  0  0  0  0  0  0  0  0  0  0
   47.7830    4.4484   21.4145 H   0  0  0  0  0  0  0  0  0  0  0  0
   48.1885    3.3328   18.1820 H   0  0  0  0  0  0  0  0  0  0  0  0
   49.4745   10.6261   20.3849 H   0  0  0  0  0  0  0  0  0  0  0  0
   49.6433    9.5357   18.4228 H   0  0  0  0  0  0  0  0  0  0  0  0
   47.9366    9.8724   18.0234 H   0  0  0  0  0  0  0  0  0  0  0  0
   47.1349    6.4789   22.5606 H   0  0  0  0  0  0  0  0  0  0  0  0
   49.2486   11.8496   22.2353 H   0  0  0  0  0  0  0  0  0  0  0  0
   47.7710   12.2045   23.2033 H   0  0  0  0  0  0  0  0  0  0  0  0
   47.9217   13.1812   20.8814 H   0  0  0  0  0  0  0  0  0  0  0  0
   46.4086   12.3168   21.3267 H   0  0  0  0  0  0  0  0  0  0  0  0
   47.3487   10.1710   24.5099 H   0  0  0  0  0  0  0  0  0  0  0  0
   48.7862    7.8236   16.7966 H   0  0  0  0  0  0  0  0  0  0  0  0
   46.8901    7.8001   24.5605 H   0  0  0  0  0  0  0  0  0  0  0  0
   48.3428    5.3860   16.7684 H   0  0  0  0  0  0  0  0  0  0  0  0
   49.0316   12.0558   18.5709 H   0  0  0  0  0  0  0  0  0  0  0  0
   47.3352   11.8167   17.8559 H   0  0  0  0  0  0  0  0  0  0  0  0
   47.6510   13.1900   18.9515 H   0  0  0  0  0  0  0  0  0  0  0  0
   49.0649    5.4381   17.7464 H   0  0  0  0  0  0  0  0  0  0  0  0
   47.8331    3.3948   18.8972 H   0  0  0  0  0  0  0  0  0  0  0  0
   46.4705   10.1849   21.7106 H   0  0  0  0  0  0  0  0  0  0  0  0
   47.0290    8.4517   23.1083 H   0  0  0  0  0  0  0  0  0  0  0  0
   48.8113    8.7890   22.8383 H   0  0  0  0  0  0  0  0  0  0  0  0
   48.1668    7.8075   17.3854 H   0  0  0  0  0  0  0  0  0  0  0  0
   46.3631   12.6833   19.9152 H   0  0  0  0  0  0  0  0  0  0  0  0
   48.0964   12.9899   19.6152 H   0  0  0  0  0  0  0  0  0  0  0  0
   48.1264   13.1402   21.8951 H   0  0  0  0  0  0  0  0  0  0  0  0
   46.6052   12.2274   22.1095 H   0  0  0  0  0  0  0  0  0  0  0  0
   47.6289   11.9399   17.4730 H   0  0  0  0  0  0  0  0  0  0  0  0
   48.0119    6.2264   23.2781 H   0  0  0  0  0  0  0  0  0  0  0  0
   47.9847    9.8968   16.2204 H   0  0  0  0  0  0  0  0  0  0  0  0
   48.3270    4.0990   22.1080 H   0  0  0  0  0  0  0  0  0  0  0  0
   49.9128   12.0299   21.1778 H   0  0  0  0  0  0  0  0  0  0  0  0
   50.3010   10.9503   22.5313 H   0  0  0  0  0  0  0  0  0  0  0  0
   49.8648   10.2764   20.8568 H   0  0  0  0  0  0  0  0  0  0  0  0
  4 14  1  0
  5 20  1  0
  6  7  1  0
  6 17  1  0
  6 23  1  0
  7  8  1  0
  7 13  1  0
  8  9  1  0
  8 12  2  0
  9 10  1  0
  9 15  2  0
 10 11  2  0
 10 14  1  0
 11 13  1  0
 11 19  1  0
 12 16  1  0
 12 18  1  0
 14 20  2  0
 15 21  1  0
 16 17  1  0
 18 21  2  0
 19 22  2  0
 20 22  1  0
 24 34  1  0
 25 40  1  0
 26 27  1  0
 26 37  1  0
 26 43  1  0
 27 28  1  0
 27 33  1  0
 28 29  1  0
 28 32  2  0
 29 30  1  0
 29 35  2  0
 30 31  2  0
 30 34  1  0
 31 33  1  0
 31 39  1  0
 32 36  1  0
 32 38  1  0
 34 40  2  0
 35 41  1  0
 36 37  1  0
 38 41  2  0
 39 42  2  0
 40 42  1  0
  1 44  1  0
  1 45  1  0
  2 46  1  0
  3 47  1  0
  4 48  1  0
  5 49  1  0
  7 50  1  1
 13 51  1  0
 13 52  1  0
 15 53  1  0
 16 54  1  0
 16 55  1  0
 17 56  1  0
 17 57  1  0
 18 58  1  0
 19 59  1  0
 21 60  1  0
 22 61  1  0
 23 62  1  0
 23 63  1  0
 23 64  1  0
 24 65  1  0
 25 66  1  0
 27 67  1  6
 33 68  1  0
 33 69  1  0
 35 70  1  0
 36 71  1  0
 36 72  1  0
 37 73  1  0
 37 74  1  0
 38 75  1  0
 39 76  1  0
 41 77  1  0
 42 78  1  0
 43 79  1  0
 43 80  1  0
 43 81  1  0
M  END
> <Uni-Dock RESULT> 
ENERGY=   -7.053  LOWER_BOUND=    6.945  UPPER_BOUND=    9.316
INTER + INTRA:          -7.053
INTER:                  -7.053
INTRA:                   0.000
UNBOUND:                 0.000

$$$$

     RDKit          3D

 81 84  0  0  0  0  0  0  0  0999 V2000
   45.0604    9.9317   11.5813 O   0  0  0  0  0  0  0  0  0  0  0  0
   45.3689    9.2357   11.7959 Cl  0  0  0  0  0  0  0  0  0  0  0  0
   45.3693    9.2399   11.7951 Cl  0  0  0  0  0  0  0  0  0  0  0  0
   46.3625    6.6304   13.5053 O   0  0  0  0  0  0  0  0  0  0  0  0
   44.4138    4.8690   12.9008 O   0  0  0  0  0  0  0  0  0  0  0  0
   44.5818   12.2437   11.4370 N   0  0  0  0  0  0  0  0  0  0  0  0
   45.1292   11.0119   10.9684 C   0  0  1  0  0  0  0  0  0  0  0  0
   46.2216   10.5776   11.8752 C   0  0  0  0  0  0  0  0  0  0  0  0
   46.3274    9.3388   12.4299 C   0  0  0  0  0  0  0  0  0  0  0  0
   45.3073    8.3563   12.1422 C   0  0  0  0  0  0  0  0  0  0  0  0
   44.2537    8.6886   11.3190 C   0  0  0  0  0  0  0  0  0  0  0  0
   47.1898   11.5606   12.1379 C   0  0  0  0  0  0  0  0  0  0  0  0
   44.0774   10.0203   10.6935 C   0  0  0  0  0  0  0  0  0  0  0  0
   45.3668    7.0997   12.6672 C   0  0  0  0  0  0  0  0  0  0  0  0
   47.3945    9.0655   13.2490 C   0  0  0  0  0  0  0  0  0  0  0  0
   46.9810   12.8699   11.4896 C   0  0  0  0  0  0  0  0  0  0  0  0
   45.5447   13.2790   11.6878 C   0  0  0  0  0  0  0  0  0  0  0  0
   48.2460   11.2585   12.9611 C   0  0  0  0  0  0  0  0  0  0  0  0
   43.2509    7.7551   11.0183 C   0  0  0  0  0  0  0  0  0  0  0  0
   44.3682    6.1578   12.3726 C   0  0  0  0  0  0  0  0  0  0  0  0
   48.3823   10.0219   13.5349 C   0  0  0  0  0  0  0  0  0  0  0  0
   43.3207    6.4910   11.5529 C   0  0  0  0  0  0  0  0  0  0  0  0
   43.4492   12.6877   10.6757 C   0  0  0  0  0  0  0  0  0  0  0  0
   43.7509    6.6178   11.5748 O   0  0  0  0  0  0  0  0  0  0  0  0
   45.4846    4.6778   12.3090 O   0  0  0  0  0  0  0  0  0  0  0  0
   46.8434   12.2039   11.4515 N   0  0  0  0  0  0  0  0  0  0  0  0
   46.3015   11.1257   12.2741 C   0  0  1  0  0  0  0  0  0  0  0  0
   44.9825   10.7018   11.7828 C   0  0  0  0  0  0  0  0  0  0  0  0
   44.5075    9.4386   11.6749 C   0  0  0  0  0  0  0  0  0  0  0  0
   45.4096    8.3489   12.0341 C   0  0  0  0  0  0  0  0  0  0  0  0
   46.6660    8.6971   12.4466 C   0  0  0  0  0  0  0  0  0  0  0  0
   44.1255   11.7591   11.4091 C   0  0  0  0  0  0  0  0  0  0  0  0
   47.2415   10.0409   12.5290 C   0  0  0  0  0  0  0  0  0  0  0  0
   45.0001    7.0432   11.9802 C   0  0  0  0  0  0  0  0  0  0  0  0
   43.2314    9.1950   11.2176 C   0  0  0  0  0  0  0  0  0  0  0  0
   44.5631   13.1686   11.4935 C   0  0  0  0  0  0  0  0  0  0  0  0
   46.0227   13.3621   11.6930 C   0  0  0  0  0  0  0  0  0  0  0  0
   42.8505   11.5197   10.9516 C   0  0  0  0  0  0  0  0  0  0  0  0
   47.5117    7.6479   12.8125 C   0  0  0  0  0  0  0  0  0  0  0  0
   45.8729    6.0101   12.3538 C   0  0  0  0  0  0  0  0  0  0  0  0
   42.3691   10.2400   10.8432 C   0  0  0  0  0  0  0  0  0  0  0  0
   47.1388    6.3304   12.7725 C   0  0  0  0  0  0  0  0  0  0  0  0
   46.8344   11.8570   10.0473 C   0  0  0  0  0  0  0  0  0  0  0  0
   45.5443    9.1151   11.8626 H   0  0  0  0  0  0  0  0  0  0  0  0
   45.6949   10.6871   11.5834 H   0  0  0  0  0  0  0  0  0  0  0  0
   45.4975   10.5869   11.5557 H   0  0  0  0  0  0  0  0  0  0  0  0
   45.4971   10.5826   11.5564 H   0  0  0  0  0  0  0  0  0  0  0  0
   46.9293    5.8243   13.3024 H   0  0  0  0  0  0  0  0  0  0  0  0
   44.1323    4.0582   12.3456 H   0  0  0  0  0  0  0  0  0  0  0  0
   45.6558   11.2601    9.9985 H   0  0  0  0  0  0  0  0  0  0  0  0
   43.9885    9.8046    9.5874 H   0  0  0  0  0  0  0  0  0  0  0  0
   43.0639   10.3756   11.0032 H   0  0  0  0  0  0  0  0  0  0  0  0
   47.5614    8.1210   13.7296 H   0  0  0  0  0  0  0  0  0  0  0  0
   47.1833   12.8334   10.4028 H   0  0  0  0  0  0  0  0  0  0  0  0
   47.6184   13.6389   11.9547 H   0  0  0  0  0  0  0  0  0  0  0  0
   45.3384   14.1096   10.9812 H   0  0  0  0  0  0  0  0  0  0  0  0
   45.4255   13.6477   12.7173 H   0  0  0  0  0  0  0  0  0  0  0  0
   48.9934   12.0082   13.1674 H   0  0  0  0  0  0  0  0  0  0  0  0
   42.4172    8.0080   10.3706 H   0  0  0  0  0  0  0  0  0  0  0  0
   49.2122    9.8205   14.1675 H   0  0  0  0  0  0  0  0  0  0  0  0
   42.5744    5.7381   11.3515 H   0  0  0  0  0  0  0  0  0  0  0  0
   43.6231   12.3762    9.6063 H   0  0  0  0  0  0  0  0  0  0  0  0
   42.4770   12.3306   11.0660 H   0  0  0  0  0  0  0  0  0  0  0  0
   43.4301   13.8023   10.7318 H   0  0  0  0  0  0  0  0  0  0  0  0
   43.7065    5.8378   10.9168 H   0  0  0  0  0  0  0  0  0  0  0  0
   44.6967    4.3211   12.8497 H   0  0  0  0  0  0  0  0  0  0  0  0
   46.0823   11.6552   13.2601 H   0  0  0  0  0  0  0  0  0  0  0  0
   47.7941   10.1457   13.5073 H   0  0  0  0  0  0  0  0  0  0  0  0
   48.0203   10.0823   11.6884 H   0  0  0  0  0  0  0  0  0  0  0  0
   42.7941    8.2215   11.1073 H   0  0  0  0  0  0  0  0  0  0  0  0
   44.0284   13.7409   12.3074 H   0  0  0  0  0  0  0  0  0  0  0  0
   44.2157   13.6515   10.5339 H   0  0  0  0  0  0  0  0  0  0  0  0
   46.3638   14.2242   11.0623 H   0  0  0  0  0  0  0  0  0  0  0  0
   46.2362   13.6733   12.7574 H   0  0  0  0  0  0  0  0  0  0  0  0
   42.1851   12.3209   10.6625 H   0  0  0  0  0  0  0  0  0  0  0  0
   48.5318    7.8484   13.1538 H   0  0  0  0  0  0  0  0  0  0  0  0
   41.3678   10.0472   10.4844 H   0  0  0  0  0  0  0  0  0  0  0  0
   47.7914    5.5168   13.0549 H   0  0  0  0  0  0  0  0  0  0  0  0
   46.3545   12.6805    9.4637 H   0  0  0  0  0  0  0  0  0  0  0  0
   47.8898   11.8245    9.7053 H   0  0  0  0  0  0  0  0  0  0  0  0
   46.2627   10.9392    9.8376 H   0  0  0  0  0  0  0  0  0  0  0  0
  4 14  1  0
  5 20  1  0
  6  7  1  0
  6 17  1  0
  6 23  1  0
  7  8  1  0
  7 13  1  0
  8  9  1  0
  8 12  2  0
  9 10  1  0
  9 15  2  0
 10 11  2  0
 10 14  1  0
 11 13  1  0
 11 19  1  0
 12 16  1  0
 12 18  1  0
 14 20  2  0
 15 21  1  0
 16 17  1  0
 18 21  2  0
 19 22  2  0
 20 22  1  0
 24 34  1  0
 25 40  1  0
 26 27  1  0
 26 37  1  0
 26 43  1  0
 27 28  1  0
 27 33  1  0
 28 29  1  0
 28 32  2  0
 29 30  1  0
 29 35  2  0
 30 31  2  0
 30 34  1  0
 31 33  1  0
 31 39  1  0
 32 36  1  0
 32 38  1  0
 34 40  2  0
 35 41  1  0
 36 37  1  0
 38 41  2  0
 39 42  2  0
 40 42  1  0
  1 44  1  0
  1 45  1  0
  2 46  1  0
  3 47  1  0
  4 48  1  0
  5 49  1  0
  7 50  1  1
 13 51  1  0
 13 52  1  0
 15 53  1  0
 16 54  1  0
 16 55  1  0
 17 56  1  0
 17 57  1  0
 18 58  1  0
 19 59  1  0
 21 60  1  0
 22 61  1  0
 23 62  1  0
 23 63  1  0
 23 64  1  0
 24 65  1  0
 25 66  1  0
 27 67  1  6
 33 68  1  0
 33 69  1  0
 35 70  1  0
 36 71  1  0
 36 72  1  0
 37 73  1  0
 37 74  1  0
 38 75  1  0
 39 76  1  0
 41 77  1  0
 42 78  1  0
 43 79  1  0
 43 80  1  0
 43 81  1  0
M  END
> <Uni-Dock RESULT> 
ENERGY=   -7.043  LOWER_BOUND=    2.295  UPPER_BOUND=    5.650
INTER + INTRA:          -7.043
INTER:                  -7.043
INTRA:                   0.000
UNBOUND:                 0.000

$$$$

     RDKit          3D

 81 84  0  0  0  0  0  0  0  0999 V2000
   47.1809    9.8166   12.4531 O   0  0  0  0  0  0  0  0  0  0  0  0
   46.4624    9.8588   12.1250 Cl  0  0  0  0  0  0  0  0  0  0  0  0
   46.4657    9.8565   12.1265 Cl  0  0  0  0  0  0  0  0  0  0  0  0
   43.2335   10.0527   11.6418 O   0  0  0  0  0  0  0  0  0  0  0  0
   42.9821   12.6631   11.0186 O   0  0  0  0  0  0  0  0  0  0  0  0
   49.0341    9.1369   13.7564 N   0  0  0  0  0  0  0  0  0  0  0  0
   48.3127    9.3074   12.5370 C   0  0  1  0  0  0  0  0  0  0  0  0
   47.0917    8.4630   12.5608 C   0  0  0  0  0  0  0  0  0  0  0  0
   45.8343    8.9035   12.2807 C   0  0  0  0  0  0  0  0  0  0  0  0
   45.6419   10.2957   11.9440 C   0  0  0  0  0  0  0  0  0  0  0  0
   46.7256   11.1459   11.9139 C   0  0  0  0  0  0  0  0  0  0  0  0
   47.3164    7.1185   12.8992 C   0  0  0  0  0  0  0  0  0  0  0  0
   48.1150   10.7300   12.2177 C   0  0  0  0  0  0  0  0  0  0  0  0
   44.4052   10.7884   11.6503 C   0  0  0  0  0  0  0  0  0  0  0  0
   44.7905    8.0137   12.3336 C   0  0  0  0  0  0  0  0  0  0  0  0
   48.7149    6.7444   13.1867 C   0  0  0  0  0  0  0  0  0  0  0  0
   49.3048    7.7732   14.1156 C   0  0  0  0  0  0  0  0  0  0  0  0
   46.2531    6.2515   12.9443 C   0  0  0  0  0  0  0  0  0  0  0  0
   46.5705   12.5010   11.5867 C   0  0  0  0  0  0  0  0  0  0  0  0
   44.2391   12.1432   11.3215 C   0  0  0  0  0  0  0  0  0  0  0  0
   44.9756    6.6623   12.6677 C   0  0  0  0  0  0  0  0  0  0  0  0
   45.3194   12.9872   11.2922 C   0  0  0  0  0  0  0  0  0  0  0  0
   50.1796    9.9949   13.8630 C   0  0  0  0  0  0  0  0  0  0  0  0
   45.2641   12.5497   11.2071 O   0  0  0  0  0  0  0  0  0  0  0  0
   42.9099   11.8921   10.0522 O   0  0  0  0  0  0  0  0  0  0  0  0
   48.3156    7.1887   12.8593 N   0  0  0  0  0  0  0  0  0  0  0  0
   47.1918    8.0842   13.1198 C   0  0  1  0  0  0  0  0  0  0  0  0
   47.6117    9.4908   13.0430 C   0  0  0  0  0  0  0  0  0  0  0  0
   46.9423   10.5237   12.4793 C   0  0  0  0  0  0  0  0  0  0  0  0
   45.6760   10.2227   11.8186 C   0  0  0  0  0  0  0  0  0  0  0  0
   45.2731    8.9159   11.8207 C   0  0  0  0  0  0  0  0  0  0  0  0
   48.8512    9.7698   13.6578 C   0  0  0  0  0  0  0  0  0  0  0  0
   45.9853    7.7598   12.3685 C   0  0  0  0  0  0  0  0  0  0  0  0
   44.9220   11.2130   11.2474 C   0  0  0  0  0  0  0  0  0  0  0  0
   47.4531   11.8024   12.5066 C   0  0  0  0  0  0  0  0  0  0  0  0
   49.6494    8.7018   14.2960 C   0  0  0  0  0  0  0  0  0  0  0  0
   49.2154    7.3172   13.9761 C   0  0  0  0  0  0  0  0  0  0  0  0
   49.3649   11.0455   13.6868 C   0  0  0  0  0  0  0  0  0  0  0  0
   44.0479    8.6437   11.2087 C   0  0  0  0  0  0  0  0  0  0  0  0
   43.6948   10.9086   10.6391 C   0  0  0  0  0  0  0  0  0  0  0  0
   48.6860   12.0920   13.1165 C   0  0  0  0  0  0  0  0  0  0  0  0
   43.2656    9.6063   10.6273 C   0  0  0  0  0  0  0  0  0  0  0  0
   48.9871    7.5242   11.6229 C   0  0  0  0  0  0  0  0  0  0  0  0
   46.2821    9.7567   12.0426 H   0  0  0  0  0  0  0  0  0  0  0  0
   47.5162    8.9015   12.6058 H   0  0  0  0  0  0  0  0  0  0  0  0
   47.5237    9.1245   12.6093 H   0  0  0  0  0  0  0  0  0  0  0  0
   47.5204    9.1268   12.6078 H   0  0  0  0  0  0  0  0  0  0  0  0
   42.6312    9.9711   10.8400 H   0  0  0  0  0  0  0  0  0  0  0  0
   42.8606   13.3614   10.2821 H   0  0  0  0  0  0  0  0  0  0  0  0
   48.9568    8.8413   11.7324 H   0  0  0  0  0  0  0  0  0  0  0  0
   48.7088   11.0377   11.3063 H   0  0  0  0  0  0  0  0  0  0  0  0
   48.4677   11.4046   13.0363 H   0  0  0  0  0  0  0  0  0  0  0  0
   43.7684    8.2679   12.1296 H   0  0  0  0  0  0  0  0  0  0  0  0
   49.3336    6.7105   12.2705 H   0  0  0  0  0  0  0  0  0  0  0  0
   48.7584    5.7671   13.6937 H   0  0  0  0  0  0  0  0  0  0  0  0
   50.4058    7.6339   14.1048 H   0  0  0  0  0  0  0  0  0  0  0  0
   48.9303    7.5815   15.1320 H   0  0  0  0  0  0  0  0  0  0  0  0
   46.4178    5.2176   13.2033 H   0  0  0  0  0  0  0  0  0  0  0  0
   47.4187   13.1781   11.5603 H   0  0  0  0  0  0  0  0  0  0  0  0
   44.1744    5.9654   12.7114 H   0  0  0  0  0  0  0  0  0  0  0  0
   45.1488   14.0212   11.0347 H   0  0  0  0  0  0  0  0  0  0  0  0
   50.6034   10.1160   12.8254 H   0  0  0  0  0  0  0  0  0  0  0  0
   49.9697   10.9670   14.3488 H   0  0  0  0  0  0  0  0  0  0  0  0
   50.9278    9.4689   14.5028 H   0  0  0  0  0  0  0  0  0  0  0  0
   45.1595   13.0390   10.3165 H   0  0  0  0  0  0  0  0  0  0  0  0
   42.5473   12.6866   10.5791 H   0  0  0  0  0  0  0  0  0  0  0  0
   46.9880    7.9070   14.2278 H   0  0  0  0  0  0  0  0  0  0  0  0
   45.2573    7.1171   12.9431 H   0  0  0  0  0  0  0  0  0  0  0  0
   46.3250    7.1593   11.4526 H   0  0  0  0  0  0  0  0  0  0  0  0
   46.9763   12.6634   12.0798 H   0  0  0  0  0  0  0  0  0  0  0  0
   49.6823    8.7980   15.4209 H   0  0  0  0  0  0  0  0  0  0  0  0
   50.7142    8.8813   13.9661 H   0  0  0  0  0  0  0  0  0  0  0  0
   50.1243    6.6782   13.8244 H   0  0  0  0  0  0  0  0  0  0  0  0
   48.6779    6.8601   14.8578 H   0  0  0  0  0  0  0  0  0  0  0  0
   50.3127   11.2716   14.1546 H   0  0  0  0  0  0  0  0  0  0  0  0
   43.6592    7.6216   11.1715 H   0  0  0  0  0  0  0  0  0  0  0  0
   49.0858   13.0962   13.1372 H   0  0  0  0  0  0  0  0  0  0  0  0
   42.3172    9.3981   10.1530 H   0  0  0  0  0  0  0  0  0  0  0  0
   50.0858    7.6120   11.8081 H   0  0  0  0  0  0  0  0  0  0  0  0
   48.8684    6.6617   10.9345 H   0  0  0  0  0  0  0  0  0  0  0  0
   48.6542    8.4866   11.2034 H   0  0  0  0  0  0  0  0  0  0  0  0
  4 14  1  0
  5 20  1  0
  6  7  1  0
  6 17  1  0
  6 23  1  0
  7  8  1  0
  7 13  1  0
  8  9  1  0
  8 12  2  0
  9 10  1  0
  9 15  2  0
 10 11  2  0
 10 14  1  0
 11 13  1  0
 11 19  1  0
 12 16  1  0
 12 18  1  0
 14 20  2  0
 15 21  1  0
 16 17  1  0
 18 21  2  0
 19 22  2  0
 20 22  1  0
 24 34  1  0
 25 40  1  0
 26 27  1  0
 26 37  1  0
 26 43  1  0
 27 28  1  0
 27 33  1  0
 28 29  1  0
 28 32  2  0
 29 30  1  0
 29 35  2  0
 30 31  2  0
 30 34  1  0
 31 33  1  0
 31 39  1  0
 32 36  1  0
 32 38  1  0
 34 40  2  0
 35 41  1  0
 36 37  1  0
 38 41  2  0
 39 42  2  0
 40 42  1  0
  1 44  1  0
  1 45  1  0
  2 46  1  0
  3 47  1  0
  4 48  1  0
  5 49  1  0
  7 50  1  1
 13 51  1  0
 13 52  1  0
 15 53  1  0
 16 54  1  0
 16 55  1  0
 17 56  1  0
 17 57  1  0
 18 58  1  0
 19 59  1  0
 21 60  1  0
 22 61  1  0
 23 62  1  0
 23 63  1  0
 23 64  1  0
 24 65  1  0
 25 66  1  0
 27 67  1  6
 33 68  1  0
 33 69  1  0
 35 70  1  0
 36 71  1  0
 36 72  1  0
 37 73  1  0
 37 74  1  0
 38 75  1  0
 39 76  1  0
 41 77  1  0
 42 78  1  0
 43 79  1  0
 43 80  1  0
 43 81  1  0
M  END
> <Uni-Dock RESULT> 
ENERGY=   -6.924  LOWER_BOUND=    2.210  UPPER_BOUND=    5.124
INTER + INTRA:          -6.924
INTER:                  -6.924
INTRA:                   0.000
UNBOUND:                 0.000

$$$$

     RDKit          3D

 81 84  0  0  0  0  0  0  0  0999 V2000
   48.3919    7.7083   19.0083 O   0  0  0  0  0  0  0  0  0  0  0  0
   48.2143    7.7288   19.7789 Cl  0  0  0  0  0  0  0  0  0  0  0  0
   48.2151    7.7308   19.7751 Cl  0  0  0  0  0  0  0  0  0  0  0  0
   46.6336    7.7207   22.6421 O   0  0  0  0  0  0  0  0  0  0  0  0
   47.1046    5.1960   23.4605 O   0  0  0  0  0  0  0  0  0  0  0  0
   48.4596    8.1789   16.6912 N   0  0  0  0  0  0  0  0  0  0  0  0
   48.9911    8.1582   18.0155 C   0  0  1  0  0  0  0  0  0  0  0  0
   48.1837    9.0477   18.8879 C   0  0  0  0  0  0  0  0  0  0  0  0
   47.6593    8.6905   20.0925 C   0  0  0  0  0  0  0  0  0  0  0  0
   47.8782    7.3469   20.5777 C   0  0  0  0  0  0  0  0  0  0  0  0
   48.6071    6.4581   19.8181 C   0  0  0  0  0  0  0  0  0  0  0  0
   47.9854   10.3423   18.3806 C   0  0  0  0  0  0  0  0  0  0  0  0
   49.1947    6.7828   18.4971 C   0  0  0  0  0  0  0  0  0  0  0  0
   47.3799    6.9382   21.7790 C   0  0  0  0  0  0  0  0  0  0  0  0
   46.9348    9.6148   20.8031 C   0  0  0  0  0  0  0  0  0  0  0  0
   48.5936   10.6268   17.0662 C   0  0  0  0  0  0  0  0  0  0  0  0
   48.2721    9.4886   16.1332 C   0  0  0  0  0  0  0  0  0  0  0  0
   47.2564   11.2455   19.1135 C   0  0  0  0  0  0  0  0  0  0  0  0
   48.8395    5.1489   20.2646 C   0  0  0  0  0  0  0  0  0  0  0  0
   47.6067    5.6300   22.2351 C   0  0  0  0  0  0  0  0  0  0  0  0
   46.7155   10.9184   20.3290 C   0  0  0  0  0  0  0  0  0  0  0  0
   48.3326    4.7474   21.4772 C   0  0  0  0  0  0  0  0  0  0  0  0
   49.1186    7.2664   15.8007 C   0  0  0  0  0  0  0  0  0  0  0  0
   48.3439    5.1930   21.5317 O   0  0  0  0  0  0  0  0  0  0  0  0
   47.7851    6.0593   24.0309 O   0  0  0  0  0  0  0  0  0  0  0  0
   48.6309   10.2337   17.6213 N   0  0  0  0  0  0  0  0  0  0  0  0
   47.7840    9.3660   18.4353 C   0  0  1  0  0  0  0  0  0  0  0  0
   48.1724    7.9567   18.2804 C   0  0  0  0  0  0  0  0  0  0  0  0
   48.2612    7.0128   19.2468 C   0  0  0  0  0  0  0  0  0  0  0  0
   47.9944    7.4301   20.6198 C   0  0  0  0  0  0  0  0  0  0  0  0
   47.6806    8.7467   20.8157 C   0  0  0  0  0  0  0  0  0  0  0  0
   48.4578    7.5668   16.9543 C   0  0  0  0  0  0  0  0  0  0  0  0
   47.6242    9.8128   19.8138 C   0  0  0  0  0  0  0  0  0  0  0  0
   48.0354    6.5330   21.6536 C   0  0  0  0  0  0  0  0  0  0  0  0
   48.6164    5.7169   18.9451 C   0  0  0  0  0  0  0  0  0  0  0  0
   48.3871    8.5330   15.8377 C   0  0  0  0  0  0  0  0  0  0  0  0
   48.3046    9.9593   16.2459 C   0  0  0  0  0  0  0  0  0  0  0  0
   48.8133    6.2735   16.6491 C   0  0  0  0  0  0  0  0  0  0  0  0
   47.4019    9.1289   22.1295 C   0  0  0  0  0  0  0  0  0  0  0  0
   47.7510    6.9470   22.9637 C   0  0  0  0  0  0  0  0  0  0  0  0
   48.9023    5.3171   17.6282 C   0  0  0  0  0  0  0  0  0  0  0  0
   47.4322    8.2615   23.1893 C   0  0  0  0  0  0  0  0  0  0  0  0
   50.0350    9.9910   17.8699 C   0  0  0  0  0  0  0  0  0  0  0  0
   48.1641    7.8460   19.9618 H   0  0  0  0  0  0  0  0  0  0  0  0
   48.4296    8.5892   18.5658 H   0  0  0  0  0  0  0  0  0  0  0  0
   48.4427    8.3668   18.5785 H   0  0  0  0  0  0  0  0  0  0  0  0
   48.4420    8.3648   18.5823 H   0  0  0  0  0  0  0  0  0  0  0  0
   46.8951    7.9052   23.5959 H   0  0  0  0  0  0  0  0  0  0  0  0
   47.6478    4.5781   24.0672 H   0  0  0  0  0  0  0  0  0  0  0  0
   49.9967    8.6720   17.9499 H   0  0  0  0  0  0  0  0  0  0  0  0
   50.2931    6.5397   18.6079 H   0  0  0  0  0  0  0  0  0  0  0  0
   48.7975    6.0178   17.7855 H   0  0  0  0  0  0  0  0  0  0  0  0
   46.4845    9.4254   21.7582 H   0  0  0  0  0  0  0  0  0  0  0  0
   49.6937   10.7226   17.1284 H   0  0  0  0  0  0  0  0  0  0  0  0
   48.1701   11.5476   16.6342 H   0  0  0  0  0  0  0  0  0  0  0  0
   48.9461    9.5811   15.2563 H   0  0  0  0  0  0  0  0  0  0  0  0
   47.2305    9.5968   15.7963 H   0  0  0  0  0  0  0  0  0  0  0  0
   47.1000   12.2415   18.7304 H   0  0  0  0  0  0  0  0  0  0  0  0
   49.4127    4.4419   19.6729 H   0  0  0  0  0  0  0  0  0  0  0  0
   46.1562   11.6414   20.8712 H   0  0  0  0  0  0  0  0  0  0  0  0
   48.4842    3.7514   21.8639 H   0  0  0  0  0  0  0  0  0  0  0  0
   50.2034    7.2283   16.1049 H   0  0  0  0  0  0  0  0  0  0  0  0
   48.6558    6.2617   15.7630 H   0  0  0  0  0  0  0  0  0  0  0  0
   49.0434    7.6956   14.7732 H   0  0  0  0  0  0  0  0  0  0  0  0
   49.0084    4.7972   22.1989 H   0  0  0  0  0  0  0  0  0  0  0  0
   47.1875    5.2338   24.0725 H   0  0  0  0  0  0  0  0  0  0  0  0
   46.7751    9.4436   17.9094 H   0  0  0  0  0  0  0  0  0  0  0  0
   46.6929   10.4274   19.9818 H   0  0  0  0  0  0  0  0  0  0  0  0
   48.5250   10.4841   20.0437 H   0  0  0  0  0  0  0  0  0  0  0  0
   48.7060    4.9223   19.6604 H   0  0  0  0  0  0  0  0  0  0  0  0
   47.5232    8.3271   15.1398 H   0  0  0  0  0  0  0  0  0  0  0  0
   49.3073    8.3410   15.2123 H   0  0  0  0  0  0  0  0  0  0  0  0
   48.9473   10.5706   15.5598 H   0  0  0  0  0  0  0  0  0  0  0  0
   47.2565   10.3516   16.0947 H   0  0  0  0  0  0  0  0  0  0  0  0
   49.0341    5.9630   15.6376 H   0  0  0  0  0  0  0  0  0  0  0  0
   47.1421   10.1655   22.3644 H   0  0  0  0  0  0  0  0  0  0  0  0
   49.1810    4.2995   17.3929 H   0  0  0  0  0  0  0  0  0  0  0  0
   47.2171    8.5549   24.2068 H   0  0  0  0  0  0  0  0  0  0  0  0
   50.5642    9.8389   16.8973 H   0  0  0  0  0  0  0  0  0  0  0  0
   50.4627   10.9203   18.3003 H   0  0  0  0  0  0  0  0  0  0  0  0
   50.2118    9.0888   18.4764 H   0  0  0  0  0  0  0  0  0  0  0  0
  4 14  1  0
  5 20  1  0
  6  7  1  0
  6 17  1  0
  6 23  1  0
  7  8  1  0
  7 13  1  0
  8  9  1  0
  8 12  2  0
  9 10  1  0
  9 15  2  0
 10 11  2  0
 10 14  1  0
 11 13  1  0
 11 19  1  0
 12 16  1  0
 12 18  1  0
 14 20  2  0
 15 21  1  0
 16 17  1  0
 18 21  2  0
 19 22  2  0
 20 22  1  0
 24 34  1  0
 25 40  1  0
 26 27  1  0
 26 37  1  0
 26 43  1  0
 27 28  1  0
 27 33  1  0
 28 29  1  0
 28 32  2  0
 29 30  1  0
 29 35  2  0
 30 31  2  0
 30 34  1  0
 31 33  1  0
 31 39  1  0
 32 36  1  0
 32 38  1  0
 34 40  2  0
 35 41  1  0
 36 37  1  0
 38 41  2  0
 39 42  2  0
 40 42  1  0
  1 44  1  0
  1 45  1  0
  2 46  1  0
  3 47  1  0
  4 48  1  0
  5 49  1  0
  7 50  1  1
 13 51  1  0
 13 52  1  0
 15 53  1  0
 16 54  1  0
 16 55  1  0
 17 56  1  0
 17 57  1  0
 18 58  1  0
 19 59  1  0
 21 60  1  0
 22 61  1  0
 23 62  1  0
 23 63  1  0
 23 64  1  0
 24 65  1  0
 25 66  1  0
 27 67  1  6
 33 68  1  0
 33 69  1  0
 35 70  1  0
 36 71  1  0
 36 72  1  0
 37 73  1  0
 37 74  1  0
 38 75  1  0
 39 76  1  0
 41 77  1  0
 42 78  1  0
 43 79  1  0
 43 80  1  0
 43 81  1  0
M  END
> <Uni-Dock RESULT> 
ENERGY=   -6.923  LOWER_BOUND=    6.270  UPPER_BOUND=    8.048
INTER + INTRA:          -6.923
INTER:                  -6.923
INTRA:                   0.000
UNBOUND:                 0.000

$$$$

     RDKit          3D

 81 84  0  0  0  0  0  0  0  0999 V2000
   48.4159    8.1723   18.4699 O   0  0  0  0  0  0  0  0  0  0  0  0
   48.1020    8.8687   18.6754 Cl  0  0  0  0  0  0  0  0  0  0  0  0
   48.1026    8.8645   18.6761 Cl  0  0  0  0  0  0  0  0  0  0  0  0
   47.6015   11.8359   19.9569 O   0  0  0  0  0  0  0  0  0  0  0  0
   48.0607   13.3895   17.8027 O   0  0  0  0  0  0  0  0  0  0  0  0
   49.4165    6.0307   18.5557 N   0  0  0  0  0  0  0  0  0  0  0  0
   48.3371    6.9381   18.3365 C   0  0  1  0  0  0  0  0  0  0  0  0
   47.9712    7.5925   19.6179 C   0  0  0  0  0  0  0  0  0  0  0  0
   47.8375    8.9356   19.7965 C   0  0  0  0  0  0  0  0  0  0  0  0
   48.0761    9.8154   18.6751 C   0  0  0  0  0  0  0  0  0  0  0  0
   48.4328    9.2836   17.4552 C   0  0  0  0  0  0  0  0  0  0  0  0
   47.7546    6.7070   20.6864 C   0  0  0  0  0  0  0  0  0  0  0  0
   48.6035    7.8340   17.2000 C   0  0  0  0  0  0  0  0  0  0  0  0
   47.9516   11.1674   18.7973 C   0  0  0  0  0  0  0  0  0  0  0  0
   47.4875    9.4104   21.0360 C   0  0  0  0  0  0  0  0  0  0  0  0
   47.9274    5.2719   20.3880 C   0  0  0  0  0  0  0  0  0  0  0  0
   49.2132    5.0929   19.6239 C   0  0  0  0  0  0  0  0  0  0  0  0
   47.4057    7.2107   21.9148 C   0  0  0  0  0  0  0  0  0  0  0  0
   48.6668   10.1120   16.3478 C   0  0  0  0  0  0  0  0  0  0  0  0
   48.1836   12.0055   17.6951 C   0  0  0  0  0  0  0  0  0  0  0  0
   47.2626    8.5565   22.1280 C   0  0  0  0  0  0  0  0  0  0  0  0
   48.5384   11.4736   16.4821 C   0  0  0  0  0  0  0  0  0  0  0  0
   49.9042    5.4265   17.3487 C   0  0  0  0  0  0  0  0  0  0  0  0
   48.2838   11.3290   16.8224 O   0  0  0  0  0  0  0  0  0  0  0  0
   46.8650   13.2483   18.0921 O   0  0  0  0  0  0  0  0  0  0  0  0
   47.7879    5.8817   20.1183 N   0  0  0  0  0  0  0  0  0  0  0  0
   48.3364    7.2343   20.0699 C   0  0  1  0  0  0  0  0  0  0  0  0
   48.8445    7.5477   18.7265 C   0  0  0  0  0  0  0  0  0  0  0  0
   48.7118    8.7085   18.0426 C   0  0  0  0  0  0  0  0  0  0  0  0
   47.9336    9.7722   18.6697 C   0  0  0  0  0  0  0  0  0  0  0  0
   47.3975    9.5036   19.8988 C   0  0  0  0  0  0  0  0  0  0  0  0
   49.5709    6.5043   18.1133 C   0  0  0  0  0  0  0  0  0  0  0  0
   47.4683    8.2503   20.6524 C   0  0  0  0  0  0  0  0  0  0  0  0
   47.7734   10.9873   18.0587 C   0  0  0  0  0  0  0  0  0  0  0  0
   49.2680    8.8654   16.7925 C   0  0  0  0  0  0  0  0  0  0  0  0
   49.7632    5.2030   18.7878 C   0  0  0  0  0  0  0  0  0  0  0  0
   48.8999    4.9781   19.9761 C   0  0  0  0  0  0  0  0  0  0  0  0
   50.1276    6.6572   16.8648 C   0  0  0  0  0  0  0  0  0  0  0  0
   46.6771   10.5374   20.5005 C   0  0  0  0  0  0  0  0  0  0  0  0
   47.0434   12.0069   18.6881 C   0  0  0  0  0  0  0  0  0  0  0  0
   49.9939    7.8336   16.1725 C   0  0  0  0  0  0  0  0  0  0  0  0
   46.4954   11.7656   19.9217 C   0  0  0  0  0  0  0  0  0  0  0  0
   46.8170    5.6639   19.0684 C   0  0  0  0  0  0  0  0  0  0  0  0
   47.9783    8.9903   18.8155 H   0  0  0  0  0  0  0  0  0  0  0  0
   48.2050    7.4246   19.0779 H   0  0  0  0  0  0  0  0  0  0  0  0
   48.2974    7.5228   18.9002 H   0  0  0  0  0  0  0  0  0  0  0  0
   48.2968    7.5270   18.8995 H   0  0  0  0  0  0  0  0  0  0  0  0
   46.8092   12.4517   20.0289 H   0  0  0  0  0  0  0  0  0  0  0  0
   47.6593   13.9466   17.0455 H   0  0  0  0  0  0  0  0  0  0  0  0
   47.4412    6.2939   18.0880 H   0  0  0  0  0  0  0  0  0  0  0  0
   47.9161    7.6164   16.3294 H   0  0  0  0  0  0  0  0  0  0  0  0
   49.6372    7.7114   16.7926 H   0  0  0  0  0  0  0  0  0  0  0  0
   47.3592   10.4491   21.2714 H   0  0  0  0  0  0  0  0  0  0  0  0
   47.1005    4.8722   19.7717 H   0  0  0  0  0  0  0  0  0  0  0  0
   48.0041    4.6887   21.3196 H   0  0  0  0  0  0  0  0  0  0  0  0
   49.1939    4.0757   19.1804 H   0  0  0  0  0  0  0  0  0  0  0  0
   50.0523    5.1580   20.3323 H   0  0  0  0  0  0  0  0  0  0  0  0
   47.2377    6.5369   22.7400 H   0  0  0  0  0  0  0  0  0  0  0  0
   48.9481    9.7018   15.3828 H   0  0  0  0  0  0  0  0  0  0  0  0
   46.9913    8.9138   23.0914 H   0  0  0  0  0  0  0  0  0  0  0  0
   48.7077   12.1523   15.6603 H   0  0  0  0  0  0  0  0  0  0  0  0
   49.0197    5.2889   16.6635 H   0  0  0  0  0  0  0  0  0  0  0  0
   50.7280    5.9866   16.8665 H   0  0  0  0  0  0  0  0  0  0  0  0
   50.3120    4.4242   17.6226 H   0  0  0  0  0  0  0  0  0  0  0  0
   47.6585   11.7984   16.1650 H   0  0  0  0  0  0  0  0  0  0  0  0
   47.6492   13.8499   17.8407 H   0  0  0  0  0  0  0  0  0  0  0  0
   49.2724    7.1432   20.7151 H   0  0  0  0  0  0  0  0  0  0  0  0
   47.7080    8.4817   21.7305 H   0  0  0  0  0  0  0  0  0  0  0  0
   46.4041    7.8245   20.6209 H   0  0  0  0  0  0  0  0  0  0  0  0
   49.2003    9.7556   16.1977 H   0  0  0  0  0  0  0  0  0  0  0  0
   50.8335    5.0334   19.1063 H   0  0  0  0  0  0  0  0  0  0  0  0
   49.5770    4.4207   17.9953 H   0  0  0  0  0  0  0  0  0  0  0  0
   48.5442    3.9146   19.9698 H   0  0  0  0  0  0  0  0  0  0  0  0
   49.5029    5.0813   20.9253 H   0  0  0  0  0  0  0  0  0  0  0  0
   50.6859    5.8657   16.3851 H   0  0  0  0  0  0  0  0  0  0  0  0
   46.2192   10.3974   21.4844 H   0  0  0  0  0  0  0  0  0  0  0  0
   50.4299    7.9583   15.1912 H   0  0  0  0  0  0  0  0  0  0  0  0
   45.9382   12.5670   20.3853 H   0  0  0  0  0  0  0  0  0  0  0  0
   47.0677    4.7235   18.5191 H   0  0  0  0  0  0  0  0  0  0  0  0
   45.8376    5.4736   19.5545 H   0  0  0  0  0  0  0  0  0  0  0  0
   46.8025    6.4762   18.3248 H   0  0  0  0  0  0  0  0  0  0  0  0
  4 14  1  0
  5 20  1  0
  6  7  1  0
  6 17  1  0
  6 23  1  0
  7  8  1  0
  7 13  1  0
  8  9  1  0
  8 12  2  0
  9 10  1  0
  9 15  2  0
 10 11  2  0
 10 14  1  0
 11 13  1  0
 11 19  1  0
 12 16  1  0
 12 18  1  0
 14 20  2  0
 15 21  1  0
 16 17  1  0
 18 21  2  0
 19 22  2  0
 20 22  1  0
 24 34  1  0
 25 40  1  0
 26 27  1  0
 26 37  1  0
 26 43  1  0
 27 28  1  0
 27 33  1  0
 28 29  1  0
 28 32  2  0
 29 30  1  0
 29 35  2  0
 30 31  2  0
 30 34  1  0
 31 33  1  0
 31 39  1  0
 32 36  1  0
 32 38  1  0
 34 40  2  0
 35 41  1  0
 36 37  1  0
 38 41  2  0
 39 42  2  0
 40 42  1  0
  1 44  1  0
  1 45  1  0
  2 46  1  0
  3 47  1  0
  4 48  1  0
  5 49  1  0
  7 50  1  1
 13 51  1  0
 13 52  1  0
 15 53  1  0
 16 54  1  0
 16 55  1  0
 17 56  1  0
 17 57  1  0
 18 58  1  0
 19 59  1  0
 21 60  1  0
 22 61  1  0
 23 62  1  0
 23 63  1  0
 23 64  1  0
 24 65  1  0
 25 66  1  0
 27 67  1  6
 33 68  1  0
 33 69  1  0
 35 70  1  0
 36 71  1  0
 36 72  1  0
 37 73  1  0
 37 74  1  0
 38 75  1  0
 39 76  1  0
 41 77  1  0
 42 78  1  0
 43 79  1  0
 43 80  1  0
 43 81  1  0
M  END
> <Uni-Dock RESULT> 
ENERGY=   -6.913  LOWER_BOUND=    5.565  UPPER_BOUND=    7.315
INTER + INTRA:          -6.913
INTER:                  -6.913
INTRA:                   0.000
UNBOUND:                 0.000

$$$$
