
     RDKit          3D

 81 84  0  0  0  0  0  0  0  0999 V2000
   47.7561    5.7982   14.7493 O   0  0  0  0  0  0  0  0  0  0  0  0
   47.8758    5.4397   15.4425 Cl  0  0  0  0  0  0  0  0  0  0  0  0
   47.8753    5.4398   15.4415 Cl  0  0  0  0  0  0  0  0  0  0  0  0
   50.3298    6.2667   17.4363 O   0  0  0  0  0  0  0  0  0  0  0  0
   50.0066    4.5486   19.4945 O   0  0  0  0  0  0  0  0  0  0  0  0
   45.5098    5.4661   13.2329 N   0  0  0  0  0  0  0  0  0  0  0  0
   46.7053    4.9712   13.9321 C   0  0  1  0  0  0  0  0  0  0  0  0
   47.7184    6.0565   14.0095 C   0  0  0  0  0  0  0  0  0  0  0  0
   48.5873    6.1888   15.0900 C   0  0  0  0  0  0  0  0  0  0  0  0
   48.4361    5.3049   16.2378 C   0  0  0  0  0  0  0  0  0  0  0  0
   47.4354    4.3539   16.2501 C   0  0  0  0  0  0  0  0  0  0  0  0
   47.7727    6.9008   12.9216 C   0  0  0  0  0  0  0  0  0  0  0  0
   46.4363    4.2174   15.1515 C   0  0  0  0  0  0  0  0  0  0  0  0
   49.2881    5.3685   17.3148 C   0  0  0  0  0  0  0  0  0  0  0  0
   49.5373    7.1845   15.0870 C   0  0  0  0  0  0  0  0  0  0  0  0
   46.8997    6.8612   11.7398 C   0  0  0  0  0  0  0  0  0  0  0  0
   45.8852    5.7743   11.8756 C   0  0  0  0  0  0  0  0  0  0  0  0
   48.7414    7.8899   12.9564 C   0  0  0  0  0  0  0  0  0  0  0  0
   47.2701    3.4650   17.3152 C   0  0  0  0  0  0  0  0  0  0  0  0
   49.1436    4.4877   18.3982 C   0  0  0  0  0  0  0  0  0  0  0  0
   49.6215    8.0620   13.9932 C   0  0  0  0  0  0  0  0  0  0  0  0
   48.1372    3.5520   18.3781 C   0  0  0  0  0  0  0  0  0  0  0  0
   44.5483    4.3801   13.1657 C   0  0  0  0  0  0  0  0  0  0  0  0
   49.4592    6.4995   18.0198 O   0  0  0  0  0  0  0  0  0  0  0  0
   49.6651    4.2835   19.5585 O   0  0  0  0  0  0  0  0  0  0  0  0
   45.8077    5.1082   13.0950 N   0  0  0  0  0  0  0  0  0  0  0  0
   47.1372    4.9515   13.6136 C   0  0  1  0  0  0  0  0  0  0  0  0
   47.6411    6.2306   14.1542 C   0  0  0  0  0  0  0  0  0  0  0  0
   48.2313    6.3825   15.3861 C   0  0  0  0  0  0  0  0  0  0  0  0
   48.3597    5.2253   16.2554 C   0  0  0  0  0  0  0  0  0  0  0  0
   47.8830    4.0072   15.8190 C   0  0  0  0  0  0  0  0  0  0  0  0
   47.4915    7.3365   13.3003 C   0  0  0  0  0  0  0  0  0  0  0  0
   47.2247    3.7970   14.5108 C   0  0  0  0  0  0  0  0  0  0  0  0
   48.9544    5.3517   17.4871 C   0  0  0  0  0  0  0  0  0  0  0  0
   48.6675    7.6344   15.7552 C   0  0  0  0  0  0  0  0  0  0  0  0
   46.8345    7.0447   12.0020 C   0  0  0  0  0  0  0  0  0  0  0  0
   45.5648    6.3036   12.3639 C   0  0  0  0  0  0  0  0  0  0  0  0
   47.9329    8.5727   13.6887 C   0  0  0  0  0  0  0  0  0  0  0  0
   47.9937    2.8618   16.6230 C   0  0  0  0  0  0  0  0  0  0  0  0
   49.0627    4.2047   18.2870 C   0  0  0  0  0  0  0  0  0  0  0  0
   48.5260    8.7514   14.9129 C   0  0  0  0  0  0  0  0  0  0  0  0
   48.5898    2.9899   17.8562 C   0  0  0  0  0  0  0  0  0  0  0  0
   45.2742    3.9253   12.5004 C   0  0  0  0  0  0  0  0  0  0  0  0
   47.0474    5.4096   14.1825 H   0  0  0  0  0  0  0  0  0  0  0  0
   47.8300    5.2796   15.5960 H   0  0  0  0  0  0  0  0  0  0  0  0
   47.2132    5.5519   14.2427 H   0  0  0  0  0  0  0  0  0  0  0  0
   47.2138    5.5518   14.2436 H   0  0  0  0  0  0  0  0  0  0  0  0
   50.6501    6.6644   18.2903 H   0  0  0  0  0  0  0  0  0  0  0  0
   49.8902    5.3267   20.1380 H   0  0  0  0  0  0  0  0  0  0  0  0
   47.1499    4.2438   13.1795 H   0  0  0  0  0  0  0  0  0  0  0  0
   45.4365    4.5116   15.5504 H   0  0  0  0  0  0  0  0  0  0  0  0
   46.3443    3.1023   14.9786 H   0  0  0  0  0  0  0  0  0  0  0  0
   50.2371    7.3661   15.8548 H   0  0  0  0  0  0  0  0  0  0  0  0
   46.2952    7.8211   11.6532 H   0  0  0  0  0  0  0  0  0  0  0  0
   47.4691    6.7269   10.7927 H   0  0  0  0  0  0  0  0  0  0  0  0
   44.9148    6.0601   11.3697 H   0  0  0  0  0  0  0  0  0  0  0  0
   46.2929    4.8694   11.3678 H   0  0  0  0  0  0  0  0  0  0  0  0
   48.8347    8.5893   12.1241 H   0  0  0  0  0  0  0  0  0  0  0  0
   46.4817    2.7188   17.3185 H   0  0  0  0  0  0  0  0  0  0  0  0
   50.3591    8.8520   13.9670 H   0  0  0  0  0  0  0  0  0  0  0  0
   48.0646    2.8953   19.2335 H   0  0  0  0  0  0  0  0  0  0  0  0
   44.9749    3.4077   12.9222 H   0  0  0  0  0  0  0  0  0  0  0  0
   43.9514    4.2728   14.0919 H   0  0  0  0  0  0  0  0  0  0  0  0
   43.7902    4.6164   12.3634 H   0  0  0  0  0  0  0  0  0  0  0  0
   50.4083    6.5851   18.3135 H   0  0  0  0  0  0  0  0  0  0  0  0
   49.2344    4.9921   20.1717 H   0  0  0  0  0  0  0  0  0  0  0  0
   47.7852    4.7592   12.7037 H   0  0  0  0  0  0  0  0  0  0  0  0
   46.2191    3.3397   14.7441 H   0  0  0  0  0  0  0  0  0  0  0  0
   47.7833    2.9386   14.0347 H   0  0  0  0  0  0  0  0  0  0  0  0
   49.1390    7.8599   16.6907 H   0  0  0  0  0  0  0  0  0  0  0  0
   47.4765    6.4468   11.3258 H   0  0  0  0  0  0  0  0  0  0  0  0
   46.5137    7.9462   11.4550 H   0  0  0  0  0  0  0  0  0  0  0  0
   44.9619    6.0513   11.4702 H   0  0  0  0  0  0  0  0  0  0  0  0
   45.0105    6.9978   13.0495 H   0  0  0  0  0  0  0  0  0  0  0  0
   47.8158    9.4131   13.0320 H   0  0  0  0  0  0  0  0  0  0  0  0
   47.6221    1.9039   16.2861 H   0  0  0  0  0  0  0  0  0  0  0  0
   48.8678    9.7292   15.2036 H   0  0  0  0  0  0  0  0  0  0  0  0
   48.6996    2.1512   18.5076 H   0  0  0  0  0  0  0  0  0  0  0  0
   45.9757    3.0664   12.5227 H   0  0  0  0  0  0  0  0  0  0  0  0
   44.3391    3.6506   13.0419 H   0  0  0  0  0  0  0  0  0  0  0  0
   44.9934    4.0515   11.4335 H   0  0  0  0  0  0  0  0  0  0  0  0
  4 14  1  0
  5 20  1  0
  6  7  1  0
  6 17  1  0
  6 23  1  0
  7  8  1  0
  7 13  1  0
  8  9  1  0
  8 12  2  0
  9 10  1  0
  9 15  2  0
 10 11  2  0
 10 14  1  0
 11 13  1  0
 11 19  1  0
 12 16  1  0
 12 18  1  0
 14 20  2  0
 15 21  1  0
 16 17  1  0
 18 21  2  0
 19 22  2  0
 20 22  1  0
 24 34  1  0
 25 40  1  0
 26 27  1  0
 26 37  1  0
 26 43  1  0
 27 28  1  0
 27 33  1  0
 28 29  1  0
 28 32  2  0
 29 30  1  0
 29 35  2  0
 30 31  2  0
 30 34  1  0
 31 33  1  0
 31 39  1  0
 32 36  1  0
 32 38  1  0
 34 40  2  0
 35 41  1  0
 36 37  1  0
 38 41  2  0
 39 42  2  0
 40 42  1  0
  1 44  1  0
  1 45  1  0
  2 46  1  0
  3 47  1  0
  4 48  1  0
  5 49  1  0
  7 50  1  6
 13 51  1  0
 13 52  1  0
 15 53  1  0
 16 54  1  0
 16 55  1  0
 17 56  1  0
 17 57  1  0
 18 58  1  0
 19 59  1  0
 21 60  1  0
 22 61  1  0
 23 62  1  0
 23 63  1  0
 23 64  1  0
 24 65  1  0
 25 66  1  0
 27 67  1  6
 33 68  1  0
 33 69  1  0
 35 70  1  0
 36 71  1  0
 36 72  1  0
 37 73  1  0
 37 74  1  0
 38 75  1  0
 39 76  1  0
 41 77  1  0
 42 78  1  0
 43 79  1  0
 43 80  1  0
 43 81  1  0
M  END
> <Uni-Dock RESULT> 
ENERGY=   -7.847  LOWER_BOUND=    0.000  UPPER_BOUND=    0.000
INTER + INTRA:          -7.847
INTER:                  -7.847
INTRA:                   0.000
UNBOUND:                 0.000

$$$$

     RDKit          3D

 81 84  0  0  0  0  0  0  0  0999 V2000
   45.4371    8.8992   11.8717 O   0  0  0  0  0  0  0  0  0  0  0  0
   45.2942    8.1229   11.8892 Cl  0  0  0  0  0  0  0  0  0  0  0  0
   45.2948    8.1238   11.8893 Cl  0  0  0  0  0  0  0  0  0  0  0  0
   42.2860    6.8923   11.5460 O   0  0  0  0  0  0  0  0  0  0  0  0
   42.7193    4.2359   11.7669 O   0  0  0  0  0  0  0  0  0  0  0  0
   47.9394    9.9822   11.7267 N   0  0  0  0  0  0  0  0  0  0  0  0
   46.9052    9.1497   12.3594 C   0  0  1  0  0  0  0  0  0  0  0  0
   45.5604    9.6649   11.9899 C   0  0  0  0  0  0  0  0  0  0  0  0
   44.4615    8.8257   11.8219 C   0  0  0  0  0  0  0  0  0  0  0  0
   44.6480    7.3834   11.9029 C   0  0  0  0  0  0  0  0  0  0  0  0
   45.9045    6.8614   12.1367 C   0  0  0  0  0  0  0  0  0  0  0  0
   45.4593   11.0337   11.8655 C   0  0  0  0  0  0  0  0  0  0  0  0
   47.1241    7.7115   12.2537 C   0  0  0  0  0  0  0  0  0  0  0  0
   43.5924    6.5113   11.7802 C   0  0  0  0  0  0  0  0  0  0  0  0
   43.2292    9.3619   11.5258 C   0  0  0  0  0  0  0  0  0  0  0  0
   46.5511   12.0075   12.0071 C   0  0  0  0  0  0  0  0  0  0  0  0
   47.8419   11.3092   12.2815 C   0  0  0  0  0  0  0  0  0  0  0  0
   44.2033   11.5345   11.5666 C   0  0  0  0  0  0  0  0  0  0  0  0
   46.1270    5.4869   12.2518 C   0  0  0  0  0  0  0  0  0  0  0  0
   43.7885    5.1257   11.8909 C   0  0  0  0  0  0  0  0  0  0  0  0
   43.0901   10.7536   11.3934 C   0  0  0  0  0  0  0  0  0  0  0  0
   45.0524    4.6394   12.1250 C   0  0  0  0  0  0  0  0  0  0  0  0
   49.2365    9.4590   12.1168 C   0  0  0  0  0  0  0  0  0  0  0  0
   42.8041    6.4982   10.6921 O   0  0  0  0  0  0  0  0  0  0  0  0
   43.1087    4.0375   11.7750 O   0  0  0  0  0  0  0  0  0  0  0  0
   47.8576    9.9199   12.2013 N   0  0  0  0  0  0  0  0  0  0  0  0
   46.6173    9.4197   12.7236 C   0  0  1  0  0  0  0  0  0  0  0  0
   45.5206    9.6301   11.7567 C   0  0  0  0  0  0  0  0  0  0  0  0
   44.6188    8.6665   11.3726 C   0  0  0  0  0  0  0  0  0  0  0  0
   44.7424    7.3256   11.9185 C   0  0  0  0  0  0  0  0  0  0  0  0
   45.7635    7.0583   12.8059 C   0  0  0  0  0  0  0  0  0  0  0  0
   45.4322   10.9307   11.2323 C   0  0  0  0  0  0  0  0  0  0  0  0
   46.7684    8.0556   13.2355 C   0  0  0  0  0  0  0  0  0  0  0  0
   43.8469    6.3492   11.5561 C   0  0  0  0  0  0  0  0  0  0  0  0
   43.6373    9.0082   10.4705 C   0  0  0  0  0  0  0  0  0  0  0  0
   46.4661   11.8772   11.7198 C   0  0  0  0  0  0  0  0  0  0  0  0
   47.7830   11.1604   11.5098 C   0  0  0  0  0  0  0  0  0  0  0  0
   44.4474   11.2479   10.3360 C   0  0  0  0  0  0  0  0  0  0  0  0
   45.9149    5.7791   13.3638 C   0  0  0  0  0  0  0  0  0  0  0  0
   44.0022    5.0725   12.1157 C   0  0  0  0  0  0  0  0  0  0  0  0
   43.5344   10.3049    9.9365 C   0  0  0  0  0  0  0  0  0  0  0  0
   45.0172    4.8022   12.9998 C   0  0  0  0  0  0  0  0  0  0  0  0
   48.9558    9.8051   13.1057 C   0  0  0  0  0  0  0  0  0  0  0  0
   46.3635    9.1693   12.0799 H   0  0  0  0  0  0  0  0  0  0  0  0
   45.3584    7.9079   11.9194 H   0  0  0  0  0  0  0  0  0  0  0  0
   46.1451    9.1946   12.0248 H   0  0  0  0  0  0  0  0  0  0  0  0
   46.1445    9.1938   12.0247 H   0  0  0  0  0  0  0  0  0  0  0  0
   41.6216    6.3743   11.0164 H   0  0  0  0  0  0  0  0  0  0  0  0
   42.3410    4.0872   10.8353 H   0  0  0  0  0  0  0  0  0  0  0  0
   47.0037    9.4240   13.4587 H   0  0  0  0  0  0  0  0  0  0  0  0
   47.7793    7.5048   11.3744 H   0  0  0  0  0  0  0  0  0  0  0  0
   47.6972    7.2794   13.1293 H   0  0  0  0  0  0  0  0  0  0  0  0
   42.3409    8.8126   11.3797 H   0  0  0  0  0  0  0  0  0  0  0  0
   46.7197   12.5682   11.0316 H   0  0  0  0  0  0  0  0  0  0  0  0
   46.3532   12.7578   12.8052 H   0  0  0  0  0  0  0  0  0  0  0  0
   48.7117   11.8721   11.8279 H   0  0  0  0  0  0  0  0  0  0  0  0
   47.9798   11.2815   13.3875 H   0  0  0  0  0  0  0  0  0  0  0  0
   44.0590   12.6104   11.4558 H   0  0  0  0  0  0  0  0  0  0  0  0
   47.1174    5.0828   12.4366 H   0  0  0  0  0  0  0  0  0  0  0  0
   42.1327   11.1991   11.1615 H   0  0  0  0  0  0  0  0  0  0  0  0
   45.1554    3.5662   12.2031 H   0  0  0  0  0  0  0  0  0  0  0  0
   49.3157    9.1706   13.1644 H   0  0  0  0  0  0  0  0  0  0  0  0
   49.5609    8.6006   11.4974 H   0  0  0  0  0  0  0  0  0  0  0  0
   50.0174   10.2535   11.9350 H   0  0  0  0  0  0  0  0  0  0  0  0
   41.8597    6.3089   10.9502 H   0  0  0  0  0  0  0  0  0  0  0  0
   43.0420    3.8730   10.7591 H   0  0  0  0  0  0  0  0  0  0  0  0
   46.3640   10.1096   13.5865 H   0  0  0  0  0  0  0  0  0  0  0  0
   47.7733    7.6007   12.9952 H   0  0  0  0  0  0  0  0  0  0  0  0
   46.7468    8.0277   14.3644 H   0  0  0  0  0  0  0  0  0  0  0  0
   42.8880    8.3340   10.1069 H   0  0  0  0  0  0  0  0  0  0  0  0
   46.3194   12.1570   12.7815 H   0  0  0  0  0  0  0  0  0  0  0  0
   46.5296   12.8065   11.1305 H   0  0  0  0  0  0  0  0  0  0  0  0
   48.6476   11.7825   11.8120 H   0  0  0  0  0  0  0  0  0  0  0  0
   47.8117   10.9242   10.4131 H   0  0  0  0  0  0  0  0  0  0  0  0
   44.3853   12.2429    9.9394 H   0  0  0  0  0  0  0  0  0  0  0  0
   46.7134    5.5635   14.0602 H   0  0  0  0  0  0  0  0  0  0  0  0
   42.7662   10.5697    9.2314 H   0  0  0  0  0  0  0  0  0  0  0  0
   45.0864    3.8125   13.3941 H   0  0  0  0  0  0  0  0  0  0  0  0
   48.6786    9.3534   14.0801 H   0  0  0  0  0  0  0  0  0  0  0  0
   49.7451    9.1827   12.6231 H   0  0  0  0  0  0  0  0  0  0  0  0
   49.4313   10.7774   13.3539 H   0  0  0  0  0  0  0  0  0  0  0  0
  4 14  1  0
  5 20  1  0
  6  7  1  0
  6 17  1  0
  6 23  1  0
  7  8  1  0
  7 13  1  0
  8  9  1  0
  8 12  2  0
  9 10  1  0
  9 15  2  0
 10 11  2  0
 10 14  1  0
 11 13  1  0
 11 19  1  0
 12 16  1  0
 12 18  1  0
 14 20  2  0
 15 21  1  0
 16 17  1  0
 18 21  2  0
 19 22  2  0
 20 22  1  0
 24 34  1  0
 25 40  1  0
 26 27  1  0
 26 37  1  0
 26 43  1  0
 27 28  1  0
 27 33  1  0
 28 29  1  0
 28 32  2  0
 29 30  1  0
 29 35  2  0
 30 31  2  0
 30 34  1  0
 31 33  1  0
 31 39  1  0
 32 36  1  0
 32 38  1  0
 34 40  2  0
 35 41  1  0
 36 37  1  0
 38 41  2  0
 39 42  2  0
 40 42  1  0
  1 44  1  0
  1 45  1  0
  2 46  1  0
  3 47  1  0
  4 48  1  0
  5 49  1  0
  7 50  1  6
 13 51  1  0
 13 52  1  0
 15 53  1  0
 16 54  1  0
 16 55  1  0
 17 56  1  0
 17 57  1  0
 18 58  1  0
 19 59  1  0
 21 60  1  0
 22 61  1  0
 23 62  1  0
 23 63  1  0
 23 64  1  0
 24 65  1  0
 25 66  1  0
 27 67  1  6
 33 68  1  0
 33 69  1  0
 35 70  1  0
 36 71  1  0
 36 72  1  0
 37 73  1  0
 37 74  1  0
 38 75  1  0
 39 76  1  0
 41 77  1  0
 42 78  1  0
 43 79  1  0
 43 80  1  0
 43 81  1  0
M  END
> <Uni-Dock RESULT> 
ENERGY=   -7.515  LOWER_BOUND=    4.401  UPPER_BOUND=    6.496
INTER + INTRA:          -7.515
INTER:                  -7.515
INTRA:                   0.000
UNBOUND:                 0.000

$$$$

     RDKit          3D

 81 84  0  0  0  0  0  0  0  0999 V2000
   45.4220    6.8761   12.4212 O   0  0  0  0  0  0  0  0  0  0  0  0
   45.3120    7.6455   12.2824 Cl  0  0  0  0  0  0  0  0  0  0  0  0
   45.3125    7.6447   12.2828 Cl  0  0  0  0  0  0  0  0  0  0  0  0
   43.0185    8.7391   10.2268 O   0  0  0  0  0  0  0  0  0  0  0  0
   43.3730   11.4141   10.3352 O   0  0  0  0  0  0  0  0  0  0  0  0
   47.0098    5.9027   14.4180 N   0  0  0  0  0  0  0  0  0  0  0  0
   46.7682    6.6954   13.2029 C   0  0  1  0  0  0  0  0  0  0  0  0
   45.6204    6.1179   12.4551 C   0  0  0  0  0  0  0  0  0  0  0  0
   44.7363    6.9062   11.7223 C   0  0  0  0  0  0  0  0  0  0  0  0
   44.8673    8.3560   11.7705 C   0  0  0  0  0  0  0  0  0  0  0  0
   45.8549    8.9351   12.5420 C   0  0  0  0  0  0  0  0  0  0  0  0
   45.5108    4.7447   12.4976 C   0  0  0  0  0  0  0  0  0  0  0  0
   46.7810    8.1407   13.3993 C   0  0  0  0  0  0  0  0  0  0  0  0
   44.0446    9.1796   11.0391 C   0  0  0  0  0  0  0  0  0  0  0  0
   43.7187    6.3133   11.0104 C   0  0  0  0  0  0  0  0  0  0  0  0
   46.3753    3.8214   13.2462 C   0  0  0  0  0  0  0  0  0  0  0  0
   47.4095    4.5786   14.0119 C   0  0  0  0  0  0  0  0  0  0  0  0
   44.4740    4.1862   11.7690 C   0  0  0  0  0  0  0  0  0  0  0  0
   46.0377   10.3192   12.5963 C   0  0  0  0  0  0  0  0  0  0  0  0
   44.2063   10.5735   11.0763 C   0  0  0  0  0  0  0  0  0  0  0  0
   43.5788    4.9155   11.0304 C   0  0  0  0  0  0  0  0  0  0  0  0
   45.2002   11.1173   11.8542 C   0  0  0  0  0  0  0  0  0  0  0  0
   48.1412    6.4865   15.1163 C   0  0  0  0  0  0  0  0  0  0  0  0
   42.7077    9.1468   11.1701 O   0  0  0  0  0  0  0  0  0  0  0  0
   43.6295   11.6295   10.6160 O   0  0  0  0  0  0  0  0  0  0  0  0
   47.3086    5.9662   14.0405 N   0  0  0  0  0  0  0  0  0  0  0  0
   46.8603    6.4168   12.7532 C   0  0  1  0  0  0  0  0  0  0  0  0
   45.4181    6.1485   12.5790 C   0  0  0  0  0  0  0  0  0  0  0  0
   44.4982    7.0675   12.1337 C   0  0  0  0  0  0  0  0  0  0  0  0
   44.9394    8.4180   11.8292 C   0  0  0  0  0  0  0  0  0  0  0  0
   46.2697    8.7391   11.9981 C   0  0  0  0  0  0  0  0  0  0  0  0
   45.0150    4.8399   12.8944 C   0  0  0  0  0  0  0  0  0  0  0  0
   47.2933    7.7914   12.4913 C   0  0  0  0  0  0  0  0  0  0  0  0
   44.0393    9.3504   11.3739 C   0  0  0  0  0  0  0  0  0  0  0  0
   43.1858    6.6737   12.0061 C   0  0  0  0  0  0  0  0  0  0  0  0
   46.0992    3.9448   13.3696 C   0  0  0  0  0  0  0  0  0  0  0  0
   46.7873    4.7167   14.4755 C   0  0  0  0  0  0  0  0  0  0  0  0
   43.7037    4.4706   12.7599 C   0  0  0  0  0  0  0  0  0  0  0  0
   46.7405   10.0294   11.7082 C   0  0  0  0  0  0  0  0  0  0  0  0
   44.5141   10.6383   11.0858 C   0  0  0  0  0  0  0  0  0  0  0  0
   42.7656    5.3683   12.3170 C   0  0  0  0  0  0  0  0  0  0  0  0
   45.8379   10.9621   11.2522 C   0  0  0  0  0  0  0  0  0  0  0  0
   48.7085    6.1385   14.2599 C   0  0  0  0  0  0  0  0  0  0  0  0
   46.2012    6.6492   12.9834 H   0  0  0  0  0  0  0  0  0  0  0  0
   45.3692    7.8635   12.3048 H   0  0  0  0  0  0  0  0  0  0  0  0
   46.0163    6.6137   12.8572 H   0  0  0  0  0  0  0  0  0  0  0  0
   46.0157    6.6145   12.8568 H   0  0  0  0  0  0  0  0  0  0  0  0
   42.1632    9.2220   10.0672 H   0  0  0  0  0  0  0  0  0  0  0  0
   42.4196   11.5364   10.6658 H   0  0  0  0  0  0  0  0  0  0  0  0
   47.6665    6.4370   12.5552 H   0  0  0  0  0  0  0  0  0  0  0  0
   46.5488    8.3670   14.4670 H   0  0  0  0  0  0  0  0  0  0  0  0
   47.7999    8.6066   13.2364 H   0  0  0  0  0  0  0  0  0  0  0  0
   43.0011    6.8215   10.4283 H   0  0  0  0  0  0  0  0  0  0  0  0
   45.7773    3.2586   14.0336 H   0  0  0  0  0  0  0  0  0  0  0  0
   46.8694    3.0713   12.5887 H   0  0  0  0  0  0  0  0  0  0  0  0
   47.6664    4.0498   14.9782 H   0  0  0  0  0  0  0  0  0  0  0  0
   48.3277    4.6236   13.3812 H   0  0  0  0  0  0  0  0  0  0  0  0
   44.3352    3.1038   11.7625 H   0  0  0  0  0  0  0  0  0  0  0  0
   46.8167   10.7683   13.2044 H   0  0  0  0  0  0  0  0  0  0  0  0
   42.7878    4.4260   10.4794 H   0  0  0  0  0  0  0  0  0  0  0  0
   45.2873   12.1947   11.8515 H   0  0  0  0  0  0  0  0  0  0  0  0
   48.9672    6.7888   14.4736 H   0  0  0  0  0  0  0  0  0  0  0  0
   47.8605    7.3518   15.7472 H   0  0  0  0  0  0  0  0  0  0  0  0
   48.5512    5.7252   15.8420 H   0  0  0  0  0  0  0  0  0  0  0  0
   42.2688    9.2971   10.2875 H   0  0  0  0  0  0  0  0  0  0  0  0
   42.8187   11.7805   11.2352 H   0  0  0  0  0  0  0  0  0  0  0  0
   47.3640    5.7254   12.0097 H   0  0  0  0  0  0  0  0  0  0  0  0
   47.7618    8.2876   13.3907 H   0  0  0  0  0  0  0  0  0  0  0  0
   48.1231    7.8300   11.7262 H   0  0  0  0  0  0  0  0  0  0  0  0
   42.3927    7.3105   11.6688 H   0  0  0  0  0  0  0  0  0  0  0  0
   46.8072    3.6698   12.5634 H   0  0  0  0  0  0  0  0  0  0  0  0
   45.7342    3.0133   13.8320 H   0  0  0  0  0  0  0  0  0  0  0  0
   47.6087    4.1363   14.9384 H   0  0  0  0  0  0  0  0  0  0  0  0
   45.9765    4.9426   15.2178 H   0  0  0  0  0  0  0  0  0  0  0  0
   43.4024    3.4697   13.0024 H   0  0  0  0  0  0  0  0  0  0  0  0
   47.7825   10.2870   11.8384 H   0  0  0  0  0  0  0  0  0  0  0  0
   41.7390    5.0628   12.2164 H   0  0  0  0  0  0  0  0  0  0  0  0
   46.1424   11.9579   11.0168 H   0  0  0  0  0  0  0  0  0  0  0  0
   49.2378    6.5876   13.3947 H   0  0  0  0  0  0  0  0  0  0  0  0
   48.8466    6.7901   15.1541 H   0  0  0  0  0  0  0  0  0  0  0  0
   49.2448    5.1907   14.4765 H   0  0  0  0  0  0  0  0  0  0  0  0
  4 14  1  0
  5 20  1  0
  6  7  1  0
  6 17  1  0
  6 23  1  0
  7  8  1  0
  7 13  1  0
  8  9  1  0
  8 12  2  0
  9 10  1  0
  9 15  2  0
 10 11  2  0
 10 14  1  0
 11 13  1  0
 11 19  1  0
 12 16  1  0
 12 18  1  0
 14 20  2  0
 15 21  1  0
 16 17  1  0
 18 21  2  0
 19 22  2  0
 20 22  1  0
 24 34  1  0
 25 40  1  0
 26 27  1  0
 26 37  1  0
 26 43  1  0
 27 28  1  0
 27 33  1  0
 28 29  1  0
 28 32  2  0
 29 30  1  0
 29 35  2  0
 30 31  2  0
 30 34  1  0
 31 33  1  0
 31 39  1  0
 32 36  1  0
 32 38  1  0
 34 40  2  0
 35 41  1  0
 36 37  1  0
 38 41  2  0
 39 42  2  0
 40 42  1  0
  1 44  1  0
  1 45  1  0
  2 46  1  0
  3 47  1  0
  4 48  1  0
  5 49  1  0
  7 50  1  6
 13 51  1  0
 13 52  1  0
 15 53  1  0
 16 54  1  0
 16 55  1  0
 17 56  1  0
 17 57  1  0
 18 58  1  0
 19 59  1  0
 21 60  1  0
 22 61  1  0
 23 62  1  0
 23 63  1  0
 23 64  1  0
 24 65  1  0
 25 66  1  0
 27 67  1  6
 33 68  1  0
 33 69  1  0
 35 70  1  0
 36 71  1  0
 36 72  1  0
 37 73  1  0
 37 74  1  0
 38 75  1  0
 39 76  1  0
 41 77  1  0
 42 78  1  0
 43 79  1  0
 43 80  1  0
 43 81  1  0
M  END
> <Uni-Dock RESULT> 
ENERGY=   -7.432  LOWER_BOUND=    3.307  UPPER_BOUND=    6.862
INTER + INTRA:          -7.432
INTER:                  -7.432
INTRA:                   0.000
UNBOUND:                 0.000

$$$$

     RDKit          3D

 81 84  0  0  0  0  0  0  0  0999 V2000
   45.9767    7.3798   12.4129 O   0  0  0  0  0  0  0  0  0  0  0  0
   45.4706    6.7737   12.4153 Cl  0  0  0  0  0  0  0  0  0  0  0  0
   45.4709    6.7748   12.4151 Cl  0  0  0  0  0  0  0  0  0  0  0  0
   46.4244    3.7039   13.0053 O   0  0  0  0  0  0  0  0  0  0  0  0
   44.1121    2.3270   12.7812 O   0  0  0  0  0  0  0  0  0  0  0  0
   45.2113   10.0001   12.3505 N   0  0  0  0  0  0  0  0  0  0  0  0
   45.2548    8.6331   11.8096 C   0  0  1  0  0  0  0  0  0  0  0  0
   46.4925    7.9549   12.2768 C   0  0  0  0  0  0  0  0  0  0  0  0
   46.5391    6.5878   12.5392 C   0  0  0  0  0  0  0  0  0  0  0  0
   45.3132    5.8054   12.4602 C   0  0  0  0  0  0  0  0  0  0  0  0
   44.1208    6.4206   12.1352 C   0  0  0  0  0  0  0  0  0  0  0  0
   47.6058    8.7589   12.3932 C   0  0  0  0  0  0  0  0  0  0  0  0
   44.0036    7.8907   11.9141 C   0  0  0  0  0  0  0  0  0  0  0  0
   45.3088    4.4474   12.6744 C   0  0  0  0  0  0  0  0  0  0  0  0
   47.7246    6.0044   12.9242 C   0  0  0  0  0  0  0  0  0  0  0  0
   47.6662   10.2082   12.1563 C   0  0  0  0  0  0  0  0  0  0  0  0
   46.3179   10.7346   11.7901 C   0  0  0  0  0  0  0  0  0  0  0  0
   48.7789    8.1349   12.7833 C   0  0  0  0  0  0  0  0  0  0  0  0
   42.9255    5.7067   12.0186 C   0  0  0  0  0  0  0  0  0  0  0  0
   44.1216    3.7066   12.5644 C   0  0  0  0  0  0  0  0  0  0  0  0
   48.8793    6.7943   13.0514 C   0  0  0  0  0  0  0  0  0  0  0  0
   42.9519    4.3501   12.2382 C   0  0  0  0  0  0  0  0  0  0  0  0
   43.9986   10.6352   11.8666 C   0  0  0  0  0  0  0  0  0  0  0  0
   45.7560    3.9073   13.8206 O   0  0  0  0  0  0  0  0  0  0  0  0
   43.7117    2.4986   12.7450 O   0  0  0  0  0  0  0  0  0  0  0  0
   45.2350    9.8657   11.8844 N   0  0  0  0  0  0  0  0  0  0  0  0
   45.6609    8.5601   11.4659 C   0  0  1  0  0  0  0  0  0  0  0  0
   46.4815    7.9178   12.5128 C   0  0  0  0  0  0  0  0  0  0  0  0
   46.2980    6.6371   12.9767 C   0  0  0  0  0  0  0  0  0  0  0  0
   45.2093    5.8398   12.4379 C   0  0  0  0  0  0  0  0  0  0  0  0
   44.3896    6.3931   11.4769 C   0  0  0  0  0  0  0  0  0  0  0  0
   47.5178    8.7150   13.0277 C   0  0  0  0  0  0  0  0  0  0  0  0
   44.5353    7.7715   10.9592 C   0  0  0  0  0  0  0  0  0  0  0  0
   45.0127    4.5543   12.8799 C   0  0  0  0  0  0  0  0  0  0  0  0
   47.1491    6.1626   13.9485 C   0  0  0  0  0  0  0  0  0  0  0  0
   47.6083   10.0792   12.4507 C   0  0  0  0  0  0  0  0  0  0  0  0
   46.2092   10.6463   12.5656 C   0  0  0  0  0  0  0  0  0  0  0  0
   48.3523    8.2218   13.9944 C   0  0  0  0  0  0  0  0  0  0  0  0
   43.3311    5.6558   10.9233 C   0  0  0  0  0  0  0  0  0  0  0  0
   43.9538    3.8214   12.3242 C   0  0  0  0  0  0  0  0  0  0  0  0
   48.1912    6.9467   14.4743 C   0  0  0  0  0  0  0  0  0  0  0  0
   43.1356    4.3683   11.3669 C   0  0  0  0  0  0  0  0  0  0  0  0
   44.4843   10.5744   10.8987 C   0  0  0  0  0  0  0  0  0  0  0  0
   45.6033    8.2488   12.1301 H   0  0  0  0  0  0  0  0  0  0  0  0
   45.2654    6.6838   12.3826 H   0  0  0  0  0  0  0  0  0  0  0  0
   45.7596    8.1012   12.2018 H   0  0  0  0  0  0  0  0  0  0  0  0
   45.7594    8.1001   12.2020 H   0  0  0  0  0  0  0  0  0  0  0  0
   46.4268    2.8993   13.5907 H   0  0  0  0  0  0  0  0  0  0  0  0
   44.2003    2.0043   13.7410 H   0  0  0  0  0  0  0  0  0  0  0  0
   45.4483    8.8099   10.7030 H   0  0  0  0  0  0  0  0  0  0  0  0
   43.3912    8.3204   12.7421 H   0  0  0  0  0  0  0  0  0  0  0  0
   43.3419    7.9959   11.0015 H   0  0  0  0  0  0  0  0  0  0  0  0
   47.8612    4.9823   13.1452 H   0  0  0  0  0  0  0  0  0  0  0  0
   47.9507   10.7607   13.1092 H   0  0  0  0  0  0  0  0  0  0  0  0
   48.4028   10.4815   11.3675 H   0  0  0  0  0  0  0  0  0  0  0  0
   46.1790   11.7914   12.1682 H   0  0  0  0  0  0  0  0  0  0  0  0
   46.2542   10.7485   10.6771 H   0  0  0  0  0  0  0  0  0  0  0  0
   49.6947    8.7180   12.8929 H   0  0  0  0  0  0  0  0  0  0  0  0
   41.9913    6.1963   11.7619 H   0  0  0  0  0  0  0  0  0  0  0  0
   49.8225    6.3596   13.3520 H   0  0  0  0  0  0  0  0  0  0  0  0
   42.0632    3.7393   12.1644 H   0  0  0  0  0  0  0  0  0  0  0  0
   43.7691   10.4417   10.8193 H   0  0  0  0  0  0  0  0  0  0  0  0
   43.1057   10.3780   12.4685 H   0  0  0  0  0  0  0  0  0  0  0  0
   44.1056   11.7534   11.9782 H   0  0  0  0  0  0  0  0  0  0  0  0
   46.2221    3.0447   13.6390 H   0  0  0  0  0  0  0  0  0  0  0  0
   43.5858    2.4106   13.7648 H   0  0  0  0  0  0  0  0  0  0  0  0
   46.3888    8.7480   10.6176 H   0  0  0  0  0  0  0  0  0  0  0  0
   43.5353    8.2683   11.1257 H   0  0  0  0  0  0  0  0  0  0  0  0
   44.5738    7.6614    9.8358 H   0  0  0  0  0  0  0  0  0  0  0  0
   47.0922    5.1820   14.3768 H   0  0  0  0  0  0  0  0  0  0  0  0
   47.9607   10.0739   11.4005 H   0  0  0  0  0  0  0  0  0  0  0  0
   48.2593   10.7602   13.0228 H   0  0  0  0  0  0  0  0  0  0  0  0
   46.1502   11.6861   12.1901 H   0  0  0  0  0  0  0  0  0  0  0  0
   45.9641   10.5911   13.6594 H   0  0  0  0  0  0  0  0  0  0  0  0
   49.1418    8.8356   14.3834 H   0  0  0  0  0  0  0  0  0  0  0  0
   42.6853    6.0841   10.1694 H   0  0  0  0  0  0  0  0  0  0  0  0
   48.8553    6.5735   15.2339 H   0  0  0  0  0  0  0  0  0  0  0  0
   42.3456    3.7636   10.9797 H   0  0  0  0  0  0  0  0  0  0  0  0
   44.3530   10.0081    9.9540 H   0  0  0  0  0  0  0  0  0  0  0  0
   43.4827   10.8151   11.3254 H   0  0  0  0  0  0  0  0  0  0  0  0
   44.9404   11.5427   10.6033 H   0  0  0  0  0  0  0  0  0  0  0  0
  4 14  1  0
  5 20  1  0
  6  7  1  0
  6 17  1  0
  6 23  1  0
  7  8  1  0
  7 13  1  0
  8  9  1  0
  8 12  2  0
  9 10  1  0
  9 15  2  0
 10 11  2  0
 10 14  1  0
 11 13  1  0
 11 19  1  0
 12 16  1  0
 12 18  1  0
 14 20  2  0
 15 21  1  0
 16 17  1  0
 18 21  2  0
 19 22  2  0
 20 22  1  0
 24 34  1  0
 25 40  1  0
 26 27  1  0
 26 37  1  0
 26 43  1  0
 27 28  1  0
 27 33  1  0
 28 29  1  0
 28 32  2  0
 29 30  1  0
 29 35  2  0
 30 31  2  0
 30 34  1  0
 31 33  1  0
 31 39  1  0
 32 36  1  0
 32 38  1  0
 34 40  2  0
 35 41  1  0
 36 37  1  0
 38 41  2  0
 39 42  2  0
 40 42  1  0
  1 44  1  0
  1 45  1  0
  2 46  1  0
  3 47  1  0
  4 48  1  0
  5 49  1  0
  7 50  1  6
 13 51  1  0
 13 52  1  0
 15 53  1  0
 16 54  1  0
 16 55  1  0
 17 56  1  0
 17 57  1  0
 18 58  1  0
 19 59  1  0
 21 60  1  0
 22 61  1  0
 23 62  1  0
 23 63  1  0
 23 64  1  0
 24 65  1  0
 25 66  1  0
 27 67  1  6
 33 68  1  0
 33 69  1  0
 35 70  1  0
 36 71  1  0
 36 72  1  0
 37 73  1  0
 37 74  1  0
 38 75  1  0
 39 76  1  0
 41 77  1  0
 42 78  1  0
 43 79  1  0
 43 80  1  0
 43 81  1  0
M  END
> <Uni-Dock RESULT> 
ENERGY=   -7.430  LOWER_BOUND=    3.360  UPPER_BOUND=    5.356
INTER + INTRA:          -7.430
INTER:                  -7.430
INTRA:                   0.000
UNBOUND:                 0.000

$$$$

     RDKit          3D

 81 84  0  0  0  0  0  0  0  0999 V2000
   50.2243    4.4911   18.0430 O   0  0  0  0  0  0  0  0  0  0  0  0
   50.8667    4.0349   17.9920 Cl  0  0  0  0  0  0  0  0  0  0  0  0
   50.8662    4.0359   17.9922 Cl  0  0  0  0  0  0  0  0  0  0  0  0
   50.6821    0.7893   17.6554 O   0  0  0  0  0  0  0  0  0  0  0  0
   53.2831    0.0646   17.6036 O   0  0  0  0  0  0  0  0  0  0  0  0
   50.2796    7.2174   17.9006 N   0  0  0  0  0  0  0  0  0  0  0  0
   50.6635    5.9268   18.4924 C   0  0  1  0  0  0  0  0  0  0  0  0
   49.5974    4.9247   18.2287 C   0  0  0  0  0  0  0  0  0  0  0  0
   49.8771    3.5753   18.0261 C   0  0  0  0  0  0  0  0  0  0  0  0
   51.2648    3.1377   17.9613 C   0  0  0  0  0  0  0  0  0  0  0  0
   52.2860    4.0574   18.0929 C   0  0  0  0  0  0  0  0  0  0  0  0
   48.3072    5.4090   18.2400 C   0  0  0  0  0  0  0  0  0  0  0  0
   52.0417    5.5209   18.2408 C   0  0  0  0  0  0  0  0  0  0  0  0
   51.5970    1.8136   17.7988 C   0  0  0  0  0  0  0  0  0  0  0  0
   48.8467    2.6838   17.8330 C   0  0  0  0  0  0  0  0  0  0  0  0
   47.9004    6.8086   18.4294 C   0  0  0  0  0  0  0  0  0  0  0  0
   49.0992    7.6851   18.5832 C   0  0  0  0  0  0  0  0  0  0  0  0
   47.2986    4.4811   18.0416 C   0  0  0  0  0  0  0  0  0  0  0  0
   53.6312    3.6807   18.0669 C   0  0  0  0  0  0  0  0  0  0  0  0
   52.9407    1.4085   17.7685 C   0  0  0  0  0  0  0  0  0  0  0  0
   47.5191    3.1433   17.8400 C   0  0  0  0  0  0  0  0  0  0  0  0
   53.9329    2.3498   17.9034 C   0  0  0  0  0  0  0  0  0  0  0  0
   51.3352    8.1728   18.1858 C   0  0  0  0  0  0  0  0  0  0  0  0
   51.1659    1.0965   16.7474 O   0  0  0  0  0  0  0  0  0  0  0  0
   53.6259    0.3344   17.5769 O   0  0  0  0  0  0  0  0  0  0  0  0
   50.3508    7.1153   18.3700 N   0  0  0  0  0  0  0  0  0  0  0  0
   50.3372    5.7780   18.8921 C   0  0  1  0  0  0  0  0  0  0  0  0
   49.5879    4.8746   17.9951 C   0  0  0  0  0  0  0  0  0  0  0  0
   50.0399    3.6526   17.5576 C   0  0  0  0  0  0  0  0  0  0  0  0
   51.3581    3.1989   17.9675 C   0  0  0  0  0  0  0  0  0  0  0  0
   52.1189    4.0099   18.7829 C   0  0  0  0  0  0  0  0  0  0  0  0
   48.3230    5.3433   17.6015 C   0  0  0  0  0  0  0  0  0  0  0  0
   51.6843    5.3397   19.2647 C   0  0  0  0  0  0  0  0  0  0  0  0
   51.8266    1.9771   17.5500 C   0  0  0  0  0  0  0  0  0  0  0  0
   49.2271    2.9088   16.7330 C   0  0  0  0  0  0  0  0  0  0  0  0
   47.9525    6.6777   18.1348 C   0  0  0  0  0  0  0  0  0  0  0  0
   49.1287    7.5717   17.8038 C   0  0  0  0  0  0  0  0  0  0  0  0
   47.5316    4.5861   16.7803 C   0  0  0  0  0  0  0  0  0  0  0  0
   53.3943    3.6075   19.2094 C   0  0  0  0  0  0  0  0  0  0  0  0
   53.1015    1.5792   17.9783 C   0  0  0  0  0  0  0  0  0  0  0  0
   47.9587    3.3626   16.3300 C   0  0  0  0  0  0  0  0  0  0  0  0
   53.8621    2.3834   18.7905 C   0  0  0  0  0  0  0  0  0  0  0  0
   51.0081    8.0604   19.2139 C   0  0  0  0  0  0  0  0  0  0  0  0
   50.3901    5.4446   18.2383 H   0  0  0  0  0  0  0  0  0  0  0  0
   51.0907    4.0026   17.9989 H   0  0  0  0  0  0  0  0  0  0  0  0
   50.2701    5.2573   18.1948 H   0  0  0  0  0  0  0  0  0  0  0  0
   50.2705    5.2563   18.1946 H   0  0  0  0  0  0  0  0  0  0  0  0
   50.8164   -0.0295   17.1062 H   0  0  0  0  0  0  0  0  0  0  0  0
   53.1621   -0.3381   16.6782 H   0  0  0  0  0  0  0  0  0  0  0  0
   50.5714    6.1279   19.6079 H   0  0  0  0  0  0  0  0  0  0  0  0
   52.4112    6.0314   17.3199 H   0  0  0  0  0  0  0  0  0  0  0  0
   52.7624    5.8562   19.0471 H   0  0  0  0  0  0  0  0  0  0  0  0
   48.9553    1.6473   17.6713 H   0  0  0  0  0  0  0  0  0  0  0  0
   47.3638    7.2006   17.5060 H   0  0  0  0  0  0  0  0  0  0  0  0
   47.2234    6.9420   19.3030 H   0  0  0  0  0  0  0  0  0  0  0  0
   48.9084    8.7125   18.1505 H   0  0  0  0  0  0  0  0  0  0  0  0
   49.2967    7.7949   19.6750 H   0  0  0  0  0  0  0  0  0  0  0  0
   46.2560    4.8030   18.0402 H   0  0  0  0  0  0  0  0  0  0  0  0
   54.4296    4.4087   18.1718 H   0  0  0  0  0  0  0  0  0  0  0  0
   46.6923    2.4628   17.6909 H   0  0  0  0  0  0  0  0  0  0  0  0
   54.9523    1.9916   17.8743 H   0  0  0  0  0  0  0  0  0  0  0  0
   51.7372    8.1199   19.1970 H   0  0  0  0  0  0  0  0  0  0  0  0
   52.1811    8.1082   17.4745 H   0  0  0  0  0  0  0  0  0  0  0  0
   50.9264    9.2161   18.0492 H   0  0  0  0  0  0  0  0  0  0  0  0
   50.9682    0.1592   17.0243 H   0  0  0  0  0  0  0  0  0  0  0  0
   53.6410    0.2081   16.5535 H   0  0  0  0  0  0  0  0  0  0  0  0
   49.6984    5.8354   19.8266 H   0  0  0  0  0  0  0  0  0  0  0  0
   52.4905    6.0609   18.9413 H   0  0  0  0  0  0  0  0  0  0  0  0
   51.8177    5.3046   20.3857 H   0  0  0  0  0  0  0  0  0  0  0  0
   49.4839    1.9466   16.3374 H   0  0  0  0  0  0  0  0  0  0  0  0
   47.7489    6.6587   19.2234 H   0  0  0  0  0  0  0  0  0  0  0  0
   47.0795    7.1280   17.6349 H   0  0  0  0  0  0  0  0  0  0  0  0
   48.9607    8.6167   18.1287 H   0  0  0  0  0  0  0  0  0  0  0  0
   49.2400    7.5020   16.6893 H   0  0  0  0  0  0  0  0  0  0  0  0
   46.5667    4.9496   16.4835 H   0  0  0  0  0  0  0  0  0  0  0  0
   53.9953    4.2389   19.8490 H   0  0  0  0  0  0  0  0  0  0  0  0
   47.3250    2.7792   15.6853 H   0  0  0  0  0  0  0  0  0  0  0  0
   54.8249    2.0287   19.0852 H   0  0  0  0  0  0  0  0  0  0  0  0
   51.4007    7.6157   20.1511 H   0  0  0  0  0  0  0  0  0  0  0  0
   51.8499    8.5163   18.6423 H   0  0  0  0  0  0  0  0  0  0  0  0
   50.3557    8.8999   19.5343 H   0  0  0  0  0  0  0  0  0  0  0  0
  4 14  1  0
  5 20  1  0
  6  7  1  0
  6 17  1  0
  6 23  1  0
  7  8  1  0
  7 13  1  0
  8  9  1  0
  8 12  2  0
  9 10  1  0
  9 15  2  0
 10 11  2  0
 10 14  1  0
 11 13  1  0
 11 19  1  0
 12 16  1  0
 12 18  1  0
 14 20  2  0
 15 21  1  0
 16 17  1  0
 18 21  2  0
 19 22  2  0
 20 22  1  0
 24 34  1  0
 25 40  1  0
 26 27  1  0
 26 37  1  0
 26 43  1  0
 27 28  1  0
 27 33  1  0
 28 29  1  0
 28 32  2  0
 29 30  1  0
 29 35  2  0
 30 31  2  0
 30 34  1  0
 31 33  1  0
 31 39  1  0
 32 36  1  0
 32 38  1  0
 34 40  2  0
 35 41  1  0
 36 37  1  0
 38 41  2  0
 39 42  2  0
 40 42  1  0
  1 44  1  0
  1 45  1  0
  2 46  1  0
  3 47  1  0
  4 48  1  0
  5 49  1  0
  7 50  1  6
 13 51  1  0
 13 52  1  0
 15 53  1  0
 16 54  1  0
 16 55  1  0
 17 56  1  0
 17 57  1  0
 18 58  1  0
 19 59  1  0
 21 60  1  0
 22 61  1  0
 23 62  1  0
 23 63  1  0
 23 64  1  0
 24 65  1  0
 25 66  1  0
 27 67  1  6
 33 68  1  0
 33 69  1  0
 35 70  1  0
 36 71  1  0
 36 72  1  0
 37 73  1  0
 37 74  1  0
 38 75  1  0
 39 76  1  0
 41 77  1  0
 42 78  1  0
 43 79  1  0
 43 80  1  0
 43 81  1  0
M  END
> <Uni-Dock RESULT> 
ENERGY=   -7.395  LOWER_BOUND=    3.454  UPPER_BOUND=    5.813
INTER + INTRA:          -7.395
INTER:                  -7.395
INTRA:                   0.000
UNBOUND:                 0.000

$$$$

     RDKit          3D

 81 84  0  0  0  0  0  0  0  0999 V2000
   46.1504    7.9153   12.5064 O   0  0  0  0  0  0  0  0  0  0  0  0
   46.0128    8.6339   12.2095 Cl  0  0  0  0  0  0  0  0  0  0  0  0
   46.0125    8.6328   12.2096 Cl  0  0  0  0  0  0  0  0  0  0  0  0
   47.8843   11.2124   12.9375 O   0  0  0  0  0  0  0  0  0  0  0  0
   46.6941   13.2006   11.5506 O   0  0  0  0  0  0  0  0  0  0  0  0
   44.9107    5.6452   11.6314 N   0  0  0  0  0  0  0  0  0  0  0  0
   44.9145    7.0015   12.2002 C   0  0  1  0  0  0  0  0  0  0  0  0
   46.2031    7.2402   12.9024 C   0  0  0  0  0  0  0  0  0  0  0  0
   46.8064    8.4949   12.9461 C   0  0  0  0  0  0  0  0  0  0  0  0
   46.2194    9.5938   12.1916 C   0  0  0  0  0  0  0  0  0  0  0  0
   45.0818    9.3844   11.4381 C   0  0  0  0  0  0  0  0  0  0  0  0
   46.7433    6.1477   13.5458 C   0  0  0  0  0  0  0  0  0  0  0  0
   44.4378    8.0464   11.3011 C   0  0  0  0  0  0  0  0  0  0  0  0
   46.7534   10.8602   12.2278 C   0  0  0  0  0  0  0  0  0  0  0  0
   47.9756    8.6684   13.6508 C   0  0  0  0  0  0  0  0  0  0  0  0
   46.2012    4.7815   13.5540 C   0  0  0  0  0  0  0  0  0  0  0  0
   44.9628    4.7057   12.7235 C   0  0  0  0  0  0  0  0  0  0  0  0
   47.9201    6.3627   14.2435 C   0  0  0  0  0  0  0  0  0  0  0  0
   44.4666   10.4143   10.7219 C   0  0  0  0  0  0  0  0  0  0  0  0
   46.1554   11.9126   11.5169 C   0  0  0  0  0  0  0  0  0  0  0  0
   48.5529    7.5763   14.3199 C   0  0  0  0  0  0  0  0  0  0  0  0
   45.0228   11.6700   10.7773 C   0  0  0  0  0  0  0  0  0  0  0  0
   43.6369    5.4426   10.9644 C   0  0  0  0  0  0  0  0  0  0  0  0
   48.0278   11.1044   11.8790 O   0  0  0  0  0  0  0  0  0  0  0  0
   46.3761   13.1544   11.2543 O   0  0  0  0  0  0  0  0  0  0  0  0
   44.6158    5.8249   11.9728 N   0  0  0  0  0  0  0  0  0  0  0  0
   44.9262    7.0000   12.7371 C   0  0  1  0  0  0  0  0  0  0  0  0
   46.3822    7.2490   12.7442 C   0  0  0  0  0  0  0  0  0  0  0  0
   46.9714    8.4608   12.4733 C   0  0  0  0  0  0  0  0  0  0  0  0
   46.1301    9.5930   12.1245 C   0  0  0  0  0  0  0  0  0  0  0  0
   44.7633    9.4177   12.0736 C   0  0  0  0  0  0  0  0  0  0  0  0
   47.1739    6.1346   13.0697 C   0  0  0  0  0  0  0  0  0  0  0  0
   44.0840    8.1303   12.3388 C   0  0  0  0  0  0  0  0  0  0  0  0
   46.6964   10.8159   11.8589 C   0  0  0  0  0  0  0  0  0  0  0  0
   48.3434    8.5510   12.5300 C   0  0  0  0  0  0  0  0  0  0  0  0
   46.4207    4.8836   13.3348 C   0  0  0  0  0  0  0  0  0  0  0  0
   45.4980    4.7229   12.1453 C   0  0  0  0  0  0  0  0  0  0  0  0
   48.5372    6.2478   13.1200 C   0  0  0  0  0  0  0  0  0  0  0  0
   43.9128   10.4862   11.7490 C   0  0  0  0  0  0  0  0  0  0  0  0
   45.8428   11.8806   11.5348 C   0  0  0  0  0  0  0  0  0  0  0  0
   49.1503    7.4461   12.8544 C   0  0  0  0  0  0  0  0  0  0  0  0
   44.4815   11.7104   11.4833 C   0  0  0  0  0  0  0  0  0  0  0  0
   43.2294    5.4855   11.9687 C   0  0  0  0  0  0  0  0  0  0  0  0
   45.4716    7.2289   12.2994 H   0  0  0  0  0  0  0  0  0  0  0  0
   45.8887    8.7813   12.0905 H   0  0  0  0  0  0  0  0  0  0  0  0
   45.6610    7.3165   12.3881 H   0  0  0  0  0  0  0  0  0  0  0  0
   45.6613    7.3175   12.3879 H   0  0  0  0  0  0  0  0  0  0  0  0
   48.5446   11.9037   12.6616 H   0  0  0  0  0  0  0  0  0  0  0  0
   47.5512   13.3622   11.0286 H   0  0  0  0  0  0  0  0  0  0  0  0
   44.1602    6.9178   13.0471 H   0  0  0  0  0  0  0  0  0  0  0  0
   44.5617    7.7057   10.2458 H   0  0  0  0  0  0  0  0  0  0  0  0
   43.3275    8.2469   11.3951 H   0  0  0  0  0  0  0  0  0  0  0  0
   48.5069    9.5747   13.7428 H   0  0  0  0  0  0  0  0  0  0  0  0
   46.9294    4.0563   13.0661 H   0  0  0  0  0  0  0  0  0  0  0  0
   45.9866    4.4135   14.5824 H   0  0  0  0  0  0  0  0  0  0  0  0
   44.8659    3.6918   12.2318 H   0  0  0  0  0  0  0  0  0  0  0  0
   44.0924    4.8501   13.4052 H   0  0  0  0  0  0  0  0  0  0  0  0
   48.3964    5.5367   14.7741 H   0  0  0  0  0  0  0  0  0  0  0  0
   43.5716   10.2433   10.1319 H   0  0  0  0  0  0  0  0  0  0  0  0
   49.4707    7.6870   14.8804 H   0  0  0  0  0  0  0  0  0  0  0  0
   44.5972   12.5102   10.2470 H   0  0  0  0  0  0  0  0  0  0  0  0
   42.7723    5.8227   11.5074 H   0  0  0  0  0  0  0  0  0  0  0  0
   43.6131    5.8627    9.9404 H   0  0  0  0  0  0  0  0  0  0  0  0
   43.4744    4.3347   10.8223 H   0  0  0  0  0  0  0  0  0  0  0  0
   48.4157   11.8169   12.4587 H   0  0  0  0  0  0  0  0  0  0  0  0
   47.0824   13.1455   10.5029 H   0  0  0  0  0  0  0  0  0  0  0  0
   44.6857    6.7231   13.8096 H   0  0  0  0  0  0  0  0  0  0  0  0
   43.4618    7.9178   11.4210 H   0  0  0  0  0  0  0  0  0  0  0  0
   43.3025    8.3653   13.1196 H   0  0  0  0  0  0  0  0  0  0  0  0
   48.8998    9.4462   12.3366 H   0  0  0  0  0  0  0  0  0  0  0  0
   45.8555    4.9215   14.2866 H   0  0  0  0  0  0  0  0  0  0  0  0
   47.0529    3.9809   13.3520 H   0  0  0  0  0  0  0  0  0  0  0  0
   44.8939    3.7973   12.2100 H   0  0  0  0  0  0  0  0  0  0  0  0
   46.1777    4.7069   11.2524 H   0  0  0  0  0  0  0  0  0  0  0  0
   49.1360    5.3931   13.3693 H   0  0  0  0  0  0  0  0  0  0  0  0
   42.8404   10.3549   11.7077 H   0  0  0  0  0  0  0  0  0  0  0  0
   50.2228    7.5191   12.8982 H   0  0  0  0  0  0  0  0  0  0  0  0
   43.8811   12.5565   11.2313 H   0  0  0  0  0  0  0  0  0  0  0  0
   42.6042    6.1797   12.5666 H   0  0  0  0  0  0  0  0  0  0  0  0
   42.8708    5.4844   10.9129 H   0  0  0  0  0  0  0  0  0  0  0  0
   43.0181    4.4731   12.3728 H   0  0  0  0  0  0  0  0  0  0  0  0
  4 14  1  0
  5 20  1  0
  6  7  1  0
  6 17  1  0
  6 23  1  0
  7  8  1  0
  7 13  1  0
  8  9  1  0
  8 12  2  0
  9 10  1  0
  9 15  2  0
 10 11  2  0
 10 14  1  0
 11 13  1  0
 11 19  1  0
 12 16  1  0
 12 18  1  0
 14 20  2  0
 15 21  1  0
 16 17  1  0
 18 21  2  0
 19 22  2  0
 20 22  1  0
 24 34  1  0
 25 40  1  0
 26 27  1  0
 26 37  1  0
 26 43  1  0
 27 28  1  0
 27 33  1  0
 28 29  1  0
 28 32  2  0
 29 30  1  0
 29 35  2  0
 30 31  2  0
 30 34  1  0
 31 33  1  0
 31 39  1  0
 32 36  1  0
 32 38  1  0
 34 40  2  0
 35 41  1  0
 36 37  1  0
 38 41  2  0
 39 42  2  0
 40 42  1  0
  1 44  1  0
  1 45  1  0
  2 46  1  0
  3 47  1  0
  4 48  1  0
  5 49  1  0
  7 50  1  6
 13 51  1  0
 13 52  1  0
 15 53  1  0
 16 54  1  0
 16 55  1  0
 17 56  1  0
 17 57  1  0
 18 58  1  0
 19 59  1  0
 21 60  1  0
 22 61  1  0
 23 62  1  0
 23 63  1  0
 23 64  1  0
 24 65  1  0
 25 66  1  0
 27 67  1  6
 33 68  1  0
 33 69  1  0
 35 70  1  0
 36 71  1  0
 36 72  1  0
 37 73  1  0
 37 74  1  0
 38 75  1  0
 39 76  1  0
 41 77  1  0
 42 78  1  0
 43 79  1  0
 43 80  1  0
 43 81  1  0
M  END
> <Uni-Dock RESULT> 
ENERGY=   -7.353  LOWER_BOUND=    3.442  UPPER_BOUND=    6.272
INTER + INTRA:          -7.353
INTER:                  -7.353
INTRA:                   0.000
UNBOUND:                 0.000

$$$$

     RDKit          3D

 81 84  0  0  0  0  0  0  0  0999 V2000
   47.8800    8.6243   21.2726 O   0  0  0  0  0  0  0  0  0  0  0  0
   47.9302    9.3493   20.9639 Cl  0  0  0  0  0  0  0  0  0  0  0  0
   47.9302    9.3482   20.9638 Cl  0  0  0  0  0  0  0  0  0  0  0  0
   47.4004   12.0433   22.7368 O   0  0  0  0  0  0  0  0  0  0  0  0
   47.7392   14.0091   20.9165 O   0  0  0  0  0  0  0  0  0  0  0  0
   48.7112    6.3631   19.9874 N   0  0  0  0  0  0  0  0  0  0  0  0
   47.8935    7.5800   20.1041 C   0  0  1  0  0  0  0  0  0  0  0  0
   47.6987    7.9097   21.5406 C   0  0  0  0  0  0  0  0  0  0  0  0
   47.6027    9.2220   21.9974 C   0  0  0  0  0  0  0  0  0  0  0  0
   47.8060   10.3187   21.0607 C   0  0  0  0  0  0  0  0  0  0  0  0
   48.0975   10.0522   19.7379 C   0  0  0  0  0  0  0  0  0  0  0  0
   47.5757    6.8306   22.3891 C   0  0  0  0  0  0  0  0  0  0  0  0
   48.2806    8.6683   19.2134 C   0  0  0  0  0  0  0  0  0  0  0  0
   47.6876   11.6318   21.4504 C   0  0  0  0  0  0  0  0  0  0  0  0
   47.3751    9.4676   23.3322 C   0  0  0  0  0  0  0  0  0  0  0  0
   47.6739    5.4116   22.0188 C   0  0  0  0  0  0  0  0  0  0  0  0
   47.9657    5.2708   20.5613 C   0  0  0  0  0  0  0  0  0  0  0  0
   47.3480    7.1190   23.7243 C   0  0  0  0  0  0  0  0  0  0  0  0
   48.2715   11.0703   18.7971 C   0  0  0  0  0  0  0  0  0  0  0  0
   47.8583   12.6738   20.5254 C   0  0  0  0  0  0  0  0  0  0  0  0
   47.2431    8.3908   24.2248 C   0  0  0  0  0  0  0  0  0  0  0  0
   48.1468   12.3735   19.2157 C   0  0  0  0  0  0  0  0  0  0  0  0
   48.8718    6.0648   18.5754 C   0  0  0  0  0  0  0  0  0  0  0  0
   48.4286   12.1473   22.4457 O   0  0  0  0  0  0  0  0  0  0  0  0
   47.8946   13.9616   20.5108 O   0  0  0  0  0  0  0  0  0  0  0  0
   48.2521    6.4275   19.8425 N   0  0  0  0  0  0  0  0  0  0  0  0
   47.4169    7.4871   20.3333 C   0  0  1  0  0  0  0  0  0  0  0  0
   47.9066    7.9764   21.6383 C   0  0  0  0  0  0  0  0  0  0  0  0
   48.0970    9.2995   21.9579 C   0  0  0  0  0  0  0  0  0  0  0  0
   47.8324   10.3143   20.9522 C   0  0  0  0  0  0  0  0  0  0  0  0
   47.3992    9.9194   19.7041 C   0  0  0  0  0  0  0  0  0  0  0  0
   48.1691    6.9744   22.5879 C   0  0  0  0  0  0  0  0  0  0  0  0
   47.1968    8.5086   19.3068 C   0  0  0  0  0  0  0  0  0  0  0  0
   48.0069   11.6433   21.2523 C   0  0  0  0  0  0  0  0  0  0  0  0
   48.5464    9.6117   23.2206 C   0  0  0  0  0  0  0  0  0  0  0  0
   47.9306    5.5863   22.1202 C   0  0  0  0  0  0  0  0  0  0  0  0
   48.6835    5.4797   20.8111 C   0  0  0  0  0  0  0  0  0  0  0  0
   48.6158    7.3086   23.8380 C   0  0  0  0  0  0  0  0  0  0  0  0
   47.1239   10.8667   18.7054 C   0  0  0  0  0  0  0  0  0  0  0  0
   47.7309   12.5862   20.2513 C   0  0  0  0  0  0  0  0  0  0  0  0
   48.8136    8.6217   24.1827 C   0  0  0  0  0  0  0  0  0  0  0  0
   47.2990   12.1973   19.0075 C   0  0  0  0  0  0  0  0  0  0  0  0
   47.8068    5.8619   18.6100 C   0  0  0  0  0  0  0  0  0  0  0  0
   47.9642    7.8786   20.6311 H   0  0  0  0  0  0  0  0  0  0  0  0
   47.9562    9.4917   20.7897 H   0  0  0  0  0  0  0  0  0  0  0  0
   47.9367    7.9805   20.8317 H   0  0  0  0  0  0  0  0  0  0  0  0
   47.9367    7.9816   20.8318 H   0  0  0  0  0  0  0  0  0  0  0  0
   47.7409   12.8746   23.1645 H   0  0  0  0  0  0  0  0  0  0  0  0
   48.4957   14.4033   21.4692 H   0  0  0  0  0  0  0  0  0  0  0  0
   46.8669    7.2225   19.7703 H   0  0  0  0  0  0  0  0  0  0  0  0
   49.3516    8.5428   18.9262 H   0  0  0  0  0  0  0  0  0  0  0  0
   47.7292    8.6565   18.2246 H   0  0  0  0  0  0  0  0  0  0  0  0
   47.2878   10.4214   23.7737 H   0  0  0  0  0  0  0  0  0  0  0  0
   48.5531    4.9177   22.5456 H   0  0  0  0  0  0  0  0  0  0  0  0
   46.7541    4.8390   22.2744 H   0  0  0  0  0  0  0  0  0  0  0  0
   48.6009    4.3566   20.3616 H   0  0  0  0  0  0  0  0  0  0  0  0
   46.9912    5.1434   20.0349 H   0  0  0  0  0  0  0  0  0  0  0  0
   47.2412    6.3071   24.4455 H   0  0  0  0  0  0  0  0  0  0  0  0
   48.4997   10.8541   17.7581 H   0  0  0  0  0  0  0  0  0  0  0  0
   47.0638    8.5576   25.2778 H   0  0  0  0  0  0  0  0  0  0  0  0
   48.2693   13.2079   18.5395 H   0  0  0  0  0  0  0  0  0  0  0  0
   47.9701    6.1911   17.9772 H   0  0  0  0  0  0  0  0  0  0  0  0
   49.6852    6.6463   18.1002 H   0  0  0  0  0  0  0  0  0  0  0  0
   49.1900    4.9873   18.4665 H   0  0  0  0  0  0  0  0  0  0  0  0
   47.8937   12.8037   22.9723 H   0  0  0  0  0  0  0  0  0  0  0  0
   48.8385   14.2044   20.8479 H   0  0  0  0  0  0  0  0  0  0  0  0
   46.4271    6.9909   20.5755 H   0  0  0  0  0  0  0  0  0  0  0  0
   47.8319    8.3558   18.3860 H   0  0  0  0  0  0  0  0  0  0  0  0
   46.1465    8.4669   18.8937 H   0  0  0  0  0  0  0  0  0  0  0  0
   48.7271   10.6086   23.5696 H   0  0  0  0  0  0  0  0  0  0  0  0
   46.8539    5.3607   21.9905 H   0  0  0  0  0  0  0  0  0  0  0  0
   48.3607    4.8159   22.7808 H   0  0  0  0  0  0  0  0  0  0  0  0
   48.6070    4.4675   20.3690 H   0  0  0  0  0  0  0  0  0  0  0  0
   49.7457    5.7358   21.0669 H   0  0  0  0  0  0  0  0  0  0  0  0
   48.8143    6.5387   24.5585 H   0  0  0  0  0  0  0  0  0  0  0  0
   46.7837   10.5631   17.7251 H   0  0  0  0  0  0  0  0  0  0  0  0
   49.1648    8.8683   25.1693 H   0  0  0  0  0  0  0  0  0  0  0  0
   47.1043   12.9590   18.2851 H   0  0  0  0  0  0  0  0  0  0  0  0
   46.8752    6.3242   18.2244 H   0  0  0  0  0  0  0  0  0  0  0  0
   48.6176    5.9833   17.8543 H   0  0  0  0  0  0  0  0  0  0  0  0
   47.5950    4.7737   18.6707 H   0  0  0  0  0  0  0  0  0  0  0  0
  4 14  1  0
  5 20  1  0
  6  7  1  0
  6 17  1  0
  6 23  1  0
  7  8  1  0
  7 13  1  0
  8  9  1  0
  8 12  2  0
  9 10  1  0
  9 15  2  0
 10 11  2  0
 10 14  1  0
 11 13  1  0
 11 19  1  0
 12 16  1  0
 12 18  1  0
 14 20  2  0
 15 21  1  0
 16 17  1  0
 18 21  2  0
 19 22  2  0
 20 22  1  0
 24 34  1  0
 25 40  1  0
 26 27  1  0
 26 37  1  0
 26 43  1  0
 27 28  1  0
 27 33  1  0
 28 29  1  0
 28 32  2  0
 29 30  1  0
 29 35  2  0
 30 31  2  0
 30 34  1  0
 31 33  1  0
 31 39  1  0
 32 36  1  0
 32 38  1  0
 34 40  2  0
 35 41  1  0
 36 37  1  0
 38 41  2  0
 39 42  2  0
 40 42  1  0
  1 44  1  0
  1 45  1  0
  2 46  1  0
  3 47  1  0
  4 48  1  0
  5 49  1  0
  7 50  1  6
 13 51  1  0
 13 52  1  0
 15 53  1  0
 16 54  1  0
 16 55  1  0
 17 56  1  0
 17 57  1  0
 18 58  1  0
 19 59  1  0
 21 60  1  0
 22 61  1  0
 23 62  1  0
 23 63  1  0
 23 64  1  0
 24 65  1  0
 25 66  1  0
 27 67  1  6
 33 68  1  0
 33 69  1  0
 35 70  1  0
 36 71  1  0
 36 72  1  0
 37 73  1  0
 37 74  1  0
 38 75  1  0
 39 76  1  0
 41 77  1  0
 42 78  1  0
 43 79  1  0
 43 80  1  0
 43 81  1  0
M  END
> <Uni-Dock RESULT> 
ENERGY=   -7.127  LOWER_BOUND=    5.757  UPPER_BOUND=    8.269
INTER + INTRA:          -7.127
INTER:                  -7.127
INTRA:                   0.000
UNBOUND:                 0.000

$$$$

     RDKit          3D

 81 84  0  0  0  0  0  0  0  0999 V2000
   46.3059    8.7283   12.3404 O   0  0  0  0  0  0  0  0  0  0  0  0
   46.1644    7.9824   12.5572 Cl  0  0  0  0  0  0  0  0  0  0  0  0
   46.1641    7.9834   12.5568 Cl  0  0  0  0  0  0  0  0  0  0  0  0
   48.5500    5.9505   13.4857 O   0  0  0  0  0  0  0  0  0  0  0  0
   47.1993    3.6688   13.9976 O   0  0  0  0  0  0  0  0  0  0  0  0
   44.3531   10.5989   11.9621 N   0  0  0  0  0  0  0  0  0  0  0  0
   45.0099    9.3132   11.6814 C   0  0  1  0  0  0  0  0  0  0  0  0
   46.4586    9.4177   11.9986 C   0  0  0  0  0  0  0  0  0  0  0  0
   47.1932    8.3410   12.4898 C   0  0  0  0  0  0  0  0  0  0  0  0
   46.5065    7.0969   12.8089 C   0  0  0  0  0  0  0  0  0  0  0  0
   45.1412    6.9961   12.6306 C   0  0  0  0  0  0  0  0  0  0  0  0
   47.0407   10.6387   11.7347 C   0  0  0  0  0  0  0  0  0  0  0  0
   44.2989    8.1392   12.1751 C   0  0  0  0  0  0  0  0  0  0  0  0
   47.1879    5.9924   13.2626 C   0  0  0  0  0  0  0  0  0  0  0  0
   48.5425    8.4813   12.7214 C   0  0  0  0  0  0  0  0  0  0  0  0
   46.3609   11.8407   11.2310 C   0  0  0  0  0  0  0  0  0  0  0  0
   44.9002   11.5826   11.0614 C   0  0  0  0  0  0  0  0  0  0  0  0
   48.3996   10.7401   11.9811 C   0  0  0  0  0  0  0  0  0  0  0  0
   44.4440    5.8145   12.8949 C   0  0  0  0  0  0  0  0  0  0  0  0
   46.5115    4.7933   13.5364 C   0  0  0  0  0  0  0  0  0  0  0  0
   49.1683    9.7120   12.4618 C   0  0  0  0  0  0  0  0  0  0  0  0
   45.1519    4.7266   13.3471 C   0  0  0  0  0  0  0  0  0  0  0  0
   42.9456   10.4646   11.6316 C   0  0  0  0  0  0  0  0  0  0  0  0
   47.9472    6.0313   14.3705 O   0  0  0  0  0  0  0  0  0  0  0  0
   46.7648    3.6239   14.0142 O   0  0  0  0  0  0  0  0  0  0  0  0
   44.3959   10.3745   11.5335 N   0  0  0  0  0  0  0  0  0  0  0  0
   45.3656    9.3464   11.2805 C   0  0  1  0  0  0  0  0  0  0  0  0
   46.4893    9.4421   12.2345 C   0  0  0  0  0  0  0  0  0  0  0  0
   47.0009    8.3867   12.9511 C   0  0  0  0  0  0  0  0  0  0  0  0
   46.3974    7.0733   12.8026 C   0  0  0  0  0  0  0  0  0  0  0  0
   45.3262    6.9244   11.9472 C   0  0  0  0  0  0  0  0  0  0  0  0
   47.0452   10.7254   12.3709 C   0  0  0  0  0  0  0  0  0  0  0  0
   44.7289    8.0320   11.1689 C   0  0  0  0  0  0  0  0  0  0  0  0
   46.8981    6.0023   13.5018 C   0  0  0  0  0  0  0  0  0  0  0  0
   48.0618    8.6199   13.7961 C   0  0  0  0  0  0  0  0  0  0  0  0
   46.4014   11.7805   11.5494 C   0  0  0  0  0  0  0  0  0  0  0  0
   44.9217   11.6585   11.8456 C   0  0  0  0  0  0  0  0  0  0  0  0
   48.1003   10.9338   13.2177 C   0  0  0  0  0  0  0  0  0  0  0  0
   44.7182    5.6720   11.7674 C   0  0  0  0  0  0  0  0  0  0  0  0
   46.2873    4.7529   13.3193 C   0  0  0  0  0  0  0  0  0  0  0  0
   48.6301    9.8975   13.9441 C   0  0  0  0  0  0  0  0  0  0  0  0
   45.2208    4.6002   12.4683 C   0  0  0  0  0  0  0  0  0  0  0  0
   43.3061   10.3830   10.6118 C   0  0  0  0  0  0  0  0  0  0  0  0
   45.5301    9.2266   11.9876 H   0  0  0  0  0  0  0  0  0  0  0  0
   46.0275    7.8041   12.5845 H   0  0  0  0  0  0  0  0  0  0  0  0
   45.7447    9.1902   12.0511 H   0  0  0  0  0  0  0  0  0  0  0  0
   45.7450    9.1893   12.0515 H   0  0  0  0  0  0  0  0  0  0  0  0
   49.0008    5.4170   14.1943 H   0  0  0  0  0  0  0  0  0  0  0  0
   47.5234    3.6819   14.9608 H   0  0  0  0  0  0  0  0  0  0  0  0
   44.9877    9.2656   10.5455 H   0  0  0  0  0  0  0  0  0  0  0  0
   43.6349    8.4417   13.0193 H   0  0  0  0  0  0  0  0  0  0  0  0
   43.5885    7.6925   11.4150 H   0  0  0  0  0  0  0  0  0  0  0  0
   49.1823    7.7290   13.0914 H   0  0  0  0  0  0  0  0  0  0  0  0
   46.4259   12.6873   11.9881 H   0  0  0  0  0  0  0  0  0  0  0  0
   46.7918   12.2041   10.2710 H   0  0  0  0  0  0  0  0  0  0  0  0
   44.2974   12.5184   11.2616 H   0  0  0  0  0  0  0  0  0  0  0  0
   44.7342   11.2777   10.0019 H   0  0  0  0  0  0  0  0  0  0  0  0
   48.9180   11.6814   11.7915 H   0  0  0  0  0  0  0  0  0  0  0  0
   43.3704    5.7415   12.7519 H   0  0  0  0  0  0  0  0  0  0  0  0
   50.2269    9.8473   12.6353 H   0  0  0  0  0  0  0  0  0  0  0  0
   44.6739    3.7833   13.5706 H   0  0  0  0  0  0  0  0  0  0  0  0
   42.7437    9.9247   10.7072 H   0  0  0  0  0  0  0  0  0  0  0  0
   42.3539    9.9957   12.4412 H   0  0  0  0  0  0  0  0  0  0  0  0
   42.5011   11.4955   11.5135 H   0  0  0  0  0  0  0  0  0  0  0  0
   48.7568    5.4605   14.2565 H   0  0  0  0  0  0  0  0  0  0  0  0
   46.7941    3.7555   15.0367 H   0  0  0  0  0  0  0  0  0  0  0  0
   45.8252    9.6177   10.2806 H   0  0  0  0  0  0  0  0  0  0  0  0
   43.6343    8.0446   11.4450 H   0  0  0  0  0  0  0  0  0  0  0  0
   44.7113    7.6650   10.1009 H   0  0  0  0  0  0  0  0  0  0  0  0
   48.5329    7.8687   14.3979 H   0  0  0  0  0  0  0  0  0  0  0  0
   46.6113   11.6643   10.4680 H   0  0  0  0  0  0  0  0  0  0  0  0
   46.6855   12.8046   11.8414 H   0  0  0  0  0  0  0  0  0  0  0  0
   44.3260   12.4212   11.3077 H   0  0  0  0  0  0  0  0  0  0  0  0
   44.8384   11.7831   12.9577 H   0  0  0  0  0  0  0  0  0  0  0  0
   48.5203   11.9162   13.3173 H   0  0  0  0  0  0  0  0  0  0  0  0
   43.8781    5.5491   11.0979 H   0  0  0  0  0  0  0  0  0  0  0  0
   49.4595   10.0773   14.6053 H   0  0  0  0  0  0  0  0  0  0  0  0
   44.7961    3.6258   12.3688 H   0  0  0  0  0  0  0  0  0  0  0  0
   43.3814    9.5963    9.8335 H   0  0  0  0  0  0  0  0  0  0  0  0
   42.3598   10.2439   11.1850 H   0  0  0  0  0  0  0  0  0  0  0  0
   43.1995   11.3393   10.0577 H   0  0  0  0  0  0  0  0  0  0  0  0
  4 14  1  0
  5 20  1  0
  6  7  1  0
  6 17  1  0
  6 23  1  0
  7  8  1  0
  7 13  1  0
  8  9  1  0
  8 12  2  0
  9 10  1  0
  9 15  2  0
 10 11  2  0
 10 14  1  0
 11 13  1  0
 11 19  1  0
 12 16  1  0
 12 18  1  0
 14 20  2  0
 15 21  1  0
 16 17  1  0
 18 21  2  0
 19 22  2  0
 20 22  1  0
 24 34  1  0
 25 40  1  0
 26 27  1  0
 26 37  1  0
 26 43  1  0
 27 28  1  0
 27 33  1  0
 28 29  1  0
 28 32  2  0
 29 30  1  0
 29 35  2  0
 30 31  2  0
 30 34  1  0
 31 33  1  0
 31 39  1  0
 32 36  1  0
 32 38  1  0
 34 40  2  0
 35 41  1  0
 36 37  1  0
 38 41  2  0
 39 42  2  0
 40 42  1  0
  1 44  1  0
  1 45  1  0
  2 46  1  0
  3 47  1  0
  4 48  1  0
  5 49  1  0
  7 50  1  6
 13 51  1  0
 13 52  1  0
 15 53  1  0
 16 54  1  0
 16 55  1  0
 17 56  1  0
 17 57  1  0
 18 58  1  0
 19 59  1  0
 21 60  1  0
 22 61  1  0
 23 62  1  0
 23 63  1  0
 23 64  1  0
 24 65  1  0
 25 66  1  0
 27 67  1  6
 33 68  1  0
 33 69  1  0
 35 70  1  0
 36 71  1  0
 36 72  1  0
 37 73  1  0
 37 74  1  0
 38 75  1  0
 39 76  1  0
 41 77  1  0
 42 78  1  0
 43 79  1  0
 43 80  1  0
 43 81  1  0
M  END
> <Uni-Dock RESULT> 
ENERGY=   -7.113  LOWER_BOUND=    3.266  UPPER_BOUND=    4.878
INTER + INTRA:          -7.113
INTER:                  -7.113
INTRA:                   0.000
UNBOUND:                 0.000

$$$$

     RDKit          3D

 81 84  0  0  0  0  0  0  0  0999 V2000
   48.0927    8.7863   19.5285 O   0  0  0  0  0  0  0  0  0  0  0  0
   47.9749    8.2044   20.0489 Cl  0  0  0  0  0  0  0  0  0  0  0  0
   47.9751    8.2047   20.0479 Cl  0  0  0  0  0  0  0  0  0  0  0  0
   47.4224    8.7805   23.2182 O   0  0  0  0  0  0  0  0  0  0  0  0
   47.1777    6.2866   24.2250 O   0  0  0  0  0  0  0  0  0  0  0  0
   48.1387    8.4211   16.8229 N   0  0  0  0  0  0  0  0  0  0  0  0
   48.6168    8.1628   18.1896 C   0  0  1  0  0  0  0  0  0  0  0  0
   48.3424    9.3492   19.0425 C   0  0  0  0  0  0  0  0  0  0  0  0
   48.0308    9.2380   20.3955 C   0  0  0  0  0  0  0  0  0  0  0  0
   47.8596    7.9151   20.9803 C   0  0  0  0  0  0  0  0  0  0  0  0
   47.9991    6.7889   20.1941 C   0  0  0  0  0  0  0  0  0  0  0  0
   48.4582   10.5725   18.4183 C   0  0  0  0  0  0  0  0  0  0  0  0
   48.2623    6.8543   18.7277 C   0  0  0  0  0  0  0  0  0  0  0  0
   47.5869    7.7470   22.3173 C   0  0  0  0  0  0  0  0  0  0  0  0
   47.8326   10.3729   21.1481 C   0  0  0  0  0  0  0  0  0  0  0  0
   48.7672   10.8046   17.0002 C   0  0  0  0  0  0  0  0  0  0  0  0
   48.9160    9.5061   16.2784 C   0  0  0  0  0  0  0  0  0  0  0  0
   48.2510   11.6903   19.2091 C   0  0  0  0  0  0  0  0  0  0  0  0
   47.8732    5.4993   20.7166 C   0  0  0  0  0  0  0  0  0  0  0  0
   47.4548    6.4624   22.8676 C   0  0  0  0  0  0  0  0  0  0  0  0
   47.9444   11.6363   20.5440 C   0  0  0  0  0  0  0  0  0  0  0  0
   47.6007    5.3623   22.0569 C   0  0  0  0  0  0  0  0  0  0  0  0
   48.4319    7.2495   16.0167 C   0  0  0  0  0  0  0  0  0  0  0  0
   46.5131    8.3069   22.8995 O   0  0  0  0  0  0  0  0  0  0  0  0
   47.1512    5.9164   23.9943 O   0  0  0  0  0  0  0  0  0  0  0  0
   48.5953    8.3405   16.9676 N   0  0  0  0  0  0  0  0  0  0  0  0
   49.0224    8.4853   18.3306 C   0  0  1  0  0  0  0  0  0  0  0  0
   48.1067    9.3753   19.0733 C   0  0  0  0  0  0  0  0  0  0  0  0
   47.5607    9.0893   20.3017 C   0  0  0  0  0  0  0  0  0  0  0  0
   47.8649    7.8152   20.9306 C   0  0  0  0  0  0  0  0  0  0  0  0
   48.6923    6.9283   20.2746 C   0  0  0  0  0  0  0  0  0  0  0  0
   47.8168   10.5941   18.4368 C   0  0  0  0  0  0  0  0  0  0  0  0
   49.2890    7.1825   18.9447 C   0  0  0  0  0  0  0  0  0  0  0  0
   47.3380    7.5118   22.1622 C   0  0  0  0  0  0  0  0  0  0  0  0
   46.7318   10.0204   20.8846 C   0  0  0  0  0  0  0  0  0  0  0  0
   48.4617   10.7818   17.1134 C   0  0  0  0  0  0  0  0  0  0  0  0
   48.1302    9.5263   16.3350 C   0  0  0  0  0  0  0  0  0  0  0  0
   46.9892   11.5054   19.0356 C   0  0  0  0  0  0  0  0  0  0  0  0
   49.0190    5.6899   20.8492 C   0  0  0  0  0  0  0  0  0  0  0  0
   47.6669    6.2733   22.7325 C   0  0  0  0  0  0  0  0  0  0  0  0
   46.4317   11.2448   20.2617 C   0  0  0  0  0  0  0  0  0  0  0  0
   48.4905    5.3875   22.0828 C   0  0  0  0  0  0  0  0  0  0  0  0
   49.4659    7.5394   16.1692 C   0  0  0  0  0  0  0  0  0  0  0  0
   48.3449    8.5019   18.6173 H   0  0  0  0  0  0  0  0  0  0  0  0
   47.9672    7.9855   20.1066 H   0  0  0  0  0  0  0  0  0  0  0  0
   48.2950    8.6448   18.7861 H   0  0  0  0  0  0  0  0  0  0  0  0
   48.2948    8.6445   18.7871 H   0  0  0  0  0  0  0  0  0  0  0  0
   46.8107    8.7679   24.0029 H   0  0  0  0  0  0  0  0  0  0  0  0
   46.2344    6.4964   24.5402 H   0  0  0  0  0  0  0  0  0  0  0  0
   49.7470    8.1791   18.0646 H   0  0  0  0  0  0  0  0  0  0  0  0
   47.3605    6.4711   18.1938 H   0  0  0  0  0  0  0  0  0  0  0  0
   49.0494    6.0629   18.5378 H   0  0  0  0  0  0  0  0  0  0  0  0
   47.5930   10.3932   22.1750 H   0  0  0  0  0  0  0  0  0  0  0  0
   47.9043   11.3343   16.4814 H   0  0  0  0  0  0  0  0  0  0  0  0
   49.6837   11.4202   16.8581 H   0  0  0  0  0  0  0  0  0  0  0  0
   48.5674    9.5961   15.2062 H   0  0  0  0  0  0  0  0  0  0  0  0
   50.0003    9.2468   16.2747 H   0  0  0  0  0  0  0  0  0  0  0  0
   48.3292   12.6873   18.7726 H   0  0  0  0  0  0  0  0  0  0  0  0
   47.9848    4.6177   20.0932 H   0  0  0  0  0  0  0  0  0  0  0  0
   47.7935   12.5426   21.1138 H   0  0  0  0  0  0  0  0  0  0  0  0
   47.4908    4.3939   22.5242 H   0  0  0  0  0  0  0  0  0  0  0  0
   49.4133    6.8099   16.1911 H   0  0  0  0  0  0  0  0  0  0  0  0
   47.6725    6.4508   16.1220 H   0  0  0  0  0  0  0  0  0  0  0  0
   48.3912    7.5401   14.9268 H   0  0  0  0  0  0  0  0  0  0  0  0
   46.7341    8.5992   23.8268 H   0  0  0  0  0  0  0  0  0  0  0  0
   46.1221    5.9636   24.0435 H   0  0  0  0  0  0  0  0  0  0  0  0
   49.9922    9.0691   18.2726 H   0  0  0  0  0  0  0  0  0  0  0  0
   48.9732    6.3138   18.2964 H   0  0  0  0  0  0  0  0  0  0  0  0
   50.3958    7.0022   19.0795 H   0  0  0  0  0  0  0  0  0  0  0  0
   46.2564    9.8958   21.8368 H   0  0  0  0  0  0  0  0  0  0  0  0
   49.5558   10.9355   17.1919 H   0  0  0  0  0  0  0  0  0  0  0  0
   48.0431   11.6188   16.5311 H   0  0  0  0  0  0  0  0  0  0  0  0
   48.5361    9.5564   15.3054 H   0  0  0  0  0  0  0  0  0  0  0  0
   47.0091    9.4757   16.3320 H   0  0  0  0  0  0  0  0  0  0  0  0
   46.7719   12.4342   18.5443 H   0  0  0  0  0  0  0  0  0  0  0  0
   49.6673    4.9905   20.3397 H   0  0  0  0  0  0  0  0  0  0  0  0
   45.7834   11.9712   20.7195 H   0  0  0  0  0  0  0  0  0  0  0  0
   48.7064    4.4598   22.5650 H   0  0  0  0  0  0  0  0  0  0  0  0
   50.3468    7.1581   16.7251 H   0  0  0  0  0  0  0  0  0  0  0  0
   48.8824    6.6777   15.7689 H   0  0  0  0  0  0  0  0  0  0  0  0
   49.8796    8.0742   15.2884 H   0  0  0  0  0  0  0  0  0  0  0  0
  4 14  1  0
  5 20  1  0
  6  7  1  0
  6 17  1  0
  6 23  1  0
  7  8  1  0
  7 13  1  0
  8  9  1  0
  8 12  2  0
  9 10  1  0
  9 15  2  0
 10 11  2  0
 10 14  1  0
 11 13  1  0
 11 19  1  0
 12 16  1  0
 12 18  1  0
 14 20  2  0
 15 21  1  0
 16 17  1  0
 18 21  2  0
 19 22  2  0
 20 22  1  0
 24 34  1  0
 25 40  1  0
 26 27  1  0
 26 37  1  0
 26 43  1  0
 27 28  1  0
 27 33  1  0
 28 29  1  0
 28 32  2  0
 29 30  1  0
 29 35  2  0
 30 31  2  0
 30 34  1  0
 31 33  1  0
 31 39  1  0
 32 36  1  0
 32 38  1  0
 34 40  2  0
 35 41  1  0
 36 37  1  0
 38 41  2  0
 39 42  2  0
 40 42  1  0
  1 44  1  0
  1 45  1  0
  2 46  1  0
  3 47  1  0
  4 48  1  0
  5 49  1  0
  7 50  1  6
 13 51  1  0
 13 52  1  0
 15 53  1  0
 16 54  1  0
 16 55  1  0
 17 56  1  0
 17 57  1  0
 18 58  1  0
 19 59  1  0
 21 60  1  0
 22 61  1  0
 23 62  1  0
 23 63  1  0
 23 64  1  0
 24 65  1  0
 25 66  1  0
 27 67  1  6
 33 68  1  0
 33 69  1  0
 35 70  1  0
 36 71  1  0
 36 72  1  0
 37 73  1  0
 37 74  1  0
 38 75  1  0
 39 76  1  0
 41 77  1  0
 42 78  1  0
 43 79  1  0
 43 80  1  0
 43 81  1  0
M  END
> <Uni-Dock RESULT> 
ENERGY=   -6.992  LOWER_BOUND=    4.400  UPPER_BOUND=    5.850
INTER + INTRA:          -6.992
INTER:                  -6.992
INTRA:                   0.000
UNBOUND:                 0.000

$$$$
