
     RDKit          3D

 81 84  0  0  0  0  0  0  0  0999 V2000
   45.8468    7.2638   12.3353 O   0  0  0  0  0  0  0  0  0  0  0  0
   45.5824    7.9802   12.1685 Cl  0  0  0  0  0  0  0  0  0  0  0  0
   45.5821    7.9778   12.1687 Cl  0  0  0  0  0  0  0  0  0  0  0  0
   46.0792    3.5905   12.9997 O   0  0  0  0  0  0  0  0  0  0  0  0
   43.7317    2.3111   12.5688 O   0  0  0  0  0  0  0  0  0  0  0  0
   45.0030    9.8022   12.4383 N   0  0  0  0  0  0  0  0  0  0  0  0
   45.2348    8.5819   11.6833 C   0  0  1  0  0  0  0  0  0  0  0  0
   46.3309    7.7855   12.1988 C   0  0  0  0  0  0  0  0  0  0  0  0
   46.3536    6.4504   12.4916 C   0  0  0  0  0  0  0  0  0  0  0  0
   45.1079    5.7173   12.2964 C   0  0  0  0  0  0  0  0  0  0  0  0
   44.0370    6.4337   11.8433 C   0  0  0  0  0  0  0  0  0  0  0  0
   47.5357    8.4738   12.4080 C   0  0  0  0  0  0  0  0  0  0  0  0
   43.9531    7.8636   11.5575 C   0  0  0  0  0  0  0  0  0  0  0  0
   45.0354    4.3678   12.5421 C   0  0  0  0  0  0  0  0  0  0  0  0
   47.4901    5.8342   12.9592 C   0  0  0  0  0  0  0  0  0  0  0  0
   47.4541    9.9430   12.0710 C   0  0  0  0  0  0  0  0  0  0  0  0
   46.2190   10.4190   12.8017 C   0  0  0  0  0  0  0  0  0  0  0  0
   48.6722    7.8812   12.8707 C   0  0  0  0  0  0  0  0  0  0  0  0
   42.8523    5.7058   11.6416 C   0  0  0  0  0  0  0  0  0  0  0  0
   43.8379    3.6709   12.3310 C   0  0  0  0  0  0  0  0  0  0  0  0
   48.6880    6.5431   13.1614 C   0  0  0  0  0  0  0  0  0  0  0  0
   42.7490    4.3649   11.8763 C   0  0  0  0  0  0  0  0  0  0  0  0
   44.0711   10.6616   11.7472 C   0  0  0  0  0  0  0  0  0  0  0  0
   47.0907   10.7657   12.3749 O   0  0  0  0  0  0  0  0  0  0  0  0
   45.5567   12.4213   10.8869 O   0  0  0  0  0  0  0  0  0  0  0  0
   45.0069    4.9119   11.6678 N   0  0  0  0  0  0  0  0  0  0  0  0
   44.6502    6.1361   12.3295 C   0  0  1  0  0  0  0  0  0  0  0  0
   45.8667    6.7030   12.9074 C   0  0  0  0  0  0  0  0  0  0  0  0
   46.3404    7.9802   12.7956 C   0  0  0  0  0  0  0  0  0  0  0  0
   45.5484    8.9094   12.0032 C   0  0  0  0  0  0  0  0  0  0  0  0
   44.4024    8.4200   11.4429 C   0  0  0  0  0  0  0  0  0  0  0  0
   46.6357    5.8238   13.6700 C   0  0  0  0  0  0  0  0  0  0  0  0
   43.8631    7.0680   11.5371 C   0  0  0  0  0  0  0  0  0  0  0  0
   45.9471   10.2111   11.8369 C   0  0  0  0  0  0  0  0  0  0  0  0
   47.5128    8.3613   13.4078 C   0  0  0  0  0  0  0  0  0  0  0  0
   46.0692    4.4303   13.7581 C   0  0  0  0  0  0  0  0  0  0  0  0
   45.8409    4.0043   12.3294 C   0  0  0  0  0  0  0  0  0  0  0  0
   47.8037    6.1818   14.2869 C   0  0  0  0  0  0  0  0  0  0  0  0
   43.6544    9.3233   10.6865 C   0  0  0  0  0  0  0  0  0  0  0  0
   45.1757   11.0989   11.0709 C   0  0  0  0  0  0  0  0  0  0  0  0
   48.2762    7.4631   14.1730 C   0  0  0  0  0  0  0  0  0  0  0  0
   44.0207   10.6318   10.4977 C   0  0  0  0  0  0  0  0  0  0  0  0
   44.0148    4.3760   10.8043 C   0  0  0  0  0  0  0  0  0  0  0  0
   45.4234    8.1311   12.0997 H   0  0  0  0  0  0  0  0  0  0  0  0
   45.2127    6.5096   12.2132 H   0  0  0  0  0  0  0  0  0  0  0  0
   45.4062    6.6227   12.2636 H   0  0  0  0  0  0  0  0  0  0  0  0
   45.4065    6.6251   12.2635 H   0  0  0  0  0  0  0  0  0  0  0  0
   46.2658    2.7378   12.4752 H   0  0  0  0  0  0  0  0  0  0  0  0
   44.2204    1.6481   11.9922 H   0  0  0  0  0  0  0  0  0  0  0  0
   45.5160    8.9631   10.6348 H   0  0  0  0  0  0  0  0  0  0  0  0
   43.4525    8.0545   10.5571 H   0  0  0  0  0  0  0  0  0  0  0  0
   43.2512    8.2748   12.3642 H   0  0  0  0  0  0  0  0  0  0  0  0
   47.5683    4.7924   13.2062 H   0  0  0  0  0  0  0  0  0  0  0  0
   48.3153   10.5003   12.4355 H   0  0  0  0  0  0  0  0  0  0  0  0
   47.3571   10.0129   10.9764 H   0  0  0  0  0  0  0  0  0  0  0  0
   46.1660   11.5292   12.8457 H   0  0  0  0  0  0  0  0  0  0  0  0
   46.4093   10.1258   13.8789 H   0  0  0  0  0  0  0  0  0  0  0  0
   49.5744    8.4563   13.0143 H   0  0  0  0  0  0  0  0  0  0  0  0
   41.9467    6.2064   11.2787 H   0  0  0  0  0  0  0  0  0  0  0  0
   49.5794    6.0548   13.5293 H   0  0  0  0  0  0  0  0  0  0  0  0
   41.8341    3.8262   11.7160 H   0  0  0  0  0  0  0  0  0  0  0  0
   43.5613   11.3644   12.4158 H   0  0  0  0  0  0  0  0  0  0  0  0
   43.2963   10.0097   11.2925 H   0  0  0  0  0  0  0  0  0  0  0  0
   44.5387   11.1955   10.8939 H   0  0  0  0  0  0  0  0  0  0  0  0
   47.1282   11.5762   12.9773 H   0  0  0  0  0  0  0  0  0  0  0  0
   45.3099   13.1333   11.5785 H   0  0  0  0  0  0  0  0  0  0  0  0
   43.9750    5.8181   13.2072 H   0  0  0  0  0  0  0  0  0  0  0  0
   42.7618    7.0789   11.7942 H   0  0  0  0  0  0  0  0  0  0  0  0
   43.8551    6.6565   10.4632 H   0  0  0  0  0  0  0  0  0  0  0  0
   47.9371    9.3450   13.3589 H   0  0  0  0  0  0  0  0  0  0  0  0
   45.0934    4.5022   14.2714 H   0  0  0  0  0  0  0  0  0  0  0  0
   46.7705    3.7613   14.2948 H   0  0  0  0  0  0  0  0  0  0  0  0
   46.8719    3.9903   11.8653 H   0  0  0  0  0  0  0  0  0  0  0  0
   45.4285    2.9746   12.2633 H   0  0  0  0  0  0  0  0  0  0  0  0
   48.3685    5.4693   14.8684 H   0  0  0  0  0  0  0  0  0  0  0  0
   42.7313    9.0079   10.2100 H   0  0  0  0  0  0  0  0  0  0  0  0
   49.1970    7.7675   14.6522 H   0  0  0  0  0  0  0  0  0  0  0  0
   43.4395   11.3296    9.9115 H   0  0  0  0  0  0  0  0  0  0  0  0
   43.9816    4.7376    9.7810 H   0  0  0  0  0  0  0  0  0  0  0  0
   44.1598    3.2584   10.7764 H   0  0  0  0  0  0  0  0  0  0  0  0
   43.0031    4.5260   11.2540 H   0  0  0  0  0  0  0  0  0  0  0  0
  4 14  1  0
  5 20  1  0
  6  7  1  0
  6 17  1  0
  6 23  1  0
  7  8  1  0
  7 13  1  0
  8  9  1  0
  8 12  2  0
  9 10  1  0
  9 15  2  0
 10 11  2  0
 10 14  1  0
 11 13  1  0
 11 19  1  0
 12 16  1  0
 12 18  1  0
 14 20  2  0
 15 21  1  0
 16 17  1  0
 18 21  2  0
 19 22  2  0
 20 22  1  0
 24 34  1  0
 25 40  1  0
 26 27  1  0
 26 37  1  0
 26 43  1  0
 27 28  1  0
 27 33  1  0
 28 29  1  0
 28 32  2  0
 29 30  1  0
 29 35  2  0
 30 31  2  0
 30 34  1  0
 31 33  1  0
 31 39  1  0
 32 36  1  0
 32 38  1  0
 34 40  2  0
 35 41  1  0
 36 37  1  0
 38 41  2  0
 39 42  2  0
 40 42  1  0
  1 44  1  0
  1 45  1  0
  2 46  1  0
  3 47  1  0
  4 48  1  0
  5 49  1  0
  7 50  1  1
 13 51  1  0
 13 52  1  0
 15 53  1  0
 16 54  1  0
 16 55  1  0
 17 56  1  0
 17 57  1  0
 18 58  1  0
 19 59  1  0
 21 60  1  0
 22 61  1  0
 23 62  1  0
 23 63  1  0
 23 64  1  0
 24 65  1  0
 25 66  1  0
 27 67  1  6
 33 68  1  0
 33 69  1  0
 35 70  1  0
 36 71  1  0
 36 72  1  0
 37 73  1  0
 37 74  1  0
 38 75  1  0
 39 76  1  0
 41 77  1  0
 42 78  1  0
 43 79  1  0
 43 80  1  0
 43 81  1  0
M  END
> <Uni-Dock RESULT> 
ENERGY=   -7.770  LOWER_BOUND=    0.000  UPPER_BOUND=    0.000
INTER + INTRA:          -7.770
INTER:                  -7.770
INTRA:                   0.000
UNBOUND:                 0.000

$$$$

     RDKit          3D

 81 84  0  0  0  0  0  0  0  0999 V2000
   45.8177    7.3397   12.4493 O   0  0  0  0  0  0  0  0  0  0  0  0
   45.4088    6.6912   12.2964 Cl  0  0  0  0  0  0  0  0  0  0  0  0
   45.4092    6.6936   12.2962 Cl  0  0  0  0  0  0  0  0  0  0  0  0
   47.0941   10.8551   12.4659 O   0  0  0  0  0  0  0  0  0  0  0  0
   45.5697   12.5158   10.9653 O   0  0  0  0  0  0  0  0  0  0  0  0
   44.9691    4.9633   11.5553 N   0  0  0  0  0  0  0  0  0  0  0  0
   44.7197    6.1982   12.2806 C   0  0  1  0  0  0  0  0  0  0  0  0
   45.9119    6.7645   12.8800 C   0  0  0  0  0  0  0  0  0  0  0  0
   46.3793    8.0470   12.8060 C   0  0  0  0  0  0  0  0  0  0  0  0
   45.6057    8.9784   11.9927 C   0  0  0  0  0  0  0  0  0  0  0  0
   44.4909    8.4811   11.3801 C   0  0  0  0  0  0  0  0  0  0  0  0
   46.6796    5.8821   13.6554 C   0  0  0  0  0  0  0  0  0  0  0  0
   43.9767    7.1140   11.3955 C   0  0  0  0  0  0  0  0  0  0  0  0
   45.9816   10.2942   11.8735 C   0  0  0  0  0  0  0  0  0  0  0  0
   47.5278    8.4343   13.4547 C   0  0  0  0  0  0  0  0  0  0  0  0
   46.1199    4.4809   13.7014 C   0  0  0  0  0  0  0  0  0  0  0  0
   45.8764    4.1352   12.2498 C   0  0  0  0  0  0  0  0  0  0  0  0
   47.8203    6.2466   14.3057 C   0  0  0  0  0  0  0  0  0  0  0  0
   43.7478    9.3985   10.6185 C   0  0  0  0  0  0  0  0  0  0  0  0
   45.2183   11.1841   11.1055 C   0  0  0  0  0  0  0  0  0  0  0  0
   48.2824    7.5334   14.2276 C   0  0  0  0  0  0  0  0  0  0  0  0
   44.0953   10.7116   10.4813 C   0  0  0  0  0  0  0  0  0  0  0  0
   43.7265    4.3260   11.1888 C   0  0  0  0  0  0  0  0  0  0  0  0
   46.0035    3.6994   13.1750 O   0  0  0  0  0  0  0  0  0  0  0  0
   43.6427    2.4459   12.7705 O   0  0  0  0  0  0  0  0  0  0  0  0
   45.1873    9.8447   12.3512 N   0  0  0  0  0  0  0  0  0  0  0  0
   45.2882    8.6340   11.5845 C   0  0  1  0  0  0  0  0  0  0  0  0
   46.3726    7.8349   12.1512 C   0  0  0  0  0  0  0  0  0  0  0  0
   46.3533    6.5159   12.5090 C   0  0  0  0  0  0  0  0  0  0  0  0
   45.1029    5.7979   12.3100 C   0  0  0  0  0  0  0  0  0  0  0  0
   44.0615    6.5082   11.7831 C   0  0  0  0  0  0  0  0  0  0  0  0
   47.5774    8.5102   12.3469 C   0  0  0  0  0  0  0  0  0  0  0  0
   44.0404    7.9125   11.3893 C   0  0  0  0  0  0  0  0  0  0  0  0
   44.9920    4.4714   12.6406 C   0  0  0  0  0  0  0  0  0  0  0  0
   47.4693    5.9033   13.0320 C   0  0  0  0  0  0  0  0  0  0  0  0
   47.5423    9.9601   11.9382 C   0  0  0  0  0  0  0  0  0  0  0  0
   46.3565   10.5472   12.6620 C   0  0  0  0  0  0  0  0  0  0  0  0
   48.6984    7.9205   12.8651 C   0  0  0  0  0  0  0  0  0  0  0  0
   42.8701    5.8054   11.5984 C   0  0  0  0  0  0  0  0  0  0  0  0
   43.7816    3.7884   12.4444 C   0  0  0  0  0  0  0  0  0  0  0  0
   48.6760    6.5979   13.2230 C   0  0  0  0  0  0  0  0  0  0  0  0
   42.7210    4.4793   11.9168 C   0  0  0  0  0  0  0  0  0  0  0  0
   44.0076   10.6052   12.1343 C   0  0  0  0  0  0  0  0  0  0  0  0
   45.2346    6.5737   12.2035 H   0  0  0  0  0  0  0  0  0  0  0  0
   45.4700    8.1906   12.0743 H   0  0  0  0  0  0  0  0  0  0  0  0
   45.6061    8.0449   12.1883 H   0  0  0  0  0  0  0  0  0  0  0  0
   45.6057    8.0425   12.1885 H   0  0  0  0  0  0  0  0  0  0  0  0
   46.9369   11.7139   12.9902 H   0  0  0  0  0  0  0  0  0  0  0  0
   45.5201   13.1462   11.7470 H   0  0  0  0  0  0  0  0  0  0  0  0
   44.0008    5.8773   13.1196 H   0  0  0  0  0  0  0  0  0  0  0  0
   42.8609    7.0965   11.6019 H   0  0  0  0  0  0  0  0  0  0  0  0
   44.1218    6.7429   10.3214 H   0  0  0  0  0  0  0  0  0  0  0  0
   47.9431    9.4240   13.4332 H   0  0  0  0  0  0  0  0  0  0  0  0
   46.8264    3.7659   14.1196 H   0  0  0  0  0  0  0  0  0  0  0  0
   45.1914    4.5288   14.2913 H   0  0  0  0  0  0  0  0  0  0  0  0
   45.6930    3.0473   12.1083 H   0  0  0  0  0  0  0  0  0  0  0  0
   46.8844    4.2941   11.7586 H   0  0  0  0  0  0  0  0  0  0  0  0
   48.3749    5.5284   14.8903 H   0  0  0  0  0  0  0  0  0  0  0  0
   42.8386    9.0796   10.0950 H   0  0  0  0  0  0  0  0  0  0  0  0
   49.1849    7.8419   14.7361 H   0  0  0  0  0  0  0  0  0  0  0  0
   43.5139   11.3976    9.8943 H   0  0  0  0  0  0  0  0  0  0  0  0
   43.8290    3.6511   10.3315 H   0  0  0  0  0  0  0  0  0  0  0  0
   43.0166    5.1291   10.9001 H   0  0  0  0  0  0  0  0  0  0  0  0
   43.2463    3.8081   12.0449 H   0  0  0  0  0  0  0  0  0  0  0  0
   46.3626    2.8404   12.7822 H   0  0  0  0  0  0  0  0  0  0  0  0
   43.9186    1.7194   12.1057 H   0  0  0  0  0  0  0  0  0  0  0  0
   45.6275    8.9693   10.5357 H   0  0  0  0  0  0  0  0  0  0  0  0
   43.5831    8.0477   10.3638 H   0  0  0  0  0  0  0  0  0  0  0  0
   43.2620    8.4184   12.0681 H   0  0  0  0  0  0  0  0  0  0  0  0
   47.5191    4.8748   13.3316 H   0  0  0  0  0  0  0  0  0  0  0  0
   47.3507    9.9922   10.8504 H   0  0  0  0  0  0  0  0  0  0  0  0
   48.4942   10.4600   12.2053 H   0  0  0  0  0  0  0  0  0  0  0  0
   46.6099   10.4451   13.7591 H   0  0  0  0  0  0  0  0  0  0  0  0
   46.2312   11.6299   12.4453 H   0  0  0  0  0  0  0  0  0  0  0  0
   49.6113    8.4802   13.0002 H   0  0  0  0  0  0  0  0  0  0  0  0
   41.9981    6.3023   11.1842 H   0  0  0  0  0  0  0  0  0  0  0  0
   49.5505    6.1118   13.6345 H   0  0  0  0  0  0  0  0  0  0  0  0
   41.7970    3.9371   11.7727 H   0  0  0  0  0  0  0  0  0  0  0  0
   43.1242   10.3498   12.7116 H   0  0  0  0  0  0  0  0  0  0  0  0
   44.2598   11.6847   12.3388 H   0  0  0  0  0  0  0  0  0  0  0  0
   43.7316   10.5719   11.0522 H   0  0  0  0  0  0  0  0  0  0  0  0
  4 14  1  0
  5 20  1  0
  6  7  1  0
  6 17  1  0
  6 23  1  0
  7  8  1  0
  7 13  1  0
  8  9  1  0
  8 12  2  0
  9 10  1  0
  9 15  2  0
 10 11  2  0
 10 14  1  0
 11 13  1  0
 11 19  1  0
 12 16  1  0
 12 18  1  0
 14 20  2  0
 15 21  1  0
 16 17  1  0
 18 21  2  0
 19 22  2  0
 20 22  1  0
 24 34  1  0
 25 40  1  0
 26 27  1  0
 26 37  1  0
 26 43  1  0
 27 28  1  0
 27 33  1  0
 28 29  1  0
 28 32  2  0
 29 30  1  0
 29 35  2  0
 30 31  2  0
 30 34  1  0
 31 33  1  0
 31 39  1  0
 32 36  1  0
 32 38  1  0
 34 40  2  0
 35 41  1  0
 36 37  1  0
 38 41  2  0
 39 42  2  0
 40 42  1  0
  1 44  1  0
  1 45  1  0
  2 46  1  0
  3 47  1  0
  4 48  1  0
  5 49  1  0
  7 50  1  1
 13 51  1  0
 13 52  1  0
 15 53  1  0
 16 54  1  0
 16 55  1  0
 17 56  1  0
 17 57  1  0
 18 58  1  0
 19 59  1  0
 21 60  1  0
 22 61  1  0
 23 62  1  0
 23 63  1  0
 23 64  1  0
 24 65  1  0
 25 66  1  0
 27 67  1  6
 33 68  1  0
 33 69  1  0
 35 70  1  0
 36 71  1  0
 36 72  1  0
 37 73  1  0
 37 74  1  0
 38 75  1  0
 39 76  1  0
 41 77  1  0
 42 78  1  0
 43 79  1  0
 43 80  1  0
 43 81  1  0
M  END
> <Uni-Dock RESULT> 
ENERGY=   -7.452  LOWER_BOUND=    0.323  UPPER_BOUND=    4.854
INTER + INTRA:          -7.452
INTER:                  -7.452
INTRA:                   0.000
UNBOUND:                 0.000

$$$$

     RDKit          3D

 81 84  0  0  0  0  0  0  0  0999 V2000
   48.0617    6.1589   14.9812 O   0  0  0  0  0  0  0  0  0  0  0  0
   48.2138    5.6667   15.5691 Cl  0  0  0  0  0  0  0  0  0  0  0  0
   48.2127    5.6673   15.5670 Cl  0  0  0  0  0  0  0  0  0  0  0  0
   46.8458    7.6482   11.7731 O   0  0  0  0  0  0  0  0  0  0  0  0
   45.2721    5.9457   10.3737 O   0  0  0  0  0  0  0  0  0  0  0  0
   49.2010    4.4581   16.7062 N   0  0  0  0  0  0  0  0  0  0  0  0
   48.0235    5.1580   16.2196 C   0  0  1  0  0  0  0  0  0  0  0  0
   48.3269    6.4319   15.5980 C   0  0  0  0  0  0  0  0  0  0  0  0
   47.9124    6.9124   14.3872 C   0  0  0  0  0  0  0  0  0  0  0  0
   47.0783    6.0263   13.5833 C   0  0  0  0  0  0  0  0  0  0  0  0
   46.7932    4.8005   14.1140 C   0  0  0  0  0  0  0  0  0  0  0  0
   49.1403    7.2951   16.3478 C   0  0  0  0  0  0  0  0  0  0  0  0
   47.2456    4.2286   15.3796 C   0  0  0  0  0  0  0  0  0  0  0  0
   46.5939    6.4262   12.3617 C   0  0  0  0  0  0  0  0  0  0  0  0
   48.2755    8.1626   13.9451 C   0  0  0  0  0  0  0  0  0  0  0  0
   49.5702    6.7144   17.6733 C   0  0  0  0  0  0  0  0  0  0  0  0
   50.1099    5.3477   17.3175 C   0  0  0  0  0  0  0  0  0  0  0  0
   49.5111    8.5371   15.9272 C   0  0  0  0  0  0  0  0  0  0  0  0
   45.9713    3.9698   13.3341 C   0  0  0  0  0  0  0  0  0  0  0  0
   45.7764    5.5730   11.6080 C   0  0  0  0  0  0  0  0  0  0  0  0
   49.0918    9.0123   14.7133 C   0  0  0  0  0  0  0  0  0  0  0  0
   45.4745    4.3387   12.1171 C   0  0  0  0  0  0  0  0  0  0  0  0
   48.8233    3.3257   17.5183 C   0  0  0  0  0  0  0  0  0  0  0  0
   50.1423    6.0625   18.0593 O   0  0  0  0  0  0  0  0  0  0  0  0
   49.3490    4.1340   19.7797 O   0  0  0  0  0  0  0  0  0  0  0  0
   46.1301    6.2597   13.2663 N   0  0  0  0  0  0  0  0  0  0  0  0
   47.2010    5.4479   13.7741 C   0  0  1  0  0  0  0  0  0  0  0  0
   48.2638    6.3424   14.2278 C   0  0  0  0  0  0  0  0  0  0  0  0
   48.9225    6.3338   15.4254 C   0  0  0  0  0  0  0  0  0  0  0  0
   48.5298    5.3129   16.3857 C   0  0  0  0  0  0  0  0  0  0  0  0
   47.5376    4.4554   16.0024 C   0  0  0  0  0  0  0  0  0  0  0  0
   48.6508    7.3257   13.3173 C   0  0  0  0  0  0  0  0  0  0  0  0
   46.8108    4.4307   14.7379 C   0  0  0  0  0  0  0  0  0  0  0  0
   49.1369    5.2291   17.6127 C   0  0  0  0  0  0  0  0  0  0  0  0
   49.9105    7.2515   15.7015 C   0  0  0  0  0  0  0  0  0  0  0  0
   47.8917    7.2910   12.0161 C   0  0  0  0  0  0  0  0  0  0  0  0
   46.4351    7.3201   12.4063 C   0  0  0  0  0  0  0  0  0  0  0  0
   49.6302    8.2472   13.5714 C   0  0  0  0  0  0  0  0  0  0  0  0
   47.1729    3.4826   16.9341 C   0  0  0  0  0  0  0  0  0  0  0  0
   48.7506    4.2407   18.5313 C   0  0  0  0  0  0  0  0  0  0  0  0
   50.2889    8.2362   14.7730 C   0  0  0  0  0  0  0  0  0  0  0  0
   47.7567    3.3675   18.1703 C   0  0  0  0  0  0  0  0  0  0  0  0
   44.9005    5.5811   13.0544 C   0  0  0  0  0  0  0  0  0  0  0  0
   48.1923    5.4689   15.6839 H   0  0  0  0  0  0  0  0  0  0  0  0
   47.4288    5.8457   14.2834 H   0  0  0  0  0  0  0  0  0  0  0  0
   47.5746    5.9823   14.3966 H   0  0  0  0  0  0  0  0  0  0  0  0
   47.5758    5.9818   14.3986 H   0  0  0  0  0  0  0  0  0  0  0  0
   46.0316    8.1600   11.4380 H   0  0  0  0  0  0  0  0  0  0  0  0
   44.5834    6.6743   10.2978 H   0  0  0  0  0  0  0  0  0  0  0  0
   47.4102    5.3492   17.1740 H   0  0  0  0  0  0  0  0  0  0  0  0
   46.3847    3.7565   15.9488 H   0  0  0  0  0  0  0  0  0  0  0  0
   47.9478    3.3771   15.0727 H   0  0  0  0  0  0  0  0  0  0  0  0
   47.9824    8.5926   13.0062 H   0  0  0  0  0  0  0  0  0  0  0  0
   50.3630    7.2946   18.1425 H   0  0  0  0  0  0  0  0  0  0  0  0
   48.6704    6.6676   18.3064 H   0  0  0  0  0  0  0  0  0  0  0  0
   50.6853    4.8983   18.1567 H   0  0  0  0  0  0  0  0  0  0  0  0
   50.9072    5.5625   16.5425 H   0  0  0  0  0  0  0  0  0  0  0  0
   50.1391    9.1629   16.5430 H   0  0  0  0  0  0  0  0  0  0  0  0
   45.6948    2.9697   13.6885 H   0  0  0  0  0  0  0  0  0  0  0  0
   49.3750    9.9946   14.3621 H   0  0  0  0  0  0  0  0  0  0  0  0
   44.8476    3.6889   11.5358 H   0  0  0  0  0  0  0  0  0  0  0  0
   49.6031    2.5574   17.5693 H   0  0  0  0  0  0  0  0  0  0  0  0
   47.9298    2.8654   17.0472 H   0  0  0  0  0  0  0  0  0  0  0  0
   48.4942    3.6236   18.5355 H   0  0  0  0  0  0  0  0  0  0  0  0
   51.0556    5.7698   18.3777 H   0  0  0  0  0  0  0  0  0  0  0  0
   50.2173    3.6061   19.8953 H   0  0  0  0  0  0  0  0  0  0  0  0
   47.6065    4.8777   12.8587 H   0  0  0  0  0  0  0  0  0  0  0  0
   46.7584    3.3847   14.3113 H   0  0  0  0  0  0  0  0  0  0  0  0
   45.7109    4.6377   15.0026 H   0  0  0  0  0  0  0  0  0  0  0  0
   50.4635    7.2979   16.6192 H   0  0  0  0  0  0  0  0  0  0  0  0
   48.1137    6.3239   11.5298 H   0  0  0  0  0  0  0  0  0  0  0  0
   48.1787    8.1501   11.3782 H   0  0  0  0  0  0  0  0  0  0  0  0
   46.2964    8.3147   12.9259 H   0  0  0  0  0  0  0  0  0  0  0  0
   45.7664    7.3084   11.5189 H   0  0  0  0  0  0  0  0  0  0  0  0
   49.8991    8.9920   12.8380 H   0  0  0  0  0  0  0  0  0  0  0  0
   46.3919    2.7652   16.7016 H   0  0  0  0  0  0  0  0  0  0  0  0
   51.0661    8.9552   14.9948 H   0  0  0  0  0  0  0  0  0  0  0  0
   47.4725    2.6130   18.8902 H   0  0  0  0  0  0  0  0  0  0  0  0
   44.2208    5.4848   13.8957 H   0  0  0  0  0  0  0  0  0  0  0  0
   44.3576    6.1178   12.2249 H   0  0  0  0  0  0  0  0  0  0  0  0
   45.0996    4.5566   12.6553 H   0  0  0  0  0  0  0  0  0  0  0  0
  4 14  1  0
  5 20  1  0
  6  7  1  0
  6 17  1  0
  6 23  1  0
  7  8  1  0
  7 13  1  0
  8  9  1  0
  8 12  2  0
  9 10  1  0
  9 15  2  0
 10 11  2  0
 10 14  1  0
 11 13  1  0
 11 19  1  0
 12 16  1  0
 12 18  1  0
 14 20  2  0
 15 21  1  0
 16 17  1  0
 18 21  2  0
 19 22  2  0
 20 22  1  0
 24 34  1  0
 25 40  1  0
 26 27  1  0
 26 37  1  0
 26 43  1  0
 27 28  1  0
 27 33  1  0
 28 29  1  0
 28 32  2  0
 29 30  1  0
 29 35  2  0
 30 31  2  0
 30 34  1  0
 31 33  1  0
 31 39  1  0
 32 36  1  0
 32 38  1  0
 34 40  2  0
 35 41  1  0
 36 37  1  0
 38 41  2  0
 39 42  2  0
 40 42  1  0
  1 44  1  0
  1 45  1  0
  2 46  1  0
  3 47  1  0
  4 48  1  0
  5 49  1  0
  7 50  1  1
 13 51  1  0
 13 52  1  0
 15 53  1  0
 16 54  1  0
 16 55  1  0
 17 56  1  0
 17 57  1  0
 18 58  1  0
 19 59  1  0
 21 60  1  0
 22 61  1  0
 23 62  1  0
 23 63  1  0
 23 64  1  0
 24 65  1  0
 25 66  1  0
 27 67  1  6
 33 68  1  0
 33 69  1  0
 35 70  1  0
 36 71  1  0
 36 72  1  0
 37 73  1  0
 37 74  1  0
 38 75  1  0
 39 76  1  0
 41 77  1  0
 42 78  1  0
 43 79  1  0
 43 80  1  0
 43 81  1  0
M  END
> <Uni-Dock RESULT> 
ENERGY=   -7.408  LOWER_BOUND=    3.064  UPPER_BOUND=    5.758
INTER + INTRA:          -7.408
INTER:                  -7.408
INTRA:                   0.000
UNBOUND:                 0.000

$$$$

     RDKit          3D

 81 84  0  0  0  0  0  0  0  0999 V2000
   52.0900    3.6061   18.1601 O   0  0  0  0  0  0  0  0  0  0  0  0
   52.5531    2.9812   18.0829 Cl  0  0  0  0  0  0  0  0  0  0  0  0
   52.5510    2.9823   18.0826 Cl  0  0  0  0  0  0  0  0  0  0  0  0
   49.2069    5.9805   17.9645 O   0  0  0  0  0  0  0  0  0  0  0  0
   47.0276    4.8675   16.8046 O   0  0  0  0  0  0  0  0  0  0  0  0
   53.9773    1.8563   17.4237 N   0  0  0  0  0  0  0  0  0  0  0  0
   52.7876    2.1747   18.1959 C   0  0  1  0  0  0  0  0  0  0  0  0
   52.6945    3.5751   18.5586 C   0  0  0  0  0  0  0  0  0  0  0  0
   51.6372    4.4285   18.4084 C   0  0  0  0  0  0  0  0  0  0  0  0
   50.4440    3.8846   17.7698 C   0  0  0  0  0  0  0  0  0  0  0  0
   50.4969    2.5767   17.3799 C   0  0  0  0  0  0  0  0  0  0  0  0
   53.8367    4.1235   19.1617 C   0  0  0  0  0  0  0  0  0  0  0  0
   51.6137    1.6408   17.4809 C   0  0  0  0  0  0  0  0  0  0  0  0
   49.3218    4.6568   17.5933 C   0  0  0  0  0  0  0  0  0  0  0  0
   51.7017    5.7367   18.8262 C   0  0  0  0  0  0  0  0  0  0  0  0
   54.9731    3.1395   19.3011 C   0  0  0  0  0  0  0  0  0  0  0  0
   55.1087    2.5375   17.9208 C   0  0  0  0  0  0  0  0  0  0  0  0
   53.9203    5.4169   19.5822 C   0  0  0  0  0  0  0  0  0  0  0  0
   49.3308    2.0654   16.7860 C   0  0  0  0  0  0  0  0  0  0  0  0
   48.1745    4.1163   16.9968 C   0  0  0  0  0  0  0  0  0  0  0  0
   52.8570    6.2662   19.4290 C   0  0  0  0  0  0  0  0  0  0  0  0
   48.2004    2.8072   16.5973 C   0  0  0  0  0  0  0  0  0  0  0  0
   54.1380    0.4269   17.2985 C   0  0  0  0  0  0  0  0  0  0  0  0
   55.6301    2.6726   18.7994 O   0  0  0  0  0  0  0  0  0  0  0  0
   55.9974   -0.0052   18.8474 O   0  0  0  0  0  0  0  0  0  0  0  0
   49.5176    3.8562   18.2113 N   0  0  0  0  0  0  0  0  0  0  0  0
   50.6323    3.4015   17.4274 C   0  0  1  0  0  0  0  0  0  0  0  0
   51.7854    4.2332   17.7652 C   0  0  0  0  0  0  0  0  0  0  0  0
   53.0465    3.8320   18.1066 C   0  0  0  0  0  0  0  0  0  0  0  0
   53.2932    2.3981   18.1465 C   0  0  0  0  0  0  0  0  0  0  0  0
   52.2408    1.5829   17.8386 C   0  0  0  0  0  0  0  0  0  0  0  0
   51.5636    5.6100   17.7305 C   0  0  0  0  0  0  0  0  0  0  0  0
   50.8833    1.9694   17.4704 C   0  0  0  0  0  0  0  0  0  0  0  0
   54.5290    1.9047   18.4789 C   0  0  0  0  0  0  0  0  0  0  0  0
   54.0314    4.7485   18.3973 C   0  0  0  0  0  0  0  0  0  0  0  0
   50.1575    5.9964   17.3510 C   0  0  0  0  0  0  0  0  0  0  0  0
   49.2670    5.2299   18.2967 C   0  0  0  0  0  0  0  0  0  0  0  0
   52.5283    6.5380   18.0157 C   0  0  0  0  0  0  0  0  0  0  0  0
   52.4937    0.2112   17.8812 C   0  0  0  0  0  0  0  0  0  0  0  0
   54.7561    0.5201   18.5142 C   0  0  0  0  0  0  0  0  0  0  0  0
   53.7918    6.1327   18.3578 C   0  0  0  0  0  0  0  0  0  0  0  0
   53.7156   -0.3194   18.2091 C   0  0  0  0  0  0  0  0  0  0  0  0
   48.3955    2.9859   18.2348 C   0  0  0  0  0  0  0  0  0  0  0  0
   52.5990    2.7638   18.0243 H   0  0  0  0  0  0  0  0  0  0  0  0
   51.1463    3.5066   17.8682 H   0  0  0  0  0  0  0  0  0  0  0  0
   51.3370    3.6032   17.9523 H   0  0  0  0  0  0  0  0  0  0  0  0
   51.3391    3.6021   17.9525 H   0  0  0  0  0  0  0  0  0  0  0  0
   48.3864    6.2205   18.5180 H   0  0  0  0  0  0  0  0  0  0  0  0
   46.4768    5.1754   17.5874 H   0  0  0  0  0  0  0  0  0  0  0  0
   52.9144    1.5521   19.1551 H   0  0  0  0  0  0  0  0  0  0  0  0
   51.2764    0.6413   17.8994 H   0  0  0  0  0  0  0  0  0  0  0  0
   51.9303    1.4567   16.3954 H   0  0  0  0  0  0  0  0  0  0  0  0
   50.9066    6.4521   18.7345 H   0  0  0  0  0  0  0  0  0  0  0  0
   55.9108    3.6242   19.5673 H   0  0  0  0  0  0  0  0  0  0  0  0
   54.6649    2.4038   20.0602 H   0  0  0  0  0  0  0  0  0  0  0  0
   56.0607    1.9738   17.8066 H   0  0  0  0  0  0  0  0  0  0  0  0
   55.2560    3.4345   17.2452 H   0  0  0  0  0  0  0  0  0  0  0  0
   54.8233    5.7901   20.0410 H   0  0  0  0  0  0  0  0  0  0  0  0
   49.2906    1.0239   16.4455 H   0  0  0  0  0  0  0  0  0  0  0  0
   52.9036    7.2954   19.7561 H   0  0  0  0  0  0  0  0  0  0  0  0
   47.3187    2.3979   16.1411 H   0  0  0  0  0  0  0  0  0  0  0  0
   54.7424    0.1393   16.4308 H   0  0  0  0  0  0  0  0  0  0  0  0
   53.1260   -0.0079   17.1609 H   0  0  0  0  0  0  0  0  0  0  0  0
   54.5305   -0.0390   18.2262 H   0  0  0  0  0  0  0  0  0  0  0  0
   56.5275    2.6426   18.3358 H   0  0  0  0  0  0  0  0  0  0  0  0
   56.7223   -0.1158   18.1345 H   0  0  0  0  0  0  0  0  0  0  0  0
   50.3504    3.6409   16.3362 H   0  0  0  0  0  0  0  0  0  0  0  0
   50.5278    1.4094   16.5544 H   0  0  0  0  0  0  0  0  0  0  0  0
   50.2007    1.5436   18.2923 H   0  0  0  0  0  0  0  0  0  0  0  0
   55.0379    4.4991   18.6712 H   0  0  0  0  0  0  0  0  0  0  0  0
   49.9823    5.6356   16.3214 H   0  0  0  0  0  0  0  0  0  0  0  0
   50.0224    7.0928   17.4336 H   0  0  0  0  0  0  0  0  0  0  0  0
   49.5293    5.6256   19.3229 H   0  0  0  0  0  0  0  0  0  0  0  0
   48.1909    5.4427   18.1193 H   0  0  0  0  0  0  0  0  0  0  0  0
   52.3141    7.5951   17.9770 H   0  0  0  0  0  0  0  0  0  0  0  0
   51.7066   -0.4996   17.6488 H   0  0  0  0  0  0  0  0  0  0  0  0
   54.5694    6.8490   18.5871 H   0  0  0  0  0  0  0  0  0  0  0  0
   53.9090   -1.3824   18.2413 H   0  0  0  0  0  0  0  0  0  0  0  0
   48.3867    2.1867   18.9698 H   0  0  0  0  0  0  0  0  0  0  0  0
   47.4788    3.6216   18.3974 H   0  0  0  0  0  0  0  0  0  0  0  0
   48.2542    2.5260   17.2264 H   0  0  0  0  0  0  0  0  0  0  0  0
  4 14  1  0
  5 20  1  0
  6  7  1  0
  6 17  1  0
  6 23  1  0
  7  8  1  0
  7 13  1  0
  8  9  1  0
  8 12  2  0
  9 10  1  0
  9 15  2  0
 10 11  2  0
 10 14  1  0
 11 13  1  0
 11 19  1  0
 12 16  1  0
 12 18  1  0
 14 20  2  0
 15 21  1  0
 16 17  1  0
 18 21  2  0
 19 22  2  0
 20 22  1  0
 24 34  1  0
 25 40  1  0
 26 27  1  0
 26 37  1  0
 26 43  1  0
 27 28  1  0
 27 33  1  0
 28 29  1  0
 28 32  2  0
 29 30  1  0
 29 35  2  0
 30 31  2  0
 30 34  1  0
 31 33  1  0
 31 39  1  0
 32 36  1  0
 32 38  1  0
 34 40  2  0
 35 41  1  0
 36 37  1  0
 38 41  2  0
 39 42  2  0
 40 42  1  0
  1 44  1  0
  1 45  1  0
  2 46  1  0
  3 47  1  0
  4 48  1  0
  5 49  1  0
  7 50  1  1
 13 51  1  0
 13 52  1  0
 15 53  1  0
 16 54  1  0
 16 55  1  0
 17 56  1  0
 17 57  1  0
 18 58  1  0
 19 59  1  0
 21 60  1  0
 22 61  1  0
 23 62  1  0
 23 63  1  0
 23 64  1  0
 24 65  1  0
 25 66  1  0
 27 67  1  6
 33 68  1  0
 33 69  1  0
 35 70  1  0
 36 71  1  0
 36 72  1  0
 37 73  1  0
 37 74  1  0
 38 75  1  0
 39 76  1  0
 41 77  1  0
 42 78  1  0
 43 79  1  0
 43 80  1  0
 43 81  1  0
M  END
> <Uni-Dock RESULT> 
ENERGY=   -7.220  LOWER_BOUND=    7.458  UPPER_BOUND=   10.453
INTER + INTRA:          -7.220
INTER:                  -7.220
INTRA:                   0.000
UNBOUND:                 0.000

$$$$

     RDKit          3D

 81 84  0  0  0  0  0  0  0  0999 V2000
   52.1326    3.5766   18.0293 O   0  0  0  0  0  0  0  0  0  0  0  0
   51.3668    3.5308   17.8793 Cl  0  0  0  0  0  0  0  0  0  0  0  0
   51.3689    3.5298   17.8796 Cl  0  0  0  0  0  0  0  0  0  0  0  0
   55.6961    2.7317   18.7881 O   0  0  0  0  0  0  0  0  0  0  0  0
   56.1491    0.0618   18.7845 O   0  0  0  0  0  0  0  0  0  0  0  0
   49.4594    3.6140   18.1679 N   0  0  0  0  0  0  0  0  0  0  0  0
   50.6783    3.3190   17.4328 C   0  0  1  0  0  0  0  0  0  0  0  0
   51.7915    4.1727   17.7977 C   0  0  0  0  0  0  0  0  0  0  0  0
   53.0677    3.8163   18.1340 C   0  0  0  0  0  0  0  0  0  0  0  0
   53.3600    2.3877   18.1672 C   0  0  0  0  0  0  0  0  0  0  0  0
   52.3315    1.5421   17.8629 C   0  0  0  0  0  0  0  0  0  0  0  0
   51.5289    5.5511   17.7865 C   0  0  0  0  0  0  0  0  0  0  0  0
   50.9459    1.8728   17.5397 C   0  0  0  0  0  0  0  0  0  0  0  0
   54.6185    1.9300   18.4726 C   0  0  0  0  0  0  0  0  0  0  0  0
   54.0226    4.7574   18.4383 C   0  0  0  0  0  0  0  0  0  0  0  0
   50.1061    5.8881   17.4110 C   0  0  0  0  0  0  0  0  0  0  0  0
   49.2704    5.0052   18.3098 C   0  0  0  0  0  0  0  0  0  0  0  0
   52.4613    6.4989   18.0852 C   0  0  0  0  0  0  0  0  0  0  0  0
   52.6381    0.1711   17.8799 C   0  0  0  0  0  0  0  0  0  0  0  0
   54.8917    0.5554   18.4811 C   0  0  0  0  0  0  0  0  0  0  0  0
   53.7380    6.1347   18.4206 C   0  0  0  0  0  0  0  0  0  0  0  0
   53.8786   -0.3143   18.1790 C   0  0  0  0  0  0  0  0  0  0  0  0
   48.3365    2.9051   17.6013 C   0  0  0  0  0  0  0  0  0  0  0  0
   49.2150    5.8602   17.7371 O   0  0  0  0  0  0  0  0  0  0  0  0
   47.1331    4.7131   16.4495 O   0  0  0  0  0  0  0  0  0  0  0  0
   54.0810    1.9346   17.5939 N   0  0  0  0  0  0  0  0  0  0  0  0
   52.8170    2.0990   18.2566 C   0  0  1  0  0  0  0  0  0  0  0  0
   52.6786    3.5097   18.6119 C   0  0  0  0  0  0  0  0  0  0  0  0
   51.6191    4.3407   18.3776 C   0  0  0  0  0  0  0  0  0  0  0  0
   50.4734    3.7681   17.6862 C   0  0  0  0  0  0  0  0  0  0  0  0
   50.5613    2.4510   17.3340 C   0  0  0  0  0  0  0  0  0  0  0  0
   53.7692    4.0717   19.2757 C   0  0  0  0  0  0  0  0  0  0  0  0
   51.6704    1.5319   17.5642 C   0  0  0  0  0  0  0  0  0  0  0  0
   49.3658    4.5281   17.4091 C   0  0  0  0  0  0  0  0  0  0  0  0
   51.6430    5.6565   18.7809 C   0  0  0  0  0  0  0  0  0  0  0  0
   54.9088    3.1132   19.5058 C   0  0  0  0  0  0  0  0  0  0  0  0
   55.2178    2.5319   18.1488 C   0  0  0  0  0  0  0  0  0  0  0  0
   53.8136    5.3769   19.6852 C   0  0  0  0  0  0  0  0  0  0  0  0
   49.4547    1.9172   16.6721 C   0  0  0  0  0  0  0  0  0  0  0  0
   48.2663    3.9659   16.7419 C   0  0  0  0  0  0  0  0  0  0  0  0
   52.7498    6.2077   19.4489 C   0  0  0  0  0  0  0  0  0  0  0  0
   48.3299    2.6454   16.3777 C   0  0  0  0  0  0  0  0  0  0  0  0
   54.2578    0.6970   16.9199 C   0  0  0  0  0  0  0  0  0  0  0  0
   51.1719    3.4192   17.8309 H   0  0  0  0  0  0  0  0  0  0  0  0
   52.6418    2.7244   18.0382 H   0  0  0  0  0  0  0  0  0  0  0  0
   52.5975    2.9493   18.0529 H   0  0  0  0  0  0  0  0  0  0  0  0
   52.5953    2.9503   18.0526 H   0  0  0  0  0  0  0  0  0  0  0  0
   56.5557    2.5490   18.2735 H   0  0  0  0  0  0  0  0  0  0  0  0
   56.9250    0.2132   18.1633 H   0  0  0  0  0  0  0  0  0  0  0  0
   50.3917    3.5325   16.3393 H   0  0  0  0  0  0  0  0  0  0  0  0
   50.5897    1.3034   16.6249 H   0  0  0  0  0  0  0  0  0  0  0  0
   50.3436    1.4795   18.4313 H   0  0  0  0  0  0  0  0  0  0  0  0
   55.0380    4.5387   18.7094 H   0  0  0  0  0  0  0  0  0  0  0  0
   49.8597    6.9292   17.6126 H   0  0  0  0  0  0  0  0  0  0  0  0
   49.9925    5.6418   16.3437 H   0  0  0  0  0  0  0  0  0  0  0  0
   48.2025    5.3164   18.3192 H   0  0  0  0  0  0  0  0  0  0  0  0
   49.6251    5.2647   19.3535 H   0  0  0  0  0  0  0  0  0  0  0  0
   52.2079    7.5480   18.0617 H   0  0  0  0  0  0  0  0  0  0  0  0
   51.8684   -0.5741   17.6465 H   0  0  0  0  0  0  0  0  0  0  0  0
   54.4917    6.8715   18.6606 H   0  0  0  0  0  0  0  0  0  0  0  0
   54.0932   -1.3664   18.1867 H   0  0  0  0  0  0  0  0  0  0  0  0
   47.5175    2.7617   18.3151 H   0  0  0  0  0  0  0  0  0  0  0  0
   48.6989    1.8999   17.3006 H   0  0  0  0  0  0  0  0  0  0  0  0
   47.9679    3.3731   16.6648 H   0  0  0  0  0  0  0  0  0  0  0  0
   48.4684    6.2514   18.2945 H   0  0  0  0  0  0  0  0  0  0  0  0
   46.3900    4.8219   17.1437 H   0  0  0  0  0  0  0  0  0  0  0  0
   52.9150    1.5099   19.2419 H   0  0  0  0  0  0  0  0  0  0  0  0
   51.3109    0.5488   17.9923 H   0  0  0  0  0  0  0  0  0  0  0  0
   52.0415    1.2187   16.5217 H   0  0  0  0  0  0  0  0  0  0  0  0
   50.8465    6.3581   18.6277 H   0  0  0  0  0  0  0  0  0  0  0  0
   54.5356    2.3083   20.1644 H   0  0  0  0  0  0  0  0  0  0  0  0
   55.7752    3.6423   19.9495 H   0  0  0  0  0  0  0  0  0  0  0  0
   55.5545    3.4147   17.5277 H   0  0  0  0  0  0  0  0  0  0  0  0
   56.0600    1.8080   18.1883 H   0  0  0  0  0  0  0  0  0  0  0  0
   54.6782    5.7719   20.1964 H   0  0  0  0  0  0  0  0  0  0  0  0
   49.4505    0.8771   16.3606 H   0  0  0  0  0  0  0  0  0  0  0  0
   52.7637    7.2425   19.7638 H   0  0  0  0  0  0  0  0  0  0  0  0
   47.4740    2.2296   15.8650 H   0  0  0  0  0  0  0  0  0  0  0  0
   53.8893    0.6147   15.9018 H   0  0  0  0  0  0  0  0  0  0  0  0
   55.3623    0.4718   16.9121 H   0  0  0  0  0  0  0  0  0  0  0  0
   53.7982   -0.1269   17.5185 H   0  0  0  0  0  0  0  0  0  0  0  0
  4 14  1  0
  5 20  1  0
  6  7  1  0
  6 17  1  0
  6 23  1  0
  7  8  1  0
  7 13  1  0
  8  9  1  0
  8 12  2  0
  9 10  1  0
  9 15  2  0
 10 11  2  0
 10 14  1  0
 11 13  1  0
 11 19  1  0
 12 16  1  0
 12 18  1  0
 14 20  2  0
 15 21  1  0
 16 17  1  0
 18 21  2  0
 19 22  2  0
 20 22  1  0
 24 34  1  0
 25 40  1  0
 26 27  1  0
 26 37  1  0
 26 43  1  0
 27 28  1  0
 27 33  1  0
 28 29  1  0
 28 32  2  0
 29 30  1  0
 29 35  2  0
 30 31  2  0
 30 34  1  0
 31 33  1  0
 31 39  1  0
 32 36  1  0
 32 38  1  0
 34 40  2  0
 35 41  1  0
 36 37  1  0
 38 41  2  0
 39 42  2  0
 40 42  1  0
  1 44  1  0
  1 45  1  0
  2 46  1  0
  3 47  1  0
  4 48  1  0
  5 49  1  0
  7 50  1  1
 13 51  1  0
 13 52  1  0
 15 53  1  0
 16 54  1  0
 16 55  1  0
 17 56  1  0
 17 57  1  0
 18 58  1  0
 19 59  1  0
 21 60  1  0
 22 61  1  0
 23 62  1  0
 23 63  1  0
 23 64  1  0
 24 65  1  0
 25 66  1  0
 27 67  1  6
 33 68  1  0
 33 69  1  0
 35 70  1  0
 36 71  1  0
 36 72  1  0
 37 73  1  0
 37 74  1  0
 38 75  1  0
 39 76  1  0
 41 77  1  0
 42 78  1  0
 43 79  1  0
 43 80  1  0
 43 81  1  0
M  END
> <Uni-Dock RESULT> 
ENERGY=   -7.187  LOWER_BOUND=    7.407  UPPER_BOUND=   10.031
INTER + INTRA:          -7.187
INTER:                  -7.187
INTRA:                   0.000
UNBOUND:                 0.000

$$$$

     RDKit          3D

 81 84  0  0  0  0  0  0  0  0999 V2000
   46.4734    9.2872   12.2123 O   0  0  0  0  0  0  0  0  0  0  0  0
   45.8884    9.7376   11.9556 Cl  0  0  0  0  0  0  0  0  0  0  0  0
   45.8893    9.7355   11.9564 Cl  0  0  0  0  0  0  0  0  0  0  0  0
   48.4682    6.4464   13.6047 O   0  0  0  0  0  0  0  0  0  0  0  0
   46.9652    4.2320   14.0176 O   0  0  0  0  0  0  0  0  0  0  0  0
   44.5529   11.1320   11.9392 N   0  0  0  0  0  0  0  0  0  0  0  0
   45.2518    9.9585   11.4416 C   0  0  1  0  0  0  0  0  0  0  0  0
   46.6395    9.8962   11.8562 C   0  0  0  0  0  0  0  0  0  0  0  0
   47.3156    8.8531   12.4251 C   0  0  0  0  0  0  0  0  0  0  0  0
   46.5468    7.6418   12.6880 C   0  0  0  0  0  0  0  0  0  0  0  0
   45.2251    7.6653   12.3445 C   0  0  0  0  0  0  0  0  0  0  0  0
   47.3948   11.0561   11.6259 C   0  0  0  0  0  0  0  0  0  0  0  0
   44.4516    8.7658   11.7753 C   0  0  0  0  0  0  0  0  0  0  0  0
   47.1413    6.5319   13.2372 C   0  0  0  0  0  0  0  0  0  0  0  0
   48.6493    8.9473   12.7450 C   0  0  0  0  0  0  0  0  0  0  0  0
   46.5996   12.1757   10.9989 C   0  0  0  0  0  0  0  0  0  0  0  0
   45.3673   12.2822   11.8684 C   0  0  0  0  0  0  0  0  0  0  0  0
   48.7169   11.1691   11.9360 C   0  0  0  0  0  0  0  0  0  0  0  0
   44.5068    6.4823   12.5861 C   0  0  0  0  0  0  0  0  0  0  0  0
   46.3962    5.3671   13.4659 C   0  0  0  0  0  0  0  0  0  0  0  0
   49.3881   10.1199   12.5052 C   0  0  0  0  0  0  0  0  0  0  0  0
   45.0691    5.3635   13.1300 C   0  0  0  0  0  0  0  0  0  0  0  0
   43.2618   11.2644   11.3066 C   0  0  0  0  0  0  0  0  0  0  0  0
   45.9258   12.8174   11.1874 O   0  0  0  0  0  0  0  0  0  0  0  0
   43.6519   13.1355    9.7604 O   0  0  0  0  0  0  0  0  0  0  0  0
   46.7720    6.7208   12.2942 N   0  0  0  0  0  0  0  0  0  0  0  0
   45.9521    7.8166   12.7311 C   0  0  1  0  0  0  0  0  0  0  0  0
   46.8123    8.9892   12.8745 C   0  0  0  0  0  0  0  0  0  0  0  0
   46.6173   10.2470   12.3765 C   0  0  0  0  0  0  0  0  0  0  0  0
   45.4058   10.4675   11.6004 C   0  0  0  0  0  0  0  0  0  0  0  0
   44.5731    9.3962   11.4402 C   0  0  0  0  0  0  0  0  0  0  0  0
   47.9769    8.7927   13.6166 C   0  0  0  0  0  0  0  0  0  0  0  0
   44.7438    8.0415   11.9532 C   0  0  0  0  0  0  0  0  0  0  0  0
   45.1280   11.6981   11.0624 C   0  0  0  0  0  0  0  0  0  0  0  0
   47.5294   11.2525   12.6038 C   0  0  0  0  0  0  0  0  0  0  0  0
   48.1428    7.3891   14.1393 C   0  0  0  0  0  0  0  0  0  0  0  0
   47.9968    6.4969   12.9320 C   0  0  0  0  0  0  0  0  0  0  0  0
   48.8965    9.7780   13.8545 C   0  0  0  0  0  0  0  0  0  0  0  0
   43.4161    9.6241   10.6939 C   0  0  0  0  0  0  0  0  0  0  0  0
   43.9568   11.8999   10.3157 C   0  0  0  0  0  0  0  0  0  0  0  0
   48.6983   11.0381   13.3538 C   0  0  0  0  0  0  0  0  0  0  0  0
   43.1043   10.8402   10.1405 C   0  0  0  0  0  0  0  0  0  0  0  0
   46.0651    5.5831   11.8218 C   0  0  0  0  0  0  0  0  0  0  0  0
   45.6711    9.7787   11.8932 H   0  0  0  0  0  0  0  0  0  0  0  0
   46.2586    8.3381   12.4092 H   0  0  0  0  0  0  0  0  0  0  0  0
   46.3804    8.5317   12.3876 H   0  0  0  0  0  0  0  0  0  0  0  0
   46.3795    8.5338   12.3868 H   0  0  0  0  0  0  0  0  0  0  0  0
   48.9785    5.6378   13.2542 H   0  0  0  0  0  0  0  0  0  0  0  0
   47.6462    3.6972   13.5065 H   0  0  0  0  0  0  0  0  0  0  0  0
   45.2128   10.0862   10.2989 H   0  0  0  0  0  0  0  0  0  0  0  0
   43.8209    8.4153   10.8992 H   0  0  0  0  0  0  0  0  0  0  0  0
   43.7251    9.0647   12.6091 H   0  0  0  0  0  0  0  0  0  0  0  0
   49.2317    8.1645   13.1927 H   0  0  0  0  0  0  0  0  0  0  0  0
   47.1307   13.1257   11.0235 H   0  0  0  0  0  0  0  0  0  0  0  0
   46.3702   11.8638    9.9681 H   0  0  0  0  0  0  0  0  0  0  0  0
   44.8044   13.2220   11.6756 H   0  0  0  0  0  0  0  0  0  0  0  0
   45.7814   12.4374   12.9109 H   0  0  0  0  0  0  0  0  0  0  0  0
   49.2532   12.0848   11.7380 H   0  0  0  0  0  0  0  0  0  0  0  0
   43.4405    6.4183   12.3382 H   0  0  0  0  0  0  0  0  0  0  0  0
   50.4366   10.1899   12.7582 H   0  0  0  0  0  0  0  0  0  0  0  0
   44.5029    4.4685   13.3071 H   0  0  0  0  0  0  0  0  0  0  0  0
   42.5530   11.8521   11.9009 H   0  0  0  0  0  0  0  0  0  0  0  0
   42.8416   10.2428   11.1977 H   0  0  0  0  0  0  0  0  0  0  0  0
   43.3346   11.6602   10.2723 H   0  0  0  0  0  0  0  0  0  0  0  0
   45.6399   13.7080   11.5698 H   0  0  0  0  0  0  0  0  0  0  0  0
   43.1718   13.8489   10.3142 H   0  0  0  0  0  0  0  0  0  0  0  0
   45.5985    7.5251   13.7882 H   0  0  0  0  0  0  0  0  0  0  0  0
   43.7987    7.6638   12.4464 H   0  0  0  0  0  0  0  0  0  0  0  0
   44.8204    7.3619   11.0286 H   0  0  0  0  0  0  0  0  0  0  0  0
   47.4350   12.2576   12.2418 H   0  0  0  0  0  0  0  0  0  0  0  0
   47.3053    7.1939   14.8331 H   0  0  0  0  0  0  0  0  0  0  0  0
   49.1265    7.2755   14.6360 H   0  0  0  0  0  0  0  0  0  0  0  0
   48.8605    6.7798   12.2593 H   0  0  0  0  0  0  0  0  0  0  0  0
   48.1114    5.4227   13.1924 H   0  0  0  0  0  0  0  0  0  0  0  0
   49.7855    9.5830   14.4346 H   0  0  0  0  0  0  0  0  0  0  0  0
   42.7056    8.8210   10.5235 H   0  0  0  0  0  0  0  0  0  0  0  0
   49.4121   11.8317   13.5297 H   0  0  0  0  0  0  0  0  0  0  0  0
   42.2074   11.0141    9.5629 H   0  0  0  0  0  0  0  0  0  0  0  0
   45.7621    5.5690   10.7793 H   0  0  0  0  0  0  0  0  0  0  0  0
   46.7137    4.6806   12.0105 H   0  0  0  0  0  0  0  0  0  0  0  0
   45.1530    5.4203   12.4463 H   0  0  0  0  0  0  0  0  0  0  0  0
  4 14  1  0
  5 20  1  0
  6  7  1  0
  6 17  1  0
  6 23  1  0
  7  8  1  0
  7 13  1  0
  8  9  1  0
  8 12  2  0
  9 10  1  0
  9 15  2  0
 10 11  2  0
 10 14  1  0
 11 13  1  0
 11 19  1  0
 12 16  1  0
 12 18  1  0
 14 20  2  0
 15 21  1  0
 16 17  1  0
 18 21  2  0
 19 22  2  0
 20 22  1  0
 24 34  1  0
 25 40  1  0
 26 27  1  0
 26 37  1  0
 26 43  1  0
 27 28  1  0
 27 33  1  0
 28 29  1  0
 28 32  2  0
 29 30  1  0
 29 35  2  0
 30 31  2  0
 30 34  1  0
 31 33  1  0
 31 39  1  0
 32 36  1  0
 32 38  1  0
 34 40  2  0
 35 41  1  0
 36 37  1  0
 38 41  2  0
 39 42  2  0
 40 42  1  0
  1 44  1  0
  1 45  1  0
  2 46  1  0
  3 47  1  0
  4 48  1  0
  5 49  1  0
  7 50  1  1
 13 51  1  0
 13 52  1  0
 15 53  1  0
 16 54  1  0
 16 55  1  0
 17 56  1  0
 17 57  1  0
 18 58  1  0
 19 59  1  0
 21 60  1  0
 22 61  1  0
 23 62  1  0
 23 63  1  0
 23 64  1  0
 24 65  1  0
 25 66  1  0
 27 67  1  6
 33 68  1  0
 33 69  1  0
 35 70  1  0
 36 71  1  0
 36 72  1  0
 37 73  1  0
 37 74  1  0
 38 75  1  0
 39 76  1  0
 41 77  1  0
 42 78  1  0
 43 79  1  0
 43 80  1  0
 43 81  1  0
M  END
> <Uni-Dock RESULT> 
ENERGY=   -7.083  LOWER_BOUND=    1.440  UPPER_BOUND=    2.568
INTER + INTRA:          -7.083
INTER:                  -7.083
INTRA:                   0.000
UNBOUND:                 0.000

$$$$

     RDKit          3D

 81 84  0  0  0  0  0  0  0  0999 V2000
   46.4737    9.2874   12.2125 O   0  0  0  0  0  0  0  0  0  0  0  0
   45.8887    9.7378   11.9557 Cl  0  0  0  0  0  0  0  0  0  0  0  0
   45.8896    9.7357   11.9565 Cl  0  0  0  0  0  0  0  0  0  0  0  0
   48.4684    6.4465   13.6049 O   0  0  0  0  0  0  0  0  0  0  0  0
   46.9653    4.2321   14.0178 O   0  0  0  0  0  0  0  0  0  0  0  0
   44.5532   11.1322   11.9393 N   0  0  0  0  0  0  0  0  0  0  0  0
   45.2521    9.9588   11.4417 C   0  0  1  0  0  0  0  0  0  0  0  0
   46.6398    9.8964   11.8564 C   0  0  0  0  0  0  0  0  0  0  0  0
   47.3158    8.8532   12.4252 C   0  0  0  0  0  0  0  0  0  0  0  0
   46.5470    7.6420   12.6881 C   0  0  0  0  0  0  0  0  0  0  0  0
   45.2253    7.6655   12.3446 C   0  0  0  0  0  0  0  0  0  0  0  0
   47.3951   11.0563   11.6261 C   0  0  0  0  0  0  0  0  0  0  0  0
   44.4518    8.7660   11.7754 C   0  0  0  0  0  0  0  0  0  0  0  0
   47.1414    6.5321   13.2373 C   0  0  0  0  0  0  0  0  0  0  0  0
   48.6495    8.9474   12.7452 C   0  0  0  0  0  0  0  0  0  0  0  0
   46.6000   12.1759   10.9990 C   0  0  0  0  0  0  0  0  0  0  0  0
   45.3677   12.2824   11.8684 C   0  0  0  0  0  0  0  0  0  0  0  0
   48.7173   11.1692   11.9361 C   0  0  0  0  0  0  0  0  0  0  0  0
   44.5069    6.4825   12.5863 C   0  0  0  0  0  0  0  0  0  0  0  0
   46.3963    5.3673   13.4661 C   0  0  0  0  0  0  0  0  0  0  0  0
   49.3884   10.1200   12.5053 C   0  0  0  0  0  0  0  0  0  0  0  0
   45.0693    5.3637   13.1302 C   0  0  0  0  0  0  0  0  0  0  0  0
   43.2622   11.2647   11.3066 C   0  0  0  0  0  0  0  0  0  0  0  0
   45.9262   12.8176   11.1875 O   0  0  0  0  0  0  0  0  0  0  0  0
   43.6524   13.1358    9.7604 O   0  0  0  0  0  0  0  0  0  0  0  0
   46.7722    6.7210   12.2944 N   0  0  0  0  0  0  0  0  0  0  0  0
   45.9523    7.8168   12.7312 C   0  0  1  0  0  0  0  0  0  0  0  0
   46.8125    8.9894   12.8746 C   0  0  0  0  0  0  0  0  0  0  0  0
   46.6176   10.2472   12.3766 C   0  0  0  0  0  0  0  0  0  0  0  0
   45.4062   10.4677   11.6005 C   0  0  0  0  0  0  0  0  0  0  0  0
   44.5734    9.3965   11.4403 C   0  0  0  0  0  0  0  0  0  0  0  0
   47.9772    8.7928   13.6167 C   0  0  0  0  0  0  0  0  0  0  0  0
   44.7440    8.0417   11.9533 C   0  0  0  0  0  0  0  0  0  0  0  0
   45.1284   11.6984   11.0625 C   0  0  0  0  0  0  0  0  0  0  0  0
   47.5297   11.2526   12.6039 C   0  0  0  0  0  0  0  0  0  0  0  0
   48.1430    7.3893   14.1394 C   0  0  0  0  0  0  0  0  0  0  0  0
   47.9970    6.4971   12.9321 C   0  0  0  0  0  0  0  0  0  0  0  0
   48.8968    9.7781   13.8547 C   0  0  0  0  0  0  0  0  0  0  0  0
   43.4164    9.6244   10.6939 C   0  0  0  0  0  0  0  0  0  0  0  0
   43.9572   11.9002   10.3157 C   0  0  0  0  0  0  0  0  0  0  0  0
   48.6987   11.0382   13.3540 C   0  0  0  0  0  0  0  0  0  0  0  0
   43.1047   10.8405   10.1405 C   0  0  0  0  0  0  0  0  0  0  0  0
   46.0653    5.5833   11.8220 C   0  0  0  0  0  0  0  0  0  0  0  0
   45.6715    9.7789   11.8933 H   0  0  0  0  0  0  0  0  0  0  0  0
   46.2588    8.3383   12.4093 H   0  0  0  0  0  0  0  0  0  0  0  0
   46.3806    8.5318   12.3877 H   0  0  0  0  0  0  0  0  0  0  0  0
   46.3798    8.5340   12.3869 H   0  0  0  0  0  0  0  0  0  0  0  0
   48.9786    5.6378   13.2545 H   0  0  0  0  0  0  0  0  0  0  0  0
   47.6462    3.6974   13.5067 H   0  0  0  0  0  0  0  0  0  0  0  0
   45.2132   10.0864   10.2990 H   0  0  0  0  0  0  0  0  0  0  0  0
   43.8212    8.4156   10.8993 H   0  0  0  0  0  0  0  0  0  0  0  0
   43.7254    9.0650   12.6091 H   0  0  0  0  0  0  0  0  0  0  0  0
   49.2319    8.1645   13.1929 H   0  0  0  0  0  0  0  0  0  0  0  0
   47.1312   13.1258   11.0236 H   0  0  0  0  0  0  0  0  0  0  0  0
   46.3706   11.8639    9.9682 H   0  0  0  0  0  0  0  0  0  0  0  0
   44.8049   13.2222   11.6757 H   0  0  0  0  0  0  0  0  0  0  0  0
   45.7818   12.4376   12.9110 H   0  0  0  0  0  0  0  0  0  0  0  0
   49.2536   12.0848   11.7381 H   0  0  0  0  0  0  0  0  0  0  0  0
   43.4407    6.4186   12.3383 H   0  0  0  0  0  0  0  0  0  0  0  0
   50.4369   10.1899   12.7584 H   0  0  0  0  0  0  0  0  0  0  0  0
   44.5030    4.4687   13.3073 H   0  0  0  0  0  0  0  0  0  0  0  0
   42.5534   11.8524   11.9009 H   0  0  0  0  0  0  0  0  0  0  0  0
   42.8420   10.2431   11.1977 H   0  0  0  0  0  0  0  0  0  0  0  0
   43.3350   11.6605   10.2723 H   0  0  0  0  0  0  0  0  0  0  0  0
   45.6404   13.7082   11.5698 H   0  0  0  0  0  0  0  0  0  0  0  0
   43.1723   13.8492   10.3142 H   0  0  0  0  0  0  0  0  0  0  0  0
   45.5986    7.5253   13.7883 H   0  0  0  0  0  0  0  0  0  0  0  0
   43.7990    7.6641   12.4465 H   0  0  0  0  0  0  0  0  0  0  0  0
   44.8206    7.3621   11.0287 H   0  0  0  0  0  0  0  0  0  0  0  0
   47.4355   12.2577   12.2419 H   0  0  0  0  0  0  0  0  0  0  0  0
   47.3054    7.1941   14.8333 H   0  0  0  0  0  0  0  0  0  0  0  0
   49.1266    7.2756   14.6362 H   0  0  0  0  0  0  0  0  0  0  0  0
   48.8606    6.7799   12.2595 H   0  0  0  0  0  0  0  0  0  0  0  0
   48.1115    5.4229   13.1926 H   0  0  0  0  0  0  0  0  0  0  0  0
   49.7857    9.5831   14.4348 H   0  0  0  0  0  0  0  0  0  0  0  0
   42.7059    8.8213   10.5236 H   0  0  0  0  0  0  0  0  0  0  0  0
   49.4124   11.8318   13.5299 H   0  0  0  0  0  0  0  0  0  0  0  0
   42.2078   11.0145    9.5629 H   0  0  0  0  0  0  0  0  0  0  0  0
   45.7623    5.5692   10.7794 H   0  0  0  0  0  0  0  0  0  0  0  0
   46.7138    4.6808   12.0106 H   0  0  0  0  0  0  0  0  0  0  0  0
   45.1532    5.4205   12.4464 H   0  0  0  0  0  0  0  0  0  0  0  0
  4 14  1  0
  5 20  1  0
  6  7  1  0
  6 17  1  0
  6 23  1  0
  7  8  1  0
  7 13  1  0
  8  9  1  0
  8 12  2  0
  9 10  1  0
  9 15  2  0
 10 11  2  0
 10 14  1  0
 11 13  1  0
 11 19  1  0
 12 16  1  0
 12 18  1  0
 14 20  2  0
 15 21  1  0
 16 17  1  0
 18 21  2  0
 19 22  2  0
 20 22  1  0
 24 34  1  0
 25 40  1  0
 26 27  1  0
 26 37  1  0
 26 43  1  0
 27 28  1  0
 27 33  1  0
 28 29  1  0
 28 32  2  0
 29 30  1  0
 29 35  2  0
 30 31  2  0
 30 34  1  0
 31 33  1  0
 31 39  1  0
 32 36  1  0
 32 38  1  0
 34 40  2  0
 35 41  1  0
 36 37  1  0
 38 41  2  0
 39 42  2  0
 40 42  1  0
  1 44  1  0
  1 45  1  0
  2 46  1  0
  3 47  1  0
  4 48  1  0
  5 49  1  0
  7 50  1  1
 13 51  1  0
 13 52  1  0
 15 53  1  0
 16 54  1  0
 16 55  1  0
 17 56  1  0
 17 57  1  0
 18 58  1  0
 19 59  1  0
 21 60  1  0
 22 61  1  0
 23 62  1  0
 23 63  1  0
 23 64  1  0
 24 65  1  0
 25 66  1  0
 27 67  1  6
 33 68  1  0
 33 69  1  0
 35 70  1  0
 36 71  1  0
 36 72  1  0
 37 73  1  0
 37 74  1  0
 38 75  1  0
 39 76  1  0
 41 77  1  0
 42 78  1  0
 43 79  1  0
 43 80  1  0
 43 81  1  0
M  END
> <Uni-Dock RESULT> 
ENERGY=   -7.083  LOWER_BOUND=    1.440  UPPER_BOUND=    2.568
INTER + INTRA:          -7.083
INTER:                  -7.083
INTRA:                   0.000
UNBOUND:                 0.000

$$$$

     RDKit          3D

 81 84  0  0  0  0  0  0  0  0999 V2000
   46.3439    9.0943   12.3898 O   0  0  0  0  0  0  0  0  0  0  0  0
   46.2828    8.3198   12.4766 Cl  0  0  0  0  0  0  0  0  0  0  0  0
   46.2819    8.3219   12.4758 Cl  0  0  0  0  0  0  0  0  0  0  0  0
   45.7819   12.6428   11.3507 O   0  0  0  0  0  0  0  0  0  0  0  0
   43.5239   12.9465    9.8870 O   0  0  0  0  0  0  0  0  0  0  0  0
   46.6584    6.4395   12.2499 N   0  0  0  0  0  0  0  0  0  0  0  0
   45.9145    7.5964   12.7202 C   0  0  1  0  0  0  0  0  0  0  0  0
   46.7390    8.7741   12.9062 C   0  0  0  0  0  0  0  0  0  0  0  0
   46.5284   10.0457   12.4506 C   0  0  0  0  0  0  0  0  0  0  0  0
   45.3356   10.2598   11.6389 C   0  0  0  0  0  0  0  0  0  0  0  0
   44.5446    9.1705   11.4084 C   0  0  0  0  0  0  0  0  0  0  0  0
   47.8998    8.5880   13.6723 C   0  0  0  0  0  0  0  0  0  0  0  0
   44.7495    7.7892   11.8371 C   0  0  0  0  0  0  0  0  0  0  0  0
   45.0252   11.5064   11.1528 C   0  0  0  0  0  0  0  0  0  0  0  0
   47.4045   11.0669   12.7326 C   0  0  0  0  0  0  0  0  0  0  0  0
   48.0840    7.1670   14.1475 C   0  0  0  0  0  0  0  0  0  0  0  0
   47.9082    6.3360   12.8967 C   0  0  0  0  0  0  0  0  0  0  0  0
   48.7802    9.5868   13.9624 C   0  0  0  0  0  0  0  0  0  0  0  0
   43.3897    9.4013   10.6424 C   0  0  0  0  0  0  0  0  0  0  0  0
   43.8651   11.7031   10.3913 C   0  0  0  0  0  0  0  0  0  0  0  0
   48.5626   10.8584   13.5032 C   0  0  0  0  0  0  0  0  0  0  0  0
   43.0542   10.6279   10.1459 C   0  0  0  0  0  0  0  0  0  0  0  0
   45.8443    5.2487   12.3119 C   0  0  0  0  0  0  0  0  0  0  0  0
   48.3091    6.2956   13.8452 O   0  0  0  0  0  0  0  0  0  0  0  0
   46.8086    4.0837   14.2501 O   0  0  0  0  0  0  0  0  0  0  0  0
   44.5877   10.9210   11.8788 N   0  0  0  0  0  0  0  0  0  0  0  0
   45.1866    9.7077   11.3959 C   0  0  1  0  0  0  0  0  0  0  0  0
   46.5661    9.6679   11.8764 C   0  0  0  0  0  0  0  0  0  0  0  0
   47.2108    8.6444   12.5127 C   0  0  0  0  0  0  0  0  0  0  0  0
   46.4433    7.4314   12.7536 C   0  0  0  0  0  0  0  0  0  0  0  0
   45.1472    7.4261   12.3213 C   0  0  0  0  0  0  0  0  0  0  0  0
   47.3139   10.8238   11.6518 C   0  0  0  0  0  0  0  0  0  0  0  0
   44.4233    8.4939   11.6406 C   0  0  0  0  0  0  0  0  0  0  0  0
   47.0090    6.3536   13.3856 C   0  0  0  0  0  0  0  0  0  0  0  0
   48.5251    8.7640   12.9036 C   0  0  0  0  0  0  0  0  0  0  0  0
   46.5547   11.9200   10.9498 C   0  0  0  0  0  0  0  0  0  0  0  0
   45.3015   12.1187   11.7652 C   0  0  0  0  0  0  0  0  0  0  0  0
   48.6212   10.9637   12.0319 C   0  0  0  0  0  0  0  0  0  0  0  0
   44.4252    6.2559   12.5597 C   0  0  0  0  0  0  0  0  0  0  0  0
   46.2599    5.1886   13.6128 C   0  0  0  0  0  0  0  0  0  0  0  0
   49.2649    9.9358   12.6698 C   0  0  0  0  0  0  0  0  0  0  0  0
   44.9563    5.1582   13.1882 C   0  0  0  0  0  0  0  0  0  0  0  0
   43.1741   10.9904   11.7601 C   0  0  0  0  0  0  0  0  0  0  0  0
   46.1784    8.1166   12.4521 H   0  0  0  0  0  0  0  0  0  0  0  0
   45.6005    9.5552   11.9203 H   0  0  0  0  0  0  0  0  0  0  0  0
   45.7991    9.5243   12.0315 H   0  0  0  0  0  0  0  0  0  0  0  0
   45.7999    9.5222   12.0323 H   0  0  0  0  0  0  0  0  0  0  0  0
   45.2805   13.4604   11.6932 H   0  0  0  0  0  0  0  0  0  0  0  0
   43.2483   13.6931   10.5014 H   0  0  0  0  0  0  0  0  0  0  0  0
   45.5134    7.2604   13.7448 H   0  0  0  0  0  0  0  0  0  0  0  0
   43.8007    7.3507   12.2792 H   0  0  0  0  0  0  0  0  0  0  0  0
   44.9589    7.2177   10.8666 H   0  0  0  0  0  0  0  0  0  0  0  0
   47.2928   12.0824   12.4030 H   0  0  0  0  0  0  0  0  0  0  0  0
   49.0799    6.9904   14.5502 H   0  0  0  0  0  0  0  0  0  0  0  0
   47.3015    6.9795   14.8991 H   0  0  0  0  0  0  0  0  0  0  0  0
   48.2551    5.2893   13.0427 H   0  0  0  0  0  0  0  0  0  0  0  0
   48.6702    6.7633   12.1759 H   0  0  0  0  0  0  0  0  0  0  0  0
   49.6596    9.3909   14.5570 H   0  0  0  0  0  0  0  0  0  0  0  0
   42.7012    8.5794   10.4124 H   0  0  0  0  0  0  0  0  0  0  0  0
   49.2490   11.6641   13.7226 H   0  0  0  0  0  0  0  0  0  0  0  0
   42.1666   10.7841    9.5621 H   0  0  0  0  0  0  0  0  0  0  0  0
   46.1806    4.4648   11.6239 H   0  0  0  0  0  0  0  0  0  0  0  0
   44.8147    5.5372   12.0136 H   0  0  0  0  0  0  0  0  0  0  0  0
   45.7475    4.8540   13.3447 H   0  0  0  0  0  0  0  0  0  0  0  0
   48.9987    5.6047   13.5840 H   0  0  0  0  0  0  0  0  0  0  0  0
   47.3382    3.3884   13.7189 H   0  0  0  0  0  0  0  0  0  0  0  0
   45.2304    9.8287   10.2510 H   0  0  0  0  0  0  0  0  0  0  0  0
   43.8685    8.1055   10.7349 H   0  0  0  0  0  0  0  0  0  0  0  0
   43.5611    8.7874   12.3429 H   0  0  0  0  0  0  0  0  0  0  0  0
   49.0863    8.0002   13.4053 H   0  0  0  0  0  0  0  0  0  0  0  0
   46.2759   11.5408    9.9501 H   0  0  0  0  0  0  0  0  0  0  0  0
   47.1715   12.8380   10.8867 H   0  0  0  0  0  0  0  0  0  0  0  0
   45.6685   12.4680   12.7760 H   0  0  0  0  0  0  0  0  0  0  0  0
   44.6558   12.9204   11.3467 H   0  0  0  0  0  0  0  0  0  0  0  0
   49.1638   11.8764   11.8384 H   0  0  0  0  0  0  0  0  0  0  0  0
   43.3891    6.1764   12.2450 H   0  0  0  0  0  0  0  0  0  0  0  0
   50.2978   10.0248   12.9788 H   0  0  0  0  0  0  0  0  0  0  0  0
   44.3950    4.2529   13.3716 H   0  0  0  0  0  0  0  0  0  0  0  0
   42.5748   10.5608   12.5571 H   0  0  0  0  0  0  0  0  0  0  0  0
   42.8969   12.0786   11.6609 H   0  0  0  0  0  0  0  0  0  0  0  0
   42.8533   10.5206   10.7984 H   0  0  0  0  0  0  0  0  0  0  0  0
  4 14  1  0
  5 20  1  0
  6  7  1  0
  6 17  1  0
  6 23  1  0
  7  8  1  0
  7 13  1  0
  8  9  1  0
  8 12  2  0
  9 10  1  0
  9 15  2  0
 10 11  2  0
 10 14  1  0
 11 13  1  0
 11 19  1  0
 12 16  1  0
 12 18  1  0
 14 20  2  0
 15 21  1  0
 16 17  1  0
 18 21  2  0
 19 22  2  0
 20 22  1  0
 24 34  1  0
 25 40  1  0
 26 27  1  0
 26 37  1  0
 26 43  1  0
 27 28  1  0
 27 33  1  0
 28 29  1  0
 28 32  2  0
 29 30  1  0
 29 35  2  0
 30 31  2  0
 30 34  1  0
 31 33  1  0
 31 39  1  0
 32 36  1  0
 32 38  1  0
 34 40  2  0
 35 41  1  0
 36 37  1  0
 38 41  2  0
 39 42  2  0
 40 42  1  0
  1 44  1  0
  1 45  1  0
  2 46  1  0
  3 47  1  0
  4 48  1  0
  5 49  1  0
  7 50  1  1
 13 51  1  0
 13 52  1  0
 15 53  1  0
 16 54  1  0
 16 55  1  0
 17 56  1  0
 17 57  1  0
 18 58  1  0
 19 59  1  0
 21 60  1  0
 22 61  1  0
 23 62  1  0
 23 63  1  0
 23 64  1  0
 24 65  1  0
 25 66  1  0
 27 67  1  6
 33 68  1  0
 33 69  1  0
 35 70  1  0
 36 71  1  0
 36 72  1  0
 37 73  1  0
 37 74  1  0
 38 75  1  0
 39 76  1  0
 41 77  1  0
 42 78  1  0
 43 79  1  0
 43 80  1  0
 43 81  1  0
M  END
> <Uni-Dock RESULT> 
ENERGY=   -7.076  LOWER_BOUND=    1.311  UPPER_BOUND=    5.058
INTER + INTRA:          -7.076
INTER:                  -7.076
INTRA:                   0.000
UNBOUND:                 0.000

$$$$

     RDKit          3D

 81 84  0  0  0  0  0  0  0  0999 V2000
   48.0085    8.3358   21.0969 O   0  0  0  0  0  0  0  0  0  0  0  0
   47.8593    9.0071   20.7254 Cl  0  0  0  0  0  0  0  0  0  0  0  0
   47.8597    9.0048   20.7254 Cl  0  0  0  0  0  0  0  0  0  0  0  0
   48.4754    4.7167   21.9170 O   0  0  0  0  0  0  0  0  0  0  0  0
   48.2120    3.1218   19.7444 O   0  0  0  0  0  0  0  0  0  0  0  0
   46.9126   10.5969   20.1735 N   0  0  0  0  0  0  0  0  0  0  0  0
   47.9834    9.6142   20.1471 C   0  0  1  0  0  0  0  0  0  0  0  0
   48.1928    8.9568   21.4220 C   0  0  0  0  0  0  0  0  0  0  0  0
   48.2922    7.6196   21.6880 C   0  0  0  0  0  0  0  0  0  0  0  0
   48.1372    6.7146   20.5548 C   0  0  0  0  0  0  0  0  0  0  0  0
   47.9045    7.2877   19.3371 C   0  0  0  0  0  0  0  0  0  0  0  0
   48.3303    9.8081   22.5290 C   0  0  0  0  0  0  0  0  0  0  0  0
   47.7491    8.7031   19.0116 C   0  0  0  0  0  0  0  0  0  0  0  0
   48.2421    5.3545   20.7161 C   0  0  0  0  0  0  0  0  0  0  0  0
   48.5135    7.1525   22.9620 C   0  0  0  0  0  0  0  0  0  0  0  0
   48.2103   11.2717   22.1792 C   0  0  0  0  0  0  0  0  0  0  0  0
   46.9385   11.3516   21.3655 C   0  0  0  0  0  0  0  0  0  0  0  0
   48.5497    9.3648   23.7987 C   0  0  0  0  0  0  0  0  0  0  0  0
   47.7790    6.4007   18.2548 C   0  0  0  0  0  0  0  0  0  0  0  0
   48.1116    4.4966   19.6155 C   0  0  0  0  0  0  0  0  0  0  0  0
   48.6488    8.0238   24.0579 C   0  0  0  0  0  0  0  0  0  0  0  0
   47.8786    5.0451   18.3832 C   0  0  0  0  0  0  0  0  0  0  0  0
   46.9081   11.3805   18.9609 C   0  0  0  0  0  0  0  0  0  0  0  0
   47.5818   11.9347   21.9208 O   0  0  0  0  0  0  0  0  0  0  0  0
   47.8178   13.5247   19.7473 O   0  0  0  0  0  0  0  0  0  0  0  0
   48.8526    6.0429   20.2530 N   0  0  0  0  0  0  0  0  0  0  0  0
   47.8106    7.0237   20.1260 C   0  0  1  0  0  0  0  0  0  0  0  0
   47.6625    7.6887   21.4188 C   0  0  0  0  0  0  0  0  0  0  0  0
   47.6254    9.0296   21.6807 C   0  0  0  0  0  0  0  0  0  0  0  0
   47.7490    9.9268   20.5412 C   0  0  0  0  0  0  0  0  0  0  0  0
   47.8910    9.3464   19.3125 C   0  0  0  0  0  0  0  0  0  0  0  0
   47.5424    6.8409   22.5200 C   0  0  0  0  0  0  0  0  0  0  0  0
   47.9357    7.9244   18.9907 C   0  0  0  0  0  0  0  0  0  0  0  0
   47.7221   11.2876   20.7099 C   0  0  0  0  0  0  0  0  0  0  0  0
   47.4772    9.5007   22.9654 C   0  0  0  0  0  0  0  0  0  0  0  0
   47.5919    5.3749   22.1750 C   0  0  0  0  0  0  0  0  0  0  0  0
   48.8550    5.2000   21.3694 C   0  0  0  0  0  0  0  0  0  0  0  0
   47.3941    7.2880   23.8050 C   0  0  0  0  0  0  0  0  0  0  0  0
   48.0081   10.2201   18.2306 C   0  0  0  0  0  0  0  0  0  0  0  0
   47.8420   12.1438   19.6041 C   0  0  0  0  0  0  0  0  0  0  0  0
   47.3573    8.6331   24.0645 C   0  0  0  0  0  0  0  0  0  0  0  0
   47.9856   11.5858   18.3597 C   0  0  0  0  0  0  0  0  0  0  0  0
   49.3349    5.5063   19.0296 C   0  0  0  0  0  0  0  0  0  0  0  0
   47.8146    9.1354   20.5400 H   0  0  0  0  0  0  0  0  0  0  0  0
   48.0481    7.5131   20.5427 H   0  0  0  0  0  0  0  0  0  0  0  0
   48.0548    7.6490   20.7278 H   0  0  0  0  0  0  0  0  0  0  0  0
   48.0545    7.6513   20.7278 H   0  0  0  0  0  0  0  0  0  0  0  0
   49.2312    4.0342   21.9218 H   0  0  0  0  0  0  0  0  0  0  0  0
   49.0891    2.6896   19.9785 H   0  0  0  0  0  0  0  0  0  0  0  0
   48.9162   10.2389   19.8958 H   0  0  0  0  0  0  0  0  0  0  0  0
   48.3660    8.9862   18.1021 H   0  0  0  0  0  0  0  0  0  0  0  0
   46.6483    8.8075   18.7121 H   0  0  0  0  0  0  0  0  0  0  0  0
   48.5999    6.1170   23.2316 H   0  0  0  0  0  0  0  0  0  0  0  0
   48.1040   11.9012   23.0610 H   0  0  0  0  0  0  0  0  0  0  0  0
   49.1077   11.5338   21.5973 H   0  0  0  0  0  0  0  0  0  0  0  0
   46.5909   12.4010   21.2425 H   0  0  0  0  0  0  0  0  0  0  0  0
   46.1528   10.8959   22.0419 H   0  0  0  0  0  0  0  0  0  0  0  0
   48.6485   10.0622   24.6167 H   0  0  0  0  0  0  0  0  0  0  0  0
   47.5918    6.7802   17.2432 H   0  0  0  0  0  0  0  0  0  0  0  0
   48.8227    7.6524   25.0580 H   0  0  0  0  0  0  0  0  0  0  0  0
   47.7796    4.3835   17.5432 H   0  0  0  0  0  0  0  0  0  0  0  0
   45.9317   11.8291   18.7456 H   0  0  0  0  0  0  0  0  0  0  0  0
   47.1534   10.6941   18.1237 H   0  0  0  0  0  0  0  0  0  0  0  0
   47.7081   12.1497   18.9495 H   0  0  0  0  0  0  0  0  0  0  0  0
   46.8617   12.6041   22.1540 H   0  0  0  0  0  0  0  0  0  0  0  0
   46.9278   14.0278   19.7757 H   0  0  0  0  0  0  0  0  0  0  0  0
   46.8476    6.4178   19.9448 H   0  0  0  0  0  0  0  0  0  0  0  0
   47.2530    7.6747   18.1243 H   0  0  0  0  0  0  0  0  0  0  0  0
   48.9763    7.7363   18.5387 H   0  0  0  0  0  0  0  0  0  0  0  0
   47.4407   10.5376   23.2367 H   0  0  0  0  0  0  0  0  0  0  0  0
   46.7217    5.1579   21.5296 H   0  0  0  0  0  0  0  0  0  0  0  0
   47.5866    4.7606   23.0969 H   0  0  0  0  0  0  0  0  0  0  0  0
   49.6900    5.4737   22.0809 H   0  0  0  0  0  0  0  0  0  0  0  0
   49.0087    4.1435   21.0613 H   0  0  0  0  0  0  0  0  0  0  0  0
   47.3046    6.5970   24.6292 H   0  0  0  0  0  0  0  0  0  0  0  0
   48.1240    9.8334   17.2227 H   0  0  0  0  0  0  0  0  0  0  0  0
   47.2409    9.0083   25.0724 H   0  0  0  0  0  0  0  0  0  0  0  0
   48.0764   12.2604   17.5201 H   0  0  0  0  0  0  0  0  0  0  0  0
   50.1209    6.0473   18.5113 H   0  0  0  0  0  0  0  0  0  0  0  0
   49.7085    4.4642   19.2423 H   0  0  0  0  0  0  0  0  0  0  0  0
   48.4851    5.3699   18.3171 H   0  0  0  0  0  0  0  0  0  0  0  0
  4 14  1  0
  5 20  1  0
  6  7  1  0
  6 17  1  0
  6 23  1  0
  7  8  1  0
  7 13  1  0
  8  9  1  0
  8 12  2  0
  9 10  1  0
  9 15  2  0
 10 11  2  0
 10 14  1  0
 11 13  1  0
 11 19  1  0
 12 16  1  0
 12 18  1  0
 14 20  2  0
 15 21  1  0
 16 17  1  0
 18 21  2  0
 19 22  2  0
 20 22  1  0
 24 34  1  0
 25 40  1  0
 26 27  1  0
 26 37  1  0
 26 43  1  0
 27 28  1  0
 27 33  1  0
 28 29  1  0
 28 32  2  0
 29 30  1  0
 29 35  2  0
 30 31  2  0
 30 34  1  0
 31 33  1  0
 31 39  1  0
 32 36  1  0
 32 38  1  0
 34 40  2  0
 35 41  1  0
 36 37  1  0
 38 41  2  0
 39 42  2  0
 40 42  1  0
  1 44  1  0
  1 45  1  0
  2 46  1  0
  3 47  1  0
  4 48  1  0
  5 49  1  0
  7 50  1  1
 13 51  1  0
 13 52  1  0
 15 53  1  0
 16 54  1  0
 16 55  1  0
 17 56  1  0
 17 57  1  0
 18 58  1  0
 19 59  1  0
 21 60  1  0
 22 61  1  0
 23 62  1  0
 23 63  1  0
 23 64  1  0
 24 65  1  0
 25 66  1  0
 27 67  1  6
 33 68  1  0
 33 69  1  0
 35 70  1  0
 36 71  1  0
 36 72  1  0
 37 73  1  0
 37 74  1  0
 38 75  1  0
 39 76  1  0
 41 77  1  0
 42 78  1  0
 43 79  1  0
 43 80  1  0
 43 81  1  0
M  END
> <Uni-Dock RESULT> 
ENERGY=   -6.475  LOWER_BOUND=    7.579  UPPER_BOUND=    9.143
INTER + INTRA:          -6.475
INTER:                  -6.475
INTRA:                   0.000
UNBOUND:                 0.000

$$$$
