
     RDKit          3D

 81 84  0  0  0  0  0  0  0  0999 V2000
   46.1504    7.8961   12.5952 O   0  0  0  0  0  0  0  0  0  0  0  0
   45.5979    7.3566   12.4567 Cl  0  0  0  0  0  0  0  0  0  0  0  0
   45.5979    7.3564   12.4567 Cl  0  0  0  0  0  0  0  0  0  0  0  0
   45.6586    4.3816   13.7371 O   0  0  0  0  0  0  0  0  0  0  0  0
   43.3803    3.2766   12.7984 O   0  0  0  0  0  0  0  0  0  0  0  0
   45.8820   10.4991   12.0602 N   0  0  0  0  0  0  0  0  0  0  0  0
   45.9437    9.1313   11.5480 C   0  0  1  0  0  0  0  0  0  0  0  0
   46.7307    8.3565   12.5267 C   0  0  0  0  0  0  0  0  0  0  0  0
   46.4667    7.0982   12.9773 C   0  0  0  0  0  0  0  0  0  0  0  0
   45.2340    6.4614   12.5359 C   0  0  0  0  0  0  0  0  0  0  0  0
   44.4200    7.1656   11.7077 C   0  0  0  0  0  0  0  0  0  0  0  0
   47.8878    9.0058   12.9882 C   0  0  0  0  0  0  0  0  0  0  0  0
   44.6274    8.5550   11.2632 C   0  0  0  0  0  0  0  0  0  0  0  0
   44.9006    5.1786   12.9019 C   0  0  0  0  0  0  0  0  0  0  0  0
   47.2980    6.4648   13.8559 C   0  0  0  0  0  0  0  0  0  0  0  0
   48.2748   10.3623   12.5792 C   0  0  0  0  0  0  0  0  0  0  0  0
   47.1950   11.0703   11.8358 C   0  0  0  0  0  0  0  0  0  0  0  0
   48.7257    8.3536   13.8816 C   0  0  0  0  0  0  0  0  0  0  0  0
   43.2502    6.5488   11.2466 C   0  0  0  0  0  0  0  0  0  0  0  0
   43.7237    4.5771   12.4304 C   0  0  0  0  0  0  0  0  0  0  0  0
   48.4634    7.0936   14.3316 C   0  0  0  0  0  0  0  0  0  0  0  0
   42.8960    5.2793   11.5931 C   0  0  0  0  0  0  0  0  0  0  0  0
   44.9148   11.2900   11.3596 C   0  0  0  0  0  0  0  0  0  0  0  0
   43.3121    5.1446   11.8584 O   0  0  0  0  0  0  0  0  0  0  0  0
   44.4316    2.8735   12.7852 O   0  0  0  0  0  0  0  0  0  0  0  0
   47.5427    9.7563   12.0048 N   0  0  0  0  0  0  0  0  0  0  0  0
   46.7241    8.9540   12.9062 C   0  0  1  0  0  0  0  0  0  0  0  0
   45.4086    8.8546   12.2403 C   0  0  0  0  0  0  0  0  0  0  0  0
   44.6833    7.7091   12.0755 C   0  0  0  0  0  0  0  0  0  0  0  0
   45.2499    6.4652   12.5382 C   0  0  0  0  0  0  0  0  0  0  0  0
   46.4819    6.4840   13.1146 C   0  0  0  0  0  0  0  0  0  0  0  0
   44.9038   10.0865   11.7742 C   0  0  0  0  0  0  0  0  0  0  0  0
   47.3414    7.6754   13.2865 C   0  0  0  0  0  0  0  0  0  0  0  0
   44.5647    5.2802   12.4242 C   0  0  0  0  0  0  0  0  0  0  0  0
   43.4559    7.7623   11.4533 C   0  0  0  0  0  0  0  0  0  0  0  0
   45.6347   11.3434   11.9207 C   0  0  0  0  0  0  0  0  0  0  0  0
   47.0924   11.1247   12.0869 C   0  0  0  0  0  0  0  0  0  0  0  0
   43.6742   10.1059   11.1565 C   0  0  0  0  0  0  0  0  0  0  0  0
   47.0321    5.2810   13.5859 C   0  0  0  0  0  0  0  0  0  0  0  0
   45.1228    4.0840   12.8977 C   0  0  0  0  0  0  0  0  0  0  0  0
   42.9220    8.9723   10.9772 C   0  0  0  0  0  0  0  0  0  0  0  0
   46.3636    4.0854   13.4820 C   0  0  0  0  0  0  0  0  0  0  0  0
   48.9472    9.7241   12.3419 C   0  0  0  0  0  0  0  0  0  0  0  0
   45.4055    7.2960   12.3603 H   0  0  0  0  0  0  0  0  0  0  0  0
   45.9954    8.7696   12.1688 H   0  0  0  0  0  0  0  0  0  0  0  0
   46.1030    8.6178   12.2929 H   0  0  0  0  0  0  0  0  0  0  0  0
   46.1031    8.6180   12.2929 H   0  0  0  0  0  0  0  0  0  0  0  0
   45.2932    3.7217   14.3888 H   0  0  0  0  0  0  0  0  0  0  0  0
   43.4934    2.9746   13.7600 H   0  0  0  0  0  0  0  0  0  0  0  0
   46.5468    9.1642   10.5952 H   0  0  0  0  0  0  0  0  0  0  0  0
   44.4252    8.6087   10.1558 H   0  0  0  0  0  0  0  0  0  0  0  0
   43.8539    9.1643   11.8041 H   0  0  0  0  0  0  0  0  0  0  0  0
   47.1576    5.4778   14.2555 H   0  0  0  0  0  0  0  0  0  0  0  0
   49.1939   10.3158   11.9324 H   0  0  0  0  0  0  0  0  0  0  0  0
   48.5435   10.9435   13.4943 H   0  0  0  0  0  0  0  0  0  0  0  0
   47.4207   11.0134   10.7437 H   0  0  0  0  0  0  0  0  0  0  0  0
   47.1602   12.1444   12.1390 H   0  0  0  0  0  0  0  0  0  0  0  0
   49.6168    8.8413   14.2429 H   0  0  0  0  0  0  0  0  0  0  0  0
   42.5730    7.0839   10.5793 H   0  0  0  0  0  0  0  0  0  0  0  0
   49.1284    6.6046   15.0255 H   0  0  0  0  0  0  0  0  0  0  0  0
   41.9998    4.7839   11.2503 H   0  0  0  0  0  0  0  0  0  0  0  0
   45.2698   12.3486   11.4135 H   0  0  0  0  0  0  0  0  0  0  0  0
   43.9595   11.2647   11.9235 H   0  0  0  0  0  0  0  0  0  0  0  0
   44.7802   11.0311   10.2941 H   0  0  0  0  0  0  0  0  0  0  0  0
   43.0212    4.4083   11.2324 H   0  0  0  0  0  0  0  0  0  0  0  0
   43.4688    2.8160   13.0183 H   0  0  0  0  0  0  0  0  0  0  0  0
   46.6164    9.5719   13.8472 H   0  0  0  0  0  0  0  0  0  0  0  0
   48.2365    7.4774   12.6162 H   0  0  0  0  0  0  0  0  0  0  0  0
   47.7055    7.6753   14.3407 H   0  0  0  0  0  0  0  0  0  0  0  0
   42.8205    6.9157   11.2812 H   0  0  0  0  0  0  0  0  0  0  0  0
   45.4019   11.9704   11.0232 H   0  0  0  0  0  0  0  0  0  0  0  0
   45.2741   11.9514   12.7986 H   0  0  0  0  0  0  0  0  0  0  0  0
   47.4906   11.5219   13.0513 H   0  0  0  0  0  0  0  0  0  0  0  0
   47.6193   11.6776   11.2571 H   0  0  0  0  0  0  0  0  0  0  0  0
   43.2679   11.0318   10.7928 H   0  0  0  0  0  0  0  0  0  0  0  0
   48.0083    5.2538   14.0507 H   0  0  0  0  0  0  0  0  0  0  0  0
   41.9589    9.0134   10.4892 H   0  0  0  0  0  0  0  0  0  0  0  0
   46.7531    3.1434   13.8314 H   0  0  0  0  0  0  0  0  0  0  0  0
   49.5011    8.8858   11.8610 H   0  0  0  0  0  0  0  0  0  0  0  0
   49.0563    9.7331   13.4590 H   0  0  0  0  0  0  0  0  0  0  0  0
   49.3780   10.7134   12.0080 H   0  0  0  0  0  0  0  0  0  0  0  0
  4 14  1  0
  5 20  1  0
  6  7  1  0
  6 17  1  0
  6 23  1  0
  7  8  1  0
  7 13  1  0
  8  9  1  0
  8 12  2  0
  9 10  1  0
  9 15  2  0
 10 11  2  0
 10 14  1  0
 11 13  1  0
 11 19  1  0
 12 16  1  0
 12 18  1  0
 14 20  2  0
 15 21  1  0
 16 17  1  0
 18 21  2  0
 19 22  2  0
 20 22  1  0
 24 34  1  0
 25 40  1  0
 26 27  1  0
 26 37  1  0
 26 43  1  0
 27 28  1  0
 27 33  1  0
 28 29  1  0
 28 32  2  0
 29 30  1  0
 29 35  2  0
 30 31  2  0
 30 34  1  0
 31 33  1  0
 31 39  1  0
 32 36  1  0
 32 38  1  0
 34 40  2  0
 35 41  1  0
 36 37  1  0
 38 41  2  0
 39 42  2  0
 40 42  1  0
  1 44  1  0
  1 45  1  0
  2 46  1  0
  3 47  1  0
  4 48  1  0
  5 49  1  0
  7 50  1  6
 13 51  1  0
 13 52  1  0
 15 53  1  0
 16 54  1  0
 16 55  1  0
 17 56  1  0
 17 57  1  0
 18 58  1  0
 19 59  1  0
 21 60  1  0
 22 61  1  0
 23 62  1  0
 23 63  1  0
 23 64  1  0
 24 65  1  0
 25 66  1  0
 27 67  1  1
 33 68  1  0
 33 69  1  0
 35 70  1  0
 36 71  1  0
 36 72  1  0
 37 73  1  0
 37 74  1  0
 38 75  1  0
 39 76  1  0
 41 77  1  0
 42 78  1  0
 43 79  1  0
 43 80  1  0
 43 81  1  0
M  END
> <Uni-Dock RESULT> 
ENERGY=   -8.331  LOWER_BOUND=    0.000  UPPER_BOUND=    0.000
INTER + INTRA:          -8.331
INTER:                  -8.331
INTRA:                   0.000
UNBOUND:                 0.000

$$$$

     RDKit          3D

 81 84  0  0  0  0  0  0  0  0999 V2000
   45.2716    6.7810   12.4508 O   0  0  0  0  0  0  0  0  0  0  0  0
   45.4701    7.5375   12.3895 Cl  0  0  0  0  0  0  0  0  0  0  0  0
   45.4701    7.5377   12.3894 Cl  0  0  0  0  0  0  0  0  0  0  0  0
   43.4513    9.8212   11.2924 O   0  0  0  0  0  0  0  0  0  0  0  0
   44.9236   12.0754   11.5007 O   0  0  0  0  0  0  0  0  0  0  0  0
   46.6450    4.9722   13.8564 N   0  0  0  0  0  0  0  0  0  0  0  0
   46.6234    5.9113   12.7363 C   0  0  1  0  0  0  0  0  0  0  0  0
   45.2094    6.0485   12.3368 C   0  0  0  0  0  0  0  0  0  0  0  0
   44.5624    7.1984   11.9974 C   0  0  0  0  0  0  0  0  0  0  0  0
   45.2913    8.4525   12.1231 C   0  0  0  0  0  0  0  0  0  0  0  0
   46.5696    8.3979   12.5787 C   0  0  0  0  0  0  0  0  0  0  0  0
   44.5017    4.8366   12.2747 C   0  0  0  0  0  0  0  0  0  0  0  0
   47.2776    7.1880   13.0324 C   0  0  0  0  0  0  0  0  0  0  0  0
   44.7389    9.6597   11.7652 C   0  0  0  0  0  0  0  0  0  0  0  0
   43.2561    7.1928   11.6005 C   0  0  0  0  0  0  0  0  0  0  0  0
   45.0887    3.5355   12.6206 C   0  0  0  0  0  0  0  0  0  0  0  0
   46.4171    3.6605   13.2837 C   0  0  0  0  0  0  0  0  0  0  0  0
   43.1741    4.8419   11.8707 C   0  0  0  0  0  0  0  0  0  0  0  0
   47.2928    9.5940   12.6677 C   0  0  0  0  0  0  0  0  0  0  0  0
   45.4787   10.8482   11.8620 C   0  0  0  0  0  0  0  0  0  0  0  0
   42.5263    5.9918   11.5291 C   0  0  0  0  0  0  0  0  0  0  0  0
   46.7702   10.8034   12.3196 C   0  0  0  0  0  0  0  0  0  0  0  0
   47.9124    4.9644   14.5239 C   0  0  0  0  0  0  0  0  0  0  0  0
   46.3187   10.6505   12.1340 O   0  0  0  0  0  0  0  0  0  0  0  0
   44.3358   11.6808   10.6251 O   0  0  0  0  0  0  0  0  0  0  0  0
   45.7127    4.4252   12.3920 N   0  0  0  0  0  0  0  0  0  0  0  0
   45.0793    5.6374   12.8981 C   0  0  1  0  0  0  0  0  0  0  0  0
   46.1997    6.5270   13.2688 C   0  0  0  0  0  0  0  0  0  0  0  0
   46.3109    7.8479   12.9398 C   0  0  0  0  0  0  0  0  0  0  0  0
   45.2834    8.4394   12.1171 C   0  0  0  0  0  0  0  0  0  0  0  0
   44.2508    7.6579   11.7006 C   0  0  0  0  0  0  0  0  0  0  0  0
   47.1983    5.9034   14.0456 C   0  0  0  0  0  0  0  0  0  0  0  0
   44.0873    6.2147   11.9799 C   0  0  0  0  0  0  0  0  0  0  0  0
   45.3218    9.7674   11.7683 C   0  0  0  0  0  0  0  0  0  0  0  0
   47.4020    8.5689   13.3712 C   0  0  0  0  0  0  0  0  0  0  0  0
   47.1343    4.4941   14.4268 C   0  0  0  0  0  0  0  0  0  0  0  0
   46.2699    3.7079   13.5131 C   0  0  0  0  0  0  0  0  0  0  0  0
   48.2762    6.6514   14.4607 C   0  0  0  0  0  0  0  0  0  0  0  0
   43.2362    8.2303   10.9164 C   0  0  0  0  0  0  0  0  0  0  0  0
   44.3039   10.3297   10.9845 C   0  0  0  0  0  0  0  0  0  0  0  0
   48.4153    7.9801   14.1471 C   0  0  0  0  0  0  0  0  0  0  0  0
   43.2553    9.5560   10.5568 C   0  0  0  0  0  0  0  0  0  0  0  0
   44.7868    3.5487   11.7126 C   0  0  0  0  0  0  0  0  0  0  0  0
   45.6188    7.7021   12.4171 H   0  0  0  0  0  0  0  0  0  0  0  0
   45.9684    6.1971   12.8279 H   0  0  0  0  0  0  0  0  0  0  0  0
   45.7691    6.2493   12.7410 H   0  0  0  0  0  0  0  0  0  0  0  0
   45.7691    6.2491   12.7410 H   0  0  0  0  0  0  0  0  0  0  0  0
   42.8667   10.6075   11.4754 H   0  0  0  0  0  0  0  0  0  0  0  0
   43.9742   12.3035   11.7750 H   0  0  0  0  0  0  0  0  0  0  0  0
   47.1591    5.4117   11.8783 H   0  0  0  0  0  0  0  0  0  0  0  0
   48.3125    7.1925   12.5865 H   0  0  0  0  0  0  0  0  0  0  0  0
   47.3619    7.2876   14.1483 H   0  0  0  0  0  0  0  0  0  0  0  0
   42.6798    8.0544   11.3193 H   0  0  0  0  0  0  0  0  0  0  0  0
   45.2012    2.9111   11.6918 H   0  0  0  0  0  0  0  0  0  0  0  0
   44.3810    2.9978   13.2968 H   0  0  0  0  0  0  0  0  0  0  0  0
   47.2121    3.4660   12.5240 H   0  0  0  0  0  0  0  0  0  0  0  0
   46.5109    2.9061   14.1015 H   0  0  0  0  0  0  0  0  0  0  0  0
   42.6203    3.9182   11.8188 H   0  0  0  0  0  0  0  0  0  0  0  0
   48.3224    9.5882   13.0285 H   0  0  0  0  0  0  0  0  0  0  0  0
   41.4942    5.9734   11.2172 H   0  0  0  0  0  0  0  0  0  0  0  0
   47.3084   11.7377   12.3800 H   0  0  0  0  0  0  0  0  0  0  0  0
   48.0342    3.9441   14.9639 H   0  0  0  0  0  0  0  0  0  0  0  0
   47.8635    5.6597   15.3873 H   0  0  0  0  0  0  0  0  0  0  0  0
   48.7851    5.1609   13.8757 H   0  0  0  0  0  0  0  0  0  0  0  0
   46.7465   11.3419   11.5360 H   0  0  0  0  0  0  0  0  0  0  0  0
   44.5572   12.3785   11.2951 H   0  0  0  0  0  0  0  0  0  0  0  0
   44.5311    5.3230   13.8359 H   0  0  0  0  0  0  0  0  0  0  0  0
   44.1835    5.7173   10.9635 H   0  0  0  0  0  0  0  0  0  0  0  0
   43.0404    6.0590   12.3316 H   0  0  0  0  0  0  0  0  0  0  0  0
   47.5711    9.6067   13.1605 H   0  0  0  0  0  0  0  0  0  0  0  0
   48.1845    4.1077   14.4506 H   0  0  0  0  0  0  0  0  0  0  0  0
   46.7500    4.3491   15.4764 H   0  0  0  0  0  0  0  0  0  0  0  0
   45.4056    3.2258   14.0299 H   0  0  0  0  0  0  0  0  0  0  0  0
   46.8978    2.8804   13.0739 H   0  0  0  0  0  0  0  0  0  0  0  0
   49.0502    6.1994   15.0535 H   0  0  0  0  0  0  0  0  0  0  0  0
   42.3982    7.6432   10.5660 H   0  0  0  0  0  0  0  0  0  0  0  0
   49.2712    8.5463   14.4854 H   0  0  0  0  0  0  0  0  0  0  0  0
   42.4959   10.0300    9.9570 H   0  0  0  0  0  0  0  0  0  0  0  0
   44.6804    3.7699   10.6261 H   0  0  0  0  0  0  0  0  0  0  0  0
   43.8051    3.5598   12.2567 H   0  0  0  0  0  0  0  0  0  0  0  0
   45.1777    2.4988   11.8565 H   0  0  0  0  0  0  0  0  0  0  0  0
  4 14  1  0
  5 20  1  0
  6  7  1  0
  6 17  1  0
  6 23  1  0
  7  8  1  0
  7 13  1  0
  8  9  1  0
  8 12  2  0
  9 10  1  0
  9 15  2  0
 10 11  2  0
 10 14  1  0
 11 13  1  0
 11 19  1  0
 12 16  1  0
 12 18  1  0
 14 20  2  0
 15 21  1  0
 16 17  1  0
 18 21  2  0
 19 22  2  0
 20 22  1  0
 24 34  1  0
 25 40  1  0
 26 27  1  0
 26 37  1  0
 26 43  1  0
 27 28  1  0
 27 33  1  0
 28 29  1  0
 28 32  2  0
 29 30  1  0
 29 35  2  0
 30 31  2  0
 30 34  1  0
 31 33  1  0
 31 39  1  0
 32 36  1  0
 32 38  1  0
 34 40  2  0
 35 41  1  0
 36 37  1  0
 38 41  2  0
 39 42  2  0
 40 42  1  0
  1 44  1  0
  1 45  1  0
  2 46  1  0
  3 47  1  0
  4 48  1  0
  5 49  1  0
  7 50  1  6
 13 51  1  0
 13 52  1  0
 15 53  1  0
 16 54  1  0
 16 55  1  0
 17 56  1  0
 17 57  1  0
 18 58  1  0
 19 59  1  0
 21 60  1  0
 22 61  1  0
 23 62  1  0
 23 63  1  0
 23 64  1  0
 24 65  1  0
 25 66  1  0
 27 67  1  1
 33 68  1  0
 33 69  1  0
 35 70  1  0
 36 71  1  0
 36 72  1  0
 37 73  1  0
 37 74  1  0
 38 75  1  0
 39 76  1  0
 41 77  1  0
 42 78  1  0
 43 79  1  0
 43 80  1  0
 43 81  1  0
M  END
> <Uni-Dock RESULT> 
ENERGY=   -8.285  LOWER_BOUND=    1.801  UPPER_BOUND=    5.519
INTER + INTRA:          -8.285
INTER:                  -8.285
INTRA:                   0.000
UNBOUND:                 0.000

$$$$

     RDKit          3D

 81 84  0  0  0  0  0  0  0  0999 V2000
   45.2716    6.7810   12.4508 O   0  0  0  0  0  0  0  0  0  0  0  0
   45.4701    7.5375   12.3895 Cl  0  0  0  0  0  0  0  0  0  0  0  0
   45.4701    7.5377   12.3894 Cl  0  0  0  0  0  0  0  0  0  0  0  0
   43.4513    9.8212   11.2924 O   0  0  0  0  0  0  0  0  0  0  0  0
   44.9236   12.0755   11.5007 O   0  0  0  0  0  0  0  0  0  0  0  0
   46.6451    4.9723   13.8564 N   0  0  0  0  0  0  0  0  0  0  0  0
   46.6234    5.9114   12.7363 C   0  0  1  0  0  0  0  0  0  0  0  0
   45.2095    6.0485   12.3368 C   0  0  0  0  0  0  0  0  0  0  0  0
   44.5624    7.1984   11.9974 C   0  0  0  0  0  0  0  0  0  0  0  0
   45.2913    8.4525   12.1231 C   0  0  0  0  0  0  0  0  0  0  0  0
   46.5696    8.3980   12.5787 C   0  0  0  0  0  0  0  0  0  0  0  0
   44.5018    4.8366   12.2747 C   0  0  0  0  0  0  0  0  0  0  0  0
   47.2776    7.1881   13.0325 C   0  0  0  0  0  0  0  0  0  0  0  0
   44.7389    9.6597   11.7652 C   0  0  0  0  0  0  0  0  0  0  0  0
   43.2561    7.1928   11.6006 C   0  0  0  0  0  0  0  0  0  0  0  0
   45.0888    3.5355   12.6206 C   0  0  0  0  0  0  0  0  0  0  0  0
   46.4171    3.6606   13.2837 C   0  0  0  0  0  0  0  0  0  0  0  0
   43.1741    4.8419   11.8708 C   0  0  0  0  0  0  0  0  0  0  0  0
   47.2928    9.5941   12.6677 C   0  0  0  0  0  0  0  0  0  0  0  0
   45.4787   10.8483   11.8619 C   0  0  0  0  0  0  0  0  0  0  0  0
   42.5263    5.9918   11.5291 C   0  0  0  0  0  0  0  0  0  0  0  0
   46.7701   10.8035   12.3195 C   0  0  0  0  0  0  0  0  0  0  0  0
   47.9124    4.9645   14.5239 C   0  0  0  0  0  0  0  0  0  0  0  0
   46.3186   10.6505   12.1340 O   0  0  0  0  0  0  0  0  0  0  0  0
   44.3357   11.6808   10.6250 O   0  0  0  0  0  0  0  0  0  0  0  0
   45.7127    4.4253   12.3921 N   0  0  0  0  0  0  0  0  0  0  0  0
   45.0794    5.6374   12.8981 C   0  0  1  0  0  0  0  0  0  0  0  0
   46.1997    6.5271   13.2688 C   0  0  0  0  0  0  0  0  0  0  0  0
   46.3109    7.8479   12.9398 C   0  0  0  0  0  0  0  0  0  0  0  0
   45.2834    8.4394   12.1171 C   0  0  0  0  0  0  0  0  0  0  0  0
   44.2508    7.6579   11.7006 C   0  0  0  0  0  0  0  0  0  0  0  0
   47.1983    5.9035   14.0456 C   0  0  0  0  0  0  0  0  0  0  0  0
   44.0874    6.2147   11.9799 C   0  0  0  0  0  0  0  0  0  0  0  0
   45.3218    9.7674   11.7683 C   0  0  0  0  0  0  0  0  0  0  0  0
   47.4020    8.5690   13.3712 C   0  0  0  0  0  0  0  0  0  0  0  0
   47.1344    4.4942   14.4269 C   0  0  0  0  0  0  0  0  0  0  0  0
   46.2700    3.7079   13.5132 C   0  0  0  0  0  0  0  0  0  0  0  0
   48.2763    6.6515   14.4607 C   0  0  0  0  0  0  0  0  0  0  0  0
   43.2362    8.2303   10.9164 C   0  0  0  0  0  0  0  0  0  0  0  0
   44.3039   10.3297   10.9845 C   0  0  0  0  0  0  0  0  0  0  0  0
   48.4153    7.9802   14.1471 C   0  0  0  0  0  0  0  0  0  0  0  0
   43.2553    9.5560   10.5567 C   0  0  0  0  0  0  0  0  0  0  0  0
   44.7869    3.5487   11.7127 C   0  0  0  0  0  0  0  0  0  0  0  0
   45.6188    7.7022   12.4170 H   0  0  0  0  0  0  0  0  0  0  0  0
   45.9685    6.1971   12.8279 H   0  0  0  0  0  0  0  0  0  0  0  0
   45.7691    6.2493   12.7410 H   0  0  0  0  0  0  0  0  0  0  0  0
   45.7692    6.2491   12.7411 H   0  0  0  0  0  0  0  0  0  0  0  0
   42.8666   10.6075   11.4753 H   0  0  0  0  0  0  0  0  0  0  0  0
   43.9741   12.3035   11.7749 H   0  0  0  0  0  0  0  0  0  0  0  0
   47.1592    5.4118   11.8783 H   0  0  0  0  0  0  0  0  0  0  0  0
   48.3125    7.1926   12.5865 H   0  0  0  0  0  0  0  0  0  0  0  0
   47.3619    7.2877   14.1483 H   0  0  0  0  0  0  0  0  0  0  0  0
   42.6798    8.0544   11.3193 H   0  0  0  0  0  0  0  0  0  0  0  0
   45.2013    2.9111   11.6918 H   0  0  0  0  0  0  0  0  0  0  0  0
   44.3811    2.9978   13.2968 H   0  0  0  0  0  0  0  0  0  0  0  0
   47.2121    3.4661   12.5240 H   0  0  0  0  0  0  0  0  0  0  0  0
   46.5110    2.9062   14.1015 H   0  0  0  0  0  0  0  0  0  0  0  0
   42.6204    3.9182   11.8189 H   0  0  0  0  0  0  0  0  0  0  0  0
   48.3224    9.5883   13.0285 H   0  0  0  0  0  0  0  0  0  0  0  0
   41.4942    5.9734   11.2172 H   0  0  0  0  0  0  0  0  0  0  0  0
   47.3083   11.7377   12.3799 H   0  0  0  0  0  0  0  0  0  0  0  0
   48.0343    3.9442   14.9639 H   0  0  0  0  0  0  0  0  0  0  0  0
   47.8636    5.6598   15.3873 H   0  0  0  0  0  0  0  0  0  0  0  0
   48.7852    5.1610   13.8758 H   0  0  0  0  0  0  0  0  0  0  0  0
   46.7464   11.3420   11.5360 H   0  0  0  0  0  0  0  0  0  0  0  0
   44.5571   12.3785   11.2950 H   0  0  0  0  0  0  0  0  0  0  0  0
   44.5311    5.3230   13.8359 H   0  0  0  0  0  0  0  0  0  0  0  0
   44.1835    5.7173   10.9635 H   0  0  0  0  0  0  0  0  0  0  0  0
   43.0404    6.0589   12.3316 H   0  0  0  0  0  0  0  0  0  0  0  0
   47.5710    9.6068   13.1605 H   0  0  0  0  0  0  0  0  0  0  0  0
   48.1846    4.1078   14.4507 H   0  0  0  0  0  0  0  0  0  0  0  0
   46.7500    4.3492   15.4765 H   0  0  0  0  0  0  0  0  0  0  0  0
   45.4057    3.2259   14.0300 H   0  0  0  0  0  0  0  0  0  0  0  0
   46.8979    2.8804   13.0739 H   0  0  0  0  0  0  0  0  0  0  0  0
   49.0503    6.1995   15.0535 H   0  0  0  0  0  0  0  0  0  0  0  0
   42.3982    7.6431   10.5660 H   0  0  0  0  0  0  0  0  0  0  0  0
   49.2712    8.5465   14.4854 H   0  0  0  0  0  0  0  0  0  0  0  0
   42.4959   10.0300    9.9570 H   0  0  0  0  0  0  0  0  0  0  0  0
   44.6805    3.7698   10.6261 H   0  0  0  0  0  0  0  0  0  0  0  0
   43.8052    3.5598   12.2568 H   0  0  0  0  0  0  0  0  0  0  0  0
   45.1778    2.4989   11.8565 H   0  0  0  0  0  0  0  0  0  0  0  0
  4 14  1  0
  5 20  1  0
  6  7  1  0
  6 17  1  0
  6 23  1  0
  7  8  1  0
  7 13  1  0
  8  9  1  0
  8 12  2  0
  9 10  1  0
  9 15  2  0
 10 11  2  0
 10 14  1  0
 11 13  1  0
 11 19  1  0
 12 16  1  0
 12 18  1  0
 14 20  2  0
 15 21  1  0
 16 17  1  0
 18 21  2  0
 19 22  2  0
 20 22  1  0
 24 34  1  0
 25 40  1  0
 26 27  1  0
 26 37  1  0
 26 43  1  0
 27 28  1  0
 27 33  1  0
 28 29  1  0
 28 32  2  0
 29 30  1  0
 29 35  2  0
 30 31  2  0
 30 34  1  0
 31 33  1  0
 31 39  1  0
 32 36  1  0
 32 38  1  0
 34 40  2  0
 35 41  1  0
 36 37  1  0
 38 41  2  0
 39 42  2  0
 40 42  1  0
  1 44  1  0
  1 45  1  0
  2 46  1  0
  3 47  1  0
  4 48  1  0
  5 49  1  0
  7 50  1  6
 13 51  1  0
 13 52  1  0
 15 53  1  0
 16 54  1  0
 16 55  1  0
 17 56  1  0
 17 57  1  0
 18 58  1  0
 19 59  1  0
 21 60  1  0
 22 61  1  0
 23 62  1  0
 23 63  1  0
 23 64  1  0
 24 65  1  0
 25 66  1  0
 27 67  1  1
 33 68  1  0
 33 69  1  0
 35 70  1  0
 36 71  1  0
 36 72  1  0
 37 73  1  0
 37 74  1  0
 38 75  1  0
 39 76  1  0
 41 77  1  0
 42 78  1  0
 43 79  1  0
 43 80  1  0
 43 81  1  0
M  END
> <Uni-Dock RESULT> 
ENERGY=   -8.285  LOWER_BOUND=    1.801  UPPER_BOUND=    5.519
INTER + INTRA:          -8.285
INTER:                  -8.285
INTRA:                   0.000
UNBOUND:                 0.000

$$$$

     RDKit          3D

 81 84  0  0  0  0  0  0  0  0999 V2000
   45.5841    8.1517   12.0778 O   0  0  0  0  0  0  0  0  0  0  0  0
   45.6386    7.4071   12.3191 Cl  0  0  0  0  0  0  0  0  0  0  0  0
   45.6385    7.4070   12.3192 Cl  0  0  0  0  0  0  0  0  0  0  0  0
   43.3916    5.1629   11.6801 O   0  0  0  0  0  0  0  0  0  0  0  0
   44.4284    2.9370   12.8040 O   0  0  0  0  0  0  0  0  0  0  0  0
   47.6178    9.8830   12.0622 N   0  0  0  0  0  0  0  0  0  0  0  0
   46.7251    9.0309   12.8459 C   0  0  1  0  0  0  0  0  0  0  0  0
   45.4870    8.8889   12.0557 C   0  0  0  0  0  0  0  0  0  0  0  0
   44.7591    7.7520   11.8715 C   0  0  0  0  0  0  0  0  0  0  0  0
   45.2839    6.5107   12.4226 C   0  0  0  0  0  0  0  0  0  0  0  0
   46.4713    6.5627   13.0798 C   0  0  0  0  0  0  0  0  0  0  0  0
   45.0223   10.0838   11.4817 C   0  0  0  0  0  0  0  0  0  0  0  0
   47.3276    7.7523   13.2305 C   0  0  0  0  0  0  0  0  0  0  0  0
   44.6023    5.3205   12.3256 C   0  0  0  0  0  0  0  0  0  0  0  0
   43.5998    7.7548   11.1505 C   0  0  0  0  0  0  0  0  0  0  0  0
   45.7215   11.3694   11.6060 C   0  0  0  0  0  0  0  0  0  0  0  0
   47.0904   11.2281   12.1769 C   0  0  0  0  0  0  0  0  0  0  0  0
   43.8431   10.0757   10.7501 C   0  0  0  0  0  0  0  0  0  0  0  0
   46.9671    5.3819   13.6467 C   0  0  0  0  0  0  0  0  0  0  0  0
   45.1152    4.1470   12.8994 C   0  0  0  0  0  0  0  0  0  0  0  0
   43.1130    8.9390   10.5669 C   0  0  0  0  0  0  0  0  0  0  0  0
   46.3124    4.1895   13.5658 C   0  0  0  0  0  0  0  0  0  0  0  0
   48.9551    9.8721   12.5752 C   0  0  0  0  0  0  0  0  0  0  0  0
   45.8814    4.3447   13.3381 O   0  0  0  0  0  0  0  0  0  0  0  0
   43.3994    3.3818   12.9103 O   0  0  0  0  0  0  0  0  0  0  0  0
   45.9258   10.5154   12.2859 N   0  0  0  0  0  0  0  0  0  0  0  0
   45.8390    9.2530   11.5611 C   0  0  1  0  0  0  0  0  0  0  0  0
   46.8204    8.3663   12.2203 C   0  0  0  0  0  0  0  0  0  0  0  0
   46.5938    7.0773   12.6106 C   0  0  0  0  0  0  0  0  0  0  0  0
   45.2747    6.5240   12.4197 C   0  0  0  0  0  0  0  0  0  0  0  0
   44.3124    7.3086   11.8639 C   0  0  0  0  0  0  0  0  0  0  0  0
   48.0873    8.9543   12.4175 C   0  0  0  0  0  0  0  0  0  0  0  0
   44.4722    8.7220   11.4586 C   0  0  0  0  0  0  0  0  0  0  0  0
   44.9848    5.2276   12.7688 C   0  0  0  0  0  0  0  0  0  0  0  0
   47.6083    6.3533   13.1964 C   0  0  0  0  0  0  0  0  0  0  0  0
   48.3879   10.3287   12.0223 C   0  0  0  0  0  0  0  0  0  0  0  0
   47.1636   11.1598   11.9190 C   0  0  0  0  0  0  0  0  0  0  0  0
   49.0798    8.2044   13.0059 C   0  0  0  0  0  0  0  0  0  0  0  0
   43.0315    6.7717   11.6561 C   0  0  0  0  0  0  0  0  0  0  0  0
   43.7025    4.7007   12.5575 C   0  0  0  0  0  0  0  0  0  0  0  0
   48.8828    6.9071   13.4075 C   0  0  0  0  0  0  0  0  0  0  0  0
   42.7208    5.4779   11.9977 C   0  0  0  0  0  0  0  0  0  0  0  0
   44.8405   11.4173   11.9764 C   0  0  0  0  0  0  0  0  0  0  0  0
   45.7508    7.2447   12.4240 H   0  0  0  0  0  0  0  0  0  0  0  0
   46.3503    8.7227   12.3135 H   0  0  0  0  0  0  0  0  0  0  0  0
   46.1515    8.6722   12.2244 H   0  0  0  0  0  0  0  0  0  0  0  0
   46.1515    8.6724   12.2244 H   0  0  0  0  0  0  0  0  0  0  0  0
   43.1115    4.3506   11.1748 H   0  0  0  0  0  0  0  0  0  0  0  0
   43.9987    2.6651   11.9264 H   0  0  0  0  0  0  0  0  0  0  0  0
   46.4549    9.6072   13.7774 H   0  0  0  0  0  0  0  0  0  0  0  0
   47.6755    7.8075   14.3010 H   0  0  0  0  0  0  0  0  0  0  0  0
   48.2166    7.5708   12.5680 H   0  0  0  0  0  0  0  0  0  0  0  0
   42.9739    6.9026   10.9616 H   0  0  0  0  0  0  0  0  0  0  0  0
   45.1239   12.0648   12.2576 H   0  0  0  0  0  0  0  0  0  0  0  0
   45.7837   11.8366   10.5935 H   0  0  0  0  0  0  0  0  0  0  0  0
   47.0526   11.4992   13.2595 H   0  0  0  0  0  0  0  0  0  0  0  0
   47.7964   11.9206   11.6586 H   0  0  0  0  0  0  0  0  0  0  0  0
   43.4760   10.9865   10.3048 H   0  0  0  0  0  0  0  0  0  0  0  0
   47.9173    5.3863   14.1827 H   0  0  0  0  0  0  0  0  0  0  0  0
   42.1988    8.9550    9.9952 H   0  0  0  0  0  0  0  0  0  0  0  0
   46.6751    3.2672   13.9945 H   0  0  0  0  0  0  0  0  0  0  0  0
   49.4068   10.8590   12.3078 H   0  0  0  0  0  0  0  0  0  0  0  0
   49.5428    9.1126   12.0193 H   0  0  0  0  0  0  0  0  0  0  0  0
   49.0366    9.7471   13.6698 H   0  0  0  0  0  0  0  0  0  0  0  0
   45.6870    3.7113   14.0995 H   0  0  0  0  0  0  0  0  0  0  0  0
   44.0202    2.6413   12.6846 H   0  0  0  0  0  0  0  0  0  0  0  0
   46.1937    9.4818   10.5120 H   0  0  0  0  0  0  0  0  0  0  0  0
   43.7929    9.2970   12.1641 H   0  0  0  0  0  0  0  0  0  0  0  0
   44.0517    8.8244   10.4307 H   0  0  0  0  0  0  0  0  0  0  0  0
   47.5200    5.3390   13.5330 H   0  0  0  0  0  0  0  0  0  0  0  0
   49.1142   10.7385   12.7689 H   0  0  0  0  0  0  0  0  0  0  0  0
   48.9278   10.3843   11.0344 H   0  0  0  0  0  0  0  0  0  0  0  0
   47.0006   11.5795   10.8974 H   0  0  0  0  0  0  0  0  0  0  0  0
   47.2816   12.0336   12.6222 H   0  0  0  0  0  0  0  0  0  0  0  0
   50.0535    8.6296   13.1669 H   0  0  0  0  0  0  0  0  0  0  0  0
   42.2393    7.3624   11.2165 H   0  0  0  0  0  0  0  0  0  0  0  0
   49.6785    6.3386   13.8671 H   0  0  0  0  0  0  0  0  0  0  0  0
   41.7507    5.0316   11.8537 H   0  0  0  0  0  0  0  0  0  0  0  0
   43.9460   11.2762   12.6251 H   0  0  0  0  0  0  0  0  0  0  0  0
   44.6006   11.3404   10.8825 H   0  0  0  0  0  0  0  0  0  0  0  0
   45.2486   12.4627   12.1034 H   0  0  0  0  0  0  0  0  0  0  0  0
  4 14  1  0
  5 20  1  0
  6  7  1  0
  6 17  1  0
  6 23  1  0
  7  8  1  0
  7 13  1  0
  8  9  1  0
  8 12  2  0
  9 10  1  0
  9 15  2  0
 10 11  2  0
 10 14  1  0
 11 13  1  0
 11 19  1  0
 12 16  1  0
 12 18  1  0
 14 20  2  0
 15 21  1  0
 16 17  1  0
 18 21  2  0
 19 22  2  0
 20 22  1  0
 24 34  1  0
 25 40  1  0
 26 27  1  0
 26 37  1  0
 26 43  1  0
 27 28  1  0
 27 33  1  0
 28 29  1  0
 28 32  2  0
 29 30  1  0
 29 35  2  0
 30 31  2  0
 30 34  1  0
 31 33  1  0
 31 39  1  0
 32 36  1  0
 32 38  1  0
 34 40  2  0
 35 41  1  0
 36 37  1  0
 38 41  2  0
 39 42  2  0
 40 42  1  0
  1 44  1  0
  1 45  1  0
  2 46  1  0
  3 47  1  0
  4 48  1  0
  5 49  1  0
  7 50  1  6
 13 51  1  0
 13 52  1  0
 15 53  1  0
 16 54  1  0
 16 55  1  0
 17 56  1  0
 17 57  1  0
 18 58  1  0
 19 59  1  0
 21 60  1  0
 22 61  1  0
 23 62  1  0
 23 63  1  0
 23 64  1  0
 24 65  1  0
 25 66  1  0
 27 67  1  1
 33 68  1  0
 33 69  1  0
 35 70  1  0
 36 71  1  0
 36 72  1  0
 37 73  1  0
 37 74  1  0
 38 75  1  0
 39 76  1  0
 41 77  1  0
 42 78  1  0
 43 79  1  0
 43 80  1  0
 43 81  1  0
M  END
> <Uni-Dock RESULT> 
ENERGY=   -7.919  LOWER_BOUND=    0.395  UPPER_BOUND=    3.264
INTER + INTRA:          -7.919
INTER:                  -7.919
INTRA:                   0.000
UNBOUND:                 0.000

$$$$

     RDKit          3D

 81 84  0  0  0  0  0  0  0  0999 V2000
   46.0198    7.0359   12.6289 O   0  0  0  0  0  0  0  0  0  0  0  0
   45.4923    7.5067   12.2889 Cl  0  0  0  0  0  0  0  0  0  0  0  0
   45.4922    7.5069   12.2888 Cl  0  0  0  0  0  0  0  0  0  0  0  0
   46.1068   10.5886   11.5024 O   0  0  0  0  0  0  0  0  0  0  0  0
   43.8020   11.3836   10.3410 O   0  0  0  0  0  0  0  0  0  0  0  0
   45.7930    4.3788   12.7778 N   0  0  0  0  0  0  0  0  0  0  0  0
   45.2563    5.6882   13.1445 C   0  0  1  0  0  0  0  0  0  0  0  0
   46.3961    6.6253   13.1219 C   0  0  0  0  0  0  0  0  0  0  0  0
   46.4036    7.8935   12.6243 C   0  0  0  0  0  0  0  0  0  0  0  0
   45.2021    8.3689   11.9533 C   0  0  0  0  0  0  0  0  0  0  0  0
   44.1507    7.5144   11.8586 C   0  0  0  0  0  0  0  0  0  0  0  0
   47.5669    6.1327   13.7221 C   0  0  0  0  0  0  0  0  0  0  0  0
   44.1298    6.1119   12.3096 C   0  0  0  0  0  0  0  0  0  0  0  0
   45.0979    9.6466   11.4560 C   0  0  0  0  0  0  0  0  0  0  0  0
   47.5139    8.6844   12.7004 C   0  0  0  0  0  0  0  0  0  0  0  0
   47.6821    4.7825   14.2884 C   0  0  0  0  0  0  0  0  0  0  0  0
   46.5280    3.9089   13.9351 C   0  0  0  0  0  0  0  0  0  0  0  0
   48.6902    6.9443   13.7937 C   0  0  0  0  0  0  0  0  0  0  0  0
   42.9766    7.9737   11.2487 C   0  0  0  0  0  0  0  0  0  0  0  0
   43.9134   10.0890   10.8473 C   0  0  0  0  0  0  0  0  0  0  0  0
   48.6981    8.2143   13.2977 C   0  0  0  0  0  0  0  0  0  0  0  0
   42.8462    9.2344   10.7480 C   0  0  0  0  0  0  0  0  0  0  0  0
   44.7539    3.4376   12.4843 C   0  0  0  0  0  0  0  0  0  0  0  0
   43.2933    9.4321   10.8984 O   0  0  0  0  0  0  0  0  0  0  0  0
   44.4015   11.8766   11.1568 O   0  0  0  0  0  0  0  0  0  0  0  0
   46.6994    5.2592   14.0879 N   0  0  0  0  0  0  0  0  0  0  0  0
   46.7623    6.0708   12.8780 C   0  0  1  0  0  0  0  0  0  0  0  0
   45.4096    5.9837   12.2893 C   0  0  0  0  0  0  0  0  0  0  0  0
   44.6711    7.0367   11.8298 C   0  0  0  0  0  0  0  0  0  0  0  0
   45.2144    8.3668   11.9640 C   0  0  0  0  0  0  0  0  0  0  0  0
   46.4352    8.5172   12.5450 C   0  0  0  0  0  0  0  0  0  0  0  0
   44.9012    4.6707   12.2047 C   0  0  0  0  0  0  0  0  0  0  0  0
   47.2700    7.4316   13.1037 C   0  0  0  0  0  0  0  0  0  0  0  0
   44.5347    9.4676   11.5027 C   0  0  0  0  0  0  0  0  0  0  0  0
   43.4281    6.8107   11.2819 C   0  0  0  0  0  0  0  0  0  0  0  0
   45.6442    3.5060   12.6809 C   0  0  0  0  0  0  0  0  0  0  0  0
   46.6623    3.8709   13.6961 C   0  0  0  0  0  0  0  0  0  0  0  0
   43.6555    4.4784   11.6521 C   0  0  0  0  0  0  0  0  0  0  0  0
   46.9802    9.8062   12.6615 C   0  0  0  0  0  0  0  0  0  0  0  0
   45.0873   10.7508   11.6238 C   0  0  0  0  0  0  0  0  0  0  0  0
   42.8907    5.5158   11.1811 C   0  0  0  0  0  0  0  0  0  0  0  0
   46.3173   10.9201   12.2065 C   0  0  0  0  0  0  0  0  0  0  0  0
   47.8395    5.4516   14.9540 C   0  0  0  0  0  0  0  0  0  0  0  0
   45.2890    7.5398   12.2019 H   0  0  0  0  0  0  0  0  0  0  0  0
   45.7142    6.1137   12.7863 H   0  0  0  0  0  0  0  0  0  0  0  0
   45.8565    6.2862   12.7892 H   0  0  0  0  0  0  0  0  0  0  0  0
   45.8565    6.2861   12.7892 H   0  0  0  0  0  0  0  0  0  0  0  0
   46.2845   11.2749   10.8017 H   0  0  0  0  0  0  0  0  0  0  0  0
   44.5669   11.7897    9.8129 H   0  0  0  0  0  0  0  0  0  0  0  0
   44.9143    5.6144   14.2171 H   0  0  0  0  0  0  0  0  0  0  0  0
   43.1639    5.9292   12.8606 H   0  0  0  0  0  0  0  0  0  0  0  0
   44.1365    5.4927   11.3722 H   0  0  0  0  0  0  0  0  0  0  0  0
   47.5972    9.6898   12.3319 H   0  0  0  0  0  0  0  0  0  0  0  0
   47.7624    4.8465   15.4085 H   0  0  0  0  0  0  0  0  0  0  0  0
   48.6288    4.3228   13.9147 H   0  0  0  0  0  0  0  0  0  0  0  0
   45.8291    3.8758   14.8053 H   0  0  0  0  0  0  0  0  0  0  0  0
   46.8825    2.8719   13.7207 H   0  0  0  0  0  0  0  0  0  0  0  0
   49.5946    6.5778   14.2520 H   0  0  0  0  0  0  0  0  0  0  0  0
   42.1116    7.3154   11.1559 H   0  0  0  0  0  0  0  0  0  0  0  0
   49.5819    8.8285   13.3644 H   0  0  0  0  0  0  0  0  0  0  0  0
   41.9516    9.6100   10.2739 H   0  0  0  0  0  0  0  0  0  0  0  0
   45.1621    2.4261   12.7289 H   0  0  0  0  0  0  0  0  0  0  0  0
   44.5776    3.4330   11.3887 H   0  0  0  0  0  0  0  0  0  0  0  0
   43.8205    3.5750   13.0590 H   0  0  0  0  0  0  0  0  0  0  0  0
   42.5323   10.0726   11.0698 H   0  0  0  0  0  0  0  0  0  0  0  0
   43.9637   11.8701   10.2663 H   0  0  0  0  0  0  0  0  0  0  0  0
   47.4960    5.5434   12.1981 H   0  0  0  0  0  0  0  0  0  0  0  0
   47.2968    7.6413   14.2195 H   0  0  0  0  0  0  0  0  0  0  0  0
   48.3048    7.5704   12.7115 H   0  0  0  0  0  0  0  0  0  0  0  0
   42.7811    7.5749   10.8977 H   0  0  0  0  0  0  0  0  0  0  0  0
   44.8966    2.7735   13.0777 H   0  0  0  0  0  0  0  0  0  0  0  0
   46.1687    2.9592   11.8465 H   0  0  0  0  0  0  0  0  0  0  0  0
   47.7037    3.6101   13.3897 H   0  0  0  0  0  0  0  0  0  0  0  0
   46.4361    3.2873   14.6343 H   0  0  0  0  0  0  0  0  0  0  0  0
   43.2462    3.4878   11.5763 H   0  0  0  0  0  0  0  0  0  0  0  0
   47.9479    9.9679   13.1165 H   0  0  0  0  0  0  0  0  0  0  0  0
   41.9153    5.3391   10.7510 H   0  0  0  0  0  0  0  0  0  0  0  0
   46.7030   11.9237   12.2783 H   0  0  0  0  0  0  0  0  0  0  0  0
   47.7091    6.2840   15.6828 H   0  0  0  0  0  0  0  0  0  0  0  0
   48.7624    5.5649   14.3254 H   0  0  0  0  0  0  0  0  0  0  0  0
   47.9901    4.4768   15.5042 H   0  0  0  0  0  0  0  0  0  0  0  0
  4 14  1  0
  5 20  1  0
  6  7  1  0
  6 17  1  0
  6 23  1  0
  7  8  1  0
  7 13  1  0
  8  9  1  0
  8 12  2  0
  9 10  1  0
  9 15  2  0
 10 11  2  0
 10 14  1  0
 11 13  1  0
 11 19  1  0
 12 16  1  0
 12 18  1  0
 14 20  2  0
 15 21  1  0
 16 17  1  0
 18 21  2  0
 19 22  2  0
 20 22  1  0
 24 34  1  0
 25 40  1  0
 26 27  1  0
 26 37  1  0
 26 43  1  0
 27 28  1  0
 27 33  1  0
 28 29  1  0
 28 32  2  0
 29 30  1  0
 29 35  2  0
 30 31  2  0
 30 34  1  0
 31 33  1  0
 31 39  1  0
 32 36  1  0
 32 38  1  0
 34 40  2  0
 35 41  1  0
 36 37  1  0
 38 41  2  0
 39 42  2  0
 40 42  1  0
  1 44  1  0
  1 45  1  0
  2 46  1  0
  3 47  1  0
  4 48  1  0
  5 49  1  0
  7 50  1  6
 13 51  1  0
 13 52  1  0
 15 53  1  0
 16 54  1  0
 16 55  1  0
 17 56  1  0
 17 57  1  0
 18 58  1  0
 19 59  1  0
 21 60  1  0
 22 61  1  0
 23 62  1  0
 23 63  1  0
 23 64  1  0
 24 65  1  0
 25 66  1  0
 27 67  1  1
 33 68  1  0
 33 69  1  0
 35 70  1  0
 36 71  1  0
 36 72  1  0
 37 73  1  0
 37 74  1  0
 38 75  1  0
 39 76  1  0
 41 77  1  0
 42 78  1  0
 43 79  1  0
 43 80  1  0
 43 81  1  0
M  END
> <Uni-Dock RESULT> 
ENERGY=   -7.892  LOWER_BOUND=    1.801  UPPER_BOUND=    4.670
INTER + INTRA:          -7.892
INTER:                  -7.892
INTRA:                   0.000
UNBOUND:                 0.000

$$$$

     RDKit          3D

 81 84  0  0  0  0  0  0  0  0999 V2000
   48.0292    7.8542   20.1586 O   0  0  0  0  0  0  0  0  0  0  0  0
   48.0145    8.3872   19.5831 Cl  0  0  0  0  0  0  0  0  0  0  0  0
   48.0145    8.3874   19.5830 Cl  0  0  0  0  0  0  0  0  0  0  0  0
   47.4197   11.5314   20.0880 O   0  0  0  0  0  0  0  0  0  0  0  0
   47.6440   12.5904   17.6139 O   0  0  0  0  0  0  0  0  0  0  0  0
   49.0599    5.4022   19.9148 N   0  0  0  0  0  0  0  0  0  0  0  0
   48.0475    6.3662   19.4872 C   0  0  1  0  0  0  0  0  0  0  0  0
   47.8551    7.2952   20.6175 C   0  0  0  0  0  0  0  0  0  0  0  0
   47.7164    8.6489   20.5503 C   0  0  0  0  0  0  0  0  0  0  0  0
   47.8629    9.2846   19.2486 C   0  0  0  0  0  0  0  0  0  0  0  0
   48.1366    8.4881   18.1831 C   0  0  0  0  0  0  0  0  0  0  0  0
   47.7726    6.6736   21.8745 C   0  0  0  0  0  0  0  0  0  0  0  0
   48.3742    7.0346   18.2254 C   0  0  0  0  0  0  0  0  0  0  0  0
   47.6989   10.6383   19.0721 C   0  0  0  0  0  0  0  0  0  0  0  0
   47.4988    9.4013   21.6685 C   0  0  0  0  0  0  0  0  0  0  0  0
   47.9113    5.2252   22.0742 C   0  0  0  0  0  0  0  0  0  0  0  0
   48.4001    4.5197   20.8563 C   0  0  0  0  0  0  0  0  0  0  0  0
   47.5518    7.4475   23.0051 C   0  0  0  0  0  0  0  0  0  0  0  0
   48.2422    9.0842   16.9202 C   0  0  0  0  0  0  0  0  0  0  0  0
   47.8091   11.2181   17.7989 C   0  0  0  0  0  0  0  0  0  0  0  0
   47.4110    8.8019   22.9385 C   0  0  0  0  0  0  0  0  0  0  0  0
   48.0839   10.4224   16.7170 C   0  0  0  0  0  0  0  0  0  0  0  0
   49.5485    4.6181   18.8202 C   0  0  0  0  0  0  0  0  0  0  0  0
   47.9465   10.5642   17.1889 O   0  0  0  0  0  0  0  0  0  0  0  0
   46.8209   12.7091   18.3732 O   0  0  0  0  0  0  0  0  0  0  0  0
   47.6875    5.6677   21.0806 N   0  0  0  0  0  0  0  0  0  0  0  0
   48.3870    6.9368   20.9170 C   0  0  1  0  0  0  0  0  0  0  0  0
   48.6880    7.0232   19.4728 C   0  0  0  0  0  0  0  0  0  0  0  0
   48.4748    8.1132   18.6781 C   0  0  0  0  0  0  0  0  0  0  0  0
   47.8568    9.2788   19.2627 C   0  0  0  0  0  0  0  0  0  0  0  0
   47.5092    9.2427   20.5774 C   0  0  0  0  0  0  0  0  0  0  0  0
   49.2616    5.8533   18.9325 C   0  0  0  0  0  0  0  0  0  0  0  0
   47.6687    8.0863   21.4856 C   0  0  0  0  0  0  0  0  0  0  0  0
   47.6344   10.4167   18.5261 C   0  0  0  0  0  0  0  0  0  0  0  0
   48.8236    8.0656   17.3467 C   0  0  0  0  0  0  0  0  0  0  0  0
   49.5117    4.6565   19.7329 C   0  0  0  0  0  0  0  0  0  0  0  0
   48.6506    4.6025   20.9395 C   0  0  0  0  0  0  0  0  0  0  0  0
   49.5987    5.8376   17.5984 C   0  0  0  0  0  0  0  0  0  0  0  0
   46.9256   10.3796   21.1594 C   0  0  0  0  0  0  0  0  0  0  0  0
   47.0508   11.5469   19.1164 C   0  0  0  0  0  0  0  0  0  0  0  0
   49.3976    6.9169   16.7751 C   0  0  0  0  0  0  0  0  0  0  0  0
   46.6948   11.5275   20.4408 C   0  0  0  0  0  0  0  0  0  0  0  0
   47.0572    5.5357   22.3738 C   0  0  0  0  0  0  0  0  0  0  0  0
   48.0376    8.4407   19.3672 H   0  0  0  0  0  0  0  0  0  0  0  0
   48.2525    6.9392   19.8727 H   0  0  0  0  0  0  0  0  0  0  0  0
   48.1984    7.1022   20.0160 H   0  0  0  0  0  0  0  0  0  0  0  0
   48.1984    7.1020   20.0160 H   0  0  0  0  0  0  0  0  0  0  0  0
   47.7532   12.4695   20.1358 H   0  0  0  0  0  0  0  0  0  0  0  0
   48.0630   13.2445   18.2661 H   0  0  0  0  0  0  0  0  0  0  0  0
   47.0819    5.7958   19.3641 H   0  0  0  0  0  0  0  0  0  0  0  0
   47.7967    6.5547   17.3851 H   0  0  0  0  0  0  0  0  0  0  0  0
   49.4732    6.9022   18.0334 H   0  0  0  0  0  0  0  0  0  0  0  0
   47.3805   10.4685   21.6961 H   0  0  0  0  0  0  0  0  0  0  0  0
   46.9204    4.7874   22.3771 H   0  0  0  0  0  0  0  0  0  0  0  0
   48.6214    5.0518   22.9185 H   0  0  0  0  0  0  0  0  0  0  0  0
   47.5261    4.0500   20.3440 H   0  0  0  0  0  0  0  0  0  0  0  0
   49.1223    3.7171   21.1409 H   0  0  0  0  0  0  0  0  0  0  0  0
   47.4863    6.9821   23.9754 H   0  0  0  0  0  0  0  0  0  0  0  0
   48.4601    8.4754   16.0415 H   0  0  0  0  0  0  0  0  0  0  0  0
   47.2392    9.3845   23.8296 H   0  0  0  0  0  0  0  0  0  0  0  0
   48.1609   10.9036   15.7534 H   0  0  0  0  0  0  0  0  0  0  0  0
   49.8689    3.6370   19.2493 H   0  0  0  0  0  0  0  0  0  0  0  0
   50.4731    5.0909   18.4292 H   0  0  0  0  0  0  0  0  0  0  0  0
   48.8114    4.4153   18.0226 H   0  0  0  0  0  0  0  0  0  0  0  0
   47.3656   11.0027   16.4897 H   0  0  0  0  0  0  0  0  0  0  0  0
   47.5189   13.0693   17.7668 H   0  0  0  0  0  0  0  0  0  0  0  0
   49.3552    6.8243   21.4904 H   0  0  0  0  0  0  0  0  0  0  0  0
   46.6057    7.7763   21.7381 H   0  0  0  0  0  0  0  0  0  0  0  0
   48.1404    8.4612   22.4241 H   0  0  0  0  0  0  0  0  0  0  0  0
   48.6923    8.8712   16.6511 H   0  0  0  0  0  0  0  0  0  0  0  0
   49.3581    3.7713   19.0653 H   0  0  0  0  0  0  0  0  0  0  0  0
   50.5845    4.5805   20.0702 H   0  0  0  0  0  0  0  0  0  0  0  0
   49.2297    4.5834   21.8939 H   0  0  0  0  0  0  0  0  0  0  0  0
   48.0545    3.6462   20.8934 H   0  0  0  0  0  0  0  0  0  0  0  0
   50.0370    4.9583   17.1630 H   0  0  0  0  0  0  0  0  0  0  0  0
   46.6357   10.3914   22.2013 H   0  0  0  0  0  0  0  0  0  0  0  0
   49.6712    6.8802   15.7305 H   0  0  0  0  0  0  0  0  0  0  0  0
   46.2498   12.4184   20.8523 H   0  0  0  0  0  0  0  0  0  0  0  0
   46.0207    5.9423   22.4072 H   0  0  0  0  0  0  0  0  0  0  0  0
   47.7259    5.9853   23.1551 H   0  0  0  0  0  0  0  0  0  0  0  0
   47.0467    4.4317   22.6121 H   0  0  0  0  0  0  0  0  0  0  0  0
  4 14  1  0
  5 20  1  0
  6  7  1  0
  6 17  1  0
  6 23  1  0
  7  8  1  0
  7 13  1  0
  8  9  1  0
  8 12  2  0
  9 10  1  0
  9 15  2  0
 10 11  2  0
 10 14  1  0
 11 13  1  0
 11 19  1  0
 12 16  1  0
 12 18  1  0
 14 20  2  0
 15 21  1  0
 16 17  1  0
 18 21  2  0
 19 22  2  0
 20 22  1  0
 24 34  1  0
 25 40  1  0
 26 27  1  0
 26 37  1  0
 26 43  1  0
 27 28  1  0
 27 33  1  0
 28 29  1  0
 28 32  2  0
 29 30  1  0
 29 35  2  0
 30 31  2  0
 30 34  1  0
 31 33  1  0
 31 39  1  0
 32 36  1  0
 32 38  1  0
 34 40  2  0
 35 41  1  0
 36 37  1  0
 38 41  2  0
 39 42  2  0
 40 42  1  0
  1 44  1  0
  1 45  1  0
  2 46  1  0
  3 47  1  0
  4 48  1  0
  5 49  1  0
  7 50  1  6
 13 51  1  0
 13 52  1  0
 15 53  1  0
 16 54  1  0
 16 55  1  0
 17 56  1  0
 17 57  1  0
 18 58  1  0
 19 59  1  0
 21 60  1  0
 22 61  1  0
 23 62  1  0
 23 63  1  0
 23 64  1  0
 24 65  1  0
 25 66  1  0
 27 67  1  1
 33 68  1  0
 33 69  1  0
 35 70  1  0
 36 71  1  0
 36 72  1  0
 37 73  1  0
 37 74  1  0
 38 75  1  0
 39 76  1  0
 41 77  1  0
 42 78  1  0
 43 79  1  0
 43 80  1  0
 43 81  1  0
M  END
> <Uni-Dock RESULT> 
ENERGY=   -7.415  LOWER_BOUND=    6.540  UPPER_BOUND=    9.180
INTER + INTRA:          -7.415
INTER:                  -7.415
INTRA:                   0.000
UNBOUND:                 0.000

$$$$

     RDKit          3D

 81 84  0  0  0  0  0  0  0  0999 V2000
   46.4227    8.0203   12.4920 O   0  0  0  0  0  0  0  0  0  0  0  0
   46.3185    8.7824   12.3375 Cl  0  0  0  0  0  0  0  0  0  0  0  0
   46.3185    8.7826   12.3375 Cl  0  0  0  0  0  0  0  0  0  0  0  0
   48.7247   10.9508   12.3861 O   0  0  0  0  0  0  0  0  0  0  0  0
   47.4842   13.2412   11.6734 O   0  0  0  0  0  0  0  0  0  0  0  0
   44.6457    6.1102   11.9195 N   0  0  0  0  0  0  0  0  0  0  0  0
   44.9580    7.3227   12.6741 C   0  0  1  0  0  0  0  0  0  0  0  0
   46.4260    7.3534   12.8216 C   0  0  0  0  0  0  0  0  0  0  0  0
   47.2391    8.4391   12.6941 C   0  0  0  0  0  0  0  0  0  0  0  0
   46.6357    9.6966   12.2766 C   0  0  0  0  0  0  0  0  0  0  0  0
   45.2997    9.7066   12.0326 C   0  0  0  0  0  0  0  0  0  0  0  0
   47.0022    6.1202   13.1688 C   0  0  0  0  0  0  0  0  0  0  0  0
   44.4009    8.5399   12.0794 C   0  0  0  0  0  0  0  0  0  0  0  0
   47.3653   10.8563   12.1608 C   0  0  0  0  0  0  0  0  0  0  0  0
   48.5862    8.3508   12.8981 C   0  0  0  0  0  0  0  0  0  0  0  0
   46.2308    4.8808   13.3299 C   0  0  0  0  0  0  0  0  0  0  0  0
   44.8291    5.0067   12.8409 C   0  0  0  0  0  0  0  0  0  0  0  0
   48.3725    6.0410   13.3733 C   0  0  0  0  0  0  0  0  0  0  0  0
   44.7020   10.9193   11.6671 C   0  0  0  0  0  0  0  0  0  0  0  0
   46.7492   12.0621   11.7926 C   0  0  0  0  0  0  0  0  0  0  0  0
   49.1868    7.1273   13.2478 C   0  0  0  0  0  0  0  0  0  0  0  0
   45.4010   12.0827   11.5454 C   0  0  0  0  0  0  0  0  0  0  0  0
   43.2890    6.1003   11.4602 C   0  0  0  0  0  0  0  0  0  0  0  0
   45.8590   11.9240   11.7089 O   0  0  0  0  0  0  0  0  0  0  0  0
   48.1687   13.0369   12.5439 O   0  0  0  0  0  0  0  0  0  0  0  0
   45.7526    5.8829   13.3464 N   0  0  0  0  0  0  0  0  0  0  0  0
   46.4138    6.7804   12.4063 C   0  0  1  0  0  0  0  0  0  0  0  0
   45.3466    7.6818   11.9243 C   0  0  0  0  0  0  0  0  0  0  0  0
   45.4332    9.0417   11.8324 C   0  0  0  0  0  0  0  0  0  0  0  0
   46.6431    9.6848   12.2853 C   0  0  0  0  0  0  0  0  0  0  0  0
   47.6437    8.9123   12.7877 C   0  0  0  0  0  0  0  0  0  0  0  0
   44.1694    7.0176   11.5209 C   0  0  0  0  0  0  0  0  0  0  0  0
   47.6039    7.4436   12.9581 C   0  0  0  0  0  0  0  0  0  0  0  0
   46.8052   11.0461   12.2003 C   0  0  0  0  0  0  0  0  0  0  0  0
   44.3664    9.7618   11.3427 C   0  0  0  0  0  0  0  0  0  0  0  0
   44.0182    5.5661   11.5977 C   0  0  0  0  0  0  0  0  0  0  0  0
   44.9388    4.9613   12.5911 C   0  0  0  0  0  0  0  0  0  0  0  0
   43.1211    7.7659   11.0362 C   0  0  0  0  0  0  0  0  0  0  0  0
   48.8323    9.5279   13.2121 C   0  0  0  0  0  0  0  0  0  0  0  0
   47.9959   11.6516   12.6270 C   0  0  0  0  0  0  0  0  0  0  0  0
   43.1786    9.1329   10.9310 C   0  0  0  0  0  0  0  0  0  0  0  0
   49.0149   10.8874   13.1355 C   0  0  0  0  0  0  0  0  0  0  0  0
   46.6837    5.1144   14.1399 C   0  0  0  0  0  0  0  0  0  0  0  0
   46.1854    8.9523   12.2792 H   0  0  0  0  0  0  0  0  0  0  0  0
   45.6139    7.4651   12.4124 H   0  0  0  0  0  0  0  0  0  0  0  0
   45.8296    7.5094   12.4516 H   0  0  0  0  0  0  0  0  0  0  0  0
   45.8295    7.5092   12.4516 H   0  0  0  0  0  0  0  0  0  0  0  0
   49.3488   11.5492   11.8901 H   0  0  0  0  0  0  0  0  0  0  0  0
   48.3912   13.2303   11.2195 H   0  0  0  0  0  0  0  0  0  0  0  0
   44.5278    7.1861   13.7081 H   0  0  0  0  0  0  0  0  0  0  0  0
   43.4641    8.8339   12.6327 H   0  0  0  0  0  0  0  0  0  0  0  0
   44.1373    8.3182   11.0101 H   0  0  0  0  0  0  0  0  0  0  0  0
   49.2897    9.1582   12.8159 H   0  0  0  0  0  0  0  0  0  0  0  0
   46.2142    4.5826   14.4144 H   0  0  0  0  0  0  0  0  0  0  0  0
   46.7514    4.0661   12.7709 H   0  0  0  0  0  0  0  0  0  0  0  0
   44.1602    5.1687   13.7203 H   0  0  0  0  0  0  0  0  0  0  0  0
   44.5175    4.0686   12.3218 H   0  0  0  0  0  0  0  0  0  0  0  0
   48.8266    5.1003   13.6404 H   0  0  0  0  0  0  0  0  0  0  0  0
   43.6310   10.9651   11.4644 H   0  0  0  0  0  0  0  0  0  0  0  0
   50.2493    7.0438   13.4119 H   0  0  0  0  0  0  0  0  0  0  0  0
   44.9619   13.0286   11.2650 H   0  0  0  0  0  0  0  0  0  0  0  0
   42.9867    5.0268   11.3836 H   0  0  0  0  0  0  0  0  0  0  0  0
   43.2620    6.4943   10.4232 H   0  0  0  0  0  0  0  0  0  0  0  0
   42.5660    6.6100   12.1218 H   0  0  0  0  0  0  0  0  0  0  0  0
   45.6154   12.8178   12.1094 H   0  0  0  0  0  0  0  0  0  0  0  0
   47.9103   13.5316   11.7233 H   0  0  0  0  0  0  0  0  0  0  0  0
   46.7569    6.1237   11.5519 H   0  0  0  0  0  0  0  0  0  0  0  0
   47.6316    7.2885   14.0827 H   0  0  0  0  0  0  0  0  0  0  0  0
   48.5526    7.0329   12.5395 H   0  0  0  0  0  0  0  0  0  0  0  0
   44.3462   10.8288   11.2362 H   0  0  0  0  0  0  0  0  0  0  0  0
   42.9447    5.3553   11.8343 H   0  0  0  0  0  0  0  0  0  0  0  0
   44.1994    5.0614   10.6063 H   0  0  0  0  0  0  0  0  0  0  0  0
   45.6460    4.2221   12.1439 H   0  0  0  0  0  0  0  0  0  0  0  0
   44.3120    4.4061   13.3466 H   0  0  0  0  0  0  0  0  0  0  0  0
   42.2137    7.2834   10.7224 H   0  0  0  0  0  0  0  0  0  0  0  0
   49.6514    8.9491   13.6168 H   0  0  0  0  0  0  0  0  0  0  0  0
   42.3419    9.6984   10.5467 H   0  0  0  0  0  0  0  0  0  0  0  0
   49.9116   11.3949   13.4509 H   0  0  0  0  0  0  0  0  0  0  0  0
   46.9976    5.6268   15.0778 H   0  0  0  0  0  0  0  0  0  0  0  0
   47.5532    4.8145   13.4965 H   0  0  0  0  0  0  0  0  0  0  0  0
   46.1655    4.1416   14.3862 H   0  0  0  0  0  0  0  0  0  0  0  0
  4 14  1  0
  5 20  1  0
  6  7  1  0
  6 17  1  0
  6 23  1  0
  7  8  1  0
  7 13  1  0
  8  9  1  0
  8 12  2  0
  9 10  1  0
  9 15  2  0
 10 11  2  0
 10 14  1  0
 11 13  1  0
 11 19  1  0
 12 16  1  0
 12 18  1  0
 14 20  2  0
 15 21  1  0
 16 17  1  0
 18 21  2  0
 19 22  2  0
 20 22  1  0
 24 34  1  0
 25 40  1  0
 26 27  1  0
 26 37  1  0
 26 43  1  0
 27 28  1  0
 27 33  1  0
 28 29  1  0
 28 32  2  0
 29 30  1  0
 29 35  2  0
 30 31  2  0
 30 34  1  0
 31 33  1  0
 31 39  1  0
 32 36  1  0
 32 38  1  0
 34 40  2  0
 35 41  1  0
 36 37  1  0
 38 41  2  0
 39 42  2  0
 40 42  1  0
  1 44  1  0
  1 45  1  0
  2 46  1  0
  3 47  1  0
  4 48  1  0
  5 49  1  0
  7 50  1  6
 13 51  1  0
 13 52  1  0
 15 53  1  0
 16 54  1  0
 16 55  1  0
 17 56  1  0
 17 57  1  0
 18 58  1  0
 19 59  1  0
 21 60  1  0
 22 61  1  0
 23 62  1  0
 23 63  1  0
 23 64  1  0
 24 65  1  0
 25 66  1  0
 27 67  1  1
 33 68  1  0
 33 69  1  0
 35 70  1  0
 36 71  1  0
 36 72  1  0
 37 73  1  0
 37 74  1  0
 38 75  1  0
 39 76  1  0
 41 77  1  0
 42 78  1  0
 43 79  1  0
 43 80  1  0
 43 81  1  0
M  END
> <Uni-Dock RESULT> 
ENERGY=   -7.316  LOWER_BOUND=    1.931  UPPER_BOUND=    4.972
INTER + INTRA:          -7.316
INTER:                  -7.316
INTRA:                   0.000
UNBOUND:                 0.000

$$$$

     RDKit          3D

 81 84  0  0  0  0  0  0  0  0999 V2000
   48.1772    7.6244   19.4877 O   0  0  0  0  0  0  0  0  0  0  0  0
   47.9955    8.3781   19.6081 Cl  0  0  0  0  0  0  0  0  0  0  0  0
   47.9955    8.3783   19.6081 Cl  0  0  0  0  0  0  0  0  0  0  0  0
   47.5991   10.5163   17.2070 O   0  0  0  0  0  0  0  0  0  0  0  0
   46.9317   12.7790   18.5213 O   0  0  0  0  0  0  0  0  0  0  0  0
   47.9564    5.7077   21.3346 N   0  0  0  0  0  0  0  0  0  0  0  0
   48.5930    6.9559   20.9178 C   0  0  1  0  0  0  0  0  0  0  0  0
   48.5403    6.9767   19.4432 C   0  0  0  0  0  0  0  0  0  0  0  0
   48.2442    8.0437   18.6495 C   0  0  0  0  0  0  0  0  0  0  0  0
   47.8414    9.2836   19.2977 C   0  0  0  0  0  0  0  0  0  0  0  0
   47.7786    9.2965   20.6543 C   0  0  0  0  0  0  0  0  0  0  0  0
   48.8758    5.7575   18.8313 C   0  0  0  0  0  0  0  0  0  0  0  0
   48.0110    8.1453   21.5441 C   0  0  0  0  0  0  0  0  0  0  0  0
   47.5639   10.4261   18.5847 C   0  0  0  0  0  0  0  0  0  0  0  0
   48.2703    7.9502   17.2876 C   0  0  0  0  0  0  0  0  0  0  0  0
   49.2082    4.5384   19.5799 C   0  0  0  0  0  0  0  0  0  0  0  0
   48.9054    4.6543   21.0341 C   0  0  0  0  0  0  0  0  0  0  0  0
   48.8988    5.6729   17.4464 C   0  0  0  0  0  0  0  0  0  0  0  0
   47.4290   10.4945   21.2900 C   0  0  0  0  0  0  0  0  0  0  0  0
   47.2144   11.6174   19.2391 C   0  0  0  0  0  0  0  0  0  0  0  0
   48.6044    6.7406   16.6513 C   0  0  0  0  0  0  0  0  0  0  0  0
   47.1495   11.6408   20.6082 C   0  0  0  0  0  0  0  0  0  0  0  0
   47.6845    5.6891   22.7408 C   0  0  0  0  0  0  0  0  0  0  0  0
   47.2588   11.4857   20.1332 O   0  0  0  0  0  0  0  0  0  0  0  0
   47.7126   12.6146   17.7269 O   0  0  0  0  0  0  0  0  0  0  0  0
   49.2324    5.5456   20.0468 N   0  0  0  0  0  0  0  0  0  0  0  0
   48.1632    6.3819   19.5139 C   0  0  1  0  0  0  0  0  0  0  0  0
   47.7789    7.2685   20.6320 C   0  0  0  0  0  0  0  0  0  0  0  0
   47.6000    8.6201   20.5521 C   0  0  0  0  0  0  0  0  0  0  0  0
   47.8497    9.2722   19.2892 C   0  0  0  0  0  0  0  0  0  0  0  0
   48.2559    8.5163   18.2338 C   0  0  0  0  0  0  0  0  0  0  0  0
   47.5750    6.5975   21.8559 C   0  0  0  0  0  0  0  0  0  0  0  0
   48.5123    7.0598   18.2573 C   0  0  0  0  0  0  0  0  0  0  0  0
   47.6674   10.6247   19.1336 C   0  0  0  0  0  0  0  0  0  0  0  0
   47.2180    9.3252   21.6717 C   0  0  0  0  0  0  0  0  0  0  0  0
   47.7527    5.1544   22.0022 C   0  0  0  0  0  0  0  0  0  0  0  0
   48.6460    4.5939   20.9592 C   0  0  0  0  0  0  0  0  0  0  0  0
   47.1940    7.3308   22.9563 C   0  0  0  0  0  0  0  0  0  0  0  0
   48.4818    9.1397   16.9959 C   0  0  0  0  0  0  0  0  0  0  0  0
   47.8958   11.2381   17.8934 C   0  0  0  0  0  0  0  0  0  0  0  0
   47.0054    8.6891   22.9070 C   0  0  0  0  0  0  0  0  0  0  0  0
   48.3052   10.4906   16.8189 C   0  0  0  0  0  0  0  0  0  0  0  0
   49.9357    4.8107   19.0210 C   0  0  0  0  0  0  0  0  0  0  0  0
   47.9462    8.5462   19.7470 H   0  0  0  0  0  0  0  0  0  0  0  0
   48.2381    7.0756   20.3024 H   0  0  0  0  0  0  0  0  0  0  0  0
   48.2455    7.1194   20.0832 H   0  0  0  0  0  0  0  0  0  0  0  0
   48.2455    7.1192   20.0833 H   0  0  0  0  0  0  0  0  0  0  0  0
   46.9911   11.0788   16.6525 H   0  0  0  0  0  0  0  0  0  0  0  0
   46.3616   12.7321   17.6837 H   0  0  0  0  0  0  0  0  0  0  0  0
   49.6813    6.8817   21.2056 H   0  0  0  0  0  0  0  0  0  0  0  0
   48.6675    8.4807   22.3965 H   0  0  0  0  0  0  0  0  0  0  0  0
   47.0008    7.8683   21.9503 H   0  0  0  0  0  0  0  0  0  0  0  0
   48.0493    8.7432   16.5978 H   0  0  0  0  0  0  0  0  0  0  0  0
   50.3002    4.3005   19.4519 H   0  0  0  0  0  0  0  0  0  0  0  0
   48.6311    3.6879   19.1431 H   0  0  0  0  0  0  0  0  0  0  0  0
   49.8561    4.8726   21.5777 H   0  0  0  0  0  0  0  0  0  0  0  0
   48.4863    3.6929   21.4172 H   0  0  0  0  0  0  0  0  0  0  0  0
   49.1550    4.7428   16.9650 H   0  0  0  0  0  0  0  0  0  0  0  0
   47.3695   10.5422   22.3783 H   0  0  0  0  0  0  0  0  0  0  0  0
   48.6289    6.6533   15.5767 H   0  0  0  0  0  0  0  0  0  0  0  0
   46.8778   12.5751   21.0766 H   0  0  0  0  0  0  0  0  0  0  0  0
   47.7095    4.6168   23.0558 H   0  0  0  0  0  0  0  0  0  0  0  0
   46.6400    6.0258   22.9053 H   0  0  0  0  0  0  0  0  0  0  0  0
   48.4074    6.2433   23.3658 H   0  0  0  0  0  0  0  0  0  0  0  0
   47.6375   12.4032   20.3164 H   0  0  0  0  0  0  0  0  0  0  0  0
   46.9077   13.0665   18.0909 H   0  0  0  0  0  0  0  0  0  0  0  0
   47.3087    5.6751   19.2921 H   0  0  0  0  0  0  0  0  0  0  0  0
   49.6300    6.9665   18.0791 H   0  0  0  0  0  0  0  0  0  0  0  0
   47.9940    6.6151   17.3754 H   0  0  0  0  0  0  0  0  0  0  0  0
   47.0555   10.3848   21.7010 H   0  0  0  0  0  0  0  0  0  0  0  0
   48.1426    4.9701   23.0351 H   0  0  0  0  0  0  0  0  0  0  0  0
   46.7759    4.5937   21.9585 H   0  0  0  0  0  0  0  0  0  0  0  0
   48.1503    3.8227   20.3221 H   0  0  0  0  0  0  0  0  0  0  0  0
   49.5088    4.0889   21.4813 H   0  0  0  0  0  0  0  0  0  0  0  0
   47.0323    6.8429   23.9000 H   0  0  0  0  0  0  0  0  0  0  0  0
   48.8049    8.5741   16.1326 H   0  0  0  0  0  0  0  0  0  0  0  0
   46.7057    9.2428   23.7851 H   0  0  0  0  0  0  0  0  0  0  0  0
   48.4684   11.0037   15.8855 H   0  0  0  0  0  0  0  0  0  0  0  0
   50.7929    5.3700   18.5813 H   0  0  0  0  0  0  0  0  0  0  0  0
   49.1994    4.4651   18.2475 H   0  0  0  0  0  0  0  0  0  0  0  0
   50.3036    3.8592   19.5059 H   0  0  0  0  0  0  0  0  0  0  0  0
  4 14  1  0
  5 20  1  0
  6  7  1  0
  6 17  1  0
  6 23  1  0
  7  8  1  0
  7 13  1  0
  8  9  1  0
  8 12  2  0
  9 10  1  0
  9 15  2  0
 10 11  2  0
 10 14  1  0
 11 13  1  0
 11 19  1  0
 12 16  1  0
 12 18  1  0
 14 20  2  0
 15 21  1  0
 16 17  1  0
 18 21  2  0
 19 22  2  0
 20 22  1  0
 24 34  1  0
 25 40  1  0
 26 27  1  0
 26 37  1  0
 26 43  1  0
 27 28  1  0
 27 33  1  0
 28 29  1  0
 28 32  2  0
 29 30  1  0
 29 35  2  0
 30 31  2  0
 30 34  1  0
 31 33  1  0
 31 39  1  0
 32 36  1  0
 32 38  1  0
 34 40  2  0
 35 41  1  0
 36 37  1  0
 38 41  2  0
 39 42  2  0
 40 42  1  0
  1 44  1  0
  1 45  1  0
  2 46  1  0
  3 47  1  0
  4 48  1  0
  5 49  1  0
  7 50  1  6
 13 51  1  0
 13 52  1  0
 15 53  1  0
 16 54  1  0
 16 55  1  0
 17 56  1  0
 17 57  1  0
 18 58  1  0
 19 59  1  0
 21 60  1  0
 22 61  1  0
 23 62  1  0
 23 63  1  0
 23 64  1  0
 24 65  1  0
 25 66  1  0
 27 67  1  1
 33 68  1  0
 33 69  1  0
 35 70  1  0
 36 71  1  0
 36 72  1  0
 37 73  1  0
 37 74  1  0
 38 75  1  0
 39 76  1  0
 41 77  1  0
 42 78  1  0
 43 79  1  0
 43 80  1  0
 43 81  1  0
M  END
> <Uni-Dock RESULT> 
ENERGY=   -7.290  LOWER_BOUND=    6.561  UPPER_BOUND=    9.238
INTER + INTRA:          -7.290
INTER:                  -7.290
INTRA:                   0.000
UNBOUND:                 0.000

$$$$

     RDKit          3D

 81 84  0  0  0  0  0  0  0  0999 V2000
   47.8729    9.1439   20.1799 O   0  0  0  0  0  0  0  0  0  0  0  0
   47.8925    8.4060   20.4455 Cl  0  0  0  0  0  0  0  0  0  0  0  0
   47.8925    8.4058   20.4454 Cl  0  0  0  0  0  0  0  0  0  0  0  0
   48.4437    5.8453   18.5393 O   0  0  0  0  0  0  0  0  0  0  0  0
   48.4079    3.7812   20.2803 O   0  0  0  0  0  0  0  0  0  0  0  0
   48.0000   11.3097   21.7378 N   0  0  0  0  0  0  0  0  0  0  0  0
   47.2693   10.1026   21.3554 C   0  0  1  0  0  0  0  0  0  0  0  0
   47.6443    9.8159   19.9572 C   0  0  0  0  0  0  0  0  0  0  0  0
   47.9238    8.5963   19.4181 C   0  0  0  0  0  0  0  0  0  0  0  0
   47.9557    7.4476   20.3122 C   0  0  0  0  0  0  0  0  0  0  0  0
   47.7121    7.6655   21.6305 C   0  0  0  0  0  0  0  0  0  0  0  0
   47.6653   10.9418   19.1174 C   0  0  0  0  0  0  0  0  0  0  0  0
   47.4868    8.9758   22.2657 C   0  0  0  0  0  0  0  0  0  0  0  0
   48.1865    6.1711   19.8566 C   0  0  0  0  0  0  0  0  0  0  0  0
   48.2174    8.4512   18.0927 C   0  0  0  0  0  0  0  0  0  0  0  0
   47.3869   12.3066   19.5829 C   0  0  0  0  0  0  0  0  0  0  0  0
   47.3346   12.4095   21.0684 C   0  0  0  0  0  0  0  0  0  0  0  0
   47.9656   10.7836   17.7718 C   0  0  0  0  0  0  0  0  0  0  0  0
   47.7029    6.5627   22.4937 C   0  0  0  0  0  0  0  0  0  0  0  0
   48.1742    5.0780   20.7367 C   0  0  0  0  0  0  0  0  0  0  0  0
   48.2435    9.5634   17.2310 C   0  0  0  0  0  0  0  0  0  0  0  0
   47.9281    5.2875   22.0689 C   0  0  0  0  0  0  0  0  0  0  0  0
   47.9515   11.5395   23.1508 C   0  0  0  0  0  0  0  0  0  0  0  0
   47.9551    5.3697   21.5647 O   0  0  0  0  0  0  0  0  0  0  0  0
   47.8627    3.9048   19.3028 O   0  0  0  0  0  0  0  0  0  0  0  0
   47.0887   11.4094   20.1654 N   0  0  0  0  0  0  0  0  0  0  0  0
   48.0917   10.3589   20.0350 C   0  0  1  0  0  0  0  0  0  0  0  0
   48.0614    9.6401   21.3258 C   0  0  0  0  0  0  0  0  0  0  0  0
   48.0213    8.2839   21.4821 C   0  0  0  0  0  0  0  0  0  0  0  0
   47.9515    7.4584   20.3005 C   0  0  0  0  0  0  0  0  0  0  0  0
   47.9246    8.0636   19.0826 C   0  0  0  0  0  0  0  0  0  0  0  0
   48.0991   10.4831   22.4561 C   0  0  0  0  0  0  0  0  0  0  0  0
   47.9207    9.5224   18.8384 C   0  0  0  0  0  0  0  0  0  0  0  0
   47.9314    6.0876   20.3851 C   0  0  0  0  0  0  0  0  0  0  0  0
   48.0193    7.7427   22.7484 C   0  0  0  0  0  0  0  0  0  0  0  0
   48.1411   11.9400   22.3511 C   0  0  0  0  0  0  0  0  0  0  0  0
   47.6105   12.4211   21.0521 C   0  0  0  0  0  0  0  0  0  0  0  0
   48.0956    9.9112   23.7078 C   0  0  0  0  0  0  0  0  0  0  0  0
   47.8770    7.2674   17.9268 C   0  0  0  0  0  0  0  0  0  0  0  0
   47.8836    5.3010   19.2251 C   0  0  0  0  0  0  0  0  0  0  0  0
   48.0568    8.5526   23.8967 C   0  0  0  0  0  0  0  0  0  0  0  0
   47.8565    5.8952   17.9892 C   0  0  0  0  0  0  0  0  0  0  0  0
   46.7664   12.0386   18.9055 C   0  0  0  0  0  0  0  0  0  0  0  0
   47.8805    8.2599   20.6143 H   0  0  0  0  0  0  0  0  0  0  0  0
   47.7265    9.8307   20.8695 H   0  0  0  0  0  0  0  0  0  0  0  0
   47.7608    9.7504   20.6636 H   0  0  0  0  0  0  0  0  0  0  0  0
   47.7608    9.7506   20.6636 H   0  0  0  0  0  0  0  0  0  0  0  0
   49.0551    5.1188   18.2361 H   0  0  0  0  0  0  0  0  0  0  0  0
   49.1493    3.6045   19.6112 H   0  0  0  0  0  0  0  0  0  0  0  0
   46.1731   10.3692   21.3524 H   0  0  0  0  0  0  0  0  0  0  0  0
   46.6101    8.8852   22.9679 H   0  0  0  0  0  0  0  0  0  0  0  0
   48.4134    9.1843   22.8658 H   0  0  0  0  0  0  0  0  0  0  0  0
   48.4482    7.5271   17.5964 H   0  0  0  0  0  0  0  0  0  0  0  0
   46.4074   12.6602   19.1575 H   0  0  0  0  0  0  0  0  0  0  0  0
   48.1826   12.9834   19.1877 H   0  0  0  0  0  0  0  0  0  0  0  0
   46.2640   12.4176   21.3856 H   0  0  0  0  0  0  0  0  0  0  0  0
   47.8152   13.3595   21.4050 H   0  0  0  0  0  0  0  0  0  0  0  0
   47.9847   11.6400   17.1171 H   0  0  0  0  0  0  0  0  0  0  0  0
   47.5099    6.6998   23.5586 H   0  0  0  0  0  0  0  0  0  0  0  0
   48.4738    9.4626   16.1823 H   0  0  0  0  0  0  0  0  0  0  0  0
   47.9261    4.4227   22.7155 H   0  0  0  0  0  0  0  0  0  0  0  0
   48.0396   12.6442   23.2970 H   0  0  0  0  0  0  0  0  0  0  0  0
   48.8605   11.1022   23.6133 H   0  0  0  0  0  0  0  0  0  0  0  0
   47.0244   11.2041   23.6491 H   0  0  0  0  0  0  0  0  0  0  0  0
   47.3949    4.5569   21.7751 H   0  0  0  0  0  0  0  0  0  0  0  0
   48.4777    3.4219   19.9137 H   0  0  0  0  0  0  0  0  0  0  0  0
   49.0814   10.8967   19.9344 H   0  0  0  0  0  0  0  0  0  0  0  0
   46.9031    9.7295   18.3787 H   0  0  0  0  0  0  0  0  0  0  0  0
   48.6899    9.7326   18.0586 H   0  0  0  0  0  0  0  0  0  0  0  0
   47.9888    6.6928   22.9646 H   0  0  0  0  0  0  0  0  0  0  0  0
   47.5684   12.3531   23.2196 H   0  0  0  0  0  0  0  0  0  0  0  0
   49.1838   12.3505   22.4720 H   0  0  0  0  0  0  0  0  0  0  0  0
   48.3592   12.9959   20.4558 H   0  0  0  0  0  0  0  0  0  0  0  0
   46.7520   13.1194   21.2693 H   0  0  0  0  0  0  0  0  0  0  0  0
   48.1239   10.5319   24.5845 H   0  0  0  0  0  0  0  0  0  0  0  0
   47.8549    7.7099   16.9402 H   0  0  0  0  0  0  0  0  0  0  0  0
   48.0553    8.1274   24.8901 H   0  0  0  0  0  0  0  0  0  0  0  0
   47.8201    5.2519   17.1256 H   0  0  0  0  0  0  0  0  0  0  0  0
   45.9463   11.5287   18.3504 H   0  0  0  0  0  0  0  0  0  0  0  0
   47.7040   12.1425   18.2972 H   0  0  0  0  0  0  0  0  0  0  0  0
   46.4671   13.1006   19.1468 H   0  0  0  0  0  0  0  0  0  0  0  0
  4 14  1  0
  5 20  1  0
  6  7  1  0
  6 17  1  0
  6 23  1  0
  7  8  1  0
  7 13  1  0
  8  9  1  0
  8 12  2  0
  9 10  1  0
  9 15  2  0
 10 11  2  0
 10 14  1  0
 11 13  1  0
 11 19  1  0
 12 16  1  0
 12 18  1  0
 14 20  2  0
 15 21  1  0
 16 17  1  0
 18 21  2  0
 19 22  2  0
 20 22  1  0
 24 34  1  0
 25 40  1  0
 26 27  1  0
 26 37  1  0
 26 43  1  0
 27 28  1  0
 27 33  1  0
 28 29  1  0
 28 32  2  0
 29 30  1  0
 29 35  2  0
 30 31  2  0
 30 34  1  0
 31 33  1  0
 31 39  1  0
 32 36  1  0
 32 38  1  0
 34 40  2  0
 35 41  1  0
 36 37  1  0
 38 41  2  0
 39 42  2  0
 40 42  1  0
  1 44  1  0
  1 45  1  0
  2 46  1  0
  3 47  1  0
  4 48  1  0
  5 49  1  0
  7 50  1  6
 13 51  1  0
 13 52  1  0
 15 53  1  0
 16 54  1  0
 16 55  1  0
 17 56  1  0
 17 57  1  0
 18 58  1  0
 19 59  1  0
 21 60  1  0
 22 61  1  0
 23 62  1  0
 23 63  1  0
 23 64  1  0
 24 65  1  0
 25 66  1  0
 27 67  1  1
 33 68  1  0
 33 69  1  0
 35 70  1  0
 36 71  1  0
 36 72  1  0
 37 73  1  0
 37 74  1  0
 38 75  1  0
 39 76  1  0
 41 77  1  0
 42 78  1  0
 43 79  1  0
 43 80  1  0
 43 81  1  0
M  END
> <Uni-Dock RESULT> 
ENERGY=   -7.284  LOWER_BOUND=    7.181  UPPER_BOUND=    8.949
INTER + INTRA:          -7.284
INTER:                  -7.284
INTRA:                   0.000
UNBOUND:                 0.000

$$$$
