
     RDKit          3D

 81 84  0  0  0  0  0  0  0  0999 V2000
   45.3207    6.7932   12.4581 O   0  0  0  0  0  0  0  0  0  0  0  0
   45.4131    7.5703   12.4150 Cl  0  0  0  0  0  0  0  0  0  0  0  0
   45.4132    7.5700   12.4151 Cl  0  0  0  0  0  0  0  0  0  0  0  0
   46.3523   10.6976   12.3132 O   0  0  0  0  0  0  0  0  0  0  0  0
   44.3919   11.7807   10.7925 O   0  0  0  0  0  0  0  0  0  0  0  0
   45.5929    4.3743   12.3596 N   0  0  0  0  0  0  0  0  0  0  0  0
   45.0951    5.6457   12.8643 C   0  0  1  0  0  0  0  0  0  0  0  0
   46.1716    6.5383   13.2860 C   0  0  0  0  0  0  0  0  0  0  0  0
   46.3154    7.8714   13.0229 C   0  0  0  0  0  0  0  0  0  0  0  0
   45.2991    8.4976   12.2013 C   0  0  0  0  0  0  0  0  0  0  0  0
   44.2800    7.6959   11.7562 C   0  0  0  0  0  0  0  0  0  0  0  0
   47.1716    5.9537   14.0712 C   0  0  0  0  0  0  0  0  0  0  0  0
   44.0972    6.2656   11.9867 C   0  0  0  0  0  0  0  0  0  0  0  0
   45.3567    9.8359   11.8987 C   0  0  0  0  0  0  0  0  0  0  0  0
   47.3911    8.5742   13.5148 C   0  0  0  0  0  0  0  0  0  0  0  0
   46.9703    4.4887   14.3265 C   0  0  0  0  0  0  0  0  0  0  0  0
   46.7844    3.8933   12.9494 C   0  0  0  0  0  0  0  0  0  0  0  0
   48.2376    6.6207   14.5665 C   0  0  0  0  0  0  0  0  0  0  0  0
   43.3061    8.3205   10.9792 C   0  0  0  0  0  0  0  0  0  0  0  0
   44.3593   10.4327   11.1135 C   0  0  0  0  0  0  0  0  0  0  0  0
   48.3803    7.9588   14.3019 C   0  0  0  0  0  0  0  0  0  0  0  0
   43.3294    9.6505   10.6571 C   0  0  0  0  0  0  0  0  0  0  0  0
   44.4980    3.4351   12.3223 C   0  0  0  0  0  0  0  0  0  0  0  0
   43.1981    9.4345   10.9489 O   0  0  0  0  0  0  0  0  0  0  0  0
   44.4584   11.8179   10.9244 O   0  0  0  0  0  0  0  0  0  0  0  0
   46.7833    5.2350   14.0338 N   0  0  0  0  0  0  0  0  0  0  0  0
   46.6555    6.0821   12.8549 C   0  0  1  0  0  0  0  0  0  0  0  0
   45.2272    5.9959   12.4465 C   0  0  0  0  0  0  0  0  0  0  0  0
   44.5101    7.0536   11.9723 C   0  0  0  0  0  0  0  0  0  0  0  0
   45.1324    8.3649   11.9861 C   0  0  0  0  0  0  0  0  0  0  0  0
   46.4032    8.4839   12.4817 C   0  0  0  0  0  0  0  0  0  0  0  0
   44.6797    4.7097   12.5343 C   0  0  0  0  0  0  0  0  0  0  0  0
   47.2032    7.4163   13.1079 C   0  0  0  0  0  0  0  0  0  0  0  0
   44.4668    9.4509   11.4660 C   0  0  0  0  0  0  0  0  0  0  0  0
   43.2142    6.8503   11.5656 C   0  0  0  0  0  0  0  0  0  0  0  0
   45.3997    3.5418   13.0449 C   0  0  0  0  0  0  0  0  0  0  0  0
   46.7214    3.8499   13.6872 C   0  0  0  0  0  0  0  0  0  0  0  0
   43.3849    4.5609   12.1173 C   0  0  0  0  0  0  0  0  0  0  0  0
   47.0142    9.7476   12.4438 C   0  0  0  0  0  0  0  0  0  0  0  0
   45.1020   10.7010   11.4423 C   0  0  0  0  0  0  0  0  0  0  0  0
   42.6096    5.5849   11.6274 C   0  0  0  0  0  0  0  0  0  0  0  0
   46.3757   10.8501   11.9304 C   0  0  0  0  0  0  0  0  0  0  0  0
   47.9351    5.5780   14.8328 C   0  0  0  0  0  0  0  0  0  0  0  0
   45.5181    7.7650   12.4584 H   0  0  0  0  0  0  0  0  0  0  0  0
   45.9807    6.2647   12.9658 H   0  0  0  0  0  0  0  0  0  0  0  0
   45.7999    6.3116   12.8398 H   0  0  0  0  0  0  0  0  0  0  0  0
   45.7999    6.3119   12.8398 H   0  0  0  0  0  0  0  0  0  0  0  0
   46.6779   11.4800   11.7925 H   0  0  0  0  0  0  0  0  0  0  0  0
   43.9279   12.4705   11.3363 H   0  0  0  0  0  0  0  0  0  0  0  0
   44.5250    5.3498   13.8229 H   0  0  0  0  0  0  0  0  0  0  0  0
   44.2619    5.7926   10.9506 H   0  0  0  0  0  0  0  0  0  0  0  0
   43.0327    6.0287   12.2870 H   0  0  0  0  0  0  0  0  0  0  0  0
   47.5679    9.6193   13.3484 H   0  0  0  0  0  0  0  0  0  0  0  0
   47.8168    4.0321   14.8704 H   0  0  0  0  0  0  0  0  0  0  0  0
   46.0027    4.4035   14.8650 H   0  0  0  0  0  0  0  0  0  0  0  0
   47.6382    4.2670   12.3255 H   0  0  0  0  0  0  0  0  0  0  0  0
   46.7663    2.7864   12.9705 H   0  0  0  0  0  0  0  0  0  0  0  0
   48.9926    6.1477   15.1678 H   0  0  0  0  0  0  0  0  0  0  0  0
   42.4527    7.7485   10.5817 H   0  0  0  0  0  0  0  0  0  0  0  0
   49.2197    8.5028   14.6870 H   0  0  0  0  0  0  0  0  0  0  0  0
   42.5721   10.1269   10.0551 H   0  0  0  0  0  0  0  0  0  0  0  0
   44.8821    2.4023   12.4492 H   0  0  0  0  0  0  0  0  0  0  0  0
   43.9963    3.4933   11.3261 H   0  0  0  0  0  0  0  0  0  0  0  0
   43.7279    3.6319   13.0952 H   0  0  0  0  0  0  0  0  0  0  0  0
   42.5147   10.1661   11.0538 H   0  0  0  0  0  0  0  0  0  0  0  0
   44.5812   12.6765   11.4403 H   0  0  0  0  0  0  0  0  0  0  0  0
   47.2186    5.6186   11.9899 H   0  0  0  0  0  0  0  0  0  0  0  0
   47.2216    7.5708   14.2359 H   0  0  0  0  0  0  0  0  0  0  0  0
   48.2610    7.4412   12.7502 H   0  0  0  0  0  0  0  0  0  0  0  0
   42.5783    7.6211   11.1825 H   0  0  0  0  0  0  0  0  0  0  0  0
   44.7234    3.0893   13.8336 H   0  0  0  0  0  0  0  0  0  0  0  0
   45.5262    2.7897   12.2288 H   0  0  0  0  0  0  0  0  0  0  0  0
   46.7791    3.2806   14.6475 H   0  0  0  0  0  0  0  0  0  0  0  0
   47.5509    3.5395   13.0029 H   0  0  0  0  0  0  0  0  0  0  0  0
   42.9236    3.5840   12.1678 H   0  0  0  0  0  0  0  0  0  0  0  0
   48.0190    9.8965   12.8217 H   0  0  0  0  0  0  0  0  0  0  0  0
   41.5827    5.4382   11.3017 H   0  0  0  0  0  0  0  0  0  0  0  0
   46.8245   11.8309   11.8907 H   0  0  0  0  0  0  0  0  0  0  0  0
   48.3762    4.6506   15.2569 H   0  0  0  0  0  0  0  0  0  0  0  0
   47.5685    6.1848   15.6941 H   0  0  0  0  0  0  0  0  0  0  0  0
   48.7165    6.1270   14.2680 H   0  0  0  0  0  0  0  0  0  0  0  0
  4 14  1  0
  5 20  1  0
  6  7  1  0
  6 17  1  0
  6 23  1  0
  7  8  1  0
  7 13  1  0
  8  9  1  0
  8 12  2  0
  9 10  1  0
  9 15  2  0
 10 11  2  0
 10 14  1  0
 11 13  1  0
 11 19  1  0
 12 16  1  0
 12 18  1  0
 14 20  2  0
 15 21  1  0
 16 17  1  0
 18 21  2  0
 19 22  2  0
 20 22  1  0
 24 34  1  0
 25 40  1  0
 26 27  1  0
 26 37  1  0
 26 43  1  0
 27 28  1  0
 27 33  1  0
 28 29  1  0
 28 32  2  0
 29 30  1  0
 29 35  2  0
 30 31  2  0
 30 34  1  0
 31 33  1  0
 31 39  1  0
 32 36  1  0
 32 38  1  0
 34 40  2  0
 35 41  1  0
 36 37  1  0
 38 41  2  0
 39 42  2  0
 40 42  1  0
  1 44  1  0
  1 45  1  0
  2 46  1  0
  3 47  1  0
  4 48  1  0
  5 49  1  0
  7 50  1  1
 13 51  1  0
 13 52  1  0
 15 53  1  0
 16 54  1  0
 16 55  1  0
 17 56  1  0
 17 57  1  0
 18 58  1  0
 19 59  1  0
 21 60  1  0
 22 61  1  0
 23 62  1  0
 23 63  1  0
 23 64  1  0
 24 65  1  0
 25 66  1  0
 27 67  1  6
 33 68  1  0
 33 69  1  0
 35 70  1  0
 36 71  1  0
 36 72  1  0
 37 73  1  0
 37 74  1  0
 38 75  1  0
 39 76  1  0
 41 77  1  0
 42 78  1  0
 43 79  1  0
 43 80  1  0
 43 81  1  0
M  END
> <Uni-Dock RESULT> 
ENERGY=   -8.609  LOWER_BOUND=    0.000  UPPER_BOUND=    0.000
INTER + INTRA:          -8.609
INTER:                  -8.609
INTRA:                   0.000
UNBOUND:                 0.000

$$$$

     RDKit          3D

 81 84  0  0  0  0  0  0  0  0999 V2000
   46.0461    7.6861   12.5670 O   0  0  0  0  0  0  0  0  0  0  0  0
   45.4734    7.1576   12.4839 Cl  0  0  0  0  0  0  0  0  0  0  0  0
   45.4735    7.1579   12.4838 Cl  0  0  0  0  0  0  0  0  0  0  0  0
   42.9117    5.2852   11.7063 O   0  0  0  0  0  0  0  0  0  0  0  0
   43.7487    2.8660   12.5872 O   0  0  0  0  0  0  0  0  0  0  0  0
   47.7501    9.3938   12.2279 N   0  0  0  0  0  0  0  0  0  0  0  0
   46.7284    8.6467   12.9469 C   0  0  1  0  0  0  0  0  0  0  0  0
   45.4304    8.6922   12.2786 C   0  0  0  0  0  0  0  0  0  0  0  0
   44.5625    7.6623   12.0482 C   0  0  0  0  0  0  0  0  0  0  0  0
   44.9687    6.3428   12.4887 C   0  0  0  0  0  0  0  0  0  0  0  0
   46.1925    6.2414   13.0980 C   0  0  0  0  0  0  0  0  0  0  0  0
   45.0212    9.9542   11.8336 C   0  0  0  0  0  0  0  0  0  0  0  0
   47.1644    7.3036   13.3420 C   0  0  0  0  0  0  0  0  0  0  0  0
   44.1524    5.2529   12.3105 C   0  0  0  0  0  0  0  0  0  0  0  0
   43.3617    7.8820   11.4135 C   0  0  0  0  0  0  0  0  0  0  0  0
   46.0110   11.0489   12.1056 C   0  0  0  0  0  0  0  0  0  0  0  0
   47.3058   10.5337   11.5194 C   0  0  0  0  0  0  0  0  0  0  0  0
   43.8481   10.1972   11.2080 C   0  0  0  0  0  0  0  0  0  0  0  0
   46.5580    4.9665   13.5262 C   0  0  0  0  0  0  0  0  0  0  0  0
   44.5518    3.9833   12.7536 C   0  0  0  0  0  0  0  0  0  0  0  0
   42.9779    9.1625   10.9779 C   0  0  0  0  0  0  0  0  0  0  0  0
   45.7722    3.8575   13.3666 C   0  0  0  0  0  0  0  0  0  0  0  0
   48.8674    9.6129   13.1144 C   0  0  0  0  0  0  0  0  0  0  0  0
   45.8103    4.1393   13.6275 O   0  0  0  0  0  0  0  0  0  0  0  0
   43.6205    2.9470   12.6016 O   0  0  0  0  0  0  0  0  0  0  0  0
   45.7105   10.2828   12.1263 N   0  0  0  0  0  0  0  0  0  0  0  0
   45.8250    8.9176   11.6294 C   0  0  1  0  0  0  0  0  0  0  0  0
   46.6654    8.1941   12.6216 C   0  0  0  0  0  0  0  0  0  0  0  0
   46.4454    6.9041   13.0026 C   0  0  0  0  0  0  0  0  0  0  0  0
   45.2520    6.2387   12.5129 C   0  0  0  0  0  0  0  0  0  0  0  0
   44.3975    6.9356   11.7011 C   0  0  0  0  0  0  0  0  0  0  0  0
   47.7537    8.9331   13.1024 C   0  0  0  0  0  0  0  0  0  0  0  0
   44.5055    8.3577   11.3301 C   0  0  0  0  0  0  0  0  0  0  0  0
   45.0185    4.9196   12.8266 C   0  0  0  0  0  0  0  0  0  0  0  0
   47.3193    6.3113   13.8808 C   0  0  0  0  0  0  0  0  0  0  0  0
   48.0313   10.3228   12.7356 C   0  0  0  0  0  0  0  0  0  0  0  0
   46.9361   10.9995   11.9629 C   0  0  0  0  0  0  0  0  0  0  0  0
   48.5936    8.2968   13.9754 C   0  0  0  0  0  0  0  0  0  0  0  0
   43.2725    6.2667   11.1924 C   0  0  0  0  0  0  0  0  0  0  0  0
   43.8860    4.2779   12.3046 C   0  0  0  0  0  0  0  0  0  0  0  0
   48.4293    6.9986   14.3967 C   0  0  0  0  0  0  0  0  0  0  0  0
   43.0130    4.9504   11.4872 C   0  0  0  0  0  0  0  0  0  0  0  0
   44.5644   10.9700   11.5814 C   0  0  0  0  0  0  0  0  0  0  0  0
   45.2676    7.0892   12.4223 H   0  0  0  0  0  0  0  0  0  0  0  0
   45.8854    8.6109   12.2644 H   0  0  0  0  0  0  0  0  0  0  0  0
   45.9927    8.4332   12.3519 H   0  0  0  0  0  0  0  0  0  0  0  0
   45.9925    8.4330   12.3520 H   0  0  0  0  0  0  0  0  0  0  0  0
   42.5216    4.5421   11.1725 H   0  0  0  0  0  0  0  0  0  0  0  0
   43.1125    2.5569   13.2847 H   0  0  0  0  0  0  0  0  0  0  0  0
   46.6070    9.2362   13.9314 H   0  0  0  0  0  0  0  0  0  0  0  0
   48.0410    7.0460   12.6422 H   0  0  0  0  0  0  0  0  0  0  0  0
   47.5674    7.2597   14.3980 H   0  0  0  0  0  0  0  0  0  0  0  0
   42.6339    7.1232   11.1996 H   0  0  0  0  0  0  0  0  0  0  0  0
   45.7065   12.0158   11.6657 H   0  0  0  0  0  0  0  0  0  0  0  0
   46.1302   11.0845   13.2092 H   0  0  0  0  0  0  0  0  0  0  0  0
   47.0702   10.2039   10.4736 H   0  0  0  0  0  0  0  0  0  0  0  0
   48.1016   11.3036   11.5203 H   0  0  0  0  0  0  0  0  0  0  0  0
   43.5572   11.1771   10.8758 H   0  0  0  0  0  0  0  0  0  0  0  0
   47.5253    4.7976   14.0257 H   0  0  0  0  0  0  0  0  0  0  0  0
   42.0433    9.3378   10.4831 H   0  0  0  0  0  0  0  0  0  0  0  0
   46.0619    2.8739   13.7005 H   0  0  0  0  0  0  0  0  0  0  0  0
   49.3959   10.5464   12.8322 H   0  0  0  0  0  0  0  0  0  0  0  0
   49.5898    8.7671   13.0130 H   0  0  0  0  0  0  0  0  0  0  0  0
   48.5725    9.6730   14.1815 H   0  0  0  0  0  0  0  0  0  0  0  0
   45.4800    3.4471   14.2794 H   0  0  0  0  0  0  0  0  0  0  0  0
   42.6552    2.7214   12.7908 H   0  0  0  0  0  0  0  0  0  0  0  0
   46.4447    8.9075   10.6828 H   0  0  0  0  0  0  0  0  0  0  0  0
   43.7370    8.9600   11.9161 H   0  0  0  0  0  0  0  0  0  0  0  0
   44.2916    8.5097   10.2445 H   0  0  0  0  0  0  0  0  0  0  0  0
   47.2238    5.3059   14.2347 H   0  0  0  0  0  0  0  0  0  0  0  0
   48.1616   10.8754   13.7164 H   0  0  0  0  0  0  0  0  0  0  0  0
   48.9977   10.3806   12.1784 H   0  0  0  0  0  0  0  0  0  0  0  0
   46.7731   12.0111   12.4098 H   0  0  0  0  0  0  0  0  0  0  0  0
   47.2398   11.0948   10.8898 H   0  0  0  0  0  0  0  0  0  0  0  0
   49.4469    8.8311   14.3706 H   0  0  0  0  0  0  0  0  0  0  0  0
   42.5653    6.7713   10.5445 H   0  0  0  0  0  0  0  0  0  0  0  0
   49.1133    6.5169   15.0912 H   0  0  0  0  0  0  0  0  0  0  0  0
   42.1554    4.4155   11.1084 H   0  0  0  0  0  0  0  0  0  0  0  0
   44.8236   12.0368   11.4108 H   0  0  0  0  0  0  0  0  0  0  0  0
   43.7684   10.9518   12.3627 H   0  0  0  0  0  0  0  0  0  0  0  0
   44.1954   10.5293   10.6324 H   0  0  0  0  0  0  0  0  0  0  0  0
  4 14  1  0
  5 20  1  0
  6  7  1  0
  6 17  1  0
  6 23  1  0
  7  8  1  0
  7 13  1  0
  8  9  1  0
  8 12  2  0
  9 10  1  0
  9 15  2  0
 10 11  2  0
 10 14  1  0
 11 13  1  0
 11 19  1  0
 12 16  1  0
 12 18  1  0
 14 20  2  0
 15 21  1  0
 16 17  1  0
 18 21  2  0
 19 22  2  0
 20 22  1  0
 24 34  1  0
 25 40  1  0
 26 27  1  0
 26 37  1  0
 26 43  1  0
 27 28  1  0
 27 33  1  0
 28 29  1  0
 28 32  2  0
 29 30  1  0
 29 35  2  0
 30 31  2  0
 30 34  1  0
 31 33  1  0
 31 39  1  0
 32 36  1  0
 32 38  1  0
 34 40  2  0
 35 41  1  0
 36 37  1  0
 38 41  2  0
 39 42  2  0
 40 42  1  0
  1 44  1  0
  1 45  1  0
  2 46  1  0
  3 47  1  0
  4 48  1  0
  5 49  1  0
  7 50  1  1
 13 51  1  0
 13 52  1  0
 15 53  1  0
 16 54  1  0
 16 55  1  0
 17 56  1  0
 17 57  1  0
 18 58  1  0
 19 59  1  0
 21 60  1  0
 22 61  1  0
 23 62  1  0
 23 63  1  0
 23 64  1  0
 24 65  1  0
 25 66  1  0
 27 67  1  6
 33 68  1  0
 33 69  1  0
 35 70  1  0
 36 71  1  0
 36 72  1  0
 37 73  1  0
 37 74  1  0
 38 75  1  0
 39 76  1  0
 41 77  1  0
 42 78  1  0
 43 79  1  0
 43 80  1  0
 43 81  1  0
M  END
> <Uni-Dock RESULT> 
ENERGY=   -8.500  LOWER_BOUND=    1.782  UPPER_BOUND=    5.426
INTER + INTRA:          -8.500
INTER:                  -8.500
INTRA:                   0.000
UNBOUND:                 0.000

$$$$

     RDKit          3D

 81 84  0  0  0  0  0  0  0  0999 V2000
   45.5560    8.0906   12.1242 O   0  0  0  0  0  0  0  0  0  0  0  0
   45.5481    7.3173   12.2516 Cl  0  0  0  0  0  0  0  0  0  0  0  0
   45.5483    7.3176   12.2516 Cl  0  0  0  0  0  0  0  0  0  0  0  0
   45.9579    4.1968   13.1277 O   0  0  0  0  0  0  0  0  0  0  0  0
   43.4529    3.2278   12.7892 O   0  0  0  0  0  0  0  0  0  0  0  0
   45.7967   10.5088   12.2939 N   0  0  0  0  0  0  0  0  0  0  0  0
   45.7548    9.2108   11.6362 C   0  0  1  0  0  0  0  0  0  0  0  0
   46.7539    8.2855   12.1645 C   0  0  0  0  0  0  0  0  0  0  0  0
   46.5930    6.9713   12.5022 C   0  0  0  0  0  0  0  0  0  0  0  0
   45.2669    6.4065   12.3521 C   0  0  0  0  0  0  0  0  0  0  0  0
   44.2857    7.2423   11.8852 C   0  0  0  0  0  0  0  0  0  0  0  0
   48.0402    8.8113   12.3295 C   0  0  0  0  0  0  0  0  0  0  0  0
   44.4011    8.6558   11.5376 C   0  0  0  0  0  0  0  0  0  0  0  0
   45.0181    5.0903   12.6545 C   0  0  0  0  0  0  0  0  0  0  0  0
   47.6523    6.2309   12.9742 C   0  0  0  0  0  0  0  0  0  0  0  0
   48.1627   10.2580   11.9500 C   0  0  0  0  0  0  0  0  0  0  0  0
   47.0676   10.9426   12.7360 C   0  0  0  0  0  0  0  0  0  0  0  0
   49.0971    8.1064   12.7907 C   0  0  0  0  0  0  0  0  0  0  0  0
   43.0212    6.6759   11.7352 C   0  0  0  0  0  0  0  0  0  0  0  0
   43.7328    4.5524   12.4920 C   0  0  0  0  0  0  0  0  0  0  0  0
   48.9342    6.7873   13.1288 C   0  0  0  0  0  0  0  0  0  0  0  0
   42.7350    5.3695   12.0257 C   0  0  0  0  0  0  0  0  0  0  0  0
   45.0661   11.4559   11.4867 C   0  0  0  0  0  0  0  0  0  0  0  0
   42.8674    5.5669   11.7216 O   0  0  0  0  0  0  0  0  0  0  0  0
   43.5922    3.1816   12.7485 O   0  0  0  0  0  0  0  0  0  0  0  0
   47.7835    9.5335   12.0445 N   0  0  0  0  0  0  0  0  0  0  0  0
   46.7974    8.7654   12.7938 C   0  0  1  0  0  0  0  0  0  0  0  0
   45.5247    8.8876   12.0327 C   0  0  0  0  0  0  0  0  0  0  0  0
   44.6336    7.8676   11.8787 C   0  0  0  0  0  0  0  0  0  0  0  0
   45.0034    6.5541   12.3734 C   0  0  0  0  0  0  0  0  0  0  0  0
   46.2294    6.3946   12.9615 C   0  0  0  0  0  0  0  0  0  0  0  0
   45.2787   10.1690   11.5237 C   0  0  0  0  0  0  0  0  0  0  0  0
   47.2881    7.4139   13.0711 C   0  0  0  0  0  0  0  0  0  0  0  0
   44.1129    5.5085   12.2894 C   0  0  0  0  0  0  0  0  0  0  0  0
   43.4590    8.1056   11.2080 C   0  0  0  0  0  0  0  0  0  0  0  0
   46.2037   11.2965   11.6504 C   0  0  0  0  0  0  0  0  0  0  0  0
   47.5614   10.9385   12.1824 C   0  0  0  0  0  0  0  0  0  0  0  0
   44.0946   10.3533   10.8631 C   0  0  0  0  0  0  0  0  0  0  0  0
   46.5564    5.1318   13.4815 C   0  0  0  0  0  0  0  0  0  0  0  0
   44.4675    4.2583   12.8167 C   0  0  0  0  0  0  0  0  0  0  0  0
   43.1539    9.3685   10.6762 C   0  0  0  0  0  0  0  0  0  0  0  0
   45.6886    4.0693   13.4133 C   0  0  0  0  0  0  0  0  0  0  0  0
   49.1362    9.1317   12.3469 C   0  0  0  0  0  0  0  0  0  0  0  0
   45.6417    7.1195   12.3059 H   0  0  0  0  0  0  0  0  0  0  0  0
   46.4048    8.5806   12.2346 H   0  0  0  0  0  0  0  0  0  0  0  0
   46.1869    8.5431   12.1915 H   0  0  0  0  0  0  0  0  0  0  0  0
   46.1868    8.5429   12.1915 H   0  0  0  0  0  0  0  0  0  0  0  0
   45.7637    3.4476   13.7524 H   0  0  0  0  0  0  0  0  0  0  0  0
   43.4926    2.5073   12.1064 H   0  0  0  0  0  0  0  0  0  0  0  0
   46.0732    9.4479   10.5528 H   0  0  0  0  0  0  0  0  0  0  0  0
   43.7877    9.1938   12.3492 H   0  0  0  0  0  0  0  0  0  0  0  0
   43.8997    8.8800   10.5488 H   0  0  0  0  0  0  0  0  0  0  0  0
   47.5991    5.1975   13.2582 H   0  0  0  0  0  0  0  0  0  0  0  0
   49.1622   10.6727   12.1740 H   0  0  0  0  0  0  0  0  0  0  0  0
   47.8927   10.3147   10.8743 H   0  0  0  0  0  0  0  0  0  0  0  0
   47.1827   10.6043   13.7991 H   0  0  0  0  0  0  0  0  0  0  0  0
   47.1278   12.0459   12.6645 H   0  0  0  0  0  0  0  0  0  0  0  0
   50.0761    8.5343   12.9081 H   0  0  0  0  0  0  0  0  0  0  0  0
   42.1763    7.2782   11.3651 H   0  0  0  0  0  0  0  0  0  0  0  0
   49.7619    6.2139   13.4961 H   0  0  0  0  0  0  0  0  0  0  0  0
   41.7537    4.9382   11.9072 H   0  0  0  0  0  0  0  0  0  0  0  0
   45.4753   12.4757   11.6378 H   0  0  0  0  0  0  0  0  0  0  0  0
   43.9963   11.4658   11.8077 H   0  0  0  0  0  0  0  0  0  0  0  0
   45.0870   11.2147   10.4047 H   0  0  0  0  0  0  0  0  0  0  0  0
   42.4362    4.8348   11.1820 H   0  0  0  0  0  0  0  0  0  0  0  0
   44.0062    2.2906   12.5179 H   0  0  0  0  0  0  0  0  0  0  0  0
   46.5814    9.2801   13.7779 H   0  0  0  0  0  0  0  0  0  0  0  0
   48.1104    7.1866   12.3168 H   0  0  0  0  0  0  0  0  0  0  0  0
   47.7543    7.4051   14.0860 H   0  0  0  0  0  0  0  0  0  0  0  0
   42.7046    7.3656   11.0392 H   0  0  0  0  0  0  0  0  0  0  0  0
   46.3342   11.7016   10.6002 H   0  0  0  0  0  0  0  0  0  0  0  0
   45.7381   12.0990   12.2723 H   0  0  0  0  0  0  0  0  0  0  0  0
   48.3265   11.4440   11.5432 H   0  0  0  0  0  0  0  0  0  0  0  0
   47.6513   11.2870   13.2423 H   0  0  0  0  0  0  0  0  0  0  0  0
   43.8648   11.3280   10.4545 H   0  0  0  0  0  0  0  0  0  0  0  0
   47.5130    4.9520   13.9582 H   0  0  0  0  0  0  0  0  0  0  0  0
   42.2199    9.5429   10.1476 H   0  0  0  0  0  0  0  0  0  0  0  0
   45.9175    3.0901   13.8054 H   0  0  0  0  0  0  0  0  0  0  0  0
   49.7946   10.0266   12.3398 H   0  0  0  0  0  0  0  0  0  0  0  0
   49.4773    8.4729   11.5139 H   0  0  0  0  0  0  0  0  0  0  0  0
   49.2353    8.6152   13.3239 H   0  0  0  0  0  0  0  0  0  0  0  0
  4 14  1  0
  5 20  1  0
  6  7  1  0
  6 17  1  0
  6 23  1  0
  7  8  1  0
  7 13  1  0
  8  9  1  0
  8 12  2  0
  9 10  1  0
  9 15  2  0
 10 11  2  0
 10 14  1  0
 11 13  1  0
 11 19  1  0
 12 16  1  0
 12 18  1  0
 14 20  2  0
 15 21  1  0
 16 17  1  0
 18 21  2  0
 19 22  2  0
 20 22  1  0
 24 34  1  0
 25 40  1  0
 26 27  1  0
 26 37  1  0
 26 43  1  0
 27 28  1  0
 27 33  1  0
 28 29  1  0
 28 32  2  0
 29 30  1  0
 29 35  2  0
 30 31  2  0
 30 34  1  0
 31 33  1  0
 31 39  1  0
 32 36  1  0
 32 38  1  0
 34 40  2  0
 35 41  1  0
 36 37  1  0
 38 41  2  0
 39 42  2  0
 40 42  1  0
  1 44  1  0
  1 45  1  0
  2 46  1  0
  3 47  1  0
  4 48  1  0
  5 49  1  0
  7 50  1  1
 13 51  1  0
 13 52  1  0
 15 53  1  0
 16 54  1  0
 16 55  1  0
 17 56  1  0
 17 57  1  0
 18 58  1  0
 19 59  1  0
 21 60  1  0
 22 61  1  0
 23 62  1  0
 23 63  1  0
 23 64  1  0
 24 65  1  0
 25 66  1  0
 27 67  1  6
 33 68  1  0
 33 69  1  0
 35 70  1  0
 36 71  1  0
 36 72  1  0
 37 73  1  0
 37 74  1  0
 38 75  1  0
 39 76  1  0
 41 77  1  0
 42 78  1  0
 43 79  1  0
 43 80  1  0
 43 81  1  0
M  END
> <Uni-Dock RESULT> 
ENERGY=   -8.447  LOWER_BOUND=    1.752  UPPER_BOUND=    4.706
INTER + INTRA:          -8.447
INTER:                  -8.447
INTRA:                   0.000
UNBOUND:                 0.000

$$$$

     RDKit          3D

 81 84  0  0  0  0  0  0  0  0999 V2000
   45.9057    7.3175   12.6355 O   0  0  0  0  0  0  0  0  0  0  0  0
   45.3943    7.7304   12.2086 Cl  0  0  0  0  0  0  0  0  0  0  0  0
   45.3944    7.7302   12.2087 Cl  0  0  0  0  0  0  0  0  0  0  0  0
   42.8922    9.0393   10.5656 O   0  0  0  0  0  0  0  0  0  0  0  0
   43.5646   11.6614   10.5955 O   0  0  0  0  0  0  0  0  0  0  0  0
   46.9966    5.8737   14.2665 N   0  0  0  0  0  0  0  0  0  0  0  0
   46.8043    6.5423   12.9878 C   0  0  1  0  0  0  0  0  0  0  0  0
   45.5303    6.1953   12.3632 C   0  0  0  0  0  0  0  0  0  0  0  0
   44.6255    7.0298   11.7699 C   0  0  0  0  0  0  0  0  0  0  0  0
   44.9315    8.4463   11.7704 C   0  0  0  0  0  0  0  0  0  0  0  0
   46.1041    8.8277   12.3695 C   0  0  0  0  0  0  0  0  0  0  0  0
   45.2070    4.8338   12.3606 C   0  0  0  0  0  0  0  0  0  0  0  0
   47.0872    7.9802   13.0385 C   0  0  0  0  0  0  0  0  0  0  0  0
   44.0852    9.3551   11.1841 C   0  0  0  0  0  0  0  0  0  0  0  0
   43.4713    6.5329   11.2095 C   0  0  0  0  0  0  0  0  0  0  0  0
   46.2294    3.9614   13.0282 C   0  0  0  0  0  0  0  0  0  0  0  0
   46.4208    4.5884   14.3905 C   0  0  0  0  0  0  0  0  0  0  0  0
   44.0810    4.3199   11.8177 C   0  0  0  0  0  0  0  0  0  0  0  0
   46.3859   10.1923   12.3471 C   0  0  0  0  0  0  0  0  0  0  0  0
   44.3997   10.7221   11.1797 C   0  0  0  0  0  0  0  0  0  0  0  0
   43.1741    5.1588   11.2222 C   0  0  0  0  0  0  0  0  0  0  0  0
   45.5681   11.1273   11.7727 C   0  0  0  0  0  0  0  0  0  0  0  0
   48.3911    5.9643   14.6264 C   0  0  0  0  0  0  0  0  0  0  0  0
   45.8538   10.8951   11.6568 O   0  0  0  0  0  0  0  0  0  0  0  0
   43.5178   11.5639   10.4883 O   0  0  0  0  0  0  0  0  0  0  0  0
   45.9088    4.6646   12.7448 N   0  0  0  0  0  0  0  0  0  0  0  0
   45.3005    5.9459   13.0795 C   0  0  1  0  0  0  0  0  0  0  0  0
   46.4177    6.9280   13.1158 C   0  0  0  0  0  0  0  0  0  0  0  0
   46.3166    8.2072   12.6561 C   0  0  0  0  0  0  0  0  0  0  0  0
   45.0945    8.5967   11.9766 C   0  0  0  0  0  0  0  0  0  0  0  0
   44.1047    7.6640   11.8186 C   0  0  0  0  0  0  0  0  0  0  0  0
   47.5867    6.4486   13.7203 C   0  0  0  0  0  0  0  0  0  0  0  0
   44.1758    6.2393   12.1888 C   0  0  0  0  0  0  0  0  0  0  0  0
   44.9266    9.8925   11.5456 C   0  0  0  0  0  0  0  0  0  0  0  0
   47.3916    9.0508   12.7935 C   0  0  0  0  0  0  0  0  0  0  0  0
   47.7537    5.0833   14.2214 C   0  0  0  0  0  0  0  0  0  0  0  0
   46.6491    4.1374   13.8477 C   0  0  0  0  0  0  0  0  0  0  0  0
   48.6286    7.3285   13.8321 C   0  0  0  0  0  0  0  0  0  0  0  0
   42.9072    8.0651   11.2048 C   0  0  0  0  0  0  0  0  0  0  0  0
   43.7200   10.2641   10.9350 C   0  0  0  0  0  0  0  0  0  0  0  0
   48.5899    8.6302   13.3919 C   0  0  0  0  0  0  0  0  0  0  0  0
   42.7098    9.3513   10.7648 C   0  0  0  0  0  0  0  0  0  0  0  0
   44.9551    3.7327   12.1930 C   0  0  0  0  0  0  0  0  0  0  0  0
   45.2112    7.7555   12.0795 H   0  0  0  0  0  0  0  0  0  0  0  0
   45.7686    6.3454   12.7299 H   0  0  0  0  0  0  0  0  0  0  0  0
   45.8627    6.5486   12.7547 H   0  0  0  0  0  0  0  0  0  0  0  0
   45.8626    6.5488   12.7545 H   0  0  0  0  0  0  0  0  0  0  0  0
   42.0900    9.6269   10.5478 H   0  0  0  0  0  0  0  0  0  0  0  0
   43.6731   11.9608    9.6545 H   0  0  0  0  0  0  0  0  0  0  0  0
   47.6276    6.0869   12.3198 H   0  0  0  0  0  0  0  0  0  0  0  0
   46.9988    8.2725   14.1481 H   0  0  0  0  0  0  0  0  0  0  0  0
   48.1408    8.2375   12.7173 H   0  0  0  0  0  0  0  0  0  0  0  0
   42.7184    7.1274   10.7290 H   0  0  0  0  0  0  0  0  0  0  0  0
   45.9094    2.9057   13.0933 H   0  0  0  0  0  0  0  0  0  0  0  0
   47.1706    4.1025   12.4559 H   0  0  0  0  0  0  0  0  0  0  0  0
   45.3949    4.7244   14.8229 H   0  0  0  0  0  0  0  0  0  0  0  0
   47.0492    3.9638   15.0546 H   0  0  0  0  0  0  0  0  0  0  0  0
   43.8561    3.2690   11.8289 H   0  0  0  0  0  0  0  0  0  0  0  0
   47.3081   10.5829   12.8059 H   0  0  0  0  0  0  0  0  0  0  0  0
   42.2761    4.7677   10.7867 H   0  0  0  0  0  0  0  0  0  0  0  0
   45.7928   12.1819   11.7594 H   0  0  0  0  0  0  0  0  0  0  0  0
   48.6755    5.0969   15.2565 H   0  0  0  0  0  0  0  0  0  0  0  0
   48.5574    6.8917   15.2263 H   0  0  0  0  0  0  0  0  0  0  0  0
   49.0663    6.0100   13.7482 H   0  0  0  0  0  0  0  0  0  0  0  0
   46.0255   11.6111   10.9705 H   0  0  0  0  0  0  0  0  0  0  0  0
   43.0532   11.6568    9.5973 H   0  0  0  0  0  0  0  0  0  0  0  0
   44.9203    5.9204   14.1448 H   0  0  0  0  0  0  0  0  0  0  0  0
   44.3107    5.6113   11.2485 H   0  0  0  0  0  0  0  0  0  0  0  0
   43.2325    5.9024   12.6828 H   0  0  0  0  0  0  0  0  0  0  0  0
   47.4018   10.0680   12.4611 H   0  0  0  0  0  0  0  0  0  0  0  0
   48.7137    4.7037   13.7540 H   0  0  0  0  0  0  0  0  0  0  0  0
   47.8956    5.1023   15.3291 H   0  0  0  0  0  0  0  0  0  0  0  0
   47.1157    3.1866   13.4899 H   0  0  0  0  0  0  0  0  0  0  0  0
   46.0070    3.9403   14.7430 H   0  0  0  0  0  0  0  0  0  0  0  0
   49.5499    6.9992   14.2931 H   0  0  0  0  0  0  0  0  0  0  0  0
   42.0915    7.3671   11.0565 H   0  0  0  0  0  0  0  0  0  0  0  0
   49.4331    9.3089   13.4944 H   0  0  0  0  0  0  0  0  0  0  0  0
   41.7987    9.6829   10.2903 H   0  0  0  0  0  0  0  0  0  0  0  0
   45.1972    2.7077   12.5472 H   0  0  0  0  0  0  0  0  0  0  0  0
   45.0966    3.7341   11.0865 H   0  0  0  0  0  0  0  0  0  0  0  0
   43.9035    3.9693   12.4562 H   0  0  0  0  0  0  0  0  0  0  0  0
  4 14  1  0
  5 20  1  0
  6  7  1  0
  6 17  1  0
  6 23  1  0
  7  8  1  0
  7 13  1  0
  8  9  1  0
  8 12  2  0
  9 10  1  0
  9 15  2  0
 10 11  2  0
 10 14  1  0
 11 13  1  0
 11 19  1  0
 12 16  1  0
 12 18  1  0
 14 20  2  0
 15 21  1  0
 16 17  1  0
 18 21  2  0
 19 22  2  0
 20 22  1  0
 24 34  1  0
 25 40  1  0
 26 27  1  0
 26 37  1  0
 26 43  1  0
 27 28  1  0
 27 33  1  0
 28 29  1  0
 28 32  2  0
 29 30  1  0
 29 35  2  0
 30 31  2  0
 30 34  1  0
 31 33  1  0
 31 39  1  0
 32 36  1  0
 32 38  1  0
 34 40  2  0
 35 41  1  0
 36 37  1  0
 38 41  2  0
 39 42  2  0
 40 42  1  0
  1 44  1  0
  1 45  1  0
  2 46  1  0
  3 47  1  0
  4 48  1  0
  5 49  1  0
  7 50  1  1
 13 51  1  0
 13 52  1  0
 15 53  1  0
 16 54  1  0
 16 55  1  0
 17 56  1  0
 17 57  1  0
 18 58  1  0
 19 59  1  0
 21 60  1  0
 22 61  1  0
 23 62  1  0
 23 63  1  0
 23 64  1  0
 24 65  1  0
 25 66  1  0
 27 67  1  6
 33 68  1  0
 33 69  1  0
 35 70  1  0
 36 71  1  0
 36 72  1  0
 37 73  1  0
 37 74  1  0
 38 75  1  0
 39 76  1  0
 41 77  1  0
 42 78  1  0
 43 79  1  0
 43 80  1  0
 43 81  1  0
M  END
> <Uni-Dock RESULT> 
ENERGY=   -7.735  LOWER_BOUND=    0.618  UPPER_BOUND=    3.252
INTER + INTRA:          -7.735
INTER:                  -7.735
INTRA:                   0.000
UNBOUND:                 0.000

$$$$

     RDKit          3D

 81 84  0  0  0  0  0  0  0  0999 V2000
   47.8291    9.0994   20.1798 O   0  0  0  0  0  0  0  0  0  0  0  0
   47.9486    8.4044   20.5218 Cl  0  0  0  0  0  0  0  0  0  0  0  0
   47.9486    8.4047   20.5218 Cl  0  0  0  0  0  0  0  0  0  0  0  0
   48.1996    5.7454   22.4032 O   0  0  0  0  0  0  0  0  0  0  0  0
   48.2302    3.7867   20.5348 O   0  0  0  0  0  0  0  0  0  0  0  0
   46.9814   11.2769   19.4909 N   0  0  0  0  0  0  0  0  0  0  0  0
   47.9792   10.2464   19.7389 C   0  0  1  0  0  0  0  0  0  0  0  0
   48.0095    9.8246   21.1369 C   0  0  0  0  0  0  0  0  0  0  0  0
   48.0667    8.5533   21.6345 C   0  0  0  0  0  0  0  0  0  0  0  0
   48.0721    7.4665   20.6759 C   0  0  0  0  0  0  0  0  0  0  0  0
   48.0169    7.8087   19.3496 C   0  0  0  0  0  0  0  0  0  0  0  0
   47.9934   10.8563   22.0822 C   0  0  0  0  0  0  0  0  0  0  0  0
   47.9276    9.1463   18.7707 C   0  0  0  0  0  0  0  0  0  0  0  0
   48.1421    6.1582   21.0872 C   0  0  0  0  0  0  0  0  0  0  0  0
   48.1059    8.3294   22.9916 C   0  0  0  0  0  0  0  0  0  0  0  0
   47.9249   12.2314   21.4853 C   0  0  0  0  0  0  0  0  0  0  0  0
   46.7344   12.1741   20.5552 C   0  0  0  0  0  0  0  0  0  0  0  0
   48.0309   10.6639   23.4195 C   0  0  0  0  0  0  0  0  0  0  0  0
   48.0369    6.7494   18.4441 C   0  0  0  0  0  0  0  0  0  0  0  0
   48.1600    5.1160   20.1485 C   0  0  0  0  0  0  0  0  0  0  0  0
   48.0887    9.3874   23.9173 C   0  0  0  0  0  0  0  0  0  0  0  0
   48.1062    5.4341   18.8155 C   0  0  0  0  0  0  0  0  0  0  0  0
   47.2638   11.8917   18.2162 C   0  0  0  0  0  0  0  0  0  0  0  0
   48.3564    5.7195   18.7452 O   0  0  0  0  0  0  0  0  0  0  0  0
   48.3143    3.8192   20.6575 O   0  0  0  0  0  0  0  0  0  0  0  0
   47.9736   11.4097   21.4805 N   0  0  0  0  0  0  0  0  0  0  0  0
   47.2910   10.1524   21.2027 C   0  0  1  0  0  0  0  0  0  0  0  0
   47.6600    9.7903   19.8075 C   0  0  0  0  0  0  0  0  0  0  0  0
   47.9104    8.5148   19.3973 C   0  0  0  0  0  0  0  0  0  0  0  0
   47.9458    7.4666   20.4007 C   0  0  0  0  0  0  0  0  0  0  0  0
   47.7370    7.8042   21.7111 C   0  0  0  0  0  0  0  0  0  0  0  0
   47.6766   10.8713   18.9171 C   0  0  0  0  0  0  0  0  0  0  0  0
   47.5666    9.1656   22.2490 C   0  0  0  0  0  0  0  0  0  0  0  0
   48.1397    6.1572   20.0254 C   0  0  0  0  0  0  0  0  0  0  0  0
   48.1831    8.2836   18.0712 C   0  0  0  0  0  0  0  0  0  0  0  0
   47.4259   12.2606   19.3044 C   0  0  0  0  0  0  0  0  0  0  0  0
   47.3608   12.4978   20.7856 C   0  0  0  0  0  0  0  0  0  0  0  0
   47.9543   10.5874   17.6076 C   0  0  0  0  0  0  0  0  0  0  0  0
   47.7233    6.7756   22.6670 C   0  0  0  0  0  0  0  0  0  0  0  0
   48.1218    5.1511   21.0023 C   0  0  0  0  0  0  0  0  0  0  0  0
   48.2127    9.3246   17.1299 C   0  0  0  0  0  0  0  0  0  0  0  0
   47.9132    5.4594   22.3230 C   0  0  0  0  0  0  0  0  0  0  0  0
   48.1325   11.6461   22.8952 C   0  0  0  0  0  0  0  0  0  0  0  0
   47.9814    8.2679   20.6982 H   0  0  0  0  0  0  0  0  0  0  0  0
   47.7728    9.9038   20.7477 H   0  0  0  0  0  0  0  0  0  0  0  0
   47.7736    9.7763   20.5620 H   0  0  0  0  0  0  0  0  0  0  0  0
   47.7736    9.7760   20.5620 H   0  0  0  0  0  0  0  0  0  0  0  0
   47.8099    4.8983   22.7492 H   0  0  0  0  0  0  0  0  0  0  0  0
   49.0917    3.2989   20.6161 H   0  0  0  0  0  0  0  0  0  0  0  0
   48.9792   10.7874   19.5417 H   0  0  0  0  0  0  0  0  0  0  0  0
   46.8705    9.1843   18.3174 H   0  0  0  0  0  0  0  0  0  0  0  0
   48.6541    9.2743   17.9132 H   0  0  0  0  0  0  0  0  0  0  0  0
   48.1508    7.3611   23.4517 H   0  0  0  0  0  0  0  0  0  0  0  0
   47.8220   13.0219   22.2505 H   0  0  0  0  0  0  0  0  0  0  0  0
   48.8369   12.3382   20.8607 H   0  0  0  0  0  0  0  0  0  0  0  0
   45.8850   11.7529   21.1543 H   0  0  0  0  0  0  0  0  0  0  0  0
   46.4734   13.1698   20.1470 H   0  0  0  0  0  0  0  0  0  0  0  0
   48.0175   11.4746   24.1251 H   0  0  0  0  0  0  0  0  0  0  0  0
   47.9963    6.9371   17.3593 H   0  0  0  0  0  0  0  0  0  0  0  0
   48.1191    9.2172   24.9752 H   0  0  0  0  0  0  0  0  0  0  0  0
   48.1212    4.6196   18.1089 H   0  0  0  0  0  0  0  0  0  0  0  0
   46.9043   12.9410   18.2153 H   0  0  0  0  0  0  0  0  0  0  0  0
   46.7165   11.3420   17.4126 H   0  0  0  0  0  0  0  0  0  0  0  0
   48.3411   11.8785   17.9546 H   0  0  0  0  0  0  0  0  0  0  0  0
   48.9802    4.9756   18.4798 H   0  0  0  0  0  0  0  0  0  0  0  0
   48.8983    3.2822   21.2812 H   0  0  0  0  0  0  0  0  0  0  0  0
   46.1742   10.3274   21.1566 H   0  0  0  0  0  0  0  0  0  0  0  0
   48.5233    9.4850   22.7776 H   0  0  0  0  0  0  0  0  0  0  0  0
   46.7413    9.2030   23.0006 H   0  0  0  0  0  0  0  0  0  0  0  0
   48.3923    7.3172   17.6619 H   0  0  0  0  0  0  0  0  0  0  0  0
   48.2997   12.8529   18.8925 H   0  0  0  0  0  0  0  0  0  0  0  0
   46.4964   12.6296   18.8070 H   0  0  0  0  0  0  0  0  0  0  0  0
   47.9717   13.4050   21.0167 H   0  0  0  0  0  0  0  0  0  0  0  0
   46.2964   12.6598   21.0917 H   0  0  0  0  0  0  0  0  0  0  0  0
   47.9767   11.3932   16.8865 H   0  0  0  0  0  0  0  0  0  0  0  0
   47.5610    6.9879   23.7173 H   0  0  0  0  0  0  0  0  0  0  0  0
   48.4297    9.1271   16.0830 H   0  0  0  0  0  0  0  0  0  0  0  0
   47.9071    4.6520   23.0393 H   0  0  0  0  0  0  0  0  0  0  0  0
   48.0153   12.7316   23.1009 H   0  0  0  0  0  0  0  0  0  0  0  0
   49.1836   11.3792   23.1569 H   0  0  0  0  0  0  0  0  0  0  0  0
   47.4140   11.0778   23.5213 H   0  0  0  0  0  0  0  0  0  0  0  0
  4 14  1  0
  5 20  1  0
  6  7  1  0
  6 17  1  0
  6 23  1  0
  7  8  1  0
  7 13  1  0
  8  9  1  0
  8 12  2  0
  9 10  1  0
  9 15  2  0
 10 11  2  0
 10 14  1  0
 11 13  1  0
 11 19  1  0
 12 16  1  0
 12 18  1  0
 14 20  2  0
 15 21  1  0
 16 17  1  0
 18 21  2  0
 19 22  2  0
 20 22  1  0
 24 34  1  0
 25 40  1  0
 26 27  1  0
 26 37  1  0
 26 43  1  0
 27 28  1  0
 27 33  1  0
 28 29  1  0
 28 32  2  0
 29 30  1  0
 29 35  2  0
 30 31  2  0
 30 34  1  0
 31 33  1  0
 31 39  1  0
 32 36  1  0
 32 38  1  0
 34 40  2  0
 35 41  1  0
 36 37  1  0
 38 41  2  0
 39 42  2  0
 40 42  1  0
  1 44  1  0
  1 45  1  0
  2 46  1  0
  3 47  1  0
  4 48  1  0
  5 49  1  0
  7 50  1  1
 13 51  1  0
 13 52  1  0
 15 53  1  0
 16 54  1  0
 16 55  1  0
 17 56  1  0
 17 57  1  0
 18 58  1  0
 19 59  1  0
 21 60  1  0
 22 61  1  0
 23 62  1  0
 23 63  1  0
 23 64  1  0
 24 65  1  0
 25 66  1  0
 27 67  1  6
 33 68  1  0
 33 69  1  0
 35 70  1  0
 36 71  1  0
 36 72  1  0
 37 73  1  0
 37 74  1  0
 38 75  1  0
 39 76  1  0
 41 77  1  0
 42 78  1  0
 43 79  1  0
 43 80  1  0
 43 81  1  0
M  END
> <Uni-Dock RESULT> 
ENERGY=   -7.586  LOWER_BOUND=    7.201  UPPER_BOUND=    9.898
INTER + INTRA:          -7.586
INTER:                  -7.586
INTRA:                   0.000
UNBOUND:                 0.000

$$$$

     RDKit          3D

 81 84  0  0  0  0  0  0  0  0999 V2000
   50.5120    3.8511   18.2011 O   0  0  0  0  0  0  0  0  0  0  0  0
   51.2757    3.7336   18.3323 Cl  0  0  0  0  0  0  0  0  0  0  0  0
   51.2754    3.7337   18.3323 Cl  0  0  0  0  0  0  0  0  0  0  0  0
   54.3955    3.6282   19.2958 O   0  0  0  0  0  0  0  0  0  0  0  0
   55.0929    1.1273   18.5290 O   0  0  0  0  0  0  0  0  0  0  0  0
   48.1308    4.3308   18.3882 N   0  0  0  0  0  0  0  0  0  0  0  0
   49.4350    4.2575   17.7455 C   0  0  1  0  0  0  0  0  0  0  0  0
   50.4487    5.0378   18.4506 C   0  0  0  0  0  0  0  0  0  0  0  0
   51.7269    4.6727   18.7667 C   0  0  0  0  0  0  0  0  0  0  0  0
   52.1467    3.3379   18.3899 C   0  0  0  0  0  0  0  0  0  0  0  0
   51.2222    2.5542   17.7493 C   0  0  0  0  0  0  0  0  0  0  0  0
   50.0628    6.3268   18.8353 C   0  0  0  0  0  0  0  0  0  0  0  0
   49.8405    2.8878   17.4145 C   0  0  0  0  0  0  0  0  0  0  0  0
   53.4183    2.8926   18.6558 C   0  0  0  0  0  0  0  0  0  0  0  0
   52.5652    5.5426   19.4252 C   0  0  0  0  0  0  0  0  0  0  0  0
   48.6500    6.6766   18.4701 C   0  0  0  0  0  0  0  0  0  0  0  0
   47.8267    5.5459   19.0439 C   0  0  0  0  0  0  0  0  0  0  0  0
   50.8658    7.2003   19.4825 C   0  0  0  0  0  0  0  0  0  0  0  0
   51.6504    1.2794   17.3836 C   0  0  0  0  0  0  0  0  0  0  0  0
   53.8163    1.6029   18.2737 C   0  0  0  0  0  0  0  0  0  0  0  0
   52.1486    6.8324   19.7987 C   0  0  0  0  0  0  0  0  0  0  0  0
   52.9084    0.8008   17.6309 C   0  0  0  0  0  0  0  0  0  0  0  0
   47.1331    3.8642   17.4559 C   0  0  0  0  0  0  0  0  0  0  0  0
   52.7356    1.0057   17.3532 O   0  0  0  0  0  0  0  0  0  0  0  0
   55.1552    1.2654   18.5140 O   0  0  0  0  0  0  0  0  0  0  0  0
   49.3254    6.2072   18.5028 N   0  0  0  0  0  0  0  0  0  0  0  0
   49.9584    5.0249   19.0732 C   0  0  1  0  0  0  0  0  0  0  0  0
   49.7193    3.9266   18.0981 C   0  0  0  0  0  0  0  0  0  0  0  0
   50.6393    2.9665   17.7986 C   0  0  0  0  0  0  0  0  0  0  0  0
   51.9706    3.0931   18.3629 C   0  0  0  0  0  0  0  0  0  0  0  0
   52.2466    4.1716   19.1598 C   0  0  0  0  0  0  0  0  0  0  0  0
   48.4340    3.9200   17.5418 C   0  0  0  0  0  0  0  0  0  0  0  0
   51.3470    5.3035   19.4453 C   0  0  0  0  0  0  0  0  0  0  0  0
   52.9140    2.1184   18.1326 C   0  0  0  0  0  0  0  0  0  0  0  0
   50.2933    1.9616   16.9287 C   0  0  0  0  0  0  0  0  0  0  0  0
   47.4117    4.9304   17.8195 C   0  0  0  0  0  0  0  0  0  0  0  0
   47.9011    6.1250   18.5863 C   0  0  0  0  0  0  0  0  0  0  0  0
   48.1400    2.8979   16.6807 C   0  0  0  0  0  0  0  0  0  0  0  0
   53.5220    4.2577   19.7411 C   0  0  0  0  0  0  0  0  0  0  0  0
   54.1797    2.2316   18.7259 C   0  0  0  0  0  0  0  0  0  0  0  0
   49.0205    1.8989   16.3398 C   0  0  0  0  0  0  0  0  0  0  0  0
   54.4843    3.3005   19.5305 C   0  0  0  0  0  0  0  0  0  0  0  0
   49.8644    7.4320   19.0431 C   0  0  0  0  0  0  0  0  0  0  0  0
   51.4809    3.7932   18.4041 H   0  0  0  0  0  0  0  0  0  0  0  0
   50.1151    4.7175   18.4552 H   0  0  0  0  0  0  0  0  0  0  0  0
   50.1297    4.5077   18.3746 H   0  0  0  0  0  0  0  0  0  0  0  0
   50.1299    4.5075   18.3746 H   0  0  0  0  0  0  0  0  0  0  0  0
   55.1004    3.2444   19.8832 H   0  0  0  0  0  0  0  0  0  0  0  0
   55.8329    1.2037   17.8707 H   0  0  0  0  0  0  0  0  0  0  0  0
   49.2659    4.7849   16.7333 H   0  0  0  0  0  0  0  0  0  0  0  0
   49.2151    2.2072   18.1000 H   0  0  0  0  0  0  0  0  0  0  0  0
   49.5914    2.5953   16.3507 H   0  0  0  0  0  0  0  0  0  0  0  0
   53.5777    5.3240   19.7049 H   0  0  0  0  0  0  0  0  0  0  0  0
   48.3413    7.6621   18.8632 H   0  0  0  0  0  0  0  0  0  0  0  0
   48.5952    6.6066   17.3631 H   0  0  0  0  0  0  0  0  0  0  0  0
   48.1445    5.4346   20.1137 H   0  0  0  0  0  0  0  0  0  0  0  0
   46.7392    5.7421   18.9739 H   0  0  0  0  0  0  0  0  0  0  0  0
   50.5448    8.1858   19.7670 H   0  0  0  0  0  0  0  0  0  0  0  0
   50.9699    0.5858   16.8644 H   0  0  0  0  0  0  0  0  0  0  0  0
   52.7986    7.5131   20.3117 H   0  0  0  0  0  0  0  0  0  0  0  0
   53.2326   -0.1871   17.3450 H   0  0  0  0  0  0  0  0  0  0  0  0
   46.1605    4.3536   17.6675 H   0  0  0  0  0  0  0  0  0  0  0  0
   46.9965    2.7629   17.5828 H   0  0  0  0  0  0  0  0  0  0  0  0
   47.4065    4.0462   16.3969 H   0  0  0  0  0  0  0  0  0  0  0  0
   53.4313    0.5952   16.7528 H   0  0  0  0  0  0  0  0  0  0  0  0
   56.0926    1.6096   18.3684 H   0  0  0  0  0  0  0  0  0  0  0  0
   49.3947    4.7002   19.9988 H   0  0  0  0  0  0  0  0  0  0  0  0
   51.6851    6.2136   18.8502 H   0  0  0  0  0  0  0  0  0  0  0  0
   51.3775    5.5814   20.5266 H   0  0  0  0  0  0  0  0  0  0  0  0
   50.9505    1.1693   16.6362 H   0  0  0  0  0  0  0  0  0  0  0  0
   47.0541    5.2871   16.8051 H   0  0  0  0  0  0  0  0  0  0  0  0
   46.5452    4.4573   18.3419 H   0  0  0  0  0  0  0  0  0  0  0  0
   47.5014    7.0421   18.0876 H   0  0  0  0  0  0  0  0  0  0  0  0
   47.5339    6.0674   19.6421 H   0  0  0  0  0  0  0  0  0  0  0  0
   47.1583    2.8548   16.2290 H   0  0  0  0  0  0  0  0  0  0  0  0
   53.7918    5.0898   20.3810 H   0  0  0  0  0  0  0  0  0  0  0  0
   48.7600    1.0974   15.6529 H   0  0  0  0  0  0  0  0  0  0  0  0
   55.4709    3.3451   19.9659 H   0  0  0  0  0  0  0  0  0  0  0  0
   49.0478    8.1786   19.1441 H   0  0  0  0  0  0  0  0  0  0  0  0
   50.5806    7.8364   18.2895 H   0  0  0  0  0  0  0  0  0  0  0  0
   50.3601    7.3000   20.0269 H   0  0  0  0  0  0  0  0  0  0  0  0
  4 14  1  0
  5 20  1  0
  6  7  1  0
  6 17  1  0
  6 23  1  0
  7  8  1  0
  7 13  1  0
  8  9  1  0
  8 12  2  0
  9 10  1  0
  9 15  2  0
 10 11  2  0
 10 14  1  0
 11 13  1  0
 11 19  1  0
 12 16  1  0
 12 18  1  0
 14 20  2  0
 15 21  1  0
 16 17  1  0
 18 21  2  0
 19 22  2  0
 20 22  1  0
 24 34  1  0
 25 40  1  0
 26 27  1  0
 26 37  1  0
 26 43  1  0
 27 28  1  0
 27 33  1  0
 28 29  1  0
 28 32  2  0
 29 30  1  0
 29 35  2  0
 30 31  2  0
 30 34  1  0
 31 33  1  0
 31 39  1  0
 32 36  1  0
 32 38  1  0
 34 40  2  0
 35 41  1  0
 36 37  1  0
 38 41  2  0
 39 42  2  0
 40 42  1  0
  1 44  1  0
  1 45  1  0
  2 46  1  0
  3 47  1  0
  4 48  1  0
  5 49  1  0
  7 50  1  1
 13 51  1  0
 13 52  1  0
 15 53  1  0
 16 54  1  0
 16 55  1  0
 17 56  1  0
 17 57  1  0
 18 58  1  0
 19 59  1  0
 21 60  1  0
 22 61  1  0
 23 62  1  0
 23 63  1  0
 23 64  1  0
 24 65  1  0
 25 66  1  0
 27 67  1  6
 33 68  1  0
 33 69  1  0
 35 70  1  0
 36 71  1  0
 36 72  1  0
 37 73  1  0
 37 74  1  0
 38 75  1  0
 39 76  1  0
 41 77  1  0
 42 78  1  0
 43 79  1  0
 43 80  1  0
 43 81  1  0
M  END
> <Uni-Dock RESULT> 
ENERGY=   -7.349  LOWER_BOUND=    7.237  UPPER_BOUND=    9.933
INTER + INTRA:          -7.349
INTER:                  -7.349
INTRA:                   0.000
UNBOUND:                 0.000

$$$$

     RDKit          3D

 81 84  0  0  0  0  0  0  0  0999 V2000
   47.9232    9.5547   18.5253 O   0  0  0  0  0  0  0  0  0  0  0  0
   48.0422    8.7801   18.5188 Cl  0  0  0  0  0  0  0  0  0  0  0  0
   48.0422    8.7803   18.5190 Cl  0  0  0  0  0  0  0  0  0  0  0  0
   48.1933    5.5447   18.9463 O   0  0  0  0  0  0  0  0  0  0  0  0
   48.7343    4.7116   16.4280 O   0  0  0  0  0  0  0  0  0  0  0  0
   47.0182   11.8021   18.7801 N   0  0  0  0  0  0  0  0  0  0  0  0
   48.0450   10.7725   18.7117 C   0  0  1  0  0  0  0  0  0  0  0  0
   47.8634    9.7357   19.7245 C   0  0  0  0  0  0  0  0  0  0  0  0
   47.9458    8.3806   19.5702 C   0  0  0  0  0  0  0  0  0  0  0  0
   48.2207    7.8813   18.2379 C   0  0  0  0  0  0  0  0  0  0  0  0
   48.3724    8.8139   17.2446 C   0  0  0  0  0  0  0  0  0  0  0  0
   47.5854   10.1931   21.0175 C   0  0  0  0  0  0  0  0  0  0  0  0
   48.2670   10.2662   17.3536 C   0  0  0  0  0  0  0  0  0  0  0  0
   48.3344    6.5345   17.9945 C   0  0  0  0  0  0  0  0  0  0  0  0
   47.7622    7.5375   20.6419 C   0  0  0  0  0  0  0  0  0  0  0  0
   47.5001   11.6869   21.1325 C   0  0  0  0  0  0  0  0  0  0  0  0
   46.5050   12.0857   20.0666 C   0  0  0  0  0  0  0  0  0  0  0  0
   47.4008    9.3871   22.0866 C   0  0  0  0  0  0  0  0  0  0  0  0
   48.6496    8.3134   15.9738 C   0  0  0  0  0  0  0  0  0  0  0  0
   48.6140    6.0649   16.7026 C   0  0  0  0  0  0  0  0  0  0  0  0
   47.4843    8.0272   21.9302 C   0  0  0  0  0  0  0  0  0  0  0  0
   48.7704    6.9795   15.6928 C   0  0  0  0  0  0  0  0  0  0  0  0
   47.4668   12.9480   18.0265 C   0  0  0  0  0  0  0  0  0  0  0  0
   49.0022    7.2626   15.8157 O   0  0  0  0  0  0  0  0  0  0  0  0
   48.7919    4.6814   16.5657 O   0  0  0  0  0  0  0  0  0  0  0  0
   47.6232   10.9663   20.7540 N   0  0  0  0  0  0  0  0  0  0  0  0
   47.1179    9.9966   19.7906 C   0  0  1  0  0  0  0  0  0  0  0  0
   47.7614   10.3404   18.4937 C   0  0  0  0  0  0  0  0  0  0  0  0
   48.1955    9.4127   17.5945 C   0  0  0  0  0  0  0  0  0  0  0  0
   48.1460    8.0131   17.9757 C   0  0  0  0  0  0  0  0  0  0  0  0
   47.6770    7.6872   19.2200 C   0  0  0  0  0  0  0  0  0  0  0  0
   47.8386   11.7149   18.2356 C   0  0  0  0  0  0  0  0  0  0  0  0
   47.2906    8.6293   20.2854 C   0  0  0  0  0  0  0  0  0  0  0  0
   48.5217    7.0392   17.0792 C   0  0  0  0  0  0  0  0  0  0  0  0
   48.7203    9.8392   16.3991 C   0  0  0  0  0  0  0  0  0  0  0  0
   47.3979   12.7535   19.1683 C   0  0  0  0  0  0  0  0  0  0  0  0
   47.0482   12.2573   20.5417 C   0  0  0  0  0  0  0  0  0  0  0  0
   48.3701   12.0871   17.0309 C   0  0  0  0  0  0  0  0  0  0  0  0
   47.5862    6.3276   19.5596 C   0  0  0  0  0  0  0  0  0  0  0  0
   48.4210    5.6895   17.4466 C   0  0  0  0  0  0  0  0  0  0  0  0
   48.8230   11.2027   16.0810 C   0  0  0  0  0  0  0  0  0  0  0  0
   47.9529    5.3329   18.6862 C   0  0  0  0  0  0  0  0  0  0  0  0
   47.5049   10.4998   22.1145 C   0  0  0  0  0  0  0  0  0  0  0  0
   48.0552    8.5758   18.6135 H   0  0  0  0  0  0  0  0  0  0  0  0
   47.6937    9.9920   19.3790 H   0  0  0  0  0  0  0  0  0  0  0  0
   47.7392    9.9683   19.1597 H   0  0  0  0  0  0  0  0  0  0  0  0
   47.7393    9.9680   19.1595 H   0  0  0  0  0  0  0  0  0  0  0  0
   47.8265    4.6371   18.7703 H   0  0  0  0  0  0  0  0  0  0  0  0
   49.6081    4.2393   16.4424 H   0  0  0  0  0  0  0  0  0  0  0  0
   49.0109   11.3367   18.9949 H   0  0  0  0  0  0  0  0  0  0  0  0
   47.3088   10.5211   16.7694 H   0  0  0  0  0  0  0  0  0  0  0  0
   49.1202   10.7831   16.8204 H   0  0  0  0  0  0  0  0  0  0  0  0
   47.8119    6.4667   20.5945 H   0  0  0  0  0  0  0  0  0  0  0  0
   47.1911   12.0183   22.1403 H   0  0  0  0  0  0  0  0  0  0  0  0
   48.4955   12.0732   20.8271 H   0  0  0  0  0  0  0  0  0  0  0  0
   45.6040   11.4346   20.2156 H   0  0  0  0  0  0  0  0  0  0  0  0
   46.2319   13.1570   20.1282 H   0  0  0  0  0  0  0  0  0  0  0  0
   47.1883    9.7641   23.0704 H   0  0  0  0  0  0  0  0  0  0  0  0
   48.7864    8.9951   15.1193 H   0  0  0  0  0  0  0  0  0  0  0  0
   47.3407    7.3737   22.7676 H   0  0  0  0  0  0  0  0  0  0  0  0
   48.9850    6.5996   14.7066 H   0  0  0  0  0  0  0  0  0  0  0  0
   47.0196   13.8732   18.4441 H   0  0  0  0  0  0  0  0  0  0  0  0
   47.1238   12.8502   16.9680 H   0  0  0  0  0  0  0  0  0  0  0  0
   48.5702   13.0552   18.0106 H   0  0  0  0  0  0  0  0  0  0  0  0
   49.7282    6.7314   15.3642 H   0  0  0  0  0  0  0  0  0  0  0  0
   49.3014    3.9090   16.9686 H   0  0  0  0  0  0  0  0  0  0  0  0
   46.0161   10.1785   19.6092 H   0  0  0  0  0  0  0  0  0  0  0  0
   48.1047    8.6533   21.0814 H   0  0  0  0  0  0  0  0  0  0  0  0
   46.3445    8.3087   20.7850 H   0  0  0  0  0  0  0  0  0  0  0  0
   49.0860    9.1831   15.6368 H   0  0  0  0  0  0  0  0  0  0  0  0
   48.2739   13.4658   19.2653 H   0  0  0  0  0  0  0  0  0  0  0  0
   46.5425   13.3198   18.7265 H   0  0  0  0  0  0  0  0  0  0  0  0
   47.5233   12.9417   21.2869 H   0  0  0  0  0  0  0  0  0  0  0  0
   45.9361   12.2598   20.6679 H   0  0  0  0  0  0  0  0  0  0  0  0
   48.4477   13.1389   16.7911 H   0  0  0  0  0  0  0  0  0  0  0  0
   47.2205    6.0152   20.5308 H   0  0  0  0  0  0  0  0  0  0  0  0
   49.2404   11.5262   15.1306 H   0  0  0  0  0  0  0  0  0  0  0  0
   47.8922    4.2820   18.9245 H   0  0  0  0  0  0  0  0  0  0  0  0
   47.2550   11.3571   22.7756 H   0  0  0  0  0  0  0  0  0  0  0  0
   48.5122   10.1349   22.4254 H   0  0  0  0  0  0  0  0  0  0  0  0
   46.7407    9.7059   22.2442 H   0  0  0  0  0  0  0  0  0  0  0  0
  4 14  1  0
  5 20  1  0
  6  7  1  0
  6 17  1  0
  6 23  1  0
  7  8  1  0
  7 13  1  0
  8  9  1  0
  8 12  2  0
  9 10  1  0
  9 15  2  0
 10 11  2  0
 10 14  1  0
 11 13  1  0
 11 19  1  0
 12 16  1  0
 12 18  1  0
 14 20  2  0
 15 21  1  0
 16 17  1  0
 18 21  2  0
 19 22  2  0
 20 22  1  0
 24 34  1  0
 25 40  1  0
 26 27  1  0
 26 37  1  0
 26 43  1  0
 27 28  1  0
 27 33  1  0
 28 29  1  0
 28 32  2  0
 29 30  1  0
 29 35  2  0
 30 31  2  0
 30 34  1  0
 31 33  1  0
 31 39  1  0
 32 36  1  0
 32 38  1  0
 34 40  2  0
 35 41  1  0
 36 37  1  0
 38 41  2  0
 39 42  2  0
 40 42  1  0
  1 44  1  0
  1 45  1  0
  2 46  1  0
  3 47  1  0
  4 48  1  0
  5 49  1  0
  7 50  1  1
 13 51  1  0
 13 52  1  0
 15 53  1  0
 16 54  1  0
 16 55  1  0
 17 56  1  0
 17 57  1  0
 18 58  1  0
 19 59  1  0
 21 60  1  0
 22 61  1  0
 23 62  1  0
 23 63  1  0
 23 64  1  0
 24 65  1  0
 25 66  1  0
 27 67  1  6
 33 68  1  0
 33 69  1  0
 35 70  1  0
 36 71  1  0
 36 72  1  0
 37 73  1  0
 37 74  1  0
 38 75  1  0
 39 76  1  0
 41 77  1  0
 42 78  1  0
 43 79  1  0
 43 80  1  0
 43 81  1  0
M  END
> <Uni-Dock RESULT> 
ENERGY=   -7.338  LOWER_BOUND=    5.721  UPPER_BOUND=    8.456
INTER + INTRA:          -7.338
INTER:                  -7.338
INTRA:                   0.000
UNBOUND:                 0.000

$$$$

     RDKit          3D

 81 84  0  0  0  0  0  0  0  0999 V2000
   45.6654    7.6539   12.3083 O   0  0  0  0  0  0  0  0  0  0  0  0
   46.1679    8.2193   12.5134 Cl  0  0  0  0  0  0  0  0  0  0  0  0
   46.1678    8.2190   12.5134 Cl  0  0  0  0  0  0  0  0  0  0  0  0
   48.6421   10.1525   13.4158 O   0  0  0  0  0  0  0  0  0  0  0  0
   47.9096   12.4990   12.2817 O   0  0  0  0  0  0  0  0  0  0  0  0
   44.6052    5.6320   11.4582 N   0  0  0  0  0  0  0  0  0  0  0  0
   44.7842    6.7846   12.3292 C   0  0  1  0  0  0  0  0  0  0  0  0
   46.0669    6.7618   13.0276 C   0  0  0  0  0  0  0  0  0  0  0  0
   46.9533    7.7874   13.1996 C   0  0  0  0  0  0  0  0  0  0  0  0
   46.6149    9.0627   12.6004 C   0  0  0  0  0  0  0  0  0  0  0  0
   45.4328    9.1295   11.9093 C   0  0  0  0  0  0  0  0  0  0  0  0
   46.4214    5.5374   13.6050 C   0  0  0  0  0  0  0  0  0  0  0  0
   44.4683    8.0584   11.6752 C   0  0  0  0  0  0  0  0  0  0  0  0
   47.4410   10.1513   12.7353 C   0  0  0  0  0  0  0  0  0  0  0  0
   48.1195    7.5992   13.9050 C   0  0  0  0  0  0  0  0  0  0  0  0
   45.4182    4.4436   13.3832 C   0  0  0  0  0  0  0  0  0  0  0  0
   45.2101    4.4279   11.8859 C   0  0  0  0  0  0  0  0  0  0  0  0
   47.5598    5.3259   14.3022 C   0  0  0  0  0  0  0  0  0  0  0  0
   45.1198   10.3682   11.3527 C   0  0  0  0  0  0  0  0  0  0  0  0
   47.0952   11.3838   12.1617 C   0  0  0  0  0  0  0  0  0  0  0  0
   48.4482    6.3563   14.4743 C   0  0  0  0  0  0  0  0  0  0  0  0
   45.9169   11.4749   11.4659 C   0  0  0  0  0  0  0  0  0  0  0  0
   43.2084    5.5330   11.1097 C   0  0  0  0  0  0  0  0  0  0  0  0
   45.6368   11.3084   11.6727 O   0  0  0  0  0  0  0  0  0  0  0  0
   47.9588   12.4572   12.4196 O   0  0  0  0  0  0  0  0  0  0  0  0
   45.7230    5.2069   13.3372 N   0  0  0  0  0  0  0  0  0  0  0  0
   46.3012    6.2361   12.4827 C   0  0  1  0  0  0  0  0  0  0  0  0
   45.1616    7.0870   12.0450 C   0  0  0  0  0  0  0  0  0  0  0  0
   45.2342    8.4420   11.9161 C   0  0  0  0  0  0  0  0  0  0  0  0
   46.4481    9.1078   12.3518 C   0  0  0  0  0  0  0  0  0  0  0  0
   47.4593    8.3509   12.8801 C   0  0  0  0  0  0  0  0  0  0  0  0
   44.0030    6.3726   11.7149 C   0  0  0  0  0  0  0  0  0  0  0  0
   47.4203    6.9029   13.1514 C   0  0  0  0  0  0  0  0  0  0  0  0
   46.5869   10.4670   12.1891 C   0  0  0  0  0  0  0  0  0  0  0  0
   44.1398    9.1253   11.4453 C   0  0  0  0  0  0  0  0  0  0  0  0
   43.8665    4.9208   11.8436 C   0  0  0  0  0  0  0  0  0  0  0  0
   44.9931    4.2460   12.5715 C   0  0  0  0  0  0  0  0  0  0  0  0
   42.9409    7.1004   11.2513 C   0  0  0  0  0  0  0  0  0  0  0  0
   48.6484    8.9990   13.2516 C   0  0  0  0  0  0  0  0  0  0  0  0
   47.7858   11.0871   12.5701 C   0  0  0  0  0  0  0  0  0  0  0  0
   42.9505    8.4662   11.0960 C   0  0  0  0  0  0  0  0  0  0  0  0
   48.8170   10.3538   13.1008 C   0  0  0  0  0  0  0  0  0  0  0  0
   46.6988    4.6174   14.2220 C   0  0  0  0  0  0  0  0  0  0  0  0
   46.3506    8.3006   12.6175 H   0  0  0  0  0  0  0  0  0  0  0  0
   45.8246    6.7369   12.6345 H   0  0  0  0  0  0  0  0  0  0  0  0
   45.7258    6.9083   12.5269 H   0  0  0  0  0  0  0  0  0  0  0  0
   45.7259    6.9086   12.5269 H   0  0  0  0  0  0  0  0  0  0  0  0
   49.4306   10.7079   13.1730 H   0  0  0  0  0  0  0  0  0  0  0  0
   47.7958   13.1678   13.0073 H   0  0  0  0  0  0  0  0  0  0  0  0
   43.9728    6.6401   13.1367 H   0  0  0  0  0  0  0  0  0  0  0  0
   44.5481    7.8530   10.5457 H   0  0  0  0  0  0  0  0  0  0  0  0
   43.4097    8.4068   11.8685 H   0  0  0  0  0  0  0  0  0  0  0  0
   48.8594    8.3566   14.0787 H   0  0  0  0  0  0  0  0  0  0  0  0
   45.7622    3.4671   13.7694 H   0  0  0  0  0  0  0  0  0  0  0  0
   44.4749    4.7958   13.8518 H   0  0  0  0  0  0  0  0  0  0  0  0
   46.2319    4.3876   11.4251 H   0  0  0  0  0  0  0  0  0  0  0  0
   44.5951    3.5677   11.5574 H   0  0  0  0  0  0  0  0  0  0  0  0
   47.8087    4.3747   14.7362 H   0  0  0  0  0  0  0  0  0  0  0  0
   44.1881   10.5080   10.7818 H   0  0  0  0  0  0  0  0  0  0  0  0
   49.3557    6.2057   15.0245 H   0  0  0  0  0  0  0  0  0  0  0  0
   45.6681   12.4303   11.0322 H   0  0  0  0  0  0  0  0  0  0  0  0
   42.9429    4.4744   10.9114 H   0  0  0  0  0  0  0  0  0  0  0  0
   43.0198    6.1137   10.1744 H   0  0  0  0  0  0  0  0  0  0  0  0
   42.5338    5.9343   11.8927 H   0  0  0  0  0  0  0  0  0  0  0  0
   45.4499   12.2446   11.9914 H   0  0  0  0  0  0  0  0  0  0  0  0
   48.4226   12.9295   13.1813 H   0  0  0  0  0  0  0  0  0  0  0  0
   46.6800    5.7677   11.5251 H   0  0  0  0  0  0  0  0  0  0  0  0
   47.3015    6.7318   14.2709 H   0  0  0  0  0  0  0  0  0  0  0  0
   48.3703    6.4070   12.8368 H   0  0  0  0  0  0  0  0  0  0  0  0
   44.1069   10.1868   11.3138 H   0  0  0  0  0  0  0  0  0  0  0  0
   42.9163    4.7569   12.4388 H   0  0  0  0  0  0  0  0  0  0  0  0
   43.7223    4.4641   10.8345 H   0  0  0  0  0  0  0  0  0  0  0  0
   44.5491    3.5284   13.3047 H   0  0  0  0  0  0  0  0  0  0  0  0
   45.6381    3.6998   11.8377 H   0  0  0  0  0  0  0  0  0  0  0  0
   42.0267    6.5879   10.9845 H   0  0  0  0  0  0  0  0  0  0  0  0
   49.4801    8.4467   13.6733 H   0  0  0  0  0  0  0  0  0  0  0  0
   42.0917    9.0198   10.7242 H   0  0  0  0  0  0  0  0  0  0  0  0
   49.7209   10.8739   13.3790 H   0  0  0  0  0  0  0  0  0  0  0  0
   46.4797    3.5345   14.3399 H   0  0  0  0  0  0  0  0  0  0  0  0
   46.5591    5.0864   15.2244 H   0  0  0  0  0  0  0  0  0  0  0  0
   47.7442    4.7407   13.8713 H   0  0  0  0  0  0  0  0  0  0  0  0
  4 14  1  0
  5 20  1  0
  6  7  1  0
  6 17  1  0
  6 23  1  0
  7  8  1  0
  7 13  1  0
  8  9  1  0
  8 12  2  0
  9 10  1  0
  9 15  2  0
 10 11  2  0
 10 14  1  0
 11 13  1  0
 11 19  1  0
 12 16  1  0
 12 18  1  0
 14 20  2  0
 15 21  1  0
 16 17  1  0
 18 21  2  0
 19 22  2  0
 20 22  1  0
 24 34  1  0
 25 40  1  0
 26 27  1  0
 26 37  1  0
 26 43  1  0
 27 28  1  0
 27 33  1  0
 28 29  1  0
 28 32  2  0
 29 30  1  0
 29 35  2  0
 30 31  2  0
 30 34  1  0
 31 33  1  0
 31 39  1  0
 32 36  1  0
 32 38  1  0
 34 40  2  0
 35 41  1  0
 36 37  1  0
 38 41  2  0
 39 42  2  0
 40 42  1  0
  1 44  1  0
  1 45  1  0
  2 46  1  0
  3 47  1  0
  4 48  1  0
  5 49  1  0
  7 50  1  1
 13 51  1  0
 13 52  1  0
 15 53  1  0
 16 54  1  0
 16 55  1  0
 17 56  1  0
 17 57  1  0
 18 58  1  0
 19 59  1  0
 21 60  1  0
 22 61  1  0
 23 62  1  0
 23 63  1  0
 23 64  1  0
 24 65  1  0
 25 66  1  0
 27 67  1  6
 33 68  1  0
 33 69  1  0
 35 70  1  0
 36 71  1  0
 36 72  1  0
 37 73  1  0
 37 74  1  0
 38 75  1  0
 39 76  1  0
 41 77  1  0
 42 78  1  0
 43 79  1  0
 43 80  1  0
 43 81  1  0
M  END
> <Uni-Dock RESULT> 
ENERGY=   -7.283  LOWER_BOUND=    1.050  UPPER_BOUND=    2.125
INTER + INTRA:          -7.283
INTER:                  -7.283
INTRA:                   0.000
UNBOUND:                 0.000

$$$$

     RDKit          3D

 81 84  0  0  0  0  0  0  0  0999 V2000
   48.0042    8.4831   19.2729 O   0  0  0  0  0  0  0  0  0  0  0  0
   47.9755    7.7958   19.6485 Cl  0  0  0  0  0  0  0  0  0  0  0  0
   47.9755    7.7960   19.6482 Cl  0  0  0  0  0  0  0  0  0  0  0  0
   48.2285    4.7561   20.8186 O   0  0  0  0  0  0  0  0  0  0  0  0
   47.6239    5.1507   23.4277 O   0  0  0  0  0  0  0  0  0  0  0  0
   48.6574   10.4399   17.9772 N   0  0  0  0  0  0  0  0  0  0  0  0
   47.7546    9.4391   18.5270 C   0  0  1  0  0  0  0  0  0  0  0  0
   48.1210    8.0811   18.1331 C   0  0  0  0  0  0  0  0  0  0  0  0
   48.1862    6.9632   18.9160 C   0  0  0  0  0  0  0  0  0  0  0  0
   47.8843    7.1224   20.3244 C   0  0  0  0  0  0  0  0  0  0  0  0
   47.5608    8.3845   20.7509 C   0  0  0  0  0  0  0  0  0  0  0  0
   48.4283    7.9044   16.7794 C   0  0  0  0  0  0  0  0  0  0  0  0
   47.5042    9.6116   19.9615 C   0  0  0  0  0  0  0  0  0  0  0  0
   47.9117    6.0498   21.1815 C   0  0  0  0  0  0  0  0  0  0  0  0
   48.5360    5.7461   18.3779 C   0  0  0  0  0  0  0  0  0  0  0  0
   48.3473    9.1620   15.9647 C   0  0  0  0  0  0  0  0  0  0  0  0
   49.2176   10.1463   16.7127 C   0  0  0  0  0  0  0  0  0  0  0  0
   48.7746    6.7210   16.2258 C   0  0  0  0  0  0  0  0  0  0  0  0
   47.2608    8.5133   22.1058 C   0  0  0  0  0  0  0  0  0  0  0  0
   47.6043    6.2151   22.5401 C   0  0  0  0  0  0  0  0  0  0  0  0
   48.8392    5.5998   17.0128 C   0  0  0  0  0  0  0  0  0  0  0  0
   47.2772    7.4687   22.9898 C   0  0  0  0  0  0  0  0  0  0  0  0
   48.0308   11.7348   18.0907 C   0  0  0  0  0  0  0  0  0  0  0  0
   47.0227    7.6262   22.7460 O   0  0  0  0  0  0  0  0  0  0  0  0
   47.5793    5.0515   23.3210 O   0  0  0  0  0  0  0  0  0  0  0  0
   48.2840    8.6973   16.6413 N   0  0  0  0  0  0  0  0  0  0  0  0
   48.8340    8.3762   17.9521 C   0  0  1  0  0  0  0  0  0  0  0  0
   48.0715    9.2038   18.9256 C   0  0  0  0  0  0  0  0  0  0  0  0
   47.6897    8.7638   20.1579 C   0  0  0  0  0  0  0  0  0  0  0  0
   47.9259    7.3712   20.4919 C   0  0  0  0  0  0  0  0  0  0  0  0
   48.5100    6.5609   19.5556 C   0  0  0  0  0  0  0  0  0  0  0  0
   47.8189   10.5126   18.4954 C   0  0  0  0  0  0  0  0  0  0  0  0
   48.8536    6.9283   18.1704 C   0  0  0  0  0  0  0  0  0  0  0  0
   47.6076    6.8975   21.7439 C   0  0  0  0  0  0  0  0  0  0  0  0
   47.0418    9.6312   21.0030 C   0  0  0  0  0  0  0  0  0  0  0  0
   48.1964   11.0341   17.1807 C   0  0  0  0  0  0  0  0  0  0  0  0
   48.6904    9.9985   16.2122 C   0  0  0  0  0  0  0  0  0  0  0  0
   47.1700   11.3362   19.3746 C   0  0  0  0  0  0  0  0  0  0  0  0
   48.7797    5.2284   19.9071 C   0  0  0  0  0  0  0  0  0  0  0  0
   47.8879    5.5617   22.0663 C   0  0  0  0  0  0  0  0  0  0  0  0
   46.7613   10.9554   20.6307 C   0  0  0  0  0  0  0  0  0  0  0  0
   48.4743    4.7268   21.1489 C   0  0  0  0  0  0  0  0  0  0  0  0
   48.5444    7.6629   15.6693 C   0  0  0  0  0  0  0  0  0  0  0  0
   47.9925    7.5715   19.6629 H   0  0  0  0  0  0  0  0  0  0  0  0
   48.2369    8.4904   18.3146 H   0  0  0  0  0  0  0  0  0  0  0  0
   48.1802    8.5675   18.5185 H   0  0  0  0  0  0  0  0  0  0  0  0
   48.1801    8.5673   18.5187 H   0  0  0  0  0  0  0  0  0  0  0  0
   48.6857    4.0980   21.4077 H   0  0  0  0  0  0  0  0  0  0  0  0
   46.8135    4.6163   23.6388 H   0  0  0  0  0  0  0  0  0  0  0  0
   46.7505    9.6678   18.0065 H   0  0  0  0  0  0  0  0  0  0  0  0
   48.3861   10.2376   20.3550 H   0  0  0  0  0  0  0  0  0  0  0  0
   46.5638   10.2006   20.1809 H   0  0  0  0  0  0  0  0  0  0  0  0
   48.6077    4.8296   18.9310 H   0  0  0  0  0  0  0  0  0  0  0  0
   48.6812    9.0148   14.9217 H   0  0  0  0  0  0  0  0  0  0  0  0
   47.2960    9.5106   16.0462 H   0  0  0  0  0  0  0  0  0  0  0  0
   50.1957    9.6287   16.8949 H   0  0  0  0  0  0  0  0  0  0  0  0
   49.3682   11.0863   16.1473 H   0  0  0  0  0  0  0  0  0  0  0  0
   49.0061    6.6119   15.1818 H   0  0  0  0  0  0  0  0  0  0  0  0
   46.9903    9.4931   22.5304 H   0  0  0  0  0  0  0  0  0  0  0  0
   49.1121    4.6535   16.5897 H   0  0  0  0  0  0  0  0  0  0  0  0
   47.0439    7.5761   24.0372 H   0  0  0  0  0  0  0  0  0  0  0  0
   48.3942   12.4022   17.2827 H   0  0  0  0  0  0  0  0  0  0  0  0
   48.3127   12.1963   19.0680 H   0  0  0  0  0  0  0  0  0  0  0  0
   46.9237   11.6888   18.0510 H   0  0  0  0  0  0  0  0  0  0  0  0
   46.3351    7.2807   23.3948 H   0  0  0  0  0  0  0  0  0  0  0  0
   47.1902    4.1205   23.3351 H   0  0  0  0  0  0  0  0  0  0  0  0
   49.8931    8.7670   18.0270 H   0  0  0  0  0  0  0  0  0  0  0  0
   48.0962    6.4642   17.4579 H   0  0  0  0  0  0  0  0  0  0  0  0
   49.8612    6.5386   17.8868 H   0  0  0  0  0  0  0  0  0  0  0  0
   46.7055    9.3720   21.9853 H   0  0  0  0  0  0  0  0  0  0  0  0
   47.2520   11.4919   16.7532 H   0  0  0  0  0  0  0  0  0  0  0  0
   48.9496   11.8502   17.3002 H   0  0  0  0  0  0  0  0  0  0  0  0
   48.1891   10.1786   15.2294 H   0  0  0  0  0  0  0  0  0  0  0  0
   49.8006   10.0889   16.1026 H   0  0  0  0  0  0  0  0  0  0  0  0
   46.9555   12.3552   19.0825 H   0  0  0  0  0  0  0  0  0  0  0  0
   49.2420    4.5453   19.2041 H   0  0  0  0  0  0  0  0  0  0  0  0
   46.2479   11.6314   21.3100 H   0  0  0  0  0  0  0  0  0  0  0  0
   48.6718    3.7069   21.4419 H   0  0  0  0  0  0  0  0  0  0  0  0
   48.7361    8.1298   14.6795 H   0  0  0  0  0  0  0  0  0  0  0  0
   47.6087    7.0639   15.5683 H   0  0  0  0  0  0  0  0  0  0  0  0
   49.4022    7.0119   15.9364 H   0  0  0  0  0  0  0  0  0  0  0  0
  4 14  1  0
  5 20  1  0
  6  7  1  0
  6 17  1  0
  6 23  1  0
  7  8  1  0
  7 13  1  0
  8  9  1  0
  8 12  2  0
  9 10  1  0
  9 15  2  0
 10 11  2  0
 10 14  1  0
 11 13  1  0
 11 19  1  0
 12 16  1  0
 12 18  1  0
 14 20  2  0
 15 21  1  0
 16 17  1  0
 18 21  2  0
 19 22  2  0
 20 22  1  0
 24 34  1  0
 25 40  1  0
 26 27  1  0
 26 37  1  0
 26 43  1  0
 27 28  1  0
 27 33  1  0
 28 29  1  0
 28 32  2  0
 29 30  1  0
 29 35  2  0
 30 31  2  0
 30 34  1  0
 31 33  1  0
 31 39  1  0
 32 36  1  0
 32 38  1  0
 34 40  2  0
 35 41  1  0
 36 37  1  0
 38 41  2  0
 39 42  2  0
 40 42  1  0
  1 44  1  0
  1 45  1  0
  2 46  1  0
  3 47  1  0
  4 48  1  0
  5 49  1  0
  7 50  1  1
 13 51  1  0
 13 52  1  0
 15 53  1  0
 16 54  1  0
 16 55  1  0
 17 56  1  0
 17 57  1  0
 18 58  1  0
 19 59  1  0
 21 60  1  0
 22 61  1  0
 23 62  1  0
 23 63  1  0
 23 64  1  0
 24 65  1  0
 25 66  1  0
 27 67  1  6
 33 68  1  0
 33 69  1  0
 35 70  1  0
 36 71  1  0
 36 72  1  0
 37 73  1  0
 37 74  1  0
 38 75  1  0
 39 76  1  0
 41 77  1  0
 42 78  1  0
 43 79  1  0
 43 80  1  0
 43 81  1  0
M  END
> <Uni-Dock RESULT> 
ENERGY=   -7.200  LOWER_BOUND=    6.216  UPPER_BOUND=    9.105
INTER + INTRA:          -7.200
INTER:                  -7.200
INTRA:                   0.000
UNBOUND:                 0.000

$$$$
