
     RDKit          3D

 81 84  0  0  0  0  0  0  0  0999 V2000
   47.6479    5.8333   14.6339 O   0  0  0  0  0  0  0  0  0  0  0  0
   47.8242    5.4186   15.2746 Cl  0  0  0  0  0  0  0  0  0  0  0  0
   47.8208    5.4196   15.2698 Cl  0  0  0  0  0  0  0  0  0  0  0  0
   49.2018    6.3997   17.9890 O   0  0  0  0  0  0  0  0  0  0  0  0
   49.4629    4.1009   19.3845 O   0  0  0  0  0  0  0  0  0  0  0  0
   45.9538    5.2165   12.7472 N   0  0  0  0  0  0  0  0  0  0  0  0
   47.2334    5.0437   13.3368 C   0  0  1  0  0  0  0  0  0  0  0  0
   47.6130    6.2919   14.0279 C   0  0  0  0  0  0  0  0  0  0  0  0
   48.1151    6.4121   15.2806 C   0  0  0  0  0  0  0  0  0  0  0  0
   48.2505    5.2080   16.0823 C   0  0  0  0  0  0  0  0  0  0  0  0
   47.8586    4.0292   15.5266 C   0  0  0  0  0  0  0  0  0  0  0  0
   47.4497    7.4619   13.2657 C   0  0  0  0  0  0  0  0  0  0  0  0
   47.2526    3.8435   14.1942 C   0  0  0  0  0  0  0  0  0  0  0  0
   48.7796    5.2526   17.3483 C   0  0  0  0  0  0  0  0  0  0  0  0
   48.4513    7.6520   15.7735 C   0  0  0  0  0  0  0  0  0  0  0  0
   46.8836    7.2336   11.8983 C   0  0  0  0  0  0  0  0  0  0  0  0
   45.6329    6.4044   12.1032 C   0  0  0  0  0  0  0  0  0  0  0  0
   47.7805    8.6993   13.7466 C   0  0  0  0  0  0  0  0  0  0  0  0
   48.0127    2.8605   16.2857 C   0  0  0  0  0  0  0  0  0  0  0  0
   48.9263    4.0747   18.0941 C   0  0  0  0  0  0  0  0  0  0  0  0
   48.2893    8.8215   15.0124 C   0  0  0  0  0  0  0  0  0  0  0  0
   48.5385    2.8740   17.5534 C   0  0  0  0  0  0  0  0  0  0  0  0
   45.2192    4.0478   12.4581 C   0  0  0  0  0  0  0  0  0  0  0  0
   50.2969    6.4264   17.1424 O   0  0  0  0  0  0  0  0  0  0  0  0
   50.0272    4.8485   19.3177 O   0  0  0  0  0  0  0  0  0  0  0  0
   45.2143    5.5809   13.4347 N   0  0  0  0  0  0  0  0  0  0  0  0
   46.4899    5.0052   13.8377 C   0  0  1  0  0  0  0  0  0  0  0  0
   47.5678    5.9827   13.8730 C   0  0  0  0  0  0  0  0  0  0  0  0
   48.4841    6.2055   14.8635 C   0  0  0  0  0  0  0  0  0  0  0  0
   48.3676    5.3868   16.0645 C   0  0  0  0  0  0  0  0  0  0  0  0
   47.3541    4.4728   16.0966 C   0  0  0  0  0  0  0  0  0  0  0  0
   47.6845    6.7936   12.7250 C   0  0  0  0  0  0  0  0  0  0  0  0
   46.3366    4.2225   15.0804 C   0  0  0  0  0  0  0  0  0  0  0  0
   49.2520    5.5251   17.1078 C   0  0  0  0  0  0  0  0  0  0  0  0
   49.4610    7.1675   14.7385 C   0  0  0  0  0  0  0  0  0  0  0  0
   46.6587    6.5182   11.6599 C   0  0  0  0  0  0  0  0  0  0  0  0
   45.3325    6.5334   12.3743 C   0  0  0  0  0  0  0  0  0  0  0  0
   48.6512    7.7514   12.5924 C   0  0  0  0  0  0  0  0  0  0  0  0
   47.2672    3.6856   17.2491 C   0  0  0  0  0  0  0  0  0  0  0  0
   49.1416    4.7215   18.2540 C   0  0  0  0  0  0  0  0  0  0  0  0
   49.5673    7.9692   13.5895 C   0  0  0  0  0  0  0  0  0  0  0  0
   48.1311    3.7975   18.3053 C   0  0  0  0  0  0  0  0  0  0  0  0
   44.3425    4.4587   13.1250 C   0  0  0  0  0  0  0  0  0  0  0  0
   46.8730    5.5352   14.0825 H   0  0  0  0  0  0  0  0  0  0  0  0
   47.7970    5.2474   15.4270 H   0  0  0  0  0  0  0  0  0  0  0  0
   47.0543    5.6587   14.1543 H   0  0  0  0  0  0  0  0  0  0  0  0
   47.0577    5.6576   14.1591 H   0  0  0  0  0  0  0  0  0  0  0  0
   48.6570    6.6439   18.8303 H   0  0  0  0  0  0  0  0  0  0  0  0
   49.0145    4.6991   20.0746 H   0  0  0  0  0  0  0  0  0  0  0  0
   47.9473    4.8546   12.4805 H   0  0  0  0  0  0  0  0  0  0  0  0
   47.7357    2.9738   13.6790 H   0  0  0  0  0  0  0  0  0  0  0  0
   46.1754    3.5334   14.3656 H   0  0  0  0  0  0  0  0  0  0  0  0
   48.8529    7.8336   16.7522 H   0  0  0  0  0  0  0  0  0  0  0  0
   47.5637    6.5814   11.2898 H   0  0  0  0  0  0  0  0  0  0  0  0
   46.6809    8.1712   11.3636 H   0  0  0  0  0  0  0  0  0  0  0  0
   45.0864    6.2034   11.1595 H   0  0  0  0  0  0  0  0  0  0  0  0
   44.9289    7.0004   12.7510 H   0  0  0  0  0  0  0  0  0  0  0  0
   47.6462    9.5738   13.1449 H   0  0  0  0  0  0  0  0  0  0  0  0
   47.7158    1.8913   15.8886 H   0  0  0  0  0  0  0  0  0  0  0  0
   48.5524    9.7929   15.3974 H   0  0  0  0  0  0  0  0  0  0  0  0
   48.6678    1.9939   18.1575 H   0  0  0  0  0  0  0  0  0  0  0  0
   44.4351    3.8695   13.2000 H   0  0  0  0  0  0  0  0  0  0  0  0
   45.9217    3.1928   12.3586 H   0  0  0  0  0  0  0  0  0  0  0  0
   44.7657    4.1924   11.4339 H   0  0  0  0  0  0  0  0  0  0  0  0
   51.2173    6.2239   17.4540 H   0  0  0  0  0  0  0  0  0  0  0  0
   50.8041    4.1802   19.2907 H   0  0  0  0  0  0  0  0  0  0  0  0
   46.7014    4.2640   12.9813 H   0  0  0  0  0  0  0  0  0  0  0  0
   45.3016    4.4264   15.5144 H   0  0  0  0  0  0  0  0  0  0  0  0
   46.2660    3.1084   14.8773 H   0  0  0  0  0  0  0  0  0  0  0  0
   50.2048    7.3874   15.4801 H   0  0  0  0  0  0  0  0  0  0  0  0
   46.8037    5.5113   11.2216 H   0  0  0  0  0  0  0  0  0  0  0  0
   46.6501    7.2862   10.8904 H   0  0  0  0  0  0  0  0  0  0  0  0
   45.1639    7.5422   12.7916 H   0  0  0  0  0  0  0  0  0  0  0  0
   44.5396    6.3538   11.6192 H   0  0  0  0  0  0  0  0  0  0  0  0
   48.7037    8.3428   11.7070 H   0  0  0  0  0  0  0  0  0  0  0  0
   46.4831    2.9338   17.3454 H   0  0  0  0  0  0  0  0  0  0  0  0
   50.3217    8.7179   13.4835 H   0  0  0  0  0  0  0  0  0  0  0  0
   48.0581    3.1859   19.1930 H   0  0  0  0  0  0  0  0  0  0  0  0
   43.8155    4.1116   14.0530 H   0  0  0  0  0  0  0  0  0  0  0  0
   43.6315    4.7021   12.3117 H   0  0  0  0  0  0  0  0  0  0  0  0
   44.9588    3.5984   12.7892 H   0  0  0  0  0  0  0  0  0  0  0  0
  4 14  1  0
  5 20  1  0
  6  7  1  0
  6 17  1  0
  6 23  1  0
  7  8  1  0
  7 13  1  0
  8  9  1  0
  8 12  2  0
  9 10  1  0
  9 15  2  0
 10 11  2  0
 10 14  1  0
 11 13  1  0
 11 19  1  0
 12 16  1  0
 12 18  1  0
 14 20  2  0
 15 21  1  0
 16 17  1  0
 18 21  2  0
 19 22  2  0
 20 22  1  0
 24 34  1  0
 25 40  1  0
 26 27  1  0
 26 37  1  0
 26 43  1  0
 27 28  1  0
 27 33  1  0
 28 29  1  0
 28 32  2  0
 29 30  1  0
 29 35  2  0
 30 31  2  0
 30 34  1  0
 31 33  1  0
 31 39  1  0
 32 36  1  0
 32 38  1  0
 34 40  2  0
 35 41  1  0
 36 37  1  0
 38 41  2  0
 39 42  2  0
 40 42  1  0
  1 44  1  0
  1 45  1  0
  2 46  1  0
  3 47  1  0
  4 48  1  0
  5 49  1  0
  7 50  1  6
 13 51  1  0
 13 52  1  0
 15 53  1  0
 16 54  1  0
 16 55  1  0
 17 56  1  0
 17 57  1  0
 18 58  1  0
 19 59  1  0
 21 60  1  0
 22 61  1  0
 23 62  1  0
 23 63  1  0
 23 64  1  0
 24 65  1  0
 25 66  1  0
 27 67  1  6
 33 68  1  0
 33 69  1  0
 35 70  1  0
 36 71  1  0
 36 72  1  0
 37 73  1  0
 37 74  1  0
 38 75  1  0
 39 76  1  0
 41 77  1  0
 42 78  1  0
 43 79  1  0
 43 80  1  0
 43 81  1  0
M  END
> <Uni-Dock RESULT> 
ENERGY=   -7.462  LOWER_BOUND=    0.000  UPPER_BOUND=    0.000
INTER + INTRA:          -7.462
INTER:                  -7.462
INTRA:                   0.000
UNBOUND:                 0.000

$$$$

     RDKit          3D

 81 84  0  0  0  0  0  0  0  0999 V2000
   50.5565    4.2019   17.6860 O   0  0  0  0  0  0  0  0  0  0  0  0
   51.1995    3.7720   17.8101 Cl  0  0  0  0  0  0  0  0  0  0  0  0
   51.1968    3.7773   17.8092 Cl  0  0  0  0  0  0  0  0  0  0  0  0
   51.7686    0.7281   17.0111 O   0  0  0  0  0  0  0  0  0  0  0  0
   54.2057    0.2794   18.0877 O   0  0  0  0  0  0  0  0  0  0  0  0
   50.3430    6.8026   17.7138 N   0  0  0  0  0  0  0  0  0  0  0  0
   50.4384    5.5825   18.4329 C   0  0  1  0  0  0  0  0  0  0  0  0
   49.8599    4.4991   17.6135 C   0  0  0  0  0  0  0  0  0  0  0  0
   50.4020    3.2818   17.3680 C   0  0  0  0  0  0  0  0  0  0  0  0
   51.7233    3.0004   17.9028 C   0  0  0  0  0  0  0  0  0  0  0  0
   52.3407    3.9815   18.6157 C   0  0  0  0  0  0  0  0  0  0  0  0
   48.5964    4.7829   17.0663 C   0  0  0  0  0  0  0  0  0  0  0  0
   51.8278    5.3421   18.8662 C   0  0  0  0  0  0  0  0  0  0  0  0
   52.3194    1.7776   17.7178 C   0  0  0  0  0  0  0  0  0  0  0  0
   49.7190    2.3632   16.6045 C   0  0  0  0  0  0  0  0  0  0  0  0
   48.0798    6.1520   17.3841 C   0  0  0  0  0  0  0  0  0  0  0  0
   49.1896    7.1099   17.0037 C   0  0  0  0  0  0  0  0  0  0  0  0
   47.9093    3.8768   16.3056 C   0  0  0  0  0  0  0  0  0  0  0  0
   53.6042    3.7055   19.1573 C   0  0  0  0  0  0  0  0  0  0  0  0
   53.5834    1.5183   18.2657 C   0  0  0  0  0  0  0  0  0  0  0  0
   48.4562    2.6456   16.0580 C   0  0  0  0  0  0  0  0  0  0  0  0
   54.2246    2.4929   18.9894 C   0  0  0  0  0  0  0  0  0  0  0  0
   51.2263    7.8366   18.0875 C   0  0  0  0  0  0  0  0  0  0  0  0
   50.8798    0.5384   18.0554 O   0  0  0  0  0  0  0  0  0  0  0  0
   53.4538   -0.2779   18.0116 O   0  0  0  0  0  0  0  0  0  0  0  0
   50.7420    6.7425   16.7190 N   0  0  0  0  0  0  0  0  0  0  0  0
   51.0103    5.7666   17.7663 C   0  0  1  0  0  0  0  0  0  0  0  0
   49.9983    4.7231   17.8422 C   0  0  0  0  0  0  0  0  0  0  0  0
   50.1744    3.3686   17.9097 C   0  0  0  0  0  0  0  0  0  0  0  0
   51.5479    2.8804   17.8735 C   0  0  0  0  0  0  0  0  0  0  0  0
   52.5366    3.8165   17.7728 C   0  0  0  0  0  0  0  0  0  0  0  0
   48.6634    5.1778   17.8624 C   0  0  0  0  0  0  0  0  0  0  0  0
   52.3956    5.2654   17.6662 C   0  0  0  0  0  0  0  0  0  0  0  0
   51.8273    1.5368   17.9525 C   0  0  0  0  0  0  0  0  0  0  0  0
   49.1045    2.5061   17.9929 C   0  0  0  0  0  0  0  0  0  0  0  0
   48.5123    6.6724   17.7858 C   0  0  0  0  0  0  0  0  0  0  0  0
   49.3602    7.0966   16.6151 C   0  0  0  0  0  0  0  0  0  0  0  0
   47.5950    4.3285   17.9445 C   0  0  0  0  0  0  0  0  0  0  0  0
   53.8481    3.3315   17.7555 C   0  0  0  0  0  0  0  0  0  0  0  0
   53.1539    1.0770   17.9326 C   0  0  0  0  0  0  0  0  0  0  0  0
   47.7788    2.9712   18.0124 C   0  0  0  0  0  0  0  0  0  0  0  0
   54.1609    2.0008   17.8326 C   0  0  0  0  0  0  0  0  0  0  0  0
   51.6218    7.8706   16.9808 C   0  0  0  0  0  0  0  0  0  0  0  0
   50.6653    5.1873   17.5843 H   0  0  0  0  0  0  0  0  0  0  0  0
   51.4258    3.7380   17.8402 H   0  0  0  0  0  0  0  0  0  0  0  0
   50.5656    4.9796   17.5969 H   0  0  0  0  0  0  0  0  0  0  0  0
   50.5683    4.9743   17.5978 H   0  0  0  0  0  0  0  0  0  0  0  0
   52.2894    0.4665   16.1599 H   0  0  0  0  0  0  0  0  0  0  0  0
   54.3488   -0.0491   17.1355 H   0  0  0  0  0  0  0  0  0  0  0  0
   49.8162    5.7225   19.3666 H   0  0  0  0  0  0  0  0  0  0  0  0
   51.9778    5.6083   19.9441 H   0  0  0  0  0  0  0  0  0  0  0  0
   52.4913    6.0537   18.2836 H   0  0  0  0  0  0  0  0  0  0  0  0
   50.0768    1.3805   16.3631 H   0  0  0  0  0  0  0  0  0  0  0  0
   47.9546    6.2831   18.4911 H   0  0  0  0  0  0  0  0  0  0  0  0
   47.1372    6.3777   16.8677 H   0  0  0  0  0  0  0  0  0  0  0  0
   48.9125    8.1739   17.1479 H   0  0  0  0  0  0  0  0  0  0  0  0
   49.3871    6.9852   15.9012 H   0  0  0  0  0  0  0  0  0  0  0  0
   46.9488    4.1188   15.9012 H   0  0  0  0  0  0  0  0  0  0  0  0
   54.1413    4.4548   19.7364 H   0  0  0  0  0  0  0  0  0  0  0  0
   47.9203    1.9270   15.4601 H   0  0  0  0  0  0  0  0  0  0  0  0
   55.1923    2.2543   19.3930 H   0  0  0  0  0  0  0  0  0  0  0  0
   52.0616    7.9274   17.3867 H   0  0  0  0  0  0  0  0  0  0  0  0
   51.5578    7.6700   19.1348 H   0  0  0  0  0  0  0  0  0  0  0  0
   50.6227    8.7909   18.1054 H   0  0  0  0  0  0  0  0  0  0  0  0
   50.9339   -0.2412   18.6674 H   0  0  0  0  0  0  0  0  0  0  0  0
   53.6740   -0.5980   18.9602 H   0  0  0  0  0  0  0  0  0  0  0  0
   50.9390    6.4099   18.7195 H   0  0  0  0  0  0  0  0  0  0  0  0
   52.8426    5.6236   16.6798 H   0  0  0  0  0  0  0  0  0  0  0  0
   53.0876    5.7718   18.4093 H   0  0  0  0  0  0  0  0  0  0  0  0
   49.1804    1.4370   18.0477 H   0  0  0  0  0  0  0  0  0  0  0  0
   48.9135    7.1580   18.6970 H   0  0  0  0  0  0  0  0  0  0  0  0
   47.4839    6.9716   17.5992 H   0  0  0  0  0  0  0  0  0  0  0  0
   48.9519    6.6406   15.6955 H   0  0  0  0  0  0  0  0  0  0  0  0
   49.2622    8.1965   16.5076 H   0  0  0  0  0  0  0  0  0  0  0  0
   46.6015    4.7147   17.9569 H   0  0  0  0  0  0  0  0  0  0  0  0
   54.6897    4.0206   17.6774 H   0  0  0  0  0  0  0  0  0  0  0  0
   46.9425    2.3097   18.0767 H   0  0  0  0  0  0  0  0  0  0  0  0
   55.1767    1.6330   17.8186 H   0  0  0  0  0  0  0  0  0  0  0  0
   52.6146    7.7098   16.4828 H   0  0  0  0  0  0  0  0  0  0  0  0
   51.1594    8.8312   16.6816 H   0  0  0  0  0  0  0  0  0  0  0  0
   51.8359    7.9228   18.0690 H   0  0  0  0  0  0  0  0  0  0  0  0
  4 14  1  0
  5 20  1  0
  6  7  1  0
  6 17  1  0
  6 23  1  0
  7  8  1  0
  7 13  1  0
  8  9  1  0
  8 12  2  0
  9 10  1  0
  9 15  2  0
 10 11  2  0
 10 14  1  0
 11 13  1  0
 11 19  1  0
 12 16  1  0
 12 18  1  0
 14 20  2  0
 15 21  1  0
 16 17  1  0
 18 21  2  0
 19 22  2  0
 20 22  1  0
 24 34  1  0
 25 40  1  0
 26 27  1  0
 26 37  1  0
 26 43  1  0
 27 28  1  0
 27 33  1  0
 28 29  1  0
 28 32  2  0
 29 30  1  0
 29 35  2  0
 30 31  2  0
 30 34  1  0
 31 33  1  0
 31 39  1  0
 32 36  1  0
 32 38  1  0
 34 40  2  0
 35 41  1  0
 36 37  1  0
 38 41  2  0
 39 42  2  0
 40 42  1  0
  1 44  1  0
  1 45  1  0
  2 46  1  0
  3 47  1  0
  4 48  1  0
  5 49  1  0
  7 50  1  6
 13 51  1  0
 13 52  1  0
 15 53  1  0
 16 54  1  0
 16 55  1  0
 17 56  1  0
 17 57  1  0
 18 58  1  0
 19 59  1  0
 21 60  1  0
 22 61  1  0
 23 62  1  0
 23 63  1  0
 23 64  1  0
 24 65  1  0
 25 66  1  0
 27 67  1  6
 33 68  1  0
 33 69  1  0
 35 70  1  0
 36 71  1  0
 36 72  1  0
 37 73  1  0
 37 74  1  0
 38 75  1  0
 39 76  1  0
 41 77  1  0
 42 78  1  0
 43 79  1  0
 43 80  1  0
 43 81  1  0
M  END
> <Uni-Dock RESULT> 
ENERGY=   -6.734  LOWER_BOUND=    3.553  UPPER_BOUND=    5.898
INTER + INTRA:          -6.734
INTER:                  -6.734
INTRA:                   0.000
UNBOUND:                 0.000

$$$$

     RDKit          3D

 81 84  0  0  0  0  0  0  0  0999 V2000
   48.6348    7.7278   19.7324 O   0  0  0  0  0  0  0  0  0  0  0  0
   48.3259    8.4455   19.7882 Cl  0  0  0  0  0  0  0  0  0  0  0  0
   48.3267    8.4399   19.7903 Cl  0  0  0  0  0  0  0  0  0  0  0  0
   47.4932   10.4637   17.4512 O   0  0  0  0  0  0  0  0  0  0  0  0
   46.7232   12.6644   18.8164 O   0  0  0  0  0  0  0  0  0  0  0  0
   48.6743    5.8590   21.5534 N   0  0  0  0  0  0  0  0  0  0  0  0
   49.2098    7.0699   21.0417 C   0  0  1  0  0  0  0  0  0  0  0  0
   49.0240    7.0927   19.5772 C   0  0  0  0  0  0  0  0  0  0  0  0
   48.5401    8.1148   18.8309 C   0  0  0  0  0  0  0  0  0  0  0  0
   48.0876    9.3113   19.5199 C   0  0  0  0  0  0  0  0  0  0  0  0
   48.1726    9.3310   20.8779 C   0  0  0  0  0  0  0  0  0  0  0  0
   49.4290    5.9221   18.9123 C   0  0  0  0  0  0  0  0  0  0  0  0
   48.6343    8.2311   21.7463 C   0  0  0  0  0  0  0  0  0  0  0  0
   47.6140   10.3960   18.8243 C   0  0  0  0  0  0  0  0  0  0  0  0
   48.4573    7.9917   17.4629 C   0  0  0  0  0  0  0  0  0  0  0  0
   49.9435    4.8454   19.8168 C   0  0  0  0  0  0  0  0  0  0  0  0
   48.8834    4.6609   20.8827 C   0  0  0  0  0  0  0  0  0  0  0  0
   49.3504    5.7896   17.5529 C   0  0  0  0  0  0  0  0  0  0  0  0
   47.7629   10.4937   21.5460 C   0  0  0  0  0  0  0  0  0  0  0  0
   47.2080   11.5506   19.5078 C   0  0  0  0  0  0  0  0  0  0  0  0
   48.8625    6.8229   16.7976 C   0  0  0  0  0  0  0  0  0  0  0  0
   47.2857   11.5933   20.8777 C   0  0  0  0  0  0  0  0  0  0  0  0
   48.3268    5.8398   22.9201 C   0  0  0  0  0  0  0  0  0  0  0  0
   48.8718   10.5612   17.3707 O   0  0  0  0  0  0  0  0  0  0  0  0
   47.1860   12.5738   18.0043 O   0  0  0  0  0  0  0  0  0  0  0  0
   47.6665    5.6714   21.2349 N   0  0  0  0  0  0  0  0  0  0  0  0
   48.3239    6.9676   21.1417 C   0  0  1  0  0  0  0  0  0  0  0  0
   49.0947    7.1261   19.9172 C   0  0  0  0  0  0  0  0  0  0  0  0
   49.0932    8.1744   19.0389 C   0  0  0  0  0  0  0  0  0  0  0  0
   48.1864    9.2780   19.3324 C   0  0  0  0  0  0  0  0  0  0  0  0
   47.4173    9.1674   20.4549 C   0  0  0  0  0  0  0  0  0  0  0  0
   49.9656    6.0600   19.6104 C   0  0  0  0  0  0  0  0  0  0  0  0
   47.3620    8.0574   21.4012 C   0  0  0  0  0  0  0  0  0  0  0  0
   48.1251   10.3837   18.5180 C   0  0  0  0  0  0  0  0  0  0  0  0
   49.8990    8.1806   17.9226 C   0  0  0  0  0  0  0  0  0  0  0  0
   49.9373    4.9271   20.5994 C   0  0  0  0  0  0  0  0  0  0  0  0
   48.4795    4.5893   20.7729 C   0  0  0  0  0  0  0  0  0  0  0  0
   50.7690    6.0576   18.5040 C   0  0  0  0  0  0  0  0  0  0  0  0
   46.5654   10.2418   20.7293 C   0  0  0  0  0  0  0  0  0  0  0  0
   47.2602   11.4486   18.8171 C   0  0  0  0  0  0  0  0  0  0  0  0
   50.7628    7.1124   17.6277 C   0  0  0  0  0  0  0  0  0  0  0  0
   46.4801   11.3571   19.9399 C   0  0  0  0  0  0  0  0  0  0  0  0
   47.2327    5.5350   22.6164 C   0  0  0  0  0  0  0  0  0  0  0  0
   48.4407    7.0771   20.4620 H   0  0  0  0  0  0  0  0  0  0  0  0
   48.2014    8.6125   19.8877 H   0  0  0  0  0  0  0  0  0  0  0  0
   48.5254    7.1661   20.2665 H   0  0  0  0  0  0  0  0  0  0  0  0
   48.5246    7.1716   20.2645 H   0  0  0  0  0  0  0  0  0  0  0  0
   46.5228   10.5484   17.1117 H   0  0  0  0  0  0  0  0  0  0  0  0
   45.9280   12.5307   18.1959 H   0  0  0  0  0  0  0  0  0  0  0  0
   50.3146    7.0470   21.2814 H   0  0  0  0  0  0  0  0  0  0  0  0
   49.3344    8.6334   22.5230 H   0  0  0  0  0  0  0  0  0  0  0  0
   47.7267    7.8635   22.3183 H   0  0  0  0  0  0  0  0  0  0  0  0
   48.0865    8.7511   16.8011 H   0  0  0  0  0  0  0  0  0  0  0  0
   50.8526    5.1941   20.3738 H   0  0  0  0  0  0  0  0  0  0  0  0
   50.1636    3.9129   19.2801 H   0  0  0  0  0  0  0  0  0  0  0  0
   49.1242    3.8483   21.5978 H   0  0  0  0  0  0  0  0  0  0  0  0
   47.9298    4.3515   20.3677 H   0  0  0  0  0  0  0  0  0  0  0  0
   49.6659    4.8873   17.0722 H   0  0  0  0  0  0  0  0  0  0  0  0
   47.8107   10.5624   22.6314 H   0  0  0  0  0  0  0  0  0  0  0  0
   48.7982    6.7255   15.7264 H   0  0  0  0  0  0  0  0  0  0  0  0
   46.9648   12.4971   21.3641 H   0  0  0  0  0  0  0  0  0  0  0  0
   47.2464    5.9364   23.0637 H   0  0  0  0  0  0  0  0  0  0  0  0
   48.9049    6.6251   23.4527 H   0  0  0  0  0  0  0  0  0  0  0  0
   48.6922    4.8555   23.3360 H   0  0  0  0  0  0  0  0  0  0  0  0
   49.3332   11.4012   17.1122 H   0  0  0  0  0  0  0  0  0  0  0  0
   47.7701   13.3534   18.3234 H   0  0  0  0  0  0  0  0  0  0  0  0
   49.0579    6.9302   22.0290 H   0  0  0  0  0  0  0  0  0  0  0  0
   46.3093    7.6183   21.4176 H   0  0  0  0  0  0  0  0  0  0  0  0
   47.4427    8.4549   22.4608 H   0  0  0  0  0  0  0  0  0  0  0  0
   49.9404    8.9724   17.1995 H   0  0  0  0  0  0  0  0  0  0  0  0
   50.3366    5.2488   21.5813 H   0  0  0  0  0  0  0  0  0  0  0  0
   50.4585    4.0473   20.2303 H   0  0  0  0  0  0  0  0  0  0  0  0
   48.0771    4.2396   19.8054 H   0  0  0  0  0  0  0  0  0  0  0  0
   48.4115    3.7396   21.4831 H   0  0  0  0  0  0  0  0  0  0  0  0
   51.4130    5.2306   18.3096 H   0  0  0  0  0  0  0  0  0  0  0  0
   45.9215   10.2240   21.6093 H   0  0  0  0  0  0  0  0  0  0  0  0
   51.3916    7.1083   16.7642 H   0  0  0  0  0  0  0  0  0  0  0  0
   45.8194   12.1838   20.1579 H   0  0  0  0  0  0  0  0  0  0  0  0
   46.2132    5.9857   22.7473 H   0  0  0  0  0  0  0  0  0  0  0  0
   47.2663    4.4817   22.9563 H   0  0  0  0  0  0  0  0  0  0  0  0
   47.9084    6.1237   23.2718 H   0  0  0  0  0  0  0  0  0  0  0  0
  4 14  1  0
  5 20  1  0
  6  7  1  0
  6 17  1  0
  6 23  1  0
  7  8  1  0
  7 13  1  0
  8  9  1  0
  8 12  2  0
  9 10  1  0
  9 15  2  0
 10 11  2  0
 10 14  1  0
 11 13  1  0
 11 19  1  0
 12 16  1  0
 12 18  1  0
 14 20  2  0
 15 21  1  0
 16 17  1  0
 18 21  2  0
 19 22  2  0
 20 22  1  0
 24 34  1  0
 25 40  1  0
 26 27  1  0
 26 37  1  0
 26 43  1  0
 27 28  1  0
 27 33  1  0
 28 29  1  0
 28 32  2  0
 29 30  1  0
 29 35  2  0
 30 31  2  0
 30 34  1  0
 31 33  1  0
 31 39  1  0
 32 36  1  0
 32 38  1  0
 34 40  2  0
 35 41  1  0
 36 37  1  0
 38 41  2  0
 39 42  2  0
 40 42  1  0
  1 44  1  0
  1 45  1  0
  2 46  1  0
  3 47  1  0
  4 48  1  0
  5 49  1  0
  7 50  1  6
 13 51  1  0
 13 52  1  0
 15 53  1  0
 16 54  1  0
 16 55  1  0
 17 56  1  0
 17 57  1  0
 18 58  1  0
 19 59  1  0
 21 60  1  0
 22 61  1  0
 23 62  1  0
 23 63  1  0
 23 64  1  0
 24 65  1  0
 25 66  1  0
 27 67  1  6
 33 68  1  0
 33 69  1  0
 35 70  1  0
 36 71  1  0
 36 72  1  0
 37 73  1  0
 37 74  1  0
 38 75  1  0
 39 76  1  0
 41 77  1  0
 42 78  1  0
 43 79  1  0
 43 80  1  0
 43 81  1  0
M  END
> <Uni-Dock RESULT> 
ENERGY=   -6.436  LOWER_BOUND=    4.495  UPPER_BOUND=    7.127
INTER + INTRA:          -6.436
INTER:                  -6.436
INTRA:                   0.000
UNBOUND:                 0.000

$$$$

     RDKit          3D

 81 84  0  0  0  0  0  0  0  0999 V2000
   48.2660    7.5117   20.8296 O   0  0  0  0  0  0  0  0  0  0  0  0
   48.1467    8.2843   20.7797 Cl  0  0  0  0  0  0  0  0  0  0  0  0
   48.1480    8.2790   20.7772 Cl  0  0  0  0  0  0  0  0  0  0  0  0
   48.6371   10.5419   22.9911 O   0  0  0  0  0  0  0  0  0  0  0  0
   47.7192   12.7722   21.7735 O   0  0  0  0  0  0  0  0  0  0  0  0
   48.5177    5.8039   18.8726 N   0  0  0  0  0  0  0  0  0  0  0  0
   47.6744    6.6002   19.6908 C   0  0  1  0  0  0  0  0  0  0  0  0
   48.3148    6.7741   21.0097 C   0  0  0  0  0  0  0  0  0  0  0  0
   48.4633    7.9307   21.6997 C   0  0  0  0  0  0  0  0  0  0  0  0
   48.0097    9.1625   21.0769 C   0  0  0  0  0  0  0  0  0  0  0  0
   47.4661    9.0805   19.8320 C   0  0  0  0  0  0  0  0  0  0  0  0
   48.7858    5.5875   21.5984 C   0  0  0  0  0  0  0  0  0  0  0  0
   47.3315    7.8629   19.0096 C   0  0  0  0  0  0  0  0  0  0  0  0
   48.1021   10.3658   21.7313 C   0  0  0  0  0  0  0  0  0  0  0  0
   49.0588    7.9228   22.9401 C   0  0  0  0  0  0  0  0  0  0  0  0
   48.5850    4.3618   20.7620 C   0  0  0  0  0  0  0  0  0  0  0  0
   49.1616    4.6925   19.4011 C   0  0  0  0  0  0  0  0  0  0  0  0
   49.3795    5.5690   22.8309 C   0  0  0  0  0  0  0  0  0  0  0  0
   47.0017   10.2624   19.2377 C   0  0  0  0  0  0  0  0  0  0  0  0
   47.6333   11.5383   21.1226 C   0  0  0  0  0  0  0  0  0  0  0  0
   49.5289    6.7376   23.5296 C   0  0  0  0  0  0  0  0  0  0  0  0
   47.0804   11.4794   19.8674 C   0  0  0  0  0  0  0  0  0  0  0  0
   48.3378    5.9058   17.4775 C   0  0  0  0  0  0  0  0  0  0  0  0
   47.5089    9.9350   23.5159 O   0  0  0  0  0  0  0  0  0  0  0  0
   47.6695   12.4946   22.6692 O   0  0  0  0  0  0  0  0  0  0  0  0
   49.5284    6.1628   18.8269 N   0  0  0  0  0  0  0  0  0  0  0  0
   48.4021    6.9540   19.3028 C   0  0  1  0  0  0  0  0  0  0  0  0
   48.1252    6.7532   20.7176 C   0  0  0  0  0  0  0  0  0  0  0  0
   47.9183    7.6949   21.6875 C   0  0  0  0  0  0  0  0  0  0  0  0
   48.0107    9.0918   21.2795 C   0  0  0  0  0  0  0  0  0  0  0  0
   48.2980    9.3372   19.9676 C   0  0  0  0  0  0  0  0  0  0  0  0
   48.0481    5.4073   21.1321 C   0  0  0  0  0  0  0  0  0  0  0  0
   48.5572    8.3681   18.9073 C   0  0  0  0  0  0  0  0  0  0  0  0
   47.8021   10.1105   22.1785 C   0  0  0  0  0  0  0  0  0  0  0  0
   47.6502    7.3405   22.9906 C   0  0  0  0  0  0  0  0  0  0  0  0
   48.2820    4.4031   20.0370 C   0  0  0  0  0  0  0  0  0  0  0  0
   49.5588    4.8386   19.3665 C   0  0  0  0  0  0  0  0  0  0  0  0
   47.7826    5.0464   22.4239 C   0  0  0  0  0  0  0  0  0  0  0  0
   48.3669   10.6821   19.5906 C   0  0  0  0  0  0  0  0  0  0  0  0
   47.8777   11.4526   21.7731 C   0  0  0  0  0  0  0  0  0  0  0  0
   47.5757    5.9959   23.3914 C   0  0  0  0  0  0  0  0  0  0  0  0
   48.1643   11.7201   20.4601 C   0  0  0  0  0  0  0  0  0  0  0  0
   49.4697    6.2064   17.3743 C   0  0  0  0  0  0  0  0  0  0  0  0
   48.4880    7.0178   19.9929 H   0  0  0  0  0  0  0  0  0  0  0  0
   48.1315    8.4870   20.6703 H   0  0  0  0  0  0  0  0  0  0  0  0
   48.4437    7.0600   20.2155 H   0  0  0  0  0  0  0  0  0  0  0  0
   48.4424    7.0653   20.2179 H   0  0  0  0  0  0  0  0  0  0  0  0
   49.4926   11.1179   23.0150 H   0  0  0  0  0  0  0  0  0  0  0  0
   48.6362   13.0830   22.0859 H   0  0  0  0  0  0  0  0  0  0  0  0
   46.7150    6.0140   19.8118 H   0  0  0  0  0  0  0  0  0  0  0  0
   46.3068    7.8252   18.5581 H   0  0  0  0  0  0  0  0  0  0  0  0
   48.0436    7.9791   18.1349 H   0  0  0  0  0  0  0  0  0  0  0  0
   49.2150    8.7922   23.5499 H   0  0  0  0  0  0  0  0  0  0  0  0
   47.4938    4.1818   20.5752 H   0  0  0  0  0  0  0  0  0  0  0  0
   49.0451    3.4685   21.2052 H   0  0  0  0  0  0  0  0  0  0  0  0
   49.1175    3.8404   18.6928 H   0  0  0  0  0  0  0  0  0  0  0  0
   50.2552    4.9271   19.5399 H   0  0  0  0  0  0  0  0  0  0  0  0
   49.7290    4.6514   23.2559 H   0  0  0  0  0  0  0  0  0  0  0  0
   46.5577   10.2528   18.2438 H   0  0  0  0  0  0  0  0  0  0  0  0
   49.9952    6.7303   24.5010 H   0  0  0  0  0  0  0  0  0  0  0  0
   46.7325   12.4007   19.4356 H   0  0  0  0  0  0  0  0  0  0  0  0
   49.1103    6.5273   17.0148 H   0  0  0  0  0  0  0  0  0  0  0  0
   47.3090    6.2702   17.2699 H   0  0  0  0  0  0  0  0  0  0  0  0
   48.3796    4.8551   17.0654 H   0  0  0  0  0  0  0  0  0  0  0  0
   46.8185   10.4381   24.0214 H   0  0  0  0  0  0  0  0  0  0  0  0
   46.7117   12.8599   22.6631 H   0  0  0  0  0  0  0  0  0  0  0  0
   47.5258    6.5153   18.6968 H   0  0  0  0  0  0  0  0  0  0  0  0
   49.6112    8.5188   18.4981 H   0  0  0  0  0  0  0  0  0  0  0  0
   47.9358    8.6266   17.9938 H   0  0  0  0  0  0  0  0  0  0  0  0
   47.4802    8.0329   23.7927 H   0  0  0  0  0  0  0  0  0  0  0  0
   47.4680    4.4389   19.2866 H   0  0  0  0  0  0  0  0  0  0  0  0
   48.4168    3.3966   20.4254 H   0  0  0  0  0  0  0  0  0  0  0  0
   50.3839    4.7796   20.0986 H   0  0  0  0  0  0  0  0  0  0  0  0
   49.7827    4.1103   18.5600 H   0  0  0  0  0  0  0  0  0  0  0  0
   47.7333    4.0164   22.6946 H   0  0  0  0  0  0  0  0  0  0  0  0
   48.5916   10.9546   18.5589 H   0  0  0  0  0  0  0  0  0  0  0  0
   47.3682    5.7114   24.3999 H   0  0  0  0  0  0  0  0  0  0  0  0
   48.2193   12.7572   20.1619 H   0  0  0  0  0  0  0  0  0  0  0  0
   50.0256    7.1034   16.9921 H   0  0  0  0  0  0  0  0  0  0  0  0
   49.8378    5.2665   16.9191 H   0  0  0  0  0  0  0  0  0  0  0  0
   48.4157    6.3469   17.0548 H   0  0  0  0  0  0  0  0  0  0  0  0
  4 14  1  0
  5 20  1  0
  6  7  1  0
  6 17  1  0
  6 23  1  0
  7  8  1  0
  7 13  1  0
  8  9  1  0
  8 12  2  0
  9 10  1  0
  9 15  2  0
 10 11  2  0
 10 14  1  0
 11 13  1  0
 11 19  1  0
 12 16  1  0
 12 18  1  0
 14 20  2  0
 15 21  1  0
 16 17  1  0
 18 21  2  0
 19 22  2  0
 20 22  1  0
 24 34  1  0
 25 40  1  0
 26 27  1  0
 26 37  1  0
 26 43  1  0
 27 28  1  0
 27 33  1  0
 28 29  1  0
 28 32  2  0
 29 30  1  0
 29 35  2  0
 30 31  2  0
 30 34  1  0
 31 33  1  0
 31 39  1  0
 32 36  1  0
 32 38  1  0
 34 40  2  0
 35 41  1  0
 36 37  1  0
 38 41  2  0
 39 42  2  0
 40 42  1  0
  1 44  1  0
  1 45  1  0
  2 46  1  0
  3 47  1  0
  4 48  1  0
  5 49  1  0
  7 50  1  6
 13 51  1  0
 13 52  1  0
 15 53  1  0
 16 54  1  0
 16 55  1  0
 17 56  1  0
 17 57  1  0
 18 58  1  0
 19 59  1  0
 21 60  1  0
 22 61  1  0
 23 62  1  0
 23 63  1  0
 23 64  1  0
 24 65  1  0
 25 66  1  0
 27 67  1  6
 33 68  1  0
 33 69  1  0
 35 70  1  0
 36 71  1  0
 36 72  1  0
 37 73  1  0
 37 74  1  0
 38 75  1  0
 39 76  1  0
 41 77  1  0
 42 78  1  0
 43 79  1  0
 43 80  1  0
 43 81  1  0
M  END
> <Uni-Dock RESULT> 
ENERGY=   -6.433  LOWER_BOUND=    5.030  UPPER_BOUND=    7.654
INTER + INTRA:          -6.433
INTER:                  -6.433
INTRA:                   0.000
UNBOUND:                 0.000

$$$$

     RDKit          3D

 81 84  0  0  0  0  0  0  0  0999 V2000
   50.1163    9.8658   11.3860 O   0  0  0  0  0  0  0  0  0  0  0  0
   49.4969    9.4905   11.6846 Cl  0  0  0  0  0  0  0  0  0  0  0  0
   49.5025    9.4906   11.6823 Cl  0  0  0  0  0  0  0  0  0  0  0  0
   46.4065   10.3059   11.5740 O   0  0  0  0  0  0  0  0  0  0  0  0
   45.2339    8.3850   13.0690 O   0  0  0  0  0  0  0  0  0  0  0  0
   52.4856    8.8930   10.8859 N   0  0  0  0  0  0  0  0  0  0  0  0
   51.5496    9.3902   11.8301 C   0  0  1  0  0  0  0  0  0  0  0  0
   50.6549   10.3509   11.1547 C   0  0  0  0  0  0  0  0  0  0  0  0
   49.3028   10.3999   11.2295 C   0  0  0  0  0  0  0  0  0  0  0  0
   48.6222    9.3731   11.9999 C   0  0  0  0  0  0  0  0  0  0  0  0
   49.3858    8.4182   12.5973 C   0  0  0  0  0  0  0  0  0  0  0  0
   51.3101   11.3243   10.3805 C   0  0  0  0  0  0  0  0  0  0  0  0
   50.8518    8.2792   12.5044 C   0  0  0  0  0  0  0  0  0  0  0  0
   47.2568    9.3794   12.1424 C   0  0  0  0  0  0  0  0  0  0  0  0
   48.6097   11.3829   10.5613 C   0  0  0  0  0  0  0  0  0  0  0  0
   52.8011   11.1883   10.3509 C   0  0  0  0  0  0  0  0  0  0  0  0
   53.0760    9.7495    9.9658 C   0  0  0  0  0  0  0  0  0  0  0  0
   50.6303   12.3056    9.7121 C   0  0  0  0  0  0  0  0  0  0  0  0
   48.7361    7.4409   13.3645 C   0  0  0  0  0  0  0  0  0  0  0  0
   46.6228    8.3945   12.9127 C   0  0  0  0  0  0  0  0  0  0  0  0
   49.2637   12.3565    9.7881 C   0  0  0  0  0  0  0  0  0  0  0  0
   47.3732    7.4218   13.5253 C   0  0  0  0  0  0  0  0  0  0  0  0
   53.1021    7.6600   11.1840 C   0  0  0  0  0  0  0  0  0  0  0  0
   46.8661   11.2364   12.4902 O   0  0  0  0  0  0  0  0  0  0  0  0
   45.0485    9.3020   12.9886 O   0  0  0  0  0  0  0  0  0  0  0  0
   52.0278    8.5140    9.9920 N   0  0  0  0  0  0  0  0  0  0  0  0
   51.3095    8.7640   11.2340 C   0  0  1  0  0  0  0  0  0  0  0  0
   50.8460   10.1384   11.3547 C   0  0  0  0  0  0  0  0  0  0  0  0
   49.6038   10.5913   11.7044 C   0  0  0  0  0  0  0  0  0  0  0  0
   48.5850    9.5820   11.9679 C   0  0  0  0  0  0  0  0  0  0  0  0
   48.9586    8.2751   11.8402 C   0  0  0  0  0  0  0  0  0  0  0  0
   51.8153   11.1275   11.0878 C   0  0  0  0  0  0  0  0  0  0  0  0
   50.2591    7.7468   11.4398 C   0  0  0  0  0  0  0  0  0  0  0  0
   47.3112    9.9383   12.3422 C   0  0  0  0  0  0  0  0  0  0  0  0
   49.3247   11.9369   11.7890 C   0  0  0  0  0  0  0  0  0  0  0  0
   53.1670   10.5891   10.7064 C   0  0  0  0  0  0  0  0  0  0  0  0
   52.8998    9.5838    9.6168 C   0  0  0  0  0  0  0  0  0  0  0  0
   51.5469   12.4657   11.1691 C   0  0  0  0  0  0  0  0  0  0  0  0
   47.9734    7.3207   12.1121 C   0  0  0  0  0  0  0  0  0  0  0  0
   46.3409    8.9590   12.6092 C   0  0  0  0  0  0  0  0  0  0  0  0
   50.2992   12.9130   11.5208 C   0  0  0  0  0  0  0  0  0  0  0  0
   46.6963    7.6413   12.4871 C   0  0  0  0  0  0  0  0  0  0  0  0
   52.7014    7.2364   10.1630 C   0  0  0  0  0  0  0  0  0  0  0  0
   50.9069    9.3222   11.1161 H   0  0  0  0  0  0  0  0  0  0  0  0
   49.3782    9.3052   11.7541 H   0  0  0  0  0  0  0  0  0  0  0  0
   50.7707    9.5050   11.1529 H   0  0  0  0  0  0  0  0  0  0  0  0
   50.7652    9.5049   11.1552 H   0  0  0  0  0  0  0  0  0  0  0  0
   45.7549    9.9156   10.8760 H   0  0  0  0  0  0  0  0  0  0  0  0
   44.6604    8.3569   12.2291 H   0  0  0  0  0  0  0  0  0  0  0  0
   52.1577    9.9296   12.6162 H   0  0  0  0  0  0  0  0  0  0  0  0
   51.2761    8.0800   13.5220 H   0  0  0  0  0  0  0  0  0  0  0  0
   51.0533    7.3391   11.9031 H   0  0  0  0  0  0  0  0  0  0  0  0
   47.5419   11.4915   10.5677 H   0  0  0  0  0  0  0  0  0  0  0  0
   53.2312   11.2966   11.3812 H   0  0  0  0  0  0  0  0  0  0  0  0
   53.2765   11.9028    9.6657 H   0  0  0  0  0  0  0  0  0  0  0  0
   54.1575    9.5276    9.8616 H   0  0  0  0  0  0  0  0  0  0  0  0
   52.6218    9.5740    8.9493 H   0  0  0  0  0  0  0  0  0  0  0  0
   51.1541   13.0345    9.1298 H   0  0  0  0  0  0  0  0  0  0  0  0
   49.2996    6.6548   13.8641 H   0  0  0  0  0  0  0  0  0  0  0  0
   48.7219   13.1268    9.2645 H   0  0  0  0  0  0  0  0  0  0  0  0
   46.8491    6.6850   14.1073 H   0  0  0  0  0  0  0  0  0  0  0  0
   52.6603    6.8387   10.6119 H   0  0  0  0  0  0  0  0  0  0  0  0
   53.0639    7.4911   12.2814 H   0  0  0  0  0  0  0  0  0  0  0  0
   54.1966    7.7723   10.9293 H   0  0  0  0  0  0  0  0  0  0  0  0
   46.3070   11.5679   13.2404 H   0  0  0  0  0  0  0  0  0  0  0  0
   44.9002    9.2962   14.0029 H   0  0  0  0  0  0  0  0  0  0  0  0
   52.1276    8.5871   12.0257 H   0  0  0  0  0  0  0  0  0  0  0  0
   50.1482    7.1380   10.4816 H   0  0  0  0  0  0  0  0  0  0  0  0
   50.5835    6.9393   12.1680 H   0  0  0  0  0  0  0  0  0  0  0  0
   48.3716   12.3507   12.0571 H   0  0  0  0  0  0  0  0  0  0  0  0
   53.6367   10.0590   11.5581 H   0  0  0  0  0  0  0  0  0  0  0  0
   53.8213   11.3639   10.3144 H   0  0  0  0  0  0  0  0  0  0  0  0
   52.4570   10.1066    8.7502 H   0  0  0  0  0  0  0  0  0  0  0  0
   53.8768    9.1733    9.2884 H   0  0  0  0  0  0  0  0  0  0  0  0
   52.3095   13.1803   10.9588 H   0  0  0  0  0  0  0  0  0  0  0  0
   48.1992    6.2569   12.0313 H   0  0  0  0  0  0  0  0  0  0  0  0
   50.0920   13.9590   11.5839 H   0  0  0  0  0  0  0  0  0  0  0  0
   45.9399    6.8985   12.6957 H   0  0  0  0  0  0  0  0  0  0  0  0
   52.0209    6.3973    9.8592 H   0  0  0  0  0  0  0  0  0  0  0  0
   53.6662    7.2041    9.6206 H   0  0  0  0  0  0  0  0  0  0  0  0
   52.9139    7.0763   11.2410 H   0  0  0  0  0  0  0  0  0  0  0  0
  4 14  1  0
  5 20  1  0
  6  7  1  0
  6 17  1  0
  6 23  1  0
  7  8  1  0
  7 13  1  0
  8  9  1  0
  8 12  2  0
  9 10  1  0
  9 15  2  0
 10 11  2  0
 10 14  1  0
 11 13  1  0
 11 19  1  0
 12 16  1  0
 12 18  1  0
 14 20  2  0
 15 21  1  0
 16 17  1  0
 18 21  2  0
 19 22  2  0
 20 22  1  0
 24 34  1  0
 25 40  1  0
 26 27  1  0
 26 37  1  0
 26 43  1  0
 27 28  1  0
 27 33  1  0
 28 29  1  0
 28 32  2  0
 29 30  1  0
 29 35  2  0
 30 31  2  0
 30 34  1  0
 31 33  1  0
 31 39  1  0
 32 36  1  0
 32 38  1  0
 34 40  2  0
 35 41  1  0
 36 37  1  0
 38 41  2  0
 39 42  2  0
 40 42  1  0
  1 44  1  0
  1 45  1  0
  2 46  1  0
  3 47  1  0
  4 48  1  0
  5 49  1  0
  7 50  1  6
 13 51  1  0
 13 52  1  0
 15 53  1  0
 16 54  1  0
 16 55  1  0
 17 56  1  0
 17 57  1  0
 18 58  1  0
 19 59  1  0
 21 60  1  0
 22 61  1  0
 23 62  1  0
 23 63  1  0
 23 64  1  0
 24 65  1  0
 25 66  1  0
 27 67  1  6
 33 68  1  0
 33 69  1  0
 35 70  1  0
 36 71  1  0
 36 72  1  0
 37 73  1  0
 37 74  1  0
 38 75  1  0
 39 76  1  0
 41 77  1  0
 42 78  1  0
 43 79  1  0
 43 80  1  0
 43 81  1  0
M  END
> <Uni-Dock RESULT> 
ENERGY=   -6.428  LOWER_BOUND=    4.420  UPPER_BOUND=    6.825
INTER + INTRA:          -6.428
INTER:                  -6.428
INTRA:                   0.000
UNBOUND:                 0.000

$$$$

     RDKit          3D

 81 84  0  0  0  0  0  0  0  0999 V2000
   48.0504    8.4445   21.3353 O   0  0  0  0  0  0  0  0  0  0  0  0
   48.0192    9.1524   21.0015 Cl  0  0  0  0  0  0  0  0  0  0  0  0
   48.0199    9.1465   21.0012 Cl  0  0  0  0  0  0  0  0  0  0  0  0
   48.7081   12.0062   22.2702 O   0  0  0  0  0  0  0  0  0  0  0  0
   48.0729   13.7107   20.2725 O   0  0  0  0  0  0  0  0  0  0  0  0
   48.1544    6.1219   20.1501 N   0  0  0  0  0  0  0  0  0  0  0  0
   47.3867    7.2396   20.5700 C   0  0  1  0  0  0  0  0  0  0  0  0
   48.0124    7.8234   21.7731 C   0  0  0  0  0  0  0  0  0  0  0  0
   48.2733    9.1327   22.0048 C   0  0  0  0  0  0  0  0  0  0  0  0
   47.9744   10.0872   20.9511 C   0  0  0  0  0  0  0  0  0  0  0  0
   47.4536    9.6064   19.7894 C   0  0  0  0  0  0  0  0  0  0  0  0
   48.3343    6.8966   22.7800 C   0  0  0  0  0  0  0  0  0  0  0  0
   47.2026    8.1908   19.4576 C   0  0  0  0  0  0  0  0  0  0  0  0
   48.1856   11.4320   21.1292 C   0  0  0  0  0  0  0  0  0  0  0  0
   48.8357    9.5237   23.1982 C   0  0  0  0  0  0  0  0  0  0  0  0
   48.0171    5.4746   22.4340 C   0  0  0  0  0  0  0  0  0  0  0  0
   48.6578    5.2260   21.0843 C   0  0  0  0  0  0  0  0  0  0  0  0
   48.8940    7.2750   23.9697 C   0  0  0  0  0  0  0  0  0  0  0  0
   47.1378   10.5263   18.7795 C   0  0  0  0  0  0  0  0  0  0  0  0
   47.8647   12.3383   20.1090 C   0  0  0  0  0  0  0  0  0  0  0  0
   49.1569    8.5985   24.2051 C   0  0  0  0  0  0  0  0  0  0  0  0
   47.3374   11.8759   18.9289 C   0  0  0  0  0  0  0  0  0  0  0  0
   48.0188    5.7214   18.8046 C   0  0  0  0  0  0  0  0  0  0  0  0
   47.5075   11.7450   22.9080 O   0  0  0  0  0  0  0  0  0  0  0  0
   47.9722   13.7873   21.2029 O   0  0  0  0  0  0  0  0  0  0  0  0
   49.1995    6.3407   20.0402 N   0  0  0  0  0  0  0  0  0  0  0  0
   48.1581    7.3550   20.1261 C   0  0  1  0  0  0  0  0  0  0  0  0
   47.8283    7.7150   21.4974 C   0  0  0  0  0  0  0  0  0  0  0  0
   47.7058    8.9621   22.0451 C   0  0  0  0  0  0  0  0  0  0  0  0
   47.9629   10.0960   21.1651 C   0  0  0  0  0  0  0  0  0  0  0  0
   48.3056    9.8142   19.8740 C   0  0  0  0  0  0  0  0  0  0  0  0
   47.5919    6.6292   22.3658 C   0  0  0  0  0  0  0  0  0  0  0  0
   48.4791    8.5036   19.2554 C   0  0  0  0  0  0  0  0  0  0  0  0
   47.8489   11.3885   21.6190 C   0  0  0  0  0  0  0  0  0  0  0  0
   47.3701    9.1381   23.3687 C   0  0  0  0  0  0  0  0  0  0  0  0
   47.7372    5.2757   21.7260 C   0  0  0  0  0  0  0  0  0  0  0  0
   49.0695    5.3106   21.0239 C   0  0  0  0  0  0  0  0  0  0  0  0
   47.2584    6.7947   23.6814 C   0  0  0  0  0  0  0  0  0  0  0  0
   48.5329   10.9137   19.0403 C   0  0  0  0  0  0  0  0  0  0  0  0
   48.0831   12.4744   20.7602 C   0  0  0  0  0  0  0  0  0  0  0  0
   47.1368    8.0482   24.2242 C   0  0  0  0  0  0  0  0  0  0  0  0
   48.4277   12.2126   19.4601 C   0  0  0  0  0  0  0  0  0  0  0  0
   49.1793    5.8535   18.6699 C   0  0  0  0  0  0  0  0  0  0  0  0
   48.2348    7.6592   20.7500 H   0  0  0  0  0  0  0  0  0  0  0  0
   48.0293    9.3013   20.8253 H   0  0  0  0  0  0  0  0  0  0  0  0
   48.1905    7.7841   20.9390 H   0  0  0  0  0  0  0  0  0  0  0  0
   48.1897    7.7901   20.9392 H   0  0  0  0  0  0  0  0  0  0  0  0
   49.6218   12.4661   22.1367 H   0  0  0  0  0  0  0  0  0  0  0  0
   49.0116   14.0253   20.5073 H   0  0  0  0  0  0  0  0  0  0  0  0
   46.3654    6.8334   20.8353 H   0  0  0  0  0  0  0  0  0  0  0  0
   46.1908    8.0881   18.9877 H   0  0  0  0  0  0  0  0  0  0  0  0
   47.9431    7.9092   18.6462 H   0  0  0  0  0  0  0  0  0  0  0  0
   49.0740   10.5370   23.4599 H   0  0  0  0  0  0  0  0  0  0  0  0
   46.9171    5.3438   22.2577 H   0  0  0  0  0  0  0  0  0  0  0  0
   48.3643    4.7668   23.1985 H   0  0  0  0  0  0  0  0  0  0  0  0
   48.5351    4.1818   20.7318 H   0  0  0  0  0  0  0  0  0  0  0  0
   49.7673    5.3895   21.1963 H   0  0  0  0  0  0  0  0  0  0  0  0
   49.1290    6.5486   24.7192 H   0  0  0  0  0  0  0  0  0  0  0  0
   46.7182   10.1950   17.8311 H   0  0  0  0  0  0  0  0  0  0  0  0
   49.5972    8.9037   25.1401 H   0  0  0  0  0  0  0  0  0  0  0  0
   47.1046   12.6032   18.1717 H   0  0  0  0  0  0  0  0  0  0  0  0
   48.8662    6.0528   18.1971 H   0  0  0  0  0  0  0  0  0  0  0  0
   47.0421    6.0807   18.4156 H   0  0  0  0  0  0  0  0  0  0  0  0
   47.9524    4.5940   18.8048 H   0  0  0  0  0  0  0  0  0  0  0  0
   46.8662   12.4621   23.1529 H   0  0  0  0  0  0  0  0  0  0  0  0
   47.0616   14.2146   21.0054 H   0  0  0  0  0  0  0  0  0  0  0  0
   47.2524    6.8105   19.6671 H   0  0  0  0  0  0  0  0  0  0  0  0
   49.5524    8.3921   18.8857 H   0  0  0  0  0  0  0  0  0  0  0  0
   47.9115    8.4669   18.2736 H   0  0  0  0  0  0  0  0  0  0  0  0
   47.2603   10.0894   23.8531 H   0  0  0  0  0  0  0  0  0  0  0  0
   46.9496    5.1112   20.9646 H   0  0  0  0  0  0  0  0  0  0  0  0
   47.7499    4.4741   22.4603 H   0  0  0  0  0  0  0  0  0  0  0  0
   49.8660    5.4458   21.7773 H   0  0  0  0  0  0  0  0  0  0  0  0
   49.2291    4.3193   20.5518 H   0  0  0  0  0  0  0  0  0  0  0  0
   47.0882    5.9458   24.3034 H   0  0  0  0  0  0  0  0  0  0  0  0
   48.8101   10.7656   17.9960 H   0  0  0  0  0  0  0  0  0  0  0  0
   46.8759    8.1749   25.2522 H   0  0  0  0  0  0  0  0  0  0  0  0
   48.6049   13.0575   18.8103 H   0  0  0  0  0  0  0  0  0  0  0  0
   49.8404    6.4900   18.0240 H   0  0  0  0  0  0  0  0  0  0  0  0
   49.4504    4.7816   18.6102 H   0  0  0  0  0  0  0  0  0  0  0  0
   48.1551    5.9670   18.2565 H   0  0  0  0  0  0  0  0  0  0  0  0
  4 14  1  0
  5 20  1  0
  6  7  1  0
  6 17  1  0
  6 23  1  0
  7  8  1  0
  7 13  1  0
  8  9  1  0
  8 12  2  0
  9 10  1  0
  9 15  2  0
 10 11  2  0
 10 14  1  0
 11 13  1  0
 11 19  1  0
 12 16  1  0
 12 18  1  0
 14 20  2  0
 15 21  1  0
 16 17  1  0
 18 21  2  0
 19 22  2  0
 20 22  1  0
 24 34  1  0
 25 40  1  0
 26 27  1  0
 26 37  1  0
 26 43  1  0
 27 28  1  0
 27 33  1  0
 28 29  1  0
 28 32  2  0
 29 30  1  0
 29 35  2  0
 30 31  2  0
 30 34  1  0
 31 33  1  0
 31 39  1  0
 32 36  1  0
 32 38  1  0
 34 40  2  0
 35 41  1  0
 36 37  1  0
 38 41  2  0
 39 42  2  0
 40 42  1  0
  1 44  1  0
  1 45  1  0
  2 46  1  0
  3 47  1  0
  4 48  1  0
  5 49  1  0
  7 50  1  6
 13 51  1  0
 13 52  1  0
 15 53  1  0
 16 54  1  0
 16 55  1  0
 17 56  1  0
 17 57  1  0
 18 58  1  0
 19 59  1  0
 21 60  1  0
 22 61  1  0
 23 62  1  0
 23 63  1  0
 23 64  1  0
 24 65  1  0
 25 66  1  0
 27 67  1  6
 33 68  1  0
 33 69  1  0
 35 70  1  0
 36 71  1  0
 36 72  1  0
 37 73  1  0
 37 74  1  0
 38 75  1  0
 39 76  1  0
 41 77  1  0
 42 78  1  0
 43 79  1  0
 43 80  1  0
 43 81  1  0
M  END
> <Uni-Dock RESULT> 
ENERGY=   -6.420  LOWER_BOUND=    5.673  UPPER_BOUND=    8.335
INTER + INTRA:          -6.420
INTER:                  -6.420
INTRA:                   0.000
UNBOUND:                 0.000

$$$$

     RDKit          3D

 81 84  0  0  0  0  0  0  0  0999 V2000
   48.1129    7.9378   20.5633 O   0  0  0  0  0  0  0  0  0  0  0  0
   47.9761    8.6867   20.3785 Cl  0  0  0  0  0  0  0  0  0  0  0  0
   47.9761    8.6821   20.3823 Cl  0  0  0  0  0  0  0  0  0  0  0  0
   47.2788    9.9594   17.5286 O   0  0  0  0  0  0  0  0  0  0  0  0
   47.1973   12.6058   18.0664 O   0  0  0  0  0  0  0  0  0  0  0  0
   48.0036    6.8287   22.9230 N   0  0  0  0  0  0  0  0  0  0  0  0
   48.7100    7.6280   21.9864 C   0  0  1  0  0  0  0  0  0  0  0  0
   48.3311    7.2113   20.6217 C   0  0  0  0  0  0  0  0  0  0  0  0
   47.9788    8.0159   19.5899 C   0  0  0  0  0  0  0  0  0  0  0  0
   47.8943    9.4456   19.8346 C   0  0  0  0  0  0  0  0  0  0  0  0
   48.1700    9.8910   21.0906 C   0  0  0  0  0  0  0  0  0  0  0  0
   48.3786    5.8250   20.3930 C   0  0  0  0  0  0  0  0  0  0  0  0
   48.5012    9.0615   22.2650 C   0  0  0  0  0  0  0  0  0  0  0  0
   47.5725   10.3212   18.8275 C   0  0  0  0  0  0  0  0  0  0  0  0
   47.6816    7.4725   18.3612 C   0  0  0  0  0  0  0  0  0  0  0  0
   48.7708    5.0153   21.5900 C   0  0  0  0  0  0  0  0  0  0  0  0
   47.8550    5.4644   22.7095 C   0  0  0  0  0  0  0  0  0  0  0  0
   48.0847    5.2748   19.1753 C   0  0  0  0  0  0  0  0  0  0  0  0
   48.1167   11.2723   21.3253 C   0  0  0  0  0  0  0  0  0  0  0  0
   47.5232   11.6994   19.0793 C   0  0  0  0  0  0  0  0  0  0  0  0
   47.7296    6.0876   18.1315 C   0  0  0  0  0  0  0  0  0  0  0  0
   47.7984   12.1716   20.3386 C   0  0  0  0  0  0  0  0  0  0  0  0
   47.8541    7.3497   24.2250 C   0  0  0  0  0  0  0  0  0  0  0  0
   48.6212    9.6772   17.3418 O   0  0  0  0  0  0  0  0  0  0  0  0
   47.5120   12.1395   17.3146 O   0  0  0  0  0  0  0  0  0  0  0  0
   46.9447    6.8045   22.7485 N   0  0  0  0  0  0  0  0  0  0  0  0
   47.8456    7.7892   22.1655 C   0  0  1  0  0  0  0  0  0  0  0  0
   48.4540    7.3363   20.9232 C   0  0  0  0  0  0  0  0  0  0  0  0
   48.5552    8.0007   19.7321 C   0  0  0  0  0  0  0  0  0  0  0  0
   47.9565    9.3286   19.6658 C   0  0  0  0  0  0  0  0  0  0  0  0
   47.3457    9.7910   20.7959 C   0  0  0  0  0  0  0  0  0  0  0  0
   49.0242    6.0471   20.9658 C   0  0  0  0  0  0  0  0  0  0  0  0
   47.1858    9.1071   22.0755 C   0  0  0  0  0  0  0  0  0  0  0  0
   48.0212   10.0812   18.5174 C   0  0  0  0  0  0  0  0  0  0  0  0
   49.1799    7.4361   18.6429 C   0  0  0  0  0  0  0  0  0  0  0  0
   48.8914    5.3499   22.2920 C   0  0  0  0  0  0  0  0  0  0  0  0
   47.4339    5.4638   22.6550 C   0  0  0  0  0  0  0  0  0  0  0  0
   49.6461    5.4786   19.8890 C   0  0  0  0  0  0  0  0  0  0  0  0
   46.7912   11.0724   20.7191 C   0  0  0  0  0  0  0  0  0  0  0  0
   47.4554   11.3654   18.4677 C   0  0  0  0  0  0  0  0  0  0  0  0
   49.7445    6.1506   18.6976 C   0  0  0  0  0  0  0  0  0  0  0  0
   46.8382   11.8480   19.5918 C   0  0  0  0  0  0  0  0  0  0  0  0
   46.6886    7.2453   24.1107 C   0  0  0  0  0  0  0  0  0  0  0  0
   47.8872    7.6352   21.4857 H   0  0  0  0  0  0  0  0  0  0  0  0
   47.9055    8.9026   20.4191 H   0  0  0  0  0  0  0  0  0  0  0  0
   47.9610    7.6304   21.2670 H   0  0  0  0  0  0  0  0  0  0  0  0
   47.9611    7.6350   21.2632 H   0  0  0  0  0  0  0  0  0  0  0  0
   46.3116   10.1668   17.2358 H   0  0  0  0  0  0  0  0  0  0  0  0
   46.3134   12.4777   17.5790 H   0  0  0  0  0  0  0  0  0  0  0  0
   49.8065    7.4104   22.1565 H   0  0  0  0  0  0  0  0  0  0  0  0
   49.3726    9.5093   22.8084 H   0  0  0  0  0  0  0  0  0  0  0  0
   47.6246    9.1426   22.9799 H   0  0  0  0  0  0  0  0  0  0  0  0
   47.3940    8.0376   17.4952 H   0  0  0  0  0  0  0  0  0  0  0  0
   49.8021    5.2896   21.9356 H   0  0  0  0  0  0  0  0  0  0  0  0
   48.7086    3.9342   21.4070 H   0  0  0  0  0  0  0  0  0  0  0  0
   48.0129    4.9009   23.6515 H   0  0  0  0  0  0  0  0  0  0  0  0
   46.7950    5.2508   22.3917 H   0  0  0  0  0  0  0  0  0  0  0  0
   48.1289    4.2159   19.0286 H   0  0  0  0  0  0  0  0  0  0  0  0
   48.3290   11.6816   22.3115 H   0  0  0  0  0  0  0  0  0  0  0  0
   47.4973    5.6610   17.1697 H   0  0  0  0  0  0  0  0  0  0  0  0
   47.7501   13.2351   20.4904 H   0  0  0  0  0  0  0  0  0  0  0  0
   46.8505    7.7549   24.3853 H   0  0  0  0  0  0  0  0  0  0  0  0
   48.6557    8.0959   24.4116 H   0  0  0  0  0  0  0  0  0  0  0  0
   48.0539    6.4999   24.9415 H   0  0  0  0  0  0  0  0  0  0  0  0
   49.2116   10.2410   16.7772 H   0  0  0  0  0  0  0  0  0  0  0  0
   48.2886   12.8085   17.3036 H   0  0  0  0  0  0  0  0  0  0  0  0
   48.6707    7.8650   22.9660 H   0  0  0  0  0  0  0  0  0  0  0  0
   46.0762    8.9760   22.3052 H   0  0  0  0  0  0  0  0  0  0  0  0
   47.4970    9.7989   22.9193 H   0  0  0  0  0  0  0  0  0  0  0  0
   49.2892    7.9076   17.6850 H   0  0  0  0  0  0  0  0  0  0  0  0
   49.4834    5.8673   23.0722 H   0  0  0  0  0  0  0  0  0  0  0  0
   49.1550    4.2969   22.2299 H   0  0  0  0  0  0  0  0  0  0  0  0
   46.8349    4.9263   21.8982 H   0  0  0  0  0  0  0  0  0  0  0  0
   47.2846    4.9421   23.6228 H   0  0  0  0  0  0  0  0  0  0  0  0
   50.0640    4.5008   19.9644 H   0  0  0  0  0  0  0  0  0  0  0  0
   46.2875   11.5078   21.5829 H   0  0  0  0  0  0  0  0  0  0  0  0
   50.2311    5.7045   17.8579 H   0  0  0  0  0  0  0  0  0  0  0  0
   46.4074   12.8374   19.5395 H   0  0  0  0  0  0  0  0  0  0  0  0
   45.8182    7.9534   24.1302 H   0  0  0  0  0  0  0  0  0  0  0  0
   46.5424    6.3904   24.7991 H   0  0  0  0  0  0  0  0  0  0  0  0
   47.5596    7.8288   24.4762 H   0  0  0  0  0  0  0  0  0  0  0  0
  4 14  1  0
  5 20  1  0
  6  7  1  0
  6 17  1  0
  6 23  1  0
  7  8  1  0
  7 13  1  0
  8  9  1  0
  8 12  2  0
  9 10  1  0
  9 15  2  0
 10 11  2  0
 10 14  1  0
 11 13  1  0
 11 19  1  0
 12 16  1  0
 12 18  1  0
 14 20  2  0
 15 21  1  0
 16 17  1  0
 18 21  2  0
 19 22  2  0
 20 22  1  0
 24 34  1  0
 25 40  1  0
 26 27  1  0
 26 37  1  0
 26 43  1  0
 27 28  1  0
 27 33  1  0
 28 29  1  0
 28 32  2  0
 29 30  1  0
 29 35  2  0
 30 31  2  0
 30 34  1  0
 31 33  1  0
 31 39  1  0
 32 36  1  0
 32 38  1  0
 34 40  2  0
 35 41  1  0
 36 37  1  0
 38 41  2  0
 39 42  2  0
 40 42  1  0
  1 44  1  0
  1 45  1  0
  2 46  1  0
  3 47  1  0
  4 48  1  0
  5 49  1  0
  7 50  1  6
 13 51  1  0
 13 52  1  0
 15 53  1  0
 16 54  1  0
 16 55  1  0
 17 56  1  0
 17 57  1  0
 18 58  1  0
 19 59  1  0
 21 60  1  0
 22 61  1  0
 23 62  1  0
 23 63  1  0
 23 64  1  0
 24 65  1  0
 25 66  1  0
 27 67  1  6
 33 68  1  0
 33 69  1  0
 35 70  1  0
 36 71  1  0
 36 72  1  0
 37 73  1  0
 37 74  1  0
 38 75  1  0
 39 76  1  0
 41 77  1  0
 42 78  1  0
 43 79  1  0
 43 80  1  0
 43 81  1  0
M  END
> <Uni-Dock RESULT> 
ENERGY=   -6.393  LOWER_BOUND=    5.040  UPPER_BOUND=    7.871
INTER + INTRA:          -6.393
INTER:                  -6.393
INTRA:                   0.000
UNBOUND:                 0.000

$$$$

     RDKit          3D

 81 84  0  0  0  0  0  0  0  0999 V2000
   48.0744    7.8660   19.9201 O   0  0  0  0  0  0  0  0  0  0  0  0
   48.1988    7.4943   19.2419 Cl  0  0  0  0  0  0  0  0  0  0  0  0
   48.1985    7.4944   19.2479 Cl  0  0  0  0  0  0  0  0  0  0  0  0
   49.2829    8.6715   16.4730 O   0  0  0  0  0  0  0  0  0  0  0  0
   49.1319    6.5373   14.8231 O   0  0  0  0  0  0  0  0  0  0  0  0
   47.8562    6.8181   22.3001 N   0  0  0  0  0  0  0  0  0  0  0  0
   47.2703    7.1058   21.0396 C   0  0  1  0  0  0  0  0  0  0  0  0
   47.8893    8.3301   20.4939 C   0  0  0  0  0  0  0  0  0  0  0  0
   48.3615    8.5167   19.2377 C   0  0  0  0  0  0  0  0  0  0  0  0
   48.3273    7.3914   18.3192 C   0  0  0  0  0  0  0  0  0  0  0  0
   47.8262    6.2127   18.7794 C   0  0  0  0  0  0  0  0  0  0  0  0
   47.9550    9.4094   21.3923 C   0  0  0  0  0  0  0  0  0  0  0  0
   47.3528    5.9331   20.1486 C   0  0  0  0  0  0  0  0  0  0  0  0
   48.7616    7.5182   17.0231 C   0  0  0  0  0  0  0  0  0  0  0  0
   48.8846    9.7353   18.8708 C   0  0  0  0  0  0  0  0  0  0  0  0
   47.4167    9.1098   22.7571 C   0  0  0  0  0  0  0  0  0  0  0  0
   48.1114    7.8406   23.2047 C   0  0  0  0  0  0  0  0  0  0  0  0
   48.4734   10.6248   21.0376 C   0  0  0  0  0  0  0  0  0  0  0  0
   47.7655    5.1313   17.8891 C   0  0  0  0  0  0  0  0  0  0  0  0
   48.6944    6.4267   16.1460 C   0  0  0  0  0  0  0  0  0  0  0  0
   48.9499   10.8146   19.7675 C   0  0  0  0  0  0  0  0  0  0  0  0
   48.1917    5.2282   16.5881 C   0  0  0  0  0  0  0  0  0  0  0  0
   47.7623    5.4885   22.7611 C   0  0  0  0  0  0  0  0  0  0  0  0
   48.0064    9.2073   16.4765 O   0  0  0  0  0  0  0  0  0  0  0  0
   48.9701    7.4490   14.6672 O   0  0  0  0  0  0  0  0  0  0  0  0
   48.9291    6.7950   22.2752 N   0  0  0  0  0  0  0  0  0  0  0  0
   48.0837    6.7304   21.0911 C   0  0  1  0  0  0  0  0  0  0  0  0
   47.7121    8.0444   20.5869 C   0  0  0  0  0  0  0  0  0  0  0  0
   47.7712    8.5127   19.3033 C   0  0  0  0  0  0  0  0  0  0  0  0
   48.2999    7.6027   18.2941 C   0  0  0  0  0  0  0  0  0  0  0  0
   48.6917    6.3655   18.7183 C   0  0  0  0  0  0  0  0  0  0  0  0
   47.2133    8.9423   21.5534 C   0  0  0  0  0  0  0  0  0  0  0  0
   48.6770    5.8349   20.0780 C   0  0  0  0  0  0  0  0  0  0  0  0
   48.3833    7.9760   16.9738 C   0  0  0  0  0  0  0  0  0  0  0  0
   47.3646    9.7882   18.9821 C   0  0  0  0  0  0  0  0  0  0  0  0
   47.1649    8.3901   22.9516 C   0  0  0  0  0  0  0  0  0  0  0  0
   48.5352    7.8145   23.1976 C   0  0  0  0  0  0  0  0  0  0  0  0
   46.8076   10.2107   21.2434 C   0  0  0  0  0  0  0  0  0  0  0  0
   49.1811    5.5006   17.7345 C   0  0  0  0  0  0  0  0  0  0  0  0
   48.8792    7.0875   16.0063 C   0  0  0  0  0  0  0  0  0  0  0  0
   46.8691   10.6737   19.9540 C   0  0  0  0  0  0  0  0  0  0  0  0
   49.2771    5.8406   16.4117 C   0  0  0  0  0  0  0  0  0  0  0  0
   48.9347    5.4560   22.8431 C   0  0  0  0  0  0  0  0  0  0  0  0
   48.1622    7.3421   20.7634 H   0  0  0  0  0  0  0  0  0  0  0  0
   48.2500    7.3124   19.1094 H   0  0  0  0  0  0  0  0  0  0  0  0
   48.1256    7.5193   20.6201 H   0  0  0  0  0  0  0  0  0  0  0  0
   48.1259    7.5192   20.6141 H   0  0  0  0  0  0  0  0  0  0  0  0
   50.2723    8.6001   16.1898 H   0  0  0  0  0  0  0  0  0  0  0  0
   50.0892    6.8419   14.6621 H   0  0  0  0  0  0  0  0  0  0  0  0
   46.1742    7.2955   21.2424 H   0  0  0  0  0  0  0  0  0  0  0  0
   46.3813    5.3769   20.1046 H   0  0  0  0  0  0  0  0  0  0  0  0
   48.0949    5.2101   20.6095 H   0  0  0  0  0  0  0  0  0  0  0  0
   49.2790    9.9650   17.8993 H   0  0  0  0  0  0  0  0  0  0  0  0
   46.3294    8.8388   22.7055 H   0  0  0  0  0  0  0  0  0  0  0  0
   47.5665    9.9392   23.4612 H   0  0  0  0  0  0  0  0  0  0  0  0
   47.8323    7.5329   24.2329 H   0  0  0  0  0  0  0  0  0  0  0  0
   49.2191    8.0470   23.2302 H   0  0  0  0  0  0  0  0  0  0  0  0
   48.5112   11.4298   21.7414 H   0  0  0  0  0  0  0  0  0  0  0  0
   47.3729    4.1665   18.2055 H   0  0  0  0  0  0  0  0  0  0  0  0
   49.3592   11.7694   19.4812 H   0  0  0  0  0  0  0  0  0  0  0  0
   48.1569    4.4159   15.8843 H   0  0  0  0  0  0  0  0  0  0  0  0
   48.7028    4.9462   22.6247 H   0  0  0  0  0  0  0  0  0  0  0  0
   46.9017    4.9919   22.2640 H   0  0  0  0  0  0  0  0  0  0  0  0
   47.4943    5.5412   23.8569 H   0  0  0  0  0  0  0  0  0  0  0  0
   47.4867    9.3536   15.6436 H   0  0  0  0  0  0  0  0  0  0  0  0
   48.1708    7.1454   14.1018 H   0  0  0  0  0  0  0  0  0  0  0  0
   47.1359    6.2180   21.4989 H   0  0  0  0  0  0  0  0  0  0  0  0
   49.7395    5.5732   20.4000 H   0  0  0  0  0  0  0  0  0  0  0  0
   48.1950    4.8077   20.0815 H   0  0  0  0  0  0  0  0  0  0  0  0
   47.3881   10.2101   17.9956 H   0  0  0  0  0  0  0  0  0  0  0  0
   46.4262    7.5682   23.0273 H   0  0  0  0  0  0  0  0  0  0  0  0
   46.9725    9.1632   23.6915 H   0  0  0  0  0  0  0  0  0  0  0  0
   49.2780    8.6309   23.1528 H   0  0  0  0  0  0  0  0  0  0  0  0
   48.5521    7.4116   24.2313 H   0  0  0  0  0  0  0  0  0  0  0  0
   46.4366   10.8574   22.0053 H   0  0  0  0  0  0  0  0  0  0  0  0
   49.5124    4.4959   17.9991 H   0  0  0  0  0  0  0  0  0  0  0  0
   46.5513   11.6649   19.7143 H   0  0  0  0  0  0  0  0  0  0  0  0
   49.6565    5.1671   15.6568 H   0  0  0  0  0  0  0  0  0  0  0  0
   49.7506    4.8423   22.3770 H   0  0  0  0  0  0  0  0  0  0  0  0
   49.0125    5.4777   23.9474 H   0  0  0  0  0  0  0  0  0  0  0  0
   47.9854    4.9435   22.5808 H   0  0  0  0  0  0  0  0  0  0  0  0
  4 14  1  0
  5 20  1  0
  6  7  1  0
  6 17  1  0
  6 23  1  0
  7  8  1  0
  7 13  1  0
  8  9  1  0
  8 12  2  0
  9 10  1  0
  9 15  2  0
 10 11  2  0
 10 14  1  0
 11 13  1  0
 11 19  1  0
 12 16  1  0
 12 18  1  0
 14 20  2  0
 15 21  1  0
 16 17  1  0
 18 21  2  0
 19 22  2  0
 20 22  1  0
 24 34  1  0
 25 40  1  0
 26 27  1  0
 26 37  1  0
 26 43  1  0
 27 28  1  0
 27 33  1  0
 28 29  1  0
 28 32  2  0
 29 30  1  0
 29 35  2  0
 30 31  2  0
 30 34  1  0
 31 33  1  0
 31 39  1  0
 32 36  1  0
 32 38  1  0
 34 40  2  0
 35 41  1  0
 36 37  1  0
 38 41  2  0
 39 42  2  0
 40 42  1  0
  1 44  1  0
  1 45  1  0
  2 46  1  0
  3 47  1  0
  4 48  1  0
  5 49  1  0
  7 50  1  6
 13 51  1  0
 13 52  1  0
 15 53  1  0
 16 54  1  0
 16 55  1  0
 17 56  1  0
 17 57  1  0
 18 58  1  0
 19 59  1  0
 21 60  1  0
 22 61  1  0
 23 62  1  0
 23 63  1  0
 23 64  1  0
 24 65  1  0
 25 66  1  0
 27 67  1  6
 33 68  1  0
 33 69  1  0
 35 70  1  0
 36 71  1  0
 36 72  1  0
 37 73  1  0
 37 74  1  0
 38 75  1  0
 39 76  1  0
 41 77  1  0
 42 78  1  0
 43 79  1  0
 43 80  1  0
 43 81  1  0
M  END
> <Uni-Dock RESULT> 
ENERGY=   -6.314  LOWER_BOUND=    4.341  UPPER_BOUND=    6.736
INTER + INTRA:          -6.314
INTER:                  -6.314
INTRA:                   0.000
UNBOUND:                 0.000

$$$$

     RDKit          3D

 81 84  0  0  0  0  0  0  0  0999 V2000
   48.2403    8.7255   19.5202 O   0  0  0  0  0  0  0  0  0  0  0  0
   48.1936    8.1448   20.0439 Cl  0  0  0  0  0  0  0  0  0  0  0  0
   48.1944    8.1468   20.0383 Cl  0  0  0  0  0  0  0  0  0  0  0  0
   46.5271    8.0254   22.7709 O   0  0  0  0  0  0  0  0  0  0  0  0
   47.2648    5.6436   23.8114 O   0  0  0  0  0  0  0  0  0  0  0  0
   49.0193    8.5765   17.0341 N   0  0  0  0  0  0  0  0  0  0  0  0
   49.3545    8.6300   18.4124 C   0  0  1  0  0  0  0  0  0  0  0  0
   48.3024    9.3761   19.1308 C   0  0  0  0  0  0  0  0  0  0  0  0
   47.6855    9.0148   20.2818 C   0  0  0  0  0  0  0  0  0  0  0  0
   48.0279    7.7302   20.8680 C   0  0  0  0  0  0  0  0  0  0  0  0
   48.9465    6.9628   20.2206 C   0  0  0  0  0  0  0  0  0  0  0  0
   47.9449   10.6035   18.5459 C   0  0  0  0  0  0  0  0  0  0  0  0
   49.6069    7.2752   18.9386 C   0  0  0  0  0  0  0  0  0  0  0  0
   47.4637    7.3145   22.0485 C   0  0  0  0  0  0  0  0  0  0  0  0
   46.7407    9.8401   20.8470 C   0  0  0  0  0  0  0  0  0  0  0  0
   48.6723   10.9165   17.2750 C   0  0  0  0  0  0  0  0  0  0  0  0
   48.5053    9.6964   16.3933 C   0  0  0  0  0  0  0  0  0  0  0  0
   47.0065   11.4310   19.0996 C   0  0  0  0  0  0  0  0  0  0  0  0
   49.3008    5.7345   20.7963 C   0  0  0  0  0  0  0  0  0  0  0  0
   47.8288    6.0832   22.6104 C   0  0  0  0  0  0  0  0  0  0  0  0
   46.3834   11.0670   20.2638 C   0  0  0  0  0  0  0  0  0  0  0  0
   48.7542    5.2928   21.9752 C   0  0  0  0  0  0  0  0  0  0  0  0
   49.6105    7.5483   16.2710 C   0  0  0  0  0  0  0  0  0  0  0  0
   47.5322    8.9013   23.1437 O   0  0  0  0  0  0  0  0  0  0  0  0
   47.0847    6.4672   24.2249 O   0  0  0  0  0  0  0  0  0  0  0  0
   48.0239    8.2186   16.8519 N   0  0  0  0  0  0  0  0  0  0  0  0
   48.7305    8.0577   18.1151 C   0  0  1  0  0  0  0  0  0  0  0  0
   48.5754    9.2015   19.0018 C   0  0  0  0  0  0  0  0  0  0  0  0
   48.2436    9.2126   20.3285 C   0  0  0  0  0  0  0  0  0  0  0  0
   47.9776    7.9213   20.9515 C   0  0  0  0  0  0  0  0  0  0  0  0
   48.0802    6.8160   20.1567 C   0  0  0  0  0  0  0  0  0  0  0  0
   48.8139   10.4596   18.4106 C   0  0  0  0  0  0  0  0  0  0  0  0
   48.3989    6.7584   18.7335 C   0  0  0  0  0  0  0  0  0  0  0  0
   47.6531    7.8282   22.2840 C   0  0  0  0  0  0  0  0  0  0  0  0
   48.1507   10.3886   21.0383 C   0  0  0  0  0  0  0  0  0  0  0  0
   49.1750   10.4047   16.9515 C   0  0  0  0  0  0  0  0  0  0  0  0
   48.1183    9.5406   16.3143 C   0  0  0  0  0  0  0  0  0  0  0  0
   48.7236   11.6323   19.1078 C   0  0  0  0  0  0  0  0  0  0  0  0
   47.8374    5.5853   20.7746 C   0  0  0  0  0  0  0  0  0  0  0  0
   47.4139    6.5791   22.8791 C   0  0  0  0  0  0  0  0  0  0  0  0
   48.3909   11.6361   20.4382 C   0  0  0  0  0  0  0  0  0  0  0  0
   47.5124    5.4573   22.0984 C   0  0  0  0  0  0  0  0  0  0  0  0
   48.5350    7.1840   15.9665 C   0  0  0  0  0  0  0  0  0  0  0  0
   48.4154    8.4845   18.5691 H   0  0  0  0  0  0  0  0  0  0  0  0
   48.1974    7.9246   20.1129 H   0  0  0  0  0  0  0  0  0  0  0  0
   48.3752    8.6116   18.7576 H   0  0  0  0  0  0  0  0  0  0  0  0
   48.3744    8.6096   18.7632 H   0  0  0  0  0  0  0  0  0  0  0  0
   45.6035    7.5705   22.8365 H   0  0  0  0  0  0  0  0  0  0  0  0
   46.2511    5.5749   23.8644 H   0  0  0  0  0  0  0  0  0  0  0  0
   50.3294    9.1996   18.4734 H   0  0  0  0  0  0  0  0  0  0  0  0
   50.7033    7.0588   19.0175 H   0  0  0  0  0  0  0  0  0  0  0  0
   49.2067    6.5368   18.1766 H   0  0  0  0  0  0  0  0  0  0  0  0
   46.2067    9.6287   21.7538 H   0  0  0  0  0  0  0  0  0  0  0  0
   49.7768   10.9903   17.4564 H   0  0  0  0  0  0  0  0  0  0  0  0
   48.3061   11.8333   16.7940 H   0  0  0  0  0  0  0  0  0  0  0  0
   48.9639    9.8195   15.3912 H   0  0  0  0  0  0  0  0  0  0  0  0
   47.4020    9.5500   16.2161 H   0  0  0  0  0  0  0  0  0  0  0  0
   46.7534   12.3601   18.6335 H   0  0  0  0  0  0  0  0  0  0  0  0
   50.0311    5.0824   20.3201 H   0  0  0  0  0  0  0  0  0  0  0  0
   45.6437   11.7141   20.7057 H   0  0  0  0  0  0  0  0  0  0  0  0
   49.0072    4.3561   22.4388 H   0  0  0  0  0  0  0  0  0  0  0  0
   48.9096    6.7291   16.0850 H   0  0  0  0  0  0  0  0  0  0  0  0
   50.5426    7.2129   16.7742 H   0  0  0  0  0  0  0  0  0  0  0  0
   49.9393    8.0134   15.2958 H   0  0  0  0  0  0  0  0  0  0  0  0
   47.8926    8.9379   24.0679 H   0  0  0  0  0  0  0  0  0  0  0  0
   47.8864    6.2661   24.8312 H   0  0  0  0  0  0  0  0  0  0  0  0
   49.8296    8.0117   17.7726 H   0  0  0  0  0  0  0  0  0  0  0  0
   47.5269    6.2949   18.1627 H   0  0  0  0  0  0  0  0  0  0  0  0
   49.2066    5.9818   18.5545 H   0  0  0  0  0  0  0  0  0  0  0  0
   47.8946   10.4597   22.0780 H   0  0  0  0  0  0  0  0  0  0  0  0
   50.1572    9.9141   16.8050 H   0  0  0  0  0  0  0  0  0  0  0  0
   49.1509   11.3869   16.4858 H   0  0  0  0  0  0  0  0  0  0  0  0
   47.1369   10.0344   16.4294 H   0  0  0  0  0  0  0  0  0  0  0  0
   48.3342    9.4886   15.2273 H   0  0  0  0  0  0  0  0  0  0  0  0
   48.9121   12.5622   18.6217 H   0  0  0  0  0  0  0  0  0  0  0  0
   47.9014    4.6591   20.2024 H   0  0  0  0  0  0  0  0  0  0  0  0
   48.3212   12.5536   20.9808 H   0  0  0  0  0  0  0  0  0  0  0  0
   47.3260    4.5029   22.5693 H   0  0  0  0  0  0  0  0  0  0  0  0
   47.9459    6.2378   16.0977 H   0  0  0  0  0  0  0  0  0  0  0  0
   48.5526    7.5176   14.9108 H   0  0  0  0  0  0  0  0  0  0  0  0
   49.5762    6.9334   16.2595 H   0  0  0  0  0  0  0  0  0  0  0  0
  4 14  1  0
  5 20  1  0
  6  7  1  0
  6 17  1  0
  6 23  1  0
  7  8  1  0
  7 13  1  0
  8  9  1  0
  8 12  2  0
  9 10  1  0
  9 15  2  0
 10 11  2  0
 10 14  1  0
 11 13  1  0
 11 19  1  0
 12 16  1  0
 12 18  1  0
 14 20  2  0
 15 21  1  0
 16 17  1  0
 18 21  2  0
 19 22  2  0
 20 22  1  0
 24 34  1  0
 25 40  1  0
 26 27  1  0
 26 37  1  0
 26 43  1  0
 27 28  1  0
 27 33  1  0
 28 29  1  0
 28 32  2  0
 29 30  1  0
 29 35  2  0
 30 31  2  0
 30 34  1  0
 31 33  1  0
 31 39  1  0
 32 36  1  0
 32 38  1  0
 34 40  2  0
 35 41  1  0
 36 37  1  0
 38 41  2  0
 39 42  2  0
 40 42  1  0
  1 44  1  0
  1 45  1  0
  2 46  1  0
  3 47  1  0
  4 48  1  0
  5 49  1  0
  7 50  1  6
 13 51  1  0
 13 52  1  0
 15 53  1  0
 16 54  1  0
 16 55  1  0
 17 56  1  0
 17 57  1  0
 18 58  1  0
 19 59  1  0
 21 60  1  0
 22 61  1  0
 23 62  1  0
 23 63  1  0
 23 64  1  0
 24 65  1  0
 25 66  1  0
 27 67  1  6
 33 68  1  0
 33 69  1  0
 35 70  1  0
 36 71  1  0
 36 72  1  0
 37 73  1  0
 37 74  1  0
 38 75  1  0
 39 76  1  0
 41 77  1  0
 42 78  1  0
 43 79  1  0
 43 80  1  0
 43 81  1  0
M  END
> <Uni-Dock RESULT> 
ENERGY=   -6.246  LOWER_BOUND=    4.343  UPPER_BOUND=    5.934
INTER + INTRA:          -6.246
INTER:                  -6.246
INTRA:                   0.000
UNBOUND:                 0.000

$$$$
