
     RDKit          3D

 81 84  0  0  0  0  0  0  0  0999 V2000
   46.1127    8.0852   12.2889 O   0  0  0  0  0  0  0  0  0  0  0  0
   45.8036    7.3552   12.2557 Cl  0  0  0  0  0  0  0  0  0  0  0  0
   45.8057    7.3569   12.2562 Cl  0  0  0  0  0  0  0  0  0  0  0  0
   42.7169    6.8481   11.4515 O   0  0  0  0  0  0  0  0  0  0  0  0
   42.3427    4.2578   12.1256 O   0  0  0  0  0  0  0  0  0  0  0  0
   48.7932    8.3219   12.5340 N   0  0  0  0  0  0  0  0  0  0  0  0
   47.5111    8.0968   13.1366 C   0  0  1  0  0  0  0  0  0  0  0  0
   46.4393    8.7598   12.4028 C   0  0  0  0  0  0  0  0  0  0  0  0
   45.2259    8.2238   12.0517 C   0  0  0  0  0  0  0  0  0  0  0  0
   44.9789    6.8268   12.3636 C   0  0  0  0  0  0  0  0  0  0  0  0
   45.9655    6.1196   12.9827 C   0  0  0  0  0  0  0  0  0  0  0  0
   46.6726   10.0994   12.0529 C   0  0  0  0  0  0  0  0  0  0  0  0
   47.3071    6.6344   13.3232 C   0  0  0  0  0  0  0  0  0  0  0  0
   43.7758    6.2281   12.0725 C   0  0  0  0  0  0  0  0  0  0  0  0
   44.2915    8.9831   11.3882 C   0  0  0  0  0  0  0  0  0  0  0  0
   47.9893   10.6530   12.4306 C   0  0  0  0  0  0  0  0  0  0  0  0
   49.1136    9.6800   12.2647 C   0  0  0  0  0  0  0  0  0  0  0  0
   45.7470   10.8618   11.3918 C   0  0  0  0  0  0  0  0  0  0  0  0
   45.7266    4.7858   13.3123 C   0  0  0  0  0  0  0  0  0  0  0  0
   43.5596    4.8849   12.4133 C   0  0  0  0  0  0  0  0  0  0  0  0
   44.5359   10.3246   11.0439 C   0  0  0  0  0  0  0  0  0  0  0  0
   44.5517    4.1711   13.0379 C   0  0  0  0  0  0  0  0  0  0  0  0
   49.8299    7.5940   13.2216 C   0  0  0  0  0  0  0  0  0  0  0  0
   43.0955    6.7349   11.0238 O   0  0  0  0  0  0  0  0  0  0  0  0
   42.8778    4.0615   11.2976 O   0  0  0  0  0  0  0  0  0  0  0  0
   48.7743    8.4400   12.9118 N   0  0  0  0  0  0  0  0  0  0  0  0
   47.5141    8.0428   13.4600 C   0  0  1  0  0  0  0  0  0  0  0  0
   46.4549    8.7654   12.7129 C   0  0  0  0  0  0  0  0  0  0  0  0
   45.3613    8.1868   12.1492 C   0  0  0  0  0  0  0  0  0  0  0  0
   45.1950    6.7520   12.2637 C   0  0  0  0  0  0  0  0  0  0  0  0
   46.1425    6.0115   12.9360 C   0  0  0  0  0  0  0  0  0  0  0  0
   46.6391   10.1488   12.6111 C   0  0  0  0  0  0  0  0  0  0  0  0
   47.3530    6.5837   13.5630 C   0  0  0  0  0  0  0  0  0  0  0  0
   44.1095    6.1224   11.7161 C   0  0  0  0  0  0  0  0  0  0  0  0
   44.4530    8.9750   11.4872 C   0  0  0  0  0  0  0  0  0  0  0  0
   47.8569   10.6980   13.2513 C   0  0  0  0  0  0  0  0  0  0  0  0
   49.0668    9.8323   13.0495 C   0  0  0  0  0  0  0  0  0  0  0  0
   45.7249   10.9257   11.9473 C   0  0  0  0  0  0  0  0  0  0  0  0
   45.9979    4.6259   13.0591 C   0  0  0  0  0  0  0  0  0  0  0  0
   43.9856    4.7320   11.8522 C   0  0  0  0  0  0  0  0  0  0  0  0
   44.6148   10.3652   11.3712 C   0  0  0  0  0  0  0  0  0  0  0  0
   44.9089    3.9907   12.5104 C   0  0  0  0  0  0  0  0  0  0  0  0
   49.0531    7.8867   11.6157 C   0  0  0  0  0  0  0  0  0  0  0  0
   47.0631    8.1311   12.5346 H   0  0  0  0  0  0  0  0  0  0  0  0
   45.8194    7.1314   12.2745 H   0  0  0  0  0  0  0  0  0  0  0  0
   46.8599    8.2100   12.4763 H   0  0  0  0  0  0  0  0  0  0  0  0
   46.8577    8.2082   12.4758 H   0  0  0  0  0  0  0  0  0  0  0  0
   41.7626    6.8290   11.7661 H   0  0  0  0  0  0  0  0  0  0  0  0
   41.6043    4.7394   11.6535 H   0  0  0  0  0  0  0  0  0  0  0  0
   47.5151    8.5873   14.1661 H   0  0  0  0  0  0  0  0  0  0  0  0
   48.0925    6.0654   12.7516 H   0  0  0  0  0  0  0  0  0  0  0  0
   47.4912    6.3933   14.4119 H   0  0  0  0  0  0  0  0  0  0  0  0
   43.3226    8.6378   11.0791 H   0  0  0  0  0  0  0  0  0  0  0  0
   47.9210   11.0303   13.4709 H   0  0  0  0  0  0  0  0  0  0  0  0
   48.1741   11.5379   11.7865 H   0  0  0  0  0  0  0  0  0  0  0  0
   49.9267    9.9885   12.9533 H   0  0  0  0  0  0  0  0  0  0  0  0
   49.5330    9.7417   11.2404 H   0  0  0  0  0  0  0  0  0  0  0  0
   45.9239   11.8933   11.1216 H   0  0  0  0  0  0  0  0  0  0  0  0
   46.4989    4.1927   13.8103 H   0  0  0  0  0  0  0  0  0  0  0  0
   43.8107   10.9223   10.5264 H   0  0  0  0  0  0  0  0  0  0  0  0
   44.3424    3.1422   13.2820 H   0  0  0  0  0  0  0  0  0  0  0  0
   50.7740    8.1982   13.2392 H   0  0  0  0  0  0  0  0  0  0  0  0
   49.5282    7.2624   14.2467 H   0  0  0  0  0  0  0  0  0  0  0  0
   50.0364    6.6740   12.6365 H   0  0  0  0  0  0  0  0  0  0  0  0
   42.1108    6.5989   11.2181 H   0  0  0  0  0  0  0  0  0  0  0  0
   42.6252    4.3461   10.3528 H   0  0  0  0  0  0  0  0  0  0  0  0
   47.4869    8.4777   14.5029 H   0  0  0  0  0  0  0  0  0  0  0  0
   47.3241    6.2359   14.6323 H   0  0  0  0  0  0  0  0  0  0  0  0
   48.2162    6.0008   13.1326 H   0  0  0  0  0  0  0  0  0  0  0  0
   43.5638    8.6065   11.0133 H   0  0  0  0  0  0  0  0  0  0  0  0
   48.0260   11.7088   12.8071 H   0  0  0  0  0  0  0  0  0  0  0  0
   47.6177   10.8703   14.3242 H   0  0  0  0  0  0  0  0  0  0  0  0
   49.6562   10.1771   12.1811 H   0  0  0  0  0  0  0  0  0  0  0  0
   49.7112    9.9555   13.9579 H   0  0  0  0  0  0  0  0  0  0  0  0
   45.8588   11.9837   11.8653 H   0  0  0  0  0  0  0  0  0  0  0  0
   46.7318    4.0326   13.5828 H   0  0  0  0  0  0  0  0  0  0  0  0
   43.9070   10.9837   10.8547 H   0  0  0  0  0  0  0  0  0  0  0  0
   44.7744    2.9289   12.5908 H   0  0  0  0  0  0  0  0  0  0  0  0
   48.1686    7.4663   11.0927 H   0  0  0  0  0  0  0  0  0  0  0  0
   49.5023    8.6150   10.8961 H   0  0  0  0  0  0  0  0  0  0  0  0
   49.8149    7.0860   11.7480 H   0  0  0  0  0  0  0  0  0  0  0  0
  4 14  1  0
  5 20  1  0
  6  7  1  0
  6 17  1  0
  6 23  1  0
  7  8  1  0
  7 13  1  0
  8  9  1  0
  8 12  2  0
  9 10  1  0
  9 15  2  0
 10 11  2  0
 10 14  1  0
 11 13  1  0
 11 19  1  0
 12 16  1  0
 12 18  1  0
 14 20  2  0
 15 21  1  0
 16 17  1  0
 18 21  2  0
 19 22  2  0
 20 22  1  0
 24 34  1  0
 25 40  1  0
 26 27  1  0
 26 37  1  0
 26 43  1  0
 27 28  1  0
 27 33  1  0
 28 29  1  0
 28 32  2  0
 29 30  1  0
 29 35  2  0
 30 31  2  0
 30 34  1  0
 31 33  1  0
 31 39  1  0
 32 36  1  0
 32 38  1  0
 34 40  2  0
 35 41  1  0
 36 37  1  0
 38 41  2  0
 39 42  2  0
 40 42  1  0
  1 44  1  0
  1 45  1  0
  2 46  1  0
  3 47  1  0
  4 48  1  0
  5 49  1  0
  7 50  1  6
 13 51  1  0
 13 52  1  0
 15 53  1  0
 16 54  1  0
 16 55  1  0
 17 56  1  0
 17 57  1  0
 18 58  1  0
 19 59  1  0
 21 60  1  0
 22 61  1  0
 23 62  1  0
 23 63  1  0
 23 64  1  0
 24 65  1  0
 25 66  1  0
 27 67  1  6
 33 68  1  0
 33 69  1  0
 35 70  1  0
 36 71  1  0
 36 72  1  0
 37 73  1  0
 37 74  1  0
 38 75  1  0
 39 76  1  0
 41 77  1  0
 42 78  1  0
 43 79  1  0
 43 80  1  0
 43 81  1  0
M  END
> <Uni-Dock RESULT> 
ENERGY=   -8.947  LOWER_BOUND=    0.000  UPPER_BOUND=    0.000
INTER + INTRA:          -8.947
INTER:                  -8.947
INTRA:                   0.000
UNBOUND:                 0.000

$$$$

     RDKit          3D

 81 84  0  0  0  0  0  0  0  0999 V2000
   46.1130    8.0863   12.2887 O   0  0  0  0  0  0  0  0  0  0  0  0
   45.8037    7.3563   12.2555 Cl  0  0  0  0  0  0  0  0  0  0  0  0
   45.8059    7.3580   12.2560 Cl  0  0  0  0  0  0  0  0  0  0  0  0
   42.7169    6.8497   11.4516 O   0  0  0  0  0  0  0  0  0  0  0  0
   42.3423    4.2594   12.1256 O   0  0  0  0  0  0  0  0  0  0  0  0
   48.7935    8.3225   12.5336 N   0  0  0  0  0  0  0  0  0  0  0  0
   47.5114    8.0975   13.1363 C   0  0  1  0  0  0  0  0  0  0  0  0
   46.4397    8.7608   12.4026 C   0  0  0  0  0  0  0  0  0  0  0  0
   45.2262    8.2250   12.0516 C   0  0  0  0  0  0  0  0  0  0  0  0
   44.9790    6.8280   12.3635 C   0  0  0  0  0  0  0  0  0  0  0  0
   45.9655    6.1207   12.9824 C   0  0  0  0  0  0  0  0  0  0  0  0
   46.6732   10.1003   12.0528 C   0  0  0  0  0  0  0  0  0  0  0  0
   47.3072    6.6351   13.3229 C   0  0  0  0  0  0  0  0  0  0  0  0
   43.7758    6.2296   12.0724 C   0  0  0  0  0  0  0  0  0  0  0  0
   44.2919    8.9845   11.3883 C   0  0  0  0  0  0  0  0  0  0  0  0
   47.9900   10.6537   12.4303 C   0  0  0  0  0  0  0  0  0  0  0  0
   49.1141    9.6805   12.2643 C   0  0  0  0  0  0  0  0  0  0  0  0
   45.7476   10.8629   11.3918 C   0  0  0  0  0  0  0  0  0  0  0  0
   45.7264    4.7869   13.3119 C   0  0  0  0  0  0  0  0  0  0  0  0
   43.5593    4.8863   12.4132 C   0  0  0  0  0  0  0  0  0  0  0  0
   44.5364   10.3259   11.0439 C   0  0  0  0  0  0  0  0  0  0  0  0
   44.5514    4.1723   13.0377 C   0  0  0  0  0  0  0  0  0  0  0  0
   49.8302    7.5944   13.2210 C   0  0  0  0  0  0  0  0  0  0  0  0
   43.0954    6.7365   11.0238 O   0  0  0  0  0  0  0  0  0  0  0  0
   42.8773    4.0631   11.2975 O   0  0  0  0  0  0  0  0  0  0  0  0
   48.7747    8.4406   12.9114 N   0  0  0  0  0  0  0  0  0  0  0  0
   47.5144    8.0436   13.4597 C   0  0  1  0  0  0  0  0  0  0  0  0
   46.4553    8.7663   12.7127 C   0  0  0  0  0  0  0  0  0  0  0  0
   45.3615    8.1879   12.1491 C   0  0  0  0  0  0  0  0  0  0  0  0
   45.1951    6.7532   12.2635 C   0  0  0  0  0  0  0  0  0  0  0  0
   46.1425    6.0124   12.9357 C   0  0  0  0  0  0  0  0  0  0  0  0
   46.6398   10.1497   12.6109 C   0  0  0  0  0  0  0  0  0  0  0  0
   47.3531    6.5845   13.5626 C   0  0  0  0  0  0  0  0  0  0  0  0
   44.1094    6.1238   11.7161 C   0  0  0  0  0  0  0  0  0  0  0  0
   44.4533    8.9763   11.4872 C   0  0  0  0  0  0  0  0  0  0  0  0
   47.8577   10.6987   13.2511 C   0  0  0  0  0  0  0  0  0  0  0  0
   49.0674    9.8328   13.0491 C   0  0  0  0  0  0  0  0  0  0  0  0
   45.7256   10.9268   11.9473 C   0  0  0  0  0  0  0  0  0  0  0  0
   45.9977    4.6269   13.0588 C   0  0  0  0  0  0  0  0  0  0  0  0
   43.9853    4.7334   11.8521 C   0  0  0  0  0  0  0  0  0  0  0  0
   44.6153   10.3665   11.3713 C   0  0  0  0  0  0  0  0  0  0  0  0
   44.9086    3.9919   12.5101 C   0  0  0  0  0  0  0  0  0  0  0  0
   49.0533    7.8873   11.6152 C   0  0  0  0  0  0  0  0  0  0  0  0
   47.0634    8.1319   12.5343 H   0  0  0  0  0  0  0  0  0  0  0  0
   45.8195    7.1325   12.2743 H   0  0  0  0  0  0  0  0  0  0  0  0
   46.8602    8.2109   12.4760 H   0  0  0  0  0  0  0  0  0  0  0  0
   46.8580    8.2091   12.4756 H   0  0  0  0  0  0  0  0  0  0  0  0
   41.7626    6.8308   11.7663 H   0  0  0  0  0  0  0  0  0  0  0  0
   41.6040    4.7412   11.6536 H   0  0  0  0  0  0  0  0  0  0  0  0
   47.5156    8.5880   14.1658 H   0  0  0  0  0  0  0  0  0  0  0  0
   48.0925    6.0660   12.7512 H   0  0  0  0  0  0  0  0  0  0  0  0
   47.4914    6.3940   14.4115 H   0  0  0  0  0  0  0  0  0  0  0  0
   43.3228    8.6394   11.0792 H   0  0  0  0  0  0  0  0  0  0  0  0
   47.9219   11.0310   13.4707 H   0  0  0  0  0  0  0  0  0  0  0  0
   48.1748   11.5386   11.7863 H   0  0  0  0  0  0  0  0  0  0  0  0
   49.9273    9.9889   12.9529 H   0  0  0  0  0  0  0  0  0  0  0  0
   49.5334    9.7422   11.2399 H   0  0  0  0  0  0  0  0  0  0  0  0
   45.9247   11.8944   11.1216 H   0  0  0  0  0  0  0  0  0  0  0  0
   46.4986    4.1936   13.8099 H   0  0  0  0  0  0  0  0  0  0  0  0
   43.8113   10.9238   10.5266 H   0  0  0  0  0  0  0  0  0  0  0  0
   44.3420    3.1435   13.2817 H   0  0  0  0  0  0  0  0  0  0  0  0
   50.7744    8.1984   13.2385 H   0  0  0  0  0  0  0  0  0  0  0  0
   49.5285    7.2627   14.2462 H   0  0  0  0  0  0  0  0  0  0  0  0
   50.0364    6.6744   12.6358 H   0  0  0  0  0  0  0  0  0  0  0  0
   42.1107    6.6007   11.2182 H   0  0  0  0  0  0  0  0  0  0  0  0
   42.6246    4.3478   10.3527 H   0  0  0  0  0  0  0  0  0  0  0  0
   47.4875    8.4784   14.5026 H   0  0  0  0  0  0  0  0  0  0  0  0
   47.3243    6.2366   14.6319 H   0  0  0  0  0  0  0  0  0  0  0  0
   48.2162    6.0014   13.1321 H   0  0  0  0  0  0  0  0  0  0  0  0
   43.5640    8.6080   11.0134 H   0  0  0  0  0  0  0  0  0  0  0  0
   48.0269   11.7095   12.8069 H   0  0  0  0  0  0  0  0  0  0  0  0
   47.6186   10.8709   14.3240 H   0  0  0  0  0  0  0  0  0  0  0  0
   49.6568   10.1776   12.1806 H   0  0  0  0  0  0  0  0  0  0  0  0
   49.7119    9.9558   13.9575 H   0  0  0  0  0  0  0  0  0  0  0  0
   45.8596   11.9848   11.8653 H   0  0  0  0  0  0  0  0  0  0  0  0
   46.7315    4.0334   13.5824 H   0  0  0  0  0  0  0  0  0  0  0  0
   43.9076   10.9852   10.8549 H   0  0  0  0  0  0  0  0  0  0  0  0
   44.7738    2.9301   12.5905 H   0  0  0  0  0  0  0  0  0  0  0  0
   48.1686    7.4670   11.0922 H   0  0  0  0  0  0  0  0  0  0  0  0
   49.5025    8.6156   10.8956 H   0  0  0  0  0  0  0  0  0  0  0  0
   49.8150    7.0865   11.7474 H   0  0  0  0  0  0  0  0  0  0  0  0
  4 14  1  0
  5 20  1  0
  6  7  1  0
  6 17  1  0
  6 23  1  0
  7  8  1  0
  7 13  1  0
  8  9  1  0
  8 12  2  0
  9 10  1  0
  9 15  2  0
 10 11  2  0
 10 14  1  0
 11 13  1  0
 11 19  1  0
 12 16  1  0
 12 18  1  0
 14 20  2  0
 15 21  1  0
 16 17  1  0
 18 21  2  0
 19 22  2  0
 20 22  1  0
 24 34  1  0
 25 40  1  0
 26 27  1  0
 26 37  1  0
 26 43  1  0
 27 28  1  0
 27 33  1  0
 28 29  1  0
 28 32  2  0
 29 30  1  0
 29 35  2  0
 30 31  2  0
 30 34  1  0
 31 33  1  0
 31 39  1  0
 32 36  1  0
 32 38  1  0
 34 40  2  0
 35 41  1  0
 36 37  1  0
 38 41  2  0
 39 42  2  0
 40 42  1  0
  1 44  1  0
  1 45  1  0
  2 46  1  0
  3 47  1  0
  4 48  1  0
  5 49  1  0
  7 50  1  6
 13 51  1  0
 13 52  1  0
 15 53  1  0
 16 54  1  0
 16 55  1  0
 17 56  1  0
 17 57  1  0
 18 58  1  0
 19 59  1  0
 21 60  1  0
 22 61  1  0
 23 62  1  0
 23 63  1  0
 23 64  1  0
 24 65  1  0
 25 66  1  0
 27 67  1  6
 33 68  1  0
 33 69  1  0
 35 70  1  0
 36 71  1  0
 36 72  1  0
 37 73  1  0
 37 74  1  0
 38 75  1  0
 39 76  1  0
 41 77  1  0
 42 78  1  0
 43 79  1  0
 43 80  1  0
 43 81  1  0
M  END
> <Uni-Dock RESULT> 
ENERGY=   -8.944  LOWER_BOUND=    0.001  UPPER_BOUND=    0.001
INTER + INTRA:          -8.944
INTER:                  -8.944
INTRA:                   0.000
UNBOUND:                 0.000

$$$$

     RDKit          3D

 81 84  0  0  0  0  0  0  0  0999 V2000
   51.7247    3.4211   18.3515 O   0  0  0  0  0  0  0  0  0  0  0  0
   50.9771    3.6546   18.2244 Cl  0  0  0  0  0  0  0  0  0  0  0  0
   50.9796    3.6550   18.2256 Cl  0  0  0  0  0  0  0  0  0  0  0  0
   48.9357    1.9214   16.4187 O   0  0  0  0  0  0  0  0  0  0  0  0
   46.8836    3.6358   16.0263 O   0  0  0  0  0  0  0  0  0  0  0  0
   53.1636    4.7271   20.2290 N   0  0  0  0  0  0  0  0  0  0  0  0
   52.6463    4.6588   18.8929 C   0  0  1  0  0  0  0  0  0  0  0  0
   52.4636    3.2820   18.4482 C   0  0  0  0  0  0  0  0  0  0  0  0
   51.3705    2.7623   17.8017 C   0  0  0  0  0  0  0  0  0  0  0  0
   50.2255    3.6300   17.5877 C   0  0  0  0  0  0  0  0  0  0  0  0
   50.2931    4.9120   18.0443 C   0  0  0  0  0  0  0  0  0  0  0  0
   53.5415    2.4134   18.6826 C   0  0  0  0  0  0  0  0  0  0  0  0
   51.4199    5.4969   18.7986 C   0  0  0  0  0  0  0  0  0  0  0  0
   49.1071    3.1909   16.9192 C   0  0  0  0  0  0  0  0  0  0  0  0
   51.3522    1.4457   17.4066 C   0  0  0  0  0  0  0  0  0  0  0  0
   54.7033    2.9905   19.3897 C   0  0  0  0  0  0  0  0  0  0  0  0
   54.3237    3.9448   20.4775 C   0  0  0  0  0  0  0  0  0  0  0  0
   53.5304    1.1008   18.2923 C   0  0  0  0  0  0  0  0  0  0  0  0
   49.2101    5.7609   17.8177 C   0  0  0  0  0  0  0  0  0  0  0  0
   48.0302    4.0634   16.7040 C   0  0  0  0  0  0  0  0  0  0  0  0
   52.4384    0.5850   17.6458 C   0  0  0  0  0  0  0  0  0  0  0  0
   48.0967    5.3555   17.1623 C   0  0  0  0  0  0  0  0  0  0  0  0
   53.2607    6.0913   20.6839 C   0  0  0  0  0  0  0  0  0  0  0  0
   48.8488    1.8690   16.9922 O   0  0  0  0  0  0  0  0  0  0  0  0
   46.6492    3.4282   16.9814 O   0  0  0  0  0  0  0  0  0  0  0  0
   53.3911    4.9126   19.9629 N   0  0  0  0  0  0  0  0  0  0  0  0
   52.7213    4.9122   18.6988 C   0  0  1  0  0  0  0  0  0  0  0  0
   52.5883    3.4994   18.2648 C   0  0  0  0  0  0  0  0  0  0  0  0
   51.4339    2.9137   17.8491 C   0  0  0  0  0  0  0  0  0  0  0  0
   50.2203    3.7048   17.8257 C   0  0  0  0  0  0  0  0  0  0  0  0
   50.2629    5.0233   18.2231 C   0  0  0  0  0  0  0  0  0  0  0  0
   53.7720    2.7538   18.3004 C   0  0  0  0  0  0  0  0  0  0  0  0
   51.4856    5.7112   18.6896 C   0  0  0  0  0  0  0  0  0  0  0  0
   49.0332    3.1621   17.4123 C   0  0  0  0  0  0  0  0  0  0  0  0
   51.4512    1.5946   17.4695 C   0  0  0  0  0  0  0  0  0  0  0  0
   54.9835    3.4671   18.7672 C   0  0  0  0  0  0  0  0  0  0  0  0
   54.7162    4.3780   19.9303 C   0  0  0  0  0  0  0  0  0  0  0  0
   53.7768    1.4369   17.9188 C   0  0  0  0  0  0  0  0  0  0  0  0
   49.1024    5.8034   18.2048 C   0  0  0  0  0  0  0  0  0  0  0  0
   47.8823    3.9637   17.4025 C   0  0  0  0  0  0  0  0  0  0  0  0
   52.6256    0.8249   17.4959 C   0  0  0  0  0  0  0  0  0  0  0  0
   47.9087    5.2614   17.7902 C   0  0  0  0  0  0  0  0  0  0  0  0
   52.5806    4.4588   21.0588 C   0  0  0  0  0  0  0  0  0  0  0  0
   52.2615    4.0143   18.9222 H   0  0  0  0  0  0  0  0  0  0  0  0
   50.8061    3.7984   18.2523 H   0  0  0  0  0  0  0  0  0  0  0  0
   52.2178    3.8346   18.7929 H   0  0  0  0  0  0  0  0  0  0  0  0
   52.2153    3.8342   18.7918 H   0  0  0  0  0  0  0  0  0  0  0  0
   48.6241    1.6967   15.4900 H   0  0  0  0  0  0  0  0  0  0  0  0
   46.7905    2.6966   15.6958 H   0  0  0  0  0  0  0  0  0  0  0  0
   53.4292    5.0977   18.1895 H   0  0  0  0  0  0  0  0  0  0  0  0
   51.0795    5.7893   19.8311 H   0  0  0  0  0  0  0  0  0  0  0  0
   51.6984    6.4650   18.2864 H   0  0  0  0  0  0  0  0  0  0  0  0
   50.5371    0.9653   16.8982 H   0  0  0  0  0  0  0  0  0  0  0  0
   55.3657    3.4651   18.6378 H   0  0  0  0  0  0  0  0  0  0  0  0
   55.2775    2.1474   19.8272 H   0  0  0  0  0  0  0  0  0  0  0  0
   55.1802    4.6325   20.6324 H   0  0  0  0  0  0  0  0  0  0  0  0
   54.1806    3.4052   21.4353 H   0  0  0  0  0  0  0  0  0  0  0  0
   54.3589    0.4301   18.4712 H   0  0  0  0  0  0  0  0  0  0  0  0
   49.2353    6.7955   18.1716 H   0  0  0  0  0  0  0  0  0  0  0  0
   52.4302   -0.4431   17.3397 H   0  0  0  0  0  0  0  0  0  0  0  0
   47.2469    5.9915   16.9747 H   0  0  0  0  0  0  0  0  0  0  0  0
   54.1722    6.2168   21.3243 H   0  0  0  0  0  0  0  0  0  0  0  0
   53.2321    6.8359   19.8492 H   0  0  0  0  0  0  0  0  0  0  0  0
   52.3764    6.2941   21.3229 H   0  0  0  0  0  0  0  0  0  0  0  0
   48.3838    1.6117   16.1300 H   0  0  0  0  0  0  0  0  0  0  0  0
   46.4298    2.5024   17.3453 H   0  0  0  0  0  0  0  0  0  0  0  0
   53.4498    5.3763   17.9699 H   0  0  0  0  0  0  0  0  0  0  0  0
   51.5772    6.6243   18.0390 H   0  0  0  0  0  0  0  0  0  0  0  0
   51.2187    6.1452   19.6950 H   0  0  0  0  0  0  0  0  0  0  0  0
   50.5911    1.0514   17.1288 H   0  0  0  0  0  0  0  0  0  0  0  0
   55.7280    2.6845   19.0517 H   0  0  0  0  0  0  0  0  0  0  0  0
   55.4151    3.9962   17.8886 H   0  0  0  0  0  0  0  0  0  0  0  0
   54.9369    3.8699   20.8860 H   0  0  0  0  0  0  0  0  0  0  0  0
   55.4276    5.2392   19.8402 H   0  0  0  0  0  0  0  0  0  0  0  0
   54.6774    0.8605   17.9432 H   0  0  0  0  0  0  0  0  0  0  0  0
   49.1202    6.8376   18.5131 H   0  0  0  0  0  0  0  0  0  0  0  0
   52.6424   -0.2059   17.2001 H   0  0  0  0  0  0  0  0  0  0  0  0
   47.0040    5.8384   17.7667 H   0  0  0  0  0  0  0  0  0  0  0  0
   51.6615    3.9128   20.7588 H   0  0  0  0  0  0  0  0  0  0  0  0
   53.1118    3.7752   21.7662 H   0  0  0  0  0  0  0  0  0  0  0  0
   52.2962    5.3516   21.6597 H   0  0  0  0  0  0  0  0  0  0  0  0
  4 14  1  0
  5 20  1  0
  6  7  1  0
  6 17  1  0
  6 23  1  0
  7  8  1  0
  7 13  1  0
  8  9  1  0
  8 12  2  0
  9 10  1  0
  9 15  2  0
 10 11  2  0
 10 14  1  0
 11 13  1  0
 11 19  1  0
 12 16  1  0
 12 18  1  0
 14 20  2  0
 15 21  1  0
 16 17  1  0
 18 21  2  0
 19 22  2  0
 20 22  1  0
 24 34  1  0
 25 40  1  0
 26 27  1  0
 26 37  1  0
 26 43  1  0
 27 28  1  0
 27 33  1  0
 28 29  1  0
 28 32  2  0
 29 30  1  0
 29 35  2  0
 30 31  2  0
 30 34  1  0
 31 33  1  0
 31 39  1  0
 32 36  1  0
 32 38  1  0
 34 40  2  0
 35 41  1  0
 36 37  1  0
 38 41  2  0
 39 42  2  0
 40 42  1  0
  1 44  1  0
  1 45  1  0
  2 46  1  0
  3 47  1  0
  4 48  1  0
  5 49  1  0
  7 50  1  6
 13 51  1  0
 13 52  1  0
 15 53  1  0
 16 54  1  0
 16 55  1  0
 17 56  1  0
 17 57  1  0
 18 58  1  0
 19 59  1  0
 21 60  1  0
 22 61  1  0
 23 62  1  0
 23 63  1  0
 23 64  1  0
 24 65  1  0
 25 66  1  0
 27 67  1  6
 33 68  1  0
 33 69  1  0
 35 70  1  0
 36 71  1  0
 36 72  1  0
 37 73  1  0
 37 74  1  0
 38 75  1  0
 39 76  1  0
 41 77  1  0
 42 78  1  0
 43 79  1  0
 43 80  1  0
 43 81  1  0
M  END
> <Uni-Dock RESULT> 
ENERGY=   -8.311  LOWER_BOUND=    7.339  UPPER_BOUND=    9.576
INTER + INTRA:          -8.311
INTER:                  -8.311
INTRA:                   0.000
UNBOUND:                 0.000

$$$$

     RDKit          3D

 81 84  0  0  0  0  0  0  0  0999 V2000
   46.0457    8.4113   12.5530 O   0  0  0  0  0  0  0  0  0  0  0  0
   45.6302    9.0430   12.3125 Cl  0  0  0  0  0  0  0  0  0  0  0  0
   45.6324    9.0419   12.3138 Cl  0  0  0  0  0  0  0  0  0  0  0  0
   42.8172    8.7384   10.7551 O   0  0  0  0  0  0  0  0  0  0  0  0
   42.3807   11.2356    9.8182 O   0  0  0  0  0  0  0  0  0  0  0  0
   48.1323    8.8205   14.2202 N   0  0  0  0  0  0  0  0  0  0  0  0
   47.5938    8.8159   12.8908 C   0  0  1  0  0  0  0  0  0  0  0  0
   46.5144    7.8464   12.7427 C   0  0  0  0  0  0  0  0  0  0  0  0
   45.3028    8.0482   12.1311 C   0  0  0  0  0  0  0  0  0  0  0  0
   45.0010    9.3787   11.6326 C   0  0  0  0  0  0  0  0  0  0  0  0
   45.9328   10.3583   11.8027 C   0  0  0  0  0  0  0  0  0  0  0  0
   46.7670    6.5639   13.2553 C   0  0  0  0  0  0  0  0  0  0  0  0
   47.2212   10.2051   12.5079 C   0  0  0  0  0  0  0  0  0  0  0  0
   43.8218    9.6503   10.9797 C   0  0  0  0  0  0  0  0  0  0  0  0
   44.3900    7.0250   12.0326 C   0  0  0  0  0  0  0  0  0  0  0  0
   48.0727    6.3717   13.9194 C   0  0  0  0  0  0  0  0  0  0  0  0
   48.5045    7.5493   14.7349 C   0  0  0  0  0  0  0  0  0  0  0  0
   45.8626    5.5400   13.1612 C   0  0  0  0  0  0  0  0  0  0  0  0
   45.6640   11.6316   11.3016 C   0  0  0  0  0  0  0  0  0  0  0  0
   43.5741   10.9392   10.4851 C   0  0  0  0  0  0  0  0  0  0  0  0
   44.6544    5.7438   12.5488 C   0  0  0  0  0  0  0  0  0  0  0  0
   44.5118   11.9271   10.6545 C   0  0  0  0  0  0  0  0  0  0  0  0
   49.1402    9.8394   14.3733 C   0  0  0  0  0  0  0  0  0  0  0  0
   42.7634    8.8848   11.3162 O   0  0  0  0  0  0  0  0  0  0  0  0
   42.1447   11.4518   10.7711 O   0  0  0  0  0  0  0  0  0  0  0  0
   48.4035    8.7455   13.9412 N   0  0  0  0  0  0  0  0  0  0  0  0
   47.8014    8.9060   12.6535 C   0  0  1  0  0  0  0  0  0  0  0  0
   46.7363    7.8803   12.5281 C   0  0  0  0  0  0  0  0  0  0  0  0
   45.4538    8.1260   12.1497 C   0  0  0  0  0  0  0  0  0  0  0  0
   45.0654    9.4887   11.8472 C   0  0  0  0  0  0  0  0  0  0  0  0
   45.9978   10.4978   11.9495 C   0  0  0  0  0  0  0  0  0  0  0  0
   47.1332    6.5728   12.8300 C   0  0  0  0  0  0  0  0  0  0  0  0
   47.4029   10.2921   12.3610 C   0  0  0  0  0  0  0  0  0  0  0  0
   43.7869    9.7874   11.4587 C   0  0  0  0  0  0  0  0  0  0  0  0
   44.5672    7.0810   12.0701 C   0  0  0  0  0  0  0  0  0  0  0  0
   48.5466    6.3926   13.2352 C   0  0  0  0  0  0  0  0  0  0  0  0
   49.0398    7.4817   14.1433 C   0  0  0  0  0  0  0  0  0  0  0  0
   46.2386    5.5371   12.7468 C   0  0  0  0  0  0  0  0  0  0  0  0
   45.6424   11.8188   11.6590 C   0  0  0  0  0  0  0  0  0  0  0  0
   43.4535   11.1194   11.1726 C   0  0  0  0  0  0  0  0  0  0  0  0
   44.9406    5.7602   12.3675 C   0  0  0  0  0  0  0  0  0  0  0  0
   44.3593   12.1221   11.2687 C   0  0  0  0  0  0  0  0  0  0  0  0
   47.5858    9.1947   15.0336 C   0  0  0  0  0  0  0  0  0  0  0  0
   46.8837    8.6115   13.0258 H   0  0  0  0  0  0  0  0  0  0  0  0
   45.5993    9.2652   12.2931 H   0  0  0  0  0  0  0  0  0  0  0  0
   46.7222    8.4822   12.9355 H   0  0  0  0  0  0  0  0  0  0  0  0
   46.7200    8.4834   12.9342 H   0  0  0  0  0  0  0  0  0  0  0  0
   42.3619    8.5760    9.8740 H   0  0  0  0  0  0  0  0  0  0  0  0
   41.6657   10.5476    9.6937 H   0  0  0  0  0  0  0  0  0  0  0  0
   48.4125    8.4611   12.1806 H   0  0  0  0  0  0  0  0  0  0  0  0
   47.2417   10.8681   13.4175 H   0  0  0  0  0  0  0  0  0  0  0  0
   48.0265   10.6054   11.8236 H   0  0  0  0  0  0  0  0  0  0  0  0
   43.4232    7.1028   11.5712 H   0  0  0  0  0  0  0  0  0  0  0  0
   48.8208    6.1111   13.1436 H   0  0  0  0  0  0  0  0  0  0  0  0
   47.9815    5.4839   14.5793 H   0  0  0  0  0  0  0  0  0  0  0  0
   49.6106    7.5152   14.8112 H   0  0  0  0  0  0  0  0  0  0  0  0
   48.1183    7.4670   15.7709 H   0  0  0  0  0  0  0  0  0  0  0  0
   46.0547    4.5517   13.5547 H   0  0  0  0  0  0  0  0  0  0  0  0
   46.3928   12.4382   11.4221 H   0  0  0  0  0  0  0  0  0  0  0  0
   43.9464    4.9413   12.4749 H   0  0  0  0  0  0  0  0  0  0  0  0
   44.2802   12.9024   10.2583 H   0  0  0  0  0  0  0  0  0  0  0  0
   49.9558    9.4720   15.0490 H   0  0  0  0  0  0  0  0  0  0  0  0
   49.5428   10.2095   13.3971 H   0  0  0  0  0  0  0  0  0  0  0  0
   48.6635   10.7086   14.8719 H   0  0  0  0  0  0  0  0  0  0  0  0
   42.1772    8.8146   10.4932 H   0  0  0  0  0  0  0  0  0  0  0  0
   41.3996   11.0103   11.3074 H   0  0  0  0  0  0  0  0  0  0  0  0
   48.5939    8.5995   11.9083 H   0  0  0  0  0  0  0  0  0  0  0  0
   48.0210   10.7450   11.5376 H   0  0  0  0  0  0  0  0  0  0  0  0
   47.5695   11.0026   13.2199 H   0  0  0  0  0  0  0  0  0  0  0  0
   43.5387    7.1803   11.7813 H   0  0  0  0  0  0  0  0  0  0  0  0
   48.6105    5.4025   13.7483 H   0  0  0  0  0  0  0  0  0  0  0  0
   49.1479    6.2952   12.3041 H   0  0  0  0  0  0  0  0  0  0  0  0
   48.9464    7.1824   15.2025 H   0  0  0  0  0  0  0  0  0  0  0  0
   50.1321    7.6138   13.9308 H   0  0  0  0  0  0  0  0  0  0  0  0
   46.5344    4.5351   12.9758 H   0  0  0  0  0  0  0  0  0  0  0  0
   46.3618   12.6198   11.7346 H   0  0  0  0  0  0  0  0  0  0  0  0
   44.2503    4.9416   12.3062 H   0  0  0  0  0  0  0  0  0  0  0  0
   44.0610   13.1274   11.0401 H   0  0  0  0  0  0  0  0  0  0  0  0
   46.5146    9.3397   14.7799 H   0  0  0  0  0  0  0  0  0  0  0  0
   47.5891    8.5098   15.9173 H   0  0  0  0  0  0  0  0  0  0  0  0
   48.0093   10.1575   15.3978 H   0  0  0  0  0  0  0  0  0  0  0  0
  4 14  1  0
  5 20  1  0
  6  7  1  0
  6 17  1  0
  6 23  1  0
  7  8  1  0
  7 13  1  0
  8  9  1  0
  8 12  2  0
  9 10  1  0
  9 15  2  0
 10 11  2  0
 10 14  1  0
 11 13  1  0
 11 19  1  0
 12 16  1  0
 12 18  1  0
 14 20  2  0
 15 21  1  0
 16 17  1  0
 18 21  2  0
 19 22  2  0
 20 22  1  0
 24 34  1  0
 25 40  1  0
 26 27  1  0
 26 37  1  0
 26 43  1  0
 27 28  1  0
 27 33  1  0
 28 29  1  0
 28 32  2  0
 29 30  1  0
 29 35  2  0
 30 31  2  0
 30 34  1  0
 31 33  1  0
 31 39  1  0
 32 36  1  0
 32 38  1  0
 34 40  2  0
 35 41  1  0
 36 37  1  0
 38 41  2  0
 39 42  2  0
 40 42  1  0
  1 44  1  0
  1 45  1  0
  2 46  1  0
  3 47  1  0
  4 48  1  0
  5 49  1  0
  7 50  1  6
 13 51  1  0
 13 52  1  0
 15 53  1  0
 16 54  1  0
 16 55  1  0
 17 56  1  0
 17 57  1  0
 18 58  1  0
 19 59  1  0
 21 60  1  0
 22 61  1  0
 23 62  1  0
 23 63  1  0
 23 64  1  0
 24 65  1  0
 25 66  1  0
 27 67  1  6
 33 68  1  0
 33 69  1  0
 35 70  1  0
 36 71  1  0
 36 72  1  0
 37 73  1  0
 37 74  1  0
 38 75  1  0
 39 76  1  0
 41 77  1  0
 42 78  1  0
 43 79  1  0
 43 80  1  0
 43 81  1  0
M  END
> <Uni-Dock RESULT> 
ENERGY=   -8.177  LOWER_BOUND=    1.500  UPPER_BOUND=    4.275
INTER + INTRA:          -8.177
INTER:                  -8.177
INTRA:                   0.000
UNBOUND:                 0.000

$$$$

     RDKit          3D

 81 84  0  0  0  0  0  0  0  0999 V2000
   47.9072    8.6261   21.2191 O   0  0  0  0  0  0  0  0  0  0  0  0
   47.9202    9.3425   20.8780 Cl  0  0  0  0  0  0  0  0  0  0  0  0
   47.9204    9.3397   20.8779 Cl  0  0  0  0  0  0  0  0  0  0  0  0
   47.3897   12.0430   22.5684 O   0  0  0  0  0  0  0  0  0  0  0  0
   47.0425   13.8986   20.6345 O   0  0  0  0  0  0  0  0  0  0  0  0
   48.8031    6.5181   19.7856 N   0  0  0  0  0  0  0  0  0  0  0  0
   47.7526    7.4424   20.1015 C   0  0  1  0  0  0  0  0  0  0  0  0
   47.8388    7.9169   21.4778 C   0  0  0  0  0  0  0  0  0  0  0  0
   47.7150    9.2124   21.9128 C   0  0  0  0  0  0  0  0  0  0  0  0
   47.5542   10.2565   20.9159 C   0  0  0  0  0  0  0  0  0  0  0  0
   47.5404    9.8973   19.6016 C   0  0  0  0  0  0  0  0  0  0  0  0
   48.0366    6.9293   22.4560 C   0  0  0  0  0  0  0  0  0  0  0  0
   47.7320    8.5278   19.0834 C   0  0  0  0  0  0  0  0  0  0  0  0
   47.3915   11.5736   21.2757 C   0  0  0  0  0  0  0  0  0  0  0  0
   47.7824    9.5095   23.2533 C   0  0  0  0  0  0  0  0  0  0  0  0
   48.1784    5.5431   21.9651 C   0  0  0  0  0  0  0  0  0  0  0  0
   48.9638    5.4388   20.6960 C   0  0  0  0  0  0  0  0  0  0  0  0
   48.1051    7.2177   23.7929 C   0  0  0  0  0  0  0  0  0  0  0  0
   47.3573   10.8894   18.6388 C   0  0  0  0  0  0  0  0  0  0  0  0
   47.2096   12.5535   20.2889 C   0  0  0  0  0  0  0  0  0  0  0  0
   47.9797    8.5117   24.2245 C   0  0  0  0  0  0  0  0  0  0  0  0
   47.1943   12.1936   18.9644 C   0  0  0  0  0  0  0  0  0  0  0  0
   48.7533    6.1222   18.4007 C   0  0  0  0  0  0  0  0  0  0  0  0
   47.9506   11.9460   22.4454 O   0  0  0  0  0  0  0  0  0  0  0  0
   48.0396   13.8355   20.5240 O   0  0  0  0  0  0  0  0  0  0  0  0
   48.4404    6.3685   19.7301 N   0  0  0  0  0  0  0  0  0  0  0  0
   47.4750    7.4050   19.9310 C   0  0  1  0  0  0  0  0  0  0  0  0
   47.5690    7.8335   21.3486 C   0  0  0  0  0  0  0  0  0  0  0  0
   47.6923    9.1200   21.7708 C   0  0  0  0  0  0  0  0  0  0  0  0
   47.7478   10.1761   20.7805 C   0  0  0  0  0  0  0  0  0  0  0  0
   47.6752    9.8552   19.4426 C   0  0  0  0  0  0  0  0  0  0  0  0
   47.5182    6.7963   22.2867 C   0  0  0  0  0  0  0  0  0  0  0  0
   47.5467    8.4763   18.9248 C   0  0  0  0  0  0  0  0  0  0  0  0
   47.8684   11.4876   21.1548 C   0  0  0  0  0  0  0  0  0  0  0  0
   47.7650    9.3789   23.1170 C   0  0  0  0  0  0  0  0  0  0  0  0
   47.3848    5.4249   21.7427 C   0  0  0  0  0  0  0  0  0  0  0  0
   48.2219    5.1959   20.5176 C   0  0  0  0  0  0  0  0  0  0  0  0
   47.5917    7.0674   23.6287 C   0  0  0  0  0  0  0  0  0  0  0  0
   47.7243   10.8611   18.4722 C   0  0  0  0  0  0  0  0  0  0  0  0
   47.9157   12.4792   20.1640 C   0  0  0  0  0  0  0  0  0  0  0  0
   47.7162    8.3562   24.0782 C   0  0  0  0  0  0  0  0  0  0  0  0
   47.8455   12.1790   18.8449 C   0  0  0  0  0  0  0  0  0  0  0  0
   49.8004    6.8299   19.6933 C   0  0  0  0  0  0  0  0  0  0  0  0
   48.0898    7.8692   20.6196 H   0  0  0  0  0  0  0  0  0  0  0  0
   47.9460    9.4775   20.6997 H   0  0  0  0  0  0  0  0  0  0  0  0
   48.0418    7.9727   20.8142 H   0  0  0  0  0  0  0  0  0  0  0  0
   48.0415    7.9755   20.8144 H   0  0  0  0  0  0  0  0  0  0  0  0
   46.7032   12.6608   22.9647 H   0  0  0  0  0  0  0  0  0  0  0  0
   47.0682   14.2015   21.5872 H   0  0  0  0  0  0  0  0  0  0  0  0
   46.7611    6.8822   20.0410 H   0  0  0  0  0  0  0  0  0  0  0  0
   48.6682    8.4813   18.4598 H   0  0  0  0  0  0  0  0  0  0  0  0
   46.8819    8.3188   18.3688 H   0  0  0  0  0  0  0  0  0  0  0  0
   47.6958   10.4948   23.6721 H   0  0  0  0  0  0  0  0  0  0  0  0
   47.1642    5.1078   21.8590 H   0  0  0  0  0  0  0  0  0  0  0  0
   48.6893    4.9605   22.7598 H   0  0  0  0  0  0  0  0  0  0  0  0
   48.6518    4.5044   20.1860 H   0  0  0  0  0  0  0  0  0  0  0  0
   50.0446    5.3275   20.9160 H   0  0  0  0  0  0  0  0  0  0  0  0
   48.2570    6.4593   24.5481 H   0  0  0  0  0  0  0  0  0  0  0  0
   47.3408   10.6318   17.5760 H   0  0  0  0  0  0  0  0  0  0  0  0
   48.0329    8.7372   25.2720 H   0  0  0  0  0  0  0  0  0  0  0  0
   47.0514   12.9788   18.2399 H   0  0  0  0  0  0  0  0  0  0  0  0
   49.0470    5.0450   18.3001 H   0  0  0  0  0  0  0  0  0  0  0  0
   47.7653    6.3315   17.9190 H   0  0  0  0  0  0  0  0  0  0  0  0
   49.5086    6.7238   17.8539 H   0  0  0  0  0  0  0  0  0  0  0  0
   47.3766   12.6905   22.8225 H   0  0  0  0  0  0  0  0  0  0  0  0
   48.7256   14.0319   21.2510 H   0  0  0  0  0  0  0  0  0  0  0  0
   46.4671    6.9012   19.8424 H   0  0  0  0  0  0  0  0  0  0  0  0
   46.6392    8.4939   18.2603 H   0  0  0  0  0  0  0  0  0  0  0  0
   48.3930    8.3530   18.1907 H   0  0  0  0  0  0  0  0  0  0  0  0
   47.8630   10.3599   23.5403 H   0  0  0  0  0  0  0  0  0  0  0  0
   47.6912    4.7246   22.5571 H   0  0  0  0  0  0  0  0  0  0  0  0
   46.3010    5.2409   21.5713 H   0  0  0  0  0  0  0  0  0  0  0  0
   49.1920    4.7398   20.7843 H   0  0  0  0  0  0  0  0  0  0  0  0
   47.6716    4.4567   19.8801 H   0  0  0  0  0  0  0  0  0  0  0  0
   47.5536    6.2801   24.3517 H   0  0  0  0  0  0  0  0  0  0  0  0
   47.6686   10.6251   17.4205 H   0  0  0  0  0  0  0  0  0  0  0  0
   47.7727    8.5552   25.1306 H   0  0  0  0  0  0  0  0  0  0  0  0
   47.8853   12.9697   18.1202 H   0  0  0  0  0  0  0  0  0  0  0  0
   49.9523    7.8534   20.0960 H   0  0  0  0  0  0  0  0  0  0  0  0
   50.5169    6.1823   20.2564 H   0  0  0  0  0  0  0  0  0  0  0  0
   50.1376    6.8001   18.6329 H   0  0  0  0  0  0  0  0  0  0  0  0
  4 14  1  0
  5 20  1  0
  6  7  1  0
  6 17  1  0
  6 23  1  0
  7  8  1  0
  7 13  1  0
  8  9  1  0
  8 12  2  0
  9 10  1  0
  9 15  2  0
 10 11  2  0
 10 14  1  0
 11 13  1  0
 11 19  1  0
 12 16  1  0
 12 18  1  0
 14 20  2  0
 15 21  1  0
 16 17  1  0
 18 21  2  0
 19 22  2  0
 20 22  1  0
 24 34  1  0
 25 40  1  0
 26 27  1  0
 26 37  1  0
 26 43  1  0
 27 28  1  0
 27 33  1  0
 28 29  1  0
 28 32  2  0
 29 30  1  0
 29 35  2  0
 30 31  2  0
 30 34  1  0
 31 33  1  0
 31 39  1  0
 32 36  1  0
 32 38  1  0
 34 40  2  0
 35 41  1  0
 36 37  1  0
 38 41  2  0
 39 42  2  0
 40 42  1  0
  1 44  1  0
  1 45  1  0
  2 46  1  0
  3 47  1  0
  4 48  1  0
  5 49  1  0
  7 50  1  6
 13 51  1  0
 13 52  1  0
 15 53  1  0
 16 54  1  0
 16 55  1  0
 17 56  1  0
 17 57  1  0
 18 58  1  0
 19 59  1  0
 21 60  1  0
 22 61  1  0
 23 62  1  0
 23 63  1  0
 23 64  1  0
 24 65  1  0
 25 66  1  0
 27 67  1  6
 33 68  1  0
 33 69  1  0
 35 70  1  0
 36 71  1  0
 36 72  1  0
 37 73  1  0
 37 74  1  0
 38 75  1  0
 39 76  1  0
 41 77  1  0
 42 78  1  0
 43 79  1  0
 43 80  1  0
 43 81  1  0
M  END
> <Uni-Dock RESULT> 
ENERGY=   -8.088  LOWER_BOUND=    8.177  UPPER_BOUND=   10.262
INTER + INTRA:          -8.088
INTER:                  -8.088
INTRA:                   0.000
UNBOUND:                 0.000

$$$$

     RDKit          3D

 81 84  0  0  0  0  0  0  0  0999 V2000
   45.6974    7.2003   12.3169 O   0  0  0  0  0  0  0  0  0  0  0  0
   45.4998    7.9008   12.0010 Cl  0  0  0  0  0  0  0  0  0  0  0  0
   45.4995    7.8981   12.0012 Cl  0  0  0  0  0  0  0  0  0  0  0  0
   47.0123   10.6309   12.8324 O   0  0  0  0  0  0  0  0  0  0  0  0
   45.4099   12.5415   11.7904 O   0  0  0  0  0  0  0  0  0  0  0  0
   44.6612    4.9659   11.2057 N   0  0  0  0  0  0  0  0  0  0  0  0
   44.5177    6.0924   12.0821 C   0  0  1  0  0  0  0  0  0  0  0  0
   45.7976    6.5197   12.6354 C   0  0  0  0  0  0  0  0  0  0  0  0
   46.2669    7.8056   12.7306 C   0  0  0  0  0  0  0  0  0  0  0  0
   45.4608    8.8721   12.1626 C   0  0  0  0  0  0  0  0  0  0  0  0
   44.2845    8.5408   11.5599 C   0  0  0  0  0  0  0  0  0  0  0  0
   46.6133    5.5007   13.1527 C   0  0  0  0  0  0  0  0  0  0  0  0
   43.7689    7.1689   11.3782 C   0  0  0  0  0  0  0  0  0  0  0  0
   45.8488   10.1884   12.2477 C   0  0  0  0  0  0  0  0  0  0  0  0
   47.4849    8.0643   13.3132 C   0  0  0  0  0  0  0  0  0  0  0  0
   46.0940    4.1230   13.0299 C   0  0  0  0  0  0  0  0  0  0  0  0
   45.3888    3.8662   11.7356 C   0  0  0  0  0  0  0  0  0  0  0  0
   47.8277    5.7506   13.7341 C   0  0  0  0  0  0  0  0  0  0  0  0
   43.4900    9.5608   11.0374 C   0  0  0  0  0  0  0  0  0  0  0  0
   45.0328   11.1966   11.7139 C   0  0  0  0  0  0  0  0  0  0  0  0
   48.2930    7.0354   13.8292 C   0  0  0  0  0  0  0  0  0  0  0  0
   43.8470   10.8651   11.1074 C   0  0  0  0  0  0  0  0  0  0  0  0
   43.4018    4.6075   10.6033 C   0  0  0  0  0  0  0  0  0  0  0  0
   47.1766   10.4158   12.3167 O   0  0  0  0  0  0  0  0  0  0  0  0
   45.8080   12.2645   10.9099 O   0  0  0  0  0  0  0  0  0  0  0  0
   44.4132    4.8994   11.5077 N   0  0  0  0  0  0  0  0  0  0  0  0
   44.2279    6.1184   12.2332 C   0  0  1  0  0  0  0  0  0  0  0  0
   45.5414    6.4986   12.8096 C   0  0  0  0  0  0  0  0  0  0  0  0
   46.1226    7.7221   12.6929 C   0  0  0  0  0  0  0  0  0  0  0  0
   45.4321    8.7532   11.9450 C   0  0  0  0  0  0  0  0  0  0  0  0
   44.2108    8.4723   11.3725 C   0  0  0  0  0  0  0  0  0  0  0  0
   46.1918    5.4857   13.5232 C   0  0  0  0  0  0  0  0  0  0  0  0
   43.5338    7.1610   11.4607 C   0  0  0  0  0  0  0  0  0  0  0  0
   45.9740   10.0023   11.8014 C   0  0  0  0  0  0  0  0  0  0  0  0
   47.3434    7.9423   13.2808 C   0  0  0  0  0  0  0  0  0  0  0  0
   45.4909    4.1829   13.6006 C   0  0  0  0  0  0  0  0  0  0  0  0
   44.8339    3.7927   12.3083 C   0  0  0  0  0  0  0  0  0  0  0  0
   47.4110    5.7176   14.1060 C   0  0  0  0  0  0  0  0  0  0  0  0
   43.5280    9.4555   10.6492 C   0  0  0  0  0  0  0  0  0  0  0  0
   45.2711   10.9721   11.0717 C   0  0  0  0  0  0  0  0  0  0  0  0
   48.0164    6.9428   14.0022 C   0  0  0  0  0  0  0  0  0  0  0  0
   44.0696   10.7108   10.5031 C   0  0  0  0  0  0  0  0  0  0  0  0
   45.1209    5.0546   10.2670 C   0  0  0  0  0  0  0  0  0  0  0  0
   45.1829    6.4292   11.9906 H   0  0  0  0  0  0  0  0  0  0  0  0
   45.3767    8.0292   11.8631 H   0  0  0  0  0  0  0  0  0  0  0  0
   45.3382    6.5383   12.1127 H   0  0  0  0  0  0  0  0  0  0  0  0
   45.3385    6.5411   12.1125 H   0  0  0  0  0  0  0  0  0  0  0  0
   47.0828   11.3782   13.5006 H   0  0  0  0  0  0  0  0  0  0  0  0
   46.2756   12.8197   12.2064 H   0  0  0  0  0  0  0  0  0  0  0  0
   43.8996    5.7620   12.9817 H   0  0  0  0  0  0  0  0  0  0  0  0
   43.6991    6.9278   10.2807 H   0  0  0  0  0  0  0  0  0  0  0  0
   42.7047    7.1586   11.7584 H   0  0  0  0  0  0  0  0  0  0  0  0
   47.9209    9.0395   13.4247 H   0  0  0  0  0  0  0  0  0  0  0  0
   45.4408    3.9199   13.9024 H   0  0  0  0  0  0  0  0  0  0  0  0
   46.9593    3.4334   13.1175 H   0  0  0  0  0  0  0  0  0  0  0  0
   44.6809    3.0284   11.9014 H   0  0  0  0  0  0  0  0  0  0  0  0
   46.1060    3.5199   10.9644 H   0  0  0  0  0  0  0  0  0  0  0  0
   48.4574    4.9681   14.1333 H   0  0  0  0  0  0  0  0  0  0  0  0
   42.5401    9.3262   10.5486 H   0  0  0  0  0  0  0  0  0  0  0  0
   49.2442    7.2310   14.2851 H   0  0  0  0  0  0  0  0  0  0  0  0
   43.2512   11.6715   10.7115 H   0  0  0  0  0  0  0  0  0  0  0  0
   43.3309    3.4936   10.4993 H   0  0  0  0  0  0  0  0  0  0  0  0
   42.5192    5.0326   11.1440 H   0  0  0  0  0  0  0  0  0  0  0  0
   43.3866    5.0373    9.5804 H   0  0  0  0  0  0  0  0  0  0  0  0
   47.3026   11.2625   12.8581 H   0  0  0  0  0  0  0  0  0  0  0  0
   46.7987   12.2980   10.6758 H   0  0  0  0  0  0  0  0  0  0  0  0
   43.5843    5.8470   13.1218 H   0  0  0  0  0  0  0  0  0  0  0  0
   42.5116    7.3836   11.8740 H   0  0  0  0  0  0  0  0  0  0  0  0
   43.3149    6.8658   10.3952 H   0  0  0  0  0  0  0  0  0  0  0  0
   47.8754    8.8732   13.2410 H   0  0  0  0  0  0  0  0  0  0  0  0
   46.2560    3.4226   13.8907 H   0  0  0  0  0  0  0  0  0  0  0  0
   44.7775    4.2411   14.4526 H   0  0  0  0  0  0  0  0  0  0  0  0
   45.4932    3.1333   11.7159 H   0  0  0  0  0  0  0  0  0  0  0  0
   43.9212    3.1987   12.5727 H   0  0  0  0  0  0  0  0  0  0  0  0
   47.9143    4.9485   14.6530 H   0  0  0  0  0  0  0  0  0  0  0  0
   42.5707    9.2503   10.1951 H   0  0  0  0  0  0  0  0  0  0  0  0
   48.9703    7.1117   14.4626 H   0  0  0  0  0  0  0  0  0  0  0  0
   43.5661   11.4829    9.9532 H   0  0  0  0  0  0  0  0  0  0  0  0
   45.6675    6.0154   10.1638 H   0  0  0  0  0  0  0  0  0  0  0  0
   45.8832    4.2597   10.0746 H   0  0  0  0  0  0  0  0  0  0  0  0
   44.3785    4.9653    9.4424 H   0  0  0  0  0  0  0  0  0  0  0  0
  4 14  1  0
  5 20  1  0
  6  7  1  0
  6 17  1  0
  6 23  1  0
  7  8  1  0
  7 13  1  0
  8  9  1  0
  8 12  2  0
  9 10  1  0
  9 15  2  0
 10 11  2  0
 10 14  1  0
 11 13  1  0
 11 19  1  0
 12 16  1  0
 12 18  1  0
 14 20  2  0
 15 21  1  0
 16 17  1  0
 18 21  2  0
 19 22  2  0
 20 22  1  0
 24 34  1  0
 25 40  1  0
 26 27  1  0
 26 37  1  0
 26 43  1  0
 27 28  1  0
 27 33  1  0
 28 29  1  0
 28 32  2  0
 29 30  1  0
 29 35  2  0
 30 31  2  0
 30 34  1  0
 31 33  1  0
 31 39  1  0
 32 36  1  0
 32 38  1  0
 34 40  2  0
 35 41  1  0
 36 37  1  0
 38 41  2  0
 39 42  2  0
 40 42  1  0
  1 44  1  0
  1 45  1  0
  2 46  1  0
  3 47  1  0
  4 48  1  0
  5 49  1  0
  7 50  1  6
 13 51  1  0
 13 52  1  0
 15 53  1  0
 16 54  1  0
 16 55  1  0
 17 56  1  0
 17 57  1  0
 18 58  1  0
 19 59  1  0
 21 60  1  0
 22 61  1  0
 23 62  1  0
 23 63  1  0
 23 64  1  0
 24 65  1  0
 25 66  1  0
 27 67  1  6
 33 68  1  0
 33 69  1  0
 35 70  1  0
 36 71  1  0
 36 72  1  0
 37 73  1  0
 37 74  1  0
 38 75  1  0
 39 76  1  0
 41 77  1  0
 42 78  1  0
 43 79  1  0
 43 80  1  0
 43 81  1  0
M  END
> <Uni-Dock RESULT> 
ENERGY=   -7.907  LOWER_BOUND=    1.978  UPPER_BOUND=    5.224
INTER + INTRA:          -7.907
INTER:                  -7.907
INTRA:                   0.000
UNBOUND:                 0.000

$$$$

     RDKit          3D

 81 84  0  0  0  0  0  0  0  0999 V2000
   50.0078    4.2869   18.2437 O   0  0  0  0  0  0  0  0  0  0  0  0
   50.7325    3.9649   18.2178 Cl  0  0  0  0  0  0  0  0  0  0  0  0
   50.7308    3.9671   18.2185 Cl  0  0  0  0  0  0  0  0  0  0  0  0
   51.2355    0.9949   17.0528 O   0  0  0  0  0  0  0  0  0  0  0  0
   53.7668    0.4667   17.8389 O   0  0  0  0  0  0  0  0  0  0  0  0
   49.8048    6.9190   18.8201 N   0  0  0  0  0  0  0  0  0  0  0  0
   49.9647    5.5643   19.2638 C   0  0  1  0  0  0  0  0  0  0  0  0
   49.3332    4.6144   18.3552 C   0  0  0  0  0  0  0  0  0  0  0  0
   49.8692    3.4422   17.8844 C   0  0  0  0  0  0  0  0  0  0  0  0
   51.2369    3.1192   18.2514 C   0  0  0  0  0  0  0  0  0  0  0  0
   51.9187    3.9982   19.0383 C   0  0  0  0  0  0  0  0  0  0  0  0
   48.0250    4.9272   17.9526 C   0  0  0  0  0  0  0  0  0  0  0  0
   51.4071    5.2983   19.5167 C   0  0  0  0  0  0  0  0  0  0  0  0
   51.8315    1.9478   17.8454 C   0  0  0  0  0  0  0  0  0  0  0  0
   49.1394    2.6221   17.0570 C   0  0  0  0  0  0  0  0  0  0  0  0
   47.4716    6.1989   18.4619 C   0  0  0  0  0  0  0  0  0  0  0  0
   48.4743    7.3082   18.5075 C   0  0  0  0  0  0  0  0  0  0  0  0
   47.2921    4.1155   17.1285 C   0  0  0  0  0  0  0  0  0  0  0  0
   53.2225    3.6826   19.4196 C   0  0  0  0  0  0  0  0  0  0  0  0
   53.1443    1.6529   18.2415 C   0  0  0  0  0  0  0  0  0  0  0  0
   47.8291    2.9451   16.6612 C   0  0  0  0  0  0  0  0  0  0  0  0
   53.8325    2.5366   19.0350 C   0  0  0  0  0  0  0  0  0  0  0  0
   50.5036    7.8383   19.6826 C   0  0  0  0  0  0  0  0  0  0  0  0
   51.3845    1.4222   16.6863 O   0  0  0  0  0  0  0  0  0  0  0  0
   54.0287    1.0984   17.1022 O   0  0  0  0  0  0  0  0  0  0  0  0
   49.6610    6.8548   19.1838 N   0  0  0  0  0  0  0  0  0  0  0  0
   49.9967    5.5241   19.5877 C   0  0  1  0  0  0  0  0  0  0  0  0
   49.3069    4.5900   18.6636 C   0  0  0  0  0  0  0  0  0  0  0  0
   49.9020    3.5628   18.0010 C   0  0  0  0  0  0  0  0  0  0  0  0
   51.3223    3.3442   18.1855 C   0  0  0  0  0  0  0  0  0  0  0  0
   52.0331    4.1768   19.0221 C   0  0  0  0  0  0  0  0  0  0  0  0
   47.9372    4.8235   18.4972 C   0  0  0  0  0  0  0  0  0  0  0  0
   51.4422    5.3115   19.7631 C   0  0  0  0  0  0  0  0  0  0  0  0
   51.9673    2.3215   17.5432 C   0  0  0  0  0  0  0  0  0  0  0  0
   49.1437    2.7691   17.1766 C   0  0  0  0  0  0  0  0  0  0  0  0
   47.3686    5.9631   19.2537 C   0  0  0  0  0  0  0  0  0  0  0  0
   48.2683    7.1649   19.2679 C   0  0  0  0  0  0  0  0  0  0  0  0
   47.1903    4.0238   17.6711 C   0  0  0  0  0  0  0  0  0  0  0  0
   53.4042    3.9798   19.2149 C   0  0  0  0  0  0  0  0  0  0  0  0
   53.3428    2.1434   17.7518 C   0  0  0  0  0  0  0  0  0  0  0  0
   47.7679    2.9823   16.9928 C   0  0  0  0  0  0  0  0  0  0  0  0
   54.0548    2.9537   18.5713 C   0  0  0  0  0  0  0  0  0  0  0  0
   50.3060    7.2831   17.9736 C   0  0  0  0  0  0  0  0  0  0  0  0
   49.9630    5.1987   18.6076 H   0  0  0  0  0  0  0  0  0  0  0  0
   50.9547    3.9721   18.2530 H   0  0  0  0  0  0  0  0  0  0  0  0
   49.8845    5.0069   18.5183 H   0  0  0  0  0  0  0  0  0  0  0  0
   49.8862    5.0048   18.5177 H   0  0  0  0  0  0  0  0  0  0  0  0
   51.2155    0.0078   17.2409 H   0  0  0  0  0  0  0  0  0  0  0  0
   53.3047   -0.1914   17.2444 H   0  0  0  0  0  0  0  0  0  0  0  0
   49.4057    5.4490   20.2511 H   0  0  0  0  0  0  0  0  0  0  0  0
   52.0280    6.1350   19.0904 H   0  0  0  0  0  0  0  0  0  0  0  0
   51.5772    5.3340   20.6333 H   0  0  0  0  0  0  0  0  0  0  0  0
   49.4867    1.6919   16.6473 H   0  0  0  0  0  0  0  0  0  0  0  0
   47.0234    6.0074   19.4578 H   0  0  0  0  0  0  0  0  0  0  0  0
   46.6360    6.4890   17.7915 H   0  0  0  0  0  0  0  0  0  0  0  0
   48.1350    8.0340   19.2747 H   0  0  0  0  0  0  0  0  0  0  0  0
   48.4900    7.8576   17.5446 H   0  0  0  0  0  0  0  0  0  0  0  0
   46.2847    4.3538   16.8174 H   0  0  0  0  0  0  0  0  0  0  0  0
   53.7947    4.3679   20.0515 H   0  0  0  0  0  0  0  0  0  0  0  0
   47.2545    2.3092   16.0161 H   0  0  0  0  0  0  0  0  0  0  0  0
   54.8383    2.2697   19.3158 H   0  0  0  0  0  0  0  0  0  0  0  0
   49.9172    8.7884   19.7839 H   0  0  0  0  0  0  0  0  0  0  0  0
   50.7593    7.3982   20.6791 H   0  0  0  0  0  0  0  0  0  0  0  0
   51.4648    8.0933   19.1903 H   0  0  0  0  0  0  0  0  0  0  0  0
   51.4887    0.4173   16.7590 H   0  0  0  0  0  0  0  0  0  0  0  0
   53.8042    0.9774   16.1160 H   0  0  0  0  0  0  0  0  0  0  0  0
   49.4917    5.3748   20.5877 H   0  0  0  0  0  0  0  0  0  0  0  0
   51.7162    5.1357   20.8399 H   0  0  0  0  0  0  0  0  0  0  0  0
   52.0689    6.2067   19.4876 H   0  0  0  0  0  0  0  0  0  0  0  0
   49.5269    1.9387   16.6157 H   0  0  0  0  0  0  0  0  0  0  0  0
   46.3936    6.2154   18.7708 H   0  0  0  0  0  0  0  0  0  0  0  0
   47.1196    5.5925   20.2729 H   0  0  0  0  0  0  0  0  0  0  0  0
   47.9942    7.8704   18.4632 H   0  0  0  0  0  0  0  0  0  0  0  0
   48.0958    7.6901   20.2426 H   0  0  0  0  0  0  0  0  0  0  0  0
   46.1429    4.1959   17.5388 H   0  0  0  0  0  0  0  0  0  0  0  0
   53.9742    4.6237   19.8671 H   0  0  0  0  0  0  0  0  0  0  0  0
   47.1727    2.3640   16.3494 H   0  0  0  0  0  0  0  0  0  0  0  0
   55.1060    2.7811   18.7021 H   0  0  0  0  0  0  0  0  0  0  0  0
   50.7445    6.4621   17.3682 H   0  0  0  0  0  0  0  0  0  0  0  0
   49.6366    7.8408   17.2730 H   0  0  0  0  0  0  0  0  0  0  0  0
   51.1099    7.9995   18.2557 H   0  0  0  0  0  0  0  0  0  0  0  0
  4 14  1  0
  5 20  1  0
  6  7  1  0
  6 17  1  0
  6 23  1  0
  7  8  1  0
  7 13  1  0
  8  9  1  0
  8 12  2  0
  9 10  1  0
  9 15  2  0
 10 11  2  0
 10 14  1  0
 11 13  1  0
 11 19  1  0
 12 16  1  0
 12 18  1  0
 14 20  2  0
 15 21  1  0
 16 17  1  0
 18 21  2  0
 19 22  2  0
 20 22  1  0
 24 34  1  0
 25 40  1  0
 26 27  1  0
 26 37  1  0
 26 43  1  0
 27 28  1  0
 27 33  1  0
 28 29  1  0
 28 32  2  0
 29 30  1  0
 29 35  2  0
 30 31  2  0
 30 34  1  0
 31 33  1  0
 31 39  1  0
 32 36  1  0
 32 38  1  0
 34 40  2  0
 35 41  1  0
 36 37  1  0
 38 41  2  0
 39 42  2  0
 40 42  1  0
  1 44  1  0
  1 45  1  0
  2 46  1  0
  3 47  1  0
  4 48  1  0
  5 49  1  0
  7 50  1  6
 13 51  1  0
 13 52  1  0
 15 53  1  0
 16 54  1  0
 16 55  1  0
 17 56  1  0
 17 57  1  0
 18 58  1  0
 19 59  1  0
 21 60  1  0
 22 61  1  0
 23 62  1  0
 23 63  1  0
 23 64  1  0
 24 65  1  0
 25 66  1  0
 27 67  1  6
 33 68  1  0
 33 69  1  0
 35 70  1  0
 36 71  1  0
 36 72  1  0
 37 73  1  0
 37 74  1  0
 38 75  1  0
 39 76  1  0
 41 77  1  0
 42 78  1  0
 43 79  1  0
 43 80  1  0
 43 81  1  0
M  END
> <Uni-Dock RESULT> 
ENERGY=   -7.858  LOWER_BOUND=    7.082  UPPER_BOUND=    9.161
INTER + INTRA:          -7.858
INTER:                  -7.858
INTRA:                   0.000
UNBOUND:                 0.000

$$$$

     RDKit          3D

 81 84  0  0  0  0  0  0  0  0999 V2000
   47.9352    9.0729   20.1103 O   0  0  0  0  0  0  0  0  0  0  0  0
   48.0491    8.3598   20.4390 Cl  0  0  0  0  0  0  0  0  0  0  0  0
   48.0488    8.3625   20.4392 Cl  0  0  0  0  0  0  0  0  0  0  0  0
   48.2916    5.6804   18.6517 O   0  0  0  0  0  0  0  0  0  0  0  0
   48.0839    3.7139   20.4939 O   0  0  0  0  0  0  0  0  0  0  0  0
   48.1996   11.2549   21.6819 N   0  0  0  0  0  0  0  0  0  0  0  0
   47.4053   10.1552   21.2158 C   0  0  1  0  0  0  0  0  0  0  0  0
   47.7585    9.7648   19.8558 C   0  0  0  0  0  0  0  0  0  0  0  0
   47.9543    8.4897   19.3883 C   0  0  0  0  0  0  0  0  0  0  0  0
   47.8826    7.3937   20.3389 C   0  0  0  0  0  0  0  0  0  0  0  0
   47.6308    7.6881   21.6453 C   0  0  0  0  0  0  0  0  0  0  0  0
   47.8752   10.8118   18.9277 C   0  0  0  0  0  0  0  0  0  0  0  0
   47.4755    9.0457   22.2054 C   0  0  0  0  0  0  0  0  0  0  0  0
   48.0354    6.0867   19.9404 C   0  0  0  0  0  0  0  0  0  0  0  0
   48.2489    8.2678   18.0640 C   0  0  0  0  0  0  0  0  0  0  0  0
   47.6716   12.1771   19.4544 C   0  0  0  0  0  0  0  0  0  0  0  0
   48.2531   12.3817   20.8176 C   0  0  0  0  0  0  0  0  0  0  0  0
   48.1687   10.5986   17.6072 C   0  0  0  0  0  0  0  0  0  0  0  0
   47.5313    6.6402   22.5600 C   0  0  0  0  0  0  0  0  0  0  0  0
   47.9316    5.0499   20.8793 C   0  0  0  0  0  0  0  0  0  0  0  0
   48.3622    9.3245   17.1429 C   0  0  0  0  0  0  0  0  0  0  0  0
   47.6769    5.3442   22.1956 C   0  0  0  0  0  0  0  0  0  0  0  0
   47.8965   11.5751   23.0541 C   0  0  0  0  0  0  0  0  0  0  0  0
   48.8013    5.8812   18.8493 O   0  0  0  0  0  0  0  0  0  0  0  0
   49.0258    3.9683   20.7361 O   0  0  0  0  0  0  0  0  0  0  0  0
   47.8101   11.3274   21.6914 N   0  0  0  0  0  0  0  0  0  0  0  0
   47.1066   10.1298   21.3487 C   0  0  1  0  0  0  0  0  0  0  0  0
   47.4633    9.7877   19.9495 C   0  0  0  0  0  0  0  0  0  0  0  0
   47.8957    8.5698   19.5274 C   0  0  0  0  0  0  0  0  0  0  0  0
   48.0373    7.5051   20.4999 C   0  0  0  0  0  0  0  0  0  0  0  0
   47.7332    7.7494   21.8213 C   0  0  0  0  0  0  0  0  0  0  0  0
   47.3235   10.8325   19.0291 C   0  0  0  0  0  0  0  0  0  0  0  0
   47.2651    9.0528   22.3389 C   0  0  0  0  0  0  0  0  0  0  0  0
   48.4660    6.2602   20.1246 C   0  0  0  0  0  0  0  0  0  0  0  0
   48.1885    8.3866   18.1988 C   0  0  0  0  0  0  0  0  0  0  0  0
   46.8489   12.1266   19.5718 C   0  0  0  0  0  0  0  0  0  0  0  0
   47.4610   12.4654   20.9002 C   0  0  0  0  0  0  0  0  0  0  0  0
   47.6190   10.6374   17.7045 C   0  0  0  0  0  0  0  0  0  0  0  0
   47.8610    6.7336   22.7740 C   0  0  0  0  0  0  0  0  0  0  0  0
   48.5867    5.2572   21.0975 C   0  0  0  0  0  0  0  0  0  0  0  0
   48.0564    9.4186   17.2555 C   0  0  0  0  0  0  0  0  0  0  0  0
   48.2913    5.4823   22.4003 C   0  0  0  0  0  0  0  0  0  0  0  0
   49.2194   11.1429   21.9004 C   0  0  0  0  0  0  0  0  0  0  0  0
   47.8843    9.8254   20.7403 H   0  0  0  0  0  0  0  0  0  0  0  0
   48.0788    8.2252   20.6170 H   0  0  0  0  0  0  0  0  0  0  0  0
   47.8831    9.7226   20.5394 H   0  0  0  0  0  0  0  0  0  0  0  0
   47.8834    9.7198   20.5392 H   0  0  0  0  0  0  0  0  0  0  0  0
   47.7993    4.9561   18.1588 H   0  0  0  0  0  0  0  0  0  0  0  0
   48.2903    3.4620   19.5484 H   0  0  0  0  0  0  0  0  0  0  0  0
   46.3218   10.5051   21.1535 H   0  0  0  0  0  0  0  0  0  0  0  0
   48.2967    9.2503   22.9478 H   0  0  0  0  0  0  0  0  0  0  0  0
   46.5173    9.0525   22.8046 H   0  0  0  0  0  0  0  0  0  0  0  0
   48.4163    7.3032   17.6223 H   0  0  0  0  0  0  0  0  0  0  0  0
   46.5854   12.3984   19.4324 H   0  0  0  0  0  0  0  0  0  0  0  0
   48.1507   12.8818   18.7433 H   0  0  0  0  0  0  0  0  0  0  0  0
   47.6974   13.2138   21.2963 H   0  0  0  0  0  0  0  0  0  0  0  0
   49.3083   12.7136   20.7441 H   0  0  0  0  0  0  0  0  0  0  0  0
   48.2588   11.4028   16.8906 H   0  0  0  0  0  0  0  0  0  0  0  0
   47.3291    6.8450   23.6152 H   0  0  0  0  0  0  0  0  0  0  0  0
   48.5916    9.1578   16.1083 H   0  0  0  0  0  0  0  0  0  0  0  0
   47.6048    4.5168   22.8827 H   0  0  0  0  0  0  0  0  0  0  0  0
   47.9520   12.6840   23.2093 H   0  0  0  0  0  0  0  0  0  0  0  0
   46.9182   11.1547   23.3978 H   0  0  0  0  0  0  0  0  0  0  0  0
   48.6823   11.1126   23.6865 H   0  0  0  0  0  0  0  0  0  0  0  0
   48.4413    5.0543   18.3882 H   0  0  0  0  0  0  0  0  0  0  0  0
   49.8235    3.9419   20.1032 H   0  0  0  0  0  0  0  0  0  0  0  0
   46.0149   10.4201   21.3112 H   0  0  0  0  0  0  0  0  0  0  0  0
   46.3033    8.8285   22.8773 H   0  0  0  0  0  0  0  0  0  0  0  0
   47.9695    9.3103   23.1801 H   0  0  0  0  0  0  0  0  0  0  0  0
   48.5348    7.4629   17.7770 H   0  0  0  0  0  0  0  0  0  0  0  0
   47.1082   12.9070   18.8160 H   0  0  0  0  0  0  0  0  0  0  0  0
   45.7374   12.0853   19.6014 H   0  0  0  0  0  0  0  0  0  0  0  0
   48.3451   13.1151   20.7711 H   0  0  0  0  0  0  0  0  0  0  0  0
   46.6970   13.0540   21.4707 H   0  0  0  0  0  0  0  0  0  0  0  0
   47.5147   11.4310   16.9951 H   0  0  0  0  0  0  0  0  0  0  0  0
   47.6265    6.9099   23.8127 H   0  0  0  0  0  0  0  0  0  0  0  0
   48.2843    9.2786   16.2168 H   0  0  0  0  0  0  0  0  0  0  0  0
   48.3978    4.6856   23.1116 H   0  0  0  0  0  0  0  0  0  0  0  0
   49.6240   10.1874   21.5054 H   0  0  0  0  0  0  0  0  0  0  0  0
   49.8560   11.9424   21.4469 H   0  0  0  0  0  0  0  0  0  0  0  0
   49.4070   11.1947   22.9964 H   0  0  0  0  0  0  0  0  0  0  0  0
  4 14  1  0
  5 20  1  0
  6  7  1  0
  6 17  1  0
  6 23  1  0
  7  8  1  0
  7 13  1  0
  8  9  1  0
  8 12  2  0
  9 10  1  0
  9 15  2  0
 10 11  2  0
 10 14  1  0
 11 13  1  0
 11 19  1  0
 12 16  1  0
 12 18  1  0
 14 20  2  0
 15 21  1  0
 16 17  1  0
 18 21  2  0
 19 22  2  0
 20 22  1  0
 24 34  1  0
 25 40  1  0
 26 27  1  0
 26 37  1  0
 26 43  1  0
 27 28  1  0
 27 33  1  0
 28 29  1  0
 28 32  2  0
 29 30  1  0
 29 35  2  0
 30 31  2  0
 30 34  1  0
 31 33  1  0
 31 39  1  0
 32 36  1  0
 32 38  1  0
 34 40  2  0
 35 41  1  0
 36 37  1  0
 38 41  2  0
 39 42  2  0
 40 42  1  0
  1 44  1  0
  1 45  1  0
  2 46  1  0
  3 47  1  0
  4 48  1  0
  5 49  1  0
  7 50  1  6
 13 51  1  0
 13 52  1  0
 15 53  1  0
 16 54  1  0
 16 55  1  0
 17 56  1  0
 17 57  1  0
 18 58  1  0
 19 59  1  0
 21 60  1  0
 22 61  1  0
 23 62  1  0
 23 63  1  0
 23 64  1  0
 24 65  1  0
 25 66  1  0
 27 67  1  6
 33 68  1  0
 33 69  1  0
 35 70  1  0
 36 71  1  0
 36 72  1  0
 37 73  1  0
 37 74  1  0
 38 75  1  0
 39 76  1  0
 41 77  1  0
 42 78  1  0
 43 79  1  0
 43 80  1  0
 43 81  1  0
M  END
> <Uni-Dock RESULT> 
ENERGY=   -7.814  LOWER_BOUND=    7.540  UPPER_BOUND=    8.752
INTER + INTRA:          -7.814
INTER:                  -7.814
INTRA:                   0.000
UNBOUND:                 0.000

$$$$

     RDKit          3D

 81 84  0  0  0  0  0  0  0  0999 V2000
   47.9740    8.6925   19.6074 O   0  0  0  0  0  0  0  0  0  0  0  0
   47.9947    9.4840   19.5546 Cl  0  0  0  0  0  0  0  0  0  0  0  0
   47.9951    9.4814   19.5535 Cl  0  0  0  0  0  0  0  0  0  0  0  0
   47.0949   11.3784   22.0109 O   0  0  0  0  0  0  0  0  0  0  0  0
   46.9144   13.8129   20.8513 O   0  0  0  0  0  0  0  0  0  0  0  0
   49.1685    7.2556   17.6556 N   0  0  0  0  0  0  0  0  0  0  0  0
   48.0367    7.9998   18.1274 C   0  0  1  0  0  0  0  0  0  0  0  0
   47.9093    7.9377   19.5789 C   0  0  0  0  0  0  0  0  0  0  0  0
   47.6581    8.9841   20.4302 C   0  0  0  0  0  0  0  0  0  0  0  0
   47.5783   10.3206   19.8669 C   0  0  0  0  0  0  0  0  0  0  0  0
   47.7626   10.4673   18.5248 C   0  0  0  0  0  0  0  0  0  0  0  0
   48.0252    6.6608   20.1509 C   0  0  0  0  0  0  0  0  0  0  0  0
   48.0963    9.3825   17.5800 C   0  0  0  0  0  0  0  0  0  0  0  0
   47.2976   11.4146   20.6511 C   0  0  0  0  0  0  0  0  0  0  0  0
   47.5265    8.7701   21.7817 C   0  0  0  0  0  0  0  0  0  0  0  0
   48.3068    5.5504   19.2179 C   0  0  0  0  0  0  0  0  0  0  0  0
   49.2618    5.9180   18.1265 C   0  0  0  0  0  0  0  0  0  0  0  0
   47.8957    6.4399   21.4961 C   0  0  0  0  0  0  0  0  0  0  0  0
   47.6590   11.7428   17.9707 C   0  0  0  0  0  0  0  0  0  0  0  0
   47.1991   12.6876   20.0707 C   0  0  0  0  0  0  0  0  0  0  0  0
   47.6434    7.4861   22.3435 C   0  0  0  0  0  0  0  0  0  0  0  0
   47.3834   12.8374   18.7188 C   0  0  0  0  0  0  0  0  0  0  0  0
   49.3288    7.3940   16.2299 C   0  0  0  0  0  0  0  0  0  0  0  0
   47.6717   11.3333   21.9445 O   0  0  0  0  0  0  0  0  0  0  0  0
   47.9192   13.7949   20.8725 O   0  0  0  0  0  0  0  0  0  0  0  0
   48.8253    7.1366   17.4973 N   0  0  0  0  0  0  0  0  0  0  0  0
   47.7872    8.0273   17.9163 C   0  0  1  0  0  0  0  0  0  0  0  0
   47.6645    7.9073   19.3903 C   0  0  0  0  0  0  0  0  0  0  0  0
   47.6599    8.9501   20.2627 C   0  0  0  0  0  0  0  0  0  0  0  0
   47.7925   10.2954   19.7414 C   0  0  0  0  0  0  0  0  0  0  0  0
   47.9199   10.4863   18.3829 C   0  0  0  0  0  0  0  0  0  0  0  0
   47.5426    6.5988   19.8711 C   0  0  0  0  0  0  0  0  0  0  0  0
   47.9373    9.3926   17.3882 C   0  0  0  0  0  0  0  0  0  0  0  0
   47.7904   11.3790   20.5783 C   0  0  0  0  0  0  0  0  0  0  0  0
   47.5349    8.6985   21.6064 C   0  0  0  0  0  0  0  0  0  0  0  0
   47.5583    5.5215   18.8544 C   0  0  0  0  0  0  0  0  0  0  0  0
   48.5652    5.7571   17.7659 C   0  0  0  0  0  0  0  0  0  0  0  0
   47.4183    6.3600   21.2155 C   0  0  0  0  0  0  0  0  0  0  0  0
   48.0462   11.7776   17.8608 C   0  0  0  0  0  0  0  0  0  0  0  0
   47.9186   12.6644   20.0320 C   0  0  0  0  0  0  0  0  0  0  0  0
   47.4110    7.3949   22.1140 C   0  0  0  0  0  0  0  0  0  0  0  0
   48.0445   12.8677   18.6986 C   0  0  0  0  0  0  0  0  0  0  0  0
   50.1509    7.5799   17.8292 C   0  0  0  0  0  0  0  0  0  0  0  0
   48.2768    8.2075   18.8081 H   0  0  0  0  0  0  0  0  0  0  0  0
   48.0372    9.6748   19.4431 H   0  0  0  0  0  0  0  0  0  0  0  0
   48.1973    8.2326   19.0178 H   0  0  0  0  0  0  0  0  0  0  0  0
   48.1969    8.2352   19.0189 H   0  0  0  0  0  0  0  0  0  0  0  0
   46.3287   11.8081   22.4989 H   0  0  0  0  0  0  0  0  0  0  0  0
   46.7941   13.7461   21.8418 H   0  0  0  0  0  0  0  0  0  0  0  0
   47.0942    7.5003   17.7240 H   0  0  0  0  0  0  0  0  0  0  0  0
   49.1096    9.5678   17.1258 H   0  0  0  0  0  0  0  0  0  0  0  0
   47.3636    9.4492   16.7221 H   0  0  0  0  0  0  0  0  0  0  0  0
   47.3310    9.5338   22.5113 H   0  0  0  0  0  0  0  0  0  0  0  0
   47.3413    5.1838   18.8144 H   0  0  0  0  0  0  0  0  0  0  0  0
   48.7355    4.7175   19.8133 H   0  0  0  0  0  0  0  0  0  0  0  0
   49.0728    5.2350   17.2732 H   0  0  0  0  0  0  0  0  0  0  0  0
   50.3072    5.7343   18.4467 H   0  0  0  0  0  0  0  0  0  0  0  0
   47.9842    5.4579   21.9391 H   0  0  0  0  0  0  0  0  0  0  0  0
   47.8010   11.8920   16.8966 H   0  0  0  0  0  0  0  0  0  0  0  0
   47.5416    7.3127   23.3973 H   0  0  0  0  0  0  0  0  0  0  0  0
   47.2982   13.8332   18.3151 H   0  0  0  0  0  0  0  0  0  0  0  0
   49.6909    6.4284   15.7904 H   0  0  0  0  0  0  0  0  0  0  0  0
   48.4056    7.7647   15.7178 H   0  0  0  0  0  0  0  0  0  0  0  0
   50.1180    8.1542   16.0548 H   0  0  0  0  0  0  0  0  0  0  0  0
   47.0125   11.8880   22.4772 H   0  0  0  0  0  0  0  0  0  0  0  0
   48.4885   13.7119   21.7131 H   0  0  0  0  0  0  0  0  0  0  0  0
   46.8293    7.5906   17.5051 H   0  0  0  0  0  0  0  0  0  0  0  0
   47.1289    9.6518   16.6502 H   0  0  0  0  0  0  0  0  0  0  0  0
   48.8809    9.5467   16.7915 H   0  0  0  0  0  0  0  0  0  0  0  0
   47.5215    9.4565   22.3656 H   0  0  0  0  0  0  0  0  0  0  0  0
   47.7884    4.5718   19.3954 H   0  0  0  0  0  0  0  0  0  0  0  0
   46.5193    5.4127   18.4715 H   0  0  0  0  0  0  0  0  0  0  0  0
   49.5132    5.2353   17.9881 H   0  0  0  0  0  0  0  0  0  0  0  0
   48.1472    5.3022   16.8310 H   0  0  0  0  0  0  0  0  0  0  0  0
   47.3246    5.3627   21.5906 H   0  0  0  0  0  0  0  0  0  0  0  0
   48.1467   11.9428   16.7990 H   0  0  0  0  0  0  0  0  0  0  0  0
   47.3131    7.1950   23.1632 H   0  0  0  0  0  0  0  0  0  0  0  0
   48.1399   13.8688   18.3235 H   0  0  0  0  0  0  0  0  0  0  0  0
   50.1913    8.3850   18.5927 H   0  0  0  0  0  0  0  0  0  0  0  0
   50.8180    6.7713   18.2180 H   0  0  0  0  0  0  0  0  0  0  0  0
   50.6302    7.9403   16.8915 H   0  0  0  0  0  0  0  0  0  0  0  0
  4 14  1  0
  5 20  1  0
  6  7  1  0
  6 17  1  0
  6 23  1  0
  7  8  1  0
  7 13  1  0
  8  9  1  0
  8 12  2  0
  9 10  1  0
  9 15  2  0
 10 11  2  0
 10 14  1  0
 11 13  1  0
 11 19  1  0
 12 16  1  0
 12 18  1  0
 14 20  2  0
 15 21  1  0
 16 17  1  0
 18 21  2  0
 19 22  2  0
 20 22  1  0
 24 34  1  0
 25 40  1  0
 26 27  1  0
 26 37  1  0
 26 43  1  0
 27 28  1  0
 27 33  1  0
 28 29  1  0
 28 32  2  0
 29 30  1  0
 29 35  2  0
 30 31  2  0
 30 34  1  0
 31 33  1  0
 31 39  1  0
 32 36  1  0
 32 38  1  0
 34 40  2  0
 35 41  1  0
 36 37  1  0
 38 41  2  0
 39 42  2  0
 40 42  1  0
  1 44  1  0
  1 45  1  0
  2 46  1  0
  3 47  1  0
  4 48  1  0
  5 49  1  0
  7 50  1  6
 13 51  1  0
 13 52  1  0
 15 53  1  0
 16 54  1  0
 16 55  1  0
 17 56  1  0
 17 57  1  0
 18 58  1  0
 19 59  1  0
 21 60  1  0
 22 61  1  0
 23 62  1  0
 23 63  1  0
 23 64  1  0
 24 65  1  0
 25 66  1  0
 27 67  1  6
 33 68  1  0
 33 69  1  0
 35 70  1  0
 36 71  1  0
 36 72  1  0
 37 73  1  0
 37 74  1  0
 38 75  1  0
 39 76  1  0
 41 77  1  0
 42 78  1  0
 43 79  1  0
 43 80  1  0
 43 81  1  0
M  END
> <Uni-Dock RESULT> 
ENERGY=   -7.663  LOWER_BOUND=    6.828  UPPER_BOUND=    9.159
INTER + INTRA:          -7.663
INTER:                  -7.663
INTRA:                   0.000
UNBOUND:                 0.000

$$$$
