
     RDKit          3D

 81 84  0  0  0  0  0  0  0  0999 V2000
   45.5075    8.0268   12.1542 O   0  0  0  0  0  0  0  0  0  0  0  0
   45.6158    7.2572   12.3141 Cl  0  0  0  0  0  0  0  0  0  0  0  0
   45.6147    7.2545   12.3143 Cl  0  0  0  0  0  0  0  0  0  0  0  0
   43.2325    5.1808   11.6135 O   0  0  0  0  0  0  0  0  0  0  0  0
   44.2072    2.8529   12.5864 O   0  0  0  0  0  0  0  0  0  0  0  0
   47.7322    9.5604   12.2105 N   0  0  0  0  0  0  0  0  0  0  0  0
   46.7039    8.8519   12.9560 C   0  0  1  0  0  0  0  0  0  0  0  0
   45.4300    8.7996   12.2044 C   0  0  0  0  0  0  0  0  0  0  0  0
   44.6834    7.6870   11.9755 C   0  0  0  0  0  0  0  0  0  0  0  0
   45.1644    6.4085   12.4618 C   0  0  0  0  0  0  0  0  0  0  0  0
   46.3574    6.3749   13.1316 C   0  0  0  0  0  0  0  0  0  0  0  0
   44.9812   10.0384   11.7166 C   0  0  0  0  0  0  0  0  0  0  0  0
   47.2291    7.5362   13.3845 C   0  0  0  0  0  0  0  0  0  0  0  0
   44.4412    5.2576   12.2720 C   0  0  0  0  0  0  0  0  0  0  0  0
   43.5060    7.8024   11.2726 C   0  0  0  0  0  0  0  0  0  0  0  0
   45.8832   11.1902   12.0221 C   0  0  0  0  0  0  0  0  0  0  0  0
   47.2640   10.7568   11.5663 C   0  0  0  0  0  0  0  0  0  0  0  0
   43.8178   10.1384   11.0244 C   0  0  0  0  0  0  0  0  0  0  0  0
   46.8248    5.1466   13.6193 C   0  0  0  0  0  0  0  0  0  0  0  0
   44.9269    4.0419   12.7672 C   0  0  0  0  0  0  0  0  0  0  0  0
   43.0546    9.0394   10.7844 C   0  0  0  0  0  0  0  0  0  0  0  0
   46.1187    4.0028   13.4379 C   0  0  0  0  0  0  0  0  0  0  0  0
   48.8742    9.8059   13.0667 C   0  0  0  0  0  0  0  0  0  0  0  0
   45.9864    4.1549   13.2184 O   0  0  0  0  0  0  0  0  0  0  0  0
   43.5363    3.1246   12.7274 O   0  0  0  0  0  0  0  0  0  0  0  0
   45.7230   10.4225   12.1668 N   0  0  0  0  0  0  0  0  0  0  0  0
   45.8129    9.1157   11.5475 C   0  0  1  0  0  0  0  0  0  0  0  0
   46.7744    8.2388   12.1875 C   0  0  0  0  0  0  0  0  0  0  0  0
   46.6201    6.9318   12.5601 C   0  0  0  0  0  0  0  0  0  0  0  0
   45.3130    6.3307   12.3421 C   0  0  0  0  0  0  0  0  0  0  0  0
   44.3469    7.1154   11.7900 C   0  0  0  0  0  0  0  0  0  0  0  0
   48.0428    8.7959   12.4392 C   0  0  0  0  0  0  0  0  0  0  0  0
   44.4593    8.5353   11.4260 C   0  0  0  0  0  0  0  0  0  0  0  0
   45.0675    5.0191   12.6572 C   0  0  0  0  0  0  0  0  0  0  0  0
   47.6480    6.2227   13.1402 C   0  0  0  0  0  0  0  0  0  0  0  0
   48.1953   10.2203   12.0310 C   0  0  0  0  0  0  0  0  0  0  0  0
   46.9939   11.0378   12.4034 C   0  0  0  0  0  0  0  0  0  0  0  0
   49.0636    8.1158   13.0079 C   0  0  0  0  0  0  0  0  0  0  0  0
   43.1004    6.5238   11.5599 C   0  0  0  0  0  0  0  0  0  0  0  0
   43.8072    4.4539   12.4151 C   0  0  0  0  0  0  0  0  0  0  0  0
   48.9047    6.8060   13.3788 C   0  0  0  0  0  0  0  0  0  0  0  0
   42.8203    5.2263   11.8591 C   0  0  0  0  0  0  0  0  0  0  0  0
   44.9728   11.2670   11.2486 C   0  0  0  0  0  0  0  0  0  0  0  0
   46.3339    8.5672   12.2902 H   0  0  0  0  0  0  0  0  0  0  0  0
   45.7540    7.0874   12.3808 H   0  0  0  0  0  0  0  0  0  0  0  0
   46.1144    8.5304   12.2361 H   0  0  0  0  0  0  0  0  0  0  0  0
   46.1155    8.5331   12.2359 H   0  0  0  0  0  0  0  0  0  0  0  0
   42.3724    4.8336   12.0202 H   0  0  0  0  0  0  0  0  0  0  0  0
   44.1656    2.4662   11.6441 H   0  0  0  0  0  0  0  0  0  0  0  0
   46.4495    9.4414   13.8936 H   0  0  0  0  0  0  0  0  0  0  0  0
   48.2266    7.3703   12.8931 H   0  0  0  0  0  0  0  0  0  0  0  0
   47.4354    7.5436   14.4936 H   0  0  0  0  0  0  0  0  0  0  0  0
   42.8516    6.9850   11.0426 H   0  0  0  0  0  0  0  0  0  0  0  0
   45.9375   11.2733   13.1150 H   0  0  0  0  0  0  0  0  0  0  0  0
   45.6278   12.1043   11.4790 H   0  0  0  0  0  0  0  0  0  0  0  0
   48.0074   11.5880   11.6555 H   0  0  0  0  0  0  0  0  0  0  0  0
   47.1603   10.5198   10.4753 H   0  0  0  0  0  0  0  0  0  0  0  0
   43.4902   11.0946   10.6590 H   0  0  0  0  0  0  0  0  0  0  0  0
   47.7685    5.0820   14.1566 H   0  0  0  0  0  0  0  0  0  0  0  0
   42.1289    9.1279   10.2323 H   0  0  0  0  0  0  0  0  0  0  0  0
   46.4567    3.0494   13.8025 H   0  0  0  0  0  0  0  0  0  0  0  0
   49.4554   10.6775   12.6686 H   0  0  0  0  0  0  0  0  0  0  0  0
   49.5348    8.9256   13.0674 H   0  0  0  0  0  0  0  0  0  0  0  0
   48.5991   10.0731   14.1077 H   0  0  0  0  0  0  0  0  0  0  0  0
   45.7196    3.5016   13.9241 H   0  0  0  0  0  0  0  0  0  0  0  0
   43.5094    2.8861   13.7201 H   0  0  0  0  0  0  0  0  0  0  0  0
   46.1690    9.2925   10.4782 H   0  0  0  0  0  0  0  0  0  0  0  0
   43.7798    9.0728   12.1760 H   0  0  0  0  0  0  0  0  0  0  0  0
   44.0132    8.6789   10.4008 H   0  0  0  0  0  0  0  0  0  0  0  0
   47.5878    5.1985   13.4536 H   0  0  0  0  0  0  0  0  0  0  0  0
   48.3332   10.2521   10.9393 H   0  0  0  0  0  0  0  0  0  0  0  0
   49.0795   10.6271   12.5261 H   0  0  0  0  0  0  0  0  0  0  0  0
   47.0622   11.2792   13.4891 H   0  0  0  0  0  0  0  0  0  0  0  0
   47.0930   12.0153   11.8595 H   0  0  0  0  0  0  0  0  0  0  0  0
   50.0155    8.5774   13.1827 H   0  0  0  0  0  0  0  0  0  0  0  0
   42.2982    7.1132   11.1195 H   0  0  0  0  0  0  0  0  0  0  0  0
   49.7105    6.2583   13.8307 H   0  0  0  0  0  0  0  0  0  0  0  0
   41.8628    4.7651   11.6844 H   0  0  0  0  0  0  0  0  0  0  0  0
   43.8873   11.2198   11.4877 H   0  0  0  0  0  0  0  0  0  0  0  0
   45.2633   12.3370   11.3319 H   0  0  0  0  0  0  0  0  0  0  0  0
   45.0625   10.9516   10.1897 H   0  0  0  0  0  0  0  0  0  0  0  0
  4 14  1  0
  5 20  1  0
  6  7  1  0
  6 17  1  0
  6 23  1  0
  7  8  1  0
  7 13  1  0
  8  9  1  0
  8 12  2  0
  9 10  1  0
  9 15  2  0
 10 11  2  0
 10 14  1  0
 11 13  1  0
 11 19  1  0
 12 16  1  0
 12 18  1  0
 14 20  2  0
 15 21  1  0
 16 17  1  0
 18 21  2  0
 19 22  2  0
 20 22  1  0
 24 34  1  0
 25 40  1  0
 26 27  1  0
 26 37  1  0
 26 43  1  0
 27 28  1  0
 27 33  1  0
 28 29  1  0
 28 32  2  0
 29 30  1  0
 29 35  2  0
 30 31  2  0
 30 34  1  0
 31 33  1  0
 31 39  1  0
 32 36  1  0
 32 38  1  0
 34 40  2  0
 35 41  1  0
 36 37  1  0
 38 41  2  0
 39 42  2  0
 40 42  1  0
  1 44  1  0
  1 45  1  0
  2 46  1  0
  3 47  1  0
  4 48  1  0
  5 49  1  0
  7 50  1  6
 13 51  1  0
 13 52  1  0
 15 53  1  0
 16 54  1  0
 16 55  1  0
 17 56  1  0
 17 57  1  0
 18 58  1  0
 19 59  1  0
 21 60  1  0
 22 61  1  0
 23 62  1  0
 23 63  1  0
 23 64  1  0
 24 65  1  0
 25 66  1  0
 27 67  1  1
 33 68  1  0
 33 69  1  0
 35 70  1  0
 36 71  1  0
 36 72  1  0
 37 73  1  0
 37 74  1  0
 38 75  1  0
 39 76  1  0
 41 77  1  0
 42 78  1  0
 43 79  1  0
 43 80  1  0
 43 81  1  0
M  END
> <Uni-Dock RESULT> 
ENERGY=   -8.643  LOWER_BOUND=    0.000  UPPER_BOUND=    0.000
INTER + INTRA:          -8.643
INTER:                  -8.643
INTRA:                   0.000
UNBOUND:                 0.000

$$$$

     RDKit          3D

 81 84  0  0  0  0  0  0  0  0999 V2000
   46.3316    7.9750   12.5122 O   0  0  0  0  0  0  0  0  0  0  0  0
   45.6750    7.5348   12.4444 Cl  0  0  0  0  0  0  0  0  0  0  0  0
   45.6737    7.5323   12.4447 Cl  0  0  0  0  0  0  0  0  0  0  0  0
   45.6663    4.5612   13.7249 O   0  0  0  0  0  0  0  0  0  0  0  0
   43.2501    3.6213   12.9542 O   0  0  0  0  0  0  0  0  0  0  0  0
   46.0430   10.6046   11.9584 N   0  0  0  0  0  0  0  0  0  0  0  0
   46.1639    9.2449   11.4565 C   0  0  1  0  0  0  0  0  0  0  0  0
   46.9673    8.4010   12.3692 C   0  0  0  0  0  0  0  0  0  0  0  0
   46.6143    7.1763   12.8418 C   0  0  0  0  0  0  0  0  0  0  0  0
   45.3235    6.6285   12.4728 C   0  0  0  0  0  0  0  0  0  0  0  0
   44.5091    7.3726   11.6626 C   0  0  0  0  0  0  0  0  0  0  0  0
   48.2070    8.9478   12.7407 C   0  0  0  0  0  0  0  0  0  0  0  0
   44.8170    8.7172   11.1435 C   0  0  0  0  0  0  0  0  0  0  0  0
   44.9257    5.3895   12.9090 C   0  0  0  0  0  0  0  0  0  0  0  0
   47.4810    6.5023   13.6713 C   0  0  0  0  0  0  0  0  0  0  0  0
   48.4870   10.2991   12.1673 C   0  0  0  0  0  0  0  0  0  0  0  0
   47.2657   11.1391   12.4918 C   0  0  0  0  0  0  0  0  0  0  0  0
   49.0528    8.2724   13.5600 C   0  0  0  0  0  0  0  0  0  0  0  0
   43.2653    6.8464   11.2874 C   0  0  0  0  0  0  0  0  0  0  0  0
   43.6792    4.8837   12.5222 C   0  0  0  0  0  0  0  0  0  0  0  0
   48.7211    7.0460   14.0438 C   0  0  0  0  0  0  0  0  0  0  0  0
   42.8615    5.6232   11.7121 C   0  0  0  0  0  0  0  0  0  0  0  0
   45.4703   11.4537   10.9344 C   0  0  0  0  0  0  0  0  0  0  0  0
   43.0667    5.6625   11.9246 O   0  0  0  0  0  0  0  0  0  0  0  0
   43.8911    3.2673   12.8673 O   0  0  0  0  0  0  0  0  0  0  0  0
   48.0071    9.6625   12.1494 N   0  0  0  0  0  0  0  0  0  0  0  0
   46.9681    9.0117   12.9215 C   0  0  1  0  0  0  0  0  0  0  0  0
   45.6659    9.0502   12.2845 C   0  0  0  0  0  0  0  0  0  0  0  0
   44.7696    8.0311   12.1145 C   0  0  0  0  0  0  0  0  0  0  0  0
   45.1696    6.7122   12.5812 C   0  0  0  0  0  0  0  0  0  0  0  0
   46.4035    6.5950   13.1450 C   0  0  0  0  0  0  0  0  0  0  0  0
   45.2571   10.3059   11.7957 C   0  0  0  0  0  0  0  0  0  0  0  0
   47.4126    7.6532   13.2968 C   0  0  0  0  0  0  0  0  0  0  0  0
   44.3302    5.6329   12.4804 C   0  0  0  0  0  0  0  0  0  0  0  0
   43.5522    8.2376   11.5050 C   0  0  0  0  0  0  0  0  0  0  0  0
   46.2443   11.4051   11.9851 C   0  0  0  0  0  0  0  0  0  0  0  0
   47.6410   10.9599   11.6673 C   0  0  0  0  0  0  0  0  0  0  0  0
   44.0666   10.5276   11.1944 C   0  0  0  0  0  0  0  0  0  0  0  0
   46.7714    5.3297   13.6143 C   0  0  0  0  0  0  0  0  0  0  0  0
   44.7273    4.3764   12.9597 C   0  0  0  0  0  0  0  0  0  0  0  0
   43.1712    9.5036   11.0272 C   0  0  0  0  0  0  0  0  0  0  0  0
   45.9655    4.2365   13.5317 C   0  0  0  0  0  0  0  0  0  0  0  0
   49.1515    9.8131   13.0363 C   0  0  0  0  0  0  0  0  0  0  0  0
   46.2003    8.9115   12.1974 H   0  0  0  0  0  0  0  0  0  0  0  0
   45.4551    7.5172   12.3835 H   0  0  0  0  0  0  0  0  0  0  0  0
   46.3164    8.7343   12.2843 H   0  0  0  0  0  0  0  0  0  0  0  0
   46.3177    8.7369   12.2840 H   0  0  0  0  0  0  0  0  0  0  0  0
   45.9571    3.6211   13.4851 H   0  0  0  0  0  0  0  0  0  0  0  0
   42.9996    3.5199   13.9372 H   0  0  0  0  0  0  0  0  0  0  0  0
   46.7611    9.2556   10.4899 H   0  0  0  0  0  0  0  0  0  0  0  0
   44.0491    9.4483   11.5174 H   0  0  0  0  0  0  0  0  0  0  0  0
   44.6698    8.6683   10.0262 H   0  0  0  0  0  0  0  0  0  0  0  0
   47.2918    5.5351   14.0931 H   0  0  0  0  0  0  0  0  0  0  0  0
   48.4966   10.1880   11.0756 H   0  0  0  0  0  0  0  0  0  0  0  0
   49.3554   10.7935   12.6114 H   0  0  0  0  0  0  0  0  0  0  0  0
   47.4098   12.2079   12.1947 H   0  0  0  0  0  0  0  0  0  0  0  0
   47.1717   11.1147   13.6088 H   0  0  0  0  0  0  0  0  0  0  0  0
   49.9972    8.7063   13.8334 H   0  0  0  0  0  0  0  0  0  0  0  0
   42.5921    7.4093   10.6443 H   0  0  0  0  0  0  0  0  0  0  0  0
   49.4009    6.5146   14.6958 H   0  0  0  0  0  0  0  0  0  0  0  0
   41.9123    5.1988   11.4377 H   0  0  0  0  0  0  0  0  0  0  0  0
   45.7587   12.5185   11.1318 H   0  0  0  0  0  0  0  0  0  0  0  0
   44.3723   11.3851   10.9652 H   0  0  0  0  0  0  0  0  0  0  0  0
   45.8350   11.2238    9.9121 H   0  0  0  0  0  0  0  0  0  0  0  0
   42.7337    4.9142   11.3544 H   0  0  0  0  0  0  0  0  0  0  0  0
   43.7114    2.9091   11.9280 H   0  0  0  0  0  0  0  0  0  0  0  0
   46.8877    9.5906   13.9013 H   0  0  0  0  0  0  0  0  0  0  0  0
   48.2507    7.3482   12.5772 H   0  0  0  0  0  0  0  0  0  0  0  0
   47.8293    7.6037   14.3431 H   0  0  0  0  0  0  0  0  0  0  0  0
   42.8098    7.4804   11.3429 H   0  0  0  0  0  0  0  0  0  0  0  0
   46.1965   11.7329   13.0349 H   0  0  0  0  0  0  0  0  0  0  0  0
   45.9679   12.2324   11.3279 H   0  0  0  0  0  0  0  0  0  0  0  0
   47.7616   10.9616   10.5596 H   0  0  0  0  0  0  0  0  0  0  0  0
   48.3264   11.7596   12.0571 H   0  0  0  0  0  0  0  0  0  0  0  0
   43.7931   11.5003   10.8357 H   0  0  0  0  0  0  0  0  0  0  0  0
   47.7485    5.1892   14.0730 H   0  0  0  0  0  0  0  0  0  0  0  0
   42.2232    9.6712   10.5510 H   0  0  0  0  0  0  0  0  0  0  0  0
   46.2431    3.2598   13.8912 H   0  0  0  0  0  0  0  0  0  0  0  0
   49.8195    8.9276   12.9505 H   0  0  0  0  0  0  0  0  0  0  0  0
   49.7719   10.6973   12.7725 H   0  0  0  0  0  0  0  0  0  0  0  0
   48.8715    9.8771   14.1070 H   0  0  0  0  0  0  0  0  0  0  0  0
  4 14  1  0
  5 20  1  0
  6  7  1  0
  6 17  1  0
  6 23  1  0
  7  8  1  0
  7 13  1  0
  8  9  1  0
  8 12  2  0
  9 10  1  0
  9 15  2  0
 10 11  2  0
 10 14  1  0
 11 13  1  0
 11 19  1  0
 12 16  1  0
 12 18  1  0
 14 20  2  0
 15 21  1  0
 16 17  1  0
 18 21  2  0
 19 22  2  0
 20 22  1  0
 24 34  1  0
 25 40  1  0
 26 27  1  0
 26 37  1  0
 26 43  1  0
 27 28  1  0
 27 33  1  0
 28 29  1  0
 28 32  2  0
 29 30  1  0
 29 35  2  0
 30 31  2  0
 30 34  1  0
 31 33  1  0
 31 39  1  0
 32 36  1  0
 32 38  1  0
 34 40  2  0
 35 41  1  0
 36 37  1  0
 38 41  2  0
 39 42  2  0
 40 42  1  0
  1 44  1  0
  1 45  1  0
  2 46  1  0
  3 47  1  0
  4 48  1  0
  5 49  1  0
  7 50  1  6
 13 51  1  0
 13 52  1  0
 15 53  1  0
 16 54  1  0
 16 55  1  0
 17 56  1  0
 17 57  1  0
 18 58  1  0
 19 59  1  0
 21 60  1  0
 22 61  1  0
 23 62  1  0
 23 63  1  0
 23 64  1  0
 24 65  1  0
 25 66  1  0
 27 67  1  1
 33 68  1  0
 33 69  1  0
 35 70  1  0
 36 71  1  0
 36 72  1  0
 37 73  1  0
 37 74  1  0
 38 75  1  0
 39 76  1  0
 41 77  1  0
 42 78  1  0
 43 79  1  0
 43 80  1  0
 43 81  1  0
M  END
> <Uni-Dock RESULT> 
ENERGY=   -7.912  LOWER_BOUND=    0.452  UPPER_BOUND=    3.268
INTER + INTRA:          -7.912
INTER:                  -7.912
INTRA:                   0.000
UNBOUND:                 0.000

$$$$

     RDKit          3D

 81 84  0  0  0  0  0  0  0  0999 V2000
   45.2324    6.8278   12.3433 O   0  0  0  0  0  0  0  0  0  0  0  0
   45.4086    7.6014   12.3479 Cl  0  0  0  0  0  0  0  0  0  0  0  0
   45.4080    7.6041   12.3471 Cl  0  0  0  0  0  0  0  0  0  0  0  0
   43.2564    9.6865   11.1221 O   0  0  0  0  0  0  0  0  0  0  0  0
   44.5857   12.0359   11.2921 O   0  0  0  0  0  0  0  0  0  0  0  0
   46.7885    5.2612   13.9017 N   0  0  0  0  0  0  0  0  0  0  0  0
   46.6437    6.0166   12.6674 C   0  0  1  0  0  0  0  0  0  0  0  0
   45.2331    6.0590   12.2215 C   0  0  0  0  0  0  0  0  0  0  0  0
   44.5428    7.1736   11.8622 C   0  0  0  0  0  0  0  0  0  0  0  0
   45.2010    8.4628   11.9470 C   0  0  0  0  0  0  0  0  0  0  0  0
   46.4950    8.5040   12.3906 C   0  0  0  0  0  0  0  0  0  0  0  0
   44.5946    4.8089   12.1632 C   0  0  0  0  0  0  0  0  0  0  0  0
   47.2875    7.3398   12.8251 C   0  0  0  0  0  0  0  0  0  0  0  0
   44.5546    9.6167   11.5805 C   0  0  0  0  0  0  0  0  0  0  0  0
   43.2361    7.0490   11.4490 C   0  0  0  0  0  0  0  0  0  0  0  0
   45.4463    3.6559   12.5857 C   0  0  0  0  0  0  0  0  0  0  0  0
   46.0198    4.0474   13.9348 C   0  0  0  0  0  0  0  0  0  0  0  0
   43.3048    4.6999   11.7540 C   0  0  0  0  0  0  0  0  0  0  0  0
   47.1460    9.7434   12.4624 C   0  0  0  0  0  0  0  0  0  0  0  0
   45.2238   10.8435   11.6605 C   0  0  0  0  0  0  0  0  0  0  0  0
   42.5955    5.8007   11.3891 C   0  0  0  0  0  0  0  0  0  0  0  0
   46.5176   10.8903   12.1027 C   0  0  0  0  0  0  0  0  0  0  0  0
   48.1927    5.0322   14.1720 C   0  0  0  0  0  0  0  0  0  0  0  0
   46.2688   10.7316   12.1444 O   0  0  0  0  0  0  0  0  0  0  0  0
   44.2485   11.7813   10.6877 O   0  0  0  0  0  0  0  0  0  0  0  0
   45.4322    4.4314   12.4004 N   0  0  0  0  0  0  0  0  0  0  0  0
   45.0056    5.7100   12.9317 C   0  0  1  0  0  0  0  0  0  0  0  0
   46.1066    6.5964   13.2561 C   0  0  0  0  0  0  0  0  0  0  0  0
   46.2555    7.9199   12.9448 C   0  0  0  0  0  0  0  0  0  0  0  0
   45.2094    8.5331   12.1405 C   0  0  0  0  0  0  0  0  0  0  0  0
   44.1690    7.7425   11.7577 C   0  0  0  0  0  0  0  0  0  0  0  0
   47.1511    6.0292   14.0110 C   0  0  0  0  0  0  0  0  0  0  0  0
   44.0007    6.3073   12.0277 C   0  0  0  0  0  0  0  0  0  0  0  0
   45.2547    9.8604   11.7997 C   0  0  0  0  0  0  0  0  0  0  0  0
   47.3595    8.6351   13.3519 C   0  0  0  0  0  0  0  0  0  0  0  0
   46.9766    4.5869   14.3400 C   0  0  0  0  0  0  0  0  0  0  0  0
   46.4683    3.8054   13.1649 C   0  0  0  0  0  0  0  0  0  0  0  0
   48.2424    6.7151   14.4192 C   0  0  0  0  0  0  0  0  0  0  0  0
   43.1545    8.3448   11.0063 C   0  0  0  0  0  0  0  0  0  0  0  0
   44.2226   10.4360   11.0449 C   0  0  0  0  0  0  0  0  0  0  0  0
   48.3870    8.0414   14.1057 C   0  0  0  0  0  0  0  0  0  0  0  0
   43.1652    9.6579   10.6497 C   0  0  0  0  0  0  0  0  0  0  0  0
   44.2644    3.5625   12.4200 C   0  0  0  0  0  0  0  0  0  0  0  0
   45.8955    6.2799   12.8466 H   0  0  0  0  0  0  0  0  0  0  0  0
   45.5473    7.7715   12.4131 H   0  0  0  0  0  0  0  0  0  0  0  0
   45.7081    6.3180   12.7208 H   0  0  0  0  0  0  0  0  0  0  0  0
   45.7087    6.3153   12.7216 H   0  0  0  0  0  0  0  0  0  0  0  0
   42.9786   10.0643   10.2244 H   0  0  0  0  0  0  0  0  0  0  0  0
   43.8488   12.3842   11.9042 H   0  0  0  0  0  0  0  0  0  0  0  0
   47.1836    5.4702   11.8300 H   0  0  0  0  0  0  0  0  0  0  0  0
   47.5839    7.4689   13.9019 H   0  0  0  0  0  0  0  0  0  0  0  0
   48.2512    7.3745   12.2396 H   0  0  0  0  0  0  0  0  0  0  0  0
   42.6123    7.8670   11.1473 H   0  0  0  0  0  0  0  0  0  0  0  0
   46.2979    3.6167   11.8947 H   0  0  0  0  0  0  0  0  0  0  0  0
   44.8893    2.7247   12.7211 H   0  0  0  0  0  0  0  0  0  0  0  0
   46.5983    3.2083   14.3960 H   0  0  0  0  0  0  0  0  0  0  0  0
   45.1335    4.2412   14.5939 H   0  0  0  0  0  0  0  0  0  0  0  0
   42.8328    3.7351   11.7155 H   0  0  0  0  0  0  0  0  0  0  0  0
   48.1745    9.8144   12.8097 H   0  0  0  0  0  0  0  0  0  0  0  0
   41.5685    5.7049   11.0640 H   0  0  0  0  0  0  0  0  0  0  0  0
   46.9960   11.8522   12.1493 H   0  0  0  0  0  0  0  0  0  0  0  0
   48.3011    4.1355   14.8355 H   0  0  0  0  0  0  0  0  0  0  0  0
   48.6168    5.9007   14.6984 H   0  0  0  0  0  0  0  0  0  0  0  0
   48.7896    4.8125   13.2630 H   0  0  0  0  0  0  0  0  0  0  0  0
   46.6035   11.4176   11.5015 H   0  0  0  0  0  0  0  0  0  0  0  0
   44.9650   12.0607   10.0158 H   0  0  0  0  0  0  0  0  0  0  0  0
   44.4503    5.4837   13.9023 H   0  0  0  0  0  0  0  0  0  0  0  0
   44.1162    5.8123   11.0007 H   0  0  0  0  0  0  0  0  0  0  0  0
   42.9424    6.1292   12.3728 H   0  0  0  0  0  0  0  0  0  0  0  0
   47.5328    9.6722   13.1389 H   0  0  0  0  0  0  0  0  0  0  0  0
   46.2564    4.5082   15.1688 H   0  0  0  0  0  0  0  0  0  0  0  0
   47.9432    4.1862   14.6526 H   0  0  0  0  0  0  0  0  0  0  0  0
   47.3270    3.6076   12.4828 H   0  0  0  0  0  0  0  0  0  0  0  0
   46.1485    2.8049   13.5623 H   0  0  0  0  0  0  0  0  0  0  0  0
   49.0166    6.2454   14.9934 H   0  0  0  0  0  0  0  0  0  0  0  0
   42.3029    7.7512   10.6789 H   0  0  0  0  0  0  0  0  0  0  0  0
   49.2505    8.5937   14.4264 H   0  0  0  0  0  0  0  0  0  0  0  0
   42.3872   10.1273   10.0714 H   0  0  0  0  0  0  0  0  0  0  0  0
   43.7173    3.6374   11.4543 H   0  0  0  0  0  0  0  0  0  0  0  0
   44.5411    2.4922   12.5384 H   0  0  0  0  0  0  0  0  0  0  0  0
   43.5296    3.8327   13.2048 H   0  0  0  0  0  0  0  0  0  0  0  0
  4 14  1  0
  5 20  1  0
  6  7  1  0
  6 17  1  0
  6 23  1  0
  7  8  1  0
  7 13  1  0
  8  9  1  0
  8 12  2  0
  9 10  1  0
  9 15  2  0
 10 11  2  0
 10 14  1  0
 11 13  1  0
 11 19  1  0
 12 16  1  0
 12 18  1  0
 14 20  2  0
 15 21  1  0
 16 17  1  0
 18 21  2  0
 19 22  2  0
 20 22  1  0
 24 34  1  0
 25 40  1  0
 26 27  1  0
 26 37  1  0
 26 43  1  0
 27 28  1  0
 27 33  1  0
 28 29  1  0
 28 32  2  0
 29 30  1  0
 29 35  2  0
 30 31  2  0
 30 34  1  0
 31 33  1  0
 31 39  1  0
 32 36  1  0
 32 38  1  0
 34 40  2  0
 35 41  1  0
 36 37  1  0
 38 41  2  0
 39 42  2  0
 40 42  1  0
  1 44  1  0
  1 45  1  0
  2 46  1  0
  3 47  1  0
  4 48  1  0
  5 49  1  0
  7 50  1  6
 13 51  1  0
 13 52  1  0
 15 53  1  0
 16 54  1  0
 16 55  1  0
 17 56  1  0
 17 57  1  0
 18 58  1  0
 19 59  1  0
 21 60  1  0
 22 61  1  0
 23 62  1  0
 23 63  1  0
 23 64  1  0
 24 65  1  0
 25 66  1  0
 27 67  1  1
 33 68  1  0
 33 69  1  0
 35 70  1  0
 36 71  1  0
 36 72  1  0
 37 73  1  0
 37 74  1  0
 38 75  1  0
 39 76  1  0
 41 77  1  0
 42 78  1  0
 43 79  1  0
 43 80  1  0
 43 81  1  0
M  END
> <Uni-Dock RESULT> 
ENERGY=   -7.905  LOWER_BOUND=    1.720  UPPER_BOUND=    4.710
INTER + INTRA:          -7.905
INTER:                  -7.905
INTRA:                   0.000
UNBOUND:                 0.000

$$$$

     RDKit          3D

 81 84  0  0  0  0  0  0  0  0999 V2000
   45.2324    6.8279   12.3433 O   0  0  0  0  0  0  0  0  0  0  0  0
   45.4086    7.6014   12.3479 Cl  0  0  0  0  0  0  0  0  0  0  0  0
   45.4080    7.6041   12.3471 Cl  0  0  0  0  0  0  0  0  0  0  0  0
   43.2563    9.6865   11.1221 O   0  0  0  0  0  0  0  0  0  0  0  0
   44.5857   12.0359   11.2921 O   0  0  0  0  0  0  0  0  0  0  0  0
   46.7885    5.2612   13.9017 N   0  0  0  0  0  0  0  0  0  0  0  0
   46.6437    6.0166   12.6674 C   0  0  1  0  0  0  0  0  0  0  0  0
   45.2331    6.0591   12.2215 C   0  0  0  0  0  0  0  0  0  0  0  0
   44.5428    7.1736   11.8622 C   0  0  0  0  0  0  0  0  0  0  0  0
   45.2010    8.4628   11.9470 C   0  0  0  0  0  0  0  0  0  0  0  0
   46.4950    8.5041   12.3906 C   0  0  0  0  0  0  0  0  0  0  0  0
   44.5946    4.8089   12.1632 C   0  0  0  0  0  0  0  0  0  0  0  0
   47.2875    7.3399   12.8251 C   0  0  0  0  0  0  0  0  0  0  0  0
   44.5546    9.6167   11.5805 C   0  0  0  0  0  0  0  0  0  0  0  0
   43.2361    7.0490   11.4490 C   0  0  0  0  0  0  0  0  0  0  0  0
   45.4463    3.6559   12.5857 C   0  0  0  0  0  0  0  0  0  0  0  0
   46.0198    4.0474   13.9349 C   0  0  0  0  0  0  0  0  0  0  0  0
   43.3048    4.6999   11.7540 C   0  0  0  0  0  0  0  0  0  0  0  0
   47.1460    9.7434   12.4624 C   0  0  0  0  0  0  0  0  0  0  0  0
   45.2238   10.8435   11.6605 C   0  0  0  0  0  0  0  0  0  0  0  0
   42.5955    5.8007   11.3891 C   0  0  0  0  0  0  0  0  0  0  0  0
   46.5176   10.8903   12.1027 C   0  0  0  0  0  0  0  0  0  0  0  0
   48.1927    5.0322   14.1720 C   0  0  0  0  0  0  0  0  0  0  0  0
   46.2688   10.7316   12.1444 O   0  0  0  0  0  0  0  0  0  0  0  0
   44.2485   11.7813   10.6877 O   0  0  0  0  0  0  0  0  0  0  0  0
   45.4322    4.4314   12.4004 N   0  0  0  0  0  0  0  0  0  0  0  0
   45.0056    5.7100   12.9317 C   0  0  1  0  0  0  0  0  0  0  0  0
   46.1066    6.5964   13.2561 C   0  0  0  0  0  0  0  0  0  0  0  0
   46.2555    7.9199   12.9448 C   0  0  0  0  0  0  0  0  0  0  0  0
   45.2094    8.5331   12.1405 C   0  0  0  0  0  0  0  0  0  0  0  0
   44.1690    7.7425   11.7577 C   0  0  0  0  0  0  0  0  0  0  0  0
   47.1511    6.0292   14.0110 C   0  0  0  0  0  0  0  0  0  0  0  0
   44.0007    6.3073   12.0277 C   0  0  0  0  0  0  0  0  0  0  0  0
   45.2547    9.8604   11.7997 C   0  0  0  0  0  0  0  0  0  0  0  0
   47.3595    8.6352   13.3519 C   0  0  0  0  0  0  0  0  0  0  0  0
   46.9766    4.5870   14.3400 C   0  0  0  0  0  0  0  0  0  0  0  0
   46.4683    3.8054   13.1649 C   0  0  0  0  0  0  0  0  0  0  0  0
   48.2424    6.7151   14.4192 C   0  0  0  0  0  0  0  0  0  0  0  0
   43.1545    8.3448   11.0063 C   0  0  0  0  0  0  0  0  0  0  0  0
   44.2226   10.4360   11.0449 C   0  0  0  0  0  0  0  0  0  0  0  0
   48.3870    8.0414   14.1057 C   0  0  0  0  0  0  0  0  0  0  0  0
   43.1652    9.6579   10.6497 C   0  0  0  0  0  0  0  0  0  0  0  0
   44.2645    3.5625   12.4200 C   0  0  0  0  0  0  0  0  0  0  0  0
   45.8955    6.2799   12.8466 H   0  0  0  0  0  0  0  0  0  0  0  0
   45.5473    7.7715   12.4131 H   0  0  0  0  0  0  0  0  0  0  0  0
   45.7081    6.3180   12.7208 H   0  0  0  0  0  0  0  0  0  0  0  0
   45.7087    6.3153   12.7216 H   0  0  0  0  0  0  0  0  0  0  0  0
   42.9786   10.0643   10.2244 H   0  0  0  0  0  0  0  0  0  0  0  0
   43.8488   12.3843   11.9042 H   0  0  0  0  0  0  0  0  0  0  0  0
   47.1836    5.4702   11.8300 H   0  0  0  0  0  0  0  0  0  0  0  0
   47.5839    7.4690   13.9019 H   0  0  0  0  0  0  0  0  0  0  0  0
   48.2512    7.3745   12.2396 H   0  0  0  0  0  0  0  0  0  0  0  0
   42.6123    7.8670   11.1473 H   0  0  0  0  0  0  0  0  0  0  0  0
   46.2979    3.6167   11.8947 H   0  0  0  0  0  0  0  0  0  0  0  0
   44.8893    2.7247   12.7211 H   0  0  0  0  0  0  0  0  0  0  0  0
   46.5983    3.2083   14.3960 H   0  0  0  0  0  0  0  0  0  0  0  0
   45.1335    4.2412   14.5939 H   0  0  0  0  0  0  0  0  0  0  0  0
   42.8328    3.7351   11.7155 H   0  0  0  0  0  0  0  0  0  0  0  0
   48.1745    9.8144   12.8097 H   0  0  0  0  0  0  0  0  0  0  0  0
   41.5685    5.7049   11.0640 H   0  0  0  0  0  0  0  0  0  0  0  0
   46.9960   11.8522   12.1492 H   0  0  0  0  0  0  0  0  0  0  0  0
   48.3011    4.1355   14.8356 H   0  0  0  0  0  0  0  0  0  0  0  0
   48.6168    5.9007   14.6984 H   0  0  0  0  0  0  0  0  0  0  0  0
   48.7896    4.8125   13.2630 H   0  0  0  0  0  0  0  0  0  0  0  0
   46.6035   11.4176   11.5015 H   0  0  0  0  0  0  0  0  0  0  0  0
   44.9650   12.0607   10.0158 H   0  0  0  0  0  0  0  0  0  0  0  0
   44.4503    5.4837   13.9023 H   0  0  0  0  0  0  0  0  0  0  0  0
   44.1162    5.8123   11.0007 H   0  0  0  0  0  0  0  0  0  0  0  0
   42.9424    6.1292   12.3728 H   0  0  0  0  0  0  0  0  0  0  0  0
   47.5327    9.6722   13.1389 H   0  0  0  0  0  0  0  0  0  0  0  0
   46.2564    4.5082   15.1688 H   0  0  0  0  0  0  0  0  0  0  0  0
   47.9432    4.1862   14.6526 H   0  0  0  0  0  0  0  0  0  0  0  0
   47.3270    3.6076   12.4828 H   0  0  0  0  0  0  0  0  0  0  0  0
   46.1485    2.8049   13.5623 H   0  0  0  0  0  0  0  0  0  0  0  0
   49.0166    6.2454   14.9934 H   0  0  0  0  0  0  0  0  0  0  0  0
   42.3029    7.7512   10.6789 H   0  0  0  0  0  0  0  0  0  0  0  0
   49.2505    8.5938   14.4264 H   0  0  0  0  0  0  0  0  0  0  0  0
   42.3872   10.1273   10.0714 H   0  0  0  0  0  0  0  0  0  0  0  0
   43.7173    3.6374   11.4543 H   0  0  0  0  0  0  0  0  0  0  0  0
   44.5411    2.4922   12.5385 H   0  0  0  0  0  0  0  0  0  0  0  0
   43.5296    3.8327   13.2048 H   0  0  0  0  0  0  0  0  0  0  0  0
  4 14  1  0
  5 20  1  0
  6  7  1  0
  6 17  1  0
  6 23  1  0
  7  8  1  0
  7 13  1  0
  8  9  1  0
  8 12  2  0
  9 10  1  0
  9 15  2  0
 10 11  2  0
 10 14  1  0
 11 13  1  0
 11 19  1  0
 12 16  1  0
 12 18  1  0
 14 20  2  0
 15 21  1  0
 16 17  1  0
 18 21  2  0
 19 22  2  0
 20 22  1  0
 24 34  1  0
 25 40  1  0
 26 27  1  0
 26 37  1  0
 26 43  1  0
 27 28  1  0
 27 33  1  0
 28 29  1  0
 28 32  2  0
 29 30  1  0
 29 35  2  0
 30 31  2  0
 30 34  1  0
 31 33  1  0
 31 39  1  0
 32 36  1  0
 32 38  1  0
 34 40  2  0
 35 41  1  0
 36 37  1  0
 38 41  2  0
 39 42  2  0
 40 42  1  0
  1 44  1  0
  1 45  1  0
  2 46  1  0
  3 47  1  0
  4 48  1  0
  5 49  1  0
  7 50  1  6
 13 51  1  0
 13 52  1  0
 15 53  1  0
 16 54  1  0
 16 55  1  0
 17 56  1  0
 17 57  1  0
 18 58  1  0
 19 59  1  0
 21 60  1  0
 22 61  1  0
 23 62  1  0
 23 63  1  0
 23 64  1  0
 24 65  1  0
 25 66  1  0
 27 67  1  1
 33 68  1  0
 33 69  1  0
 35 70  1  0
 36 71  1  0
 36 72  1  0
 37 73  1  0
 37 74  1  0
 38 75  1  0
 39 76  1  0
 41 77  1  0
 42 78  1  0
 43 79  1  0
 43 80  1  0
 43 81  1  0
M  END
> <Uni-Dock RESULT> 
ENERGY=   -7.905  LOWER_BOUND=    1.720  UPPER_BOUND=    4.710
INTER + INTRA:          -7.905
INTER:                  -7.905
INTRA:                   0.000
UNBOUND:                 0.000

$$$$

     RDKit          3D

 81 84  0  0  0  0  0  0  0  0999 V2000
   47.9011    7.9004   20.3356 O   0  0  0  0  0  0  0  0  0  0  0  0
   47.9824    8.4042   19.7280 Cl  0  0  0  0  0  0  0  0  0  0  0  0
   47.9821    8.4069   19.7269 Cl  0  0  0  0  0  0  0  0  0  0  0  0
   47.3738   11.5444   20.2295 O   0  0  0  0  0  0  0  0  0  0  0  0
   47.6570   12.5783   17.7463 O   0  0  0  0  0  0  0  0  0  0  0  0
   48.9921    5.4530   19.9834 N   0  0  0  0  0  0  0  0  0  0  0  0
   47.9037    6.3716   19.6891 C   0  0  1  0  0  0  0  0  0  0  0  0
   47.6795    7.3193   20.8036 C   0  0  0  0  0  0  0  0  0  0  0  0
   47.5767    8.6703   20.6941 C   0  0  0  0  0  0  0  0  0  0  0  0
   47.7343    9.2812   19.3886 C   0  0  0  0  0  0  0  0  0  0  0  0
   47.9844    8.4682   18.3164 C   0  0  0  0  0  0  0  0  0  0  0  0
   47.5502    6.7224   22.0689 C   0  0  0  0  0  0  0  0  0  0  0  0
   48.1394    7.0035   18.3717 C   0  0  0  0  0  0  0  0  0  0  0  0
   47.6231   10.6388   19.2205 C   0  0  0  0  0  0  0  0  0  0  0  0
   47.3471    9.4193   21.8255 C   0  0  0  0  0  0  0  0  0  0  0  0
   47.6862    5.2342   22.0708 C   0  0  0  0  0  0  0  0  0  0  0  0
   48.9764    4.9433   21.3270 C   0  0  0  0  0  0  0  0  0  0  0  0
   47.3241    7.4729   23.1772 C   0  0  0  0  0  0  0  0  0  0  0  0
   48.1237    9.0466   17.0472 C   0  0  0  0  0  0  0  0  0  0  0  0
   47.7661   11.1950   17.9441 C   0  0  0  0  0  0  0  0  0  0  0  0
   47.2168    8.8254   23.0914 C   0  0  0  0  0  0  0  0  0  0  0  0
   48.0157   10.3868   16.8689 C   0  0  0  0  0  0  0  0  0  0  0  0
   49.0204    4.3965   18.9931 C   0  0  0  0  0  0  0  0  0  0  0  0
   48.0721   10.3999   17.1612 O   0  0  0  0  0  0  0  0  0  0  0  0
   47.0804   12.6935   18.1913 O   0  0  0  0  0  0  0  0  0  0  0  0
   47.6096    5.8881   21.6208 N   0  0  0  0  0  0  0  0  0  0  0  0
   48.3628    7.0403   21.1688 C   0  0  1  0  0  0  0  0  0  0  0  0
   48.6367    7.0282   19.7447 C   0  0  0  0  0  0  0  0  0  0  0  0
   48.4853    8.0417   18.8389 C   0  0  0  0  0  0  0  0  0  0  0  0
   47.9320    9.2939   19.3321 C   0  0  0  0  0  0  0  0  0  0  0  0
   47.6047    9.3572   20.6523 C   0  0  0  0  0  0  0  0  0  0  0  0
   49.1479    5.8227   19.2269 C   0  0  0  0  0  0  0  0  0  0  0  0
   47.7035    8.2752   21.6425 C   0  0  0  0  0  0  0  0  0  0  0  0
   47.7675   10.3770   18.5077 C   0  0  0  0  0  0  0  0  0  0  0  0
   48.8172    7.8771   17.5126 C   0  0  0  0  0  0  0  0  0  0  0  0
   49.3045    4.7273   20.2240 C   0  0  0  0  0  0  0  0  0  0  0  0
   48.1236    4.6395   21.1448 C   0  0  0  0  0  0  0  0  0  0  0  0
   49.4788    5.6423   17.9284 C   0  0  0  0  0  0  0  0  0  0  0  0
   47.0971   10.5719   21.1249 C   0  0  0  0  0  0  0  0  0  0  0  0
   47.2557   11.5817   19.0106 C   0  0  0  0  0  0  0  0  0  0  0  0
   49.3263    6.6611   17.0245 C   0  0  0  0  0  0  0  0  0  0  0  0
   46.9204   11.6672   20.3372 C   0  0  0  0  0  0  0  0  0  0  0  0
   47.6850    5.8864   23.0745 C   0  0  0  0  0  0  0  0  0  0  0  0
   48.2243    6.9827   20.1193 H   0  0  0  0  0  0  0  0  0  0  0  0
   48.0485    8.4439   19.5125 H   0  0  0  0  0  0  0  0  0  0  0  0
   48.1335    7.1472   20.2503 H   0  0  0  0  0  0  0  0  0  0  0  0
   48.1338    7.1445   20.2514 H   0  0  0  0  0  0  0  0  0  0  0  0
   46.5848   12.1788   20.2565 H   0  0  0  0  0  0  0  0  0  0  0  0
   48.4115   13.1656   18.0999 H   0  0  0  0  0  0  0  0  0  0  0  0
   46.9311    5.7881   19.6204 H   0  0  0  0  0  0  0  0  0  0  0  0
   49.1685    6.7218   18.0172 H   0  0  0  0  0  0  0  0  0  0  0  0
   47.4286    6.5792   17.6054 H   0  0  0  0  0  0  0  0  0  0  0  0
   47.2516   10.4869   21.8398 H   0  0  0  0  0  0  0  0  0  0  0  0
   46.8786    4.8380   21.4422 H   0  0  0  0  0  0  0  0  0  0  0  0
   47.7772    4.8026   23.0713 H   0  0  0  0  0  0  0  0  0  0  0  0
   49.2320    3.8546   21.3554 H   0  0  0  0  0  0  0  0  0  0  0  0
   49.7783    5.4874   21.8910 H   0  0  0  0  0  0  0  0  0  0  0  0
   47.2277    6.9989   24.1370 H   0  0  0  0  0  0  0  0  0  0  0  0
   48.3226    8.4315   16.1722 H   0  0  0  0  0  0  0  0  0  0  0  0
   47.0362    9.4158   23.9793 H   0  0  0  0  0  0  0  0  0  0  0  0
   48.1188   10.8533   15.9055 H   0  0  0  0  0  0  0  0  0  0  0  0
   49.5358    3.4990   19.4232 H   0  0  0  0  0  0  0  0  0  0  0  0
   49.5893    4.7281   18.1113 H   0  0  0  0  0  0  0  0  0  0  0  0
   48.0125    4.0503   18.6846 H   0  0  0  0  0  0  0  0  0  0  0  0
   47.4838   10.8678   16.5047 H   0  0  0  0  0  0  0  0  0  0  0  0
   46.3536   12.6234   17.4773 H   0  0  0  0  0  0  0  0  0  0  0  0
   49.3657    6.9995   21.7111 H   0  0  0  0  0  0  0  0  0  0  0  0
   46.6142    8.0179   21.8879 H   0  0  0  0  0  0  0  0  0  0  0  0
   48.1736    8.6889   22.5799 H   0  0  0  0  0  0  0  0  0  0  0  0
   48.7206    8.6322   16.7567 H   0  0  0  0  0  0  0  0  0  0  0  0
   50.2123    4.9268   20.8140 H   0  0  0  0  0  0  0  0  0  0  0  0
   49.4158    3.7844   19.6844 H   0  0  0  0  0  0  0  0  0  0  0  0
   47.3027    4.1128   20.6060 H   0  0  0  0  0  0  0  0  0  0  0  0
   48.4274    3.9634   21.9885 H   0  0  0  0  0  0  0  0  0  0  0  0
   49.8655    4.7072   17.5738 H   0  0  0  0  0  0  0  0  0  0  0  0
   46.8225   10.6685   22.1738 H   0  0  0  0  0  0  0  0  0  0  0  0
   49.5871    6.5264   15.9914 H   0  0  0  0  0  0  0  0  0  0  0  0
   46.5301   12.6051   20.6952 H   0  0  0  0  0  0  0  0  0  0  0  0
   46.8287    6.4540   23.5014 H   0  0  0  0  0  0  0  0  0  0  0  0
   47.6184    4.8596   23.4959 H   0  0  0  0  0  0  0  0  0  0  0  0
   48.5980    6.3774   23.4671 H   0  0  0  0  0  0  0  0  0  0  0  0
  4 14  1  0
  5 20  1  0
  6  7  1  0
  6 17  1  0
  6 23  1  0
  7  8  1  0
  7 13  1  0
  8  9  1  0
  8 12  2  0
  9 10  1  0
  9 15  2  0
 10 11  2  0
 10 14  1  0
 11 13  1  0
 11 19  1  0
 12 16  1  0
 12 18  1  0
 14 20  2  0
 15 21  1  0
 16 17  1  0
 18 21  2  0
 19 22  2  0
 20 22  1  0
 24 34  1  0
 25 40  1  0
 26 27  1  0
 26 37  1  0
 26 43  1  0
 27 28  1  0
 27 33  1  0
 28 29  1  0
 28 32  2  0
 29 30  1  0
 29 35  2  0
 30 31  2  0
 30 34  1  0
 31 33  1  0
 31 39  1  0
 32 36  1  0
 32 38  1  0
 34 40  2  0
 35 41  1  0
 36 37  1  0
 38 41  2  0
 39 42  2  0
 40 42  1  0
  1 44  1  0
  1 45  1  0
  2 46  1  0
  3 47  1  0
  4 48  1  0
  5 49  1  0
  7 50  1  6
 13 51  1  0
 13 52  1  0
 15 53  1  0
 16 54  1  0
 16 55  1  0
 17 56  1  0
 17 57  1  0
 18 58  1  0
 19 59  1  0
 21 60  1  0
 22 61  1  0
 23 62  1  0
 23 63  1  0
 23 64  1  0
 24 65  1  0
 25 66  1  0
 27 67  1  1
 33 68  1  0
 33 69  1  0
 35 70  1  0
 36 71  1  0
 36 72  1  0
 37 73  1  0
 37 74  1  0
 38 75  1  0
 39 76  1  0
 41 77  1  0
 42 78  1  0
 43 79  1  0
 43 80  1  0
 43 81  1  0
M  END
> <Uni-Dock RESULT> 
ENERGY=   -7.487  LOWER_BOUND=    7.228  UPPER_BOUND=    9.404
INTER + INTRA:          -7.487
INTER:                  -7.487
INTRA:                   0.000
UNBOUND:                 0.000

$$$$

     RDKit          3D

 81 84  0  0  0  0  0  0  0  0999 V2000
   48.2443    7.6817   19.6884 O   0  0  0  0  0  0  0  0  0  0  0  0
   47.9806    8.4162   19.8315 Cl  0  0  0  0  0  0  0  0  0  0  0  0
   47.9800    8.4189   19.8305 Cl  0  0  0  0  0  0  0  0  0  0  0  0
   47.6248   10.4466   17.3348 O   0  0  0  0  0  0  0  0  0  0  0  0
   46.9073   12.7425   18.5715 O   0  0  0  0  0  0  0  0  0  0  0  0
   47.9375    5.9115   21.7075 N   0  0  0  0  0  0  0  0  0  0  0  0
   48.6753    7.0369   21.1559 C   0  0  1  0  0  0  0  0  0  0  0  0
   48.6576    7.0222   19.6760 C   0  0  0  0  0  0  0  0  0  0  0  0
   48.3362    8.0695   18.8713 C   0  0  0  0  0  0  0  0  0  0  0  0
   47.9300    9.3214   19.4796 C   0  0  0  0  0  0  0  0  0  0  0  0
   47.8841    9.3957   20.8454 C   0  0  0  0  0  0  0  0  0  0  0  0
   49.0304    5.7993   19.0935 C   0  0  0  0  0  0  0  0  0  0  0  0
   48.1879    8.2910   21.7725 C   0  0  0  0  0  0  0  0  0  0  0  0
   47.6113   10.4143   18.7129 C   0  0  0  0  0  0  0  0  0  0  0  0
   48.3852    7.9056   17.5058 C   0  0  0  0  0  0  0  0  0  0  0  0
   49.3566    4.7184   20.0725 C   0  0  0  0  0  0  0  0  0  0  0  0
   48.1798    4.6680   21.0290 C   0  0  0  0  0  0  0  0  0  0  0  0
   49.0745    5.6509   17.7448 C   0  0  0  0  0  0  0  0  0  0  0  0
   47.5073   10.6057   21.4445 C   0  0  0  0  0  0  0  0  0  0  0  0
   47.2374   11.6125   19.3322 C   0  0  0  0  0  0  0  0  0  0  0  0
   48.7581    6.6847   16.9206 C   0  0  0  0  0  0  0  0  0  0  0  0
   47.1903   11.6923   20.6972 C   0  0  0  0  0  0  0  0  0  0  0  0
   48.1813    5.8191   23.1321 C   0  0  0  0  0  0  0  0  0  0  0  0
   47.1483   11.4930   20.4796 O   0  0  0  0  0  0  0  0  0  0  0  0
   47.4438   12.6801   18.0694 O   0  0  0  0  0  0  0  0  0  0  0  0
   49.2055    5.4953   19.9752 N   0  0  0  0  0  0  0  0  0  0  0  0
   48.1129    6.4050   19.6959 C   0  0  1  0  0  0  0  0  0  0  0  0
   47.7806    7.2679   20.8131 C   0  0  0  0  0  0  0  0  0  0  0  0
   47.5662    8.6188   20.8124 C   0  0  0  0  0  0  0  0  0  0  0  0
   47.7352    9.3158   19.5463 C   0  0  0  0  0  0  0  0  0  0  0  0
   48.0970    8.5716   18.4650 C   0  0  0  0  0  0  0  0  0  0  0  0
   47.6361    6.6311   22.0605 C   0  0  0  0  0  0  0  0  0  0  0  0
   48.3868    7.1306   18.4379 C   0  0  0  0  0  0  0  0  0  0  0  0
   47.5163   10.6649   19.4379 C   0  0  0  0  0  0  0  0  0  0  0  0
   47.2307    9.2948   21.9642 C   0  0  0  0  0  0  0  0  0  0  0  0
   47.8754    5.1609   22.0465 C   0  0  0  0  0  0  0  0  0  0  0  0
   49.0736    4.7998   21.2196 C   0  0  0  0  0  0  0  0  0  0  0  0
   47.3078    7.2778   23.2016 C   0  0  0  0  0  0  0  0  0  0  0  0
   48.2329    9.2439   17.2460 C   0  0  0  0  0  0  0  0  0  0  0  0
   47.6609   11.3114   18.2020 C   0  0  0  0  0  0  0  0  0  0  0  0
   47.0930    8.6313   23.1959 C   0  0  0  0  0  0  0  0  0  0  0  0
   48.0239   10.5806   17.1002 C   0  0  0  0  0  0  0  0  0  0  0  0
   49.2115    4.5112   18.9025 C   0  0  0  0  0  0  0  0  0  0  0  0
   48.2064    7.0963   20.4942 H   0  0  0  0  0  0  0  0  0  0  0  0
   47.8941    8.5694   19.9779 H   0  0  0  0  0  0  0  0  0  0  0  0
   48.2494    7.1488   20.2755 H   0  0  0  0  0  0  0  0  0  0  0  0
   48.2499    7.1461   20.2764 H   0  0  0  0  0  0  0  0  0  0  0  0
   48.1820   11.0811   16.7757 H   0  0  0  0  0  0  0  0  0  0  0  0
   46.0292   12.7219   18.0542 H   0  0  0  0  0  0  0  0  0  0  0  0
   49.7748    6.9288   21.4219 H   0  0  0  0  0  0  0  0  0  0  0  0
   47.2771    8.0577   22.3890 H   0  0  0  0  0  0  0  0  0  0  0  0
   48.9528    8.6879   22.5006 H   0  0  0  0  0  0  0  0  0  0  0  0
   48.1501    8.6701   16.7921 H   0  0  0  0  0  0  0  0  0  0  0  0
   50.2122    5.0693   20.6636 H   0  0  0  0  0  0  0  0  0  0  0  0
   49.4554    3.7289   19.6178 H   0  0  0  0  0  0  0  0  0  0  0  0
   48.2715    3.8183   21.7509 H   0  0  0  0  0  0  0  0  0  0  0  0
   47.2810    4.4653   20.3900 H   0  0  0  0  0  0  0  0  0  0  0  0
   49.3622    4.7079   17.3169 H   0  0  0  0  0  0  0  0  0  0  0  0
   47.4600   10.7016   22.5271 H   0  0  0  0  0  0  0  0  0  0  0  0
   48.7962    6.5580   15.8473 H   0  0  0  0  0  0  0  0  0  0  0  0
   46.8985   12.6306   21.1338 H   0  0  0  0  0  0  0  0  0  0  0  0
   47.9889    4.7692   23.4738 H   0  0  0  0  0  0  0  0  0  0  0  0
   47.4922    6.4863   23.6716 H   0  0  0  0  0  0  0  0  0  0  0  0
   49.2289    6.0455   23.4187 H   0  0  0  0  0  0  0  0  0  0  0  0
   47.5295   12.4107   20.5716 H   0  0  0  0  0  0  0  0  0  0  0  0
   48.1182   13.2950   18.5278 H   0  0  0  0  0  0  0  0  0  0  0  0
   47.2009    5.7536   19.4829 H   0  0  0  0  0  0  0  0  0  0  0  0
   49.5141    7.0739   18.2399 H   0  0  0  0  0  0  0  0  0  0  0  0
   47.8632    6.6763   17.5490 H   0  0  0  0  0  0  0  0  0  0  0  0
   47.0513   10.3506   22.0270 H   0  0  0  0  0  0  0  0  0  0  0  0
   46.9828    4.6715   21.6274 H   0  0  0  0  0  0  0  0  0  0  0  0
   48.0295    4.8279   23.0750 H   0  0  0  0  0  0  0  0  0  0  0  0
   49.9865    5.0030   21.8253 H   0  0  0  0  0  0  0  0  0  0  0  0
   49.0366    3.6867   21.0747 H   0  0  0  0  0  0  0  0  0  0  0  0
   47.2076    6.7552   24.1324 H   0  0  0  0  0  0  0  0  0  0  0  0
   48.5201    8.6891   16.3547 H   0  0  0  0  0  0  0  0  0  0  0  0
   46.8314    9.1528   24.0978 H   0  0  0  0  0  0  0  0  0  0  0  0
   48.1269   11.1038   16.1645 H   0  0  0  0  0  0  0  0  0  0  0  0
   49.8745    4.8516   18.0765 H   0  0  0  0  0  0  0  0  0  0  0  0
   49.6114    3.5294   19.2376 H   0  0  0  0  0  0  0  0  0  0  0  0
   48.2143    4.3555   18.4442 H   0  0  0  0  0  0  0  0  0  0  0  0
  4 14  1  0
  5 20  1  0
  6  7  1  0
  6 17  1  0
  6 23  1  0
  7  8  1  0
  7 13  1  0
  8  9  1  0
  8 12  2  0
  9 10  1  0
  9 15  2  0
 10 11  2  0
 10 14  1  0
 11 13  1  0
 11 19  1  0
 12 16  1  0
 12 18  1  0
 14 20  2  0
 15 21  1  0
 16 17  1  0
 18 21  2  0
 19 22  2  0
 20 22  1  0
 24 34  1  0
 25 40  1  0
 26 27  1  0
 26 37  1  0
 26 43  1  0
 27 28  1  0
 27 33  1  0
 28 29  1  0
 28 32  2  0
 29 30  1  0
 29 35  2  0
 30 31  2  0
 30 34  1  0
 31 33  1  0
 31 39  1  0
 32 36  1  0
 32 38  1  0
 34 40  2  0
 35 41  1  0
 36 37  1  0
 38 41  2  0
 39 42  2  0
 40 42  1  0
  1 44  1  0
  1 45  1  0
  2 46  1  0
  3 47  1  0
  4 48  1  0
  5 49  1  0
  7 50  1  6
 13 51  1  0
 13 52  1  0
 15 53  1  0
 16 54  1  0
 16 55  1  0
 17 56  1  0
 17 57  1  0
 18 58  1  0
 19 59  1  0
 21 60  1  0
 22 61  1  0
 23 62  1  0
 23 63  1  0
 23 64  1  0
 24 65  1  0
 25 66  1  0
 27 67  1  1
 33 68  1  0
 33 69  1  0
 35 70  1  0
 36 71  1  0
 36 72  1  0
 37 73  1  0
 37 74  1  0
 38 75  1  0
 39 76  1  0
 41 77  1  0
 42 78  1  0
 43 79  1  0
 43 80  1  0
 43 81  1  0
M  END
> <Uni-Dock RESULT> 
ENERGY=   -7.376  LOWER_BOUND=    7.297  UPPER_BOUND=    9.469
INTER + INTRA:          -7.376
INTER:                  -7.376
INTRA:                   0.000
UNBOUND:                 0.000

$$$$

     RDKit          3D

 81 84  0  0  0  0  0  0  0  0999 V2000
   45.9319    7.7464   12.4514 O   0  0  0  0  0  0  0  0  0  0  0  0
   46.6365    7.8406   12.8040 Cl  0  0  0  0  0  0  0  0  0  0  0  0
   46.6387    7.8423   12.8047 Cl  0  0  0  0  0  0  0  0  0  0  0  0
   47.8787   10.8235   13.0076 O   0  0  0  0  0  0  0  0  0  0  0  0
   50.3013   10.3522   14.1143 O   0  0  0  0  0  0  0  0  0  0  0  0
   44.7256    5.3626   12.8599 N   0  0  0  0  0  0  0  0  0  0  0  0
   45.7558    6.1205   12.1675 C   0  0  1  0  0  0  0  0  0  0  0  0
   45.3531    7.5320   11.9772 C   0  0  0  0  0  0  0  0  0  0  0  0
   46.1016    8.6240   12.2855 C   0  0  0  0  0  0  0  0  0  0  0  0
   47.4034    8.4317   12.8944 C   0  0  0  0  0  0  0  0  0  0  0  0
   47.8248    7.1525   13.1374 C   0  0  0  0  0  0  0  0  0  0  0  0
   44.0814    7.7113   11.4076 C   0  0  0  0  0  0  0  0  0  0  0  0
   47.0509    5.9296   12.8579 C   0  0  0  0  0  0  0  0  0  0  0  0
   48.2058    9.4996   13.2098 C   0  0  0  0  0  0  0  0  0  0  0  0
   45.5951    9.8779   12.0305 C   0  0  0  0  0  0  0  0  0  0  0  0
   43.3469    6.4430   11.1156 C   0  0  0  0  0  0  0  0  0  0  0  0
   43.3917    5.6418   12.4034 C   0  0  0  0  0  0  0  0  0  0  0  0
   43.5934    8.9539   11.1614 C   0  0  0  0  0  0  0  0  0  0  0  0
   49.0879    6.9543   13.7120 C   0  0  0  0  0  0  0  0  0  0  0  0
   49.4633    9.2785   13.7832 C   0  0  0  0  0  0  0  0  0  0  0  0
   44.3246   10.0601   11.4607 C   0  0  0  0  0  0  0  0  0  0  0  0
   49.8896    8.0018   14.0278 C   0  0  0  0  0  0  0  0  0  0  0  0
   45.0414    3.9502   12.8091 C   0  0  0  0  0  0  0  0  0  0  0  0
   49.6366    8.1591   14.0191 O   0  0  0  0  0  0  0  0  0  0  0  0
   50.1819   10.7569   13.5096 O   0  0  0  0  0  0  0  0  0  0  0  0
   44.0442    6.7664   11.3279 N   0  0  0  0  0  0  0  0  0  0  0  0
   44.6957    7.4014   12.4555 C   0  0  1  0  0  0  0  0  0  0  0  0
   45.7682    6.6078   13.0241 C   0  0  0  0  0  0  0  0  0  0  0  0
   47.0311    7.0039   13.3691 C   0  0  0  0  0  0  0  0  0  0  0  0
   47.3895    8.3873   13.0951 C   0  0  0  0  0  0  0  0  0  0  0  0
   46.4439    9.1761   12.5141 C   0  0  0  0  0  0  0  0  0  0  0  0
   45.4656    5.2562   13.2773 C   0  0  0  0  0  0  0  0  0  0  0  0
   45.0976    8.7736   12.0821 C   0  0  0  0  0  0  0  0  0  0  0  0
   48.6220    8.8864   13.4293 C   0  0  0  0  0  0  0  0  0  0  0  0
   47.9333    6.1261   13.9271 C   0  0  0  0  0  0  0  0  0  0  0  0
   44.0881    4.8386   12.8940 C   0  0  0  0  0  0  0  0  0  0  0  0
   43.6864    5.4001   11.5624 C   0  0  0  0  0  0  0  0  0  0  0  0
   46.3381    4.3798   13.8239 C   0  0  0  0  0  0  0  0  0  0  0  0
   46.7866   10.5114   12.2769 C   0  0  0  0  0  0  0  0  0  0  0  0
   48.9368   10.2296   13.1786 C   0  0  0  0  0  0  0  0  0  0  0  0
   47.6022    4.7814   14.1688 C   0  0  0  0  0  0  0  0  0  0  0  0
   47.9987   11.0415   12.5949 C   0  0  0  0  0  0  0  0  0  0  0  0
   42.8241    7.5190   11.0749 C   0  0  0  0  0  0  0  0  0  0  0  0
   45.5775    6.8194   12.5431 H   0  0  0  0  0  0  0  0  0  0  0  0
   46.8097    7.7522   12.9247 H   0  0  0  0  0  0  0  0  0  0  0  0
   45.5762    7.0382   12.4755 H   0  0  0  0  0  0  0  0  0  0  0  0
   45.5740    7.0365   12.4748 H   0  0  0  0  0  0  0  0  0  0  0  0
   48.4137   11.4726   12.4435 H   0  0  0  0  0  0  0  0  0  0  0  0
   50.0297   10.9350   14.9053 H   0  0  0  0  0  0  0  0  0  0  0  0
   45.8681    5.7185   11.1106 H   0  0  0  0  0  0  0  0  0  0  0  0
   46.8676    5.3743   13.8181 H   0  0  0  0  0  0  0  0  0  0  0  0
   47.7222    5.2614   12.2451 H   0  0  0  0  0  0  0  0  0  0  0  0
   46.1085   10.7957   12.2384 H   0  0  0  0  0  0  0  0  0  0  0  0
   43.9504    5.8832   10.3898 H   0  0  0  0  0  0  0  0  0  0  0  0
   42.2952    6.5939   10.8568 H   0  0  0  0  0  0  0  0  0  0  0  0
   42.7800    4.7082   12.3296 H   0  0  0  0  0  0  0  0  0  0  0  0
   42.9116    6.2929   13.1798 H   0  0  0  0  0  0  0  0  0  0  0  0
   42.6184    9.0717   10.7249 H   0  0  0  0  0  0  0  0  0  0  0  0
   49.4559    5.9517   13.9190 H   0  0  0  0  0  0  0  0  0  0  0  0
   43.9284   11.0464   11.2610 H   0  0  0  0  0  0  0  0  0  0  0  0
   50.8619    7.8748   14.4691 H   0  0  0  0  0  0  0  0  0  0  0  0
   44.1012    3.3550   12.9424 H   0  0  0  0  0  0  0  0  0  0  0  0
   45.7285    3.6928   13.6293 H   0  0  0  0  0  0  0  0  0  0  0  0
   45.4721    3.6263   11.8393 H   0  0  0  0  0  0  0  0  0  0  0  0
   50.5889    8.2833   13.7473 H   0  0  0  0  0  0  0  0  0  0  0  0
   50.9792   10.4161   12.9699 H   0  0  0  0  0  0  0  0  0  0  0  0
   43.8959    7.5232   13.2599 H   0  0  0  0  0  0  0  0  0  0  0  0
   45.1417    8.8260   10.9383 H   0  0  0  0  0  0  0  0  0  0  0  0
   44.3616    9.5537   12.4292 H   0  0  0  0  0  0  0  0  0  0  0  0
   48.9353    6.3765   14.2172 H   0  0  0  0  0  0  0  0  0  0  0  0
   43.3920    5.1998   13.6666 H   0  0  0  0  0  0  0  0  0  0  0  0
   44.0586    3.7477   12.8525 H   0  0  0  0  0  0  0  0  0  0  0  0
   44.1603    4.7795   10.7675 H   0  0  0  0  0  0  0  0  0  0  0  0
   42.5794    5.2357   11.4684 H   0  0  0  0  0  0  0  0  0  0  0  0
   46.0680    3.3573   14.0007 H   0  0  0  0  0  0  0  0  0  0  0  0
   46.0616   11.1790   11.8148 H   0  0  0  0  0  0  0  0  0  0  0  0
   48.3013    4.0918   14.6039 H   0  0  0  0  0  0  0  0  0  0  0  0
   48.2686   12.0686   12.4148 H   0  0  0  0  0  0  0  0  0  0  0  0
   43.0222    8.3307   10.3403 H   0  0  0  0  0  0  0  0  0  0  0  0
   42.0260    6.8853   10.6304 H   0  0  0  0  0  0  0  0  0  0  0  0
   42.4230    8.0211   11.9782 H   0  0  0  0  0  0  0  0  0  0  0  0
  4 14  1  0
  5 20  1  0
  6  7  1  0
  6 17  1  0
  6 23  1  0
  7  8  1  0
  7 13  1  0
  8  9  1  0
  8 12  2  0
  9 10  1  0
  9 15  2  0
 10 11  2  0
 10 14  1  0
 11 13  1  0
 11 19  1  0
 12 16  1  0
 12 18  1  0
 14 20  2  0
 15 21  1  0
 16 17  1  0
 18 21  2  0
 19 22  2  0
 20 22  1  0
 24 34  1  0
 25 40  1  0
 26 27  1  0
 26 37  1  0
 26 43  1  0
 27 28  1  0
 27 33  1  0
 28 29  1  0
 28 32  2  0
 29 30  1  0
 29 35  2  0
 30 31  2  0
 30 34  1  0
 31 33  1  0
 31 39  1  0
 32 36  1  0
 32 38  1  0
 34 40  2  0
 35 41  1  0
 36 37  1  0
 38 41  2  0
 39 42  2  0
 40 42  1  0
  1 44  1  0
  1 45  1  0
  2 46  1  0
  3 47  1  0
  4 48  1  0
  5 49  1  0
  7 50  1  6
 13 51  1  0
 13 52  1  0
 15 53  1  0
 16 54  1  0
 16 55  1  0
 17 56  1  0
 17 57  1  0
 18 58  1  0
 19 59  1  0
 21 60  1  0
 22 61  1  0
 23 62  1  0
 23 63  1  0
 23 64  1  0
 24 65  1  0
 25 66  1  0
 27 67  1  1
 33 68  1  0
 33 69  1  0
 35 70  1  0
 36 71  1  0
 36 72  1  0
 37 73  1  0
 37 74  1  0
 38 75  1  0
 39 76  1  0
 41 77  1  0
 42 78  1  0
 43 79  1  0
 43 80  1  0
 43 81  1  0
M  END
> <Uni-Dock RESULT> 
ENERGY=   -7.356  LOWER_BOUND=    1.956  UPPER_BOUND=    4.796
INTER + INTRA:          -7.356
INTER:                  -7.356
INTRA:                   0.000
UNBOUND:                 0.000

$$$$

     RDKit          3D

 81 84  0  0  0  0  0  0  0  0999 V2000
   45.7302    7.9831   12.2412 O   0  0  0  0  0  0  0  0  0  0  0  0
   46.3043    8.4812   12.4686 Cl  0  0  0  0  0  0  0  0  0  0  0  0
   46.3054    8.4839   12.4686 Cl  0  0  0  0  0  0  0  0  0  0  0  0
   45.9243   11.6452   11.8961 O   0  0  0  0  0  0  0  0  0  0  0  0
   48.2870   12.6590   12.7360 O   0  0  0  0  0  0  0  0  0  0  0  0
   45.8590    5.4920   13.2817 N   0  0  0  0  0  0  0  0  0  0  0  0
   46.3701    6.4534   12.3175 C   0  0  1  0  0  0  0  0  0  0  0  0
   45.3222    7.4129   11.9030 C   0  0  0  0  0  0  0  0  0  0  0  0
   45.4434    8.7666   11.8803 C   0  0  0  0  0  0  0  0  0  0  0  0
   46.6834    9.3665   12.3331 C   0  0  0  0  0  0  0  0  0  0  0  0
   47.6836    8.5406   12.7696 C   0  0  0  0  0  0  0  0  0  0  0  0
   44.1156    6.8258   11.4868 C   0  0  0  0  0  0  0  0  0  0  0  0
   47.6052    7.0711   12.8500 C   0  0  0  0  0  0  0  0  0  0  0  0
   46.8635   10.7270   12.3148 C   0  0  0  0  0  0  0  0  0  0  0  0
   44.3813    9.5279   11.4489 C   0  0  0  0  0  0  0  0  0  0  0  0
   44.0934    5.3332   11.5589 C   0  0  0  0  0  0  0  0  0  0  0  0
   44.5514    4.9876   12.9636 C   0  0  0  0  0  0  0  0  0  0  0  0
   43.0753    7.5883   11.0637 C   0  0  0  0  0  0  0  0  0  0  0  0
   48.8922    9.1090   13.1955 C   0  0  0  0  0  0  0  0  0  0  0  0
   48.0784   11.2730   12.7450 C   0  0  0  0  0  0  0  0  0  0  0  0
   43.1743    8.9437   11.0317 C   0  0  0  0  0  0  0  0  0  0  0  0
   49.0818   10.4519   13.1818 C   0  0  0  0  0  0  0  0  0  0  0  0
   46.8271    4.4322   13.4744 C   0  0  0  0  0  0  0  0  0  0  0  0
   48.7840   10.4636   13.1760 O   0  0  0  0  0  0  0  0  0  0  0  0
   47.9724   12.7990   12.0840 O   0  0  0  0  0  0  0  0  0  0  0  0
   44.5459    5.9883   11.6051 N   0  0  0  0  0  0  0  0  0  0  0  0
   44.8234    7.1074   12.4825 C   0  0  1  0  0  0  0  0  0  0  0  0
   46.1582    7.0797   13.0485 C   0  0  0  0  0  0  0  0  0  0  0  0
   47.0701    8.0958   13.1319 C   0  0  0  0  0  0  0  0  0  0  0  0
   46.6971    9.3710   12.5386 C   0  0  0  0  0  0  0  0  0  0  0  0
   45.4747    9.4516   11.9443 C   0  0  0  0  0  0  0  0  0  0  0  0
   46.5639    5.8527   13.6077 C   0  0  0  0  0  0  0  0  0  0  0  0
   44.4917    8.3696   11.7891 C   0  0  0  0  0  0  0  0  0  0  0  0
   47.5316   10.4573   12.5949 C   0  0  0  0  0  0  0  0  0  0  0  0
   48.2980    7.9136   13.7279 C   0  0  0  0  0  0  0  0  0  0  0  0
   45.5621    4.7550   13.5070 C   0  0  0  0  0  0  0  0  0  0  0  0
   44.9103    4.7183   12.1566 C   0  0  0  0  0  0  0  0  0  0  0  0
   47.7649    5.6550   14.1962 C   0  0  0  0  0  0  0  0  0  0  0  0
   45.1124   10.6875   11.3985 C   0  0  0  0  0  0  0  0  0  0  0  0
   47.1407   11.6835   12.0382 C   0  0  0  0  0  0  0  0  0  0  0  0
   48.6751    6.6763   14.2784 C   0  0  0  0  0  0  0  0  0  0  0  0
   45.9136   11.7867   11.4356 C   0  0  0  0  0  0  0  0  0  0  0  0
   43.1087    5.9880   11.3735 C   0  0  0  0  0  0  0  0  0  0  0  0
   45.8788    7.0523   12.5652 H   0  0  0  0  0  0  0  0  0  0  0  0
   46.5009    8.5175   12.5801 H   0  0  0  0  0  0  0  0  0  0  0  0
   45.7689    7.2207   12.4557 H   0  0  0  0  0  0  0  0  0  0  0  0
   45.7678    7.2180   12.4556 H   0  0  0  0  0  0  0  0  0  0  0  0
   46.0601   12.3113   11.1454 H   0  0  0  0  0  0  0  0  0  0  0  0
   47.7798   13.2160   13.4227 H   0  0  0  0  0  0  0  0  0  0  0  0
   46.6446    5.9099   11.3582 H   0  0  0  0  0  0  0  0  0  0  0  0
   47.7373    6.7465   13.9183 H   0  0  0  0  0  0  0  0  0  0  0  0
   48.5060    6.6737   12.2993 H   0  0  0  0  0  0  0  0  0  0  0  0
   44.3814   10.5986   11.3958 H   0  0  0  0  0  0  0  0  0  0  0  0
   44.8797    4.9684   10.8859 H   0  0  0  0  0  0  0  0  0  0  0  0
   43.0985    4.9014   11.4202 H   0  0  0  0  0  0  0  0  0  0  0  0
   44.4760    3.8895   13.1633 H   0  0  0  0  0  0  0  0  0  0  0  0
   43.8287    5.5003   13.6506 H   0  0  0  0  0  0  0  0  0  0  0  0
   42.1598    7.1216   10.7488 H   0  0  0  0  0  0  0  0  0  0  0  0
   49.7093    8.4835   13.5486 H   0  0  0  0  0  0  0  0  0  0  0  0
   42.3408    9.5438   10.6929 H   0  0  0  0  0  0  0  0  0  0  0  0
   49.9995   10.9108   13.5037 H   0  0  0  0  0  0  0  0  0  0  0  0
   46.3034    3.5158   13.8513 H   0  0  0  0  0  0  0  0  0  0  0  0
   47.5680    4.7376   14.2288 H   0  0  0  0  0  0  0  0  0  0  0  0
   47.3422    4.1265   12.5406 H   0  0  0  0  0  0  0  0  0  0  0  0
   49.5468   10.9530   12.7581 H   0  0  0  0  0  0  0  0  0  0  0  0
   48.8234   12.7563   11.5211 H   0  0  0  0  0  0  0  0  0  0  0  0
   44.0829    7.0274   13.3467 H   0  0  0  0  0  0  0  0  0  0  0  0
   44.4818    8.1577   10.6629 H   0  0  0  0  0  0  0  0  0  0  0  0
   43.4743    8.7668   12.0683 H   0  0  0  0  0  0  0  0  0  0  0  0
   49.0531    8.6696   13.8228 H   0  0  0  0  0  0  0  0  0  0  0  0
   44.7937    4.9191   14.2780 H   0  0  0  0  0  0  0  0  0  0  0  0
   46.0716    3.8067   13.6907 H   0  0  0  0  0  0  0  0  0  0  0  0
   45.6122    4.2239   11.4464 H   0  0  0  0  0  0  0  0  0  0  0  0
   44.0253    4.0330   12.2487 H   0  0  0  0  0  0  0  0  0  0  0  0
   48.0356    4.7038   14.6105 H   0  0  0  0  0  0  0  0  0  0  0  0
   44.1440   10.7986   10.9139 H   0  0  0  0  0  0  0  0  0  0  0  0
   49.6312    6.5279   14.7446 H   0  0  0  0  0  0  0  0  0  0  0  0
   45.6403   12.7408   11.0172 H   0  0  0  0  0  0  0  0  0  0  0  0
   42.8679    6.5914   10.4704 H   0  0  0  0  0  0  0  0  0  0  0  0
   42.7164    4.9662   11.1783 H   0  0  0  0  0  0  0  0  0  0  0  0
   42.5305    6.4426   12.2029 H   0  0  0  0  0  0  0  0  0  0  0  0
  4 14  1  0
  5 20  1  0
  6  7  1  0
  6 17  1  0
  6 23  1  0
  7  8  1  0
  7 13  1  0
  8  9  1  0
  8 12  2  0
  9 10  1  0
  9 15  2  0
 10 11  2  0
 10 14  1  0
 11 13  1  0
 11 19  1  0
 12 16  1  0
 12 18  1  0
 14 20  2  0
 15 21  1  0
 16 17  1  0
 18 21  2  0
 19 22  2  0
 20 22  1  0
 24 34  1  0
 25 40  1  0
 26 27  1  0
 26 37  1  0
 26 43  1  0
 27 28  1  0
 27 33  1  0
 28 29  1  0
 28 32  2  0
 29 30  1  0
 29 35  2  0
 30 31  2  0
 30 34  1  0
 31 33  1  0
 31 39  1  0
 32 36  1  0
 32 38  1  0
 34 40  2  0
 35 41  1  0
 36 37  1  0
 38 41  2  0
 39 42  2  0
 40 42  1  0
  1 44  1  0
  1 45  1  0
  2 46  1  0
  3 47  1  0
  4 48  1  0
  5 49  1  0
  7 50  1  6
 13 51  1  0
 13 52  1  0
 15 53  1  0
 16 54  1  0
 16 55  1  0
 17 56  1  0
 17 57  1  0
 18 58  1  0
 19 59  1  0
 21 60  1  0
 22 61  1  0
 23 62  1  0
 23 63  1  0
 23 64  1  0
 24 65  1  0
 25 66  1  0
 27 67  1  1
 33 68  1  0
 33 69  1  0
 35 70  1  0
 36 71  1  0
 36 72  1  0
 37 73  1  0
 37 74  1  0
 38 75  1  0
 39 76  1  0
 41 77  1  0
 42 78  1  0
 43 79  1  0
 43 80  1  0
 43 81  1  0
M  END
> <Uni-Dock RESULT> 
ENERGY=   -7.313  LOWER_BOUND=    1.894  UPPER_BOUND=    4.929
INTER + INTRA:          -7.313
INTER:                  -7.313
INTRA:                   0.000
UNBOUND:                 0.000

$$$$

     RDKit          3D

 81 84  0  0  0  0  0  0  0  0999 V2000
   48.0925    8.8463   19.0603 O   0  0  0  0  0  0  0  0  0  0  0  0
   47.9141    9.4381   19.5578 Cl  0  0  0  0  0  0  0  0  0  0  0  0
   47.9137    9.4409   19.5582 Cl  0  0  0  0  0  0  0  0  0  0  0  0
   47.5039   12.4108   18.3424 O   0  0  0  0  0  0  0  0  0  0  0  0
   47.1304   13.8882   20.5770 O   0  0  0  0  0  0  0  0  0  0  0  0
   47.8232    6.3507   20.0624 N   0  0  0  0  0  0  0  0  0  0  0  0
   48.6047    7.5755   19.9974 C   0  0  1  0  0  0  0  0  0  0  0  0
   48.4391    8.2542   18.6926 C   0  0  0  0  0  0  0  0  0  0  0  0
   48.1387    9.5671   18.5082 C   0  0  0  0  0  0  0  0  0  0  0  0
   47.9137   10.4040   19.6707 C   0  0  0  0  0  0  0  0  0  0  0  0
   48.0106    9.8336   20.9109 C   0  0  0  0  0  0  0  0  0  0  0  0
   48.6362    7.4321   17.5705 C   0  0  0  0  0  0  0  0  0  0  0  0
   48.3002    8.4135   21.1787 C   0  0  0  0  0  0  0  0  0  0  0  0
   47.6242   11.7393   19.5403 C   0  0  0  0  0  0  0  0  0  0  0  0
   48.0366   10.0581   17.2267 C   0  0  0  0  0  0  0  0  0  0  0  0
   48.9555    6.0080   17.8919 C   0  0  0  0  0  0  0  0  0  0  0  0
   47.8797    5.5599   18.8637 C   0  0  0  0  0  0  0  0  0  0  0  0
   48.5324    7.9291   16.3115 C   0  0  0  0  0  0  0  0  0  0  0  0
   47.8098   10.6368   22.0421 C   0  0  0  0  0  0  0  0  0  0  0  0
   47.4272   12.5225   20.6835 C   0  0  0  0  0  0  0  0  0  0  0  0
   48.2339    9.2389   16.1032 C   0  0  0  0  0  0  0  0  0  0  0  0
   47.5233   11.9574   21.9257 C   0  0  0  0  0  0  0  0  0  0  0  0
   48.1974    5.5949   21.2398 C   0  0  0  0  0  0  0  0  0  0  0  0
   47.4415   11.8844   21.6486 O   0  0  0  0  0  0  0  0  0  0  0  0
   47.6063   14.0478   20.0368 O   0  0  0  0  0  0  0  0  0  0  0  0
   48.8687    6.7454   18.1827 N   0  0  0  0  0  0  0  0  0  0  0  0
   47.8437    7.7196   18.4982 C   0  0  1  0  0  0  0  0  0  0  0  0
   47.7059    7.9726   19.9195 C   0  0  0  0  0  0  0  0  0  0  0  0
   47.6198    9.1742   20.5671 C   0  0  0  0  0  0  0  0  0  0  0  0
   47.7268   10.3751   19.7523 C   0  0  0  0  0  0  0  0  0  0  0  0
   47.9085   10.2092   18.4131 C   0  0  0  0  0  0  0  0  0  0  0  0
   47.6269    6.8327   20.7424 C   0  0  0  0  0  0  0  0  0  0  0  0
   48.0582    8.9380   17.6899 C   0  0  0  0  0  0  0  0  0  0  0  0
   47.6254   11.6257   20.3049 C   0  0  0  0  0  0  0  0  0  0  0  0
   47.4648    9.2459   21.9335 C   0  0  0  0  0  0  0  0  0  0  0  0
   47.7251    5.5316   20.0239 C   0  0  0  0  0  0  0  0  0  0  0  0
   48.7964    5.5546   18.9743 C   0  0  0  0  0  0  0  0  0  0  0  0
   47.4753    6.8833   22.0849 C   0  0  0  0  0  0  0  0  0  0  0  0
   47.9851   11.3674   17.6326 C   0  0  0  0  0  0  0  0  0  0  0  0
   47.7065   12.7686   19.4966 C   0  0  0  0  0  0  0  0  0  0  0  0
   47.3884    8.0897   22.7294 C   0  0  0  0  0  0  0  0  0  0  0  0
   47.8886   12.6241   18.1454 C   0  0  0  0  0  0  0  0  0  0  0  0
   48.6763    6.3765   16.7877 C   0  0  0  0  0  0  0  0  0  0  0  0
   48.0801    7.9542   19.5047 H   0  0  0  0  0  0  0  0  0  0  0  0
   47.8573    9.5083   19.7681 H   0  0  0  0  0  0  0  0  0  0  0  0
   48.1059    8.1011   19.3309 H   0  0  0  0  0  0  0  0  0  0  0  0
   48.1063    8.0983   19.3304 H   0  0  0  0  0  0  0  0  0  0  0  0
   48.0599   13.2121   18.0692 H   0  0  0  0  0  0  0  0  0  0  0  0
   46.2072   14.1437   20.2282 H   0  0  0  0  0  0  0  0  0  0  0  0
   49.7101    7.3155   20.0371 H   0  0  0  0  0  0  0  0  0  0  0  0
   47.4372    7.9529   21.7329 H   0  0  0  0  0  0  0  0  0  0  0  0
   49.1672    8.3962   21.9003 H   0  0  0  0  0  0  0  0  0  0  0  0
   47.8044   11.0754   16.9813 H   0  0  0  0  0  0  0  0  0  0  0  0
   49.8944    6.0106   18.4600 H   0  0  0  0  0  0  0  0  0  0  0  0
   48.9157    5.3424   17.0252 H   0  0  0  0  0  0  0  0  0  0  0  0
   47.9627    4.4688   19.0960 H   0  0  0  0  0  0  0  0  0  0  0  0
   46.9070    5.7121   18.3271 H   0  0  0  0  0  0  0  0  0  0  0  0
   48.6868    7.2852   15.4649 H   0  0  0  0  0  0  0  0  0  0  0  0
   47.8793   10.2177   23.0436 H   0  0  0  0  0  0  0  0  0  0  0  0
   48.1533    9.6268   15.0969 H   0  0  0  0  0  0  0  0  0  0  0  0
   47.3652   12.5932   22.7783 H   0  0  0  0  0  0  0  0  0  0  0  0
   47.9424    4.5148   21.0834 H   0  0  0  0  0  0  0  0  0  0  0  0
   47.6306    5.9578   22.1105 H   0  0  0  0  0  0  0  0  0  0  0  0
   49.2848    5.6228   21.4580 H   0  0  0  0  0  0  0  0  0  0  0  0
   47.9140   12.6383   22.1006 H   0  0  0  0  0  0  0  0  0  0  0  0
   48.3773   14.3523   20.6333 H   0  0  0  0  0  0  0  0  0  0  0  0
   46.8581    7.2769   18.1318 H   0  0  0  0  0  0  0  0  0  0  0  0
   49.1500    8.9391   17.3419 H   0  0  0  0  0  0  0  0  0  0  0  0
   47.4088    8.9709   16.7690 H   0  0  0  0  0  0  0  0  0  0  0  0
   47.3920   10.1560   22.4967 H   0  0  0  0  0  0  0  0  0  0  0  0
   46.7535    5.3275   19.5482 H   0  0  0  0  0  0  0  0  0  0  0  0
   47.9486    4.7514   20.7546 H   0  0  0  0  0  0  0  0  0  0  0  0
   49.7799    5.4179   19.4800 H   0  0  0  0  0  0  0  0  0  0  0  0
   48.6413    4.6403   18.3410 H   0  0  0  0  0  0  0  0  0  0  0  0
   47.4194    5.9906   22.6762 H   0  0  0  0  0  0  0  0  0  0  0  0
   48.1293   11.2828   16.5570 H   0  0  0  0  0  0  0  0  0  0  0  0
   47.2675    8.1389   23.7955 H   0  0  0  0  0  0  0  0  0  0  0  0
   47.9468   13.5196   17.5498 H   0  0  0  0  0  0  0  0  0  0  0  0
   49.2830    7.0387   16.1311 H   0  0  0  0  0  0  0  0  0  0  0  0
   49.0139    5.3379   16.5791 H   0  0  0  0  0  0  0  0  0  0  0  0
   47.6284    6.4896   16.4445 H   0  0  0  0  0  0  0  0  0  0  0  0
  4 14  1  0
  5 20  1  0
  6  7  1  0
  6 17  1  0
  6 23  1  0
  7  8  1  0
  7 13  1  0
  8  9  1  0
  8 12  2  0
  9 10  1  0
  9 15  2  0
 10 11  2  0
 10 14  1  0
 11 13  1  0
 11 19  1  0
 12 16  1  0
 12 18  1  0
 14 20  2  0
 15 21  1  0
 16 17  1  0
 18 21  2  0
 19 22  2  0
 20 22  1  0
 24 34  1  0
 25 40  1  0
 26 27  1  0
 26 37  1  0
 26 43  1  0
 27 28  1  0
 27 33  1  0
 28 29  1  0
 28 32  2  0
 29 30  1  0
 29 35  2  0
 30 31  2  0
 30 34  1  0
 31 33  1  0
 31 39  1  0
 32 36  1  0
 32 38  1  0
 34 40  2  0
 35 41  1  0
 36 37  1  0
 38 41  2  0
 39 42  2  0
 40 42  1  0
  1 44  1  0
  1 45  1  0
  2 46  1  0
  3 47  1  0
  4 48  1  0
  5 49  1  0
  7 50  1  6
 13 51  1  0
 13 52  1  0
 15 53  1  0
 16 54  1  0
 16 55  1  0
 17 56  1  0
 17 57  1  0
 18 58  1  0
 19 59  1  0
 21 60  1  0
 22 61  1  0
 23 62  1  0
 23 63  1  0
 23 64  1  0
 24 65  1  0
 25 66  1  0
 27 67  1  1
 33 68  1  0
 33 69  1  0
 35 70  1  0
 36 71  1  0
 36 72  1  0
 37 73  1  0
 37 74  1  0
 38 75  1  0
 39 76  1  0
 41 77  1  0
 42 78  1  0
 43 79  1  0
 43 80  1  0
 43 81  1  0
M  END
> <Uni-Dock RESULT> 
ENERGY=   -7.288  LOWER_BOUND=    7.102  UPPER_BOUND=    9.232
INTER + INTRA:          -7.288
INTER:                  -7.288
INTRA:                   0.000
UNBOUND:                 0.000

$$$$
