
     RDKit          3D

 81 84  0  0  0  0  0  0  0  0999 V2000
   46.0792    7.8982   12.3199 O   0  0  0  0  0  0  0  0  0  0  0  0
   45.7881    7.1745   12.3422 Cl  0  0  0  0  0  0  0  0  0  0  0  0
   45.7883    7.1747   12.3423 Cl  0  0  0  0  0  0  0  0  0  0  0  0
   43.0572    6.7176   11.0725 O   0  0  0  0  0  0  0  0  0  0  0  0
   42.6102    4.0967   11.5227 O   0  0  0  0  0  0  0  0  0  0  0  0
   48.8144    8.0541   12.9171 N   0  0  0  0  0  0  0  0  0  0  0  0
   47.5191    7.8288   13.5359 C   0  0  1  0  0  0  0  0  0  0  0  0
   46.5390    8.5741   12.7094 C   0  0  0  0  0  0  0  0  0  0  0  0
   45.4149    8.0494   12.1579 C   0  0  0  0  0  0  0  0  0  0  0  0
   45.1250    6.6435   12.3633 C   0  0  0  0  0  0  0  0  0  0  0  0
   46.0009    5.8807   13.1123 C   0  0  0  0  0  0  0  0  0  0  0  0
   46.8416    9.9299   12.5161 C   0  0  0  0  0  0  0  0  0  0  0  0
   47.2365    6.3919   13.7249 C   0  0  0  0  0  0  0  0  0  0  0  0
   44.0034    6.0654   11.8341 C   0  0  0  0  0  0  0  0  0  0  0  0
   44.5889    8.8624   11.4161 C   0  0  0  0  0  0  0  0  0  0  0  0
   48.0899   10.4077   13.1551 C   0  0  0  0  0  0  0  0  0  0  0  0
   49.1932    9.4092   13.1846 C   0  0  0  0  0  0  0  0  0  0  0  0
   46.0089   10.7295   11.7737 C   0  0  0  0  0  0  0  0  0  0  0  0
   45.7248    4.5308   13.3160 C   0  0  0  0  0  0  0  0  0  0  0  0
   43.7477    4.7067   12.0528 C   0  0  0  0  0  0  0  0  0  0  0  0
   44.8695   10.2204   11.2088 C   0  0  0  0  0  0  0  0  0  0  0  0
   44.6026    3.9394   12.7903 C   0  0  0  0  0  0  0  0  0  0  0  0
   48.7252    7.7888   11.4940 C   0  0  0  0  0  0  0  0  0  0  0  0
   42.7568    6.6553   11.3652 O   0  0  0  0  0  0  0  0  0  0  0  0
   42.5278    3.9835   11.7011 O   0  0  0  0  0  0  0  0  0  0  0  0
   48.7037    8.2915   12.4436 N   0  0  0  0  0  0  0  0  0  0  0  0
   47.5226    7.9109   13.1253 C   0  0  1  0  0  0  0  0  0  0  0  0
   46.3813    8.6213   12.5308 C   0  0  0  0  0  0  0  0  0  0  0  0
   45.1965    8.0663   12.1329 C   0  0  0  0  0  0  0  0  0  0  0  0
   45.0177    6.6414   12.2818 C   0  0  0  0  0  0  0  0  0  0  0  0
   46.0460    5.9095   12.8149 C   0  0  0  0  0  0  0  0  0  0  0  0
   46.5428   10.0017   12.3721 C   0  0  0  0  0  0  0  0  0  0  0  0
   47.3445    6.4424   13.2474 C   0  0  0  0  0  0  0  0  0  0  0  0
   43.8539    6.0174   11.9112 C   0  0  0  0  0  0  0  0  0  0  0  0
   44.2112    8.8673   11.5963 C   0  0  0  0  0  0  0  0  0  0  0  0
   47.8596   10.5422   12.8250 C   0  0  0  0  0  0  0  0  0  0  0  0
   48.9378    9.6624   12.2483 C   0  0  0  0  0  0  0  0  0  0  0  0
   45.5676   10.8056   11.8392 C   0  0  0  0  0  0  0  0  0  0  0  0
   45.8713    4.5279   12.9660 C   0  0  0  0  0  0  0  0  0  0  0  0
   43.7025    4.6314   12.0723 C   0  0  0  0  0  0  0  0  0  0  0  0
   44.3817   10.2481   11.4415 C   0  0  0  0  0  0  0  0  0  0  0  0
   44.7256    3.8991   12.6036 C   0  0  0  0  0  0  0  0  0  0  0  0
   49.8335    7.4534   12.5852 C   0  0  0  0  0  0  0  0  0  0  0  0
   45.7993    6.9463   12.3672 H   0  0  0  0  0  0  0  0  0  0  0  0
   47.0504    8.0069   12.4776 H   0  0  0  0  0  0  0  0  0  0  0  0
   46.8312    8.0598   12.4342 H   0  0  0  0  0  0  0  0  0  0  0  0
   46.8309    8.0596   12.4342 H   0  0  0  0  0  0  0  0  0  0  0  0
   42.5958    6.2672   10.2924 H   0  0  0  0  0  0  0  0  0  0  0  0
   42.4192    4.0776   10.5403 H   0  0  0  0  0  0  0  0  0  0  0  0
   47.5606    8.3768   14.5112 H   0  0  0  0  0  0  0  0  0  0  0  0
   47.1852    6.1522   14.8249 H   0  0  0  0  0  0  0  0  0  0  0  0
   48.0993    5.7829   13.3444 H   0  0  0  0  0  0  0  0  0  0  0  0
   43.6836    8.5332   10.9456 H   0  0  0  0  0  0  0  0  0  0  0  0
   48.3916   11.3364   12.6035 H   0  0  0  0  0  0  0  0  0  0  0  0
   47.8122   10.7830   14.1829 H   0  0  0  0  0  0  0  0  0  0  0  0
   49.6039    9.4152   14.2357 H   0  0  0  0  0  0  0  0  0  0  0  0
   50.0675    9.7139   12.5480 H   0  0  0  0  0  0  0  0  0  0  0  0
   46.2414   11.7682   11.6262 H   0  0  0  0  0  0  0  0  0  0  0  0
   46.4022    3.8985   13.9072 H   0  0  0  0  0  0  0  0  0  0  0  0
   44.2135   10.8541   10.6231 H   0  0  0  0  0  0  0  0  0  0  0  0
   44.3700    2.8962   12.9359 H   0  0  0  0  0  0  0  0  0  0  0  0
   47.8259    7.1892   11.2405 H   0  0  0  0  0  0  0  0  0  0  0  0
   49.6162    7.2021   11.2023 H   0  0  0  0  0  0  0  0  0  0  0  0
   48.6549    8.7595   10.9432 H   0  0  0  0  0  0  0  0  0  0  0  0
   42.3762    6.2490   10.5116 H   0  0  0  0  0  0  0  0  0  0  0  0
   41.6271    4.2128   12.1073 H   0  0  0  0  0  0  0  0  0  0  0  0
   47.6154    8.3367   14.1739 H   0  0  0  0  0  0  0  0  0  0  0  0
   47.4882    6.1460   14.3325 H   0  0  0  0  0  0  0  0  0  0  0  0
   48.1570    5.8700   12.7095 H   0  0  0  0  0  0  0  0  0  0  0  0
   43.2540    8.5132   11.2593 H   0  0  0  0  0  0  0  0  0  0  0  0
   48.0145   11.5699   12.4368 H   0  0  0  0  0  0  0  0  0  0  0  0
   47.8998   10.5948   13.9315 H   0  0  0  0  0  0  0  0  0  0  0  0
   49.0238    9.9122   11.1737 H   0  0  0  0  0  0  0  0  0  0  0  0
   49.9016    9.9459   12.7273 H   0  0  0  0  0  0  0  0  0  0  0  0
   45.7084   11.8495   11.7269 H   0  0  0  0  0  0  0  0  0  0  0  0
   46.6689    3.9150   13.3870 H   0  0  0  0  0  0  0  0  0  0  0  0
   43.6161   10.8803   11.0230 H   0  0  0  0  0  0  0  0  0  0  0  0
   44.5864    2.8399   12.7173 H   0  0  0  0  0  0  0  0  0  0  0  0
   49.8607    7.1348   13.6682 H   0  0  0  0  0  0  0  0  0  0  0  0
   50.7476    8.0766   12.4739 H   0  0  0  0  0  0  0  0  0  0  0  0
   49.9258    6.6082   11.9018 H   0  0  0  0  0  0  0  0  0  0  0  0
  4 14  1  0
  5 20  1  0
  6  7  1  0
  6 17  1  0
  6 23  1  0
  7  8  1  0
  7 13  1  0
  8  9  1  0
  8 12  2  0
  9 10  1  0
  9 15  2  0
 10 11  2  0
 10 14  1  0
 11 13  1  0
 11 19  1  0
 12 16  1  0
 12 18  1  0
 14 20  2  0
 15 21  1  0
 16 17  1  0
 18 21  2  0
 19 22  2  0
 20 22  1  0
 24 34  1  0
 25 40  1  0
 26 27  1  0
 26 37  1  0
 26 43  1  0
 27 28  1  0
 27 33  1  0
 28 29  1  0
 28 32  2  0
 29 30  1  0
 29 35  2  0
 30 31  2  0
 30 34  1  0
 31 33  1  0
 31 39  1  0
 32 36  1  0
 32 38  1  0
 34 40  2  0
 35 41  1  0
 36 37  1  0
 38 41  2  0
 39 42  2  0
 40 42  1  0
  1 44  1  0
  1 45  1  0
  2 46  1  0
  3 47  1  0
  4 48  1  0
  5 49  1  0
  7 50  1  6
 13 51  1  0
 13 52  1  0
 15 53  1  0
 16 54  1  0
 16 55  1  0
 17 56  1  0
 17 57  1  0
 18 58  1  0
 19 59  1  0
 21 60  1  0
 22 61  1  0
 23 62  1  0
 23 63  1  0
 23 64  1  0
 24 65  1  0
 25 66  1  0
 27 67  1  6
 33 68  1  0
 33 69  1  0
 35 70  1  0
 36 71  1  0
 36 72  1  0
 37 73  1  0
 37 74  1  0
 38 75  1  0
 39 76  1  0
 41 77  1  0
 42 78  1  0
 43 79  1  0
 43 80  1  0
 43 81  1  0
M  END
> <Uni-Dock RESULT> 
ENERGY=   -9.651  LOWER_BOUND=    0.000  UPPER_BOUND=    0.000
INTER + INTRA:          -9.651
INTER:                  -9.651
INTRA:                   0.000
UNBOUND:                 0.000

$$$$

     RDKit          3D

 81 84  0  0  0  0  0  0  0  0999 V2000
   45.4411    6.4636   12.2268 O   0  0  0  0  0  0  0  0  0  0  0  0
   45.2952    7.2061   12.0360 Cl  0  0  0  0  0  0  0  0  0  0  0  0
   45.2951    7.2058   12.0359 Cl  0  0  0  0  0  0  0  0  0  0  0  0
   47.2394    9.3244   13.0416 O   0  0  0  0  0  0  0  0  0  0  0  0
   46.1699   11.6188   12.1122 O   0  0  0  0  0  0  0  0  0  0  0  0
   43.9904    4.5875   10.7307 N   0  0  0  0  0  0  0  0  0  0  0  0
   43.8372    5.5747   11.7859 C   0  0  1  0  0  0  0  0  0  0  0  0
   45.1498    5.6421   12.4726 C   0  0  0  0  0  0  0  0  0  0  0  0
   45.8684    6.7740   12.6867 C   0  0  0  0  0  0  0  0  0  0  0  0
   45.3444    8.0373   12.2051 C   0  0  0  0  0  0  0  0  0  0  0  0
   44.1314    8.0514   11.5428 C   0  0  0  0  0  0  0  0  0  0  0  0
   45.6428    4.4089   12.9236 C   0  0  0  0  0  0  0  0  0  0  0  0
   43.3151    6.8577   11.2744 C   0  0  0  0  0  0  0  0  0  0  0  0
   46.0254    9.2083   12.3985 C   0  0  0  0  0  0  0  0  0  0  0  0
   47.0732    6.6892   13.3461 C   0  0  0  0  0  0  0  0  0  0  0  0
   44.7882    3.2324   12.6406 C   0  0  0  0  0  0  0  0  0  0  0  0
   44.0512    3.2972   11.3492 C   0  0  0  0  0  0  0  0  0  0  0  0
   46.8462    4.3389   13.5799 C   0  0  0  0  0  0  0  0  0  0  0  0
   43.6217    9.2629   11.0820 C   0  0  0  0  0  0  0  0  0  0  0  0
   45.4925   10.4132   11.9261 C   0  0  0  0  0  0  0  0  0  0  0  0
   47.5870    5.4687   13.8066 C   0  0  0  0  0  0  0  0  0  0  0  0
   44.2958   10.4443   11.2701 C   0  0  0  0  0  0  0  0  0  0  0  0
   45.1880    4.8769    9.9654 C   0  0  0  0  0  0  0  0  0  0  0  0
   47.0695    9.5581   13.3520 O   0  0  0  0  0  0  0  0  0  0  0  0
   46.0066   11.7550   12.1911 O   0  0  0  0  0  0  0  0  0  0  0  0
   44.5213    4.4847   10.7115 N   0  0  0  0  0  0  0  0  0  0  0  0
   44.2228    5.5174   11.6329 C   0  0  1  0  0  0  0  0  0  0  0  0
   45.3780    5.7099   12.5211 C   0  0  0  0  0  0  0  0  0  0  0  0
   45.9737    6.9007   12.8331 C   0  0  0  0  0  0  0  0  0  0  0  0
   45.4535    8.1089   12.2383 C   0  0  0  0  0  0  0  0  0  0  0  0
   44.3857    8.0063   11.3859 C   0  0  0  0  0  0  0  0  0  0  0  0
   45.8987    4.5470   13.0986 C   0  0  0  0  0  0  0  0  0  0  0  0
   43.7121    6.7594   11.0007 C   0  0  0  0  0  0  0  0  0  0  0  0
   45.9958    9.3390   12.5108 C   0  0  0  0  0  0  0  0  0  0  0  0
   47.0512    6.9228   13.6927 C   0  0  0  0  0  0  0  0  0  0  0  0
   45.2031    3.2822   12.7147 C   0  0  0  0  0  0  0  0  0  0  0  0
   45.0453    3.2836   11.2166 C   0  0  0  0  0  0  0  0  0  0  0  0
   46.9704    4.5604   13.9545 C   0  0  0  0  0  0  0  0  0  0  0  0
   43.8760    9.1787   10.8133 C   0  0  0  0  0  0  0  0  0  0  0  0
   45.4675   10.4996   11.9245 C   0  0  0  0  0  0  0  0  0  0  0  0
   47.5655    5.7538   14.2661 C   0  0  0  0  0  0  0  0  0  0  0  0
   44.4030   10.4006   11.0747 C   0  0  0  0  0  0  0  0  0  0  0  0
   43.7275    4.4068    9.5442 C   0  0  0  0  0  0  0  0  0  0  0  0
   45.1967    7.3741   11.9140 H   0  0  0  0  0  0  0  0  0  0  0  0
   44.9907    5.7575   11.6992 H   0  0  0  0  0  0  0  0  0  0  0  0
   45.1238    5.8574   11.8574 H   0  0  0  0  0  0  0  0  0  0  0  0
   45.1238    5.8577   11.8574 H   0  0  0  0  0  0  0  0  0  0  0  0
   47.9460    9.9810   12.7351 H   0  0  0  0  0  0  0  0  0  0  0  0
   47.0949   11.7748   11.7630 H   0  0  0  0  0  0  0  0  0  0  0  0
   43.1399    5.1069   12.5263 H   0  0  0  0  0  0  0  0  0  0  0  0
   42.2909    7.0532   11.7021 H   0  0  0  0  0  0  0  0  0  0  0  0
   43.1479    6.7840   10.1668 H   0  0  0  0  0  0  0  0  0  0  0  0
   47.7047    7.5294   13.5575 H   0  0  0  0  0  0  0  0  0  0  0  0
   45.4605    2.3358   12.6849 H   0  0  0  0  0  0  0  0  0  0  0  0
   44.1037    3.1001   13.5285 H   0  0  0  0  0  0  0  0  0  0  0  0
   42.9833    3.0098   11.5739 H   0  0  0  0  0  0  0  0  0  0  0  0
   44.3954    2.5176   10.6169 H   0  0  0  0  0  0  0  0  0  0  0  0
   47.2232    3.3937   13.9252 H   0  0  0  0  0  0  0  0  0  0  0  0
   42.6597    9.3062   10.5520 H   0  0  0  0  0  0  0  0  0  0  0  0
   48.5370    5.4106   14.3253 H   0  0  0  0  0  0  0  0  0  0  0  0
   43.9191   11.3931   10.9215 H   0  0  0  0  0  0  0  0  0  0  0  0
   45.5408    5.9172   10.1268 H   0  0  0  0  0  0  0  0  0  0  0  0
   44.9398    4.7663    8.8933 H   0  0  0  0  0  0  0  0  0  0  0  0
   46.0056    4.1852   10.2873 H   0  0  0  0  0  0  0  0  0  0  0  0
   47.8260   10.1306   12.9796 H   0  0  0  0  0  0  0  0  0  0  0  0
   46.0440   12.1447   13.1268 H   0  0  0  0  0  0  0  0  0  0  0  0
   43.4039    5.1095   12.3056 H   0  0  0  0  0  0  0  0  0  0  0  0
   42.6134    6.8745   11.2566 H   0  0  0  0  0  0  0  0  0  0  0  0
   43.7128    6.6928    9.8724 H   0  0  0  0  0  0  0  0  0  0  0  0
   47.5760    7.8125   13.9895 H   0  0  0  0  0  0  0  0  0  0  0  0
   45.8156    2.3997   12.9920 H   0  0  0  0  0  0  0  0  0  0  0  0
   44.2335    3.1941   13.2446 H   0  0  0  0  0  0  0  0  0  0  0  0
   46.0380    3.0578   10.7830 H   0  0  0  0  0  0  0  0  0  0  0  0
   44.3709    2.4412   10.9440 H   0  0  0  0  0  0  0  0  0  0  0  0
   47.3508    3.6690   14.3822 H   0  0  0  0  0  0  0  0  0  0  0  0
   43.0268    9.1337   10.1307 H   0  0  0  0  0  0  0  0  0  0  0  0
   48.4072    5.7635   14.9386 H   0  0  0  0  0  0  0  0  0  0  0  0
   44.0159   11.3028   10.6382 H   0  0  0  0  0  0  0  0  0  0  0  0
   42.6651    4.6134    9.8665 H   0  0  0  0  0  0  0  0  0  0  0  0
   43.6973    3.3463    9.2116 H   0  0  0  0  0  0  0  0  0  0  0  0
   44.0261    5.0125    8.6874 H   0  0  0  0  0  0  0  0  0  0  0  0
  4 14  1  0
  5 20  1  0
  6  7  1  0
  6 17  1  0
  6 23  1  0
  7  8  1  0
  7 13  1  0
  8  9  1  0
  8 12  2  0
  9 10  1  0
  9 15  2  0
 10 11  2  0
 10 14  1  0
 11 13  1  0
 11 19  1  0
 12 16  1  0
 12 18  1  0
 14 20  2  0
 15 21  1  0
 16 17  1  0
 18 21  2  0
 19 22  2  0
 20 22  1  0
 24 34  1  0
 25 40  1  0
 26 27  1  0
 26 37  1  0
 26 43  1  0
 27 28  1  0
 27 33  1  0
 28 29  1  0
 28 32  2  0
 29 30  1  0
 29 35  2  0
 30 31  2  0
 30 34  1  0
 31 33  1  0
 31 39  1  0
 32 36  1  0
 32 38  1  0
 34 40  2  0
 35 41  1  0
 36 37  1  0
 38 41  2  0
 39 42  2  0
 40 42  1  0
  1 44  1  0
  1 45  1  0
  2 46  1  0
  3 47  1  0
  4 48  1  0
  5 49  1  0
  7 50  1  6
 13 51  1  0
 13 52  1  0
 15 53  1  0
 16 54  1  0
 16 55  1  0
 17 56  1  0
 17 57  1  0
 18 58  1  0
 19 59  1  0
 21 60  1  0
 22 61  1  0
 23 62  1  0
 23 63  1  0
 23 64  1  0
 24 65  1  0
 25 66  1  0
 27 67  1  6
 33 68  1  0
 33 69  1  0
 35 70  1  0
 36 71  1  0
 36 72  1  0
 37 73  1  0
 37 74  1  0
 38 75  1  0
 39 76  1  0
 41 77  1  0
 42 78  1  0
 43 79  1  0
 43 80  1  0
 43 81  1  0
M  END
> <Uni-Dock RESULT> 
ENERGY=   -9.240  LOWER_BOUND=    2.043  UPPER_BOUND=    5.388
INTER + INTRA:          -9.240
INTER:                  -9.240
INTRA:                   0.000
UNBOUND:                 0.000

$$$$

     RDKit          3D

 81 84  0  0  0  0  0  0  0  0999 V2000
   47.8795    9.0092   20.0995 O   0  0  0  0  0  0  0  0  0  0  0  0
   47.9194    8.3203   20.4641 Cl  0  0  0  0  0  0  0  0  0  0  0  0
   47.9194    8.3206   20.4641 Cl  0  0  0  0  0  0  0  0  0  0  0  0
   48.7623    5.9029   18.8135 O   0  0  0  0  0  0  0  0  0  0  0  0
   48.6505    3.8828   20.5964 O   0  0  0  0  0  0  0  0  0  0  0  0
   47.7382   11.2146   21.8253 N   0  0  0  0  0  0  0  0  0  0  0  0
   46.9506   10.1004   21.3257 C   0  0  1  0  0  0  0  0  0  0  0  0
   47.4746    9.8086   19.9694 C   0  0  0  0  0  0  0  0  0  0  0  0
   47.9013    8.5951   19.5351 C   0  0  0  0  0  0  0  0  0  0  0  0
   47.8680    7.4723   20.4520 C   0  0  0  0  0  0  0  0  0  0  0  0
   47.4044    7.6708   21.7388 C   0  0  0  0  0  0  0  0  0  0  0  0
   47.5061   10.9093   19.1006 C   0  0  0  0  0  0  0  0  0  0  0  0
   46.9393    8.9625   22.2665 C   0  0  0  0  0  0  0  0  0  0  0  0
   48.2815    6.2268   20.0644 C   0  0  0  0  0  0  0  0  0  0  0  0
   48.3586    8.4674   18.2436 C   0  0  0  0  0  0  0  0  0  0  0  0
   47.0225   12.1899   19.6672 C   0  0  0  0  0  0  0  0  0  0  0  0
   47.3342   12.3873   21.1091 C   0  0  0  0  0  0  0  0  0  0  0  0
   47.9648   10.7677   17.8148 C   0  0  0  0  0  0  0  0  0  0  0  0
   47.3664    6.5945   22.6220 C   0  0  0  0  0  0  0  0  0  0  0  0
   48.2337    5.1610   20.9703 C   0  0  0  0  0  0  0  0  0  0  0  0
   48.3996    9.5522   17.3563 C   0  0  0  0  0  0  0  0  0  0  0  0
   47.7786    5.3402   22.2447 C   0  0  0  0  0  0  0  0  0  0  0  0
   49.1492   10.9310   21.6455 C   0  0  0  0  0  0  0  0  0  0  0  0
   48.4360    5.6426   18.7390 O   0  0  0  0  0  0  0  0  0  0  0  0
   48.4801    3.7524   20.6700 O   0  0  0  0  0  0  0  0  0  0  0  0
   48.1440   11.2689   21.4714 N   0  0  0  0  0  0  0  0  0  0  0  0
   47.3384   10.1433   21.1734 C   0  0  1  0  0  0  0  0  0  0  0  0
   47.6145    9.7133   19.7952 C   0  0  0  0  0  0  0  0  0  0  0  0
   47.8861    8.4387   19.3806 C   0  0  0  0  0  0  0  0  0  0  0  0
   47.9294    7.3866   20.3681 C   0  0  0  0  0  0  0  0  0  0  0  0
   47.6972    7.7146   21.6780 C   0  0  0  0  0  0  0  0  0  0  0  0
   47.5846   10.7233   18.8278 C   0  0  0  0  0  0  0  0  0  0  0  0
   47.4146    9.0626   22.1879 C   0  0  0  0  0  0  0  0  0  0  0  0
   48.1885    6.0843   20.0245 C   0  0  0  0  0  0  0  0  0  0  0  0
   48.1183    8.1881   18.0451 C   0  0  0  0  0  0  0  0  0  0  0  0
   47.2841   12.0909   19.3480 C   0  0  0  0  0  0  0  0  0  0  0  0
   48.1635   12.3270   20.5482 C   0  0  0  0  0  0  0  0  0  0  0  0
   47.8146   10.4822   17.4973 C   0  0  0  0  0  0  0  0  0  0  0  0
   47.7324    6.6935   22.6363 C   0  0  0  0  0  0  0  0  0  0  0  0
   48.2186    5.0784   21.0029 C   0  0  0  0  0  0  0  0  0  0  0  0
   48.0861    9.2053   17.0838 C   0  0  0  0  0  0  0  0  0  0  0  0
   47.9873    5.4022   22.3094 C   0  0  0  0  0  0  0  0  0  0  0  0
   48.3264   11.5935   22.8353 C   0  0  0  0  0  0  0  0  0  0  0  0
   47.9321    8.1823   20.6473 H   0  0  0  0  0  0  0  0  0  0  0  0
   47.8740    9.8250   20.6601 H   0  0  0  0  0  0  0  0  0  0  0  0
   47.8710    9.6906   20.4739 H   0  0  0  0  0  0  0  0  0  0  0  0
   47.8710    9.6903   20.4739 H   0  0  0  0  0  0  0  0  0  0  0  0
   49.5127    5.2357   18.6856 H   0  0  0  0  0  0  0  0  0  0  0  0
   49.5773    3.6942   20.2688 H   0  0  0  0  0  0  0  0  0  0  0  0
   45.9242   10.5163   21.1628 H   0  0  0  0  0  0  0  0  0  0  0  0
   45.8964    8.8027   22.6630 H   0  0  0  0  0  0  0  0  0  0  0  0
   47.5495    9.2153   23.1742 H   0  0  0  0  0  0  0  0  0  0  0  0
   48.7135    7.5496   17.8182 H   0  0  0  0  0  0  0  0  0  0  0  0
   47.4682   13.0028   19.0361 H   0  0  0  0  0  0  0  0  0  0  0  0
   45.9172   12.2524   19.4462 H   0  0  0  0  0  0  0  0  0  0  0  0
   46.3797   12.7370   21.5991 H   0  0  0  0  0  0  0  0  0  0  0  0
   48.0554   13.2312   21.2827 H   0  0  0  0  0  0  0  0  0  0  0  0
   47.9885   11.6114   17.1497 H   0  0  0  0  0  0  0  0  0  0  0  0
   47.0029    6.7210   23.6516 H   0  0  0  0  0  0  0  0  0  0  0  0
   48.7613    9.4430   16.3403 H   0  0  0  0  0  0  0  0  0  0  0  0
   47.7574    4.4934   22.9126 H   0  0  0  0  0  0  0  0  0  0  0  0
   49.3354    9.8498   21.4751 H   0  0  0  0  0  0  0  0  0  0  0  0
   49.6743   11.2225   22.5742 H   0  0  0  0  0  0  0  0  0  0  0  0
   49.5245   11.4873   20.7510 H   0  0  0  0  0  0  0  0  0  0  0  0
   49.2648    5.0634   18.6118 H   0  0  0  0  0  0  0  0  0  0  0  0
   47.8967    3.2262   20.0285 H   0  0  0  0  0  0  0  0  0  0  0  0
   46.2680   10.5218   21.1506 H   0  0  0  0  0  0  0  0  0  0  0  0
   46.4282    9.0145   22.7452 H   0  0  0  0  0  0  0  0  0  0  0  0
   48.1640    9.2958   23.0012 H   0  0  0  0  0  0  0  0  0  0  0  0
   48.3384    7.2187   17.6361 H   0  0  0  0  0  0  0  0  0  0  0  0
   47.5306   12.8608   18.5883 H   0  0  0  0  0  0  0  0  0  0  0  0
   46.2057   12.1899   19.5846 H   0  0  0  0  0  0  0  0  0  0  0  0
   49.1858   12.5204   20.1716 H   0  0  0  0  0  0  0  0  0  0  0  0
   47.8172   13.2601   21.0463 H   0  0  0  0  0  0  0  0  0  0  0  0
   47.7876   11.2606   16.7791 H   0  0  0  0  0  0  0  0  0  0  0  0
   47.5520    6.9190   23.6878 H   0  0  0  0  0  0  0  0  0  0  0  0
   48.2666    9.0167   16.0385 H   0  0  0  0  0  0  0  0  0  0  0  0
   48.0156    4.6153   23.0403 H   0  0  0  0  0  0  0  0  0  0  0  0
   47.3256   11.4421   23.3359 H   0  0  0  0  0  0  0  0  0  0  0  0
   48.4942   12.6898   22.9146 H   0  0  0  0  0  0  0  0  0  0  0  0
   49.1370   11.0966   23.3701 H   0  0  0  0  0  0  0  0  0  0  0  0
  4 14  1  0
  5 20  1  0
  6  7  1  0
  6 17  1  0
  6 23  1  0
  7  8  1  0
  7 13  1  0
  8  9  1  0
  8 12  2  0
  9 10  1  0
  9 15  2  0
 10 11  2  0
 10 14  1  0
 11 13  1  0
 11 19  1  0
 12 16  1  0
 12 18  1  0
 14 20  2  0
 15 21  1  0
 16 17  1  0
 18 21  2  0
 19 22  2  0
 20 22  1  0
 24 34  1  0
 25 40  1  0
 26 27  1  0
 26 37  1  0
 26 43  1  0
 27 28  1  0
 27 33  1  0
 28 29  1  0
 28 32  2  0
 29 30  1  0
 29 35  2  0
 30 31  2  0
 30 34  1  0
 31 33  1  0
 31 39  1  0
 32 36  1  0
 32 38  1  0
 34 40  2  0
 35 41  1  0
 36 37  1  0
 38 41  2  0
 39 42  2  0
 40 42  1  0
  1 44  1  0
  1 45  1  0
  2 46  1  0
  3 47  1  0
  4 48  1  0
  5 49  1  0
  7 50  1  6
 13 51  1  0
 13 52  1  0
 15 53  1  0
 16 54  1  0
 16 55  1  0
 17 56  1  0
 17 57  1  0
 18 58  1  0
 19 59  1  0
 21 60  1  0
 22 61  1  0
 23 62  1  0
 23 63  1  0
 23 64  1  0
 24 65  1  0
 25 66  1  0
 27 67  1  6
 33 68  1  0
 33 69  1  0
 35 70  1  0
 36 71  1  0
 36 72  1  0
 37 73  1  0
 37 74  1  0
 38 75  1  0
 39 76  1  0
 41 77  1  0
 42 78  1  0
 43 79  1  0
 43 80  1  0
 43 81  1  0
M  END
> <Uni-Dock RESULT> 
ENERGY=   -9.087  LOWER_BOUND=    7.486  UPPER_BOUND=    8.745
INTER + INTRA:          -9.087
INTER:                  -9.087
INTRA:                   0.000
UNBOUND:                 0.000

$$$$

     RDKit          3D

 81 84  0  0  0  0  0  0  0  0999 V2000
   47.8377    8.6686   21.2281 O   0  0  0  0  0  0  0  0  0  0  0  0
   47.8079    9.3432   20.8370 Cl  0  0  0  0  0  0  0  0  0  0  0  0
   47.8080    9.3429   20.8370 Cl  0  0  0  0  0  0  0  0  0  0  0  0
   47.7172   11.9126   22.4705 O   0  0  0  0  0  0  0  0  0  0  0  0
   47.5716   13.8288   20.5787 O   0  0  0  0  0  0  0  0  0  0  0  0
   48.5662    6.4626   19.6578 N   0  0  0  0  0  0  0  0  0  0  0  0
   47.4649    7.3780   19.9043 C   0  0  1  0  0  0  0  0  0  0  0  0
   47.5970    7.8005   21.3197 C   0  0  0  0  0  0  0  0  0  0  0  0
   47.6428    9.0852   21.7562 C   0  0  0  0  0  0  0  0  0  0  0  0
   47.5727   10.1579   20.7830 C   0  0  0  0  0  0  0  0  0  0  0  0
   47.4624    9.8410   19.4423 C   0  0  0  0  0  0  0  0  0  0  0  0
   47.6712    6.7482   22.2441 C   0  0  0  0  0  0  0  0  0  0  0  0
   47.4178    8.4700   18.9115 C   0  0  0  0  0  0  0  0  0  0  0  0
   47.6096   11.4701   21.1692 C   0  0  0  0  0  0  0  0  0  0  0  0
   47.7614    9.3319   23.1047 C   0  0  0  0  0  0  0  0  0  0  0  0
   47.6153    5.3833   21.6707 C   0  0  0  0  0  0  0  0  0  0  0  0
   48.2761    5.2399   20.3448 C   0  0  0  0  0  0  0  0  0  0  0  0
   47.7895    7.0087   23.5864 C   0  0  0  0  0  0  0  0  0  0  0  0
   47.3904   10.8678   18.5040 C   0  0  0  0  0  0  0  0  0  0  0  0
   47.5357   12.4843   20.2074 C   0  0  0  0  0  0  0  0  0  0  0  0
   47.8372    8.2975   24.0482 C   0  0  0  0  0  0  0  0  0  0  0  0
   47.4264   12.1881   18.8793 C   0  0  0  0  0  0  0  0  0  0  0  0
   49.8056    7.0596   20.1171 C   0  0  0  0  0  0  0  0  0  0  0  0
   47.3340   12.0937   22.4565 O   0  0  0  0  0  0  0  0  0  0  0  0
   47.3979   13.9164   20.4622 O   0  0  0  0  0  0  0  0  0  0  0  0
   48.8846    6.5065   20.0932 N   0  0  0  0  0  0  0  0  0  0  0  0
   47.8087    7.4259   20.1386 C   0  0  1  0  0  0  0  0  0  0  0  0
   47.6704    7.9275   21.5133 C   0  0  0  0  0  0  0  0  0  0  0  0
   47.5599    9.2364   21.8935 C   0  0  0  0  0  0  0  0  0  0  0  0
   47.5938   10.2565   20.8724 C   0  0  0  0  0  0  0  0  0  0  0  0
   47.7366    9.8652   19.5671 C   0  0  0  0  0  0  0  0  0  0  0  0
   47.6446    6.9511   22.5148 C   0  0  0  0  0  0  0  0  0  0  0  0
   47.8737    8.4808   19.0965 C   0  0  0  0  0  0  0  0  0  0  0  0
   47.4814   11.5887   21.1790 C   0  0  0  0  0  0  0  0  0  0  0  0
   47.4283    9.5528   23.2287 C   0  0  0  0  0  0  0  0  0  0  0  0
   47.7713    5.5435   22.0314 C   0  0  0  0  0  0  0  0  0  0  0  0
   48.9260    5.4939   21.0654 C   0  0  0  0  0  0  0  0  0  0  0  0
   47.5140    7.2576   23.8453 C   0  0  0  0  0  0  0  0  0  0  0  0
   47.7629   10.8536   18.5749 C   0  0  0  0  0  0  0  0  0  0  0  0
   47.5107   12.5608   20.1671 C   0  0  0  0  0  0  0  0  0  0  0  0
   47.4033    8.5689   24.2242 C   0  0  0  0  0  0  0  0  0  0  0  0
   47.6527   12.1739   18.8650 C   0  0  0  0  0  0  0  0  0  0  0  0
   49.4327    6.2111   18.8239 C   0  0  0  0  0  0  0  0  0  0  0  0
   47.8310    9.4778   20.6522 H   0  0  0  0  0  0  0  0  0  0  0  0
   48.1343    7.8643   20.7331 H   0  0  0  0  0  0  0  0  0  0  0  0
   48.0607    7.9972   20.9053 H   0  0  0  0  0  0  0  0  0  0  0  0
   48.0607    7.9975   20.9052 H   0  0  0  0  0  0  0  0  0  0  0  0
   48.2573   12.7336   22.7130 H   0  0  0  0  0  0  0  0  0  0  0  0
   48.3385   14.2263   21.0844 H   0  0  0  0  0  0  0  0  0  0  0  0
   46.5430    6.7439   19.8699 H   0  0  0  0  0  0  0  0  0  0  0  0
   46.4806    8.3848   18.2914 H   0  0  0  0  0  0  0  0  0  0  0  0
   48.2551    8.3478   18.1739 H   0  0  0  0  0  0  0  0  0  0  0  0
   47.8051   10.3123   23.5363 H   0  0  0  0  0  0  0  0  0  0  0  0
   48.0740    4.7012   22.4337 H   0  0  0  0  0  0  0  0  0  0  0  0
   46.5290    5.0765   21.6533 H   0  0  0  0  0  0  0  0  0  0  0  0
   47.5541    4.6768   19.6852 H   0  0  0  0  0  0  0  0  0  0  0  0
   49.1831    4.5778   20.3846 H   0  0  0  0  0  0  0  0  0  0  0  0
   47.8462    6.2019   24.2941 H   0  0  0  0  0  0  0  0  0  0  0  0
   47.3022   10.6473   17.4308 H   0  0  0  0  0  0  0  0  0  0  0  0
   47.9305    8.5005   25.1088 H   0  0  0  0  0  0  0  0  0  0  0  0
   47.3721   12.9984   18.1693 H   0  0  0  0  0  0  0  0  0  0  0  0
   49.7105    8.1574   20.2534 H   0  0  0  0  0  0  0  0  0  0  0  0
   50.5751    6.8803   19.3433 H   0  0  0  0  0  0  0  0  0  0  0  0
   50.0831    6.6156   21.1052 H   0  0  0  0  0  0  0  0  0  0  0  0
   47.9680   12.8467   22.7207 H   0  0  0  0  0  0  0  0  0  0  0  0
   46.5862   14.3071   20.9285 H   0  0  0  0  0  0  0  0  0  0  0  0
   46.8683    6.8163   19.9558 H   0  0  0  0  0  0  0  0  0  0  0  0
   47.0501    8.2970   18.3388 H   0  0  0  0  0  0  0  0  0  0  0  0
   48.8179    8.4104   18.4794 H   0  0  0  0  0  0  0  0  0  0  0  0
   47.3363   10.5527   23.6120 H   0  0  0  0  0  0  0  0  0  0  0  0
   48.0026    4.8603   22.8743 H   0  0  0  0  0  0  0  0  0  0  0  0
   46.8206    5.2004   21.5762 H   0  0  0  0  0  0  0  0  0  0  0  0
   49.8555    5.5414   21.6639 H   0  0  0  0  0  0  0  0  0  0  0  0
   48.9101    4.4995   20.5658 H   0  0  0  0  0  0  0  0  0  0  0  0
   47.4965    6.5039   24.5897 H   0  0  0  0  0  0  0  0  0  0  0  0
   47.8750   10.5777   17.5260 H   0  0  0  0  0  0  0  0  0  0  0  0
   47.3006    8.8087   25.2696 H   0  0  0  0  0  0  0  0  0  0  0  0
   47.6723   12.9359   18.1080 H   0  0  0  0  0  0  0  0  0  0  0  0
   48.5606    6.1257   18.1118 H   0  0  0  0  0  0  0  0  0  0  0  0
   49.8472    5.1798   18.8532 H   0  0  0  0  0  0  0  0  0  0  0  0
   50.2150    6.8700   18.4444 H   0  0  0  0  0  0  0  0  0  0  0  0
  4 14  1  0
  5 20  1  0
  6  7  1  0
  6 17  1  0
  6 23  1  0
  7  8  1  0
  7 13  1  0
  8  9  1  0
  8 12  2  0
  9 10  1  0
  9 15  2  0
 10 11  2  0
 10 14  1  0
 11 13  1  0
 11 19  1  0
 12 16  1  0
 12 18  1  0
 14 20  2  0
 15 21  1  0
 16 17  1  0
 18 21  2  0
 19 22  2  0
 20 22  1  0
 24 34  1  0
 25 40  1  0
 26 27  1  0
 26 37  1  0
 26 43  1  0
 27 28  1  0
 27 33  1  0
 28 29  1  0
 28 32  2  0
 29 30  1  0
 29 35  2  0
 30 31  2  0
 30 34  1  0
 31 33  1  0
 31 39  1  0
 32 36  1  0
 32 38  1  0
 34 40  2  0
 35 41  1  0
 36 37  1  0
 38 41  2  0
 39 42  2  0
 40 42  1  0
  1 44  1  0
  1 45  1  0
  2 46  1  0
  3 47  1  0
  4 48  1  0
  5 49  1  0
  7 50  1  6
 13 51  1  0
 13 52  1  0
 15 53  1  0
 16 54  1  0
 16 55  1  0
 17 56  1  0
 17 57  1  0
 18 58  1  0
 19 59  1  0
 21 60  1  0
 22 61  1  0
 23 62  1  0
 23 63  1  0
 23 64  1  0
 24 65  1  0
 25 66  1  0
 27 67  1  6
 33 68  1  0
 33 69  1  0
 35 70  1  0
 36 71  1  0
 36 72  1  0
 37 73  1  0
 37 74  1  0
 38 75  1  0
 39 76  1  0
 41 77  1  0
 42 78  1  0
 43 79  1  0
 43 80  1  0
 43 81  1  0
M  END
> <Uni-Dock RESULT> 
ENERGY=   -8.812  LOWER_BOUND=    8.156  UPPER_BOUND=   10.253
INTER + INTRA:          -8.812
INTER:                  -8.812
INTRA:                   0.000
UNBOUND:                 0.000

$$$$

     RDKit          3D

 81 84  0  0  0  0  0  0  0  0999 V2000
   47.8430    8.6426   21.2304 O   0  0  0  0  0  0  0  0  0  0  0  0
   47.8135    9.3158   20.8368 Cl  0  0  0  0  0  0  0  0  0  0  0  0
   47.8136    9.3155   20.8368 Cl  0  0  0  0  0  0  0  0  0  0  0  0
   47.7072   11.8906   22.4609 O   0  0  0  0  0  0  0  0  0  0  0  0
   47.5668   13.7998   20.5617 O   0  0  0  0  0  0  0  0  0  0  0  0
   48.5857    6.4332   19.6718 N   0  0  0  0  0  0  0  0  0  0  0  0
   47.4807    7.3465   19.9091 C   0  0  1  0  0  0  0  0  0  0  0  0
   47.6040    7.7741   21.3237 C   0  0  0  0  0  0  0  0  0  0  0  0
   47.6441    9.0605   21.7559 C   0  0  0  0  0  0  0  0  0  0  0  0
   47.5765   10.1297   20.7787 C   0  0  0  0  0  0  0  0  0  0  0  0
   47.4743    9.8078   19.4386 C   0  0  0  0  0  0  0  0  0  0  0  0
   47.6759    6.7253   22.2521 C   0  0  0  0  0  0  0  0  0  0  0  0
   47.4362    8.4349   18.9123 C   0  0  0  0  0  0  0  0  0  0  0  0
   47.6078   11.4433   21.1606 C   0  0  0  0  0  0  0  0  0  0  0  0
   47.7547    9.3122   23.1043 C   0  0  0  0  0  0  0  0  0  0  0  0
   47.6267    5.3583   21.6833 C   0  0  0  0  0  0  0  0  0  0  0  0
   48.2952    5.2120   20.3615 C   0  0  0  0  0  0  0  0  0  0  0  0
   47.7862    6.9907   23.5942 C   0  0  0  0  0  0  0  0  0  0  0  0
   47.4048   10.8312   18.4963 C   0  0  0  0  0  0  0  0  0  0  0  0
   47.5365   12.4539   20.1948 C   0  0  0  0  0  0  0  0  0  0  0  0
   47.8280    8.2813   24.0517 C   0  0  0  0  0  0  0  0  0  0  0  0
   47.4353   12.1529   18.8672 C   0  0  0  0  0  0  0  0  0  0  0  0
   49.8211    7.0350   20.1358 C   0  0  0  0  0  0  0  0  0  0  0  0
   47.3236   12.0706   22.4441 O   0  0  0  0  0  0  0  0  0  0  0  0
   47.3935   13.8865   20.4439 O   0  0  0  0  0  0  0  0  0  0  0  0
   48.9016    6.4794   20.1087 N   0  0  0  0  0  0  0  0  0  0  0  0
   47.8231    7.3960   20.1451 C   0  0  1  0  0  0  0  0  0  0  0  0
   47.6760    7.9020   21.5173 C   0  0  0  0  0  0  0  0  0  0  0  0
   47.5601    9.2120   21.8923 C   0  0  0  0  0  0  0  0  0  0  0  0
   47.5968   10.2286   20.8679 C   0  0  0  0  0  0  0  0  0  0  0  0
   47.7477    9.8332   19.5648 C   0  0  0  0  0  0  0  0  0  0  0  0
   47.6473    6.9291   22.5220 C   0  0  0  0  0  0  0  0  0  0  0  0
   47.8910    8.4475   19.0997 C   0  0  0  0  0  0  0  0  0  0  0  0
   47.4793   11.5615   21.1692 C   0  0  0  0  0  0  0  0  0  0  0  0
   47.4203    9.5326   23.2257 C   0  0  0  0  0  0  0  0  0  0  0  0
   47.7803    5.5201   22.0442 C   0  0  0  0  0  0  0  0  0  0  0  0
   48.9404    5.4702   21.0846 C   0  0  0  0  0  0  0  0  0  0  0  0
   47.5087    7.2398   23.8507 C   0  0  0  0  0  0  0  0  0  0  0  0
   47.7769   10.8182   18.5693 C   0  0  0  0  0  0  0  0  0  0  0  0
   47.5116   12.5302   20.1541 C   0  0  0  0  0  0  0  0  0  0  0  0
   47.3924    8.5521   24.2244 C   0  0  0  0  0  0  0  0  0  0  0  0
   47.6616   12.1392   18.8542 C   0  0  0  0  0  0  0  0  0  0  0  0
   49.4575    6.1811   18.8435 C   0  0  0  0  0  0  0  0  0  0  0  0
   47.8372    9.4498   20.6517 H   0  0  0  0  0  0  0  0  0  0  0  0
   48.1443    7.8374   20.7398 H   0  0  0  0  0  0  0  0  0  0  0  0
   48.0695    7.9707   20.9111 H   0  0  0  0  0  0  0  0  0  0  0  0
   48.0694    7.9710   20.9111 H   0  0  0  0  0  0  0  0  0  0  0  0
   48.2438   12.7138   22.7035 H   0  0  0  0  0  0  0  0  0  0  0  0
   48.3299   14.2011   21.0702 H   0  0  0  0  0  0  0  0  0  0  0  0
   46.5607    6.7098   19.8719 H   0  0  0  0  0  0  0  0  0  0  0  0
   46.5026    8.3450   18.2873 H   0  0  0  0  0  0  0  0  0  0  0  0
   48.2778    8.3123   18.1797 H   0  0  0  0  0  0  0  0  0  0  0  0
   47.7934   10.2941   23.5327 H   0  0  0  0  0  0  0  0  0  0  0  0
   48.0830    4.6801   22.4511 H   0  0  0  0  0  0  0  0  0  0  0  0
   46.5414    5.0486   21.6610 H   0  0  0  0  0  0  0  0  0  0  0  0
   47.5782    4.6447   19.6999 H   0  0  0  0  0  0  0  0  0  0  0  0
   49.2036    4.5525   20.4085 H   0  0  0  0  0  0  0  0  0  0  0  0
   47.8411    6.1866   24.3050 H   0  0  0  0  0  0  0  0  0  0  0  0
   47.3229   10.6067   17.4234 H   0  0  0  0  0  0  0  0  0  0  0  0
   47.9150    8.4881   25.1121 H   0  0  0  0  0  0  0  0  0  0  0  0
   47.3827   12.9605   18.1541 H   0  0  0  0  0  0  0  0  0  0  0  0
   49.7224    8.1330   20.2677 H   0  0  0  0  0  0  0  0  0  0  0  0
   50.5953    6.8550   19.3667 H   0  0  0  0  0  0  0  0  0  0  0  0
   50.0943    6.5951   21.1269 H   0  0  0  0  0  0  0  0  0  0  0  0
   47.9541   12.8262   22.7092 H   0  0  0  0  0  0  0  0  0  0  0  0
   46.5783   14.2767   20.9044 H   0  0  0  0  0  0  0  0  0  0  0  0
   46.8853    6.7833   19.9593 H   0  0  0  0  0  0  0  0  0  0  0  0
   47.0721    8.2589   18.3382 H   0  0  0  0  0  0  0  0  0  0  0  0
   48.8388    8.3775   18.4880 H   0  0  0  0  0  0  0  0  0  0  0  0
   47.3236   10.5336   23.6050 H   0  0  0  0  0  0  0  0  0  0  0  0
   48.0088    4.8404   22.8908 H   0  0  0  0  0  0  0  0  0  0  0  0
   46.8330    5.1730   21.5851 H   0  0  0  0  0  0  0  0  0  0  0  0
   49.8665    5.5223   21.6881 H   0  0  0  0  0  0  0  0  0  0  0  0
   48.9299    4.4740   20.5885 H   0  0  0  0  0  0  0  0  0  0  0  0
   47.4891    6.4887   24.5976 H   0  0  0  0  0  0  0  0  0  0  0  0
   47.8954   10.5389   17.5219 H   0  0  0  0  0  0  0  0  0  0  0  0
   47.2835    8.7953   25.2684 H   0  0  0  0  0  0  0  0  0  0  0  0
   47.6834   12.8986   18.0946 H   0  0  0  0  0  0  0  0  0  0  0  0
   48.5894    6.0909   18.1269 H   0  0  0  0  0  0  0  0  0  0  0  0
   49.8745    5.1510   18.8786 H   0  0  0  0  0  0  0  0  0  0  0  0
   50.2400    6.8406   18.4659 H   0  0  0  0  0  0  0  0  0  0  0  0
  4 14  1  0
  5 20  1  0
  6  7  1  0
  6 17  1  0
  6 23  1  0
  7  8  1  0
  7 13  1  0
  8  9  1  0
  8 12  2  0
  9 10  1  0
  9 15  2  0
 10 11  2  0
 10 14  1  0
 11 13  1  0
 11 19  1  0
 12 16  1  0
 12 18  1  0
 14 20  2  0
 15 21  1  0
 16 17  1  0
 18 21  2  0
 19 22  2  0
 20 22  1  0
 24 34  1  0
 25 40  1  0
 26 27  1  0
 26 37  1  0
 26 43  1  0
 27 28  1  0
 27 33  1  0
 28 29  1  0
 28 32  2  0
 29 30  1  0
 29 35  2  0
 30 31  2  0
 30 34  1  0
 31 33  1  0
 31 39  1  0
 32 36  1  0
 32 38  1  0
 34 40  2  0
 35 41  1  0
 36 37  1  0
 38 41  2  0
 39 42  2  0
 40 42  1  0
  1 44  1  0
  1 45  1  0
  2 46  1  0
  3 47  1  0
  4 48  1  0
  5 49  1  0
  7 50  1  6
 13 51  1  0
 13 52  1  0
 15 53  1  0
 16 54  1  0
 16 55  1  0
 17 56  1  0
 17 57  1  0
 18 58  1  0
 19 59  1  0
 21 60  1  0
 22 61  1  0
 23 62  1  0
 23 63  1  0
 23 64  1  0
 24 65  1  0
 25 66  1  0
 27 67  1  6
 33 68  1  0
 33 69  1  0
 35 70  1  0
 36 71  1  0
 36 72  1  0
 37 73  1  0
 37 74  1  0
 38 75  1  0
 39 76  1  0
 41 77  1  0
 42 78  1  0
 43 79  1  0
 43 80  1  0
 43 81  1  0
M  END
> <Uni-Dock RESULT> 
ENERGY=   -8.812  LOWER_BOUND=    8.153  UPPER_BOUND=   10.247
INTER + INTRA:          -8.812
INTER:                  -8.812
INTRA:                   0.000
UNBOUND:                 0.000

$$$$

     RDKit          3D

 81 84  0  0  0  0  0  0  0  0999 V2000
   49.9590    4.3322   18.2356 O   0  0  0  0  0  0  0  0  0  0  0  0
   50.6548    3.9793   18.2504 Cl  0  0  0  0  0  0  0  0  0  0  0  0
   50.6546    3.9795   18.2505 Cl  0  0  0  0  0  0  0  0  0  0  0  0
   50.9427    1.3731   16.7000 O   0  0  0  0  0  0  0  0  0  0  0  0
   53.4960    0.6562   17.1882 O   0  0  0  0  0  0  0  0  0  0  0  0
   50.0007    6.9897   19.1291 N   0  0  0  0  0  0  0  0  0  0  0  0
   50.0921    5.6204   19.6067 C   0  0  1  0  0  0  0  0  0  0  0  0
   49.3064    4.8035   18.6504 C   0  0  0  0  0  0  0  0  0  0  0  0
   49.7613    3.7049   17.9952 C   0  0  0  0  0  0  0  0  0  0  0  0
   51.1284    3.2746   18.2156 C   0  0  0  0  0  0  0  0  0  0  0  0
   51.9265    3.9952   19.0839 C   0  0  0  0  0  0  0  0  0  0  0  0
   47.9896    5.2408   18.4451 C   0  0  0  0  0  0  0  0  0  0  0  0
   51.4914    5.1964   19.8127 C   0  0  0  0  0  0  0  0  0  0  0  0
   51.6358    2.1715   17.5848 C   0  0  0  0  0  0  0  0  0  0  0  0
   48.9170    3.0373   17.1379 C   0  0  0  0  0  0  0  0  0  0  0  0
   47.5876    6.4488   19.2026 C   0  0  0  0  0  0  0  0  0  0  0  0
   48.6706    7.4524   19.3900 C   0  0  0  0  0  0  0  0  0  0  0  0
   47.1582    4.5654   17.5870 C   0  0  0  0  0  0  0  0  0  0  0  0
   53.2390    3.5835   19.3023 C   0  0  0  0  0  0  0  0  0  0  0  0
   52.9581    1.7777   17.8206 C   0  0  0  0  0  0  0  0  0  0  0  0
   47.5969    3.4545   16.9162 C   0  0  0  0  0  0  0  0  0  0  0  0
   53.7594    2.4784   18.6752 C   0  0  0  0  0  0  0  0  0  0  0  0
   50.3202    7.0330   17.7150 C   0  0  0  0  0  0  0  0  0  0  0  0
   50.9673    1.0385   16.9593 O   0  0  0  0  0  0  0  0  0  0  0  0
   53.5940    0.5455   17.3601 O   0  0  0  0  0  0  0  0  0  0  0  0
   49.7762    6.9519   18.6382 N   0  0  0  0  0  0  0  0  0  0  0  0
   50.0287    5.6754   19.1964 C   0  0  1  0  0  0  0  0  0  0  0  0
   49.2544    4.6707   18.4537 C   0  0  0  0  0  0  0  0  0  0  0  0
   49.7278    3.4928   17.9453 C   0  0  0  0  0  0  0  0  0  0  0  0
   51.1253    3.1770   18.1228 C   0  0  0  0  0  0  0  0  0  0  0  0
   51.9146    4.0746   18.7926 C   0  0  0  0  0  0  0  0  0  0  0  0
   47.9001    4.9666   18.2662 C   0  0  0  0  0  0  0  0  0  0  0  0
   51.4709    5.3595   19.3488 C   0  0  0  0  0  0  0  0  0  0  0  0
   51.6680    2.0110   17.6463 C   0  0  0  0  0  0  0  0  0  0  0  0
   48.8734    2.6441   17.2745 C   0  0  0  0  0  0  0  0  0  0  0  0
   47.4494    6.2681   18.8444 C   0  0  0  0  0  0  0  0  0  0  0  0
   48.4389    7.3228   18.4228 C   0  0  0  0  0  0  0  0  0  0  0  0
   47.0435    4.1278   17.5999 C   0  0  0  0  0  0  0  0  0  0  0  0
   53.2693    3.7664   18.9712 C   0  0  0  0  0  0  0  0  0  0  0  0
   53.0286    1.7244   17.8376 C   0  0  0  0  0  0  0  0  0  0  0  0
   47.5193    2.9485   17.0918 C   0  0  0  0  0  0  0  0  0  0  0  0
   53.8179    2.6170   18.5051 C   0  0  0  0  0  0  0  0  0  0  0  0
   50.6966    7.9834   18.9343 C   0  0  0  0  0  0  0  0  0  0  0  0
   50.8818    3.9681   18.2844 H   0  0  0  0  0  0  0  0  0  0  0  0
   49.9231    5.2863   18.4971 H   0  0  0  0  0  0  0  0  0  0  0  0
   49.8544    5.0784   18.4276 H   0  0  0  0  0  0  0  0  0  0  0  0
   49.8546    5.0782   18.4276 H   0  0  0  0  0  0  0  0  0  0  0  0
   51.3879    0.9620   15.8892 H   0  0  0  0  0  0  0  0  0  0  0  0
   53.5427    0.5719   16.1919 H   0  0  0  0  0  0  0  0  0  0  0  0
   49.5069    5.6028   20.5608 H   0  0  0  0  0  0  0  0  0  0  0  0
   51.6774    5.0056   20.9078 H   0  0  0  0  0  0  0  0  0  0  0  0
   52.1850    6.0398   19.5524 H   0  0  0  0  0  0  0  0  0  0  0  0
   49.1917    2.1634   16.5809 H   0  0  0  0  0  0  0  0  0  0  0  0
   46.7119    6.8873   18.6563 H   0  0  0  0  0  0  0  0  0  0  0  0
   47.1461    6.0945   20.1793 H   0  0  0  0  0  0  0  0  0  0  0  0
   48.6519    7.7457   20.4796 H   0  0  0  0  0  0  0  0  0  0  0  0
   48.4666    8.4136   18.8450 H   0  0  0  0  0  0  0  0  0  0  0  0
   46.1494    4.9010   17.4303 H   0  0  0  0  0  0  0  0  0  0  0  0
   53.8979    4.1359   19.9871 H   0  0  0  0  0  0  0  0  0  0  0  0
   46.9382    2.9228   16.2392 H   0  0  0  0  0  0  0  0  0  0  0  0
   54.7727    2.1425   18.8301 H   0  0  0  0  0  0  0  0  0  0  0  0
   50.8550    6.1182   17.3836 H   0  0  0  0  0  0  0  0  0  0  0  0
   50.9900    7.8966   17.5454 H   0  0  0  0  0  0  0  0  0  0  0  0
   49.3723    7.1065   17.1264 H   0  0  0  0  0  0  0  0  0  0  0  0
   51.3784    0.7193   16.0830 H   0  0  0  0  0  0  0  0  0  0  0  0
   53.2744   -0.3709   17.6549 H   0  0  0  0  0  0  0  0  0  0  0  0
   49.5662    5.6903   20.2334 H   0  0  0  0  0  0  0  0  0  0  0  0
   51.7300    5.3587   20.4528 H   0  0  0  0  0  0  0  0  0  0  0  0
   52.1309    6.1733   18.9253 H   0  0  0  0  0  0  0  0  0  0  0  0
   49.1627    1.7022   16.8451 H   0  0  0  0  0  0  0  0  0  0  0  0
   46.4559    6.5520   18.4405 H   0  0  0  0  0  0  0  0  0  0  0  0
   47.3516    6.1924   19.9460 H   0  0  0  0  0  0  0  0  0  0  0  0
   48.2446    7.5460   17.3566 H   0  0  0  0  0  0  0  0  0  0  0  0
   48.2142    8.2498   18.9964 H   0  0  0  0  0  0  0  0  0  0  0  0
   46.0205    4.3692   17.4679 H   0  0  0  0  0  0  0  0  0  0  0  0
   53.9261    4.4579   19.4997 H   0  0  0  0  0  0  0  0  0  0  0  0
   46.8457    2.2900   16.5686 H   0  0  0  0  0  0  0  0  0  0  0  0
   54.8561    2.3757   18.6392 H   0  0  0  0  0  0  0  0  0  0  0  0
   50.9684    7.8654   20.0239 H   0  0  0  0  0  0  0  0  0  0  0  0
   50.1557    8.9543   18.9043 H   0  0  0  0  0  0  0  0  0  0  0  0
   51.5759    8.0762   18.2953 H   0  0  0  0  0  0  0  0  0  0  0  0
  4 14  1  0
  5 20  1  0
  6  7  1  0
  6 17  1  0
  6 23  1  0
  7  8  1  0
  7 13  1  0
  8  9  1  0
  8 12  2  0
  9 10  1  0
  9 15  2  0
 10 11  2  0
 10 14  1  0
 11 13  1  0
 11 19  1  0
 12 16  1  0
 12 18  1  0
 14 20  2  0
 15 21  1  0
 16 17  1  0
 18 21  2  0
 19 22  2  0
 20 22  1  0
 24 34  1  0
 25 40  1  0
 26 27  1  0
 26 37  1  0
 26 43  1  0
 27 28  1  0
 27 33  1  0
 28 29  1  0
 28 32  2  0
 29 30  1  0
 29 35  2  0
 30 31  2  0
 30 34  1  0
 31 33  1  0
 31 39  1  0
 32 36  1  0
 32 38  1  0
 34 40  2  0
 35 41  1  0
 36 37  1  0
 38 41  2  0
 39 42  2  0
 40 42  1  0
  1 44  1  0
  1 45  1  0
  2 46  1  0
  3 47  1  0
  4 48  1  0
  5 49  1  0
  7 50  1  6
 13 51  1  0
 13 52  1  0
 15 53  1  0
 16 54  1  0
 16 55  1  0
 17 56  1  0
 17 57  1  0
 18 58  1  0
 19 59  1  0
 21 60  1  0
 22 61  1  0
 23 62  1  0
 23 63  1  0
 23 64  1  0
 24 65  1  0
 25 66  1  0
 27 67  1  6
 33 68  1  0
 33 69  1  0
 35 70  1  0
 36 71  1  0
 36 72  1  0
 37 73  1  0
 37 74  1  0
 38 75  1  0
 39 76  1  0
 41 77  1  0
 42 78  1  0
 43 79  1  0
 43 80  1  0
 43 81  1  0
M  END
> <Uni-Dock RESULT> 
ENERGY=   -8.587  LOWER_BOUND=    7.034  UPPER_BOUND=    8.963
INTER + INTRA:          -8.587
INTER:                  -8.587
INTRA:                   0.000
UNBOUND:                 0.000

$$$$

     RDKit          3D

 81 84  0  0  0  0  0  0  0  0999 V2000
   51.7787    3.4388   18.2157 O   0  0  0  0  0  0  0  0  0  0  0  0
   51.0822    3.7525   18.0561 Cl  0  0  0  0  0  0  0  0  0  0  0  0
   51.0825    3.7525   18.0562 Cl  0  0  0  0  0  0  0  0  0  0  0  0
   48.9081    1.8919   17.0121 O   0  0  0  0  0  0  0  0  0  0  0  0
   46.8244    3.5571   16.6152 O   0  0  0  0  0  0  0  0  0  0  0  0
   53.4519    5.0810   19.7539 N   0  0  0  0  0  0  0  0  0  0  0  0
   52.9002    4.9417   18.4168 C   0  0  1  0  0  0  0  0  0  0  0  0
   52.6829    3.4885   18.2166 C   0  0  0  0  0  0  0  0  0  0  0  0
   51.5133    2.9130   17.8369 C   0  0  0  0  0  0  0  0  0  0  0  0
   50.3572    3.7591   17.6129 C   0  0  0  0  0  0  0  0  0  0  0  0
   50.4799    5.1238   17.7934 C   0  0  0  0  0  0  0  0  0  0  0  0
   53.8108    2.6870   18.4458 C   0  0  0  0  0  0  0  0  0  0  0  0
   51.7168    5.8007   18.2122 C   0  0  0  0  0  0  0  0  0  0  0  0
   49.1560    3.2314   17.2244 C   0  0  0  0  0  0  0  0  0  0  0  0
   51.4567    1.5468   17.6828 C   0  0  0  0  0  0  0  0  0  0  0  0
   55.0381    3.4067   18.8585 C   0  0  0  0  0  0  0  0  0  0  0  0
   54.7994    4.5968   19.7200 C   0  0  0  0  0  0  0  0  0  0  0  0
   53.7401    1.3253   18.2885 C   0  0  0  0  0  0  0  0  0  0  0  0
   49.3735    5.9413   17.5755 C   0  0  0  0  0  0  0  0  0  0  0  0
   48.0585    4.0736   17.0116 C   0  0  0  0  0  0  0  0  0  0  0  0
   52.5702    0.7244   17.9057 C   0  0  0  0  0  0  0  0  0  0  0  0
   48.1631    5.4235   17.1854 C   0  0  0  0  0  0  0  0  0  0  0  0
   52.6350    4.3399   20.6957 C   0  0  0  0  0  0  0  0  0  0  0  0
   48.8317    1.9560   16.5999 O   0  0  0  0  0  0  0  0  0  0  0  0
   46.7674    3.6932   16.4430 O   0  0  0  0  0  0  0  0  0  0  0  0
   53.3957    4.5925   19.9799 N   0  0  0  0  0  0  0  0  0  0  0  0
   52.8025    4.6446   18.6953 C   0  0  1  0  0  0  0  0  0  0  0  0
   52.5729    3.2720   18.2223 C   0  0  0  0  0  0  0  0  0  0  0  0
   51.4117    2.7775   17.6958 C   0  0  0  0  0  0  0  0  0  0  0  0
   50.2716    3.6571   17.5923 C   0  0  0  0  0  0  0  0  0  0  0  0
   50.4057    4.9491   18.0285 C   0  0  0  0  0  0  0  0  0  0  0  0
   53.6661    2.4051   18.3242 C   0  0  0  0  0  0  0  0  0  0  0  0
   51.6180    5.5353   18.6147 C   0  0  0  0  0  0  0  0  0  0  0  0
   49.0774    3.2323   17.0682 C   0  0  0  0  0  0  0  0  0  0  0  0
   51.3509    1.4625   17.2867 C   0  0  0  0  0  0  0  0  0  0  0  0
   54.9012    3.0082   18.9088 C   0  0  0  0  0  0  0  0  0  0  0  0
   54.5017    3.7460   20.1600 C   0  0  0  0  0  0  0  0  0  0  0  0
   53.6137    1.0956   17.9196 C   0  0  0  0  0  0  0  0  0  0  0  0
   49.3022    5.8054   17.9225 C   0  0  0  0  0  0  0  0  0  0  0  0
   47.9857    4.1092   16.9724 C   0  0  0  0  0  0  0  0  0  0  0  0
   52.4502    0.6022   17.3923 C   0  0  0  0  0  0  0  0  0  0  0  0
   48.1163    5.3977   17.4062 C   0  0  0  0  0  0  0  0  0  0  0  0
   53.3396    5.7645   20.7686 C   0  0  0  0  0  0  0  0  0  0  0  0
   50.9192    3.9141   18.0674 H   0  0  0  0  0  0  0  0  0  0  0  0
   52.3928    3.9561   18.7946 H   0  0  0  0  0  0  0  0  0  0  0  0
   52.3116    3.7868   18.6623 H   0  0  0  0  0  0  0  0  0  0  0  0
   52.3114    3.7868   18.6622 H   0  0  0  0  0  0  0  0  0  0  0  0
   48.0237    1.4662   17.2594 H   0  0  0  0  0  0  0  0  0  0  0  0
   46.3264    2.8790   17.1577 H   0  0  0  0  0  0  0  0  0  0  0  0
   53.7368    5.2136   17.7245 H   0  0  0  0  0  0  0  0  0  0  0  0
   51.9430    6.5875   17.4377 H   0  0  0  0  0  0  0  0  0  0  0  0
   51.5037    6.3813   19.1490 H   0  0  0  0  0  0  0  0  0  0  0  0
   50.5773    1.0098   17.3868 H   0  0  0  0  0  0  0  0  0  0  0  0
   55.6891    2.6520   19.3726 H   0  0  0  0  0  0  0  0  0  0  0  0
   55.6074    3.6563   17.9161 H   0  0  0  0  0  0  0  0  0  0  0  0
   55.4199    5.4351   19.2890 H   0  0  0  0  0  0  0  0  0  0  0  0
   55.2039    4.4643   20.7598 H   0  0  0  0  0  0  0  0  0  0  0  0
   54.6048    0.7119   18.4642 H   0  0  0  0  0  0  0  0  0  0  0  0
   49.4401    7.0301   17.7107 H   0  0  0  0  0  0  0  0  0  0  0  0
   52.5171   -0.3511   17.7820 H   0  0  0  0  0  0  0  0  0  0  0  0
   47.2941    6.0385   17.0113 H   0  0  0  0  0  0  0  0  0  0  0  0
   51.6335    4.1040   20.2785 H   0  0  0  0  0  0  0  0  0  0  0  0
   52.4882    4.9746   21.5894 H   0  0  0  0  0  0  0  0  0  0  0  0
   53.1404    3.3723   20.9383 H   0  0  0  0  0  0  0  0  0  0  0  0
   47.9914    1.4993   16.9521 H   0  0  0  0  0  0  0  0  0  0  0  0
   46.6758    3.3435   15.4953 H   0  0  0  0  0  0  0  0  0  0  0  0
   53.5975    5.0621   18.0003 H   0  0  0  0  0  0  0  0  0  0  0  0
   51.8875    6.4464   17.9957 H   0  0  0  0  0  0  0  0  0  0  0  0
   51.3466    5.9729   19.6208 H   0  0  0  0  0  0  0  0  0  0  0  0
   50.4802    0.9953   16.8636 H   0  0  0  0  0  0  0  0  0  0  0  0
   55.6241    2.2172   19.1959 H   0  0  0  0  0  0  0  0  0  0  0  0
   55.4023    3.6646   18.1694 H   0  0  0  0  0  0  0  0  0  0  0  0
   54.3102    2.9858   20.9409 H   0  0  0  0  0  0  0  0  0  0  0  0
   55.3769    4.3458   20.4962 H   0  0  0  0  0  0  0  0  0  0  0  0
   54.4525    0.4541   18.0046 H   0  0  0  0  0  0  0  0  0  0  0  0
   49.3740    6.8399   18.2597 H   0  0  0  0  0  0  0  0  0  0  0  0
   52.4100   -0.4266   17.0746 H   0  0  0  0  0  0  0  0  0  0  0  0
   47.2670    6.0502   17.3226 H   0  0  0  0  0  0  0  0  0  0  0  0
   53.5350    6.6294   20.0694 H   0  0  0  0  0  0  0  0  0  0  0  0
   54.2213    5.7729   21.4460 H   0  0  0  0  0  0  0  0  0  0  0  0
   52.4512    5.9199   21.3823 H   0  0  0  0  0  0  0  0  0  0  0  0
  4 14  1  0
  5 20  1  0
  6  7  1  0
  6 17  1  0
  6 23  1  0
  7  8  1  0
  7 13  1  0
  8  9  1  0
  8 12  2  0
  9 10  1  0
  9 15  2  0
 10 11  2  0
 10 14  1  0
 11 13  1  0
 11 19  1  0
 12 16  1  0
 12 18  1  0
 14 20  2  0
 15 21  1  0
 16 17  1  0
 18 21  2  0
 19 22  2  0
 20 22  1  0
 24 34  1  0
 25 40  1  0
 26 27  1  0
 26 37  1  0
 26 43  1  0
 27 28  1  0
 27 33  1  0
 28 29  1  0
 28 32  2  0
 29 30  1  0
 29 35  2  0
 30 31  2  0
 30 34  1  0
 31 33  1  0
 31 39  1  0
 32 36  1  0
 32 38  1  0
 34 40  2  0
 35 41  1  0
 36 37  1  0
 38 41  2  0
 39 42  2  0
 40 42  1  0
  1 44  1  0
  1 45  1  0
  2 46  1  0
  3 47  1  0
  4 48  1  0
  5 49  1  0
  7 50  1  6
 13 51  1  0
 13 52  1  0
 15 53  1  0
 16 54  1  0
 16 55  1  0
 17 56  1  0
 17 57  1  0
 18 58  1  0
 19 59  1  0
 21 60  1  0
 22 61  1  0
 23 62  1  0
 23 63  1  0
 23 64  1  0
 24 65  1  0
 25 66  1  0
 27 67  1  6
 33 68  1  0
 33 69  1  0
 35 70  1  0
 36 71  1  0
 36 72  1  0
 37 73  1  0
 37 74  1  0
 38 75  1  0
 39 76  1  0
 41 77  1  0
 42 78  1  0
 43 79  1  0
 43 80  1  0
 43 81  1  0
M  END
> <Uni-Dock RESULT> 
ENERGY=   -8.228  LOWER_BOUND=    7.388  UPPER_BOUND=    9.485
INTER + INTRA:          -8.228
INTER:                  -8.228
INTRA:                   0.000
UNBOUND:                 0.000

$$$$

     RDKit          3D

 81 84  0  0  0  0  0  0  0  0999 V2000
   46.2773    8.7584   12.4861 O   0  0  0  0  0  0  0  0  0  0  0  0
   45.9648    9.4439   12.2825 Cl  0  0  0  0  0  0  0  0  0  0  0  0
   45.9650    9.4437   12.2827 Cl  0  0  0  0  0  0  0  0  0  0  0  0
   43.0208    9.4702   11.5009 O   0  0  0  0  0  0  0  0  0  0  0  0
   42.5840   12.0555   10.8708 O   0  0  0  0  0  0  0  0  0  0  0  0
   48.7530    8.9665   13.7861 N   0  0  0  0  0  0  0  0  0  0  0  0
   48.1315    9.1033   12.4798 C   0  0  1  0  0  0  0  0  0  0  0  0
   46.9725    8.1781   12.4827 C   0  0  0  0  0  0  0  0  0  0  0  0
   45.6930    8.5192   12.1832 C   0  0  0  0  0  0  0  0  0  0  0  0
   45.3977    9.8970   11.8407 C   0  0  0  0  0  0  0  0  0  0  0  0
   46.4259   10.8205   11.8303 C   0  0  0  0  0  0  0  0  0  0  0  0
   47.2777    6.8525   12.8242 C   0  0  0  0  0  0  0  0  0  0  0  0
   47.8268   10.5110   12.1545 C   0  0  0  0  0  0  0  0  0  0  0  0
   44.1265   10.2934   11.5259 C   0  0  0  0  0  0  0  0  0  0  0  0
   44.7146    7.5523   12.2202 C   0  0  0  0  0  0  0  0  0  0  0  0
   48.7000    6.5799   13.1363 C   0  0  0  0  0  0  0  0  0  0  0  0
   49.4088    7.6938   13.8235 C   0  0  0  0  0  0  0  0  0  0  0  0
   46.2919    5.8981   12.8572 C   0  0  0  0  0  0  0  0  0  0  0  0
   46.1483   12.1442   11.4978 C   0  0  0  0  0  0  0  0  0  0  0  0
   43.8725   11.6294   11.1951 C   0  0  0  0  0  0  0  0  0  0  0  0
   44.9945    6.2207   12.5583 C   0  0  0  0  0  0  0  0  0  0  0  0
   44.8768   12.5539   11.1800 C   0  0  0  0  0  0  0  0  0  0  0  0
   47.7421    9.0841   14.8194 C   0  0  0  0  0  0  0  0  0  0  0  0
   42.9701    9.5260   11.0836 O   0  0  0  0  0  0  0  0  0  0  0  0
   42.6183   12.1751   10.6812 O   0  0  0  0  0  0  0  0  0  0  0  0
   48.4030    8.6744   14.0776 N   0  0  0  0  0  0  0  0  0  0  0  0
   47.8851    8.9835   12.7966 C   0  0  1  0  0  0  0  0  0  0  0  0
   46.7463    8.0969   12.5181 C   0  0  0  0  0  0  0  0  0  0  0  0
   45.5140    8.4758   12.0621 C   0  0  0  0  0  0  0  0  0  0  0  0
   45.2643    9.8793   11.8342 C   0  0  0  0  0  0  0  0  0  0  0  0
   46.2753   10.7688   12.0871 C   0  0  0  0  0  0  0  0  0  0  0  0
   46.9702    6.7344   12.7424 C   0  0  0  0  0  0  0  0  0  0  0  0
   47.6125   10.4278   12.5897 C   0  0  0  0  0  0  0  0  0  0  0  0
   44.0552   10.3314   11.3708 C   0  0  0  0  0  0  0  0  0  0  0  0
   44.5435    7.5224   11.8394 C   0  0  0  0  0  0  0  0  0  0  0  0
   48.3354    6.3898   13.2411 C   0  0  0  0  0  0  0  0  0  0  0  0
   48.6572    7.3260   14.3766 C   0  0  0  0  0  0  0  0  0  0  0  0
   46.0101    5.7797   12.5234 C   0  0  0  0  0  0  0  0  0  0  0  0
   46.0364   12.1303   11.8602 C   0  0  0  0  0  0  0  0  0  0  0  0
   43.8397   11.7008   11.1512 C   0  0  0  0  0  0  0  0  0  0  0  0
   44.7767    6.1608   12.0665 C   0  0  0  0  0  0  0  0  0  0  0  0
   44.8456   12.5899   11.4021 C   0  0  0  0  0  0  0  0  0  0  0  0
   49.2265    9.6432   14.6958 C   0  0  0  0  0  0  0  0  0  0  0  0
   45.9557    9.6732   12.2708 H   0  0  0  0  0  0  0  0  0  0  0  0
   47.1296    8.7744   12.9893 H   0  0  0  0  0  0  0  0  0  0  0  0
   46.9436    8.6935   12.8816 H   0  0  0  0  0  0  0  0  0  0  0  0
   46.9434    8.6936   12.8815 H   0  0  0  0  0  0  0  0  0  0  0  0
   42.1092    9.7903   11.8025 H   0  0  0  0  0  0  0  0  0  0  0  0
   41.8120   11.9600   11.5007 H   0  0  0  0  0  0  0  0  0  0  0  0
   48.8631    8.6583   11.7588 H   0  0  0  0  0  0  0  0  0  0  0  0
   48.4519   10.8466   11.2789 H   0  0  0  0  0  0  0  0  0  0  0  0
   48.1497   11.1738   13.0010 H   0  0  0  0  0  0  0  0  0  0  0  0
   43.6811    7.7322   11.9992 H   0  0  0  0  0  0  0  0  0  0  0  0
   48.7142    5.6427   13.7521 H   0  0  0  0  0  0  0  0  0  0  0  0
   49.1978    6.2751   12.1701 H   0  0  0  0  0  0  0  0  0  0  0  0
   50.3890    7.8334   13.2821 H   0  0  0  0  0  0  0  0  0  0  0  0
   49.7116    7.4297   14.8728 H   0  0  0  0  0  0  0  0  0  0  0  0
   46.5265    4.8825   13.1188 H   0  0  0  0  0  0  0  0  0  0  0  0
   46.9448   12.9015   11.4807 H   0  0  0  0  0  0  0  0  0  0  0  0
   44.2179    5.4651   12.5850 H   0  0  0  0  0  0  0  0  0  0  0  0
   44.6402   13.5737   10.9198 H   0  0  0  0  0  0  0  0  0  0  0  0
   46.8113    9.5527   14.4361 H   0  0  0  0  0  0  0  0  0  0  0  0
   48.1461    9.7364   15.6159 H   0  0  0  0  0  0  0  0  0  0  0  0
   47.4809    8.0639   15.1954 H   0  0  0  0  0  0  0  0  0  0  0  0
   42.0794    9.8044   11.4935 H   0  0  0  0  0  0  0  0  0  0  0  0
   42.2274   11.8862    9.7910 H   0  0  0  0  0  0  0  0  0  0  0  0
   48.6844    8.6721   12.0525 H   0  0  0  0  0  0  0  0  0  0  0  0
   48.3677   10.8399   11.8509 H   0  0  0  0  0  0  0  0  0  0  0  0
   47.8026   11.0339   13.5245 H   0  0  0  0  0  0  0  0  0  0  0  0
   43.5519    7.7337   11.4828 H   0  0  0  0  0  0  0  0  0  0  0  0
   48.3567    5.3537   13.6373 H   0  0  0  0  0  0  0  0  0  0  0  0
   49.0768    6.4471   12.4191 H   0  0  0  0  0  0  0  0  0  0  0  0
   48.0760    6.9867   15.2549 H   0  0  0  0  0  0  0  0  0  0  0  0
   49.7337    7.1987   14.6287 H   0  0  0  0  0  0  0  0  0  0  0  0
   46.1984    4.7521   12.6991 H   0  0  0  0  0  0  0  0  0  0  0  0
   46.8188   12.8656   12.0507 H   0  0  0  0  0  0  0  0  0  0  0  0
   44.0230    5.4102   11.8946 H   0  0  0  0  0  0  0  0  0  0  0  0
   44.6571   13.6329   11.2264 H   0  0  0  0  0  0  0  0  0  0  0  0
   49.8887   10.0641   13.8837 H   0  0  0  0  0  0  0  0  0  0  0  0
   49.9400    9.1184   15.3679 H   0  0  0  0  0  0  0  0  0  0  0  0
   48.7382   10.4249   15.2794 H   0  0  0  0  0  0  0  0  0  0  0  0
  4 14  1  0
  5 20  1  0
  6  7  1  0
  6 17  1  0
  6 23  1  0
  7  8  1  0
  7 13  1  0
  8  9  1  0
  8 12  2  0
  9 10  1  0
  9 15  2  0
 10 11  2  0
 10 14  1  0
 11 13  1  0
 11 19  1  0
 12 16  1  0
 12 18  1  0
 14 20  2  0
 15 21  1  0
 16 17  1  0
 18 21  2  0
 19 22  2  0
 20 22  1  0
 24 34  1  0
 25 40  1  0
 26 27  1  0
 26 37  1  0
 26 43  1  0
 27 28  1  0
 27 33  1  0
 28 29  1  0
 28 32  2  0
 29 30  1  0
 29 35  2  0
 30 31  2  0
 30 34  1  0
 31 33  1  0
 31 39  1  0
 32 36  1  0
 32 38  1  0
 34 40  2  0
 35 41  1  0
 36 37  1  0
 38 41  2  0
 39 42  2  0
 40 42  1  0
  1 44  1  0
  1 45  1  0
  2 46  1  0
  3 47  1  0
  4 48  1  0
  5 49  1  0
  7 50  1  6
 13 51  1  0
 13 52  1  0
 15 53  1  0
 16 54  1  0
 16 55  1  0
 17 56  1  0
 17 57  1  0
 18 58  1  0
 19 59  1  0
 21 60  1  0
 22 61  1  0
 23 62  1  0
 23 63  1  0
 23 64  1  0
 24 65  1  0
 25 66  1  0
 27 67  1  6
 33 68  1  0
 33 69  1  0
 35 70  1  0
 36 71  1  0
 36 72  1  0
 37 73  1  0
 37 74  1  0
 38 75  1  0
 39 76  1  0
 41 77  1  0
 42 78  1  0
 43 79  1  0
 43 80  1  0
 43 81  1  0
M  END
> <Uni-Dock RESULT> 
ENERGY=   -8.156  LOWER_BOUND=    1.761  UPPER_BOUND=    4.495
INTER + INTRA:          -8.156
INTER:                  -8.156
INTRA:                   0.000
UNBOUND:                 0.000

$$$$

     RDKit          3D

 81 84  0  0  0  0  0  0  0  0999 V2000
   48.4322    5.6170   16.2506 O   0  0  0  0  0  0  0  0  0  0  0  0
   48.2223    5.8752   15.5447 Cl  0  0  0  0  0  0  0  0  0  0  0  0
   48.2224    5.8752   15.5450 Cl  0  0  0  0  0  0  0  0  0  0  0  0
   45.9802    4.3904   14.1139 O   0  0  0  0  0  0  0  0  0  0  0  0
   45.7809    5.7072   11.7691 O   0  0  0  0  0  0  0  0  0  0  0  0
   50.0097    7.4187   17.7094 N   0  0  0  0  0  0  0  0  0  0  0  0
   50.0612    6.5097   16.5769 C   0  0  1  0  0  0  0  0  0  0  0  0
   49.0724    5.4432   16.8669 C   0  0  0  0  0  0  0  0  0  0  0  0
   48.0658    5.0581   16.0413 C   0  0  0  0  0  0  0  0  0  0  0  0
   47.9074    5.7339   14.7682 C   0  0  0  0  0  0  0  0  0  0  0  0
   48.7840    6.7489   14.4341 C   0  0  0  0  0  0  0  0  0  0  0  0
   49.2379    4.8075   18.1062 C   0  0  0  0  0  0  0  0  0  0  0  0
   49.8852    7.2140   15.2911 C   0  0  0  0  0  0  0  0  0  0  0  0
   46.9130    5.3820   13.8966 C   0  0  0  0  0  0  0  0  0  0  0  0
   47.2226    4.0456   16.4381 C   0  0  0  0  0  0  0  0  0  0  0  0
   50.3622    5.2993   18.9362 C   0  0  0  0  0  0  0  0  0  0  0  0
   50.6243    6.7600   18.8228 C   0  0  0  0  0  0  0  0  0  0  0  0
   48.3895    3.7990   18.4894 C   0  0  0  0  0  0  0  0  0  0  0  0
   48.6388    7.3983   13.2106 C   0  0  0  0  0  0  0  0  0  0  0  0
   46.7875    6.0496   12.6728 C   0  0  0  0  0  0  0  0  0  0  0  0
   47.3677    3.3948   17.6715 C   0  0  0  0  0  0  0  0  0  0  0  0
   47.6450    7.0541   12.3278 C   0  0  0  0  0  0  0  0  0  0  0  0
   48.6305    7.7728   17.9852 C   0  0  0  0  0  0  0  0  0  0  0  0
   46.1269    4.1605   13.7892 O   0  0  0  0  0  0  0  0  0  0  0  0
   45.8945    5.6903   11.5736 O   0  0  0  0  0  0  0  0  0  0  0  0
   49.5765    7.2631   17.9940 N   0  0  0  0  0  0  0  0  0  0  0  0
   49.7010    6.5290   16.7897 C   0  0  1  0  0  0  0  0  0  0  0  0
   48.8592    5.3272   16.8769 C   0  0  0  0  0  0  0  0  0  0  0  0
   47.9655    4.8911   15.9381 C   0  0  0  0  0  0  0  0  0  0  0  0
   47.7932    5.6706   14.7352 C   0  0  0  0  0  0  0  0  0  0  0  0
   48.5336    6.8143   14.5901 C   0  0  0  0  0  0  0  0  0  0  0  0
   49.0087    4.5659   18.0409 C   0  0  0  0  0  0  0  0  0  0  0  0
   49.4969    7.3423   15.5649 C   0  0  0  0  0  0  0  0  0  0  0  0
   46.9204    5.2906   13.7477 C   0  0  0  0  0  0  0  0  0  0  0  0
   47.2495    3.7342   16.1598 C   0  0  0  0  0  0  0  0  0  0  0  0
   49.9987    5.0988   19.0243 C   0  0  0  0  0  0  0  0  0  0  0  0
   49.7176    6.5676   19.2059 C   0  0  0  0  0  0  0  0  0  0  0  0
   48.3002    3.4138   18.2691 C   0  0  0  0  0  0  0  0  0  0  0  0
   48.3721    7.5680   13.4205 C   0  0  0  0  0  0  0  0  0  0  0  0
   46.7759    6.0626   12.5845 C   0  0  0  0  0  0  0  0  0  0  0  0
   47.4059    2.9785   17.3278 C   0  0  0  0  0  0  0  0  0  0  0  0
   47.5127    7.2030   12.4368 C   0  0  0  0  0  0  0  0  0  0  0  0
   49.9781    8.6184   17.9724 C   0  0  0  0  0  0  0  0  0  0  0  0
   48.2103    6.0291   15.3744 H   0  0  0  0  0  0  0  0  0  0  0  0
   48.9517    6.2310   16.8276 H   0  0  0  0  0  0  0  0  0  0  0  0
   48.8405    6.0429   16.7571 H   0  0  0  0  0  0  0  0  0  0  0  0
   48.8404    6.0429   16.7568 H   0  0  0  0  0  0  0  0  0  0  0  0
   45.0206    4.4822   13.8054 H   0  0  0  0  0  0  0  0  0  0  0  0
   44.8093    5.7489   12.0059 H   0  0  0  0  0  0  0  0  0  0  0  0
   51.0615    6.0119   16.6455 H   0  0  0  0  0  0  0  0  0  0  0  0
   50.8313    7.1443   14.6827 H   0  0  0  0  0  0  0  0  0  0  0  0
   49.7505    8.3129   15.4765 H   0  0  0  0  0  0  0  0  0  0  0  0
   46.4038    3.6787   15.8514 H   0  0  0  0  0  0  0  0  0  0  0  0
   50.1269    5.0055   19.9926 H   0  0  0  0  0  0  0  0  0  0  0  0
   51.2639    4.6718   18.6763 H   0  0  0  0  0  0  0  0  0  0  0  0
   51.7373    6.8763   18.6767 H   0  0  0  0  0  0  0  0  0  0  0  0
   50.4154    7.3110   19.7795 H   0  0  0  0  0  0  0  0  0  0  0  0
   48.5171    3.3123   19.4390 H   0  0  0  0  0  0  0  0  0  0  0  0
   49.3204    8.2090   12.9168 H   0  0  0  0  0  0  0  0  0  0  0  0
   46.6991    2.5979   17.9765 H   0  0  0  0  0  0  0  0  0  0  0  0
   47.5149    7.5439   11.3755 H   0  0  0  0  0  0  0  0  0  0  0  0
   47.9661    7.5506   17.1239 H   0  0  0  0  0  0  0  0  0  0  0  0
   48.5911    8.8624   18.1705 H   0  0  0  0  0  0  0  0  0  0  0  0
   48.2665    7.1782   18.8595 H   0  0  0  0  0  0  0  0  0  0  0  0
   45.1373    4.2953   13.5863 H   0  0  0  0  0  0  0  0  0  0  0  0
   45.9741    4.8087   11.0782 H   0  0  0  0  0  0  0  0  0  0  0  0
   50.7664    6.1366   16.7710 H   0  0  0  0  0  0  0  0  0  0  0  0
   50.4913    7.4556   15.0318 H   0  0  0  0  0  0  0  0  0  0  0  0
   49.2060    8.4074   15.8061 H   0  0  0  0  0  0  0  0  0  0  0  0
   46.5293    3.3226   15.4762 H   0  0  0  0  0  0  0  0  0  0  0  0
   49.8758    4.6040   20.0096 H   0  0  0  0  0  0  0  0  0  0  0  0
   51.0341    4.9031   18.6804 H   0  0  0  0  0  0  0  0  0  0  0  0
   48.8092    6.6517   19.8322 H   0  0  0  0  0  0  0  0  0  0  0  0
   50.5579    7.0060   19.7893 H   0  0  0  0  0  0  0  0  0  0  0  0
   48.4272    2.8504   19.1572 H   0  0  0  0  0  0  0  0  0  0  0  0
   48.9456    8.4835   13.2720 H   0  0  0  0  0  0  0  0  0  0  0  0
   46.8498    2.0734   17.5078 H   0  0  0  0  0  0  0  0  0  0  0  0
   47.3850    7.7774   11.5379 H   0  0  0  0  0  0  0  0  0  0  0  0
   50.9240    8.6611   17.3571 H   0  0  0  0  0  0  0  0  0  0  0  0
   50.3184    8.8988   18.9931 H   0  0  0  0  0  0  0  0  0  0  0  0
   49.2431    9.3594   17.6550 H   0  0  0  0  0  0  0  0  0  0  0  0
  4 14  1  0
  5 20  1  0
  6  7  1  0
  6 17  1  0
  6 23  1  0
  7  8  1  0
  7 13  1  0
  8  9  1  0
  8 12  2  0
  9 10  1  0
  9 15  2  0
 10 11  2  0
 10 14  1  0
 11 13  1  0
 11 19  1  0
 12 16  1  0
 12 18  1  0
 14 20  2  0
 15 21  1  0
 16 17  1  0
 18 21  2  0
 19 22  2  0
 20 22  1  0
 24 34  1  0
 25 40  1  0
 26 27  1  0
 26 37  1  0
 26 43  1  0
 27 28  1  0
 27 33  1  0
 28 29  1  0
 28 32  2  0
 29 30  1  0
 29 35  2  0
 30 31  2  0
 30 34  1  0
 31 33  1  0
 31 39  1  0
 32 36  1  0
 32 38  1  0
 34 40  2  0
 35 41  1  0
 36 37  1  0
 38 41  2  0
 39 42  2  0
 40 42  1  0
  1 44  1  0
  1 45  1  0
  2 46  1  0
  3 47  1  0
  4 48  1  0
  5 49  1  0
  7 50  1  6
 13 51  1  0
 13 52  1  0
 15 53  1  0
 16 54  1  0
 16 55  1  0
 17 56  1  0
 17 57  1  0
 18 58  1  0
 19 59  1  0
 21 60  1  0
 22 61  1  0
 23 62  1  0
 23 63  1  0
 23 64  1  0
 24 65  1  0
 25 66  1  0
 27 67  1  6
 33 68  1  0
 33 69  1  0
 35 70  1  0
 36 71  1  0
 36 72  1  0
 37 73  1  0
 37 74  1  0
 38 75  1  0
 39 76  1  0
 41 77  1  0
 42 78  1  0
 43 79  1  0
 43 80  1  0
 43 81  1  0
M  END
> <Uni-Dock RESULT> 
ENERGY=   -7.931  LOWER_BOUND=    3.854  UPPER_BOUND=    5.905
INTER + INTRA:          -7.931
INTER:                  -7.931
INTRA:                   0.000
UNBOUND:                 0.000

$$$$
