
     RDKit          3D

 81 84  0  0  0  0  0  0  0  0999 V2000
   45.4294    8.1660   12.2309 O   0  0  0  0  0  0  0  0  0  0  0  0
   45.5310    7.3922   12.3837 Cl  0  0  0  0  0  0  0  0  0  0  0  0
   45.5304    7.3905   12.3838 Cl  0  0  0  0  0  0  0  0  0  0  0  0
   45.8701    4.3834   13.4862 O   0  0  0  0  0  0  0  0  0  0  0  0
   43.4433    3.3322   12.9577 O   0  0  0  0  0  0  0  0  0  0  0  0
   45.6593   10.4529   12.2294 N   0  0  0  0  0  0  0  0  0  0  0  0
   45.7768    9.2147   11.5351 C   0  0  1  0  0  0  0  0  0  0  0  0
   46.7642    8.3780   12.2604 C   0  0  0  0  0  0  0  0  0  0  0  0
   46.5443    7.1003   12.6800 C   0  0  0  0  0  0  0  0  0  0  0  0
   45.2586    6.4924   12.4245 C   0  0  0  0  0  0  0  0  0  0  0  0
   44.2859    7.2125   11.7661 C   0  0  0  0  0  0  0  0  0  0  0  0
   47.9997    8.9989   12.4996 C   0  0  0  0  0  0  0  0  0  0  0  0
   44.4612    8.6040   11.2943 C   0  0  0  0  0  0  0  0  0  0  0  0
   44.9958    5.2060   12.8259 C   0  0  0  0  0  0  0  0  0  0  0  0
   47.5547    6.4376   13.3386 C   0  0  0  0  0  0  0  0  0  0  0  0
   48.1287   10.3896   12.0019 C   0  0  0  0  0  0  0  0  0  0  0  0
   46.8956   11.1800   12.3584 C   0  0  0  0  0  0  0  0  0  0  0  0
   48.9827    8.3157   13.1555 C   0  0  0  0  0  0  0  0  0  0  0  0
   43.0330    6.6446   11.5030 C   0  0  0  0  0  0  0  0  0  0  0  0
   43.7366    4.6491   12.5562 C   0  0  0  0  0  0  0  0  0  0  0  0
   48.7971    7.0335   13.5902 C   0  0  0  0  0  0  0  0  0  0  0  0
   42.7704    5.3566   11.9052 C   0  0  0  0  0  0  0  0  0  0  0  0
   44.6025   11.3006   11.7001 C   0  0  0  0  0  0  0  0  0  0  0  0
   42.9133    5.5647   11.6484 O   0  0  0  0  0  0  0  0  0  0  0  0
   43.6520    3.1825   12.6938 O   0  0  0  0  0  0  0  0  0  0  0  0
   47.8129    9.5457   12.2457 N   0  0  0  0  0  0  0  0  0  0  0  0
   46.7147    8.8733   12.8993 C   0  0  1  0  0  0  0  0  0  0  0  0
   45.4590    8.9436   12.1372 C   0  0  0  0  0  0  0  0  0  0  0  0
   44.5945    7.9074   11.9273 C   0  0  0  0  0  0  0  0  0  0  0  0
   44.9745    6.6049   12.4478 C   0  0  0  0  0  0  0  0  0  0  0  0
   46.1647    6.4971   13.1036 C   0  0  0  0  0  0  0  0  0  0  0  0
   45.1376   10.2069   11.6190 C   0  0  0  0  0  0  0  0  0  0  0  0
   47.1836    7.5325   13.3186 C   0  0  0  0  0  0  0  0  0  0  0  0
   44.1246    5.5335   12.2951 C   0  0  0  0  0  0  0  0  0  0  0  0
   43.4386    8.1292   11.2199 C   0  0  0  0  0  0  0  0  0  0  0  0
   46.1533   11.2767   11.9008 C   0  0  0  0  0  0  0  0  0  0  0  0
   47.4700   10.6788   11.4617 C   0  0  0  0  0  0  0  0  0  0  0  0
   43.9955   10.4116   10.9232 C   0  0  0  0  0  0  0  0  0  0  0  0
   46.4887    5.2295   13.6243 C   0  0  0  0  0  0  0  0  0  0  0  0
   44.4792    4.2877   12.8253 C   0  0  0  0  0  0  0  0  0  0  0  0
   43.1094    9.3897   10.6989 C   0  0  0  0  0  0  0  0  0  0  0  0
   45.6671    4.1446   13.4908 C   0  0  0  0  0  0  0  0  0  0  0  0
   48.7804    9.8818   13.2990 C   0  0  0  0  0  0  0  0  0  0  0  0
   46.2471    8.7067   12.3849 H   0  0  0  0  0  0  0  0  0  0  0  0
   45.6661    7.2231   12.4502 H   0  0  0  0  0  0  0  0  0  0  0  0
   46.0306    8.6717   12.3269 H   0  0  0  0  0  0  0  0  0  0  0  0
   46.0312    8.6734   12.3269 H   0  0  0  0  0  0  0  0  0  0  0  0
   45.6888    3.8214   14.2970 H   0  0  0  0  0  0  0  0  0  0  0  0
   44.0779    2.6225   12.5799 H   0  0  0  0  0  0  0  0  0  0  0  0
   46.2597    9.4176   10.5330 H   0  0  0  0  0  0  0  0  0  0  0  0
   44.1633    8.6240   10.2120 H   0  0  0  0  0  0  0  0  0  0  0  0
   43.6371    9.1909   11.7944 H   0  0  0  0  0  0  0  0  0  0  0  0
   47.4737    5.4330   13.7048 H   0  0  0  0  0  0  0  0  0  0  0  0
   48.9837   10.9004   12.4909 H   0  0  0  0  0  0  0  0  0  0  0  0
   48.3084   10.3746   10.8966 H   0  0  0  0  0  0  0  0  0  0  0  0
   47.0165   11.5355   13.3911 H   0  0  0  0  0  0  0  0  0  0  0  0
   46.8454   12.0880   11.7026 H   0  0  0  0  0  0  0  0  0  0  0  0
   49.9331    8.7913   13.3402 H   0  0  0  0  0  0  0  0  0  0  0  0
   42.2633    7.1968   10.9890 H   0  0  0  0  0  0  0  0  0  0  0  0
   49.5852    6.5015   14.1098 H   0  0  0  0  0  0  0  0  0  0  0  0
   41.8195    4.8786   11.7239 H   0  0  0  0  0  0  0  0  0  0  0  0
   44.1580   10.8817   10.7661 H   0  0  0  0  0  0  0  0  0  0  0  0
   43.8409   11.5394   12.4731 H   0  0  0  0  0  0  0  0  0  0  0  0
   45.0627   12.2757   11.3925 H   0  0  0  0  0  0  0  0  0  0  0  0
   42.6073    4.7808   11.0625 H   0  0  0  0  0  0  0  0  0  0  0  0
   44.1266    2.2976   12.4793 H   0  0  0  0  0  0  0  0  0  0  0  0
   46.4897    9.4588   13.8551 H   0  0  0  0  0  0  0  0  0  0  0  0
   48.1216    7.2398   12.7228 H   0  0  0  0  0  0  0  0  0  0  0  0
   47.4994    7.5834   14.3949 H   0  0  0  0  0  0  0  0  0  0  0  0
   42.7104    7.3708   11.0115 H   0  0  0  0  0  0  0  0  0  0  0  0
   45.9091   12.2028   11.3803 H   0  0  0  0  0  0  0  0  0  0  0  0
   46.1870   11.4322   13.0068 H   0  0  0  0  0  0  0  0  0  0  0  0
   47.4077   10.4060   10.3840 H   0  0  0  0  0  0  0  0  0  0  0  0
   48.2670   11.4531   11.5814 H   0  0  0  0  0  0  0  0  0  0  0  0
   43.7632   11.3898   10.5314 H   0  0  0  0  0  0  0  0  0  0  0  0
   47.4237    5.0697   14.1612 H   0  0  0  0  0  0  0  0  0  0  0  0
   42.1888    9.5464   10.1407 H   0  0  0  0  0  0  0  0  0  0  0  0
   45.9205    3.1842   13.8894 H   0  0  0  0  0  0  0  0  0  0  0  0
   49.3317   10.8226   13.0605 H   0  0  0  0  0  0  0  0  0  0  0  0
   49.4251    9.0180   13.4859 H   0  0  0  0  0  0  0  0  0  0  0  0
   48.1977   10.1039   14.2202 H   0  0  0  0  0  0  0  0  0  0  0  0
  4 14  1  0
  5 20  1  0
  6  7  1  0
  6 17  1  0
  6 23  1  0
  7  8  1  0
  7 13  1  0
  8  9  1  0
  8 12  2  0
  9 10  1  0
  9 15  2  0
 10 11  2  0
 10 14  1  0
 11 13  1  0
 11 19  1  0
 12 16  1  0
 12 18  1  0
 14 20  2  0
 15 21  1  0
 16 17  1  0
 18 21  2  0
 19 22  2  0
 20 22  1  0
 24 34  1  0
 25 40  1  0
 26 27  1  0
 26 37  1  0
 26 43  1  0
 27 28  1  0
 27 33  1  0
 28 29  1  0
 28 32  2  0
 29 30  1  0
 29 35  2  0
 30 31  2  0
 30 34  1  0
 31 33  1  0
 31 39  1  0
 32 36  1  0
 32 38  1  0
 34 40  2  0
 35 41  1  0
 36 37  1  0
 38 41  2  0
 39 42  2  0
 40 42  1  0
  1 44  1  0
  1 45  1  0
  2 46  1  0
  3 47  1  0
  4 48  1  0
  5 49  1  0
  7 50  1  1
 13 51  1  0
 13 52  1  0
 15 53  1  0
 16 54  1  0
 16 55  1  0
 17 56  1  0
 17 57  1  0
 18 58  1  0
 19 59  1  0
 21 60  1  0
 22 61  1  0
 23 62  1  0
 23 63  1  0
 23 64  1  0
 24 65  1  0
 25 66  1  0
 27 67  1  6
 33 68  1  0
 33 69  1  0
 35 70  1  0
 36 71  1  0
 36 72  1  0
 37 73  1  0
 37 74  1  0
 38 75  1  0
 39 76  1  0
 41 77  1  0
 42 78  1  0
 43 79  1  0
 43 80  1  0
 43 81  1  0
M  END
> <Uni-Dock RESULT> 
ENERGY=   -8.558  LOWER_BOUND=    0.000  UPPER_BOUND=    0.000
INTER + INTRA:          -8.558
INTER:                  -8.558
INTRA:                   0.000
UNBOUND:                 0.000

$$$$

     RDKit          3D

 81 84  0  0  0  0  0  0  0  0999 V2000
   46.2190    7.8647   12.3811 O   0  0  0  0  0  0  0  0  0  0  0  0
   45.5383    7.4541   12.3570 Cl  0  0  0  0  0  0  0  0  0  0  0  0
   45.5374    7.4526   12.3573 Cl  0  0  0  0  0  0  0  0  0  0  0  0
   42.8842    5.7238   11.7701 O   0  0  0  0  0  0  0  0  0  0  0  0
   43.6039    3.2925   12.6894 O   0  0  0  0  0  0  0  0  0  0  0  0
   47.8662    9.4123   11.9632 N   0  0  0  0  0  0  0  0  0  0  0  0
   46.8823    8.8870   12.8494 C   0  0  1  0  0  0  0  0  0  0  0  0
   45.5583    9.0293   12.1954 C   0  0  0  0  0  0  0  0  0  0  0  0
   44.6599    8.0187   12.0264 C   0  0  0  0  0  0  0  0  0  0  0  0
   44.9992    6.6959   12.4984 C   0  0  0  0  0  0  0  0  0  0  0  0
   46.2175    6.4835   13.1057 C   0  0  0  0  0  0  0  0  0  0  0  0
   45.2614   10.3237   11.7418 C   0  0  0  0  0  0  0  0  0  0  0  0
   47.2368    7.5365   13.3101 C   0  0  0  0  0  0  0  0  0  0  0  0
   44.1220    5.6498   12.3526 C   0  0  0  0  0  0  0  0  0  0  0  0
   43.4632    8.2950   11.4055 C   0  0  0  0  0  0  0  0  0  0  0  0
   46.3108   11.3447   11.9758 C   0  0  0  0  0  0  0  0  0  0  0  0
   47.6610   10.7904   11.5991 C   0  0  0  0  0  0  0  0  0  0  0  0
   44.0658   10.5666   11.1294 C   0  0  0  0  0  0  0  0  0  0  0  0
   46.5686    5.2115   13.5751 C   0  0  0  0  0  0  0  0  0  0  0  0
   44.4861    4.3807   12.8272 C   0  0  0  0  0  0  0  0  0  0  0  0
   43.1415    9.5775   10.9434 C   0  0  0  0  0  0  0  0  0  0  0  0
   45.6899    4.1645   13.4289 C   0  0  0  0  0  0  0  0  0  0  0  0
   49.2255    9.1874   12.4293 C   0  0  0  0  0  0  0  0  0  0  0  0
   45.7857    4.4463   13.6316 O   0  0  0  0  0  0  0  0  0  0  0  0
   43.3797    3.4131   12.9555 O   0  0  0  0  0  0  0  0  0  0  0  0
   45.8255   10.5498   11.9121 N   0  0  0  0  0  0  0  0  0  0  0  0
   45.9236    9.1733   11.4870 C   0  0  1  0  0  0  0  0  0  0  0  0
   46.8167    8.3696   12.3348 C   0  0  0  0  0  0  0  0  0  0  0  0
   46.5573    7.1115   12.7988 C   0  0  0  0  0  0  0  0  0  0  0  0
   45.2608    6.5370   12.4814 C   0  0  0  0  0  0  0  0  0  0  0  0
   44.3875    7.2861   11.7503 C   0  0  0  0  0  0  0  0  0  0  0  0
   48.0463    8.9660   12.6515 C   0  0  0  0  0  0  0  0  0  0  0  0
   44.5505    8.6633   11.2676 C   0  0  0  0  0  0  0  0  0  0  0  0
   44.9600    5.2593   12.8942 C   0  0  0  0  0  0  0  0  0  0  0  0
   47.5028    6.4667   13.5576 C   0  0  0  0  0  0  0  0  0  0  0  0
   48.2327   10.3494   12.0975 C   0  0  0  0  0  0  0  0  0  0  0  0
   46.9883   11.0989   12.5142 C   0  0  0  0  0  0  0  0  0  0  0  0
   48.9690    8.3196   13.4006 C   0  0  0  0  0  0  0  0  0  0  0  0
   43.1527    6.6886   11.4316 C   0  0  0  0  0  0  0  0  0  0  0  0
   43.7227    4.6971   12.5596 C   0  0  0  0  0  0  0  0  0  0  0  0
   48.7352    7.0559   13.8783 C   0  0  0  0  0  0  0  0  0  0  0  0
   42.8223    5.4214   11.8254 C   0  0  0  0  0  0  0  0  0  0  0  0
   45.4040   11.3196   10.7339 C   0  0  0  0  0  0  0  0  0  0  0  0
   46.1244    8.7996   12.0624 H   0  0  0  0  0  0  0  0  0  0  0  0
   45.3171    7.4468   12.3092 H   0  0  0  0  0  0  0  0  0  0  0  0
   46.2355    8.6199   12.1448 H   0  0  0  0  0  0  0  0  0  0  0  0
   46.2364    8.6214   12.1445 H   0  0  0  0  0  0  0  0  0  0  0  0
   42.4896    5.1017   11.0893 H   0  0  0  0  0  0  0  0  0  0  0  0
   42.6881    3.4312   13.1266 H   0  0  0  0  0  0  0  0  0  0  0  0
   46.8257    9.5641   13.7533 H   0  0  0  0  0  0  0  0  0  0  0  0
   47.5257    7.5082   14.3945 H   0  0  0  0  0  0  0  0  0  0  0  0
   48.1635    7.1546   12.7913 H   0  0  0  0  0  0  0  0  0  0  0  0
   42.6971    7.5657   11.2289 H   0  0  0  0  0  0  0  0  0  0  0  0
   46.1420   12.2314   11.3304 H   0  0  0  0  0  0  0  0  0  0  0  0
   46.2794   11.6727   13.0461 H   0  0  0  0  0  0  0  0  0  0  0  0
   47.7792   10.9137   10.5135 H   0  0  0  0  0  0  0  0  0  0  0  0
   48.4565   11.4107   12.0883 H   0  0  0  0  0  0  0  0  0  0  0  0
   43.8359   11.5609   10.7802 H   0  0  0  0  0  0  0  0  0  0  0  0
   47.5183    5.0317   14.0520 H   0  0  0  0  0  0  0  0  0  0  0  0
   42.1958    9.7828   10.4559 H   0  0  0  0  0  0  0  0  0  0  0  0
   45.9180    3.1677   13.7754 H   0  0  0  0  0  0  0  0  0  0  0  0
   49.2494    8.7557   13.4581 H   0  0  0  0  0  0  0  0  0  0  0  0
   49.8187    8.5976   11.6980 H   0  0  0  0  0  0  0  0  0  0  0  0
   49.7295   10.1850   12.5197 H   0  0  0  0  0  0  0  0  0  0  0  0
   45.4098    3.8426   14.3703 H   0  0  0  0  0  0  0  0  0  0  0  0
   42.4121    3.2929   13.2775 H   0  0  0  0  0  0  0  0  0  0  0  0
   46.4416    9.1776   10.4679 H   0  0  0  0  0  0  0  0  0  0  0  0
   43.7916    9.3272   11.8186 H   0  0  0  0  0  0  0  0  0  0  0  0
   44.3065    8.7491   10.1749 H   0  0  0  0  0  0  0  0  0  0  0  0
   47.3765    5.4812   13.9595 H   0  0  0  0  0  0  0  0  0  0  0  0
   49.1509   10.8050   12.4683 H   0  0  0  0  0  0  0  0  0  0  0  0
   48.2423   10.2720   10.9828 H   0  0  0  0  0  0  0  0  0  0  0  0
   46.9023   11.0788   13.6241 H   0  0  0  0  0  0  0  0  0  0  0  0
   47.0920   12.1635   12.1903 H   0  0  0  0  0  0  0  0  0  0  0  0
   49.9100    8.7927   13.6351 H   0  0  0  0  0  0  0  0  0  0  0  0
   42.4061    7.2283   10.8491 H   0  0  0  0  0  0  0  0  0  0  0  0
   49.4723    6.5295   14.4809 H   0  0  0  0  0  0  0  0  0  0  0  0
   41.8817    4.9742   11.5792 H   0  0  0  0  0  0  0  0  0  0  0  0
   45.8193   12.3555   10.7542 H   0  0  0  0  0  0  0  0  0  0  0  0
   44.3148   11.2736   10.6433 H   0  0  0  0  0  0  0  0  0  0  0  0
   45.8615   10.8332    9.8441 H   0  0  0  0  0  0  0  0  0  0  0  0
  4 14  1  0
  5 20  1  0
  6  7  1  0
  6 17  1  0
  6 23  1  0
  7  8  1  0
  7 13  1  0
  8  9  1  0
  8 12  2  0
  9 10  1  0
  9 15  2  0
 10 11  2  0
 10 14  1  0
 11 13  1  0
 11 19  1  0
 12 16  1  0
 12 18  1  0
 14 20  2  0
 15 21  1  0
 16 17  1  0
 18 21  2  0
 19 22  2  0
 20 22  1  0
 24 34  1  0
 25 40  1  0
 26 27  1  0
 26 37  1  0
 26 43  1  0
 27 28  1  0
 27 33  1  0
 28 29  1  0
 28 32  2  0
 29 30  1  0
 29 35  2  0
 30 31  2  0
 30 34  1  0
 31 33  1  0
 31 39  1  0
 32 36  1  0
 32 38  1  0
 34 40  2  0
 35 41  1  0
 36 37  1  0
 38 41  2  0
 39 42  2  0
 40 42  1  0
  1 44  1  0
  1 45  1  0
  2 46  1  0
  3 47  1  0
  4 48  1  0
  5 49  1  0
  7 50  1  1
 13 51  1  0
 13 52  1  0
 15 53  1  0
 16 54  1  0
 16 55  1  0
 17 56  1  0
 17 57  1  0
 18 58  1  0
 19 59  1  0
 21 60  1  0
 22 61  1  0
 23 62  1  0
 23 63  1  0
 23 64  1  0
 24 65  1  0
 25 66  1  0
 27 67  1  6
 33 68  1  0
 33 69  1  0
 35 70  1  0
 36 71  1  0
 36 72  1  0
 37 73  1  0
 37 74  1  0
 38 75  1  0
 39 76  1  0
 41 77  1  0
 42 78  1  0
 43 79  1  0
 43 80  1  0
 43 81  1  0
M  END
> <Uni-Dock RESULT> 
ENERGY=   -8.264  LOWER_BOUND=    0.339  UPPER_BOUND=    3.240
INTER + INTRA:          -8.264
INTER:                  -8.264
INTRA:                   0.000
UNBOUND:                 0.000

$$$$

     RDKit          3D

 81 84  0  0  0  0  0  0  0  0999 V2000
   45.8592    7.0536   12.7758 O   0  0  0  0  0  0  0  0  0  0  0  0
   45.3827    7.4859   12.3082 Cl  0  0  0  0  0  0  0  0  0  0  0  0
   45.3823    7.4874   12.3075 Cl  0  0  0  0  0  0  0  0  0  0  0  0
   43.1430    9.2549   10.8126 O   0  0  0  0  0  0  0  0  0  0  0  0
   44.1968   11.7313   10.9886 O   0  0  0  0  0  0  0  0  0  0  0  0
   46.6746    5.4122   14.1629 N   0  0  0  0  0  0  0  0  0  0  0  0
   46.6913    6.0542   12.8913 C   0  0  1  0  0  0  0  0  0  0  0  0
   45.3447    5.9029   12.2873 C   0  0  0  0  0  0  0  0  0  0  0  0
   44.5897    6.9272   11.7997 C   0  0  0  0  0  0  0  0  0  0  0  0
   45.1078    8.2739   11.8737 C   0  0  0  0  0  0  0  0  0  0  0  0
   46.3474    8.4947   12.4331 C   0  0  0  0  0  0  0  0  0  0  0  0
   44.8666    4.5845   12.2365 C   0  0  0  0  0  0  0  0  0  0  0  0
   47.2093    7.4269   12.9865 C   0  0  0  0  0  0  0  0  0  0  0  0
   44.3826    9.3349   11.3905 C   0  0  0  0  0  0  0  0  0  0  0  0
   43.3566    6.6408   11.2598 C   0  0  0  0  0  0  0  0  0  0  0  0
   45.7691    3.5501   12.7968 C   0  0  0  0  0  0  0  0  0  0  0  0
   46.3277    4.0153   14.1173 C   0  0  0  0  0  0  0  0  0  0  0  0
   43.6393    4.3320   11.6949 C   0  0  0  0  0  0  0  0  0  0  0  0
   46.8735    9.7902   12.5131 C   0  0  0  0  0  0  0  0  0  0  0  0
   44.9212   10.6275   11.4769 C   0  0  0  0  0  0  0  0  0  0  0  0
   42.8556    5.3343   11.1965 C   0  0  0  0  0  0  0  0  0  0  0  0
   46.1469   10.8521   12.0293 C   0  0  0  0  0  0  0  0  0  0  0  0
   47.8969    5.6270   14.9214 C   0  0  0  0  0  0  0  0  0  0  0  0
   46.3762   10.5868   11.9476 O   0  0  0  0  0  0  0  0  0  0  0  0
   44.2606   11.6445   10.6365 O   0  0  0  0  0  0  0  0  0  0  0  0
   45.3709    4.3537   12.5377 N   0  0  0  0  0  0  0  0  0  0  0  0
   45.0468    5.6804   13.0069 C   0  0  1  0  0  0  0  0  0  0  0  0
   46.2328    6.5241   13.2167 C   0  0  0  0  0  0  0  0  0  0  0  0
   46.3614    7.8285   12.8332 C   0  0  0  0  0  0  0  0  0  0  0  0
   45.2564    8.4205   12.0982 C   0  0  0  0  0  0  0  0  0  0  0  0
   44.1697    7.6412   11.8336 C   0  0  0  0  0  0  0  0  0  0  0  0
   47.2952    5.9129   13.8991 C   0  0  0  0  0  0  0  0  0  0  0  0
   43.9701    6.2201   12.1451 C   0  0  0  0  0  0  0  0  0  0  0  0
   45.3184    9.7414   11.7177 C   0  0  0  0  0  0  0  0  0  0  0  0
   47.5206    8.5040   13.1259 C   0  0  0  0  0  0  0  0  0  0  0  0
   47.0565    4.4781   14.2734 C   0  0  0  0  0  0  0  0  0  0  0  0
   46.6056    3.8184   12.9908 C   0  0  0  0  0  0  0  0  0  0  0  0
   48.4322    6.5899   14.1807 C   0  0  0  0  0  0  0  0  0  0  0  0
   43.1025    8.2534   11.1487 C   0  0  0  0  0  0  0  0  0  0  0  0
   44.2390   10.3172   11.0378 C   0  0  0  0  0  0  0  0  0  0  0  0
   48.5875    7.9002   13.8085 C   0  0  0  0  0  0  0  0  0  0  0  0
   43.1314    9.5632   10.7568 C   0  0  0  0  0  0  0  0  0  0  0  0
   44.2358    3.4952   12.9024 C   0  0  0  0  0  0  0  0  0  0  0  0
   45.5981    6.0975   12.8248 H   0  0  0  0  0  0  0  0  0  0  0  0
   45.2032    7.4972   12.1708 H   0  0  0  0  0  0  0  0  0  0  0  0
   45.7243    6.2797   12.8727 H   0  0  0  0  0  0  0  0  0  0  0  0
   45.7248    6.2782   12.8735 H   0  0  0  0  0  0  0  0  0  0  0  0
   42.3406    9.8261   11.0027 H   0  0  0  0  0  0  0  0  0  0  0  0
   43.9456   11.6686    9.9976 H   0  0  0  0  0  0  0  0  0  0  0  0
   47.3751    5.4661   12.2093 H   0  0  0  0  0  0  0  0  0  0  0  0
   48.2214    7.5441   12.5150 H   0  0  0  0  0  0  0  0  0  0  0  0
   47.3942    7.7236   14.0596 H   0  0  0  0  0  0  0  0  0  0  0  0
   42.6941    7.3794   10.8531 H   0  0  0  0  0  0  0  0  0  0  0  0
   45.2088    2.6147   13.0027 H   0  0  0  0  0  0  0  0  0  0  0  0
   46.5800    3.3236   12.0584 H   0  0  0  0  0  0  0  0  0  0  0  0
   45.5819    3.7879   14.8917 H   0  0  0  0  0  0  0  0  0  0  0  0
   47.2426    3.4127   14.3559 H   0  0  0  0  0  0  0  0  0  0  0  0
   43.2702    3.3192   11.6550 H   0  0  0  0  0  0  0  0  0  0  0  0
   47.8417    9.9769   12.9483 H   0  0  0  0  0  0  0  0  0  0  0  0
   41.8830    5.1213   10.7690 H   0  0  0  0  0  0  0  0  0  0  0  0
   46.5126   11.8672   12.0698 H   0  0  0  0  0  0  0  0  0  0  0  0
   48.6769    6.1505   14.3191 H   0  0  0  0  0  0  0  0  0  0  0  0
   47.6950    6.1237   15.8946 H   0  0  0  0  0  0  0  0  0  0  0  0
   48.3368    4.6235   15.1597 H   0  0  0  0  0  0  0  0  0  0  0  0
   46.6692   11.2700   11.2413 H   0  0  0  0  0  0  0  0  0  0  0  0
   43.8762   11.8307    9.7027 H   0  0  0  0  0  0  0  0  0  0  0  0
   44.6042    5.5622   14.0543 H   0  0  0  0  0  0  0  0  0  0  0  0
   43.9310    5.6393   11.1543 H   0  0  0  0  0  0  0  0  0  0  0  0
   42.9833    6.0432   12.6509 H   0  0  0  0  0  0  0  0  0  0  0  0
   47.7003    9.5265   12.8595 H   0  0  0  0  0  0  0  0  0  0  0  0
   47.9527    4.0240   14.6961 H   0  0  0  0  0  0  0  0  0  0  0  0
   46.2091    4.4520   15.0014 H   0  0  0  0  0  0  0  0  0  0  0  0
   47.3955    3.9441   12.2162 H   0  0  0  0  0  0  0  0  0  0  0  0
   46.4744    2.7253   13.1829 H   0  0  0  0  0  0  0  0  0  0  0  0
   49.2399    6.1048   14.7065 H   0  0  0  0  0  0  0  0  0  0  0  0
   42.2012    7.6912   10.9042 H   0  0  0  0  0  0  0  0  0  0  0  0
   49.4985    8.4514   14.0316 H   0  0  0  0  0  0  0  0  0  0  0  0
   42.3161   10.0214   10.2364 H   0  0  0  0  0  0  0  0  0  0  0  0
   44.5668    2.4504   13.1144 H   0  0  0  0  0  0  0  0  0  0  0  0
   43.4618    3.5742   12.1335 H   0  0  0  0  0  0  0  0  0  0  0  0
   43.8302    3.8796   13.8644 H   0  0  0  0  0  0  0  0  0  0  0  0
  4 14  1  0
  5 20  1  0
  6  7  1  0
  6 17  1  0
  6 23  1  0
  7  8  1  0
  7 13  1  0
  8  9  1  0
  8 12  2  0
  9 10  1  0
  9 15  2  0
 10 11  2  0
 10 14  1  0
 11 13  1  0
 11 19  1  0
 12 16  1  0
 12 18  1  0
 14 20  2  0
 15 21  1  0
 16 17  1  0
 18 21  2  0
 19 22  2  0
 20 22  1  0
 24 34  1  0
 25 40  1  0
 26 27  1  0
 26 37  1  0
 26 43  1  0
 27 28  1  0
 27 33  1  0
 28 29  1  0
 28 32  2  0
 29 30  1  0
 29 35  2  0
 30 31  2  0
 30 34  1  0
 31 33  1  0
 31 39  1  0
 32 36  1  0
 32 38  1  0
 34 40  2  0
 35 41  1  0
 36 37  1  0
 38 41  2  0
 39 42  2  0
 40 42  1  0
  1 44  1  0
  1 45  1  0
  2 46  1  0
  3 47  1  0
  4 48  1  0
  5 49  1  0
  7 50  1  1
 13 51  1  0
 13 52  1  0
 15 53  1  0
 16 54  1  0
 16 55  1  0
 17 56  1  0
 17 57  1  0
 18 58  1  0
 19 59  1  0
 21 60  1  0
 22 61  1  0
 23 62  1  0
 23 63  1  0
 23 64  1  0
 24 65  1  0
 25 66  1  0
 27 67  1  6
 33 68  1  0
 33 69  1  0
 35 70  1  0
 36 71  1  0
 36 72  1  0
 37 73  1  0
 37 74  1  0
 38 75  1  0
 39 76  1  0
 41 77  1  0
 42 78  1  0
 43 79  1  0
 43 80  1  0
 43 81  1  0
M  END
> <Uni-Dock RESULT> 
ENERGY=   -7.994  LOWER_BOUND=    1.775  UPPER_BOUND=    5.379
INTER + INTRA:          -7.994
INTER:                  -7.994
INTRA:                   0.000
UNBOUND:                 0.000

$$$$

     RDKit          3D

 81 84  0  0  0  0  0  0  0  0999 V2000
   45.3293    6.9808   12.3077 O   0  0  0  0  0  0  0  0  0  0  0  0
   45.4089    7.7721   12.3072 Cl  0  0  0  0  0  0  0  0  0  0  0  0
   45.4083    7.7737   12.3067 Cl  0  0  0  0  0  0  0  0  0  0  0  0
   46.0653   10.9046   11.9341 O   0  0  0  0  0  0  0  0  0  0  0  0
   43.9673   11.7288   10.4530 O   0  0  0  0  0  0  0  0  0  0  0  0
   45.7751    4.7289   12.4226 N   0  0  0  0  0  0  0  0  0  0  0  0
   45.1653    5.8824   12.9942 C   0  0  1  0  0  0  0  0  0  0  0  0
   46.2384    6.8599   13.3009 C   0  0  0  0  0  0  0  0  0  0  0  0
   46.2463    8.1611   12.8963 C   0  0  0  0  0  0  0  0  0  0  0  0
   45.1467    8.6511   12.0973 C   0  0  0  0  0  0  0  0  0  0  0  0
   44.1183    7.7979   11.7616 C   0  0  0  0  0  0  0  0  0  0  0  0
   47.2952    6.3518   14.0719 C   0  0  0  0  0  0  0  0  0  0  0  0
   44.0571    6.3750   12.1629 C   0  0  0  0  0  0  0  0  0  0  0  0
   45.1120    9.9560   11.6719 C   0  0  0  0  0  0  0  0  0  0  0  0
   47.3067    8.9597   13.2590 C   0  0  0  0  0  0  0  0  0  0  0  0
   47.1847    4.9236   14.4546 C   0  0  0  0  0  0  0  0  0  0  0  0
   46.7631    4.1027   13.2626 C   0  0  0  0  0  0  0  0  0  0  0  0
   48.3333    7.1688   14.4159 C   0  0  0  0  0  0  0  0  0  0  0  0
   43.0392    8.2495   10.9914 C   0  0  0  0  0  0  0  0  0  0  0  0
   44.0254   10.3955   10.9009 C   0  0  0  0  0  0  0  0  0  0  0  0
   48.3740    8.4784   14.0279 C   0  0  0  0  0  0  0  0  0  0  0  0
   43.0051    9.5561   10.5658 C   0  0  0  0  0  0  0  0  0  0  0  0
   44.8065    3.7590   11.9360 C   0  0  0  0  0  0  0  0  0  0  0  0
   42.9306    9.3290   10.8351 O   0  0  0  0  0  0  0  0  0  0  0  0
   43.8831   11.8596   10.7868 O   0  0  0  0  0  0  0  0  0  0  0  0
   47.0550    5.7682   14.0788 N   0  0  0  0  0  0  0  0  0  0  0  0
   46.7531    6.4405   12.8369 C   0  0  1  0  0  0  0  0  0  0  0  0
   45.3794    6.2010   12.3700 C   0  0  0  0  0  0  0  0  0  0  0  0
   44.5293    7.1479   11.8741 C   0  0  0  0  0  0  0  0  0  0  0  0
   44.9961    8.5240   11.8625 C   0  0  0  0  0  0  0  0  0  0  0  0
   46.2426    8.7840   12.3492 C   0  0  0  0  0  0  0  0  0  0  0  0
   44.9468    4.8678   12.4259 C   0  0  0  0  0  0  0  0  0  0  0  0
   47.1958    7.8485   12.9595 C   0  0  0  0  0  0  0  0  0  0  0  0
   44.1938    9.5134   11.3418 C   0  0  0  0  0  0  0  0  0  0  0  0
   43.2808    6.7711   11.4439 C   0  0  0  0  0  0  0  0  0  0  0  0
   45.9529    3.9058   12.9896 C   0  0  0  0  0  0  0  0  0  0  0  0
   46.3911    4.5315   14.2936 C   0  0  0  0  0  0  0  0  0  0  0  0
   43.7138    4.5102   11.9991 C   0  0  0  0  0  0  0  0  0  0  0  0
   46.6781   10.1220   12.2938 C   0  0  0  0  0  0  0  0  0  0  0  0
   44.6591   10.8328   11.3030 C   0  0  0  0  0  0  0  0  0  0  0  0
   42.8408    5.4398   11.4958 C   0  0  0  0  0  0  0  0  0  0  0  0
   45.9068   11.1288   11.7826 C   0  0  0  0  0  0  0  0  0  0  0  0
   48.5159    5.6204   14.1269 C   0  0  0  0  0  0  0  0  0  0  0  0
   46.0424    6.5154   12.8172 H   0  0  0  0  0  0  0  0  0  0  0  0
   45.5239    7.9561   12.3718 H   0  0  0  0  0  0  0  0  0  0  0  0
   45.8548    6.5294   12.6906 H   0  0  0  0  0  0  0  0  0  0  0  0
   45.8554    6.5278   12.6911 H   0  0  0  0  0  0  0  0  0  0  0  0
   46.4865   11.5448   11.2868 H   0  0  0  0  0  0  0  0  0  0  0  0
   43.9981   12.4287   11.2002 H   0  0  0  0  0  0  0  0  0  0  0  0
   44.7470    5.5951   14.0047 H   0  0  0  0  0  0  0  0  0  0  0  0
   43.0519    6.2094   12.6346 H   0  0  0  0  0  0  0  0  0  0  0  0
   43.9805    5.7988   11.1955 H   0  0  0  0  0  0  0  0  0  0  0  0
   47.3994    9.9930   12.9875 H   0  0  0  0  0  0  0  0  0  0  0  0
   48.1706    4.5295   14.7769 H   0  0  0  0  0  0  0  0  0  0  0  0
   46.4649    4.8208   15.3064 H   0  0  0  0  0  0  0  0  0  0  0  0
   47.6662    3.8790   12.6778 H   0  0  0  0  0  0  0  0  0  0  0  0
   46.3549    3.1230   13.6238 H   0  0  0  0  0  0  0  0  0  0  0  0
   49.1463    6.7800   15.0086 H   0  0  0  0  0  0  0  0  0  0  0  0
   42.2283    7.5926   10.7218 H   0  0  0  0  0  0  0  0  0  0  0  0
   49.2035    9.1171   14.3074 H   0  0  0  0  0  0  0  0  0  0  0  0
   42.1938    9.9476    9.9706 H   0  0  0  0  0  0  0  0  0  0  0  0
   43.7614    4.0364   12.2120 H   0  0  0  0  0  0  0  0  0  0  0  0
   44.9305    3.5638   10.8492 H   0  0  0  0  0  0  0  0  0  0  0  0
   44.9982    2.7862   12.4597 H   0  0  0  0  0  0  0  0  0  0  0  0
   42.1894   10.0178   11.0015 H   0  0  0  0  0  0  0  0  0  0  0  0
   43.9112   12.7420   11.3111 H   0  0  0  0  0  0  0  0  0  0  0  0
   47.4055    5.9575   12.0320 H   0  0  0  0  0  0  0  0  0  0  0  0
   47.3120    8.1291   14.0678 H   0  0  0  0  0  0  0  0  0  0  0  0
   48.2174    7.9442   12.5034 H   0  0  0  0  0  0  0  0  0  0  0  0
   42.5558    7.4515   11.0436 H   0  0  0  0  0  0  0  0  0  0  0  0
   45.5243    2.9114   13.1150 H   0  0  0  0  0  0  0  0  0  0  0  0
   46.8290    3.8832   12.2964 H   0  0  0  0  0  0  0  0  0  0  0  0
   45.5027    4.6719   14.9500 H   0  0  0  0  0  0  0  0  0  0  0  0
   47.0956    3.8294   14.8033 H   0  0  0  0  0  0  0  0  0  0  0  0
   43.3967    3.4800   12.0489 H   0  0  0  0  0  0  0  0  0  0  0  0
   47.6639   10.4032   12.6642 H   0  0  0  0  0  0  0  0  0  0  0  0
   41.8478    5.1601   11.1503 H   0  0  0  0  0  0  0  0  0  0  0  0
   46.2450   12.1435   11.7440 H   0  0  0  0  0  0  0  0  0  0  0  0
   48.8139    4.6956   14.6762 H   0  0  0  0  0  0  0  0  0  0  0  0
   48.9589    6.5398   14.5210 H   0  0  0  0  0  0  0  0  0  0  0  0
   48.8645    5.4707   13.0812 H   0  0  0  0  0  0  0  0  0  0  0  0
  4 14  1  0
  5 20  1  0
  6  7  1  0
  6 17  1  0
  6 23  1  0
  7  8  1  0
  7 13  1  0
  8  9  1  0
  8 12  2  0
  9 10  1  0
  9 15  2  0
 10 11  2  0
 10 14  1  0
 11 13  1  0
 11 19  1  0
 12 16  1  0
 12 18  1  0
 14 20  2  0
 15 21  1  0
 16 17  1  0
 18 21  2  0
 19 22  2  0
 20 22  1  0
 24 34  1  0
 25 40  1  0
 26 27  1  0
 26 37  1  0
 26 43  1  0
 27 28  1  0
 27 33  1  0
 28 29  1  0
 28 32  2  0
 29 30  1  0
 29 35  2  0
 30 31  2  0
 30 34  1  0
 31 33  1  0
 31 39  1  0
 32 36  1  0
 32 38  1  0
 34 40  2  0
 35 41  1  0
 36 37  1  0
 38 41  2  0
 39 42  2  0
 40 42  1  0
  1 44  1  0
  1 45  1  0
  2 46  1  0
  3 47  1  0
  4 48  1  0
  5 49  1  0
  7 50  1  1
 13 51  1  0
 13 52  1  0
 15 53  1  0
 16 54  1  0
 16 55  1  0
 17 56  1  0
 17 57  1  0
 18 58  1  0
 19 59  1  0
 21 60  1  0
 22 61  1  0
 23 62  1  0
 23 63  1  0
 23 64  1  0
 24 65  1  0
 25 66  1  0
 27 67  1  6
 33 68  1  0
 33 69  1  0
 35 70  1  0
 36 71  1  0
 36 72  1  0
 37 73  1  0
 37 74  1  0
 38 75  1  0
 39 76  1  0
 41 77  1  0
 42 78  1  0
 43 79  1  0
 43 80  1  0
 43 81  1  0
M  END
> <Uni-Dock RESULT> 
ENERGY=   -7.468  LOWER_BOUND=    1.667  UPPER_BOUND=    4.615
INTER + INTRA:          -7.468
INTER:                  -7.468
INTRA:                   0.000
UNBOUND:                 0.000

$$$$

     RDKit          3D

 81 84  0  0  0  0  0  0  0  0999 V2000
   46.3443    9.1657   12.5541 O   0  0  0  0  0  0  0  0  0  0  0  0
   45.6982    9.2370   12.0958 Cl  0  0  0  0  0  0  0  0  0  0  0  0
   45.6971    9.2380   12.0949 Cl  0  0  0  0  0  0  0  0  0  0  0  0
   42.8199    9.4912   10.6698 O   0  0  0  0  0  0  0  0  0  0  0  0
   42.6365   12.1540   10.2822 O   0  0  0  0  0  0  0  0  0  0  0  0
   47.8932    8.3793   14.0592 N   0  0  0  0  0  0  0  0  0  0  0  0
   47.5454    8.6786   12.7106 C   0  0  1  0  0  0  0  0  0  0  0  0
   46.3850    7.8314   12.3409 C   0  0  0  0  0  0  0  0  0  0  0  0
   45.2206    8.2949   11.8061 C   0  0  0  0  0  0  0  0  0  0  0  0
   45.0708    9.7144   11.5820 C   0  0  0  0  0  0  0  0  0  0  0  0
   46.1020   10.5664   11.9123 C   0  0  0  0  0  0  0  0  0  0  0  0
   46.5587    6.4590   12.5772 C   0  0  0  0  0  0  0  0  0  0  0  0
   47.3849   10.1253   12.5030 C   0  0  0  0  0  0  0  0  0  0  0  0
   43.9163   10.2240   11.0413 C   0  0  0  0  0  0  0  0  0  0  0  0
   44.2262    7.3925   11.5048 C   0  0  0  0  0  0  0  0  0  0  0  0
   47.8628    6.0663   13.1632 C   0  0  0  0  0  0  0  0  0  0  0  0
   48.2195    6.9966   14.2945 C   0  0  0  0  0  0  0  0  0  0  0  0
   45.5538    5.5884   12.2678 C   0  0  0  0  0  0  0  0  0  0  0  0
   45.9830   11.9459   11.7014 C   0  0  0  0  0  0  0  0  0  0  0  0
   43.8101   11.6077   10.8353 C   0  0  0  0  0  0  0  0  0  0  0  0
   44.3733    6.0179   11.7302 C   0  0  0  0  0  0  0  0  0  0  0  0
   44.8268   12.4554   11.1600 C   0  0  0  0  0  0  0  0  0  0  0  0
   48.9228    9.2607   14.5872 C   0  0  0  0  0  0  0  0  0  0  0  0
   45.1470   12.3060   11.0906 O   0  0  0  0  0  0  0  0  0  0  0  0
   42.7134   12.0312    9.9437 O   0  0  0  0  0  0  0  0  0  0  0  0
   47.1285    6.5408   12.8360 N   0  0  0  0  0  0  0  0  0  0  0  0
   46.2615    7.6594   13.1227 C   0  0  1  0  0  0  0  0  0  0  0  0
   46.9418    8.9588   13.0172 C   0  0  0  0  0  0  0  0  0  0  0  0
   46.4402   10.0746   12.4101 C   0  0  0  0  0  0  0  0  0  0  0  0
   45.1483    9.9550   11.7555 C   0  0  0  0  0  0  0  0  0  0  0  0
   44.5238    8.7436   11.7827 C   0  0  0  0  0  0  0  0  0  0  0  0
   48.2017    9.0318   13.6298 C   0  0  0  0  0  0  0  0  0  0  0  0
   45.0115    7.4795   12.3490 C   0  0  0  0  0  0  0  0  0  0  0  0
   44.5802   11.0568   11.1583 C   0  0  0  0  0  0  0  0  0  0  0  0
   47.1780   11.2327   12.4170 C   0  0  0  0  0  0  0  0  0  0  0  0
   48.6644    7.7522   14.2653 C   0  0  0  0  0  0  0  0  0  0  0  0
   48.4942    6.7067   13.1874 C   0  0  0  0  0  0  0  0  0  0  0  0
   48.9185   10.1793   13.6288 C   0  0  0  0  0  0  0  0  0  0  0  0
   43.2590    8.6688   11.1681 C   0  0  0  0  0  0  0  0  0  0  0  0
   43.3215   10.9459   10.5564 C   0  0  0  0  0  0  0  0  0  0  0  0
   48.4385   11.3143   13.0279 C   0  0  0  0  0  0  0  0  0  0  0  0
   42.6659    9.7440   10.5664 C   0  0  0  0  0  0  0  0  0  0  0  0
   46.5317    5.3724   13.4972 C   0  0  0  0  0  0  0  0  0  0  0  0
   46.5509    8.2260   12.7967 H   0  0  0  0  0  0  0  0  0  0  0  0
   45.5260    9.1396   11.9858 H   0  0  0  0  0  0  0  0  0  0  0  0
   46.5826    8.4505   12.7953 H   0  0  0  0  0  0  0  0  0  0  0  0
   46.5838    8.4495   12.7962 H   0  0  0  0  0  0  0  0  0  0  0  0
   41.8571    9.6814   10.8775 H   0  0  0  0  0  0  0  0  0  0  0  0
   42.3874   11.7796    9.3619 H   0  0  0  0  0  0  0  0  0  0  0  0
   48.3835    8.3177   12.0428 H   0  0  0  0  0  0  0  0  0  0  0  0
   48.2046   10.5691   11.8773 H   0  0  0  0  0  0  0  0  0  0  0  0
   47.4729   10.6929   13.4745 H   0  0  0  0  0  0  0  0  0  0  0  0
   43.2785    7.6636   11.0825 H   0  0  0  0  0  0  0  0  0  0  0  0
   47.8029    5.0476   13.5988 H   0  0  0  0  0  0  0  0  0  0  0  0
   48.6459    6.0652   12.3626 H   0  0  0  0  0  0  0  0  0  0  0  0
   47.7032    6.6367   15.1953 H   0  0  0  0  0  0  0  0  0  0  0  0
   49.3201    6.9188   14.4938 H   0  0  0  0  0  0  0  0  0  0  0  0
   45.6856    4.5332   12.4486 H   0  0  0  0  0  0  0  0  0  0  0  0
   46.7819   12.6234   11.9552 H   0  0  0  0  0  0  0  0  0  0  0  0
   43.5830    5.3171   11.4888 H   0  0  0  0  0  0  0  0  0  0  0  0
   44.6911   13.5113   10.9798 H   0  0  0  0  0  0  0  0  0  0  0  0
   49.3438    9.9310   13.8006 H   0  0  0  0  0  0  0  0  0  0  0  0
   48.5704    9.8134   15.4844 H   0  0  0  0  0  0  0  0  0  0  0  0
   49.7842    8.6252   14.9209 H   0  0  0  0  0  0  0  0  0  0  0  0
   45.0569   12.8816   10.2468 H   0  0  0  0  0  0  0  0  0  0  0  0
   42.2357   11.8287    9.0576 H   0  0  0  0  0  0  0  0  0  0  0  0
   45.9797    7.5851   14.2282 H   0  0  0  0  0  0  0  0  0  0  0  0
   45.1872    6.7445   11.4833 H   0  0  0  0  0  0  0  0  0  0  0  0
   44.2435    7.0019   13.0144 H   0  0  0  0  0  0  0  0  0  0  0  0
   46.8568   12.1490   11.9630 H   0  0  0  0  0  0  0  0  0  0  0  0
   49.6909    7.8351   14.6227 H   0  0  0  0  0  0  0  0  0  0  0  0
   47.9636    7.5142   15.1025 H   0  0  0  0  0  0  0  0  0  0  0  0
   49.0961    6.9968   12.2966 H   0  0  0  0  0  0  0  0  0  0  0  0
   48.8867    5.7341   13.5734 H   0  0  0  0  0  0  0  0  0  0  0  0
   49.8861   10.2185   14.1047 H   0  0  0  0  0  0  0  0  0  0  0  0
   42.7013    7.7324   11.1524 H   0  0  0  0  0  0  0  0  0  0  0  0
   49.0087   12.2408   13.0232 H   0  0  0  0  0  0  0  0  0  0  0  0
   41.7042    9.6791   10.1014 H   0  0  0  0  0  0  0  0  0  0  0  0
   47.3137    4.6477   13.8277 H   0  0  0  0  0  0  0  0  0  0  0  0
   45.7658    4.9411   12.8459 H   0  0  0  0  0  0  0  0  0  0  0  0
   46.0489    5.7357   14.4313 H   0  0  0  0  0  0  0  0  0  0  0  0
  4 14  1  0
  5 20  1  0
  6  7  1  0
  6 17  1  0
  6 23  1  0
  7  8  1  0
  7 13  1  0
  8  9  1  0
  8 12  2  0
  9 10  1  0
  9 15  2  0
 10 11  2  0
 10 14  1  0
 11 13  1  0
 11 19  1  0
 12 16  1  0
 12 18  1  0
 14 20  2  0
 15 21  1  0
 16 17  1  0
 18 21  2  0
 19 22  2  0
 20 22  1  0
 24 34  1  0
 25 40  1  0
 26 27  1  0
 26 37  1  0
 26 43  1  0
 27 28  1  0
 27 33  1  0
 28 29  1  0
 28 32  2  0
 29 30  1  0
 29 35  2  0
 30 31  2  0
 30 34  1  0
 31 33  1  0
 31 39  1  0
 32 36  1  0
 32 38  1  0
 34 40  2  0
 35 41  1  0
 36 37  1  0
 38 41  2  0
 39 42  2  0
 40 42  1  0
  1 44  1  0
  1 45  1  0
  2 46  1  0
  3 47  1  0
  4 48  1  0
  5 49  1  0
  7 50  1  1
 13 51  1  0
 13 52  1  0
 15 53  1  0
 16 54  1  0
 16 55  1  0
 17 56  1  0
 17 57  1  0
 18 58  1  0
 19 59  1  0
 21 60  1  0
 22 61  1  0
 23 62  1  0
 23 63  1  0
 23 64  1  0
 24 65  1  0
 25 66  1  0
 27 67  1  6
 33 68  1  0
 33 69  1  0
 35 70  1  0
 36 71  1  0
 36 72  1  0
 37 73  1  0
 37 74  1  0
 38 75  1  0
 39 76  1  0
 41 77  1  0
 42 78  1  0
 43 79  1  0
 43 80  1  0
 43 81  1  0
M  END
> <Uni-Dock RESULT> 
ENERGY=   -7.359  LOWER_BOUND=    2.045  UPPER_BOUND=    4.915
INTER + INTRA:          -7.359
INTER:                  -7.359
INTRA:                   0.000
UNBOUND:                 0.000

$$$$

     RDKit          3D

 81 84  0  0  0  0  0  0  0  0999 V2000
   47.9832    8.0854   20.5936 O   0  0  0  0  0  0  0  0  0  0  0  0
   47.8000    8.8430   20.7517 Cl  0  0  0  0  0  0  0  0  0  0  0  0
   47.7997    8.8447   20.7512 Cl  0  0  0  0  0  0  0  0  0  0  0  0
   47.5420   11.9600   21.5266 O   0  0  0  0  0  0  0  0  0  0  0  0
   47.6615   13.1364   19.1025 O   0  0  0  0  0  0  0  0  0  0  0  0
   48.7020    5.9117   20.7959 N   0  0  0  0  0  0  0  0  0  0  0  0
   47.6274    6.8295   20.6176 C   0  0  1  0  0  0  0  0  0  0  0  0
   47.5656    7.6972   21.8194 C   0  0  0  0  0  0  0  0  0  0  0  0
   47.5559    9.0597   21.7973 C   0  0  0  0  0  0  0  0  0  0  0  0
   47.6219    9.7383   20.5234 C   0  0  0  0  0  0  0  0  0  0  0  0
   47.6938    8.9989   19.3631 C   0  0  0  0  0  0  0  0  0  0  0  0
   47.5096    7.0086   23.0408 C   0  0  0  0  0  0  0  0  0  0  0  0
   47.7166    7.5200   19.3225 C   0  0  0  0  0  0  0  0  0  0  0  0
   47.6103   11.1096   20.4547 C   0  0  0  0  0  0  0  0  0  0  0  0
   47.4899    9.7398   22.9918 C   0  0  0  0  0  0  0  0  0  0  0  0
   47.5281    5.5289   22.9475 C   0  0  0  0  0  0  0  0  0  0  0  0
   48.5896    5.0882   21.9720 C   0  0  0  0  0  0  0  0  0  0  0  0
   47.4448    7.7112   24.2094 C   0  0  0  0  0  0  0  0  0  0  0  0
   47.7549    9.6329   18.1157 C   0  0  0  0  0  0  0  0  0  0  0  0
   47.6720   11.7320   19.1989 C   0  0  0  0  0  0  0  0  0  0  0  0
   47.4330    9.0775   24.2248 C   0  0  0  0  0  0  0  0  0  0  0  0
   47.7432   11.0058   18.0476 C   0  0  0  0  0  0  0  0  0  0  0  0
   48.9614    5.1070   19.6124 C   0  0  0  0  0  0  0  0  0  0  0  0
   47.5429   10.7075   18.0702 O   0  0  0  0  0  0  0  0  0  0  0  0
   47.3030   13.1604   19.1831 O   0  0  0  0  0  0  0  0  0  0  0  0
   47.5596    6.4437   22.7639 N   0  0  0  0  0  0  0  0  0  0  0  0
   48.3038    7.4462   22.0386 C   0  0  1  0  0  0  0  0  0  0  0  0
   48.1671    7.3236   20.5796 C   0  0  0  0  0  0  0  0  0  0  0  0
   47.9572    8.3546   19.7088 C   0  0  0  0  0  0  0  0  0  0  0  0
   47.7918    9.6830   20.2743 C   0  0  0  0  0  0  0  0  0  0  0  0
   47.8501    9.8164   21.6297 C   0  0  0  0  0  0  0  0  0  0  0  0
   48.2978    6.0239   20.0683 C   0  0  0  0  0  0  0  0  0  0  0  0
   48.0043    8.7648   22.6429 C   0  0  0  0  0  0  0  0  0  0  0  0
   47.6123   10.7631   19.4408 C   0  0  0  0  0  0  0  0  0  0  0  0
   47.8819    8.0930   18.3629 C   0  0  0  0  0  0  0  0  0  0  0  0
   48.5223    4.9620   21.1064 C   0  0  0  0  0  0  0  0  0  0  0  0
   47.4263    5.1836   22.1230 C   0  0  0  0  0  0  0  0  0  0  0  0
   48.2211    5.7799   18.7398 C   0  0  0  0  0  0  0  0  0  0  0  0
   47.7190   11.1206   22.1443 C   0  0  0  0  0  0  0  0  0  0  0  0
   47.4852   12.0454   19.9871 C   0  0  0  0  0  0  0  0  0  0  0  0
   48.0122    6.7961   17.8435 C   0  0  0  0  0  0  0  0  0  0  0  0
   47.5401   12.2153   21.3445 C   0  0  0  0  0  0  0  0  0  0  0  0
   48.1996    6.3226   24.0807 C   0  0  0  0  0  0  0  0  0  0  0  0
   47.9884    7.5070   21.3999 H   0  0  0  0  0  0  0  0  0  0  0  0
   47.7444    9.0023   20.9027 H   0  0  0  0  0  0  0  0  0  0  0  0
   48.0107    7.5534   21.1790 H   0  0  0  0  0  0  0  0  0  0  0  0
   48.0110    7.5517   21.1796 H   0  0  0  0  0  0  0  0  0  0  0  0
   48.1035   12.7729   21.7002 H   0  0  0  0  0  0  0  0  0  0  0  0
   46.8427   13.5841   19.5246 H   0  0  0  0  0  0  0  0  0  0  0  0
   46.6590    6.2460   20.6397 H   0  0  0  0  0  0  0  0  0  0  0  0
   46.9182    7.1986   18.6017 H   0  0  0  0  0  0  0  0  0  0  0  0
   48.6696    7.2546   18.7793 H   0  0  0  0  0  0  0  0  0  0  0  0
   47.4774   10.8089   23.0731 H   0  0  0  0  0  0  0  0  0  0  0  0
   47.7935    5.0803   23.9270 H   0  0  0  0  0  0  0  0  0  0  0  0
   46.5125    5.1615   22.6515 H   0  0  0  0  0  0  0  0  0  0  0  0
   49.5474    5.0690   22.5102 H   0  0  0  0  0  0  0  0  0  0  0  0
   48.3722    4.0362   21.6513 H   0  0  0  0  0  0  0  0  0  0  0  0
   47.4017    7.1835   25.1492 H   0  0  0  0  0  0  0  0  0  0  0  0
   47.8113    9.0665   17.2005 H   0  0  0  0  0  0  0  0  0  0  0  0
   47.3812    9.6240   25.1589 H   0  0  0  0  0  0  0  0  0  0  0  0
   47.7885   11.5368   17.1086 H   0  0  0  0  0  0  0  0  0  0  0  0
   48.1907    5.2655   18.8211 H   0  0  0  0  0  0  0  0  0  0  0  0
   49.9993    5.2454   19.2404 H   0  0  0  0  0  0  0  0  0  0  0  0
   48.8662    4.0275   19.9005 H   0  0  0  0  0  0  0  0  0  0  0  0
   46.8855   11.2984   17.5505 H   0  0  0  0  0  0  0  0  0  0  0  0
   46.6232   13.8484   19.5280 H   0  0  0  0  0  0  0  0  0  0  0  0
   49.4117    7.2389   22.2296 H   0  0  0  0  0  0  0  0  0  0  0  0
   47.0298    8.7073   23.2492 H   0  0  0  0  0  0  0  0  0  0  0  0
   48.8158    9.0152   23.3775 H   0  0  0  0  0  0  0  0  0  0  0  0
   47.7186    8.8442   17.6160 H   0  0  0  0  0  0  0  0  0  0  0  0
   48.5018    3.9654   20.6654 H   0  0  0  0  0  0  0  0  0  0  0  0
   49.5056    5.1663   21.5963 H   0  0  0  0  0  0  0  0  0  0  0  0
   46.4367    5.1023   21.6192 H   0  0  0  0  0  0  0  0  0  0  0  0
   47.4930    4.3787   22.8955 H   0  0  0  0  0  0  0  0  0  0  0  0
   48.3239    4.7740   18.3630 H   0  0  0  0  0  0  0  0  0  0  0  0
   47.7567   11.3026   23.2184 H   0  0  0  0  0  0  0  0  0  0  0  0
   47.9497    6.6080   16.7737 H   0  0  0  0  0  0  0  0  0  0  0  0
   47.4413   13.2035   21.7433 H   0  0  0  0  0  0  0  0  0  0  0  0
   48.1157    5.2838   24.4805 H   0  0  0  0  0  0  0  0  0  0  0  0
   47.8029    7.0941   24.7472 H   0  0  0  0  0  0  0  0  0  0  0  0
   49.2883    6.4975   23.9331 H   0  0  0  0  0  0  0  0  0  0  0  0
  4 14  1  0
  5 20  1  0
  6  7  1  0
  6 17  1  0
  6 23  1  0
  7  8  1  0
  7 13  1  0
  8  9  1  0
  8 12  2  0
  9 10  1  0
  9 15  2  0
 10 11  2  0
 10 14  1  0
 11 13  1  0
 11 19  1  0
 12 16  1  0
 12 18  1  0
 14 20  2  0
 15 21  1  0
 16 17  1  0
 18 21  2  0
 19 22  2  0
 20 22  1  0
 24 34  1  0
 25 40  1  0
 26 27  1  0
 26 37  1  0
 26 43  1  0
 27 28  1  0
 27 33  1  0
 28 29  1  0
 28 32  2  0
 29 30  1  0
 29 35  2  0
 30 31  2  0
 30 34  1  0
 31 33  1  0
 31 39  1  0
 32 36  1  0
 32 38  1  0
 34 40  2  0
 35 41  1  0
 36 37  1  0
 38 41  2  0
 39 42  2  0
 40 42  1  0
  1 44  1  0
  1 45  1  0
  2 46  1  0
  3 47  1  0
  4 48  1  0
  5 49  1  0
  7 50  1  1
 13 51  1  0
 13 52  1  0
 15 53  1  0
 16 54  1  0
 16 55  1  0
 17 56  1  0
 17 57  1  0
 18 58  1  0
 19 59  1  0
 21 60  1  0
 22 61  1  0
 23 62  1  0
 23 63  1  0
 23 64  1  0
 24 65  1  0
 25 66  1  0
 27 67  1  6
 33 68  1  0
 33 69  1  0
 35 70  1  0
 36 71  1  0
 36 72  1  0
 37 73  1  0
 37 74  1  0
 38 75  1  0
 39 76  1  0
 41 77  1  0
 42 78  1  0
 43 79  1  0
 43 80  1  0
 43 81  1  0
M  END
> <Uni-Dock RESULT> 
ENERGY=   -7.127  LOWER_BOUND=    8.054  UPPER_BOUND=   10.136
INTER + INTRA:          -7.127
INTER:                  -7.127
INTRA:                   0.000
UNBOUND:                 0.000

$$$$

     RDKit          3D

 81 84  0  0  0  0  0  0  0  0999 V2000
   48.1289    8.9846   19.0000 O   0  0  0  0  0  0  0  0  0  0  0  0
   47.9133    9.5496   19.5166 Cl  0  0  0  0  0  0  0  0  0  0  0  0
   47.9130    9.5513   19.5170 Cl  0  0  0  0  0  0  0  0  0  0  0  0
   47.5162   11.8138   21.7746 O   0  0  0  0  0  0  0  0  0  0  0  0
   47.6938   14.0755   20.3161 O   0  0  0  0  0  0  0  0  0  0  0  0
   48.9137    7.0259   18.0887 N   0  0  0  0  0  0  0  0  0  0  0  0
   47.8161    7.8945   18.3533 C   0  0  1  0  0  0  0  0  0  0  0  0
   47.6753    8.0147   19.8253 C   0  0  0  0  0  0  0  0  0  0  0  0
   47.6193    9.1920   20.5093 C   0  0  0  0  0  0  0  0  0  0  0  0
   47.7138   10.4323   19.7742 C   0  0  0  0  0  0  0  0  0  0  0  0
   47.8585   10.4005   18.4045 C   0  0  0  0  0  0  0  0  0  0  0  0
   47.5933    6.7930   20.5110 C   0  0  0  0  0  0  0  0  0  0  0  0
   47.9342    9.1561   17.6075 C   0  0  0  0  0  0  0  0  0  0  0  0
   47.6576   11.6412   20.4228 C   0  0  0  0  0  0  0  0  0  0  0  0
   47.4812    9.1554   21.8780 C   0  0  0  0  0  0  0  0  0  0  0  0
   47.6669    5.5753   19.6683 C   0  0  0  0  0  0  0  0  0  0  0  0
   48.7818    5.7119   18.6630 C   0  0  0  0  0  0  0  0  0  0  0  0
   47.4566    6.7891   21.8691 C   0  0  0  0  0  0  0  0  0  0  0  0
   47.9486   11.5888   17.6688 C   0  0  0  0  0  0  0  0  0  0  0  0
   47.7490   12.8240   19.6739 C   0  0  0  0  0  0  0  0  0  0  0  0
   47.3969    7.9503   22.5870 C   0  0  0  0  0  0  0  0  0  0  0  0
   47.8922   12.7988   18.3187 C   0  0  0  0  0  0  0  0  0  0  0  0
   49.2489    6.9518   16.6753 C   0  0  0  0  0  0  0  0  0  0  0  0
   47.7015   12.5301   18.1734 O   0  0  0  0  0  0  0  0  0  0  0  0
   47.3317   14.0514   20.3784 O   0  0  0  0  0  0  0  0  0  0  0  0
   47.6741    6.4533   19.9852 N   0  0  0  0  0  0  0  0  0  0  0  0
   48.4122    7.6928   19.9221 C   0  0  1  0  0  0  0  0  0  0  0  0
   48.3395    8.3416   18.6045 C   0  0  0  0  0  0  0  0  0  0  0  0
   48.1298    9.6725   18.3813 C   0  0  0  0  0  0  0  0  0  0  0  0
   47.8955   10.5153   19.5418 C   0  0  0  0  0  0  0  0  0  0  0  0
   47.8938    9.9287   20.7723 C   0  0  0  0  0  0  0  0  0  0  0  0
   48.5359    7.4949   17.5033 C   0  0  0  0  0  0  0  0  0  0  0  0
   48.0428    8.5059   21.1036 C   0  0  0  0  0  0  0  0  0  0  0  0
   47.7130   11.8693   19.3774 C   0  0  0  0  0  0  0  0  0  0  0  0
   48.1186   10.1443   17.0917 C   0  0  0  0  0  0  0  0  0  0  0  0
   48.7544    6.0511   17.8543 C   0  0  0  0  0  0  0  0  0  0  0  0
   47.6108    5.7054   18.7798 C   0  0  0  0  0  0  0  0  0  0  0  0
   48.5220    7.9728   16.2377 C   0  0  0  0  0  0  0  0  0  0  0  0
   47.6968   10.7774   21.8786 C   0  0  0  0  0  0  0  0  0  0  0  0
   47.5194   12.6828   20.4996 C   0  0  0  0  0  0  0  0  0  0  0  0
   48.3148    9.3043   15.9851 C   0  0  0  0  0  0  0  0  0  0  0  0
   47.5129   12.1264   21.7505 C   0  0  0  0  0  0  0  0  0  0  0  0
   48.2636    5.6739   21.0822 C   0  0  0  0  0  0  0  0  0  0  0  0
   48.1213    8.0725   19.3909 H   0  0  0  0  0  0  0  0  0  0  0  0
   47.8461    9.6073   19.7250 H   0  0  0  0  0  0  0  0  0  0  0  0
   48.1509    8.2267   19.2272 H   0  0  0  0  0  0  0  0  0  0  0  0
   48.1512    8.2250   19.2268 H   0  0  0  0  0  0  0  0  0  0  0  0
   48.0417   12.4244   22.3723 H   0  0  0  0  0  0  0  0  0  0  0  0
   46.8435   14.2333   20.8647 H   0  0  0  0  0  0  0  0  0  0  0  0
   46.8684    7.3755   18.0198 H   0  0  0  0  0  0  0  0  0  0  0  0
   47.1775    9.2472   16.7833 H   0  0  0  0  0  0  0  0  0  0  0  0
   48.9172    9.2181   17.0565 H   0  0  0  0  0  0  0  0  0  0  0  0
   47.4284   10.0282   22.4988 H   0  0  0  0  0  0  0  0  0  0  0  0
   47.9073    4.6869   20.2880 H   0  0  0  0  0  0  0  0  0  0  0  0
   46.6775    5.4054   19.1719 H   0  0  0  0  0  0  0  0  0  0  0  0
   49.7170    5.4251   19.1638 H   0  0  0  0  0  0  0  0  0  0  0  0
   48.6143    4.9757   17.8342 H   0  0  0  0  0  0  0  0  0  0  0  0
   47.3934    5.8511   22.3978 H   0  0  0  0  0  0  0  0  0  0  0  0
   48.0619   11.5781   16.5970 H   0  0  0  0  0  0  0  0  0  0  0  0
   47.2882    7.9343   23.6650 H   0  0  0  0  0  0  0  0  0  0  0  0
   47.9574   13.7394   17.7926 H   0  0  0  0  0  0  0  0  0  0  0  0
   48.5061    7.4903   16.0400 H   0  0  0  0  0  0  0  0  0  0  0  0
   50.2956    7.2715   16.4836 H   0  0  0  0  0  0  0  0  0  0  0  0
   49.1794    5.8782   16.3593 H   0  0  0  0  0  0  0  0  0  0  0  0
   47.0459   13.2991   17.9995 H   0  0  0  0  0  0  0  0  0  0  0  0
   46.6150   14.4559   20.9925 H   0  0  0  0  0  0  0  0  0  0  0  0
   49.5179    7.4259   20.0369 H   0  0  0  0  0  0  0  0  0  0  0  0
   47.0469    8.1348   21.5407 H   0  0  0  0  0  0  0  0  0  0  0  0
   48.8145    8.3471   21.9037 H   0  0  0  0  0  0  0  0  0  0  0  0
   47.9601   11.1721   16.8325 H   0  0  0  0  0  0  0  0  0  0  0  0
   48.7864    5.4262   16.9618 H   0  0  0  0  0  0  0  0  0  0  0  0
   49.7092    5.9808   18.4306 H   0  0  0  0  0  0  0  0  0  0  0  0
   46.6460    5.8881   18.2549 H   0  0  0  0  0  0  0  0  0  0  0  0
   47.6737    4.6176   19.0282 H   0  0  0  0  0  0  0  0  0  0  0  0
   48.6748    7.3078   15.4018 H   0  0  0  0  0  0  0  0  0  0  0  0
   47.6843   10.3778   22.8926 H   0  0  0  0  0  0  0  0  0  0  0  0
   48.3026    9.6962   14.9703 H   0  0  0  0  0  0  0  0  0  0  0  0
   47.3637   12.7649   22.5964 H   0  0  0  0  0  0  0  0  0  0  0  0
   48.1995    4.5775   20.8832 H   0  0  0  0  0  0  0  0  0  0  0  0
   47.8136    5.9860   22.0292 H   0  0  0  0  0  0  0  0  0  0  0  0
   49.3507    5.9092   21.1038 H   0  0  0  0  0  0  0  0  0  0  0  0
  4 14  1  0
  5 20  1  0
  6  7  1  0
  6 17  1  0
  6 23  1  0
  7  8  1  0
  7 13  1  0
  8  9  1  0
  8 12  2  0
  9 10  1  0
  9 15  2  0
 10 11  2  0
 10 14  1  0
 11 13  1  0
 11 19  1  0
 12 16  1  0
 12 18  1  0
 14 20  2  0
 15 21  1  0
 16 17  1  0
 18 21  2  0
 19 22  2  0
 20 22  1  0
 24 34  1  0
 25 40  1  0
 26 27  1  0
 26 37  1  0
 26 43  1  0
 27 28  1  0
 27 33  1  0
 28 29  1  0
 28 32  2  0
 29 30  1  0
 29 35  2  0
 30 31  2  0
 30 34  1  0
 31 33  1  0
 31 39  1  0
 32 36  1  0
 32 38  1  0
 34 40  2  0
 35 41  1  0
 36 37  1  0
 38 41  2  0
 39 42  2  0
 40 42  1  0
  1 44  1  0
  1 45  1  0
  2 46  1  0
  3 47  1  0
  4 48  1  0
  5 49  1  0
  7 50  1  1
 13 51  1  0
 13 52  1  0
 15 53  1  0
 16 54  1  0
 16 55  1  0
 17 56  1  0
 17 57  1  0
 18 58  1  0
 19 59  1  0
 21 60  1  0
 22 61  1  0
 23 62  1  0
 23 63  1  0
 23 64  1  0
 24 65  1  0
 25 66  1  0
 27 67  1  6
 33 68  1  0
 33 69  1  0
 35 70  1  0
 36 71  1  0
 36 72  1  0
 37 73  1  0
 37 74  1  0
 38 75  1  0
 39 76  1  0
 41 77  1  0
 42 78  1  0
 43 79  1  0
 43 80  1  0
 43 81  1  0
M  END
> <Uni-Dock RESULT> 
ENERGY=   -7.086  LOWER_BOUND=    6.905  UPPER_BOUND=    9.120
INTER + INTRA:          -7.086
INTER:                  -7.086
INTRA:                   0.000
UNBOUND:                 0.000

$$$$

     RDKit          3D

 81 84  0  0  0  0  0  0  0  0999 V2000
   47.9784    8.6208   20.6863 O   0  0  0  0  0  0  0  0  0  0  0  0
   47.9768    8.0315   20.1522 Cl  0  0  0  0  0  0  0  0  0  0  0  0
   47.9769    8.0298   20.1518 Cl  0  0  0  0  0  0  0  0  0  0  0  0
   48.4653    5.7341   17.9463 O   0  0  0  0  0  0  0  0  0  0  0  0
   48.5703    3.5184   19.4805 O   0  0  0  0  0  0  0  0  0  0  0  0
   48.2407   10.6689   21.6960 N   0  0  0  0  0  0  0  0  0  0  0  0
   47.3707    9.6575   21.1967 C   0  0  1  0  0  0  0  0  0  0  0  0
   47.6218    9.5190   19.7410 C   0  0  0  0  0  0  0  0  0  0  0  0
   47.8969    8.3452   19.1059 C   0  0  0  0  0  0  0  0  0  0  0  0
   47.9679    7.1297   19.8838 C   0  0  0  0  0  0  0  0  0  0  0  0
   47.7581    7.1812   21.2445 C   0  0  0  0  0  0  0  0  0  0  0  0
   47.5528   10.7178   19.0147 C   0  0  0  0  0  0  0  0  0  0  0  0
   47.4645    8.4242   21.9916 C   0  0  0  0  0  0  0  0  0  0  0  0
   48.2381    5.9246   19.2839 C   0  0  0  0  0  0  0  0  0  0  0  0
   48.1036    8.3624   17.7454 C   0  0  0  0  0  0  0  0  0  0  0  0
   47.2493   11.9340   19.8065 C   0  0  0  0  0  0  0  0  0  0  0  0
   48.0836   11.9522   21.0619 C   0  0  0  0  0  0  0  0  0  0  0  0
   47.7627   10.7028   17.6660 C   0  0  0  0  0  0  0  0  0  0  0  0
   47.8178    6.0165   22.0201 C   0  0  0  0  0  0  0  0  0  0  0  0
   48.2951    4.7656   20.0724 C   0  0  0  0  0  0  0  0  0  0  0  0
   48.0405    9.5444   16.9965 C   0  0  0  0  0  0  0  0  0  0  0  0
   48.0883    4.8103   21.4189 C   0  0  0  0  0  0  0  0  0  0  0  0
   48.1969   10.7884   23.1449 C   0  0  0  0  0  0  0  0  0  0  0  0
   47.8332    5.0502   21.5028 O   0  0  0  0  0  0  0  0  0  0  0  0
   48.2356    3.4924   19.3291 O   0  0  0  0  0  0  0  0  0  0  0  0
   47.4528   11.0654   19.5319 N   0  0  0  0  0  0  0  0  0  0  0  0
   48.3097    9.9393   19.8197 C   0  0  1  0  0  0  0  0  0  0  0  0
   47.9952    9.2867   21.0994 C   0  0  0  0  0  0  0  0  0  0  0  0
   47.9153    7.9396   21.3092 C   0  0  0  0  0  0  0  0  0  0  0  0
   48.0948    7.0725   20.1569 C   0  0  0  0  0  0  0  0  0  0  0  0
   48.3243    7.6533   18.9452 C   0  0  0  0  0  0  0  0  0  0  0  0
   47.7939   10.1524   22.1847 C   0  0  0  0  0  0  0  0  0  0  0  0
   48.3609    9.0830   18.6123 C   0  0  0  0  0  0  0  0  0  0  0  0
   48.0588    5.7063   20.3174 C   0  0  0  0  0  0  0  0  0  0  0  0
   47.6433    7.4708   22.5709 C   0  0  0  0  0  0  0  0  0  0  0  0
   47.8992   11.6125   21.8494 C   0  0  0  0  0  0  0  0  0  0  0  0
   46.9895   11.7974   20.6569 C   0  0  0  0  0  0  0  0  0  0  0  0
   47.5260    9.6771   23.4228 C   0  0  0  0  0  0  0  0  0  0  0  0
   48.5266    6.7855   17.8547 C   0  0  0  0  0  0  0  0  0  0  0  0
   48.2637    4.8739   19.2112 C   0  0  0  0  0  0  0  0  0  0  0  0
   47.4413    8.3298   23.6618 C   0  0  0  0  0  0  0  0  0  0  0  0
   48.4979    5.4240   17.9795 C   0  0  0  0  0  0  0  0  0  0  0  0
   48.1899   11.9185   18.5900 C   0  0  0  0  0  0  0  0  0  0  0  0
   47.9478    9.5231   20.2746 H   0  0  0  0  0  0  0  0  0  0  0  0
   47.9725    7.9651   19.9358 H   0  0  0  0  0  0  0  0  0  0  0  0
   47.9556    9.3745   20.4457 H   0  0  0  0  0  0  0  0  0  0  0  0
   47.9556    9.3762   20.4461 H   0  0  0  0  0  0  0  0  0  0  0  0
   49.2008    5.2017   17.5198 H   0  0  0  0  0  0  0  0  0  0  0  0
   47.9141    3.2450   18.7432 H   0  0  0  0  0  0  0  0  0  0  0  0
   46.3092   10.0411   21.2655 H   0  0  0  0  0  0  0  0  0  0  0  0
   46.5440    8.2298   22.6041 H   0  0  0  0  0  0  0  0  0  0  0  0
   48.2766    8.4980   22.7719 H   0  0  0  0  0  0  0  0  0  0  0  0
   48.3254    7.4907   17.1617 H   0  0  0  0  0  0  0  0  0  0  0  0
   47.5172   12.8471   19.2358 H   0  0  0  0  0  0  0  0  0  0  0  0
   46.1533   11.9662   20.0347 H   0  0  0  0  0  0  0  0  0  0  0  0
   49.0679   12.3650   20.8001 H   0  0  0  0  0  0  0  0  0  0  0  0
   47.6166   12.6584   21.7968 H   0  0  0  0  0  0  0  0  0  0  0  0
   47.7100   11.6232   17.1061 H   0  0  0  0  0  0  0  0  0  0  0  0
   47.6556    6.0427   23.0853 H   0  0  0  0  0  0  0  0  0  0  0  0
   48.2052    9.5453   15.9255 H   0  0  0  0  0  0  0  0  0  0  0  0
   48.1439    3.8876   21.9769 H   0  0  0  0  0  0  0  0  0  0  0  0
   47.3968   10.1528   23.5935 H   0  0  0  0  0  0  0  0  0  0  0  0
   49.1948   10.6158   23.6021 H   0  0  0  0  0  0  0  0  0  0  0  0
   47.9078   11.8422   23.3963 H   0  0  0  0  0  0  0  0  0  0  0  0
   47.2634    4.1983   21.5345 H   0  0  0  0  0  0  0  0  0  0  0  0
   47.7568    2.9932   18.5703 H   0  0  0  0  0  0  0  0  0  0  0  0
   49.3630   10.3558   19.9746 H   0  0  0  0  0  0  0  0  0  0  0  0
   47.4666    9.3136   17.9284 H   0  0  0  0  0  0  0  0  0  0  0  0
   49.2806    9.3465   18.0246 H   0  0  0  0  0  0  0  0  0  0  0  0
   47.5631    6.4309   22.8180 H   0  0  0  0  0  0  0  0  0  0  0  0
   47.6223   12.2359   22.6996 H   0  0  0  0  0  0  0  0  0  0  0  0
   48.9500   11.8135   21.5270 H   0  0  0  0  0  0  0  0  0  0  0  0
   45.9569   11.4837   20.9311 H   0  0  0  0  0  0  0  0  0  0  0  0
   46.9673   12.8836   20.3945 H   0  0  0  0  0  0  0  0  0  0  0  0
   47.3738   10.3568   24.2469 H   0  0  0  0  0  0  0  0  0  0  0  0
   48.7163    7.1796   16.8563 H   0  0  0  0  0  0  0  0  0  0  0  0
   47.2267    7.9399   24.6546 H   0  0  0  0  0  0  0  0  0  0  0  0
   48.6525    4.7711   17.1458 H   0  0  0  0  0  0  0  0  0  0  0  0
   47.9324   12.9957   18.7286 H   0  0  0  0  0  0  0  0  0  0  0  0
   48.0381   11.5474   17.5721 H   0  0  0  0  0  0  0  0  0  0  0  0
   49.2689   11.8350   18.8479 H   0  0  0  0  0  0  0  0  0  0  0  0
  4 14  1  0
  5 20  1  0
  6  7  1  0
  6 17  1  0
  6 23  1  0
  7  8  1  0
  7 13  1  0
  8  9  1  0
  8 12  2  0
  9 10  1  0
  9 15  2  0
 10 11  2  0
 10 14  1  0
 11 13  1  0
 11 19  1  0
 12 16  1  0
 12 18  1  0
 14 20  2  0
 15 21  1  0
 16 17  1  0
 18 21  2  0
 19 22  2  0
 20 22  1  0
 24 34  1  0
 25 40  1  0
 26 27  1  0
 26 37  1  0
 26 43  1  0
 27 28  1  0
 27 33  1  0
 28 29  1  0
 28 32  2  0
 29 30  1  0
 29 35  2  0
 30 31  2  0
 30 34  1  0
 31 33  1  0
 31 39  1  0
 32 36  1  0
 32 38  1  0
 34 40  2  0
 35 41  1  0
 36 37  1  0
 38 41  2  0
 39 42  2  0
 40 42  1  0
  1 44  1  0
  1 45  1  0
  2 46  1  0
  3 47  1  0
  4 48  1  0
  5 49  1  0
  7 50  1  1
 13 51  1  0
 13 52  1  0
 15 53  1  0
 16 54  1  0
 16 55  1  0
 17 56  1  0
 17 57  1  0
 18 58  1  0
 19 59  1  0
 21 60  1  0
 22 61  1  0
 23 62  1  0
 23 63  1  0
 23 64  1  0
 24 65  1  0
 25 66  1  0
 27 67  1  6
 33 68  1  0
 33 69  1  0
 35 70  1  0
 36 71  1  0
 36 72  1  0
 37 73  1  0
 37 74  1  0
 38 75  1  0
 39 76  1  0
 41 77  1  0
 42 78  1  0
 43 79  1  0
 43 80  1  0
 43 81  1  0
M  END
> <Uni-Dock RESULT> 
ENERGY=   -6.992  LOWER_BOUND=    7.311  UPPER_BOUND=    8.801
INTER + INTRA:          -6.992
INTER:                  -6.992
INTRA:                   0.000
UNBOUND:                 0.000

$$$$

     RDKit          3D

 81 84  0  0  0  0  0  0  0  0999 V2000
   47.9012    7.8461   20.2605 O   0  0  0  0  0  0  0  0  0  0  0  0
   47.9981    8.3905   19.6889 Cl  0  0  0  0  0  0  0  0  0  0  0  0
   47.9980    8.3922   19.6883 Cl  0  0  0  0  0  0  0  0  0  0  0  0
   47.9654   10.4082   17.1768 O   0  0  0  0  0  0  0  0  0  0  0  0
   46.9598   12.6494   18.2904 O   0  0  0  0  0  0  0  0  0  0  0  0
   47.6312    5.8519   21.3709 N   0  0  0  0  0  0  0  0  0  0  0  0
   48.4457    6.9822   21.0739 C   0  0  1  0  0  0  0  0  0  0  0  0
   48.7134    6.9796   19.6147 C   0  0  0  0  0  0  0  0  0  0  0  0
   48.4972    8.0355   18.7808 C   0  0  0  0  0  0  0  0  0  0  0  0
   47.9559    9.2584   19.3278 C   0  0  0  0  0  0  0  0  0  0  0  0
   47.6701    9.3322   20.6735 C   0  0  0  0  0  0  0  0  0  0  0  0
   49.2315    5.7758   19.1130 C   0  0  0  0  0  0  0  0  0  0  0  0
   47.8746    8.2191   21.6267 C   0  0  0  0  0  0  0  0  0  0  0  0
   47.7265   10.3480   18.5245 C   0  0  0  0  0  0  0  0  0  0  0  0
   48.7969    7.8951   17.4450 C   0  0  0  0  0  0  0  0  0  0  0  0
   49.4248    4.6935   20.1078 C   0  0  0  0  0  0  0  0  0  0  0  0
   48.2112    4.5882   20.9957 C   0  0  0  0  0  0  0  0  0  0  0  0
   49.5190    5.6670   17.7829 C   0  0  0  0  0  0  0  0  0  0  0  0
   47.1484   10.5075   21.2287 C   0  0  0  0  0  0  0  0  0  0  0  0
   47.2036   11.5191   19.0933 C   0  0  0  0  0  0  0  0  0  0  0  0
   49.3150    6.7051   16.9181 C   0  0  0  0  0  0  0  0  0  0  0  0
   46.9190   11.5981   20.4240 C   0  0  0  0  0  0  0  0  0  0  0  0
   47.1723    5.8318   22.7509 C   0  0  0  0  0  0  0  0  0  0  0  0
   47.1625   11.4185   20.6192 O   0  0  0  0  0  0  0  0  0  0  0  0
   47.3175   12.7314   18.2601 O   0  0  0  0  0  0  0  0  0  0  0  0
   49.1948    5.4869   19.6729 N   0  0  0  0  0  0  0  0  0  0  0  0
   48.1210    6.4379   19.5069 C   0  0  1  0  0  0  0  0  0  0  0  0
   47.8461    7.2163   20.7238 C   0  0  0  0  0  0  0  0  0  0  0  0
   47.6256    8.5631   20.7762 C   0  0  0  0  0  0  0  0  0  0  0  0
   47.7323    9.3061   19.5318 C   0  0  0  0  0  0  0  0  0  0  0  0
   48.0493    8.6188   18.3981 C   0  0  0  0  0  0  0  0  0  0  0  0
   47.7833    6.4749   21.9131 C   0  0  0  0  0  0  0  0  0  0  0  0
   48.3671    7.1922   18.2563 C   0  0  0  0  0  0  0  0  0  0  0  0
   47.4859   10.6599   19.5210 C   0  0  0  0  0  0  0  0  0  0  0  0
   47.3479    9.1523   21.9851 C   0  0  0  0  0  0  0  0  0  0  0  0
   48.0436    5.0049   21.7494 C   0  0  0  0  0  0  0  0  0  0  0  0
   49.3370    4.9301   20.9713 C   0  0  0  0  0  0  0  0  0  0  0  0
   47.5092    7.0681   23.0977 C   0  0  0  0  0  0  0  0  0  0  0  0
   48.1127    9.3618   17.2036 C   0  0  0  0  0  0  0  0  0  0  0  0
   47.5583   11.3668   18.3152 C   0  0  0  0  0  0  0  0  0  0  0  0
   47.2826    8.4178   23.1789 C   0  0  0  0  0  0  0  0  0  0  0  0
   47.8733   10.7073   17.1575 C   0  0  0  0  0  0  0  0  0  0  0  0
   48.9928    4.4497   18.6522 C   0  0  0  0  0  0  0  0  0  0  0  0
   48.2233    6.9440   20.0013 H   0  0  0  0  0  0  0  0  0  0  0  0
   48.0688    8.4432   19.4804 H   0  0  0  0  0  0  0  0  0  0  0  0
   48.1307    7.0984   20.1393 H   0  0  0  0  0  0  0  0  0  0  0  0
   48.1309    7.0967   20.1399 H   0  0  0  0  0  0  0  0  0  0  0  0
   47.3554   10.7587   16.4617 H   0  0  0  0  0  0  0  0  0  0  0  0
   47.7828   13.0010   17.7923 H   0  0  0  0  0  0  0  0  0  0  0  0
   49.4594    6.8197   21.5479 H   0  0  0  0  0  0  0  0  0  0  0  0
   48.4701    8.6276   22.4862 H   0  0  0  0  0  0  0  0  0  0  0  0
   46.8605    8.0347   22.0866 H   0  0  0  0  0  0  0  0  0  0  0  0
   48.6603    8.6690   16.7154 H   0  0  0  0  0  0  0  0  0  0  0  0
   49.5310    3.7126   19.6002 H   0  0  0  0  0  0  0  0  0  0  0  0
   50.3560    4.8915   20.6975 H   0  0  0  0  0  0  0  0  0  0  0  0
   47.4669    3.9749   20.4689 H   0  0  0  0  0  0  0  0  0  0  0  0
   48.4922    4.0338   21.9288 H   0  0  0  0  0  0  0  0  0  0  0  0
   49.9173    4.7425   17.3956 H   0  0  0  0  0  0  0  0  0  0  0  0
   46.9205   10.5786   22.2797 H   0  0  0  0  0  0  0  0  0  0  0  0
   49.5471    6.6066   15.8643 H   0  0  0  0  0  0  0  0  0  0  0  0
   46.5182   12.5240   20.8083 H   0  0  0  0  0  0  0  0  0  0  0  0
   47.6442    6.6384   23.3609 H   0  0  0  0  0  0  0  0  0  0  0  0
   46.0630    5.8324   22.8154 H   0  0  0  0  0  0  0  0  0  0  0  0
   47.5193    4.8727   23.2168 H   0  0  0  0  0  0  0  0  0  0  0  0
   47.5367   12.3662   20.7351 H   0  0  0  0  0  0  0  0  0  0  0  0
   47.9484   13.2678   17.6529 H   0  0  0  0  0  0  0  0  0  0  0  0
   47.1647    5.8327   19.3454 H   0  0  0  0  0  0  0  0  0  0  0  0
   49.4716    7.1007   17.9527 H   0  0  0  0  0  0  0  0  0  0  0  0
   47.7745    6.7177   17.4289 H   0  0  0  0  0  0  0  0  0  0  0  0
   47.1643   10.2007   22.1112 H   0  0  0  0  0  0  0  0  0  0  0  0
   48.0952    4.5012   22.7146 H   0  0  0  0  0  0  0  0  0  0  0  0
   47.2255    4.5820   21.1166 H   0  0  0  0  0  0  0  0  0  0  0  0
   50.1374    5.4569   21.5386 H   0  0  0  0  0  0  0  0  0  0  0  0
   49.6278    3.8556   20.8717 H   0  0  0  0  0  0  0  0  0  0  0  0
   47.4645    6.4831   24.0033 H   0  0  0  0  0  0  0  0  0  0  0  0
   48.3597    8.8780   16.2585 H   0  0  0  0  0  0  0  0  0  0  0  0
   47.0613    8.9021   24.1277 H   0  0  0  0  0  0  0  0  0  0  0  0
   47.9235   11.2651   16.2455 H   0  0  0  0  0  0  0  0  0  0  0  0
   49.3550    3.4547   19.0052 H   0  0  0  0  0  0  0  0  0  0  0  0
   49.4365    4.7806   17.7085 H   0  0  0  0  0  0  0  0  0  0  0  0
   47.8948    4.3350   18.5146 H   0  0  0  0  0  0  0  0  0  0  0  0
  4 14  1  0
  5 20  1  0
  6  7  1  0
  6 17  1  0
  6 23  1  0
  7  8  1  0
  7 13  1  0
  8  9  1  0
  8 12  2  0
  9 10  1  0
  9 15  2  0
 10 11  2  0
 10 14  1  0
 11 13  1  0
 11 19  1  0
 12 16  1  0
 12 18  1  0
 14 20  2  0
 15 21  1  0
 16 17  1  0
 18 21  2  0
 19 22  2  0
 20 22  1  0
 24 34  1  0
 25 40  1  0
 26 27  1  0
 26 37  1  0
 26 43  1  0
 27 28  1  0
 27 33  1  0
 28 29  1  0
 28 32  2  0
 29 30  1  0
 29 35  2  0
 30 31  2  0
 30 34  1  0
 31 33  1  0
 31 39  1  0
 32 36  1  0
 32 38  1  0
 34 40  2  0
 35 41  1  0
 36 37  1  0
 38 41  2  0
 39 42  2  0
 40 42  1  0
  1 44  1  0
  1 45  1  0
  2 46  1  0
  3 47  1  0
  4 48  1  0
  5 49  1  0
  7 50  1  1
 13 51  1  0
 13 52  1  0
 15 53  1  0
 16 54  1  0
 16 55  1  0
 17 56  1  0
 17 57  1  0
 18 58  1  0
 19 59  1  0
 21 60  1  0
 22 61  1  0
 23 62  1  0
 23 63  1  0
 23 64  1  0
 24 65  1  0
 25 66  1  0
 27 67  1  6
 33 68  1  0
 33 69  1  0
 35 70  1  0
 36 71  1  0
 36 72  1  0
 37 73  1  0
 37 74  1  0
 38 75  1  0
 39 76  1  0
 41 77  1  0
 42 78  1  0
 43 79  1  0
 43 80  1  0
 43 81  1  0
M  END
> <Uni-Dock RESULT> 
ENERGY=   -6.989  LOWER_BOUND=    7.093  UPPER_BOUND=    9.371
INTER + INTRA:          -6.989
INTER:                  -6.989
INTRA:                   0.000
UNBOUND:                 0.000

$$$$
