
     RDKit          3D

 50 54  0  0  0  0  0  0  0  0999 V2000
   -5.1618    0.8113   -0.4093 C   0  0  1  0  0  0  0  0  0  0  0  0
   -6.1066    0.2025    0.6126 C   0  0  0  0  0  0  0  0  0  0  0  0
   -6.0163   -1.2436    0.1642 C   0  0  2  0  0  0  0  0  0  0  0  0
   -4.7378   -1.7486    0.5627 O   0  0  0  0  0  0  0  0  0  0  0  0
   -3.5982   -1.0900   -0.0045 C   0  0  1  0  0  0  0  0  0  0  0  0
   -3.8040    0.3482   -0.1228 N   0  0  0  0  0  0  0  0  0  0  0  0
   -2.7275    1.1585   -0.4564 C   0  0  0  0  0  0  0  0  0  0  0  0
   -2.3662   -1.4019    0.8562 C   0  0  0  0  0  0  0  0  0  0  0  0
   -1.1872   -0.6931    0.3295 N   0  0  0  0  0  0  0  0  0  0  0  0
   -1.3357    0.5724   -0.2646 C   0  0  0  0  0  0  0  0  0  0  0  0
   -0.2838    1.3136   -0.6853 C   0  0  0  0  0  0  0  0  0  0  0  0
    0.0902   -1.1897    0.5441 C   0  0  0  0  0  0  0  0  0  0  0  0
    1.2276   -0.5782    0.1786 C   0  0  0  0  0  0  0  0  0  0  0  0
    1.0955    0.7381   -0.5021 C   0  0  0  0  0  0  0  0  0  0  0  0
   -6.1744   -1.1777   -1.3599 C   0  0  0  0  0  0  0  0  0  0  0  0
   -5.6628    0.2226   -1.7362 C   0  0  0  0  0  0  0  0  0  0  0  0
   -2.8648    2.3064   -0.8821 O   0  0  0  0  0  0  0  0  0  0  0  0
    2.0938    1.3382   -0.9025 O   0  0  0  0  0  0  0  0  0  0  0  0
   -0.3677    2.5654   -1.2758 O   0  0  0  0  0  0  0  0  0  0  0  0
    2.5227   -1.2512    0.4774 C   0  0  0  0  0  0  0  0  0  0  0  0
    3.6466   -0.5447    0.1418 N   0  0  0  0  0  0  0  0  0  0  0  0
    2.5654   -2.3688    0.9856 O   0  0  0  0  0  0  0  0  0  0  0  0
    4.9646   -1.1177    0.2685 C   0  0  0  0  0  0  0  0  0  0  0  0
    6.0352   -0.0906    0.0712 C   0  0  0  0  0  0  0  0  0  0  0  0
    7.5241    1.1502   -1.3986 C   0  0  0  0  0  0  0  0  0  0  0  0
    6.5469    0.1806   -1.1997 C   0  0  0  0  0  0  0  0  0  0  0  0
    6.5279    0.6514    1.1469 C   0  0  0  0  0  0  0  0  0  0  0  0
    7.5053    1.6254    0.9709 C   0  0  0  0  0  0  0  0  0  0  0  0
    7.9948    1.8648   -0.3058 C   0  0  0  0  0  0  0  0  0  0  0  0
    6.0957   -0.5042   -2.2599 F   0  0  0  0  0  0  0  0  0  0  0  0
    8.9366    2.7995   -0.4858 F   0  0  0  0  0  0  0  0  0  0  0  0
    6.0606    0.4274    2.3830 F   0  0  0  0  0  0  0  0  0  0  0  0
   -5.2041    1.9046   -0.4087 H   0  0  0  0  0  0  0  0  0  0  0  0
   -7.1229    0.5971    0.5061 H   0  0  0  0  0  0  0  0  0  0  0  0
   -5.7591    0.3509    1.6403 H   0  0  0  0  0  0  0  0  0  0  0  0
   -6.7824   -1.8720    0.6270 H   0  0  0  0  0  0  0  0  0  0  0  0
   -3.4330   -1.4867   -1.0149 H   0  0  0  0  0  0  0  0  0  0  0  0
   -2.2036   -2.4871    0.8730 H   0  0  0  0  0  0  0  0  0  0  0  0
   -2.5411   -1.0936    1.8952 H   0  0  0  0  0  0  0  0  0  0  0  0
    0.1136   -2.1528    1.0528 H   0  0  0  0  0  0  0  0  0  0  0  0
   -5.6141   -1.9644   -1.8745 H   0  0  0  0  0  0  0  0  0  0  0  0
   -7.2294   -1.2635   -1.6433 H   0  0  0  0  0  0  0  0  0  0  0  0
   -6.4952    0.8206   -2.1256 H   0  0  0  0  0  0  0  0  0  0  0  0
   -4.8875    0.1814   -2.5081 H   0  0  0  0  0  0  0  0  0  0  0  0
   -1.3104    2.8418   -1.2893 H   0  0  0  0  0  0  0  0  0  0  0  0
    3.5305    0.3246   -0.3820 H   0  0  0  0  0  0  0  0  0  0  0  0
    5.0563   -1.9222   -0.4711 H   0  0  0  0  0  0  0  0  0  0  0  0
    5.0572   -1.5929    1.2526 H   0  0  0  0  0  0  0  0  0  0  0  0
    7.9095    1.3466   -2.3926 H   0  0  0  0  0  0  0  0  0  0  0  0
    7.8768    2.1906    1.8180 H   0  0  0  0  0  0  0  0  0  0  0  0
  1  2  1  0
  2  3  1  0
  3  4  1  0
  4  5  1  0
  5  6  1  0
  1  6  1  0
  8  9  1  0
  9 10  1  0
  7 10  1  0
  5  8  1  0
  7  6  1  0
 12 13  2  0
 13 14  1  0
 11 14  1  0
  9 12  1  0
 11 10  2  0
  3 15  1  0
  1 16  1  0
 16 15  1  0
  7 17  2  0
 14 18  2  0
 11 19  1  0
 13 20  1  0
 20 21  1  0
 20 22  2  0
 21 23  1  0
 23 24  1  0
 25 26  2  0
 27 28  1  0
 28 29  2  0
 25 29  1  0
 26 24  1  0
 24 27  2  0
 26 30  1  0
 29 31  1  0
 27 32  1  0
  1 33  1  6
  2 34  1  0
  2 35  1  0
  3 36  1  1
  5 37  1  6
  8 38  1  0
  8 39  1  0
 12 40  1  0
 15 41  1  0
 15 42  1  0
 16 43  1  0
 16 44  1  0
 19 45  1  0
 21 46  1  0
 23 47  1  0
 23 48  1  0
 25 49  1  0
 28 50  1  0
M  END
$$$$
