
     RDKit          3D

 50 54  0  0  0  0  0  0  0  0999 V2000
   -5.0508   -1.0896   -0.4699 C   0  0  1  0  0  0  0  0  0  0  0  0
   -5.2791    0.2807   -1.1078 C   0  0  0  0  0  0  0  0  0  0  0  0
   -5.3003    1.1172    0.1662 C   0  0  2  0  0  0  0  0  0  0  0  0
   -3.9730    1.1641    0.7295 O   0  0  0  0  0  0  0  0  0  0  0  0
   -3.4515   -0.1154    1.1214 C   0  0  1  0  0  0  0  0  0  0  0  0
   -3.6784   -1.0722    0.0562 N   0  0  0  0  0  0  0  0  0  0  0  0
   -2.6740   -1.3834   -0.8680 C   0  0  0  0  0  0  0  0  0  0  0  0
   -2.0002   -0.0237    1.6074 C   0  0  0  0  0  0  0  0  0  0  0  0
   -1.0458    0.0103    0.4921 N   0  0  0  0  0  0  0  0  0  0  0  0
   -1.3164   -0.7114   -0.6855 C   0  0  0  0  0  0  0  0  0  0  0  0
   -0.4119   -0.7917   -1.6873 C   0  0  0  0  0  0  0  0  0  0  0  0
    0.1964    0.6112    0.6577 C   0  0  0  0  0  0  0  0  0  0  0  0
    1.1870    0.6083   -0.2467 C   0  0  0  0  0  0  0  0  0  0  0  0
    0.9105   -0.1120   -1.5091 C   0  0  0  0  0  0  0  0  0  0  0  0
   -6.2868    0.3536    1.0610 C   0  0  0  0  0  0  0  0  0  0  0  0
   -6.1196   -1.1190    0.6370 C   0  0  0  0  0  0  0  0  0  0  0  0
   -2.9091   -2.1491   -1.8014 O   0  0  0  0  0  0  0  0  0  0  0  0
    1.7340   -0.1806   -2.4244 O   0  0  0  0  0  0  0  0  0  0  0  0
   -0.5980   -1.4403   -2.8925 O   0  0  0  0  0  0  0  0  0  0  0  0
    2.4628    1.3011    0.0798 C   0  0  0  0  0  0  0  0  0  0  0  0
    3.4107    1.2865   -0.9088 N   0  0  0  0  0  0  0  0  0  0  0  0
    2.6383    1.8391    1.1693 O   0  0  0  0  0  0  0  0  0  0  0  0
    4.7374    1.8325   -0.7305 C   0  0  0  0  0  0  0  0  0  0  0  0
    5.7235    0.7742   -0.3346 C   0  0  0  0  0  0  0  0  0  0  0  0
    6.9510   -1.2632   -0.8540 C   0  0  0  0  0  0  0  0  0  0  0  0
    6.0449   -0.2691   -1.2075 C   0  0  0  0  0  0  0  0  0  0  0  0
    6.3528    0.7984    0.9118 C   0  0  0  0  0  0  0  0  0  0  0  0
    7.2625   -0.1858    1.2861 C   0  0  0  0  0  0  0  0  0  0  0  0
    7.5510   -1.2111    0.3962 C   0  0  0  0  0  0  0  0  0  0  0  0
    5.4741   -0.3210   -2.4196 F   0  0  0  0  0  0  0  0  0  0  0  0
    8.4258   -2.1621    0.7474 F   0  0  0  0  0  0  0  0  0  0  0  0
    6.0968    1.7914    1.7742 F   0  0  0  0  0  0  0  0  0  0  0  0
   -5.1871   -1.9093   -1.1815 H   0  0  0  0  0  0  0  0  0  0  0  0
   -6.2373    0.3242   -1.6374 H   0  0  0  0  0  0  0  0  0  0  0  0
   -4.4734    0.5752   -1.7878 H   0  0  0  0  0  0  0  0  0  0  0  0
   -5.6227    2.1461   -0.0158 H   0  0  0  0  0  0  0  0  0  0  0  0
   -4.0175   -0.4464    1.9994 H   0  0  0  0  0  0  0  0  0  0  0  0
   -1.8872    0.8666    2.2384 H   0  0  0  0  0  0  0  0  0  0  0  0
   -1.7657   -0.9044    2.2187 H   0  0  0  0  0  0  0  0  0  0  0  0
    0.3221    1.1129    1.6165 H   0  0  0  0  0  0  0  0  0  0  0  0
   -7.3155    0.6720    0.8567 H   0  0  0  0  0  0  0  0  0  0  0  0
   -6.0898    0.4953    2.1280 H   0  0  0  0  0  0  0  0  0  0  0  0
   -5.8463   -1.7661    1.4766 H   0  0  0  0  0  0  0  0  0  0  0  0
   -7.0709   -1.4850    0.2326 H   0  0  0  0  0  0  0  0  0  0  0  0
    0.2329   -1.3198   -3.3958 H   0  0  0  0  0  0  0  0  0  0  0  0
    3.2227    0.7670   -1.7666 H   0  0  0  0  0  0  0  0  0  0  0  0
    5.0413    2.2758   -1.6855 H   0  0  0  0  0  0  0  0  0  0  0  0
    4.7055    2.6435    0.0051 H   0  0  0  0  0  0  0  0  0  0  0  0
    7.1849   -2.0655   -1.5444 H   0  0  0  0  0  0  0  0  0  0  0  0
    7.7395   -0.1501    2.2589 H   0  0  0  0  0  0  0  0  0  0  0  0
  1  2  1  0
  2  3  1  0
  3  4  1  0
  4  5  1  0
  5  6  1  0
  1  6  1  0
  8  9  1  0
  9 10  1  0
  7 10  1  0
  5  8  1  0
  7  6  1  0
 12 13  2  0
 13 14  1  0
 11 14  1  0
  9 12  1  0
 11 10  2  0
  3 15  1  0
  1 16  1  0
 16 15  1  0
  7 17  2  0
 14 18  2  0
 11 19  1  0
 13 20  1  0
 20 21  1  0
 20 22  2  0
 21 23  1  0
 23 24  1  0
 25 26  2  0
 27 28  1  0
 28 29  2  0
 25 29  1  0
 26 24  1  0
 24 27  2  0
 26 30  1  0
 29 31  1  0
 27 32  1  0
  1 33  1  6
  2 34  1  0
  2 35  1  0
  3 36  1  6
  5 37  1  1
  8 38  1  0
  8 39  1  0
 12 40  1  0
 15 41  1  0
 15 42  1  0
 16 43  1  0
 16 44  1  0
 19 45  1  0
 21 46  1  0
 23 47  1  0
 23 48  1  0
 25 49  1  0
 28 50  1  0
M  END
$$$$
