
     RDKit          3D

 32 36  0  0  0  0  0  0  0  0999 V2000
   -5.8908   -0.9147   -0.8514 C   0  0  1  0  0  0  0  0  0  0  0  0
   -6.5593    0.4606   -0.8454 C   0  0  0  0  0  0  0  0  0  0  0  0
   -6.8212    0.5641    0.6507 C   0  0  2  0  0  0  0  0  0  0  0  0
   -5.7117    0.7317    1.4149 O   0  0  0  0  0  0  0  0  0  0  0  0
   -4.5702    0.0847    1.0703 C   0  0  1  0  0  0  0  0  0  0  0  0
   -4.6407   -0.7015   -0.1436 N   0  0  0  0  0  0  0  0  0  0  0  0
   -3.4274   -1.2687   -0.6324 C   0  0  0  0  0  0  0  0  0  0  0  0
   -3.4540    1.1005    1.0161 C   0  0  0  0  0  0  0  0  0  0  0  0
   -2.2059    0.5338    0.5228 N   0  0  0  0  0  0  0  0  0  0  0  0
   -2.1906   -0.5861   -0.2556 C   0  0  0  0  0  0  0  0  0  0  0  0
   -0.9750   -1.1085   -0.7144 C   0  0  0  0  0  0  0  0  0  0  0  0
   -1.0642    1.1613    0.8680 C   0  0  0  0  0  0  0  0  0  0  0  0
    0.1660    0.6931    0.4458 C   0  0  0  0  0  0  0  0  0  0  0  0
    0.1778   -0.4427   -0.3434 C   0  0  0  0  0  0  0  0  0  0  0  0
   -7.3906   -0.8217    0.9763 C   0  0  0  0  0  0  0  0  0  0  0  0
   -6.8855   -1.7373   -0.0904 C   0  0  0  0  0  0  0  0  0  0  0  0
   -3.4578   -2.3003   -1.3461 O   0  0  0  0  0  0  0  0  0  0  0  0
    1.2726   -0.8978   -0.7459 O   0  0  0  0  0  0  0  0  0  0  0  0
   -0.9259   -2.2464   -1.5082 O   0  0  0  0  0  0  0  0  0  0  0  0
    1.3975    1.3676    0.8188 C   0  0  0  0  0  0  0  0  0  0  0  0
    2.6378    0.8435    0.3608 N   0  0  0  0  0  0  0  0  0  0  0  0
    1.3915    2.4043    1.5377 O   0  0  0  0  0  0  0  0  0  0  0  0
    3.8816    1.5242    0.7369 C   0  0  0  0  0  0  0  0  0  0  0  0
    5.0462    0.8026    0.1533 C   0  0  0  0  0  0  0  0  0  0  0  0
    6.6056   -1.0117    0.0956 C   0  0  0  0  0  0  0  0  0  0  0  0
    5.5225   -0.3836    0.6759 C   0  0  0  0  0  0  0  0  0  0  0  0
    5.6651    1.3527   -0.9552 C   0  0  0  0  0  0  0  0  0  0  0  0
    6.7610    0.7182   -1.5434 C   0  0  0  0  0  0  0  0  0  0  0  0
    7.2396   -0.4829   -1.0104 C   0  0  0  0  0  0  0  0  0  0  0  0
    4.9126   -0.9044    1.7494 F   0  0  0  0  0  0  0  0  0  0  0  0
    8.2950   -1.0443   -1.6193 F   0  0  0  0  0  0  0  0  0  0  0  0
    5.1988    2.5099   -1.4632 F   0  0  0  0  0  0  0  0  0  0  0  0
  1  2  1  0
  2  3  1  0
  3  4  1  0
  4  5  1  0
  5  6  1  0
  1  6  1  0
  8  9  1  0
  9 10  1  0
  7 10  1  0
  5  8  1  6
  7  6  1  0
 12 13  2  0
 13 14  1  0
 11 14  1  0
  9 12  1  0
 11 10  2  0
  3 15  1  1
  1 16  1  1
 16 15  1  0
  7 17  2  0
 14 18  2  0
 11 19  1  0
 13 20  1  0
 20 21  1  0
 20 22  2  0
 21 23  1  0
 23 24  1  0
 25 26  2  0
 27 28  1  0
 28 29  2  0
 25 29  1  0
 26 24  1  0
 24 27  2  0
 26 30  1  0
 29 31  1  0
 27 32  1  0
M  END
