
     RDKit          3D

 50 54  0  0  0  0  0  0  0  0999 V2000
   -5.0632   -1.0163   -0.1871 C   0  0  1  0  0  0  0  0  0  0  0  0
   -5.7117   -0.8166   -1.5460 C   0  0  0  0  0  0  0  0  0  0  0  0
   -5.7098    0.6994   -1.5717 C   0  0  2  0  0  0  0  0  0  0  0  0
   -4.3641    1.1333   -1.7912 O   0  0  0  0  0  0  0  0  0  0  0  0
   -3.4103    0.7518   -0.7906 C   0  0  1  0  0  0  0  0  0  0  0  0
   -3.6691   -0.5792   -0.2642 N   0  0  0  0  0  0  0  0  0  0  0  0
   -2.7243   -1.1840    0.5670 C   0  0  0  0  0  0  0  0  0  0  0  0
   -2.0049    0.8275   -1.3981 C   0  0  0  0  0  0  0  0  0  0  0  0
   -1.0026    0.4227   -0.3983 N   0  0  0  0  0  0  0  0  0  0  0  0
   -1.3229   -0.5658    0.5595 C   0  0  0  0  0  0  0  0  0  0  0  0
   -0.4188   -0.9821    1.4731 C   0  0  0  0  0  0  0  0  0  0  0  0
    0.2881    0.9328   -0.4500 C   0  0  0  0  0  0  0  0  0  0  0  0
    1.2849    0.6035    0.3858 C   0  0  0  0  0  0  0  0  0  0  0  0
    0.9573   -0.3926    1.4314 C   0  0  0  0  0  0  0  0  0  0  0  0
   -6.2407    1.1041   -0.1910 C   0  0  0  0  0  0  0  0  0  0  0  0
   -5.8692   -0.0762    0.7211 C   0  0  0  0  0  0  0  0  0  0  0  0
   -3.0108   -2.1720    1.2377 O   0  0  0  0  0  0  0  0  0  0  0  0
    1.7805   -0.7644    2.2707 O   0  0  0  0  0  0  0  0  0  0  0  0
   -0.6509   -1.9109    2.4681 O   0  0  0  0  0  0  0  0  0  0  0  0
    2.6157    1.2447    0.2053 C   0  0  0  0  0  0  0  0  0  0  0  0
    3.5765    0.8730    1.1077 N   0  0  0  0  0  0  0  0  0  0  0  0
    2.8207    2.0486   -0.6995 O   0  0  0  0  0  0  0  0  0  0  0  0
    4.9467    1.3270    1.0248 C   0  0  0  0  0  0  0  0  0  0  0  0
    5.8135    0.3457    0.2936 C   0  0  0  0  0  0  0  0  0  0  0  0
    6.8316   -1.8603    0.1369 C   0  0  0  0  0  0  0  0  0  0  0  0
    6.0358   -0.9360    0.8051 C   0  0  0  0  0  0  0  0  0  0  0  0
    6.4294    0.6812   -0.9140 C   0  0  0  0  0  0  0  0  0  0  0  0
    7.2294   -0.2280   -1.5993 C   0  0  0  0  0  0  0  0  0  0  0  0
    7.4205   -1.4946   -1.0652 C   0  0  0  0  0  0  0  0  0  0  0  0
    5.4758   -1.2928    1.9700 F   0  0  0  0  0  0  0  0  0  0  0  0
    8.1898   -2.3757   -1.7169 F   0  0  0  0  0  0  0  0  0  0  0  0
    6.2682    1.9063   -1.4322 F   0  0  0  0  0  0  0  0  0  0  0  0
   -5.1273   -2.0558    0.1474 H   0  0  0  0  0  0  0  0  0  0  0  0
   -5.1216   -1.2561   -2.3569 H   0  0  0  0  0  0  0  0  0  0  0  0
   -6.7295   -1.2209   -1.5693 H   0  0  0  0  0  0  0  0  0  0  0  0
   -6.3262    1.1031   -2.3797 H   0  0  0  0  0  0  0  0  0  0  0  0
   -3.4794    1.4617    0.0441 H   0  0  0  0  0  0  0  0  0  0  0  0
   -1.9314    0.1700   -2.2741 H   0  0  0  0  0  0  0  0  0  0  0  0
   -1.8215    1.8489   -1.7551 H   0  0  0  0  0  0  0  0  0  0  0  0
    0.4483    1.6544   -1.2505 H   0  0  0  0  0  0  0  0  0  0  0  0
   -7.3308    1.2133   -0.2123 H   0  0  0  0  0  0  0  0  0  0  0  0
   -5.8070    2.0430    0.1666 H   0  0  0  0  0  0  0  0  0  0  0  0
   -5.3120    0.2495    1.6055 H   0  0  0  0  0  0  0  0  0  0  0  0
   -6.7848   -0.5730    1.0632 H   0  0  0  0  0  0  0  0  0  0  0  0
    0.1960   -2.0104    2.9493 H   0  0  0  0  0  0  0  0  0  0  0  0
    3.3559    0.1555    1.7988 H   0  0  0  0  0  0  0  0  0  0  0  0
    4.9771    2.3153    0.5534 H   0  0  0  0  0  0  0  0  0  0  0  0
    5.3158    1.4470    2.0496 H   0  0  0  0  0  0  0  0  0  0  0  0
    6.9895   -2.8504    0.5490 H   0  0  0  0  0  0  0  0  0  0  0  0
    7.6975    0.0511   -2.5365 H   0  0  0  0  0  0  0  0  0  0  0  0
  1  2  1  0
  2  3  1  0
  3  4  1  0
  4  5  1  0
  5  6  1  0
  1  6  1  0
  8  9  1  0
  9 10  1  0
  7 10  1  0
  5  8  1  0
  7  6  1  0
 12 13  2  0
 13 14  1  0
 11 14  1  0
  9 12  1  0
 11 10  2  0
  3 15  1  0
  1 16  1  0
 16 15  1  0
  7 17  2  0
 14 18  2  0
 11 19  1  0
 13 20  1  0
 20 21  1  0
 20 22  2  0
 21 23  1  0
 23 24  1  0
 25 26  2  0
 27 28  1  0
 28 29  2  0
 25 29  1  0
 26 24  1  0
 24 27  2  0
 26 30  1  0
 29 31  1  0
 27 32  1  0
  1 33  1  1
  2 34  1  0
  2 35  1  0
  3 36  1  6
  5 37  1  1
  8 38  1  0
  8 39  1  0
 12 40  1  0
 15 41  1  0
 15 42  1  0
 16 43  1  0
 16 44  1  0
 19 45  1  0
 21 46  1  0
 23 47  1  0
 23 48  1  0
 25 49  1  0
 28 50  1  0
M  END
$$$$
