
     RDKit          3D

 50 54  0  0  0  0  0  0  0  0999 V2000
   -5.1056   -0.7440   -0.1523 C   0  0  1  0  0  0  0  0  0  0  0  0
   -6.0761    0.4246   -0.1870 C   0  0  0  0  0  0  0  0  0  0  0  0
   -5.6735    1.0865    1.1174 C   0  0  2  0  0  0  0  0  0  0  0  0
   -4.4029    1.7142    0.9177 O   0  0  0  0  0  0  0  0  0  0  0  0
   -3.3199    0.8416    0.5708 C   0  0  1  0  0  0  0  0  0  0  0  0
   -3.7475   -0.2278   -0.3235 N   0  0  0  0  0  0  0  0  0  0  0  0
   -2.7866   -1.0340   -0.9187 C   0  0  0  0  0  0  0  0  0  0  0  0
   -2.1961    1.6733   -0.0627 C   0  0  0  0  0  0  0  0  0  0  0  0
   -1.0891    0.7946   -0.4775 N   0  0  0  0  0  0  0  0  0  0  0  0
   -1.3597   -0.5036   -0.9449 C   0  0  0  0  0  0  0  0  0  0  0  0
   -0.3976   -1.3256   -1.4259 C   0  0  0  0  0  0  0  0  0  0  0  0
    0.2082    1.2801   -0.5533 C   0  0  0  0  0  0  0  0  0  0  0  0
    1.2681    0.5861   -0.9968 C   0  0  0  0  0  0  0  0  0  0  0  0
    1.0168   -0.8086   -1.4497 C   0  0  0  0  0  0  0  0  0  0  0  0
   -5.6080   -0.0696    2.1239 C   0  0  0  0  0  0  0  0  0  0  0  0
   -5.2932   -1.3059    1.2649 C   0  0  0  0  0  0  0  0  0  0  0  0
   -3.0515   -2.1294   -1.4171 O   0  0  0  0  0  0  0  0  0  0  0  0
    1.9462   -1.5174   -1.8377 O   0  0  0  0  0  0  0  0  0  0  0  0
   -0.6036   -2.6121   -1.9016 O   0  0  0  0  0  0  0  0  0  0  0  0
    2.6005    1.2543   -1.0018 C   0  0  0  0  0  0  0  0  0  0  0  0
    3.6396    0.4951   -1.4680 N   0  0  0  0  0  0  0  0  0  0  0  0
    2.7355    2.4105   -0.6101 O   0  0  0  0  0  0  0  0  0  0  0  0
    5.0090    0.9542   -1.4883 C   0  0  0  0  0  0  0  0  0  0  0  0
    5.8292    0.2620   -0.4416 C   0  0  0  0  0  0  0  0  0  0  0  0
    6.8926    0.2439    1.7464 C   0  0  0  0  0  0  0  0  0  0  0  0
    6.1509    0.8913    0.7631 C   0  0  0  0  0  0  0  0  0  0  0  0
    6.2735   -1.0490   -0.6327 C   0  0  0  0  0  0  0  0  0  0  0  0
    7.0154   -1.7154    0.3368 C   0  0  0  0  0  0  0  0  0  0  0  0
    7.3179   -1.0579    1.5215 C   0  0  0  0  0  0  0  0  0  0  0  0
    5.7521    2.1500    0.9904 F   0  0  0  0  0  0  0  0  0  0  0  0
    8.0317   -1.6888    2.4624 F   0  0  0  0  0  0  0  0  0  0  0  0
    5.9854   -1.6889   -1.7752 F   0  0  0  0  0  0  0  0  0  0  0  0
   -5.3333   -1.4911   -0.9189 H   0  0  0  0  0  0  0  0  0  0  0  0
   -7.1168    0.0837   -0.1639 H   0  0  0  0  0  0  0  0  0  0  0  0
   -5.9188    1.0700   -1.0576 H   0  0  0  0  0  0  0  0  0  0  0  0
   -6.3821    1.8593    1.4290 H   0  0  0  0  0  0  0  0  0  0  0  0
   -2.9396    0.3752    1.4896 H   0  0  0  0  0  0  0  0  0  0  0  0
   -2.5742    2.2185   -0.9374 H   0  0  0  0  0  0  0  0  0  0  0  0
   -1.8567    2.4291    0.6572 H   0  0  0  0  0  0  0  0  0  0  0  0
    0.3185    2.3093   -0.2122 H   0  0  0  0  0  0  0  0  0  0  0  0
   -6.5774   -0.2100    2.6151 H   0  0  0  0  0  0  0  0  0  0  0  0
   -4.8498    0.0889    2.8973 H   0  0  0  0  0  0  0  0  0  0  0  0
   -4.4153   -1.8476    1.6325 H   0  0  0  0  0  0  0  0  0  0  0  0
   -6.1477   -1.9925    1.2897 H   0  0  0  0  0  0  0  0  0  0  0  0
   -1.5669   -2.8037   -1.8769 H   0  0  0  0  0  0  0  0  0  0  0  0
    3.4516   -0.4656   -1.7623 H   0  0  0  0  0  0  0  0  0  0  0  0
    5.0520    2.0420   -1.3646 H   0  0  0  0  0  0  0  0  0  0  0  0
    5.4125    0.7340   -2.4835 H   0  0  0  0  0  0  0  0  0  0  0  0
    7.1330    0.7495    2.6749 H   0  0  0  0  0  0  0  0  0  0  0  0
    7.3492   -2.7334    0.1702 H   0  0  0  0  0  0  0  0  0  0  0  0
  1  2  1  0
  2  3  1  0
  3  4  1  0
  4  5  1  0
  5  6  1  0
  1  6  1  0
  8  9  1  0
  9 10  1  0
  7 10  1  0
  5  8  1  0
  7  6  1  0
 12 13  2  0
 13 14  1  0
 11 14  1  0
  9 12  1  0
 11 10  2  0
  3 15  1  0
  1 16  1  0
 16 15  1  0
  7 17  2  0
 14 18  2  0
 11 19  1  0
 13 20  1  0
 20 21  1  0
 20 22  2  0
 21 23  1  0
 23 24  1  0
 25 26  2  0
 27 28  1  0
 28 29  2  0
 25 29  1  0
 26 24  1  0
 24 27  2  0
 26 30  1  0
 29 31  1  0
 27 32  1  0
  1 33  1  6
  2 34  1  0
  2 35  1  0
  3 36  1  1
  5 37  1  1
  8 38  1  0
  8 39  1  0
 12 40  1  0
 15 41  1  0
 15 42  1  0
 16 43  1  0
 16 44  1  0
 19 45  1  0
 21 46  1  0
 23 47  1  0
 23 48  1  0
 25 49  1  0
 28 50  1  0
M  END
$$$$
