
     RDKit          3D

 50 54  0  0  0  0  0  0  0  0999 V2000
   -5.0396   -0.6955    1.2309 C   0  0  1  0  0  0  0  0  0  0  0  0
   -5.0760   -1.4582   -0.0934 C   0  0  0  0  0  0  0  0  0  0  0  0
   -5.3247   -0.2762   -1.0229 C   0  0  2  0  0  0  0  0  0  0  0  0
   -4.1409    0.5465   -1.0776 O   0  0  0  0  0  0  0  0  0  0  0  0
   -3.7636    1.1240    0.1820 C   0  0  1  0  0  0  0  0  0  0  0  0
   -3.8053    0.1022    1.2096 N   0  0  0  0  0  0  0  0  0  0  0  0
   -2.6458   -0.5695    1.6146 C   0  0  0  0  0  0  0  0  0  0  0  0
   -2.4408    1.8939    0.0917 C   0  0  0  0  0  0  0  0  0  0  0  0
   -1.2769    1.0016    0.1651 N   0  0  0  0  0  0  0  0  0  0  0  0
   -1.3288   -0.1552    0.9652 C   0  0  0  0  0  0  0  0  0  0  0  0
   -0.2424   -0.9408    1.1414 C   0  0  0  0  0  0  0  0  0  0  0  0
   -0.0714    1.3820   -0.4127 C   0  0  0  0  0  0  0  0  0  0  0  0
    1.0828    0.7057   -0.3160 C   0  0  0  0  0  0  0  0  0  0  0  0
    1.0409   -0.5399    0.4819 C   0  0  0  0  0  0  0  0  0  0  0  0
   -6.5044    0.4434   -0.3540 C   0  0  0  0  0  0  0  0  0  0  0  0
   -6.3136    0.1641    1.1500 C   0  0  0  0  0  0  0  0  0  0  0  0
   -2.7146   -1.4768    2.4422 O   0  0  0  0  0  0  0  0  0  0  0  0
    2.0281   -1.2651    0.6263 O   0  0  0  0  0  0  0  0  0  0  0  0
   -0.2047   -2.1135    1.8701 O   0  0  0  0  0  0  0  0  0  0  0  0
    2.2928    1.2433   -0.9943 C   0  0  0  0  0  0  0  0  0  0  0  0
    3.4432    0.5235   -0.8047 N   0  0  0  0  0  0  0  0  0  0  0  0
    2.2495    2.2621   -1.6785 O   0  0  0  0  0  0  0  0  0  0  0  0
    4.6638    0.8633   -1.4965 C   0  0  0  0  0  0  0  0  0  0  0  0
    5.8376    0.1153   -0.9457 C   0  0  0  0  0  0  0  0  0  0  0  0
    7.6928   -0.0463    0.6188 C   0  0  0  0  0  0  0  0  0  0  0  0
    6.6129    0.6499    0.0856 C   0  0  0  0  0  0  0  0  0  0  0  0
    6.1711   -1.1537   -1.4244 C   0  0  0  0  0  0  0  0  0  0  0  0
    7.2463   -1.8675   -0.9059 C   0  0  0  0  0  0  0  0  0  0  0  0
    7.9991   -1.3027    0.1144 C   0  0  0  0  0  0  0  0  0  0  0  0
    6.3228    1.8611    0.5805 F   0  0  0  0  0  0  0  0  0  0  0  0
    9.0363   -1.9812    0.6209 F   0  0  0  0  0  0  0  0  0  0  0  0
    5.4446   -1.7075   -2.4053 F   0  0  0  0  0  0  0  0  0  0  0  0
   -5.0599   -1.3628    2.0976 H   0  0  0  0  0  0  0  0  0  0  0  0
   -5.9022   -2.1773   -0.1219 H   0  0  0  0  0  0  0  0  0  0  0  0
   -4.1363   -1.9740   -0.3155 H   0  0  0  0  0  0  0  0  0  0  0  0
   -5.5607   -0.5904   -2.0433 H   0  0  0  0  0  0  0  0  0  0  0  0
   -4.5111    1.8855    0.4319 H   0  0  0  0  0  0  0  0  0  0  0  0
   -2.4238    2.4730   -0.8397 H   0  0  0  0  0  0  0  0  0  0  0  0
   -2.3727    2.5984    0.9304 H   0  0  0  0  0  0  0  0  0  0  0  0
   -0.1240    2.3116   -0.9782 H   0  0  0  0  0  0  0  0  0  0  0  0
   -7.4552    0.0085   -0.6827 H   0  0  0  0  0  0  0  0  0  0  0  0
   -6.5254    1.5159   -0.5698 H   0  0  0  0  0  0  0  0  0  0  0  0
   -6.2455    1.0840    1.7394 H   0  0  0  0  0  0  0  0  0  0  0  0
   -7.1754   -0.4037    1.5205 H   0  0  0  0  0  0  0  0  0  0  0  0
    0.7137   -2.4449    1.8029 H   0  0  0  0  0  0  0  0  0  0  0  0
    3.3823   -0.3722   -0.3212 H   0  0  0  0  0  0  0  0  0  0  0  0
    4.5241    0.6359   -2.5601 H   0  0  0  0  0  0  0  0  0  0  0  0
    4.8257    1.9460   -1.4319 H   0  0  0  0  0  0  0  0  0  0  0  0
    8.2846    0.3855    1.4179 H   0  0  0  0  0  0  0  0  0  0  0  0
    7.4908   -2.8510   -1.2909 H   0  0  0  0  0  0  0  0  0  0  0  0
  1  2  1  0
  2  3  1  0
  3  4  1  0
  4  5  1  0
  5  6  1  0
  1  6  1  0
  8  9  1  0
  9 10  1  0
  7 10  1  0
  5  8  1  0
  7  6  1  0
 12 13  2  0
 13 14  1  0
 11 14  1  0
  9 12  1  0
 11 10  2  0
  3 15  1  0
  1 16  1  0
 16 15  1  0
  7 17  2  0
 14 18  2  0
 11 19  1  0
 13 20  1  0
 20 21  1  0
 20 22  2  0
 21 23  1  0
 23 24  1  0
 25 26  2  0
 27 28  1  0
 28 29  2  0
 25 29  1  0
 26 24  1  0
 24 27  2  0
 26 30  1  0
 29 31  1  0
 27 32  1  0
  1 33  1  1
  2 34  1  0
  2 35  1  0
  3 36  1  6
  5 37  1  1
  8 38  1  0
  8 39  1  0
 12 40  1  0
 15 41  1  0
 15 42  1  0
 16 43  1  0
 16 44  1  0
 19 45  1  0
 21 46  1  0
 23 47  1  0
 23 48  1  0
 25 49  1  0
 28 50  1  0
M  END
$$$$
