
     RDKit          3D

 50 54  0  0  0  0  0  0  0  0999 V2000
   -4.9568   -0.8839    0.6607 C   0  0  1  0  0  0  0  0  0  0  0  0
   -5.6286   -2.2132    0.3333 C   0  0  0  0  0  0  0  0  0  0  0  0
   -5.3676   -2.2305   -1.1659 C   0  0  2  0  0  0  0  0  0  0  0  0
   -3.9782   -2.5157   -1.3654 O   0  0  0  0  0  0  0  0  0  0  0  0
   -3.0598   -1.5545   -0.8257 C   0  0  1  0  0  0  0  0  0  0  0  0
   -3.5141   -1.0259    0.4608 N   0  0  0  0  0  0  0  0  0  0  0  0
   -2.6485   -0.2531    1.2240 C   0  0  0  0  0  0  0  0  0  0  0  0
   -1.6733   -2.1995   -0.6976 C   0  0  0  0  0  0  0  0  0  0  0  0
   -0.7242   -1.2377   -0.1167 N   0  0  0  0  0  0  0  0  0  0  0  0
   -1.1750   -0.2993    0.8490 C   0  0  0  0  0  0  0  0  0  0  0  0
   -0.3530    0.5854    1.4795 C   0  0  0  0  0  0  0  0  0  0  0  0
    0.6361   -1.3110   -0.3869 C   0  0  0  0  0  0  0  0  0  0  0  0
    1.5509   -0.4772    0.1341 C   0  0  0  0  0  0  0  0  0  0  0  0
    1.0961    0.5833    1.0746 C   0  0  0  0  0  0  0  0  0  0  0  0
   -5.7602   -0.8180   -1.6327 C   0  0  0  0  0  0  0  0  0  0  0  0
   -5.5479    0.0735   -0.3878 C   0  0  0  0  0  0  0  0  0  0  0  0
   -3.0317    0.4409    2.1695 O   0  0  0  0  0  0  0  0  0  0  0  0
    1.8844    1.4410    1.4865 O   0  0  0  0  0  0  0  0  0  0  0  0
   -0.7409    1.5209    2.4431 O   0  0  0  0  0  0  0  0  0  0  0  0
    2.9613   -0.6129   -0.2704 C   0  0  0  0  0  0  0  0  0  0  0  0
    3.4318    0.4669   -0.9959 N   0  0  0  0  0  0  0  0  0  0  0  0
    3.6200   -1.6114    0.0212 O   0  0  0  0  0  0  0  0  0  0  0  0
    4.8442    0.6506   -1.2565 C   0  0  0  0  0  0  0  0  0  0  0  0
    5.4976    1.5174   -0.2197 C   0  0  0  0  0  0  0  0  0  0  0  0
    5.6106    3.6250    1.0204 C   0  0  0  0  0  0  0  0  0  0  0  0
    5.0303    2.8172    0.0480 C   0  0  0  0  0  0  0  0  0  0  0  0
    6.5944    1.0531    0.5103 C   0  0  0  0  0  0  0  0  0  0  0  0
    7.1912    1.8380    1.4883 C   0  0  0  0  0  0  0  0  0  0  0  0
    6.6880    3.1152    1.7394 C   0  0  0  0  0  0  0  0  0  0  0  0
    3.9987    3.3063   -0.6570 F   0  0  0  0  0  0  0  0  0  0  0  0
    7.2457    3.8740    2.6980 F   0  0  0  0  0  0  0  0  0  0  0  0
    7.0993   -0.1696    0.2717 F   0  0  0  0  0  0  0  0  0  0  0  0
   -5.1759   -0.5513    1.6849 H   0  0  0  0  0  0  0  0  0  0  0  0
   -5.1671   -3.0571    0.8667 H   0  0  0  0  0  0  0  0  0  0  0  0
   -6.7004   -2.1858    0.5567 H   0  0  0  0  0  0  0  0  0  0  0  0
   -5.9421   -3.0037   -1.6867 H   0  0  0  0  0  0  0  0  0  0  0  0
   -2.9883   -0.7067   -1.5245 H   0  0  0  0  0  0  0  0  0  0  0  0
   -1.3400   -2.5340   -1.6917 H   0  0  0  0  0  0  0  0  0  0  0  0
   -1.7225   -3.0951   -0.0691 H   0  0  0  0  0  0  0  0  0  0  0  0
    0.9269   -2.0907   -1.0872 H   0  0  0  0  0  0  0  0  0  0  0  0
   -6.8206   -0.8035   -1.9240 H   0  0  0  0  0  0  0  0  0  0  0  0
   -5.1625   -0.4770   -2.4870 H   0  0  0  0  0  0  0  0  0  0  0  0
   -4.8948    0.9347   -0.6106 H   0  0  0  0  0  0  0  0  0  0  0  0
   -6.5120    0.4682   -0.0360 H   0  0  0  0  0  0  0  0  0  0  0  0
   -1.6979    1.4179    2.6102 H   0  0  0  0  0  0  0  0  0  0  0  0
    2.8549    1.2990   -1.0660 H   0  0  0  0  0  0  0  0  0  0  0  0
    5.3255   -0.3140   -1.3230 H   0  0  0  0  0  0  0  0  0  0  0  0
    4.9395    1.1214   -2.2241 H   0  0  0  0  0  0  0  0  0  0  0  0
    5.2220    4.6247    1.2187 H   0  0  0  0  0  0  0  0  0  0  0  0
    8.0347    1.4576    2.0542 H   0  0  0  0  0  0  0  0  0  0  0  0
  1  2  1  0
  2  3  1  0
  3  4  1  0
  4  5  1  0
  5  6  1  0
  1  6  1  0
  8  9  1  0
  9 10  1  0
  7 10  1  0
  5  8  1  0
  7  6  1  0
 12 13  2  0
 13 14  1  0
 11 14  1  0
  9 12  1  0
 11 10  2  0
  3 15  1  0
  1 16  1  0
 16 15  1  0
  7 17  2  0
 14 18  2  0
 11 19  1  0
 13 20  1  0
 20 21  1  0
 20 22  2  0
 21 23  1  0
 23 24  1  0
 25 26  2  0
 27 28  1  0
 28 29  2  0
 25 29  1  0
 26 24  1  0
 24 27  2  0
 26 30  1  0
 29 31  1  0
 27 32  1  0
  1 33  1  1
  2 34  1  0
  2 35  1  0
  3 36  1  6
  5 37  1  6
  8 38  1  0
  8 39  1  0
 12 40  1  0
 15 41  1  0
 15 42  1  0
 16 43  1  0
 16 44  1  0
 19 45  1  0
 21 46  1  0
 23 47  1  0
 23 48  1  0
 25 49  1  0
 28 50  1  0
M  END
$$$$
