
     RDKit          3D

 50 54  0  0  0  0  0  0  0  0999 V2000
   -5.0331   -0.1473   -1.0365 C   0  0  1  0  0  0  0  0  0  0  0  0
   -5.6840    1.2096   -1.2427 C   0  0  0  0  0  0  0  0  0  0  0  0
   -5.6875    1.6755    0.2005 C   0  0  2  0  0  0  0  0  0  0  0  0
   -4.3429    2.0113    0.5576 O   0  0  0  0  0  0  0  0  0  0  0  0
   -3.3902    0.9426    0.4923 C   0  0  1  0  0  0  0  0  0  0  0  0
   -3.6403    0.0590   -0.6398 N   0  0  0  0  0  0  0  0  0  0  0  0
   -2.6931   -0.9013   -0.9682 C   0  0  0  0  0  0  0  0  0  0  0  0
   -1.9779    1.5401    0.4236 C   0  0  0  0  0  0  0  0  0  0  0  0
   -0.9785    0.4648    0.3012 N   0  0  0  0  0  0  0  0  0  0  0  0
   -1.2891   -0.7052   -0.4135 C   0  0  0  0  0  0  0  0  0  0  0  0
   -0.3862   -1.6882   -0.6401 C   0  0  0  0  0  0  0  0  0  0  0  0
    0.3181    0.6495    0.7582 C   0  0  0  0  0  0  0  0  0  0  0  0
    1.3193   -0.2341    0.6202 C   0  0  0  0  0  0  0  0  0  0  0  0
    1.0047   -1.5003   -0.0944 C   0  0  0  0  0  0  0  0  0  0  0  0
   -6.2220    0.4713    0.9856 C   0  0  0  0  0  0  0  0  0  0  0  0
   -5.8408   -0.7443    0.1250 C   0  0  0  0  0  0  0  0  0  0  0  0
   -2.9490   -1.8726   -1.6816 O   0  0  0  0  0  0  0  0  0  0  0  0
    1.8671   -2.3672   -0.2403 O   0  0  0  0  0  0  0  0  0  0  0  0
   -0.6330   -2.8607   -1.3384 O   0  0  0  0  0  0  0  0  0  0  0  0
    2.6564    0.1176    1.1771 C   0  0  0  0  0  0  0  0  0  0  0  0
    3.6278   -0.8351    1.0275 N   0  0  0  0  0  0  0  0  0  0  0  0
    2.8537    1.1963    1.7302 O   0  0  0  0  0  0  0  0  0  0  0  0
    5.0006   -0.6336    1.4307 C   0  0  0  0  0  0  0  0  0  0  0  0
    5.8709   -0.2932    0.2583 C   0  0  0  0  0  0  0  0  0  0  0  0
    6.9839   -0.9606   -1.8019 C   0  0  0  0  0  0  0  0  0  0  0  0
    6.1947   -1.2613   -0.6967 C   0  0  0  0  0  0  0  0  0  0  0  0
    6.3707    0.9975    0.0741 C   0  0  0  0  0  0  0  0  0  0  0  0
    7.1623    1.3202   -1.0239 C   0  0  0  0  0  0  0  0  0  0  0  0
    7.4599    0.3339   -1.9545 C   0  0  0  0  0  0  0  0  0  0  0  0
    5.7431   -2.5147   -0.5512 F   0  0  0  0  0  0  0  0  0  0  0  0
    8.2207    0.6362   -3.0144 F   0  0  0  0  0  0  0  0  0  0  0  0
    6.1023    1.9561    0.9712 F   0  0  0  0  0  0  0  0  0  0  0  0
   -5.0900   -0.7717   -1.9331 H   0  0  0  0  0  0  0  0  0  0  0  0
   -6.7004    1.1122   -1.6395 H   0  0  0  0  0  0  0  0  0  0  0  0
   -5.0933    1.8590   -1.8968 H   0  0  0  0  0  0  0  0  0  0  0  0
   -6.3047    2.5659    0.3494 H   0  0  0  0  0  0  0  0  0  0  0  0
   -3.4758    0.3423    1.4076 H   0  0  0  0  0  0  0  0  0  0  0  0
   -1.8002    2.1493    1.3189 H   0  0  0  0  0  0  0  0  0  0  0  0
   -1.8929    2.2147   -0.4385 H   0  0  0  0  0  0  0  0  0  0  0  0
    0.4807    1.6021    1.2617 H   0  0  0  0  0  0  0  0  0  0  0  0
   -7.3129    0.5213    1.0750 H   0  0  0  0  0  0  0  0  0  0  0  0
   -5.7964    0.4036    1.9913 H   0  0  0  0  0  0  0  0  0  0  0  0
   -5.2821   -1.4917    0.6978 H   0  0  0  0  0  0  0  0  0  0  0  0
   -6.7525   -1.2214   -0.2533 H   0  0  0  0  0  0  0  0  0  0  0  0
   -1.5527   -2.8314   -1.6824 H   0  0  0  0  0  0  0  0  0  0  0  0
    3.3984   -1.6940    0.5229 H   0  0  0  0  0  0  0  0  0  0  0  0
    5.3479   -1.5659    1.8900 H   0  0  0  0  0  0  0  0  0  0  0  0
    5.0559    0.1414    2.2026 H   0  0  0  0  0  0  0  0  0  0  0  0
    7.2216   -1.7256   -2.5322 H   0  0  0  0  0  0  0  0  0  0  0  0
    7.5409    2.3281   -1.1494 H   0  0  0  0  0  0  0  0  0  0  0  0
  1  2  1  0
  2  3  1  0
  3  4  1  0
  4  5  1  0
  5  6  1  0
  1  6  1  0
  8  9  1  0
  9 10  1  0
  7 10  1  0
  5  8  1  0
  7  6  1  0
 12 13  2  0
 13 14  1  0
 11 14  1  0
  9 12  1  0
 11 10  2  0
  3 15  1  0
  1 16  1  0
 16 15  1  0
  7 17  2  0
 14 18  2  0
 11 19  1  0
 13 20  1  0
 20 21  1  0
 20 22  2  0
 21 23  1  0
 23 24  1  0
 25 26  2  0
 27 28  1  0
 28 29  2  0
 25 29  1  0
 26 24  1  0
 24 27  2  0
 26 30  1  0
 29 31  1  0
 27 32  1  0
  1 33  1  6
  2 34  1  0
  2 35  1  0
  3 36  1  6
  5 37  1  1
  8 38  1  0
  8 39  1  0
 12 40  1  0
 15 41  1  0
 15 42  1  0
 16 43  1  0
 16 44  1  0
 19 45  1  0
 21 46  1  0
 23 47  1  0
 23 48  1  0
 25 49  1  0
 28 50  1  0
M  END
$$$$
