
     RDKit          3D

106114  0  0  0  0  0  0  0  0999 V2000
   -0.2767   -0.7554   -0.6822 C   0  0  2  0  0  0  0  0  0  0  0  0
   -1.4353   -0.9433    0.2992 C   0  0  2  0  0  0  0  0  0  0  0  0
    0.7272   -1.9053   -0.8537 C   0  0  1  0  0  0  0  0  0  0  0  0
    2.0145   -1.2979   -1.1797 O   0  0  0  0  0  0  0  0  0  0  0  0
    0.6938    0.2323   -0.1176 C   0  0  0  0  0  0  0  0  0  0  0  0
   -2.0295    0.5007    0.5305 C   0  0  2  0  0  0  0  0  0  0  0  0
    1.9819   -0.1005   -0.4963 C   0  0  0  0  0  0  0  0  0  0  0  0
    0.4019    1.2972    0.7137 C   0  0  0  0  0  0  0  0  0  0  0  0
   -2.4179    1.1881   -0.7310 N   0  0  0  0  0  0  0  0  0  0  0  0
   -1.0029    1.4463    1.2398 C   0  0  0  0  0  0  0  0  0  0  0  0
   -0.7977   -0.2259   -2.0453 C   0  0  0  0  0  0  0  0  0  0  0  0
   -1.0044   -1.6582    1.5897 C   0  0  0  0  0  0  0  0  0  0  0  0
    0.8766   -2.7968    0.3950 C   0  0  0  0  0  0  0  0  0  0  0  0
    3.0576    0.6946   -0.1497 C   0  0  0  0  0  0  0  0  0  0  0  0
    1.4718    2.1067    1.0917 C   0  0  0  0  0  0  0  0  0  0  0  0
   -2.1860    0.4338   -1.9628 C   0  0  0  0  0  0  0  0  0  0  0  0
    2.7842    1.8192    0.6458 C   0  0  0  0  0  0  0  0  0  0  0  0
   -0.3444   -2.9944    1.2647 C   0  0  0  0  0  0  0  0  0  0  0  0
   -2.4180   -1.8153   -0.2927 O   0  0  0  0  0  0  0  0  0  0  0  0
    1.9154   -3.4088    0.6544 O   0  0  0  0  0  0  0  0  0  0  0  0
   -3.7705    1.7334   -0.6792 C   0  0  0  0  0  0  0  0  0  0  0  0
    4.2831    0.3025   -0.5993 O   0  0  0  0  0  0  0  0  0  0  0  0
    5.3989    1.0827   -0.1951 C   0  0  0  0  0  0  0  0  0  0  0  0
   -0.2966   -0.8584   -0.3500 C   0  0  2  0  0  0  0  0  0  0  0  0
   -1.6911   -0.4343    0.1160 C   0  0  2  0  0  0  0  0  0  0  0  0
    0.3568   -2.0607    0.3424 C   0  0  1  0  0  0  0  0  0  0  0  0
    1.8014   -1.8238    0.3201 O   0  0  0  0  0  0  0  0  0  0  0  0
    0.7051    0.1605    0.0721 C   0  0  0  0  0  0  0  0  0  0  0  0
   -1.9462    0.9790   -0.5298 C   0  0  2  0  0  0  0  0  0  0  0  0
    1.9036   -0.4503    0.3859 C   0  0  0  0  0  0  0  0  0  0  0  0
    0.4857    1.5199    0.1878 C   0  0  0  0  0  0  0  0  0  0  0  0
   -1.9223    0.9589   -2.0210 N   0  0  0  0  0  0  0  0  0  0  0  0
   -0.9118    2.0507   -0.0172 C   0  0  0  0  0  0  0  0  0  0  0  0
   -0.2837   -0.9847   -1.8923 C   0  0  0  0  0  0  0  0  0  0  0  0
   -1.8183   -0.4559    1.6480 C   0  0  0  0  0  0  0  0  0  0  0  0
   -0.0881   -2.2723    1.8028 C   0  0  0  0  0  0  0  0  0  0  0  0
    3.0070    0.2972    0.7487 C   0  0  0  0  0  0  0  0  0  0  0  0
    1.5787    2.2951    0.5674 C   0  0  0  0  0  0  0  0  0  0  0  0
   -0.7244    0.3162   -2.5853 C   0  0  0  0  0  0  0  0  0  0  0  0
    2.8324    1.6897    0.8276 C   0  0  0  0  0  0  0  0  0  0  0  0
   -1.4853   -1.8425    2.1907 C   0  0  0  0  0  0  0  0  0  0  0  0
   -2.6527   -1.3985   -0.3474 O   0  0  0  0  0  0  0  0  0  0  0  0
    0.6188   -2.8530    2.6310 O   0  0  0  0  0  0  0  0  0  0  0  0
   -3.1404    0.4406   -2.6361 C   0  0  0  0  0  0  0  0  0  0  0  0
    4.1553   -0.3886    1.0103 O   0  0  0  0  0  0  0  0  0  0  0  0
    5.2759    0.3684    1.4432 C   0  0  0  0  0  0  0  0  0  0  0  0
    2.8421   -0.3767    0.2509 C   0  0  0  0  0  0  0  0  0  0  0  0
   -2.8420    0.3769   -0.4255 C   0  0  0  0  0  0  0  0  0  0  0  0
   -1.3860    0.1606   -0.2422 C   0  0  0  0  0  0  0  0  0  0  0  0
    1.3859   -0.1604    0.0683 C   0  0  0  0  0  0  0  0  0  0  0  0
   -3.3626    1.3870   -0.8608 O   0  0  0  0  0  0  0  0  0  0  0  0
    3.3626   -1.3857    0.6888 O   0  0  0  0  0  0  0  0  0  0  0  0
    0.5112   -1.1961    0.4227 C   0  0  0  0  0  0  0  0  0  0  0  0
   -0.8699   -1.0372    0.2682 C   0  0  0  0  0  0  0  0  0  0  0  0
    0.8698    1.0373   -0.4424 C   0  0  0  0  0  0  0  0  0  0  0  0
   -0.5114    1.1965   -0.5962 C   0  0  0  0  0  0  0  0  0  0  0  0
    3.5777    0.6839   -0.1249 O   0  0  0  0  0  0  0  0  0  0  0  0
   -3.5779   -0.6856   -0.0559 O   0  0  0  0  0  0  0  0  0  0  0  0
    0.4416   -2.5727   -1.6756 H   0  0  0  0  0  0  0  0  0  0  0  0
   -2.9127    0.4021    1.1759 H   0  0  0  0  0  0  0  0  0  0  0  0
   -0.9906    1.2045    2.3102 H   0  0  0  0  0  0  0  0  0  0  0  0
   -1.3215    2.4932    1.1576 H   0  0  0  0  0  0  0  0  0  0  0  0
   -0.8803   -1.0550   -2.7601 H   0  0  0  0  0  0  0  0  0  0  0  0
   -0.0917    0.4885   -2.4900 H   0  0  0  0  0  0  0  0  0  0  0  0
   -0.3114   -1.0548    2.1849 H   0  0  0  0  0  0  0  0  0  0  0  0
   -1.8833   -1.8499    2.2177 H   0  0  0  0  0  0  0  0  0  0  0  0
    1.3080    2.9630    1.7421 H   0  0  0  0  0  0  0  0  0  0  0  0
   -2.9611   -0.3308   -2.0997 H   0  0  0  0  0  0  0  0  0  0  0  0
   -2.2868    1.1063   -2.8245 H   0  0  0  0  0  0  0  0  0  0  0  0
    3.5779    2.4885    0.9639 H   0  0  0  0  0  0  0  0  0  0  0  0
   -0.0334   -3.4780    2.1976 H   0  0  0  0  0  0  0  0  0  0  0  0
   -1.0287   -3.6769    0.7503 H   0  0  0  0  0  0  0  0  0  0  0  0
   -3.2919   -1.5548    0.0515 H   0  0  0  0  0  0  0  0  0  0  0  0
   -4.5256    0.9423   -0.6120 H   0  0  0  0  0  0  0  0  0  0  0  0
   -3.9797    2.3368   -1.5693 H   0  0  0  0  0  0  0  0  0  0  0  0
   -3.8865    2.3980    0.1844 H   0  0  0  0  0  0  0  0  0  0  0  0
    6.2980    0.6305   -0.6241 H   0  0  0  0  0  0  0  0  0  0  0  0
    5.5107    1.0778    0.8940 H   0  0  0  0  0  0  0  0  0  0  0  0
    5.3256    2.1053   -0.5801 H   0  0  0  0  0  0  0  0  0  0  0  0
    0.1485   -2.9946   -0.1928 H   0  0  0  0  0  0  0  0  0  0  0  0
   -2.9397    1.3370   -0.2284 H   0  0  0  0  0  0  0  0  0  0  0  0
   -1.2677    2.4278    0.9504 H   0  0  0  0  0  0  0  0  0  0  0  0
   -0.8860    2.9091   -0.6998 H   0  0  0  0  0  0  0  0  0  0  0  0
   -0.9468   -1.8028   -2.2020 H   0  0  0  0  0  0  0  0  0  0  0  0
    0.7168   -1.2492   -2.2599 H   0  0  0  0  0  0  0  0  0  0  0  0
   -1.1693    0.2839    2.1282 H   0  0  0  0  0  0  0  0  0  0  0  0
   -2.8480   -0.2112    1.9371 H   0  0  0  0  0  0  0  0  0  0  0  0
    1.4774    3.3730    0.6746 H   0  0  0  0  0  0  0  0  0  0  0  0
   -0.8566    0.1254   -3.6584 H   0  0  0  0  0  0  0  0  0  0  0  0
    0.0987    1.0399   -2.5453 H   0  0  0  0  0  0  0  0  0  0  0  0
    3.6522    2.3424    1.1124 H   0  0  0  0  0  0  0  0  0  0  0  0
   -1.5521   -1.8231    3.2846 H   0  0  0  0  0  0  0  0  0  0  0  0
   -2.1886   -2.6009    1.8320 H   0  0  0  0  0  0  0  0  0  0  0  0
   -3.5363   -0.9972   -0.2648 H   0  0  0  0  0  0  0  0  0  0  0  0
   -4.0322    0.8914   -2.1878 H   0  0  0  0  0  0  0  0  0  0  0  0
   -3.2308   -0.6471   -2.5761 H   0  0  0  0  0  0  0  0  0  0  0  0
   -3.1635    0.7115   -3.6978 H   0  0  0  0  0  0  0  0  0  0  0  0
    5.6004    1.0709    0.6687 H   0  0  0  0  0  0  0  0  0  0  0  0
    6.1003   -0.3272    1.6268 H   0  0  0  0  0  0  0  0  0  0  0  0
    5.0635    0.8877    2.3834 H   0  0  0  0  0  0  0  0  0  0  0  0
    0.9017   -2.1314    0.8206 H   0  0  0  0  0  0  0  0  0  0  0  0
   -1.5320   -1.8530    0.5492 H   0  0  0  0  0  0  0  0  0  0  0  0
    1.5324    1.8530   -0.7227 H   0  0  0  0  0  0  0  0  0  0  0  0
   -0.9018    2.1318   -0.9943 H   0  0  0  0  0  0  0  0  0  0  0  0
    4.5011    0.4044    0.0492 H   0  0  0  0  0  0  0  0  0  0  0  0
   -4.5010   -0.4053   -0.2301 H   0  0  0  0  0  0  0  0  0  0  0  0
 14  7  2  0
 15  8  1  0
 16 11  1  0
 17 15  2  0
 18 13  1  0
  2 19  1  6
 20 13  2  0
 21  9  1  0
  4  7  1  0
 16  9  1  0
  6 10  1  0
 18 12  1  0
 17 14  1  0
 14 22  1  0
 22 23  1  0
  2  1  1  0
  3  1  1  0
  3  4  1  0
  5  1  1  0
  6  2  1  0
  7  5  1  0
  8  5  2  0
  6  9  1  0
 10  8  1  0
  1 11  1  6
 12  2  1  0
 13  3  1  0
 37 30  2  0
 38 31  1  0
 39 34  1  0
 40 38  2  0
 41 36  1  0
 25 42  1  6
 43 36  2  0
 44 32  1  0
 27 30  1  0
 39 32  1  0
 29 33  1  0
 41 35  1  0
 40 37  1  0
 37 45  1  0
 45 46  1  0
 25 24  1  0
 26 24  1  0
 26 27  1  0
 28 24  1  0
 29 25  1  0
 30 28  1  0
 31 28  2  0
 29 32  1  0
 33 31  1  0
 24 34  1  6
 35 25  1  0
 36 26  1  0
 48 49  1  0
 49 56  2  0
 50 47  1  0
 51 48  2  0
 52 47  2  0
 53 50  1  0
 54 53  2  0
 55 50  2  0
 56 55  1  0
 57 47  1  0
 58 48  1  0
 49 54  1  0
  3 59  1  6
  6 60  1  1
 10 61  1  0
 10 62  1  0
 11 63  1  0
 11 64  1  0
 12 65  1  0
 12 66  1  0
 15 67  1  0
 16 68  1  0
 16 69  1  0
 17 70  1  0
 18 71  1  0
 18 72  1  0
 19 73  1  0
 21 74  1  0
 21 75  1  0
 21 76  1  0
 23 77  1  0
 23 78  1  0
 23 79  1  0
 26 80  1  6
 29 81  1  6
 33 82  1  0
 33 83  1  0
 34 84  1  0
 34 85  1  0
 35 86  1  0
 35 87  1  0
 38 88  1  0
 39 89  1  0
 39 90  1  0
 40 91  1  0
 41 92  1  0
 41 93  1  0
 42 94  1  0
 44 95  1  0
 44 96  1  0
 44 97  1  0
 46 98  1  0
 46 99  1  0
 46100  1  0
 53101  1  0
 54102  1  0
 55103  1  0
 56104  1  0
 57105  1  0
 58106  1  0
M  END
$$$$
