
     RDKit          3D

106114  0  0  0  0  0  0  0  0999 V2000
   -0.2623    0.6977    0.8398 C   0  0  2  0  0  0  0  0  0  0  0  0
   -1.3822    1.2378   -0.0583 C   0  0  2  0  0  0  0  0  0  0  0  0
    0.8393    1.6710    1.2776 C   0  0  1  0  0  0  0  0  0  0  0  0
    2.0646    0.8831    1.4177 O   0  0  0  0  0  0  0  0  0  0  0  0
    0.6060   -0.2249    0.0577 C   0  0  0  0  0  0  0  0  0  0  0  0
   -2.1468   -0.0153   -0.6131 C   0  0  2  0  0  0  0  0  0  0  0  0
    1.9183   -0.1138    0.4766 C   0  0  0  0  0  0  0  0  0  0  0  0
    0.1986   -1.0537   -0.9682 C   0  0  0  0  0  0  0  0  0  0  0  0
   -2.8238   -0.6325    0.5721 N   0  0  0  0  0  0  0  0  0  0  0  0
   -1.2234   -0.9627   -1.4573 C   0  0  0  0  0  0  0  0  0  0  0  0
   -0.8678   -0.0803    2.0331 C   0  0  0  0  0  0  0  0  0  0  0  0
   -0.8633    2.1906   -1.1398 C   0  0  0  0  0  0  0  0  0  0  0  0
    1.0910    2.8250    0.2889 C   0  0  0  0  0  0  0  0  0  0  0  0
    2.9060   -0.9143   -0.0632 C   0  0  0  0  0  0  0  0  0  0  0  0
    1.1784   -1.8648   -1.5365 C   0  0  0  0  0  0  0  0  0  0  0  0
   -1.8788   -1.1469    1.5777 C   0  0  0  0  0  0  0  0  0  0  0  0
    2.5160   -1.8072   -1.0754 C   0  0  0  0  0  0  0  0  0  0  0  0
   -0.0865    3.3394   -0.5067 C   0  0  0  0  0  0  0  0  0  0  0  0
   -2.2999    2.0139    0.7410 O   0  0  0  0  0  0  0  0  0  0  0  0
    2.1866    3.3830    0.1885 O   0  0  0  0  0  0  0  0  0  0  0  0
   -3.7923   -1.6617    0.1966 C   0  0  0  0  0  0  0  0  0  0  0  0
    4.1662   -0.7574    0.4310 O   0  0  0  0  0  0  0  0  0  0  0  0
    5.2133   -1.4435   -0.2403 C   0  0  0  0  0  0  0  0  0  0  0  0
   -0.2960   -0.5457   -0.7648 C   0  0  2  0  0  0  0  0  0  0  0  0
   -1.5152   -0.8743    0.0992 C   0  0  2  0  0  0  0  0  0  0  0  0
    0.6295   -1.6961   -1.1884 C   0  0  1  0  0  0  0  0  0  0  0  0
    1.9742   -1.1384   -1.3043 O   0  0  0  0  0  0  0  0  0  0  0  0
    0.7129    0.1845    0.0635 C   0  0  0  0  0  0  0  0  0  0  0  0
   -2.0141    0.5111    0.6678 C   0  0  2  0  0  0  0  0  0  0  0  0
    1.9920   -0.1505   -0.3425 C   0  0  0  0  0  0  0  0  0  0  0  0
    0.4552    1.0306    1.1258 C   0  0  0  0  0  0  0  0  0  0  0  0
   -2.2826    1.5213   -0.3912 N   0  0  0  0  0  0  0  0  0  0  0  0
   -0.9609    1.1610    1.6264 C   0  0  0  0  0  0  0  0  0  0  0  0
   -0.7046    0.3488   -1.9665 C   0  0  0  0  0  0  0  0  0  0  0  0
   -1.2052   -1.9221    1.1802 C   0  0  0  0  0  0  0  0  0  0  0  0
    0.6459   -2.8840   -0.2062 C   0  0  0  0  0  0  0  0  0  0  0  0
    3.1021    0.4438    0.2275 C   0  0  0  0  0  0  0  0  0  0  0  0
    1.5588    1.6294    1.7313 C   0  0  0  0  0  0  0  0  0  0  0  0
   -2.0432    1.0807   -1.7650 C   0  0  0  0  0  0  0  0  0  0  0  0
    2.8685    1.3542    1.2710 C   0  0  0  0  0  0  0  0  0  0  0  0
   -0.6281   -3.1862    0.5503 C   0  0  0  0  0  0  0  0  0  0  0  0
   -2.5260   -1.4857   -0.7257 O   0  0  0  0  0  0  0  0  0  0  0  0
    1.6179   -3.6340   -0.0874 O   0  0  0  0  0  0  0  0  0  0  0  0
   -3.5906    2.1519   -0.2491 C   0  0  0  0  0  0  0  0  0  0  0  0
    4.3185    0.0752   -0.2650 O   0  0  0  0  0  0  0  0  0  0  0  0
    5.4627    0.6736    0.3250 C   0  0  0  0  0  0  0  0  0  0  0  0
   -2.7970    0.7117    0.1135 C   0  0  0  0  0  0  0  0  0  0  0  0
    2.7971   -0.7115    0.2151 C   0  0  0  0  0  0  0  0  0  0  0  0
    1.3662   -0.3230    0.1858 C   0  0  0  0  0  0  0  0  0  0  0  0
   -1.3659    0.3228    0.1470 C   0  0  0  0  0  0  0  0  0  0  0  0
    3.2264   -1.8337    0.4076 O   0  0  0  0  0  0  0  0  0  0  0  0
   -3.2258    1.8337   -0.0811 O   0  0  0  0  0  0  0  0  0  0  0  0
   -0.9590   -0.9980    0.3750 C   0  0  0  0  0  0  0  0  0  0  0  0
    0.4027   -1.3186    0.3939 C   0  0  0  0  0  0  0  0  0  0  0  0
   -0.4023    1.3184   -0.0622 C   0  0  0  0  0  0  0  0  0  0  0  0
    0.9589    0.9971   -0.0437 C   0  0  0  0  0  0  0  0  0  0  0  0
   -3.6236   -0.3267    0.3273 O   0  0  0  0  0  0  0  0  0  0  0  0
    3.6229    0.3282    0.0047 O   0  0  0  0  0  0  0  0  0  0  0  0
    0.6086    2.1285    2.2468 H   0  0  0  0  0  0  0  0  0  0  0  0
   -2.9507    0.3464   -1.2686 H   0  0  0  0  0  0  0  0  0  0  0  0
   -1.1884   -0.5638   -2.4797 H   0  0  0  0  0  0  0  0  0  0  0  0
   -1.6510   -1.9673   -1.5309 H   0  0  0  0  0  0  0  0  0  0  0  0
   -0.0889   -0.5696    2.6328 H   0  0  0  0  0  0  0  0  0  0  0  0
   -1.3720    0.6232    2.7087 H   0  0  0  0  0  0  0  0  0  0  0  0
   -0.2237    1.6740   -1.8636 H   0  0  0  0  0  0  0  0  0  0  0  0
   -1.7078    2.6121   -1.6990 H   0  0  0  0  0  0  0  0  0  0  0  0
    0.9278   -2.5424   -2.3498 H   0  0  0  0  0  0  0  0  0  0  0  0
   -1.3476   -2.0299    1.2018 H   0  0  0  0  0  0  0  0  0  0  0  0
   -2.4348   -1.4774    2.4640 H   0  0  0  0  0  0  0  0  0  0  0  0
    3.2372   -2.4683   -1.5468 H   0  0  0  0  0  0  0  0  0  0  0  0
    0.2882    3.9985   -1.2979 H   0  0  0  0  0  0  0  0  0  0  0  0
   -0.7138    3.9421    0.1576 H   0  0  0  0  0  0  0  0  0  0  0  0
   -2.9623    1.3651    1.0668 H   0  0  0  0  0  0  0  0  0  0  0  0
   -3.3209   -2.5592   -0.2159 H   0  0  0  0  0  0  0  0  0  0  0  0
   -4.3801   -1.9628    1.0713 H   0  0  0  0  0  0  0  0  0  0  0  0
   -4.5060   -1.2740   -0.5381 H   0  0  0  0  0  0  0  0  0  0  0  0
    6.1589   -1.1536    0.2282 H   0  0  0  0  0  0  0  0  0  0  0  0
    5.1062   -2.5275   -0.1308 H   0  0  0  0  0  0  0  0  0  0  0  0
    5.2640   -1.1566   -1.2961 H   0  0  0  0  0  0  0  0  0  0  0  0
    0.3426   -2.1080   -2.1633 H   0  0  0  0  0  0  0  0  0  0  0  0
   -2.9356    0.3298    1.2371 H   0  0  0  0  0  0  0  0  0  0  0  0
   -1.0218    0.6600    2.6007 H   0  0  0  0  0  0  0  0  0  0  0  0
   -1.1976    2.2184    1.8006 H   0  0  0  0  0  0  0  0  0  0  0  0
   -0.8098   -0.2656   -2.8700 H   0  0  0  0  0  0  0  0  0  0  0  0
    0.0739    1.0898   -2.1923 H   0  0  0  0  0  0  0  0  0  0  0  0
   -2.1272   -2.1906    1.7110 H   0  0  0  0  0  0  0  0  0  0  0  0
   -0.5019   -1.5462    1.9301 H   0  0  0  0  0  0  0  0  0  0  0  0
    1.4236    2.3069    2.5716 H   0  0  0  0  0  0  0  0  0  0  0  0
   -2.8639    0.4424   -2.1151 H   0  0  0  0  0  0  0  0  0  0  0  0
   -2.0492    1.9524   -2.4319 H   0  0  0  0  0  0  0  0  0  0  0  0
    3.6912    1.8531    1.7743 H   0  0  0  0  0  0  0  0  0  0  0  0
   -0.3998   -3.9099    1.3410 H   0  0  0  0  0  0  0  0  0  0  0  0
   -1.3342   -3.6614   -0.1387 H   0  0  0  0  0  0  0  0  0  0  0  0
   -3.3951   -1.2704   -0.3406 H   0  0  0  0  0  0  0  0  0  0  0  0
   -4.4060    1.4380   -0.4082 H   0  0  0  0  0  0  0  0  0  0  0  0
   -3.7028    2.5894    0.7488 H   0  0  0  0  0  0  0  0  0  0  0  0
   -3.7058    2.9728   -0.9651 H   0  0  0  0  0  0  0  0  0  0  0  0
    5.4576    1.7594    0.1842 H   0  0  0  0  0  0  0  0  0  0  0  0
    5.5425    0.4130    1.3852 H   0  0  0  0  0  0  0  0  0  0  0  0
    6.3477    0.2775   -0.1819 H   0  0  0  0  0  0  0  0  0  0  0  0
   -1.6920   -1.7848    0.5396 H   0  0  0  0  0  0  0  0  0  0  0  0
    0.7077   -2.3485    0.5722 H   0  0  0  0  0  0  0  0  0  0  0  0
   -0.7066    2.3488   -0.2397 H   0  0  0  0  0  0  0  0  0  0  0  0
    1.6916    1.7837   -0.2092 H   0  0  0  0  0  0  0  0  0  0  0  0
   -4.5191    0.0691    0.2794 H   0  0  0  0  0  0  0  0  0  0  0  0
    4.5180   -0.0687    0.0515 H   0  0  0  0  0  0  0  0  0  0  0  0
 14  7  2  0
 15  8  1  0
 16 11  1  0
 17 15  2  0
 18 13  1  0
  2 19  1  1
 20 13  2  0
 21  9  1  0
  4  7  1  0
 16  9  1  0
  6 10  1  0
 18 12  1  0
 17 14  1  0
 14 22  1  0
 22 23  1  0
  2  1  1  0
  3  1  1  0
  3  4  1  0
  5  1  1  0
  6  2  1  0
  7  5  1  0
  8  5  2  0
  6  9  1  0
 10  8  1  0
  1 11  1  1
 12  2  1  0
 13  3  1  0
 37 30  2  0
 38 31  1  0
 39 34  1  0
 40 38  2  0
 41 36  1  0
 25 42  1  6
 43 36  2  0
 44 32  1  0
 27 30  1  0
 39 32  1  0
 29 33  1  0
 41 35  1  0
 40 37  1  0
 37 45  1  0
 45 46  1  0
 25 24  1  0
 26 24  1  0
 26 27  1  0
 28 24  1  0
 29 25  1  0
 30 28  1  0
 31 28  2  0
 29 32  1  0
 33 31  1  0
 24 34  1  6
 35 25  1  0
 36 26  1  0
 48 49  1  0
 49 56  2  0
 50 47  1  0
 51 48  2  0
 52 47  2  0
 53 50  1  0
 54 53  2  0
 55 50  2  0
 56 55  1  0
 57 47  1  0
 58 48  1  0
 49 54  1  0
  3 59  1  1
  6 60  1  6
 10 61  1  0
 10 62  1  0
 11 63  1  0
 11 64  1  0
 12 65  1  0
 12 66  1  0
 15 67  1  0
 16 68  1  0
 16 69  1  0
 17 70  1  0
 18 71  1  0
 18 72  1  0
 19 73  1  0
 21 74  1  0
 21 75  1  0
 21 76  1  0
 23 77  1  0
 23 78  1  0
 23 79  1  0
 26 80  1  6
 29 81  1  1
 33 82  1  0
 33 83  1  0
 34 84  1  0
 34 85  1  0
 35 86  1  0
 35 87  1  0
 38 88  1  0
 39 89  1  0
 39 90  1  0
 40 91  1  0
 41 92  1  0
 41 93  1  0
 42 94  1  0
 44 95  1  0
 44 96  1  0
 44 97  1  0
 46 98  1  0
 46 99  1  0
 46100  1  0
 53101  1  0
 54102  1  0
 55103  1  0
 56104  1  0
 57105  1  0
 58106  1  0
M  END
$$$$
