
     RDKit          3D

 58 66  0  0  0  0  0  0  0  0999 V2000
   -0.4308    0.2653    0.8985 C   0  0  2  0  0  0  0  0  0  0  0  0
   -1.7149    0.5854    0.2252 C   0  0  2  0  0  0  0  0  0  0  0  0
    0.4444    1.4136    1.2755 C   0  0  1  0  0  0  0  0  0  0  0  0
    1.7589    0.8680    1.0552 O   0  0  0  0  0  0  0  0  0  0  0  0
    0.4105   -0.3858   -0.1465 C   0  0  0  0  0  0  0  0  0  0  0  0
   -2.3193   -0.7286   -0.1848 C   0  0  2  0  0  0  0  0  0  0  0  0
    1.7116   -0.0040   -0.0221 C   0  0  0  0  0  0  0  0  0  0  0  0
   -0.0680   -1.2436   -1.0902 C   0  0  0  0  0  0  0  0  0  0  0  0
   -2.8014   -1.3901    0.9823 N   0  0  0  0  0  0  0  0  0  0  0  0
   -1.5180   -1.5646   -1.1044 C   0  0  0  0  0  0  0  0  0  0  0  0
   -0.6276   -0.7478    1.9881 C   0  0  0  0  0  0  0  0  0  0  0  0
   -1.5664    1.4604   -0.9698 C   0  0  0  0  0  0  0  0  0  0  0  0
    0.1786    2.5921    0.4210 C   0  0  0  0  0  0  0  0  0  0  0  0
    2.6191   -0.5284   -0.9244 C   0  0  0  0  0  0  0  0  0  0  0  0
    0.8304   -1.7701   -1.9927 C   0  0  0  0  0  0  0  0  0  0  0  0
   -2.0271   -1.2281    2.1595 C   0  0  0  0  0  0  0  0  0  0  0  0
    2.1636   -1.4033   -1.8954 C   0  0  0  0  0  0  0  0  0  0  0  0
   -0.4628    2.4614   -0.9126 C   0  0  0  0  0  0  0  0  0  0  0  0
   -2.6171    1.1669    1.1225 O   0  0  0  0  0  0  0  0  0  0  0  0
    0.5165    3.6866    0.8722 O   0  0  0  0  0  0  0  0  0  0  0  0
   -3.3517   -2.6878    0.7781 C   0  0  0  0  0  0  0  0  0  0  0  0
    3.9527   -0.1518   -0.8151 O   0  0  0  0  0  0  0  0  0  0  0  0
    4.9185   -0.6658   -1.7201 C   0  0  0  0  0  0  0  0  0  0  0  0
   -0.6587    0.6150    0.5808 C   0  0  2  0  0  0  0  0  0  0  0  0
   -1.7553    0.7499   -0.4405 C   0  0  2  0  0  0  0  0  0  0  0  0
    0.2183    1.8086    0.7685 C   0  0  1  0  0  0  0  0  0  0  0  0
    1.4171    1.1666    1.2560 O   0  0  0  0  0  0  0  0  0  0  0  0
    0.3385   -0.3726    0.1010 C   0  0  0  0  0  0  0  0  0  0  0  0
   -2.3117   -0.6266   -0.6209 C   0  0  2  0  0  0  0  0  0  0  0  0
    1.5720   -0.0045    0.5318 C   0  0  0  0  0  0  0  0  0  0  0  0
    0.0294   -1.4637   -0.6480 C   0  0  0  0  0  0  0  0  0  0  0  0
   -3.1106   -0.9465    0.5257 N   0  0  0  0  0  0  0  0  0  0  0  0
   -1.3727   -1.6917   -1.0315 C   0  0  0  0  0  0  0  0  0  0  0  0
   -1.2747    0.0668    1.8238 C   0  0  0  0  0  0  0  0  0  0  0  0
   -1.2999    1.3939   -1.7195 C   0  0  0  0  0  0  0  0  0  0  0  0
    0.6018    2.3289   -0.5886 C   0  0  0  0  0  0  0  0  0  0  0  0
    2.6310   -0.8289    0.1713 C   0  0  0  0  0  0  0  0  0  0  0  0
    1.0790   -2.2903   -1.0114 C   0  0  0  0  0  0  0  0  0  0  0  0
   -2.6980   -0.3277    1.7396 C   0  0  0  0  0  0  0  0  0  0  0  0
    2.3724   -1.9562   -0.5921 C   0  0  0  0  0  0  0  0  0  0  0  0
    0.1995    1.5335   -1.7907 C   0  0  0  0  0  0  0  0  0  0  0  0
   -2.7559    1.5398    0.1244 O   0  0  0  0  0  0  0  0  0  0  0  0
    1.2294    3.3795   -0.7143 O   0  0  0  0  0  0  0  0  0  0  0  0
   -3.3920   -2.3556    0.6480 C   0  0  0  0  0  0  0  0  0  0  0  0
    3.8981   -0.4761    0.5982 O   0  0  0  0  0  0  0  0  0  0  0  0
    5.0429   -1.2423    0.2885 C   0  0  0  0  0  0  0  0  0  0  0  0
   -2.8128   -0.1906    0.3223 C   0  0  0  0  0  0  0  0  0  0  0  0
    2.8136    0.1760   -0.3611 C   0  0  0  0  0  0  0  0  0  0  0  0
    1.3537    0.0869   -0.1538 C   0  0  0  0  0  0  0  0  0  0  0  0
   -1.3576   -0.0895    0.1772 C   0  0  0  0  0  0  0  0  0  0  0  0
    3.3271   -0.0055   -1.5048 O   0  0  0  0  0  0  0  0  0  0  0  0
   -3.5744   -0.4518   -0.6497 O   0  0  0  0  0  0  0  0  0  0  0  0
   -0.5552    0.1937    1.2412 C   0  0  0  0  0  0  0  0  0  0  0  0
    0.8157    0.2916    1.1180 C   0  0  0  0  0  0  0  0  0  0  0  0
   -0.8158   -0.2902   -1.0762 C   0  0  0  0  0  0  0  0  0  0  0  0
    0.5486   -0.2004   -1.2374 C   0  0  0  0  0  0  0  0  0  0  0  0
   -3.3694    0.0130    1.5969 O   0  0  0  0  0  0  0  0  0  0  0  0
    3.6264    0.4667    0.7359 O   0  0  0  0  0  0  0  0  0  0  0  0
 14  7  2  0
 15  8  1  0
 16 11  1  0
 17 15  2  0
 18 13  1  0
  2 19  1  1
 20 13  2  0
 21  9  1  0
  4  7  1  0
 16  9  1  0
  6 10  1  1
 18 12  1  0
 17 14  1  0
 14 22  1  0
 22 23  1  0
  2  1  1  0
  3  1  1  0
  3  4  1  6
  5  1  1  0
  6  2  1  0
  7  5  1  0
  8  5  2  0
  6  9  1  0
 10  8  1  0
  1 11  1  1
 12  2  1  0
 13  3  1  0
 37 30  2  0
 38 31  1  0
 39 34  1  0
 40 38  2  0
 41 36  1  0
 25 42  1  1
 43 36  2  0
 44 32  1  0
 27 30  1  0
 39 32  1  0
 29 33  1  1
 41 35  1  0
 40 37  1  0
 37 45  1  0
 45 46  1  0
 25 24  1  0
 26 24  1  0
 26 27  1  1
 28 24  1  0
 29 25  1  0
 30 28  1  0
 31 28  2  0
 29 32  1  0
 33 31  1  0
 24 34  1  1
 35 25  1  0
 36 26  1  0
 48 49  1  0
 49 56  2  0
 50 47  1  0
 51 48  2  0
 52 47  2  0
 53 50  1  0
 54 53  2  0
 55 50  2  0
 56 55  1  0
 57 47  1  0
 58 48  1  0
 49 54  1  0
M  END
