
     RDKit          3D

106114  0  0  0  0  0  0  0  0999 V2000
    0.6727    0.5324   -0.6007 C   0  0  2  0  0  0  0  0  0  0  0  0
    0.5609    1.6370    0.4542 C   0  0  2  0  0  0  0  0  0  0  0  0
    0.1753    0.8321   -2.0245 C   0  0  1  0  0  0  0  0  0  0  0  0
   -0.3003   -0.4297   -2.5819 O   0  0  0  0  0  0  0  0  0  0  0  0
   -0.3350   -0.5360   -0.3027 C   0  0  0  0  0  0  0  0  0  0  0  0
    0.7681    0.9138    1.8353 C   0  0  2  0  0  0  0  0  0  0  0  0
   -0.8046   -1.0905   -1.4798 C   0  0  0  0  0  0  0  0  0  0  0  0
   -0.8047   -0.9053    0.9445 C   0  0  0  0  0  0  0  0  0  0  0  0
    2.0163    0.1043    1.9220 N   0  0  0  0  0  0  0  0  0  0  0  0
   -0.3974   -0.0872    2.1451 C   0  0  0  0  0  0  0  0  0  0  0  0
    2.0791   -0.1168   -0.6055 C   0  0  0  0  0  0  0  0  0  0  0  0
   -0.7764    2.3955    0.3496 C   0  0  0  0  0  0  0  0  0  0  0  0
   -0.9578    1.8786   -2.0918 C   0  0  0  0  0  0  0  0  0  0  0  0
   -1.7032   -2.1416   -1.4706 C   0  0  0  0  0  0  0  0  0  0  0  0
   -1.7233   -1.9536    0.9836 C   0  0  0  0  0  0  0  0  0  0  0  0
    2.8428   -0.0144    0.7275 C   0  0  0  0  0  0  0  0  0  0  0  0
   -2.1513   -2.5784   -0.2121 C   0  0  0  0  0  0  0  0  0  0  0  0
   -0.9599    2.9758   -1.0517 C   0  0  0  0  0  0  0  0  0  0  0  0
    1.5327    2.6790    0.2636 O   0  0  0  0  0  0  0  0  0  0  0  0
   -1.7970    1.8890   -2.9960 O   0  0  0  0  0  0  0  0  0  0  0  0
    2.8066    0.4209    3.1092 C   0  0  0  0  0  0  0  0  0  0  0  0
   -2.0771   -2.6430   -2.6822 O   0  0  0  0  0  0  0  0  0  0  0  0
   -3.0010   -3.7253   -2.6746 C   0  0  0  0  0  0  0  0  0  0  0  0
   -0.4429    0.8052    0.6438 C   0  0  2  0  0  0  0  0  0  0  0  0
   -1.6027    0.8827   -0.3565 C   0  0  2  0  0  0  0  0  0  0  0  0
    0.4079    2.0634    0.8490 C   0  0  1  0  0  0  0  0  0  0  0  0
    1.7579    1.6090    1.1827 O   0  0  0  0  0  0  0  0  0  0  0  0
    0.6413   -0.0612    0.1014 C   0  0  0  0  0  0  0  0  0  0  0  0
   -2.0629   -0.5974   -0.6082 C   0  0  2  0  0  0  0  0  0  0  0  0
    1.8766    0.4148    0.5030 C   0  0  0  0  0  0  0  0  0  0  0  0
    0.4664   -1.1736   -0.6962 C   0  0  0  0  0  0  0  0  0  0  0  0
   -2.6650   -1.0572    0.6869 N   0  0  0  0  0  0  0  0  0  0  0  0
   -0.9155   -1.4929   -1.2082 C   0  0  0  0  0  0  0  0  0  0  0  0
   -0.9379    0.2078    1.9857 C   0  0  0  0  0  0  0  0  0  0  0  0
   -1.2408    1.6579   -1.6245 C   0  0  0  0  0  0  0  0  0  0  0  0
    0.4703    2.9869   -0.3854 C   0  0  0  0  0  0  0  0  0  0  0  0
    3.0336   -0.2711    0.1903 C   0  0  0  0  0  0  0  0  0  0  0  0
    1.6218   -1.8715   -1.0421 C   0  0  0  0  0  0  0  0  0  0  0  0
   -1.6826   -1.1250    1.7816 C   0  0  0  0  0  0  0  0  0  0  0  0
    2.8917   -1.4326   -0.5884 C   0  0  0  0  0  0  0  0  0  0  0  0
   -0.7509    3.0577   -1.2737 C   0  0  0  0  0  0  0  0  0  0  0  0
   -2.6983    1.6075    0.2442 O   0  0  0  0  0  0  0  0  0  0  0  0
    1.4320    3.7251   -0.6139 O   0  0  0  0  0  0  0  0  0  0  0  0
   -3.3809   -2.3277    0.5624 C   0  0  0  0  0  0  0  0  0  0  0  0
    4.2077    0.2505    0.6460 O   0  0  0  0  0  0  0  0  0  0  0  0
    5.4065   -0.3908    0.2363 C   0  0  0  0  0  0  0  0  0  0  0  0
   -2.8369   -0.5065    0.1562 C   0  0  0  0  0  0  0  0  0  0  0  0
    2.8368    0.5067   -0.2375 C   0  0  0  0  0  0  0  0  0  0  0  0
    1.3853    0.2240   -0.1253 C   0  0  0  0  0  0  0  0  0  0  0  0
   -1.3842   -0.2244    0.0418 C   0  0  0  0  0  0  0  0  0  0  0  0
    3.3368    1.6057   -0.3824 O   0  0  0  0  0  0  0  0  0  0  0  0
   -3.3387   -1.6059    0.2930 O   0  0  0  0  0  0  0  0  0  0  0  0
   -0.8880    1.0793   -0.0945 C   0  0  0  0  0  0  0  0  0  0  0  0
    0.4900    1.3012   -0.1784 C   0  0  0  0  0  0  0  0  0  0  0  0
   -0.4898   -1.3031    0.0906 C   0  0  0  0  0  0  0  0  0  0  0  0
    0.8898   -1.0789    0.0195 C   0  0  0  0  0  0  0  0  0  0  0  0
   -3.5897    0.6071    0.1022 O   0  0  0  0  0  0  0  0  0  0  0  0
    3.5916   -0.6056   -0.1857 O   0  0  0  0  0  0  0  0  0  0  0  0
    0.9795    1.2084   -2.6679 H   0  0  0  0  0  0  0  0  0  0  0  0
    0.7804    1.6855    2.6158 H   0  0  0  0  0  0  0  0  0  0  0  0
   -0.1221   -0.7515    2.9756 H   0  0  0  0  0  0  0  0  0  0  0  0
   -1.2738    0.4899    2.4738 H   0  0  0  0  0  0  0  0  0  0  0  0
    2.0209   -1.1756   -0.8912 H   0  0  0  0  0  0  0  0  0  0  0  0
    2.6979    0.3600   -1.3771 H   0  0  0  0  0  0  0  0  0  0  0  0
   -0.7908    3.2219    1.0680 H   0  0  0  0  0  0  0  0  0  0  0  0
   -1.6366    1.7621    0.5802 H   0  0  0  0  0  0  0  0  0  0  0  0
   -2.1378   -2.2886    1.9332 H   0  0  0  0  0  0  0  0  0  0  0  0
    3.4687   -0.9137    0.8222 H   0  0  0  0  0  0  0  0  0  0  0  0
    3.5580    0.8165    0.6683 H   0  0  0  0  0  0  0  0  0  0  0  0
   -2.8639   -3.3941   -0.1201 H   0  0  0  0  0  0  0  0  0  0  0  0
   -1.9213    3.4990   -1.0982 H   0  0  0  0  0  0  0  0  0  0  0  0
   -0.1725    3.6948   -1.3023 H   0  0  0  0  0  0  0  0  0  0  0  0
    2.4284    2.2969    0.1673 H   0  0  0  0  0  0  0  0  0  0  0  0
    3.1772    1.4525    3.0813 H   0  0  0  0  0  0  0  0  0  0  0  0
    2.2029    0.2913    4.0158 H   0  0  0  0  0  0  0  0  0  0  0  0
    3.6677   -0.2513    3.2062 H   0  0  0  0  0  0  0  0  0  0  0  0
   -3.1598   -4.0335   -3.7112 H   0  0  0  0  0  0  0  0  0  0  0  0
   -3.9715   -3.4185   -2.2655 H   0  0  0  0  0  0  0  0  0  0  0  0
   -2.5972   -4.5887   -2.1347 H   0  0  0  0  0  0  0  0  0  0  0  0
    0.0319    2.6729    1.6811 H   0  0  0  0  0  0  0  0  0  0  0  0
   -2.8885   -0.5750   -1.3326 H   0  0  0  0  0  0  0  0  0  0  0  0
   -1.1200   -2.5580   -1.0590 H   0  0  0  0  0  0  0  0  0  0  0  0
   -0.9019   -1.3295   -2.2962 H   0  0  0  0  0  0  0  0  0  0  0  0
   -1.6116    0.9216    2.4837 H   0  0  0  0  0  0  0  0  0  0  0  0
   -0.1058    0.0394    2.6834 H   0  0  0  0  0  0  0  0  0  0  0  0
   -0.4796    1.1390   -2.2148 H   0  0  0  0  0  0  0  0  0  0  0  0
   -2.1259    1.7553   -2.2613 H   0  0  0  0  0  0  0  0  0  0  0  0
    1.5596   -2.7573   -1.6697 H   0  0  0  0  0  0  0  0  0  0  0  0
   -2.1948   -1.3655    2.7216 H   0  0  0  0  0  0  0  0  0  0  0  0
   -0.9637   -1.9360    1.6081 H   0  0  0  0  0  0  0  0  0  0  0  0
    3.7585   -2.0211   -0.8761 H   0  0  0  0  0  0  0  0  0  0  0  0
   -1.5202    3.6448   -0.7593 H   0  0  0  0  0  0  0  0  0  0  0  0
   -0.4826    3.5899   -2.1947 H   0  0  0  0  0  0  0  0  0  0  0  0
   -3.2296    0.9222    0.7071 H   0  0  0  0  0  0  0  0  0  0  0  0
   -2.7209   -3.1657    0.3174 H   0  0  0  0  0  0  0  0  0  0  0  0
   -4.1606   -2.2593   -0.2053 H   0  0  0  0  0  0  0  0  0  0  0  0
   -3.8912   -2.5655    1.5039 H   0  0  0  0  0  0  0  0  0  0  0  0
    5.4889   -0.4201   -0.8549 H   0  0  0  0  0  0  0  0  0  0  0  0
    6.2475    0.1959    0.6165 H   0  0  0  0  0  0  0  0  0  0  0  0
    5.4770   -1.3955    0.6650 H   0  0  0  0  0  0  0  0  0  0  0  0
   -1.5642    1.9282   -0.1485 H   0  0  0  0  0  0  0  0  0  0  0  0
    0.8645    2.3182   -0.2817 H   0  0  0  0  0  0  0  0  0  0  0  0
   -0.8673   -2.3193    0.1947 H   0  0  0  0  0  0  0  0  0  0  0  0
    1.5645   -1.9299    0.0599 H   0  0  0  0  0  0  0  0  0  0  0  0
   -4.5058    0.2756    0.1949 H   0  0  0  0  0  0  0  0  0  0  0  0
    4.5054   -0.2726   -0.2930 H   0  0  0  0  0  0  0  0  0  0  0  0
 14  7  2  0
 15  8  1  0
 16 11  1  0
 17 15  2  0
 18 13  1  0
  2 19  1  6
 20 13  2  0
 21  9  1  0
  4  7  1  0
 16  9  1  0
  6 10  1  0
 18 12  1  0
 17 14  1  0
 14 22  1  0
 22 23  1  0
  2  1  1  0
  3  1  1  0
  3  4  1  0
  5  1  1  0
  6  2  1  0
  7  5  1  0
  8  5  2  0
  6  9  1  0
 10  8  1  0
  1 11  1  6
 12  2  1  0
 13  3  1  0
 37 30  2  0
 38 31  1  0
 39 34  1  0
 40 38  2  0
 41 36  1  0
 25 42  1  1
 43 36  2  0
 44 32  1  0
 27 30  1  0
 39 32  1  0
 29 33  1  0
 41 35  1  0
 40 37  1  0
 37 45  1  0
 45 46  1  0
 25 24  1  0
 26 24  1  0
 26 27  1  0
 28 24  1  0
 29 25  1  0
 30 28  1  0
 31 28  2  0
 29 32  1  0
 33 31  1  0
 24 34  1  1
 35 25  1  0
 36 26  1  0
 48 49  1  0
 49 56  2  0
 50 47  1  0
 51 48  2  0
 52 47  2  0
 53 50  1  0
 54 53  2  0
 55 50  2  0
 56 55  1  0
 57 47  1  0
 58 48  1  0
 49 54  1  0
  3 59  1  6
  6 60  1  1
 10 61  1  0
 10 62  1  0
 11 63  1  0
 11 64  1  0
 12 65  1  0
 12 66  1  0
 15 67  1  0
 16 68  1  0
 16 69  1  0
 17 70  1  0
 18 71  1  0
 18 72  1  0
 19 73  1  0
 21 74  1  0
 21 75  1  0
 21 76  1  0
 23 77  1  0
 23 78  1  0
 23 79  1  0
 26 80  1  1
 29 81  1  6
 33 82  1  0
 33 83  1  0
 34 84  1  0
 34 85  1  0
 35 86  1  0
 35 87  1  0
 38 88  1  0
 39 89  1  0
 39 90  1  0
 40 91  1  0
 41 92  1  0
 41 93  1  0
 42 94  1  0
 44 95  1  0
 44 96  1  0
 44 97  1  0
 46 98  1  0
 46 99  1  0
 46100  1  0
 53101  1  0
 54102  1  0
 55103  1  0
 56104  1  0
 57105  1  0
 58106  1  0
M  END
$$$$
