
     RDKit          2D

 62 70  0  0  0  0  0  0  0  0999 V2000
    6.8883  -14.8015    0.0000 C   0  0  0  0  0  0  0  0  0  0  0  0
    7.2965  -14.0896    0.0000 C   0  0  0  0  0  0  0  0  0  0  0  0
    7.2915  -15.5084    0.0000 C   0  0  0  0  0  0  0  0  0  0  0  0
    6.4402  -15.9216    0.0000 O   0  0  0  0  0  0  0  0  0  0  0  0
    6.0718  -14.8065    0.0000 C   0  0  0  0  0  0  0  0  0  0  0  0
    6.8933  -13.3876    0.0000 C   0  0  0  0  0  0  0  0  0  0  0  0
    5.6686  -15.5084    0.0000 C   0  0  0  0  0  0  0  0  0  0  0  0
    5.6686  -14.0896    0.0000 C   0  0  0  0  0  0  0  0  0  0  0  0
    7.3065  -12.6806    0.0000 N   0  0  0  0  0  0  0  0  0  0  0  0
    6.0718  -13.3876    0.0000 C   0  0  0  0  0  0  0  0  0  0  0  0
    6.4701  -14.0846    0.0000 C   0  0  0  0  0  0  0  0  0  0  0  0
    8.1180  -14.0995    0.0000 C   0  0  0  0  0  0  0  0  0  0  0  0
    8.1031  -15.5184    0.0000 C   0  0  0  0  0  0  0  0  0  0  0  0
    4.8472  -15.5084    0.0000 C   0  0  0  0  0  0  0  0  0  0  0  0
    4.8472  -14.0896    0.0000 C   0  0  0  0  0  0  0  0  0  0  0  0
    6.4850  -12.6806    0.0000 C   0  0  0  0  0  0  0  0  0  0  0  0
    4.4389  -14.8065    0.0000 C   0  0  0  0  0  0  0  0  0  0  0  0
    8.5212  -14.8065    0.0000 C   0  0  0  0  0  0  0  0  0  0  0  0
    7.7147  -13.3578    0.0000 O   0  0  0  0  0  0  0  0  0  0  0  0
    8.5162  -16.2353    0.0000 O   0  0  0  0  0  0  0  0  0  0  0  0
    8.0134  -12.2675    0.0000 C   0  0  0  0  0  0  0  0  0  0  0  0
    4.4251  -16.2421    0.0000 O   0  0  0  0  0  0  0  0  0  0  0  0
    3.5788  -16.2434    0.0000 C   0  0  0  0  0  0  0  0  0  0  0  0
    6.2986  -12.3514    0.0000 H   0  0  0  0  0  0  0  0  0  0  0  0
    7.5520  -16.6745    0.0000 H   0  0  0  0  0  0  0  0  0  0  0  0
    4.0923  -10.1312    0.0000 C   0  0  0  0  0  0  0  0  0  0  0  0
    4.5005   -9.4193    0.0000 C   0  0  0  0  0  0  0  0  0  0  0  0
    4.4955  -10.8381    0.0000 C   0  0  0  0  0  0  0  0  0  0  0  0
    3.6442  -11.2513    0.0000 O   0  0  0  0  0  0  0  0  0  0  0  0
    3.2759  -10.1362    0.0000 C   0  0  0  0  0  0  0  0  0  0  0  0
    4.0973   -8.7173    0.0000 C   0  0  0  0  0  0  0  0  0  0  0  0
    2.8726  -10.8381    0.0000 C   0  0  0  0  0  0  0  0  0  0  0  0
    2.8726   -9.4193    0.0000 C   0  0  0  0  0  0  0  0  0  0  0  0
    4.5105   -8.0104    0.0000 N   0  0  0  0  0  0  0  0  0  0  0  0
    3.2759   -8.7173    0.0000 C   0  0  0  0  0  0  0  0  0  0  0  0
    3.6741   -9.4143    0.0000 C   0  0  0  0  0  0  0  0  0  0  0  0
    5.3220   -9.4292    0.0000 C   0  0  0  0  0  0  0  0  0  0  0  0
    5.3071  -10.8481    0.0000 C   0  0  0  0  0  0  0  0  0  0  0  0
    2.0512  -10.8381    0.0000 C   0  0  0  0  0  0  0  0  0  0  0  0
    2.0512   -9.4193    0.0000 C   0  0  0  0  0  0  0  0  0  0  0  0
    3.6890   -8.0104    0.0000 C   0  0  0  0  0  0  0  0  0  0  0  0
    1.6429  -10.1362    0.0000 C   0  0  0  0  0  0  0  0  0  0  0  0
    5.7252  -10.1362    0.0000 C   0  0  0  0  0  0  0  0  0  0  0  0
    4.9187   -8.6875    0.0000 O   0  0  0  0  0  0  0  0  0  0  0  0
    5.7202  -11.5650    0.0000 O   0  0  0  0  0  0  0  0  0  0  0  0
    5.2174   -7.5972    0.0000 C   0  0  0  0  0  0  0  0  0  0  0  0
    1.6291  -11.5718    0.0000 O   0  0  0  0  0  0  0  0  0  0  0  0
    0.7828  -11.5731    0.0000 C   0  0  0  0  0  0  0  0  0  0  0  0
    3.5026   -7.6811    0.0000 H   0  0  0  0  0  0  0  0  0  0  0  0
    4.7560  -12.0042    0.0000 H   0  0  0  0  0  0  0  0  0  0  0  0
    8.0651  -10.4697    0.0000 C   0  0  0  0  0  0  0  0  0  0  0  0
   10.9875   -8.7670    0.0000 C   0  0  0  0  0  0  0  0  0  0  0  0
   10.2606   -9.2002    0.0000 C   0  0  0  0  0  0  0  0  0  0  0  0
    8.7920  -10.0466    0.0000 C   0  0  0  0  0  0  0  0  0  0  0  0
   10.9875   -7.9207    0.0000 O   0  0  0  0  0  0  0  0  0  0  0  0
    8.0651  -11.3160    0.0000 O   0  0  0  0  0  0  0  0  0  0  0  0
    9.5287  -10.4697    0.0000 C   0  0  0  0  0  0  0  0  0  0  0  0
   10.2606  -10.0466    0.0000 C   0  0  0  0  0  0  0  0  0  0  0  0
    8.7920   -9.2002    0.0000 C   0  0  0  0  0  0  0  0  0  0  0  0
    9.5287   -8.7770    0.0000 C   0  0  0  0  0  0  0  0  0  0  0  0
    7.3383  -10.0466    0.0000 O   0  0  0  0  0  0  0  0  0  0  0  0
   11.7242   -9.2002    0.0000 O   0  0  0  0  0  0  0  0  0  0  0  0
 14  7  2  0
 15  8  1  0
 16 11  1  0
 17 15  2  0
 18 13  1  0
  2 19  1  1
 20 13  2  0
 21  9  1  0
  4  7  1  0
 16  9  1  0
 10  6  1  0
 18 12  1  0
 17 14  1  0
 14 22  1  0
 22 23  1  0
  2  1  1  0
  3  1  1  0
  3  4  1  0
  5  1  1  0
  6  2  1  0
  7  5  1  0
  8  5  2  0
  6  9  1  0
 10  8  1  0
  1 11  1  1
 12  2  1  0
 13  3  1  0
  6 24  1  6
  3 25  1  1
 39 32  2  0
 40 33  1  0
 41 36  1  0
 42 40  2  0
 43 38  1  0
 27 44  1  1
 45 38  2  0
 46 34  1  0
 29 32  1  0
 41 34  1  0
 35 31  1  0
 43 37  1  0
 42 39  1  0
 39 47  1  0
 47 48  1  0
 27 26  1  0
 28 26  1  0
 28 29  1  0
 30 26  1  0
 31 27  1  0
 32 30  1  0
 33 30  2  0
 31 34  1  0
 35 33  1  0
 26 36  1  1
 37 27  1  0
 38 28  1  0
 31 49  1  6
 28 50  1  1
 52 53  1  0
 53 60  2  0
 54 51  1  0
 55 52  2  0
 56 51  2  0
 57 54  1  0
 58 57  2  0
 59 54  2  0
 60 59  1  0
 61 51  1  0
 62 52  1  0
 53 58  1  0
M  END
> <chembl_id>
CHEMBL3989826

> <chembl_pref_name>
OXYCODONE TEREPHTHALATE
