
     RDKit          3D

106114  0  0  0  0  0  0  0  0999 V2000
    0.3202    0.5278   -0.7090 C   0  0  2  0  0  0  0  0  0  0  0  0
    1.5141    0.9398    0.1590 C   0  0  2  0  0  0  0  0  0  0  0  0
   -0.6552    1.6167   -1.1849 C   0  0  1  0  0  0  0  0  0  0  0  0
   -1.9641    0.9912   -1.3143 O   0  0  0  0  0  0  0  0  0  0  0  0
   -0.6726   -0.2101    0.1343 C   0  0  0  0  0  0  0  0  0  0  0  0
    2.0473   -0.4064    0.7941 C   0  0  2  0  0  0  0  0  0  0  0  0
   -1.9577    0.0445   -0.3120 C   0  0  0  0  0  0  0  0  0  0  0  0
   -0.4004   -0.9945    1.2401 C   0  0  0  0  0  0  0  0  0  0  0  0
    2.3364   -1.4715   -0.2146 N   0  0  0  0  0  0  0  0  0  0  0  0
    1.0081   -1.0401    1.7752 C   0  0  0  0  0  0  0  0  0  0  0  0
    0.7851   -0.3900   -1.8715 C   0  0  0  0  0  0  0  0  0  0  0  0
    1.1409    2.0146    1.1938 C   0  0  0  0  0  0  0  0  0  0  0  0
   -0.7430    2.8364   -0.2453 C   0  0  0  0  0  0  0  0  0  0  0  0
   -3.0512   -0.5786    0.2589 C   0  0  0  0  0  0  0  0  0  0  0  0
   -1.4884   -1.6173    1.8481 C   0  0  0  0  0  0  0  0  0  0  0  0
    2.1361   -1.0793   -1.6083 C   0  0  0  0  0  0  0  0  0  0  0  0
   -2.7987   -1.4274    1.3480 C   0  0  0  0  0  0  0  0  0  0  0  0
    0.5046    3.2243    0.5177 C   0  0  0  0  0  0  0  0  0  0  0  0
    2.5755    1.5267   -0.6218 O   0  0  0  0  0  0  0  0  0  0  0  0
   -1.7455    3.5497   -0.1790 O   0  0  0  0  0  0  0  0  0  0  0  0
    3.6633   -2.0526   -0.0187 C   0  0  0  0  0  0  0  0  0  0  0  0
   -4.2722   -0.2898   -0.2726 O   0  0  0  0  0  0  0  0  0  0  0  0
   -5.3875   -0.9879    0.2568 C   0  0  0  0  0  0  0  0  0  0  0  0
   -0.2523    0.7929    0.7122 C   0  0  2  0  0  0  0  0  0  0  0  0
   -1.5385    0.8330   -0.1157 C   0  0  2  0  0  0  0  0  0  0  0  0
    0.6739    2.0193    0.6879 C   0  0  1  0  0  0  0  0  0  0  0  0
    2.0349    1.5259    0.8785 O   0  0  0  0  0  0  0  0  0  0  0  0
    0.7145   -0.1580    0.0814 C   0  0  0  0  0  0  0  0  0  0  0  0
   -2.0394   -0.6594   -0.1957 C   0  0  2  0  0  0  0  0  0  0  0  0
    2.0102    0.2865    0.2747 C   0  0  0  0  0  0  0  0  0  0  0  0
    0.4063   -1.2949   -0.6403 C   0  0  0  0  0  0  0  0  0  0  0  0
   -2.2207   -1.2852    1.1409 N   0  0  0  0  0  0  0  0  0  0  0  0
   -1.0364   -1.5748   -0.9755 C   0  0  0  0  0  0  0  0  0  0  0  0
   -0.5477    0.3115    2.1579 C   0  0  0  0  0  0  0  0  0  0  0  0
   -1.3331    1.4946   -1.4869 C   0  0  0  0  0  0  0  0  0  0  0  0
    0.5923    2.8365   -0.6166 C   0  0  0  0  0  0  0  0  0  0  0  0
    3.0932   -0.4606   -0.1481 C   0  0  0  0  0  0  0  0  0  0  0  0
    1.4805   -2.0545   -1.0997 C   0  0  0  0  0  0  0  0  0  0  0  0
   -1.8686   -0.4659    2.2996 C   0  0  0  0  0  0  0  0  0  0  0  0
    2.8118   -1.6528   -0.8350 C   0  0  0  0  0  0  0  0  0  0  0  0
   -0.7417    2.8918   -1.3261 C   0  0  0  0  0  0  0  0  0  0  0  0
   -2.5088    1.6655    0.5487 O   0  0  0  0  0  0  0  0  0  0  0  0
    1.5386    3.5035   -1.0436 O   0  0  0  0  0  0  0  0  0  0  0  0
   -3.5247   -1.9220    1.2970 C   0  0  0  0  0  0  0  0  0  0  0  0
    4.3311    0.0415    0.1222 O   0  0  0  0  0  0  0  0  0  0  0  0
    5.4448   -0.7657   -0.2308 C   0  0  0  0  0  0  0  0  0  0  0  0
    2.8343    0.5148    0.0286 C   0  0  0  0  0  0  0  0  0  0  0  0
   -2.8365   -0.5172    0.3714 C   0  0  0  0  0  0  0  0  0  0  0  0
   -1.3836   -0.2283    0.2824 C   0  0  0  0  0  0  0  0  0  0  0  0
    1.3822    0.2255    0.1172 C   0  0  0  0  0  0  0  0  0  0  0  0
   -3.3380   -1.6208    0.4812 O   0  0  0  0  0  0  0  0  0  0  0  0
    3.3337    1.6176   -0.0996 O   0  0  0  0  0  0  0  0  0  0  0  0
    0.8913   -1.0789    0.2522 C   0  0  0  0  0  0  0  0  0  0  0  0
   -0.4872   -1.3042    0.3349 C   0  0  0  0  0  0  0  0  0  0  0  0
    0.4869    1.3019    0.0674 C   0  0  0  0  0  0  0  0  0  0  0  0
   -0.8915    1.0766    0.1501 C   0  0  0  0  0  0  0  0  0  0  0  0
    3.5943   -0.5915    0.1096 O   0  0  0  0  0  0  0  0  0  0  0  0
   -3.5912    0.5950    0.3198 O   0  0  0  0  0  0  0  0  0  0  0  0
   -0.3644    2.0097   -2.1661 H   0  0  0  0  0  0  0  0  0  0  0  0
    2.9636   -0.1745    1.3525 H   0  0  0  0  0  0  0  0  0  0  0  0
    1.0323   -0.4845    2.7206 H   0  0  0  0  0  0  0  0  0  0  0  0
    1.2817   -2.0750    2.0151 H   0  0  0  0  0  0  0  0  0  0  0  0
    0.0322   -1.1571   -2.0977 H   0  0  0  0  0  0  0  0  0  0  0  0
    0.9002    0.2019   -2.7885 H   0  0  0  0  0  0  0  0  0  0  0  0
    2.0435    2.3462    1.7223 H   0  0  0  0  0  0  0  0  0  0  0  0
    0.4480    1.6351    1.9518 H   0  0  0  0  0  0  0  0  0  0  0  0
   -1.3424   -2.2464    2.7234 H   0  0  0  0  0  0  0  0  0  0  0  0
    2.1834   -1.9699   -2.2476 H   0  0  0  0  0  0  0  0  0  0  0  0
    2.9506   -0.4298   -1.9534 H   0  0  0  0  0  0  0  0  0  0  0  0
   -3.6081   -1.9407    1.8580 H   0  0  0  0  0  0  0  0  0  0  0  0
    0.2294    3.9583    1.2826 H   0  0  0  0  0  0  0  0  0  0  0  0
    1.1942    3.7153   -0.1756 H   0  0  0  0  0  0  0  0  0  0  0  0
    2.2099    2.0281   -1.3676 H   0  0  0  0  0  0  0  0  0  0  0  0
    3.7615   -2.4566    0.9952 H   0  0  0  0  0  0  0  0  0  0  0  0
    3.8286   -2.8889   -0.7069 H   0  0  0  0  0  0  0  0  0  0  0  0
    4.4598   -1.3171   -0.1778 H   0  0  0  0  0  0  0  0  0  0  0  0
   -6.2744   -0.6797   -0.3067 H   0  0  0  0  0  0  0  0  0  0  0  0
   -5.2732   -2.0681    0.1289 H   0  0  0  0  0  0  0  0  0  0  0  0
   -5.5516   -0.7324    1.3080 H   0  0  0  0  0  0  0  0  0  0  0  0
    0.4435    2.7150    1.5034 H   0  0  0  0  0  0  0  0  0  0  0  0
   -2.9986   -0.6648   -0.7311 H   0  0  0  0  0  0  0  0  0  0  0  0
   -1.2600   -2.6336   -0.7951 H   0  0  0  0  0  0  0  0  0  0  0  0
   -1.1751   -1.4045   -2.0507 H   0  0  0  0  0  0  0  0  0  0  0  0
    0.2711   -0.3105    2.5443 H   0  0  0  0  0  0  0  0  0  0  0  0
   -0.6126    1.1772    2.8292 H   0  0  0  0  0  0  0  0  0  0  0  0
   -2.2974    1.5837   -2.0024 H   0  0  0  0  0  0  0  0  0  0  0  0
   -0.6771    0.9048   -2.1357 H   0  0  0  0  0  0  0  0  0  0  0  0
    1.3039   -2.9617   -1.6731 H   0  0  0  0  0  0  0  0  0  0  0  0
   -1.7817   -1.1111    3.1840 H   0  0  0  0  0  0  0  0  0  0  0  0
   -2.6767    0.2383    2.5358 H   0  0  0  0  0  0  0  0  0  0  0  0
    3.6086   -2.2876   -1.2105 H   0  0  0  0  0  0  0  0  0  0  0  0
   -1.4040    3.5550   -0.7605 H   0  0  0  0  0  0  0  0  0  0  0  0
   -0.5912    3.3359   -2.3170 H   0  0  0  0  0  0  0  0  0  0  0  0
   -3.3301    1.1479    0.6420 H   0  0  0  0  0  0  0  0  0  0  0  0
   -4.3374   -1.1853    1.2980 H   0  0  0  0  0  0  0  0  0  0  0  0
   -3.5703   -2.4901    2.2337 H   0  0  0  0  0  0  0  0  0  0  0  0
   -3.7051   -2.6378    0.4876 H   0  0  0  0  0  0  0  0  0  0  0  0
    5.4097   -1.7331    0.2811 H   0  0  0  0  0  0  0  0  0  0  0  0
    6.3519   -0.2476    0.0967 H   0  0  0  0  0  0  0  0  0  0  0  0
    5.5084   -0.8988   -1.3167 H   0  0  0  0  0  0  0  0  0  0  0  0
    1.5709   -1.9274    0.2939 H   0  0  0  0  0  0  0  0  0  0  0  0
   -0.8567   -2.3229    0.4392 H   0  0  0  0  0  0  0  0  0  0  0  0
    0.8595    2.3198   -0.0382 H   0  0  0  0  0  0  0  0  0  0  0  0
   -1.5697    1.9266    0.1124 H   0  0  0  0  0  0  0  0  0  0  0  0
    4.5120   -0.2495    0.0518 H   0  0  0  0  0  0  0  0  0  0  0  0
   -4.5106    0.2630    0.3911 H   0  0  0  0  0  0  0  0  0  0  0  0
 14  7  2  0
 15  8  1  0
 16 11  1  0
 17 15  2  0
 18 13  1  0
  2 19  1  6
 20 13  2  0
 21  9  1  0
  4  7  1  0
 16  9  1  0
  6 10  1  0
 18 12  1  0
 17 14  1  0
 14 22  1  0
 22 23  1  0
  2  1  1  0
  3  1  1  0
  3  4  1  0
  5  1  1  0
  6  2  1  0
  7  5  1  0
  8  5  2  0
  6  9  1  0
 10  8  1  0
  1 11  1  6
 12  2  1  0
 13  3  1  0
 37 30  2  0
 38 31  1  0
 39 34  1  0
 40 38  2  0
 41 36  1  0
 25 42  1  1
 43 36  2  0
 44 32  1  0
 27 30  1  0
 39 32  1  0
 29 33  1  0
 41 35  1  0
 40 37  1  0
 37 45  1  0
 45 46  1  0
 25 24  1  0
 26 24  1  0
 26 27  1  0
 28 24  1  0
 29 25  1  0
 30 28  1  0
 31 28  2  0
 29 32  1  0
 33 31  1  0
 24 34  1  1
 35 25  1  0
 36 26  1  0
 48 49  1  0
 49 56  2  0
 50 47  1  0
 51 48  2  0
 52 47  2  0
 53 50  1  0
 54 53  2  0
 55 50  2  0
 56 55  1  0
 57 47  1  0
 58 48  1  0
 49 54  1  0
  3 59  1  6
  6 60  1  1
 10 61  1  0
 10 62  1  0
 11 63  1  0
 11 64  1  0
 12 65  1  0
 12 66  1  0
 15 67  1  0
 16 68  1  0
 16 69  1  0
 17 70  1  0
 18 71  1  0
 18 72  1  0
 19 73  1  0
 21 74  1  0
 21 75  1  0
 21 76  1  0
 23 77  1  0
 23 78  1  0
 23 79  1  0
 26 80  1  1
 29 81  1  6
 33 82  1  0
 33 83  1  0
 34 84  1  0
 34 85  1  0
 35 86  1  0
 35 87  1  0
 38 88  1  0
 39 89  1  0
 39 90  1  0
 40 91  1  0
 41 92  1  0
 41 93  1  0
 42 94  1  0
 44 95  1  0
 44 96  1  0
 44 97  1  0
 46 98  1  0
 46 99  1  0
 46100  1  0
 53101  1  0
 54102  1  0
 55103  1  0
 56104  1  0
 57105  1  0
 58106  1  0
M  END
$$$$
