
     RDKit          3D

106114  0  0  0  0  0  0  0  0999 V2000
   -0.2413    0.8078    0.7240 C   0  0  2  0  0  0  0  0  0  0  0  0
   -1.5760    1.0009   -0.0063 C   0  0  2  0  0  0  0  0  0  0  0  0
    0.7268    1.9963    0.7800 C   0  0  1  0  0  0  0  0  0  0  0  0
    2.0779    1.4353    0.8017 O   0  0  0  0  0  0  0  0  0  0  0  0
    0.6336   -0.1061   -0.0607 C   0  0  0  0  0  0  0  0  0  0  0  0
   -2.1854   -0.4325   -0.1998 C   0  0  2  0  0  0  0  0  0  0  0  0
    1.9566    0.2706    0.0741 C   0  0  0  0  0  0  0  0  0  0  0  0
    0.2150   -1.1602   -0.8467 C   0  0  0  0  0  0  0  0  0  0  0  0
   -2.5278   -0.9179    1.1762 N   0  0  0  0  0  0  0  0  0  0  0  0
   -1.2622   -1.3696   -1.0571 C   0  0  0  0  0  0  0  0  0  0  0  0
   -0.4860    0.1822    2.1183 C   0  0  0  0  0  0  0  0  0  0  0  0
   -1.4281    1.8056   -1.3014 C   0  0  0  0  0  0  0  0  0  0  0  0
    0.5965    2.9681   -0.4082 C   0  0  0  0  0  0  0  0  0  0  0  0
    2.9684   -0.4687   -0.5062 C   0  0  0  0  0  0  0  0  0  0  0  0
    1.2156   -1.9107   -1.4604 C   0  0  0  0  0  0  0  0  0  0  0  0
   -1.3486   -1.0901    2.0412 C   0  0  0  0  0  0  0  0  0  0  0  0
    2.5800   -1.5791   -1.2744 C   0  0  0  0  0  0  0  0  0  0  0  0
   -0.7739    3.1530   -1.0173 C   0  0  0  0  0  0  0  0  0  0  0  0
   -2.4686    1.7650    0.8308 O   0  0  0  0  0  0  0  0  0  0  0  0
    1.5429    3.6467   -0.8148 O   0  0  0  0  0  0  0  0  0  0  0  0
   -3.3394   -2.1345    1.1591 C   0  0  0  0  0  0  0  0  0  0  0  0
    4.2453   -0.0458   -0.2875 O   0  0  0  0  0  0  0  0  0  0  0  0
    5.2855   -0.7639   -0.9351 C   0  0  0  0  0  0  0  0  0  0  0  0
   -0.3967   -0.8820   -0.4475 C   0  0  2  0  0  0  0  0  0  0  0  0
   -1.6289   -0.8524    0.4651 C   0  0  2  0  0  0  0  0  0  0  0  0
    0.4717   -2.1466   -0.4422 C   0  0  1  0  0  0  0  0  0  0  0  0
    1.8408   -1.7147   -0.7223 O   0  0  0  0  0  0  0  0  0  0  0  0
    0.6386    0.0533    0.0731 C   0  0  0  0  0  0  0  0  0  0  0  0
   -2.1029    0.6430    0.5164 C   0  0  2  0  0  0  0  0  0  0  0  0
    1.9014   -0.4515   -0.1726 C   0  0  0  0  0  0  0  0  0  0  0  0
    0.4062    1.2405    0.7371 C   0  0  0  0  0  0  0  0  0  0  0  0
   -2.5961    0.9603   -0.8630 N   0  0  0  0  0  0  0  0  0  0  0  0
   -1.0090    1.6049    1.1015 C   0  0  0  0  0  0  0  0  0  0  0  0
   -0.7881   -0.4418   -1.8789 C   0  0  0  0  0  0  0  0  0  0  0  0
   -1.3635   -1.4796    1.8379 C   0  0  0  0  0  0  0  0  0  0  0  0
    0.4440   -2.9205    0.8899 C   0  0  0  0  0  0  0  0  0  0  0  0
    3.0315    0.2731    0.1525 C   0  0  0  0  0  0  0  0  0  0  0  0
    1.5306    1.9826    1.0928 C   0  0  0  0  0  0  0  0  0  0  0  0
   -1.5399    0.9012   -1.8880 C   0  0  0  0  0  0  0  0  0  0  0  0
    2.8299    1.5117    0.7842 C   0  0  0  0  0  0  0  0  0  0  0  0
   -0.8447   -2.9053    1.6805 C   0  0  0  0  0  0  0  0  0  0  0  0
   -2.6820   -1.6403   -0.1300 O   0  0  0  0  0  0  0  0  0  0  0  0
    1.3952   -3.5975    1.2854 O   0  0  0  0  0  0  0  0  0  0  0  0
   -3.3084    2.2364   -0.9258 C   0  0  0  0  0  0  0  0  0  0  0  0
    4.2337   -0.2858   -0.1620 O   0  0  0  0  0  0  0  0  0  0  0  0
    5.3993    0.4244    0.2278 C   0  0  0  0  0  0  0  0  0  0  0  0
    2.8549   -0.3192    0.4750 C   0  0  0  0  0  0  0  0  0  0  0  0
   -2.8796   -0.0072   -0.1230 C   0  0  0  0  0  0  0  0  0  0  0  0
   -1.4039   -0.0372    0.0245 C   0  0  0  0  0  0  0  0  0  0  0  0
    1.3851   -0.1911    0.3128 C   0  0  0  0  0  0  0  0  0  0  0  0
   -3.6246   -0.9630   -0.0136 O   0  0  0  0  0  0  0  0  0  0  0  0
    3.4567   -1.3437    0.7370 O   0  0  0  0  0  0  0  0  0  0  0  0
    0.7751    1.0349    0.0166 C   0  0  0  0  0  0  0  0  0  0  0  0
   -0.6152    1.1107   -0.1269 C   0  0  0  0  0  0  0  0  0  0  0  0
    0.5968   -1.3392    0.4645 C   0  0  0  0  0  0  0  0  0  0  0  0
   -0.7921   -1.2622    0.3202 C   0  0  0  0  0  0  0  0  0  0  0  0
    3.5031    0.8459    0.2998 O   0  0  0  0  0  0  0  0  0  0  0  0
   -3.3516    1.2211   -0.4002 O   0  0  0  0  0  0  0  0  0  0  0  0
    0.5827    2.5879    1.6920 H   0  0  0  0  0  0  0  0  0  0  0  0
   -3.1410   -0.3205   -0.7304 H   0  0  0  0  0  0  0  0  0  0  0  0
   -1.4711   -1.1614   -2.1148 H   0  0  0  0  0  0  0  0  0  0  0  0
   -1.5101   -2.4231   -0.8939 H   0  0  0  0  0  0  0  0  0  0  0  0
   -0.9859    0.9153    2.7645 H   0  0  0  0  0  0  0  0  0  0  0  0
    0.4572   -0.0676    2.6204 H   0  0  0  0  0  0  0  0  0  0  0  0
   -2.4174    1.9862   -1.7383 H   0  0  0  0  0  0  0  0  0  0  0  0
   -0.8392    1.2650   -2.0495 H   0  0  0  0  0  0  0  0  0  0  0  0
    0.9588   -2.7545   -2.0971 H   0  0  0  0  0  0  0  0  0  0  0  0
   -1.6775   -1.3333    3.0593 H   0  0  0  0  0  0  0  0  0  0  0  0
   -0.7374   -1.9368    1.7061 H   0  0  0  0  0  0  0  0  0  0  0  0
    3.3179   -2.2046   -1.7684 H   0  0  0  0  0  0  0  0  0  0  0  0
   -1.3733    3.7668   -0.3375 H   0  0  0  0  0  0  0  0  0  0  0  0
   -0.6672    3.7071   -1.9563 H   0  0  0  0  0  0  0  0  0  0  0  0
   -2.9279    1.0972    1.3865 H   0  0  0  0  0  0  0  0  0  0  0  0
   -4.2242   -2.0033    0.5260 H   0  0  0  0  0  0  0  0  0  0  0  0
   -2.7849   -3.0106    0.8072 H   0  0  0  0  0  0  0  0  0  0  0  0
   -3.7084   -2.3542    2.1677 H   0  0  0  0  0  0  0  0  0  0  0  0
    6.2364   -0.2932   -0.6669 H   0  0  0  0  0  0  0  0  0  0  0  0
    5.3223   -1.8030   -0.5913 H   0  0  0  0  0  0  0  0  0  0  0  0
    5.1833   -0.7118   -2.0243 H   0  0  0  0  0  0  0  0  0  0  0  0
    0.1634   -2.8503   -1.2238 H   0  0  0  0  0  0  0  0  0  0  0  0
   -2.9828    0.6922    1.1727 H   0  0  0  0  0  0  0  0  0  0  0  0
   -1.0835    1.5597    2.1959 H   0  0  0  0  0  0  0  0  0  0  0  0
   -1.2053    2.6445    0.8197 H   0  0  0  0  0  0  0  0  0  0  0  0
    0.0920   -0.3530   -2.5284 H   0  0  0  0  0  0  0  0  0  0  0  0
   -1.4238   -1.2115   -2.3360 H   0  0  0  0  0  0  0  0  0  0  0  0
   -0.6430   -0.8939    2.4186 H   0  0  0  0  0  0  0  0  0  0  0  0
   -2.2938   -1.5112    2.4186 H   0  0  0  0  0  0  0  0  0  0  0  0
    1.4224    2.9267    1.6219 H   0  0  0  0  0  0  0  0  0  0  0  0
   -1.9890    1.0252   -2.8822 H   0  0  0  0  0  0  0  0  0  0  0  0
   -0.8290    1.7284   -1.7680 H   0  0  0  0  0  0  0  0  0  0  0  0
    3.6697    2.1348    1.0763 H   0  0  0  0  0  0  0  0  0  0  0  0
   -0.6521   -3.3307    2.6717 H   0  0  0  0  0  0  0  0  0  0  0  0
   -1.5681   -3.5539    1.1770 H   0  0  0  0  0  0  0  0  0  0  0  0
   -3.1633   -1.0157   -0.7168 H   0  0  0  0  0  0  0  0  0  0  0  0
   -4.0992    2.2786   -0.1689 H   0  0  0  0  0  0  0  0  0  0  0  0
   -3.8025    2.3450   -1.8980 H   0  0  0  0  0  0  0  0  0  0  0  0
   -2.6479    3.0983   -0.7875 H   0  0  0  0  0  0  0  0  0  0  0  0
    6.2689   -0.1655   -0.0766 H   0  0  0  0  0  0  0  0  0  0  0  0
    5.4603    1.3918   -0.2809 H   0  0  0  0  0  0  0  0  0  0  0  0
    5.4435    0.5470    1.3147 H   0  0  0  0  0  0  0  0  0  0  0  0
    1.3712    1.9370   -0.1048 H   0  0  0  0  0  0  0  0  0  0  0  0
   -1.0693    2.0711   -0.3577 H   0  0  0  0  0  0  0  0  0  0  0  0
    1.0599   -2.2979    0.6932 H   0  0  0  0  0  0  0  0  0  0  0  0
   -1.3924   -2.1623    0.4403 H   0  0  0  0  0  0  0  0  0  0  0  0
    4.4467    0.6133    0.4322 H   0  0  0  0  0  0  0  0  0  0  0  0
   -4.3208    1.0889   -0.4686 H   0  0  0  0  0  0  0  0  0  0  0  0
 14  7  2  0
 15  8  1  0
 16 11  1  0
 17 15  2  0
 18 13  1  0
  2 19  1  1
 20 13  2  0
 21  9  1  0
  4  7  1  0
 16  9  1  0
  6 10  1  0
 18 12  1  0
 17 14  1  0
 14 22  1  0
 22 23  1  0
  2  1  1  0
  3  1  1  0
  3  4  1  0
  5  1  1  0
  6  2  1  0
  7  5  1  0
  8  5  2  0
  6  9  1  0
 10  8  1  0
  1 11  1  1
 12  2  1  0
 13  3  1  0
 37 30  2  0
 38 31  1  0
 39 34  1  0
 40 38  2  0
 41 36  1  0
 25 42  1  6
 43 36  2  0
 44 32  1  0
 27 30  1  0
 39 32  1  0
 29 33  1  0
 41 35  1  0
 40 37  1  0
 37 45  1  0
 45 46  1  0
 25 24  1  0
 26 24  1  0
 26 27  1  0
 28 24  1  0
 29 25  1  0
 30 28  1  0
 31 28  2  0
 29 32  1  0
 33 31  1  0
 24 34  1  6
 35 25  1  0
 36 26  1  0
 48 49  1  0
 49 56  2  0
 50 47  1  0
 51 48  2  0
 52 47  2  0
 53 50  1  0
 54 53  2  0
 55 50  2  0
 56 55  1  0
 57 47  1  0
 58 48  1  0
 49 54  1  0
  3 59  1  1
  6 60  1  6
 10 61  1  0
 10 62  1  0
 11 63  1  0
 11 64  1  0
 12 65  1  0
 12 66  1  0
 15 67  1  0
 16 68  1  0
 16 69  1  0
 17 70  1  0
 18 71  1  0
 18 72  1  0
 19 73  1  0
 21 74  1  0
 21 75  1  0
 21 76  1  0
 23 77  1  0
 23 78  1  0
 23 79  1  0
 26 80  1  6
 29 81  1  1
 33 82  1  0
 33 83  1  0
 34 84  1  0
 34 85  1  0
 35 86  1  0
 35 87  1  0
 38 88  1  0
 39 89  1  0
 39 90  1  0
 40 91  1  0
 41 92  1  0
 41 93  1  0
 42 94  1  0
 44 95  1  0
 44 96  1  0
 44 97  1  0
 46 98  1  0
 46 99  1  0
 46100  1  0
 53101  1  0
 54102  1  0
 55103  1  0
 56104  1  0
 57105  1  0
 58106  1  0
M  END
$$$$
