
     RDKit          3D

106114  0  0  0  0  0  0  0  0999 V2000
    0.3165    0.8249   -0.7872 C   0  0  2  0  0  0  0  0  0  0  0  0
    1.5513    1.0091    0.1035 C   0  0  2  0  0  0  0  0  0  0  0  0
   -0.6521    2.0062   -0.9261 C   0  0  1  0  0  0  0  0  0  0  0  0
   -1.9853    1.4353   -1.1194 O   0  0  0  0  0  0  0  0  0  0  0  0
   -0.6343   -0.1184   -0.1367 C   0  0  0  0  0  0  0  0  0  0  0  0
    2.1513   -0.4238    0.3282 C   0  0  2  0  0  0  0  0  0  0  0  0
   -1.9364    0.2517   -0.4142 C   0  0  0  0  0  0  0  0  0  0  0  0
   -0.2989   -1.1925    0.6628 C   0  0  0  0  0  0  0  0  0  0  0  0
    2.6630   -0.8624   -1.0097 N   0  0  0  0  0  0  0  0  0  0  0  0
    1.1454   -1.3959    1.0401 C   0  0  0  0  0  0  0  0  0  0  0  0
    0.7345    0.2434   -2.1595 C   0  0  0  0  0  0  0  0  0  0  0  0
    1.2384    1.7731    1.3941 C   0  0  0  0  0  0  0  0  0  0  0  0
   -0.6763    2.9494    0.2917 C   0  0  0  0  0  0  0  0  0  0  0  0
   -3.0004   -0.5098    0.0284 C   0  0  0  0  0  0  0  0  0  0  0  0
   -1.3552   -1.9692    1.1341 C   0  0  0  0  0  0  0  0  0  0  0  0
    1.5991   -1.0212   -2.0154 C   0  0  0  0  0  0  0  0  0  0  0  0
   -2.6924   -1.6398    0.8044 C   0  0  0  0  0  0  0  0  0  0  0  0
    0.6061    3.1228    1.0730 C   0  0  0  0  0  0  0  0  0  0  0  0
    2.5285    1.8065   -0.5979 O   0  0  0  0  0  0  0  0  0  0  0  0
   -1.6691    3.6180    0.5908 O   0  0  0  0  0  0  0  0  0  0  0  0
    3.4880   -2.0673   -0.9314 C   0  0  0  0  0  0  0  0  0  0  0  0
   -4.2478   -0.0871   -0.3213 O   0  0  0  0  0  0  0  0  0  0  0  0
   -5.3483   -0.8056    0.2169 C   0  0  0  0  0  0  0  0  0  0  0  0
   -0.1546   -0.8643   -0.8269 C   0  0  2  0  0  0  0  0  0  0  0  0
   -1.3305   -1.2886    0.0619 C   0  0  2  0  0  0  0  0  0  0  0  0
    1.0216   -1.8378   -0.9765 C   0  0  1  0  0  0  0  0  0  0  0  0
    2.2212   -1.0213   -1.1646 O   0  0  0  0  0  0  0  0  0  0  0  0
    0.6001    0.2370   -0.1676 C   0  0  0  0  0  0  0  0  0  0  0  0
   -2.1916    0.0017    0.3006 C   0  0  2  0  0  0  0  0  0  0  0  0
    1.9484    0.1248   -0.4487 C   0  0  0  0  0  0  0  0  0  0  0  0
    0.0677    1.2198    0.6425 C   0  0  0  0  0  0  0  0  0  0  0  0
   -2.7801    0.3480   -1.0328 N   0  0  0  0  0  0  0  0  0  0  0  0
   -1.3880    1.1403    1.0221 C   0  0  0  0  0  0  0  0  0  0  0  0
   -0.6784   -0.3603   -2.1935 C   0  0  0  0  0  0  0  0  0  0  0  0
   -0.8766   -1.9918    1.3450 C   0  0  0  0  0  0  0  0  0  0  0  0
    1.2269   -2.7686    0.2339 C   0  0  0  0  0  0  0  0  0  0  0  0
    2.8484    1.0712    0.0009 C   0  0  0  0  0  0  0  0  0  0  0  0
    0.9574    2.1789    1.1216 C   0  0  0  0  0  0  0  0  0  0  0  0
   -1.7676    0.7153   -2.0373 C   0  0  0  0  0  0  0  0  0  0  0  0
    2.3321    2.1141    0.7881 C   0  0  0  0  0  0  0  0  0  0  0  0
    0.0013   -3.1926    1.0105 C   0  0  0  0  0  0  0  0  0  0  0  0
   -2.1394   -2.2505   -0.6476 O   0  0  0  0  0  0  0  0  0  0  0  0
    2.3298   -3.2342    0.5310 O   0  0  0  0  0  0  0  0  0  0  0  0
   -3.8182    1.3740   -0.9426 C   0  0  0  0  0  0  0  0  0  0  0  0
    4.1527    0.8978   -0.3536 O   0  0  0  0  0  0  0  0  0  0  0  0
    5.0970    1.8091    0.1889 C   0  0  0  0  0  0  0  0  0  0  0  0
    2.8692    0.0075    0.5285 C   0  0  0  0  0  0  0  0  0  0  0  0
   -2.8783   -0.2422    0.0546 C   0  0  0  0  0  0  0  0  0  0  0  0
   -1.4009   -0.1430    0.1411 C   0  0  0  0  0  0  0  0  0  0  0  0
    1.3944   -0.0220    0.3716 C   0  0  0  0  0  0  0  0  0  0  0  0
   -3.5823   -0.9829    0.7151 O   0  0  0  0  0  0  0  0  0  0  0  0
    3.5173   -0.6751    1.2997 O   0  0  0  0  0  0  0  0  0  0  0  0
    0.6591   -0.9056    1.1721 C   0  0  0  0  0  0  0  0  0  0  0  0
   -0.7331   -0.9660    1.0570 C   0  0  0  0  0  0  0  0  0  0  0  0
    0.7272    0.8010   -0.5450 C   0  0  0  0  0  0  0  0  0  0  0  0
   -0.6662    0.7409   -0.6598 C   0  0  0  0  0  0  0  0  0  0  0  0
    3.4629    0.8934   -0.2901 O   0  0  0  0  0  0  0  0  0  0  0  0
   -3.4047    0.5935   -0.8576 O   0  0  0  0  0  0  0  0  0  0  0  0
   -0.4100    2.6232   -1.7994 H   0  0  0  0  0  0  0  0  0  0  0  0
    3.0352   -0.3190    0.9723 H   0  0  0  0  0  0  0  0  0  0  0  0
    1.2254   -1.2186    2.1208 H   0  0  0  0  0  0  0  0  0  0  0  0
    1.4239   -2.4415    0.8762 H   0  0  0  0  0  0  0  0  0  0  0  0
   -0.1399    0.0011   -2.7780 H   0  0  0  0  0  0  0  0  0  0  0  0
    1.2997    1.0006   -2.7188 H   0  0  0  0  0  0  0  0  0  0  0  0
    2.1650    1.9514    1.9535 H   0  0  0  0  0  0  0  0  0  0  0  0
    0.5707    1.2053    2.0510 H   0  0  0  0  0  0  0  0  0  0  0  0
   -1.1638   -2.8309    1.7699 H   0  0  0  0  0  0  0  0  0  0  0  0
    2.0506   -1.2290   -2.9937 H   0  0  0  0  0  0  0  0  0  0  0  0
    0.9638   -1.8844   -1.7815 H   0  0  0  0  0  0  0  0  0  0  0  0
   -3.4761   -2.2839    1.1923 H   0  0  0  0  0  0  0  0  0  0  0  0
    1.2788    3.7635    0.4936 H   0  0  0  0  0  0  0  0  0  0  0  0
    0.3765    3.6441    2.0091 H   0  0  0  0  0  0  0  0  0  0  0  0
    3.0678    1.1582   -1.1029 H   0  0  0  0  0  0  0  0  0  0  0  0
    2.9136   -2.9607   -0.6670 H   0  0  0  0  0  0  0  0  0  0  0  0
    4.2914   -1.9404   -0.1977 H   0  0  0  0  0  0  0  0  0  0  0  0
    3.9745   -2.2543   -1.8953 H   0  0  0  0  0  0  0  0  0  0  0  0
   -6.2664   -0.3182   -0.1253 H   0  0  0  0  0  0  0  0  0  0  0  0
   -5.3624   -1.8371   -0.1506 H   0  0  0  0  0  0  0  0  0  0  0  0
   -5.3437   -0.7766    1.3117 H   0  0  0  0  0  0  0  0  0  0  0  0
    0.9003   -2.4822   -1.8551 H   0  0  0  0  0  0  0  0  0  0  0  0
   -3.0381   -0.2757    0.9436 H   0  0  0  0  0  0  0  0  0  0  0  0
   -1.4301    0.9401    2.1009 H   0  0  0  0  0  0  0  0  0  0  0  0
   -1.8613    2.1152    0.8693 H   0  0  0  0  0  0  0  0  0  0  0  0
   -1.0903   -1.2061   -2.7598 H   0  0  0  0  0  0  0  0  0  0  0  0
    0.1325    0.0495   -2.8099 H   0  0  0  0  0  0  0  0  0  0  0  0
   -0.3289   -1.3137    2.0085 H   0  0  0  0  0  0  0  0  0  0  0  0
   -1.7518   -2.3492    1.9013 H   0  0  0  0  0  0  0  0  0  0  0  0
    0.6063    2.9817    1.7665 H   0  0  0  0  0  0  0  0  0  0  0  0
   -1.3075    1.6813   -1.7955 H   0  0  0  0  0  0  0  0  0  0  0  0
   -2.2527    0.8422   -3.0134 H   0  0  0  0  0  0  0  0  0  0  0  0
    2.9794    2.8919    1.1825 H   0  0  0  0  0  0  0  0  0  0  0  0
   -0.5368   -3.9433    0.4226 H   0  0  0  0  0  0  0  0  0  0  0  0
    0.3261   -3.6712    1.9413 H   0  0  0  0  0  0  0  0  0  0  0  0
   -2.7946   -1.7119   -1.1441 H   0  0  0  0  0  0  0  0  0  0  0  0
   -4.5793    1.0929   -0.2068 H   0  0  0  0  0  0  0  0  0  0  0  0
   -4.3357    1.4716   -1.9035 H   0  0  0  0  0  0  0  0  0  0  0  0
   -3.4219    2.3582   -0.6740 H   0  0  0  0  0  0  0  0  0  0  0  0
    6.0903    1.5090   -0.1588 H   0  0  0  0  0  0  0  0  0  0  0  0
    5.1017    1.7708    1.2833 H   0  0  0  0  0  0  0  0  0  0  0  0
    4.9124    2.8271   -0.1697 H   0  0  0  0  0  0  0  0  0  0  0  0
    1.1664   -1.5504    1.8880 H   0  0  0  0  0  0  0  0  0  0  0  0
   -1.2937   -1.6566    1.6851 H   0  0  0  0  0  0  0  0  0  0  0  0
    1.2814    1.4935   -1.1747 H   0  0  0  0  0  0  0  0  0  0  0  0
   -1.1670    1.3878   -1.3768 H   0  0  0  0  0  0  0  0  0  0  0  0
    4.4165    0.8053   -0.0796 H   0  0  0  0  0  0  0  0  0  0  0  0
   -4.3684    0.4210   -0.8055 H   0  0  0  0  0  0  0  0  0  0  0  0
 14  7  2  0
 15  8  1  0
 16 11  1  0
 17 15  2  0
 18 13  1  0
  2 19  1  6
 20 13  2  0
 21  9  1  0
  4  7  1  0
 16  9  1  0
  6 10  1  0
 18 12  1  0
 17 14  1  0
 14 22  1  0
 22 23  1  0
  2  1  1  0
  3  1  1  0
  3  4  1  0
  5  1  1  0
  6  2  1  0
  7  5  1  0
  8  5  2  0
  6  9  1  0
 10  8  1  0
  1 11  1  6
 12  2  1  0
 13  3  1  0
 37 30  2  0
 38 31  1  0
 39 34  1  0
 40 38  2  0
 41 36  1  0
 25 42  1  6
 43 36  2  0
 44 32  1  0
 27 30  1  0
 39 32  1  0
 29 33  1  0
 41 35  1  0
 40 37  1  0
 37 45  1  0
 45 46  1  0
 25 24  1  0
 26 24  1  0
 26 27  1  0
 28 24  1  0
 29 25  1  0
 30 28  1  0
 31 28  2  0
 29 32  1  0
 33 31  1  0
 24 34  1  6
 35 25  1  0
 36 26  1  0
 48 49  1  0
 49 56  2  0
 50 47  1  0
 51 48  2  0
 52 47  2  0
 53 50  1  0
 54 53  2  0
 55 50  2  0
 56 55  1  0
 57 47  1  0
 58 48  1  0
 49 54  1  0
  3 59  1  6
  6 60  1  1
 10 61  1  0
 10 62  1  0
 11 63  1  0
 11 64  1  0
 12 65  1  0
 12 66  1  0
 15 67  1  0
 16 68  1  0
 16 69  1  0
 17 70  1  0
 18 71  1  0
 18 72  1  0
 19 73  1  0
 21 74  1  0
 21 75  1  0
 21 76  1  0
 23 77  1  0
 23 78  1  0
 23 79  1  0
 26 80  1  6
 29 81  1  1
 33 82  1  0
 33 83  1  0
 34 84  1  0
 34 85  1  0
 35 86  1  0
 35 87  1  0
 38 88  1  0
 39 89  1  0
 39 90  1  0
 40 91  1  0
 41 92  1  0
 41 93  1  0
 42 94  1  0
 44 95  1  0
 44 96  1  0
 44 97  1  0
 46 98  1  0
 46 99  1  0
 46100  1  0
 53101  1  0
 54102  1  0
 55103  1  0
 56104  1  0
 57105  1  0
 58106  1  0
M  END
$$$$
