
     RDKit          3D

106114  0  0  0  0  0  0  0  0999 V2000
   -0.3290   -0.8713   -0.4978 C   0  0  2  0  0  0  0  0  0  0  0  0
   -1.5723   -0.9617    0.3959 C   0  0  2  0  0  0  0  0  0  0  0  0
    0.6179   -2.0774   -0.5368 C   0  0  1  0  0  0  0  0  0  0  0  0
    1.9626   -1.5480   -0.7661 O   0  0  0  0  0  0  0  0  0  0  0  0
    0.6362    0.1024    0.0831 C   0  0  0  0  0  0  0  0  0  0  0  0
   -2.1451    0.4956    0.5043 C   0  0  2  0  0  0  0  0  0  0  0  0
    1.9325   -0.3118   -0.1567 C   0  0  0  0  0  0  0  0  0  0  0  0
    0.3175    1.2415    0.7945 C   0  0  0  0  0  0  0  0  0  0  0  0
   -2.6404    0.8391   -0.8670 N   0  0  0  0  0  0  0  0  0  0  0  0
   -1.1243    1.5005    1.1461 C   0  0  0  0  0  0  0  0  0  0  0  0
   -0.7282   -0.3911   -1.9142 C   0  0  0  0  0  0  0  0  0  0  0  0
   -1.2821   -1.6289    1.7443 C   0  0  0  0  0  0  0  0  0  0  0  0
    0.6174   -2.9211    0.7523 C   0  0  0  0  0  0  0  0  0  0  0  0
    3.0086    0.4625    0.2308 C   0  0  0  0  0  0  0  0  0  0  0  0
    1.3861    2.0327    1.2104 C   0  0  0  0  0  0  0  0  0  0  0  0
   -1.5682    0.8976   -1.8748 C   0  0  0  0  0  0  0  0  0  0  0  0
    2.7184    1.6547    0.9148 C   0  0  0  0  0  0  0  0  0  0  0  0
   -0.6738   -3.0110    1.5332 C   0  0  0  0  0  0  0  0  0  0  0  0
   -2.5613   -1.7924   -0.2482 O   0  0  0  0  0  0  0  0  0  0  0  0
    1.5970   -3.5781    1.1136 O   0  0  0  0  0  0  0  0  0  0  0  0
   -3.4403    2.0632   -0.8879 C   0  0  0  0  0  0  0  0  0  0  0  0
    4.2493   -0.0083   -0.0788 O   0  0  0  0  0  0  0  0  0  0  0  0
    5.3610    0.7276    0.4103 C   0  0  0  0  0  0  0  0  0  0  0  0
   -0.4631    0.6108    0.8196 C   0  0  2  0  0  0  0  0  0  0  0  0
   -1.4391    1.1576   -0.2296 C   0  0  2  0  0  0  0  0  0  0  0  0
    0.4608    1.6081    1.5301 C   0  0  1  0  0  0  0  0  0  0  0  0
    1.6969    0.8884    1.8393 O   0  0  0  0  0  0  0  0  0  0  0  0
    0.6030   -0.1822    0.1475 C   0  0  0  0  0  0  0  0  0  0  0  0
   -1.9882   -0.0870   -1.0126 C   0  0  2  0  0  0  0  0  0  0  0  0
    1.8030   -0.0282    0.8149 C   0  0  0  0  0  0  0  0  0  0  0  0
    0.4565   -0.9409   -0.9964 C   0  0  0  0  0  0  0  0  0  0  0  0
   -2.8190   -0.8506   -0.0275 N   0  0  0  0  0  0  0  0  0  0  0  0
   -0.8543   -0.8944   -1.7378 C   0  0  0  0  0  0  0  0  0  0  0  0
   -1.2145   -0.3065    1.8146 C   0  0  0  0  0  0  0  0  0  0  0  0
   -0.8082    2.2349   -1.1178 C   0  0  0  0  0  0  0  0  0  0  0  0
    0.7976    2.8597    0.6970 C   0  0  0  0  0  0  0  0  0  0  0  0
    2.9304   -0.7197    0.4165 C   0  0  0  0  0  0  0  0  0  0  0  0
    1.5832   -1.6376   -1.4281 C   0  0  0  0  0  0  0  0  0  0  0  0
   -2.0371   -1.3910    1.0972 C   0  0  0  0  0  0  0  0  0  0  0  0
    2.8039   -1.5406   -0.7170 C   0  0  0  0  0  0  0  0  0  0  0  0
   -0.2527    3.3690   -0.2636 C   0  0  0  0  0  0  0  0  0  0  0  0
   -2.5453    1.7990    0.4397 O   0  0  0  0  0  0  0  0  0  0  0  0
    1.8453    3.4930    0.8482 O   0  0  0  0  0  0  0  0  0  0  0  0
   -3.6175   -1.9016   -0.6569 C   0  0  0  0  0  0  0  0  0  0  0  0
    4.0604   -0.5320    1.1546 O   0  0  0  0  0  0  0  0  0  0  0  0
    5.2497   -1.1493    0.6840 C   0  0  0  0  0  0  0  0  0  0  0  0
   -2.6875    0.1676   -1.0519 C   0  0  0  0  0  0  0  0  0  0  0  0
    2.5475   -0.2027    1.3518 C   0  0  0  0  0  0  0  0  0  0  0  0
    1.2238   -0.1022    0.6902 C   0  0  0  0  0  0  0  0  0  0  0  0
   -1.3222    0.0777   -0.4794 C   0  0  0  0  0  0  0  0  0  0  0  0
    2.7383   -0.3506    2.5444 O   0  0  0  0  0  0  0  0  0  0  0  0
   -3.7282    0.1053   -0.4245 O   0  0  0  0  0  0  0  0  0  0  0  0
   -1.1931   -0.0946    0.9048 C   0  0  0  0  0  0  0  0  0  0  0  0
    0.0750   -0.1839    1.4873 C   0  0  0  0  0  0  0  0  0  0  0  0
   -0.1736    0.1604   -1.2771 C   0  0  0  0  0  0  0  0  0  0  0  0
    1.0954    0.0707   -0.6941 C   0  0  0  0  0  0  0  0  0  0  0  0
   -2.6842    0.3316   -2.3863 O   0  0  0  0  0  0  0  0  0  0  0  0
    3.5714   -0.1134    0.4851 O   0  0  0  0  0  0  0  0  0  0  0  0
    0.3687   -2.7569   -1.3603 H   0  0  0  0  0  0  0  0  0  0  0  0
   -3.0344    0.4581    1.1484 H   0  0  0  0  0  0  0  0  0  0  0  0
   -1.3820    2.5354    0.9006 H   0  0  0  0  0  0  0  0  0  0  0  0
   -1.2129    1.4081    2.2366 H   0  0  0  0  0  0  0  0  0  0  0  0
    0.1540   -0.2147   -2.5436 H   0  0  0  0  0  0  0  0  0  0  0  0
   -1.3055   -1.1784   -2.4165 H   0  0  0  0  0  0  0  0  0  0  0  0
   -2.2155   -1.7456    2.3087 H   0  0  0  0  0  0  0  0  0  0  0  0
   -0.6075   -1.0246    2.3604 H   0  0  0  0  0  0  0  0  0  0  0  0
    1.2080    2.9444    1.7767 H   0  0  0  0  0  0  0  0  0  0  0  0
   -2.0106    1.0366   -2.8691 H   0  0  0  0  0  0  0  0  0  0  0  0
   -0.9169    1.7637   -1.7051 H   0  0  0  0  0  0  0  0  0  0  0  0
    3.5126    2.3124    1.2554 H   0  0  0  0  0  0  0  0  0  0  0  0
   -1.3543   -3.6816    0.9986 H   0  0  0  0  0  0  0  0  0  0  0  0
   -0.4610   -3.4629    2.5085 H   0  0  0  0  0  0  0  0  0  0  0  0
   -3.0850   -1.1750   -0.8053 H   0  0  0  0  0  0  0  0  0  0  0  0
   -3.9194    2.1835   -1.8662 H   0  0  0  0  0  0  0  0  0  0  0  0
   -4.2486    2.0113   -0.1503 H   0  0  0  0  0  0  0  0  0  0  0  0
   -2.8480    2.9625   -0.6921 H   0  0  0  0  0  0  0  0  0  0  0  0
    6.2711    0.1987    0.1109 H   0  0  0  0  0  0  0  0  0  0  0  0
    5.3510    0.7811    1.5041 H   0  0  0  0  0  0  0  0  0  0  0  0
    5.3965    1.7279   -0.0335 H   0  0  0  0  0  0  0  0  0  0  0  0
    0.0222    1.9616    2.4707 H   0  0  0  0  0  0  0  0  0  0  0  0
   -2.6853    0.2807   -1.7780 H   0  0  0  0  0  0  0  0  0  0  0  0
   -1.1814   -1.9126   -1.9696 H   0  0  0  0  0  0  0  0  0  0  0  0
   -0.6637   -0.4019   -2.7004 H   0  0  0  0  0  0  0  0  0  0  0  0
   -0.5230   -0.7958    2.5129 H   0  0  0  0  0  0  0  0  0  0  0  0
   -1.8881    0.3016    2.4328 H   0  0  0  0  0  0  0  0  0  0  0  0
   -1.5673    2.6509   -1.7917 H   0  0  0  0  0  0  0  0  0  0  0  0
   -0.0089    1.8277   -1.7465 H   0  0  0  0  0  0  0  0  0  0  0  0
    1.5392   -2.2545   -2.3232 H   0  0  0  0  0  0  0  0  0  0  0  0
   -2.7181   -1.8340    1.8346 H   0  0  0  0  0  0  0  0  0  0  0  0
   -1.3776   -2.2013    0.7632 H   0  0  0  0  0  0  0  0  0  0  0  0
    3.6487   -2.1102   -1.0932 H   0  0  0  0  0  0  0  0  0  0  0  0
   -1.0363    3.8686    0.3153 H   0  0  0  0  0  0  0  0  0  0  0  0
    0.2065    4.1194   -0.9170 H   0  0  0  0  0  0  0  0  0  0  0  0
   -3.2023    1.0827    0.5847 H   0  0  0  0  0  0  0  0  0  0  0  0
   -4.3305   -2.3160    0.0648 H   0  0  0  0  0  0  0  0  0  0  0  0
   -4.2122   -1.4960   -1.4825 H   0  0  0  0  0  0  0  0  0  0  0  0
   -3.0094   -2.7275   -1.0393 H   0  0  0  0  0  0  0  0  0  0  0  0
    5.5087   -0.7968   -0.3201 H   0  0  0  0  0  0  0  0  0  0  0  0
    5.1630   -2.2408    0.7094 H   0  0  0  0  0  0  0  0  0  0  0  0
    6.0640   -0.8643    1.3573 H   0  0  0  0  0  0  0  0  0  0  0  0
   -2.0786   -0.1600    1.5350 H   0  0  0  0  0  0  0  0  0  0  0  0
    0.1624   -0.3178    2.5643 H   0  0  0  0  0  0  0  0  0  0  0  0
   -0.2541    0.2942   -2.3536 H   0  0  0  0  0  0  0  0  0  0  0  0
    1.9762    0.1371   -1.3290 H   0  0  0  0  0  0  0  0  0  0  0  0
   -3.6356    0.3746   -2.6192 H   0  0  0  0  0  0  0  0  0  0  0  0
    4.3671   -0.1939    1.0522 H   0  0  0  0  0  0  0  0  0  0  0  0
 14  7  2  0
 15  8  1  0
 16 11  1  0
 17 15  2  0
 18 13  1  0
  2 19  1  6
 20 13  2  0
 21  9  1  0
  4  7  1  0
 16  9  1  0
  6 10  1  0
 18 12  1  0
 17 14  1  0
 14 22  1  0
 22 23  1  0
  2  1  1  0
  3  1  1  0
  3  4  1  0
  5  1  1  0
  6  2  1  0
  7  5  1  0
  8  5  2  0
  6  9  1  0
 10  8  1  0
  1 11  1  6
 12  2  1  0
 13  3  1  0
 37 30  2  0
 38 31  1  0
 39 34  1  0
 40 38  2  0
 41 36  1  0
 25 42  1  1
 43 36  2  0
 44 32  1  0
 27 30  1  0
 39 32  1  0
 29 33  1  0
 41 35  1  0
 40 37  1  0
 37 45  1  0
 45 46  1  0
 25 24  1  0
 26 24  1  0
 26 27  1  0
 28 24  1  0
 29 25  1  0
 30 28  1  0
 31 28  2  0
 29 32  1  0
 33 31  1  0
 24 34  1  1
 35 25  1  0
 36 26  1  0
 48 49  1  0
 49 56  2  0
 50 47  1  0
 51 48  2  0
 52 47  2  0
 53 50  1  0
 54 53  2  0
 55 50  2  0
 56 55  1  0
 57 47  1  0
 58 48  1  0
 49 54  1  0
  3 59  1  6
  6 60  1  1
 10 61  1  0
 10 62  1  0
 11 63  1  0
 11 64  1  0
 12 65  1  0
 12 66  1  0
 15 67  1  0
 16 68  1  0
 16 69  1  0
 17 70  1  0
 18 71  1  0
 18 72  1  0
 19 73  1  0
 21 74  1  0
 21 75  1  0
 21 76  1  0
 23 77  1  0
 23 78  1  0
 23 79  1  0
 26 80  1  1
 29 81  1  6
 33 82  1  0
 33 83  1  0
 34 84  1  0
 34 85  1  0
 35 86  1  0
 35 87  1  0
 38 88  1  0
 39 89  1  0
 39 90  1  0
 40 91  1  0
 41 92  1  0
 41 93  1  0
 42 94  1  0
 44 95  1  0
 44 96  1  0
 44 97  1  0
 46 98  1  0
 46 99  1  0
 46100  1  0
 53101  1  0
 54102  1  0
 55103  1  0
 56104  1  0
 57105  1  0
 58106  1  0
M  END
$$$$
