
     RDKit          3D

106114  0  0  0  0  0  0  0  0999 V2000
    0.3125   -0.8319    0.6658 C   0  0  2  0  0  0  0  0  0  0  0  0
    1.5646   -0.9910   -0.2056 C   0  0  2  0  0  0  0  0  0  0  0  0
   -0.6466   -2.0244    0.7702 C   0  0  1  0  0  0  0  0  0  0  0  0
   -1.9885   -1.4691    0.9495 O   0  0  0  0  0  0  0  0  0  0  0  0
   -0.6363    0.1118    0.0127 C   0  0  0  0  0  0  0  0  0  0  0  0
    2.1538    0.4508   -0.3992 C   0  0  2  0  0  0  0  0  0  0  0  0
   -1.9392   -0.2746    0.2626 C   0  0  0  0  0  0  0  0  0  0  0  0
   -0.2977    1.2004   -0.7656 C   0  0  0  0  0  0  0  0  0  0  0  0
    2.6376    0.8750    0.9535 N   0  0  0  0  0  0  0  0  0  0  0  0
    1.1508    1.4233   -1.1147 C   0  0  0  0  0  0  0  0  0  0  0  0
    0.7011   -0.2667    2.0535 C   0  0  0  0  0  0  0  0  0  0  0  0
    1.2829   -1.7390   -1.5127 C   0  0  0  0  0  0  0  0  0  0  0  0
   -0.6403   -2.9483   -0.4627 C   0  0  0  0  0  0  0  0  0  0  0  0
   -3.0029    0.4834   -0.1872 C   0  0  0  0  0  0  0  0  0  0  0  0
   -1.3532    1.9738   -1.2438 C   0  0  0  0  0  0  0  0  0  0  0  0
    1.5549    1.0087    1.9425 C   0  0  0  0  0  0  0  0  0  0  0  0
   -2.6926    1.6275   -0.9415 C   0  0  0  0  0  0  0  0  0  0  0  0
    0.6581   -3.0991   -1.2222 C   0  0  0  0  0  0  0  0  0  0  0  0
    2.5373   -1.7890    0.5016 O   0  0  0  0  0  0  0  0  0  0  0  0
   -1.6220   -3.6188   -0.7919 O   0  0  0  0  0  0  0  0  0  0  0  0
    3.4517    2.0890    0.9067 C   0  0  0  0  0  0  0  0  0  0  0  0
   -4.2518    0.0442    0.1350 O   0  0  0  0  0  0  0  0  0  0  0  0
   -5.3502    0.7558   -0.4162 C   0  0  0  0  0  0  0  0  0  0  0  0
   -0.3181   -0.5081   -0.9762 C   0  0  2  0  0  0  0  0  0  0  0  0
   -1.3626   -1.1867   -0.0822 C   0  0  2  0  0  0  0  0  0  0  0  0
    0.7053   -1.4204   -1.6606 C   0  0  1  0  0  0  0  0  0  0  0  0
    2.0295   -0.8369   -1.5035 O   0  0  0  0  0  0  0  0  0  0  0  0
    0.6015    0.2516   -0.0907 C   0  0  0  0  0  0  0  0  0  0  0  0
   -2.1380   -0.0242    0.6430 C   0  0  2  0  0  0  0  0  0  0  0  0
    1.9120    0.0674   -0.4757 C   0  0  0  0  0  0  0  0  0  0  0  0
    0.2354    0.9543    1.0427 C   0  0  0  0  0  0  0  0  0  0  0  0
   -2.8918    0.6999   -0.4259 N   0  0  0  0  0  0  0  0  0  0  0  0
   -1.1921    0.8708    1.5277 C   0  0  0  0  0  0  0  0  0  0  0  0
   -0.9896    0.4341   -2.0030 C   0  0  0  0  0  0  0  0  0  0  0  0
   -0.7708   -2.2156    0.8994 C   0  0  0  0  0  0  0  0  0  0  0  0
    0.6599   -2.8496   -1.1273 C   0  0  0  0  0  0  0  0  0  0  0  0
    2.9440    0.7026    0.1913 C   0  0  0  0  0  0  0  0  0  0  0  0
    1.2561    1.6059    1.7320 C   0  0  0  0  0  0  0  0  0  0  0  0
   -2.0028    1.3949   -1.3678 C   0  0  0  0  0  0  0  0  0  0  0  0
    2.5972    1.4966    1.2965 C   0  0  0  0  0  0  0  0  0  0  0  0
    0.3899   -3.0439    0.3466 C   0  0  0  0  0  0  0  0  0  0  0  0
   -2.2812   -1.9169   -0.9152 O   0  0  0  0  0  0  0  0  0  0  0  0
    0.9330   -3.8143   -1.8468 O   0  0  0  0  0  0  0  0  0  0  0  0
   -3.8983    1.6135    0.1136 C   0  0  0  0  0  0  0  0  0  0  0  0
    4.2054    0.4779   -0.2749 O   0  0  0  0  0  0  0  0  0  0  0  0
    5.2698    1.1411    0.3920 C   0  0  0  0  0  0  0  0  0  0  0  0
    2.8485    0.1607   -0.4666 C   0  0  0  0  0  0  0  0  0  0  0  0
   -2.8818    0.0610    0.2204 C   0  0  0  0  0  0  0  0  0  0  0  0
   -1.4052    0.0536    0.0804 C   0  0  0  0  0  0  0  0  0  0  0  0
    1.3817    0.1020   -0.2534 C   0  0  0  0  0  0  0  0  0  0  0  0
   -3.6571    0.7224   -0.4446 O   0  0  0  0  0  0  0  0  0  0  0  0
    3.4215    0.8466   -1.2922 O   0  0  0  0  0  0  0  0  0  0  0  0
    0.8042   -0.7180    0.7247 C   0  0  0  0  0  0  0  0  0  0  0  0
   -0.5851   -0.7420    0.8910 C   0  0  0  0  0  0  0  0  0  0  0  0
    0.5611    0.8975   -1.0633 C   0  0  0  0  0  0  0  0  0  0  0  0
   -0.8270    0.8734   -0.8972 C   0  0  0  0  0  0  0  0  0  0  0  0
    3.5294   -0.6444    0.3675 O   0  0  0  0  0  0  0  0  0  0  0  0
   -3.3181   -0.7622    1.1896 O   0  0  0  0  0  0  0  0  0  0  0  0
   -0.4132   -2.6524    1.6380 H   0  0  0  0  0  0  0  0  0  0  0  0
    3.0498    0.3642   -1.0291 H   0  0  0  0  0  0  0  0  0  0  0  0
    1.2513    1.2627   -2.1964 H   0  0  0  0  0  0  0  0  0  0  0  0
    1.4158    2.4691   -0.9308 H   0  0  0  0  0  0  0  0  0  0  0  0
   -0.1861   -0.0425    2.6604 H   0  0  0  0  0  0  0  0  0  0  0  0
    1.2647   -1.0264    2.6111 H   0  0  0  0  0  0  0  0  0  0  0  0
    2.2215   -1.9001   -2.0572 H   0  0  0  0  0  0  0  0  0  0  0  0
    0.6215   -1.1682   -2.1736 H   0  0  0  0  0  0  0  0  0  0  0  0
   -1.1592    2.8464   -1.8640 H   0  0  0  0  0  0  0  0  0  0  0  0
    1.9872    1.2067    2.9314 H   0  0  0  0  0  0  0  0  0  0  0  0
    0.9148    1.8685    1.7096 H   0  0  0  0  0  0  0  0  0  0  0  0
   -3.4761    2.2695   -1.3335 H   0  0  0  0  0  0  0  0  0  0  0  0
    0.4510   -3.6090   -2.1697 H   0  0  0  0  0  0  0  0  0  0  0  0
    1.3263   -3.7418   -0.6396 H   0  0  0  0  0  0  0  0  0  0  0  0
    3.0620   -1.1426    1.0243 H   0  0  0  0  0  0  0  0  0  0  0  0
    2.8728    2.9801    0.6445 H   0  0  0  0  0  0  0  0  0  0  0  0
    4.2689    1.9805    0.1853 H   0  0  0  0  0  0  0  0  0  0  0  0
    3.9194    2.2675    1.8815 H   0  0  0  0  0  0  0  0  0  0  0  0
   -5.3225    0.7425   -1.5109 H   0  0  0  0  0  0  0  0  0  0  0  0
   -6.2686    0.2517   -0.1001 H   0  0  0  0  0  0  0  0  0  0  0  0
   -5.3854    1.7816   -0.0350 H   0  0  0  0  0  0  0  0  0  0  0  0
    0.5065   -1.4897   -2.7379 H   0  0  0  0  0  0  0  0  0  0  0  0
   -2.8920   -0.4822    1.2976 H   0  0  0  0  0  0  0  0  0  0  0  0
   -1.5949    1.8811    1.6496 H   0  0  0  0  0  0  0  0  0  0  0  0
   -1.1687    0.4261    2.5315 H   0  0  0  0  0  0  0  0  0  0  0  0
   -1.5109   -0.1705   -2.7577 H   0  0  0  0  0  0  0  0  0  0  0  0
   -0.2394    1.0231   -2.5471 H   0  0  0  0  0  0  0  0  0  0  0  0
   -1.5646   -2.9060    1.2154 H   0  0  0  0  0  0  0  0  0  0  0  0
   -0.4245   -1.7395    1.8236 H   0  0  0  0  0  0  0  0  0  0  0  0
    1.0351    2.1813    2.6286 H   0  0  0  0  0  0  0  0  0  0  0  0
   -1.4794    2.2274   -0.8820 H   0  0  0  0  0  0  0  0  0  0  0  0
   -2.5976    1.8368   -2.1771 H   0  0  0  0  0  0  0  0  0  0  0  0
    3.3546    2.0204    1.8721 H   0  0  0  0  0  0  0  0  0  0  0  0
    1.3143   -2.7966    0.8817 H   0  0  0  0  0  0  0  0  0  0  0  0
    0.1943   -4.1074    0.5271 H   0  0  0  0  0  0  0  0  0  0  0  0
   -2.9794   -1.2693   -1.1546 H   0  0  0  0  0  0  0  0  0  0  0  0
   -4.5688    1.0882    0.8025 H   0  0  0  0  0  0  0  0  0  0  0  0
   -4.5272    2.0018   -0.6957 H   0  0  0  0  0  0  0  0  0  0  0  0
   -3.4620    2.4688    0.6391 H   0  0  0  0  0  0  0  0  0  0  0  0
    5.3479    0.8132    1.4337 H   0  0  0  0  0  0  0  0  0  0  0  0
    5.1610    2.2288    0.3274 H   0  0  0  0  0  0  0  0  0  0  0  0
    6.2020    0.8698   -0.1126 H   0  0  0  0  0  0  0  0  0  0  0  0
    1.4252   -1.3424    1.3632 H   0  0  0  0  0  0  0  0  0  0  0  0
   -1.0162   -1.3843    1.6556 H   0  0  0  0  0  0  0  0  0  0  0  0
    0.9988    1.5389   -1.8267 H   0  0  0  0  0  0  0  0  0  0  0  0
   -1.4541    1.4966   -1.5328 H   0  0  0  0  0  0  0  0  0  0  0  0
    4.4667   -0.5044    0.1161 H   0  0  0  0  0  0  0  0  0  0  0  0
   -4.2924   -0.6550    1.1682 H   0  0  0  0  0  0  0  0  0  0  0  0
 14  7  2  0
 15  8  1  0
 16 11  1  0
 17 15  2  0
 18 13  1  0
  2 19  1  1
 20 13  2  0
 21  9  1  0
  4  7  1  0
 16  9  1  0
  6 10  1  0
 18 12  1  0
 17 14  1  0
 14 22  1  0
 22 23  1  0
  2  1  1  0
  3  1  1  0
  3  4  1  0
  5  1  1  0
  6  2  1  0
  7  5  1  0
  8  5  2  0
  6  9  1  0
 10  8  1  0
  1 11  1  1
 12  2  1  0
 13  3  1  0
 37 30  2  0
 38 31  1  0
 39 34  1  0
 40 38  2  0
 41 36  1  0
 25 42  1  6
 43 36  2  0
 44 32  1  0
 27 30  1  0
 39 32  1  0
 29 33  1  0
 41 35  1  0
 40 37  1  0
 37 45  1  0
 45 46  1  0
 25 24  1  0
 26 24  1  0
 26 27  1  0
 28 24  1  0
 29 25  1  0
 30 28  1  0
 31 28  2  0
 29 32  1  0
 33 31  1  0
 24 34  1  6
 35 25  1  0
 36 26  1  0
 48 49  1  0
 49 56  2  0
 50 47  1  0
 51 48  2  0
 52 47  2  0
 53 50  1  0
 54 53  2  0
 55 50  2  0
 56 55  1  0
 57 47  1  0
 58 48  1  0
 49 54  1  0
  3 59  1  1
  6 60  1  6
 10 61  1  0
 10 62  1  0
 11 63  1  0
 11 64  1  0
 12 65  1  0
 12 66  1  0
 15 67  1  0
 16 68  1  0
 16 69  1  0
 17 70  1  0
 18 71  1  0
 18 72  1  0
 19 73  1  0
 21 74  1  0
 21 75  1  0
 21 76  1  0
 23 77  1  0
 23 78  1  0
 23 79  1  0
 26 80  1  6
 29 81  1  1
 33 82  1  0
 33 83  1  0
 34 84  1  0
 34 85  1  0
 35 86  1  0
 35 87  1  0
 38 88  1  0
 39 89  1  0
 39 90  1  0
 40 91  1  0
 41 92  1  0
 41 93  1  0
 42 94  1  0
 44 95  1  0
 44 96  1  0
 44 97  1  0
 46 98  1  0
 46 99  1  0
 46100  1  0
 53101  1  0
 54102  1  0
 55103  1  0
 56104  1  0
 57105  1  0
 58106  1  0
M  END
$$$$
