
     RDKit          3D

106114  0  0  0  0  0  0  0  0999 V2000
   -0.4418   -0.7819   -0.6543 C   0  0  2  0  0  0  0  0  0  0  0  0
   -1.5087   -1.0440    0.4149 C   0  0  2  0  0  0  0  0  0  0  0  0
    0.4617   -1.9457   -1.0797 C   0  0  1  0  0  0  0  0  0  0  0  0
    1.7590   -1.3684   -1.4309 O   0  0  0  0  0  0  0  0  0  0  0  0
    0.6275    0.0887   -0.0901 C   0  0  0  0  0  0  0  0  0  0  0  0
   -2.0253    0.3637    0.8807 C   0  0  2  0  0  0  0  0  0  0  0  0
    1.8528   -0.2503   -0.6295 C   0  0  0  0  0  0  0  0  0  0  0  0
    0.4577    1.0868    0.8494 C   0  0  0  0  0  0  0  0  0  0  0  0
   -2.7478    0.9424   -0.2967 N   0  0  0  0  0  0  0  0  0  0  0  0
   -0.8891    1.2478    1.5037 C   0  0  0  0  0  0  0  0  0  0  0  0
   -1.0757   -0.0618   -1.8689 C   0  0  0  0  0  0  0  0  0  0  0  0
   -0.9930   -1.9401    1.5456 C   0  0  0  0  0  0  0  0  0  0  0  0
    0.6572   -3.0281   -0.0032 C   0  0  0  0  0  0  0  0  0  0  0  0
    2.9851    0.4852   -0.3360 C   0  0  0  0  0  0  0  0  0  0  0  0
    1.5887    1.8308    1.1781 C   0  0  0  0  0  0  0  0  0  0  0  0
   -1.8709    1.1875   -1.4540 C   0  0  0  0  0  0  0  0  0  0  0  0
    2.8364    1.5470    0.5733 C   0  0  0  0  0  0  0  0  0  0  0  0
   -0.4669   -3.2552    0.9797 C   0  0  0  0  0  0  0  0  0  0  0  0
   -2.6131   -1.7569   -0.1792 O   0  0  0  0  0  0  0  0  0  0  0  0
    1.6423   -3.7744    0.0071 O   0  0  0  0  0  0  0  0  0  0  0  0
   -3.5010    2.1493    0.0437 C   0  0  0  0  0  0  0  0  0  0  0  0
    4.1409    0.1107   -0.9521 O   0  0  0  0  0  0  0  0  0  0  0  0
    5.2789    0.9353   -0.7412 C   0  0  0  0  0  0  0  0  0  0  0  0
   -0.2739    0.9974    0.0050 C   0  0  2  0  0  0  0  0  0  0  0  0
   -1.3054    0.6185   -1.0622 C   0  0  2  0  0  0  0  0  0  0  0  0
    0.8233    2.0071   -0.3658 C   0  0  1  0  0  0  0  0  0  0  0  0
    1.9986    1.6633    0.4285 O   0  0  0  0  0  0  0  0  0  0  0  0
    0.6416   -0.1634    0.2359 C   0  0  0  0  0  0  0  0  0  0  0  0
   -2.0213   -0.6770   -0.5155 C   0  0  2  0  0  0  0  0  0  0  0  0
    1.9114    0.2916    0.5429 C   0  0  0  0  0  0  0  0  0  0  0  0
    0.3234   -1.5045    0.1216 C   0  0  0  0  0  0  0  0  0  0  0  0
   -2.5775   -0.5335    0.8570 N   0  0  0  0  0  0  0  0  0  0  0  0
   -1.0287   -1.8885   -0.4273 C   0  0  0  0  0  0  0  0  0  0  0  0
   -0.9608    1.3524    1.3510 C   0  0  0  0  0  0  0  0  0  0  0  0
   -0.6532    0.4236   -2.4454 C   0  0  0  0  0  0  0  0  0  0  0  0
    1.1903    2.0241   -1.8635 C   0  0  0  0  0  0  0  0  0  0  0  0
    2.9192   -0.5889    0.8837 C   0  0  0  0  0  0  0  0  0  0  0  0
    1.3348   -2.4131    0.4280 C   0  0  0  0  0  0  0  0  0  0  0  0
   -2.3621    0.7379    1.5320 C   0  0  0  0  0  0  0  0  0  0  0  0
    2.6131   -1.9577    0.8284 C   0  0  0  0  0  0  0  0  0  0  0  0
    0.1077    1.6782   -2.8627 C   0  0  0  0  0  0  0  0  0  0  0  0
   -2.2672    1.6630   -1.2992 O   0  0  0  0  0  0  0  0  0  0  0  0
    2.2966    2.3875   -2.2622 O   0  0  0  0  0  0  0  0  0  0  0  0
   -3.9730   -0.9566    0.9418 C   0  0  0  0  0  0  0  0  0  0  0  0
    4.1285   -0.0507    1.2097 O   0  0  0  0  0  0  0  0  0  0  0  0
    5.0929   -0.9320    1.7647 C   0  0  0  0  0  0  0  0  0  0  0  0
    2.7400    0.8371   -0.2859 C   0  0  0  0  0  0  0  0  0  0  0  0
   -2.7396   -0.8366    0.4064 C   0  0  0  0  0  0  0  0  0  0  0  0
   -1.3393   -0.3819    0.2326 C   0  0  0  0  0  0  0  0  0  0  0  0
    1.3397    0.3816   -0.1131 C   0  0  0  0  0  0  0  0  0  0  0  0
   -3.1333   -1.9841    0.3063 O   0  0  0  0  0  0  0  0  0  0  0  0
    3.1348    1.9825   -0.1702 O   0  0  0  0  0  0  0  0  0  0  0  0
    0.3705    1.3360    0.2233 C   0  0  0  0  0  0  0  0  0  0  0  0
   -0.9654    0.9578    0.3932 C   0  0  0  0  0  0  0  0  0  0  0  0
    0.9663   -0.9587   -0.2715 C   0  0  0  0  0  0  0  0  0  0  0  0
   -0.3696   -1.3374   -0.1005 C   0  0  0  0  0  0  0  0  0  0  0  0
    3.5804   -0.1644   -0.6034 O   0  0  0  0  0  0  0  0  0  0  0  0
   -3.5843    0.1685    0.6998 O   0  0  0  0  0  0  0  0  0  0  0  0
    0.0630   -2.4541   -1.9663 H   0  0  0  0  0  0  0  0  0  0  0  0
   -2.7849    0.1943    1.6553 H   0  0  0  0  0  0  0  0  0  0  0  0
   -0.7745    0.9409    2.5506 H   0  0  0  0  0  0  0  0  0  0  0  0
   -1.1696    2.3041    1.5147 H   0  0  0  0  0  0  0  0  0  0  0  0
   -0.3162    0.2397   -2.6013 H   0  0  0  0  0  0  0  0  0  0  0  0
   -1.7478   -0.7546   -2.3935 H   0  0  0  0  0  0  0  0  0  0  0  0
   -1.8109   -2.1667    2.2403 H   0  0  0  0  0  0  0  0  0  0  0  0
   -0.2077   -1.4494    2.1298 H   0  0  0  0  0  0  0  0  0  0  0  0
    1.5240    2.6293    1.9139 H   0  0  0  0  0  0  0  0  0  0  0  0
   -2.4823    1.4948   -2.3117 H   0  0  0  0  0  0  0  0  0  0  0  0
   -1.1858    2.0205   -1.2562 H   0  0  0  0  0  0  0  0  0  0  0  0
    3.6804    2.1640    0.8661 H   0  0  0  0  0  0  0  0  0  0  0  0
   -1.2521   -3.8175    0.4676 H   0  0  0  0  0  0  0  0  0  0  0  0
   -0.0973   -3.8770    1.7993 H   0  0  0  0  0  0  0  0  0  0  0  0
   -3.2160   -1.0561   -0.5147 H   0  0  0  0  0  0  0  0  0  0  0  0
   -4.1623    1.9699    0.8987 H   0  0  0  0  0  0  0  0  0  0  0  0
   -4.1487    2.4389   -0.7921 H   0  0  0  0  0  0  0  0  0  0  0  0
   -2.8533    3.0000    0.2774 H   0  0  0  0  0  0  0  0  0  0  0  0
    5.5917    0.9198    0.3088 H   0  0  0  0  0  0  0  0  0  0  0  0
    5.0946    1.9606   -1.0831 H   0  0  0  0  0  0  0  0  0  0  0  0
    6.1010    0.5305   -1.3408 H   0  0  0  0  0  0  0  0  0  0  0  0
    0.5228    3.0316   -0.1145 H   0  0  0  0  0  0  0  0  0  0  0  0
   -2.8283   -0.9353   -1.2137 H   0  0  0  0  0  0  0  0  0  0  0  0
   -1.4573   -2.6993    0.1752 H   0  0  0  0  0  0  0  0  0  0  0  0
   -0.8842   -2.2957   -1.4358 H   0  0  0  0  0  0  0  0  0  0  0  0
   -1.0775    2.4419    1.4271 H   0  0  0  0  0  0  0  0  0  0  0  0
   -0.3344    1.0558    2.2033 H   0  0  0  0  0  0  0  0  0  0  0  0
    0.0357   -0.4265   -2.4714 H   0  0  0  0  0  0  0  0  0  0  0  0
   -1.4289    0.2257   -3.1961 H   0  0  0  0  0  0  0  0  0  0  0  0
    1.1533   -3.4823    0.3538 H   0  0  0  0  0  0  0  0  0  0  0  0
   -3.1204    1.4631    1.2154 H   0  0  0  0  0  0  0  0  0  0  0  0
   -2.5323    0.6058    2.6076 H   0  0  0  0  0  0  0  0  0  0  0  0
    3.3632   -2.7099    1.0554 H   0  0  0  0  0  0  0  0  0  0  0  0
   -0.5517    2.5445   -2.9676 H   0  0  0  0  0  0  0  0  0  0  0  0
    0.5774    1.5044   -3.8372 H   0  0  0  0  0  0  0  0  0  0  0  0
   -2.4554    2.1568   -0.4842 H   0  0  0  0  0  0  0  0  0  0  0  0
   -4.6288   -0.2908    0.3707 H   0  0  0  0  0  0  0  0  0  0  0  0
   -4.0962   -1.9779    0.5626 H   0  0  0  0  0  0  0  0  0  0  0  0
   -4.3139   -0.9660    1.9832 H   0  0  0  0  0  0  0  0  0  0  0  0
    5.9548   -0.3330    2.0798 H   0  0  0  0  0  0  0  0  0  0  0  0
    5.4404   -1.6428    1.0122 H   0  0  0  0  0  0  0  0  0  0  0  0
    4.7036   -1.4487    2.6476 H   0  0  0  0  0  0  0  0  0  0  0  0
    0.6499    2.3805    0.3545 H   0  0  0  0  0  0  0  0  0  0  0  0
   -1.7010    1.7159    0.6552 H   0  0  0  0  0  0  0  0  0  0  0  0
    1.7030   -1.7171   -0.5276 H   0  0  0  0  0  0  0  0  0  0  0  0
   -0.6496   -2.3823   -0.2243 H   0  0  0  0  0  0  0  0  0  0  0  0
    4.4506    0.2790   -0.6815 H   0  0  0  0  0  0  0  0  0  0  0  0
   -4.4530   -0.2764    0.7908 H   0  0  0  0  0  0  0  0  0  0  0  0
 14  7  2  0
 15  8  1  0
 16 11  1  0
 17 15  2  0
 18 13  1  0
  2 19  1  6
 20 13  2  0
 21  9  1  0
  4  7  1  0
 16  9  1  0
  6 10  1  0
 18 12  1  0
 17 14  1  0
 14 22  1  0
 22 23  1  0
  2  1  1  0
  3  1  1  0
  3  4  1  0
  5  1  1  0
  6  2  1  0
  7  5  1  0
  8  5  2  0
  6  9  1  0
 10  8  1  0
  1 11  1  6
 12  2  1  0
 13  3  1  0
 37 30  2  0
 38 31  1  0
 39 34  1  0
 40 38  2  0
 41 36  1  0
 25 42  1  6
 43 36  2  0
 44 32  1  0
 27 30  1  0
 39 32  1  0
 29 33  1  0
 41 35  1  0
 40 37  1  0
 37 45  1  0
 45 46  1  0
 25 24  1  0
 26 24  1  0
 26 27  1  0
 28 24  1  0
 29 25  1  0
 30 28  1  0
 31 28  2  0
 29 32  1  0
 33 31  1  0
 24 34  1  1
 35 25  1  0
 36 26  1  0
 48 49  1  0
 49 56  2  0
 50 47  1  0
 51 48  2  0
 52 47  2  0
 53 50  1  0
 54 53  2  0
 55 50  2  0
 56 55  1  0
 57 47  1  0
 58 48  1  0
 49 54  1  0
  3 59  1  6
  6 60  1  1
 10 61  1  0
 10 62  1  0
 11 63  1  0
 11 64  1  0
 12 65  1  0
 12 66  1  0
 15 67  1  0
 16 68  1  0
 16 69  1  0
 17 70  1  0
 18 71  1  0
 18 72  1  0
 19 73  1  0
 21 74  1  0
 21 75  1  0
 21 76  1  0
 23 77  1  0
 23 78  1  0
 23 79  1  0
 26 80  1  1
 29 81  1  6
 33 82  1  0
 33 83  1  0
 34 84  1  0
 34 85  1  0
 35 86  1  0
 35 87  1  0
 38 88  1  0
 39 89  1  0
 39 90  1  0
 40 91  1  0
 41 92  1  0
 41 93  1  0
 42 94  1  0
 44 95  1  0
 44 96  1  0
 44 97  1  0
 46 98  1  0
 46 99  1  0
 46100  1  0
 53101  1  0
 54102  1  0
 55103  1  0
 56104  1  0
 57105  1  0
 58106  1  0
M  END
$$$$
