
     RDKit          3D

 73 75  0  0  1  0  0  0  0  0999 V2000
    0.0718    1.1308   -1.0591 C   0  0  1  0  0  0  0  0  0  0  0  0
   -0.8674   -0.0875   -0.8308 C   0  0  2  0  0  0  0  0  0  0  0  0
   -5.2818    0.1987    1.5365 C   0  0  0  0  0  0  0  0  0  0  0  0
    1.4542    0.4060   -1.0731 C   0  0  2  0  0  0  0  0  0  0  0  0
   -4.5299    0.3514    0.4266 C   0  0  0  0  0  0  0  0  0  0  0  0
   -4.8074   -0.2487    2.8440 C   0  0  0  0  0  0  0  0  0  0  0  0
   -2.3294    0.3106   -0.7695 C   0  0  0  0  0  0  0  0  0  0  0  0
   -3.1184    0.0476    0.2909 C   0  0  0  0  0  0  0  0  0  0  0  0
    3.9738    0.3498   -0.9153 C   0  0  0  0  0  0  0  0  0  0  0  0
    4.8896    0.3192    0.0681 C   0  0  0  0  0  0  0  0  0  0  0  0
   -0.1925   -0.8418    0.3122 C   0  0  0  0  0  0  0  0  0  0  0  0
    1.3064   -0.6766    0.0354 C   0  0  0  0  0  0  0  0  0  0  0  0
   -6.7778    0.4574    1.5115 C   0  0  0  0  0  0  0  0  0  0  0  0
    2.7472    1.2454   -0.8968 C   0  0  1  0  0  0  0  0  0  0  0  0
   -5.5543   -1.4339    3.4076 C   0  0  0  0  0  0  0  0  0  0  0  0
   -3.8388    0.3852    3.5228 C   0  0  0  0  0  0  0  0  0  0  0  0
    6.1600   -0.5116    0.1027 C   0  0  1  0  0  0  0  0  0  0  0  0
   -0.3361    1.7835   -2.3983 C   0  0  0  0  0  0  0  0  0  0  0  0
   -0.0087    2.1715    0.0844 C   0  0  0  0  0  0  0  0  0  0  0  0
   -7.5906   -0.7187    2.0825 C   0  0  2  0  0  0  0  0  0  0  0  0
   -7.0615   -1.1660    3.4471 C   0  0  0  0  0  0  0  0  0  0  0  0
    6.0527   -1.9351   -0.5207 C   0  0  0  0  0  0  0  0  0  0  0  0
   -2.7586    1.0103   -2.0475 C   0  0  0  0  0  0  0  0  0  0  0  0
   -7.5711   -1.8384    1.1946 O   0  0  0  0  0  0  0  0  0  0  0  0
   -1.8242    2.1667   -2.4274 C   0  0  0  0  0  0  0  0  0  0  0  0
    2.9335    2.3059   -1.9840 C   0  0  0  0  0  0  0  0  0  0  0  0
    7.2846    0.3264   -0.5195 C   0  0  0  0  0  0  0  0  0  0  0  0
    7.3921   -2.6840   -0.4951 C   0  0  0  0  0  0  0  0  0  0  0  0
    5.0079   -2.7892    0.2118 C   0  0  0  0  0  0  0  0  0  0  0  0
   -0.7897   -0.7542   -1.7067 H   0  0  0  0  0  0  0  0  0  0  0  0
    1.5366   -0.1311   -2.0311 H   0  0  0  0  0  0  0  0  0  0  0  0
   -5.0319    0.6975   -0.4722 H   0  0  0  0  0  0  0  0  0  0  0  0
   -2.6843   -0.4736    1.1410 H   0  0  0  0  0  0  0  0  0  0  0  0
    4.1043   -0.2697   -1.8001 H   0  0  0  0  0  0  0  0  0  0  0  0
    4.7511    0.9739    0.9285 H   0  0  0  0  0  0  0  0  0  0  0  0
   -0.4827   -1.8976    0.3350 H   0  0  0  0  0  0  0  0  0  0  0  0
   -0.4326   -0.4130    1.2914 H   0  0  0  0  0  0  0  0  0  0  0  0
    1.8207   -0.3963    0.9617 H   0  0  0  0  0  0  0  0  0  0  0  0
    1.7371   -1.6242   -0.3067 H   0  0  0  0  0  0  0  0  0  0  0  0
   -6.9825    1.3583    2.1054 H   0  0  0  0  0  0  0  0  0  0  0  0
   -7.1151    0.6659    0.4884 H   0  0  0  0  0  0  0  0  0  0  0  0
    2.7063    1.7636    0.0698 H   0  0  0  0  0  0  0  0  0  0  0  0
   -5.3452   -2.3175    2.7911 H   0  0  0  0  0  0  0  0  0  0  0  0
   -5.2088   -1.6726    4.4207 H   0  0  0  0  0  0  0  0  0  0  0  0
   -3.5222    0.0472    4.5044 H   0  0  0  0  0  0  0  0  0  0  0  0
   -3.3379    1.2597    3.1174 H   0  0  0  0  0  0  0  0  0  0  0  0
    6.4070   -0.6450    1.1658 H   0  0  0  0  0  0  0  0  0  0  0  0
   -0.1371    1.0909   -3.2260 H   0  0  0  0  0  0  0  0  0  0  0  0
    0.2518    2.6829   -2.5990 H   0  0  0  0  0  0  0  0  0  0  0  0
    0.5813    3.0625   -0.1545 H   0  0  0  0  0  0  0  0  0  0  0  0
    0.3727    1.7786    1.0325 H   0  0  0  0  0  0  0  0  0  0  0  0
   -1.0329    2.5083    0.2705 H   0  0  0  0  0  0  0  0  0  0  0  0
   -8.6391   -0.4167    2.1840 H   0  0  0  0  0  0  0  0  0  0  0  0
   -7.5741   -2.0798    3.7692 H   0  0  0  0  0  0  0  0  0  0  0  0
   -7.2728   -0.3883    4.1916 H   0  0  0  0  0  0  0  0  0  0  0  0
    5.7493   -1.8535   -1.5721 H   0  0  0  0  0  0  0  0  0  0  0  0
   -2.7580    0.2709   -2.8589 H   0  0  0  0  0  0  0  0  0  0  0  0
   -3.7766    1.4047   -1.9930 H   0  0  0  0  0  0  0  0  0  0  0  0
   -7.7555   -1.5133    0.2973 H   0  0  0  0  0  0  0  0  0  0  0  0
   -2.0826    2.5215   -3.4325 H   0  0  0  0  0  0  0  0  0  0  0  0
   -2.0003    3.0121   -1.7516 H   0  0  0  0  0  0  0  0  0  0  0  0
    2.7968    1.8839   -2.9857 H   0  0  0  0  0  0  0  0  0  0  0  0
    2.2291    3.1314   -1.8557 H   0  0  0  0  0  0  0  0  0  0  0  0
    3.9365    2.7473   -1.9414 H   0  0  0  0  0  0  0  0  0  0  0  0
    8.2682   -0.0984   -0.2957 H   0  0  0  0  0  0  0  0  0  0  0  0
    7.1779    0.3885   -1.6083 H   0  0  0  0  0  0  0  0  0  0  0  0
    7.2856    1.3490   -0.1234 H   0  0  0  0  0  0  0  0  0  0  0  0
    8.1302   -2.2042   -1.1447 H   0  0  0  0  0  0  0  0  0  0  0  0
    7.2717   -3.7111   -0.8565 H   0  0  0  0  0  0  0  0  0  0  0  0
    7.8020   -2.7294    0.5196 H   0  0  0  0  0  0  0  0  0  0  0  0
    5.2646   -2.9047    1.2706 H   0  0  0  0  0  0  0  0  0  0  0  0
    4.9461   -3.7898   -0.2298 H   0  0  0  0  0  0  0  0  0  0  0  0
    4.0095   -2.3494    0.1526 H   0  0  0  0  0  0  0  0  0  0  0  0
  2  1  1  0
  3  5  2  0
  4  1  1  0
  5  8  1  0
  6  3  1  0
  7  2  1  0
  8  7  2  0
  9 14  1  0
 10  9  2  0
  2 11  1  0
  4 12  1  0
 13  3  1  0
 14  4  1  0
 15  6  1  0
 16  6  2  0
 17 10  1  0
 18  1  1  0
  1 19  1  1
 20 13  1  0
 21 20  1  0
 22 17  1  0
 23  7  1  0
 20 24  1  0
 25 18  1  0
 14 26  1  0
 17 27  1  0
 28 22  1  0
 29 22  1  0
 23 25  1  0
 12 11  1  0
 15 21  1  0
  2 30  1  6
  4 31  1  6
  5 32  1  0
  8 33  1  0
  9 34  1  0
 10 35  1  0
 11 36  1  0
 11 37  1  0
 12 38  1  0
 12 39  1  0
 13 40  1  0
 13 41  1  0
 14 42  1  1
 15 43  1  0
 15 44  1  0
 16 45  1  0
 16 46  1  0
 17 47  1  1
 18 48  1  0
 18 49  1  0
 19 50  1  0
 19 51  1  0
 19 52  1  0
 20 53  1  1
 21 54  1  0
 21 55  1  0
 22 56  1  0
 23 57  1  0
 23 58  1  0
 24 59  1  0
 25 60  1  0
 25 61  1  0
 26 62  1  0
 26 63  1  0
 26 64  1  0
 27 65  1  0
 27 66  1  0
 27 67  1  0
 28 68  1  0
 28 69  1  0
 28 70  1  0
 29 71  1  0
 29 72  1  0
 29 73  1  0
M  END
$$$$
