
     RDKit          3D

 73 75  0  0  1  0  0  0  0  0999 V2000
    0.5797    1.9507   -0.1674 C   0  0  1  0  0  0  0  0  0  0  0  0
   -0.7086    1.4621   -0.8861 C   0  0  2  0  0  0  0  0  0  0  0  0
   -4.7697   -0.7919    1.0028 C   0  0  0  0  0  0  0  0  0  0  0  0
    1.5851    1.8376   -1.3519 C   0  0  2  0  0  0  0  0  0  0  0  0
   -3.9239    0.2569    0.9350 C   0  0  0  0  0  0  0  0  0  0  0  0
   -4.6684   -2.0198    0.2224 C   0  0  0  0  0  0  0  0  0  0  0  0
   -1.9020    1.4162    0.0457 C   0  0  0  0  0  0  0  0  0  0  0  0
   -2.7722    0.3868    0.0628 C   0  0  0  0  0  0  0  0  0  0  0  0
    3.8425    0.9089   -0.4520 C   0  0  0  0  0  0  0  0  0  0  0  0
    4.6716    0.0453   -1.0652 C   0  0  0  0  0  0  0  0  0  0  0  0
   -0.2446    0.2097   -1.6397 C   0  0  0  0  0  0  0  0  0  0  0  0
    1.2138    0.4994   -2.0322 C   0  0  0  0  0  0  0  0  0  0  0  0
   -5.9955   -0.7389    1.8966 C   0  0  0  0  0  0  0  0  0  0  0  0
    3.0981    2.0710   -1.0891 C   0  0  1  0  0  0  0  0  0  0  0  0
   -5.8745   -2.3730   -0.6169 C   0  0  0  0  0  0  0  0  0  0  0  0
   -3.6140   -2.8451    0.3216 C   0  0  0  0  0  0  0  0  0  0  0  0
    5.4636   -1.1031   -0.4560 C   0  0  1  0  0  0  0  0  0  0  0  0
    0.3801    3.4013    0.3345 C   0  0  0  0  0  0  0  0  0  0  0  0
    0.9573    1.0520    1.0324 C   0  0  0  0  0  0  0  0  0  0  0  0
   -7.2244   -1.4638    1.3111 C   0  0  2  0  0  0  0  0  0  0  0  0
   -7.1387   -1.6144   -0.2069 C   0  0  0  0  0  0  0  0  0  0  0  0
    5.2831   -1.3498    1.0714 C   0  0  0  0  0  0  0  0  0  0  0  0
   -2.0063    2.6338    0.9517 C   0  0  0  0  0  0  0  0  0  0  0  0
   -8.4196   -0.7579    1.6468 O   0  0  0  0  0  0  0  0  0  0  0  0
   -1.0962    3.7915    0.5189 C   0  0  0  0  0  0  0  0  0  0  0  0
    3.7686    2.5662   -2.3845 C   0  0  0  0  0  0  0  0  0  0  0  0
    5.2078   -2.3644   -1.2953 C   0  0  0  0  0  0  0  0  0  0  0  0
    3.9485   -2.0074    1.4419 C   0  0  0  0  0  0  0  0  0  0  0  0
    6.4316   -2.1946    1.6403 C   0  0  0  0  0  0  0  0  0  0  0  0
   -0.9745    2.1957   -1.6652 H   0  0  0  0  0  0  0  0  0  0  0  0
    1.2826    2.6227   -2.0645 H   0  0  0  0  0  0  0  0  0  0  0  0
   -4.1252    1.1061    1.5847 H   0  0  0  0  0  0  0  0  0  0  0  0
   -2.6222   -0.4304   -0.6385 H   0  0  0  0  0  0  0  0  0  0  0  0
    3.6955    0.8154    0.6190 H   0  0  0  0  0  0  0  0  0  0  0  0
    4.8354    0.1608   -2.1360 H   0  0  0  0  0  0  0  0  0  0  0  0
   -0.2847   -0.6861   -1.0089 H   0  0  0  0  0  0  0  0  0  0  0  0
   -0.8630    0.0171   -2.5230 H   0  0  0  0  0  0  0  0  0  0  0  0
    1.3182    0.5801   -3.1198 H   0  0  0  0  0  0  0  0  0  0  0  0
    1.8411   -0.3357   -1.7071 H   0  0  0  0  0  0  0  0  0  0  0  0
   -5.7502   -1.1957    2.8647 H   0  0  0  0  0  0  0  0  0  0  0  0
   -6.2569    0.3044    2.1191 H   0  0  0  0  0  0  0  0  0  0  0  0
    3.1853    2.9067   -0.3811 H   0  0  0  0  0  0  0  0  0  0  0  0
   -6.0720   -3.4497   -0.5324 H   0  0  0  0  0  0  0  0  0  0  0  0
   -5.6620   -2.1669   -1.6730 H   0  0  0  0  0  0  0  0  0  0  0  0
   -3.5697   -3.7750   -0.2361 H   0  0  0  0  0  0  0  0  0  0  0  0
   -2.7691   -2.6150    0.9645 H   0  0  0  0  0  0  0  0  0  0  0  0
    6.5170   -0.8296   -0.6110 H   0  0  0  0  0  0  0  0  0  0  0  0
    0.9066    3.5495    1.2859 H   0  0  0  0  0  0  0  0  0  0  0  0
    0.8340    4.1202   -0.3592 H   0  0  0  0  0  0  0  0  0  0  0  0
    1.8313    1.4477    1.5589 H   0  0  0  0  0  0  0  0  0  0  0  0
    0.1570    0.9976    1.7764 H   0  0  0  0  0  0  0  0  0  0  0  0
    1.1824    0.0251    0.7315 H   0  0  0  0  0  0  0  0  0  0  0  0
   -7.3061   -2.4579    1.7674 H   0  0  0  0  0  0  0  0  0  0  0  0
   -7.1497   -0.6217   -0.6775 H   0  0  0  0  0  0  0  0  0  0  0  0
   -8.0290   -2.1270   -0.5909 H   0  0  0  0  0  0  0  0  0  0  0  0
    5.3378   -0.3813    1.5853 H   0  0  0  0  0  0  0  0  0  0  0  0
   -1.7470    2.3434    1.9769 H   0  0  0  0  0  0  0  0  0  0  0  0
   -3.0368    3.0079    0.9648 H   0  0  0  0  0  0  0  0  0  0  0  0
   -8.3884    0.1070    1.2021 H   0  0  0  0  0  0  0  0  0  0  0  0
   -1.4721    4.1985   -0.4295 H   0  0  0  0  0  0  0  0  0  0  0  0
   -1.1671    4.6093    1.2458 H   0  0  0  0  0  0  0  0  0  0  0  0
    3.3234    3.5138   -2.7084 H   0  0  0  0  0  0  0  0  0  0  0  0
    3.6517    1.8499   -3.2048 H   0  0  0  0  0  0  0  0  0  0  0  0
    4.8385    2.7486   -2.2333 H   0  0  0  0  0  0  0  0  0  0  0  0
    5.8093   -3.2089   -0.9469 H   0  0  0  0  0  0  0  0  0  0  0  0
    4.1535   -2.6608   -1.2720 H   0  0  0  0  0  0  0  0  0  0  0  0
    5.4746   -2.1943   -2.3449 H   0  0  0  0  0  0  0  0  0  0  0  0
    3.9006   -3.0457    1.0975 H   0  0  0  0  0  0  0  0  0  0  0  0
    3.0964   -1.4732    1.0149 H   0  0  0  0  0  0  0  0  0  0  0  0
    3.8204   -2.0188    2.5299 H   0  0  0  0  0  0  0  0  0  0  0  0
    6.3537   -2.2619    2.7311 H   0  0  0  0  0  0  0  0  0  0  0  0
    6.4255   -3.2151    1.2451 H   0  0  0  0  0  0  0  0  0  0  0  0
    7.4010   -1.7430    1.4059 H   0  0  0  0  0  0  0  0  0  0  0  0
  2  1  1  0
  3  5  2  0
  4  1  1  0
  5  8  1  0
  6  3  1  0
  7  2  1  0
  8  7  2  0
  9 14  1  0
 10  9  2  0
  2 11  1  0
  4 12  1  0
 13  3  1  0
 14  4  1  0
 15  6  1  0
 16  6  2  0
 17 10  1  0
 18  1  1  0
  1 19  1  1
 20 13  1  0
 21 20  1  0
 22 17  1  0
 23  7  1  0
 20 24  1  0
 25 18  1  0
 14 26  1  0
 17 27  1  0
 28 22  1  0
 29 22  1  0
 23 25  1  0
 12 11  1  0
 15 21  1  0
  2 30  1  6
  4 31  1  6
  5 32  1  0
  8 33  1  0
  9 34  1  0
 10 35  1  0
 11 36  1  0
 11 37  1  0
 12 38  1  0
 12 39  1  0
 13 40  1  0
 13 41  1  0
 14 42  1  1
 15 43  1  0
 15 44  1  0
 16 45  1  0
 16 46  1  0
 17 47  1  1
 18 48  1  0
 18 49  1  0
 19 50  1  0
 19 51  1  0
 19 52  1  0
 20 53  1  1
 21 54  1  0
 21 55  1  0
 22 56  1  0
 23 57  1  0
 23 58  1  0
 24 59  1  0
 25 60  1  0
 25 61  1  0
 26 62  1  0
 26 63  1  0
 26 64  1  0
 27 65  1  0
 27 66  1  0
 27 67  1  0
 28 68  1  0
 28 69  1  0
 28 70  1  0
 29 71  1  0
 29 72  1  0
 29 73  1  0
M  END
$$$$
