
     RDKit          3D

 73 75  0  0  1  0  0  0  0  0999 V2000
    0.6290    1.2050    1.8111 C   0  0  1  0  0  0  0  0  0  0  0  0
   -0.5488    1.8816    1.0558 C   0  0  2  0  0  0  0  0  0  0  0  0
   -4.8998   -0.2858   -0.1676 C   0  0  0  0  0  0  0  0  0  0  0  0
    1.8050    2.0551    1.2473 C   0  0  2  0  0  0  0  0  0  0  0  0
   -4.0174    0.1339    0.7623 C   0  0  0  0  0  0  0  0  0  0  0  0
   -4.7580   -0.1531   -1.6168 C   0  0  0  0  0  0  0  0  0  0  0  0
   -1.8867    1.2722    1.4264 C   0  0  0  0  0  0  0  0  0  0  0  0
   -2.7279    0.7482    0.5135 C   0  0  0  0  0  0  0  0  0  0  0  0
    3.7689    0.3535    1.0411 C   0  0  0  0  0  0  0  0  0  0  0  0
    4.4631    0.1425   -0.0906 C   0  0  0  0  0  0  0  0  0  0  0  0
   -0.0421    1.9384   -0.3896 C   0  0  0  0  0  0  0  0  0  0  0  0
    1.4702    2.1965   -0.2578 C   0  0  0  0  0  0  0  0  0  0  0  0
   -6.1687   -1.0106    0.2322 C   0  0  0  0  0  0  0  0  0  0  0  0
    3.2713    1.6770    1.5835 C   0  0  1  0  0  0  0  0  0  0  0  0
   -4.8866   -1.4475   -2.3840 C   0  0  0  0  0  0  0  0  0  0  0  0
   -4.6037    1.0334   -2.2250 C   0  0  0  0  0  0  0  0  0  0  0  0
    4.9722   -1.2194   -0.5213 C   0  0  1  0  0  0  0  0  0  0  0  0
    0.4013    1.3824    3.3254 C   0  0  0  0  0  0  0  0  0  0  0  0
    0.7416   -0.3016    1.4779 C   0  0  0  0  0  0  0  0  0  0  0  0
   -6.3160   -2.3489   -0.5072 C   0  0  2  0  0  0  0  0  0  0  0  0
   -6.1813   -2.1738   -2.0225 C   0  0  0  0  0  0  0  0  0  0  0  0
    4.3949   -1.6406   -1.9026 C   0  0  0  0  0  0  0  0  0  0  0  0
   -2.1342    1.3689    2.9243 C   0  0  0  0  0  0  0  0  0  0  0  0
   -7.5824   -2.9364   -0.2102 O   0  0  0  0  0  0  0  0  0  0  0  0
   -0.9642    0.8283    3.7626 C   0  0  0  0  0  0  0  0  0  0  0  0
    4.2087    2.8418    1.2159 C   0  0  0  0  0  0  0  0  0  0  0  0
    6.5052   -1.1738   -0.5147 C   0  0  0  0  0  0  0  0  0  0  0  0
    4.9521   -2.9896   -2.3742 C   0  0  0  0  0  0  0  0  0  0  0  0
    2.8626   -1.7267   -1.8758 C   0  0  0  0  0  0  0  0  0  0  0  0
   -0.6186    2.9331    1.3832 H   0  0  0  0  0  0  0  0  0  0  0  0
    1.6712    3.0638    1.6726 H   0  0  0  0  0  0  0  0  0  0  0  0
   -4.2759   -0.0337    1.8039 H   0  0  0  0  0  0  0  0  0  0  0  0
   -2.4238    0.7605   -0.5302 H   0  0  0  0  0  0  0  0  0  0  0  0
    3.5726   -0.5052    1.6811 H   0  0  0  0  0  0  0  0  0  0  0  0
    4.6947    0.9728   -0.7540 H   0  0  0  0  0  0  0  0  0  0  0  0
   -0.2053    0.9951   -0.9226 H   0  0  0  0  0  0  0  0  0  0  0  0
   -0.5356    2.7302   -0.9628 H   0  0  0  0  0  0  0  0  0  0  0  0
    2.0186    1.4875   -0.8832 H   0  0  0  0  0  0  0  0  0  0  0  0
    1.7223    3.2028   -0.6106 H   0  0  0  0  0  0  0  0  0  0  0  0
   -7.0350   -0.3694    0.0180 H   0  0  0  0  0  0  0  0  0  0  0  0
   -6.2086   -1.1969    1.3132 H   0  0  0  0  0  0  0  0  0  0  0  0
    3.3352    1.5884    2.6770 H   0  0  0  0  0  0  0  0  0  0  0  0
   -4.0255   -2.0875   -2.1526 H   0  0  0  0  0  0  0  0  0  0  0  0
   -4.8642   -1.2711   -3.4662 H   0  0  0  0  0  0  0  0  0  0  0  0
   -4.5290    1.1127   -3.3049 H   0  0  0  0  0  0  0  0  0  0  0  0
   -4.5514    1.9594   -1.6591 H   0  0  0  0  0  0  0  0  0  0  0  0
    4.6654   -1.9703    0.2201 H   0  0  0  0  0  0  0  0  0  0  0  0
    0.4448    2.4470    3.5896 H   0  0  0  0  0  0  0  0  0  0  0  0
    1.1970    0.8893    3.8960 H   0  0  0  0  0  0  0  0  0  0  0  0
    1.4436   -0.8007    2.1527 H   0  0  0  0  0  0  0  0  0  0  0  0
   -0.2123   -0.8264    1.5902 H   0  0  0  0  0  0  0  0  0  0  0  0
    1.0739   -0.4799    0.4518 H   0  0  0  0  0  0  0  0  0  0  0  0
   -5.5471   -3.0468   -0.1539 H   0  0  0  0  0  0  0  0  0  0  0  0
   -6.2148   -3.1542   -2.5131 H   0  0  0  0  0  0  0  0  0  0  0  0
   -7.0452   -1.6172   -2.4103 H   0  0  0  0  0  0  0  0  0  0  0  0
    4.6728   -0.8871   -2.6516 H   0  0  0  0  0  0  0  0  0  0  0  0
   -2.2849    2.4277    3.1733 H   0  0  0  0  0  0  0  0  0  0  0  0
   -3.0449    0.8525    3.2380 H   0  0  0  0  0  0  0  0  0  0  0  0
   -8.2742   -2.3307   -0.5282 H   0  0  0  0  0  0  0  0  0  0  0  0
   -0.9536   -0.2670    3.7081 H   0  0  0  0  0  0  0  0  0  0  0  0
   -1.1317    1.0796    4.8168 H   0  0  0  0  0  0  0  0  0  0  0  0
    5.2456    2.6140    1.4882 H   0  0  0  0  0  0  0  0  0  0  0  0
    4.1803    3.0730    0.1458 H   0  0  0  0  0  0  0  0  0  0  0  0
    3.9227    3.7511    1.7571 H   0  0  0  0  0  0  0  0  0  0  0  0
    6.8859   -0.7724    0.4318 H   0  0  0  0  0  0  0  0  0  0  0  0
    6.9314   -2.1752   -0.6275 H   0  0  0  0  0  0  0  0  0  0  0  0
    6.8897   -0.5454   -1.3258 H   0  0  0  0  0  0  0  0  0  0  0  0
    6.0276   -2.9327   -2.5684 H   0  0  0  0  0  0  0  0  0  0  0  0
    4.7776   -3.7725   -1.6287 H   0  0  0  0  0  0  0  0  0  0  0  0
    4.4771   -3.3026   -3.3110 H   0  0  0  0  0  0  0  0  0  0  0  0
    2.4105   -0.7492   -1.6889 H   0  0  0  0  0  0  0  0  0  0  0  0
    2.5179   -2.4185   -1.0998 H   0  0  0  0  0  0  0  0  0  0  0  0
    2.4748   -2.0787   -2.8378 H   0  0  0  0  0  0  0  0  0  0  0  0
  2  1  1  0
  3  5  2  0
  4  1  1  0
  5  8  1  0
  6  3  1  0
  7  2  1  0
  8  7  2  0
  9 14  1  0
 10  9  2  0
  2 11  1  0
  4 12  1  0
 13  3  1  0
 14  4  1  0
 15  6  1  0
 16  6  2  0
 17 10  1  0
 18  1  1  0
  1 19  1  1
 20 13  1  0
 21 20  1  0
 22 17  1  0
 23  7  1  0
 20 24  1  0
 25 18  1  0
 14 26  1  0
 17 27  1  0
 28 22  1  0
 29 22  1  0
 23 25  1  0
 12 11  1  0
 15 21  1  0
  2 30  1  1
  4 31  1  1
  5 32  1  0
  8 33  1  0
  9 34  1  0
 10 35  1  0
 11 36  1  0
 11 37  1  0
 12 38  1  0
 12 39  1  0
 13 40  1  0
 13 41  1  0
 14 42  1  1
 15 43  1  0
 15 44  1  0
 16 45  1  0
 16 46  1  0
 17 47  1  1
 18 48  1  0
 18 49  1  0
 19 50  1  0
 19 51  1  0
 19 52  1  0
 20 53  1  1
 21 54  1  0
 21 55  1  0
 22 56  1  0
 23 57  1  0
 23 58  1  0
 24 59  1  0
 25 60  1  0
 25 61  1  0
 26 62  1  0
 26 63  1  0
 26 64  1  0
 27 65  1  0
 27 66  1  0
 27 67  1  0
 28 68  1  0
 28 69  1  0
 28 70  1  0
 29 71  1  0
 29 72  1  0
 29 73  1  0
M  END
$$$$
