
     RDKit          2D

 31 33  0  0  1  0  0  0  0  0999 V2000
    1.1250   -8.2792    0.0000 C   0  0  0  0  0  0  0  0  0  0  0  0
    1.1292   -8.9833    0.0000 C   0  0  0  0  0  0  0  0  0  0  0  0
   -0.1000  -11.1125    0.0000 C   0  0  0  0  0  0  0  0  0  0  0  0
    1.7958   -8.0542    0.0000 C   0  0  0  0  0  0  0  0  0  0  0  0
   -0.1000  -10.4042    0.0000 C   0  0  0  0  0  0  0  0  0  0  0  0
    0.5125  -11.4583    0.0000 C   0  0  0  0  0  0  0  0  0  0  0  0
    0.5125   -9.3417    0.0000 C   0  0  0  0  0  0  0  0  0  0  0  0
    0.5125  -10.0500    0.0000 C   0  0  0  0  0  0  0  0  0  0  0  0
    2.4000   -6.9833    0.0000 C   0  0  0  0  0  0  0  0  0  0  0  0
    3.0167   -7.3333    0.0000 C   0  0  0  0  0  0  0  0  0  0  0  0
    1.8000   -9.1958    0.0000 C   0  0  0  0  0  0  0  0  0  0  0  0
    2.2125   -8.6250    0.0000 C   0  0  0  0  0  0  0  0  0  0  0  0
   -0.7167  -11.4625    0.0000 C   0  0  0  0  0  0  0  0  0  0  0  0
    1.7917   -7.3417    0.0000 C   0  0  0  0  0  0  0  0  0  0  0  0
    0.5125  -12.1708    0.0000 C   0  0  0  0  0  0  0  0  0  0  0  0
    1.1250  -11.1042    0.0000 C   0  0  0  0  0  0  0  0  0  0  0  0
    3.6250   -6.9750    0.0000 C   0  0  0  0  0  0  0  0  0  0  0  0
    0.5125   -7.9250    0.0000 C   0  0  0  0  0  0  0  0  0  0  0  0
    1.1167   -7.5667    0.0000 C   0  0  0  0  0  0  0  0  0  0  0  0
   -0.7167  -12.1667    0.0000 C   0  0  0  0  0  0  0  0  0  0  0  0
   -0.1042  -12.5250    0.0000 C   0  0  0  0  0  0  0  0  0  0  0  0
    4.2417   -7.3208    0.0000 C   0  0  0  0  0  0  0  0  0  0  0  0
   -0.0958   -8.9875    0.0000 C   0  0  0  0  0  0  0  0  0  0  0  0
   -1.3292  -12.5167    0.0000 O   0  0  0  0  0  0  0  0  0  0  0  0
   -0.0958   -8.2792    0.0000 C   0  0  0  0  0  0  0  0  0  0  0  0
    1.1750   -6.9958    0.0000 C   0  0  0  0  0  0  0  0  0  0  0  0
    3.6208   -6.2667    0.0000 C   0  0  0  0  0  0  0  0  0  0  0  0
    4.8542   -6.9625    0.0000 C   0  0  0  0  0  0  0  0  0  0  0  0
    4.2500   -8.0292    0.0000 C   0  0  0  0  0  0  0  0  0  0  0  0
    1.1250   -9.6917    0.0000 H   0  0  0  0  0  0  0  0  0  0  0  0
    2.4042   -7.6917    0.0000 H   0  0  0  0  0  0  0  0  0  0  0  0
  2  1  1  0
  3  5  2  0
  4  1  1  0
  5  8  1  0
  6  3  1  0
  7  2  1  0
  8  7  2  0
  9 14  1  0
 10  9  2  0
 11  2  1  0
 12  4  1  0
 13  3  1  0
 14  4  1  0
 15  6  1  0
 16  6  2  0
 17 10  1  0
 18  1  1  0
  1 19  1  1
 20 13  1  0
 21 20  1  0
 22 17  1  0
 23  7  1  0
 20 24  1  6
 25 18  1  0
 14 26  1  6
 17 27  1  6
 28 22  1  0
 29 22  1  0
  2 30  1  6
  4 31  1  6
 23 25  1  0
 12 11  1  0
 15 21  1  0
M  END
> <chembl_id>
CHEMBL1536

> <chembl_pref_name>
ERGOCALCIFEROL
