
     RDKit          3D

 73 75  0  0  1  0  0  0  0  0999 V2000
    0.6770   -0.3442    0.9078 C   0  0  1  0  0  0  0  0  0  0  0  0
   -0.7627   -0.7588    1.3315 C   0  0  2  0  0  0  0  0  0  0  0  0
   -5.1760   -0.0320   -0.9554 C   0  0  0  0  0  0  0  0  0  0  0  0
    1.3422   -0.2196    2.3165 C   0  0  2  0  0  0  0  0  0  0  0  0
   -3.8934   -0.4518   -0.9552 C   0  0  0  0  0  0  0  0  0  0  0  0
   -5.8977    0.5135    0.1884 C   0  0  0  0  0  0  0  0  0  0  0  0
   -1.7003   -0.8859    0.1463 C   0  0  0  0  0  0  0  0  0  0  0  0
   -2.9617   -0.4110    0.1564 C   0  0  0  0  0  0  0  0  0  0  0  0
    3.8047   -0.3514    1.6938 C   0  0  0  0  0  0  0  0  0  0  0  0
    4.5632    0.1318    0.6954 C   0  0  0  0  0  0  0  0  0  0  0  0
   -1.0927    0.1974    2.4790 C   0  0  0  0  0  0  0  0  0  0  0  0
    0.2439    0.4334    3.1934 C   0  0  0  0  0  0  0  0  0  0  0  0
   -5.9871   -0.0264   -2.2415 C   0  0  0  0  0  0  0  0  0  0  0  0
    2.7613    0.3944    2.5051 C   0  0  1  0  0  0  0  0  0  0  0  0
   -6.5291    1.8714   -0.0120 C   0  0  0  0  0  0  0  0  0  0  0  0
   -6.0866   -0.1849    1.3198 C   0  0  0  0  0  0  0  0  0  0  0  0
    5.6084   -0.6835   -0.0394 C   0  0  1  0  0  0  0  0  0  0  0  0
    1.2729   -1.4587    0.0103 C   0  0  0  0  0  0  0  0  0  0  0  0
    0.6982    0.9929    0.1326 C   0  0  0  0  0  0  0  0  0  0  0  0
   -6.8342    1.2470   -2.4449 C   0  0  2  0  0  0  0  0  0  0  0  0
   -6.4694    2.3614   -1.4640 C   0  0  0  0  0  0  0  0  0  0  0  0
    5.1772   -0.9847   -1.5021 C   0  0  0  0  0  0  0  0  0  0  0  0
   -1.0765   -1.5993   -1.0424 C   0  0  0  0  0  0  0  0  0  0  0  0
   -8.2193    0.9192   -2.2977 O   0  0  0  0  0  0  0  0  0  0  0  0
    0.2187   -2.3362   -0.6863 C   0  0  0  0  0  0  0  0  0  0  0  0
    2.8742    1.9230    2.4086 C   0  0  0  0  0  0  0  0  0  0  0  0
    6.9637    0.0224    0.0785 C   0  0  0  0  0  0  0  0  0  0  0  0
    6.1191   -1.9925   -2.1708 C   0  0  0  0  0  0  0  0  0  0  0  0
    5.0456    0.2572   -2.3907 C   0  0  0  0  0  0  0  0  0  0  0  0
   -0.7163   -1.7636    1.7833 H   0  0  0  0  0  0  0  0  0  0  0  0
    1.4327   -1.2524    2.6940 H   0  0  0  0  0  0  0  0  0  0  0  0
   -3.4899   -0.8294   -1.8924 H   0  0  0  0  0  0  0  0  0  0  0  0
   -3.3304    0.0743    1.0568 H   0  0  0  0  0  0  0  0  0  0  0  0
    3.9421   -1.3922    1.9870 H   0  0  0  0  0  0  0  0  0  0  0  0
    4.4501    1.1658    0.3788 H   0  0  0  0  0  0  0  0  0  0  0  0
   -1.4877    1.1524    2.1133 H   0  0  0  0  0  0  0  0  0  0  0  0
   -1.8384   -0.2264    3.1602 H   0  0  0  0  0  0  0  0  0  0  0  0
    0.2391   -0.0208    4.1907 H   0  0  0  0  0  0  0  0  0  0  0  0
    0.3785    1.5082    3.3323 H   0  0  0  0  0  0  0  0  0  0  0  0
   -6.6268   -0.9179   -2.2609 H   0  0  0  0  0  0  0  0  0  0  0  0
   -5.3054   -0.1126   -3.0978 H   0  0  0  0  0  0  0  0  0  0  0  0
    3.0277    0.1789    3.5520 H   0  0  0  0  0  0  0  0  0  0  0  0
   -6.0274    2.6072    0.6283 H   0  0  0  0  0  0  0  0  0  0  0  0
   -7.5797    1.8320    0.3048 H   0  0  0  0  0  0  0  0  0  0  0  0
   -5.6825   -1.1855    1.4465 H   0  0  0  0  0  0  0  0  0  0  0  0
   -6.6652    0.2221    2.1428 H   0  0  0  0  0  0  0  0  0  0  0  0
    5.7123   -1.6507    0.4727 H   0  0  0  0  0  0  0  0  0  0  0  0
    1.9177   -2.1279    0.5919 H   0  0  0  0  0  0  0  0  0  0  0  0
    1.9179   -1.0165   -0.7581 H   0  0  0  0  0  0  0  0  0  0  0  0
    0.3445    1.8326    0.7387 H   0  0  0  0  0  0  0  0  0  0  0  0
    1.7097    1.2294   -0.2119 H   0  0  0  0  0  0  0  0  0  0  0  0
    0.0740    0.9619   -0.7652 H   0  0  0  0  0  0  0  0  0  0  0  0
   -6.7078    1.6025   -3.4739 H   0  0  0  0  0  0  0  0  0  0  0  0
   -7.1534    3.2108   -1.5775 H   0  0  0  0  0  0  0  0  0  0  0  0
   -5.4597    2.7288   -1.6864 H   0  0  0  0  0  0  0  0  0  0  0  0
    4.1879   -1.4604   -1.4628 H   0  0  0  0  0  0  0  0  0  0  0  0
   -1.7787   -2.3350   -1.4526 H   0  0  0  0  0  0  0  0  0  0  0  0
   -0.8634   -0.8693   -1.8325 H   0  0  0  0  0  0  0  0  0  0  0  0
   -8.7332    1.7270   -2.4668 H   0  0  0  0  0  0  0  0  0  0  0  0
    0.6549   -2.7777   -1.5906 H   0  0  0  0  0  0  0  0  0  0  0  0
   -0.0256   -3.1811   -0.0277 H   0  0  0  0  0  0  0  0  0  0  0  0
    2.2402    2.4253    3.1433 H   0  0  0  0  0  0  0  0  0  0  0  0
    2.6231    2.3143    1.4220 H   0  0  0  0  0  0  0  0  0  0  0  0
    3.9006    2.2425    2.6291 H   0  0  0  0  0  0  0  0  0  0  0  0
    7.7621   -0.5667   -0.3824 H   0  0  0  0  0  0  0  0  0  0  0  0
    7.2352    0.1630    1.1315 H   0  0  0  0  0  0  0  0  0  0  0  0
    6.9542    1.0118   -0.3909 H   0  0  0  0  0  0  0  0  0  0  0  0
    6.2397   -2.8866   -1.5507 H   0  0  0  0  0  0  0  0  0  0  0  0
    7.1098   -1.5655   -2.3544 H   0  0  0  0  0  0  0  0  0  0  0  0
    5.7147   -2.3128   -3.1370 H   0  0  0  0  0  0  0  0  0  0  0  0
    4.3265    0.9721   -1.9807 H   0  0  0  0  0  0  0  0  0  0  0  0
    6.0052    0.7680   -2.5196 H   0  0  0  0  0  0  0  0  0  0  0  0
    4.6874   -0.0241   -3.3879 H   0  0  0  0  0  0  0  0  0  0  0  0
  2  1  1  0
  3  5  2  0
  4  1  1  0
  5  8  1  0
  6  3  1  0
  7  2  1  0
  8  7  2  0
  9 14  1  0
 10  9  2  0
  2 11  1  0
  4 12  1  0
 13  3  1  0
 14  4  1  0
 15  6  1  0
 16  6  2  0
 17 10  1  0
 18  1  1  0
  1 19  1  6
 20 13  1  0
 21 20  1  0
 22 17  1  0
 23  7  1  0
 20 24  1  0
 25 18  1  0
 14 26  1  0
 17 27  1  0
 28 22  1  0
 29 22  1  0
 23 25  1  0
 12 11  1  0
 15 21  1  0
  2 30  1  1
  4 31  1  1
  5 32  1  0
  8 33  1  0
  9 34  1  0
 10 35  1  0
 11 36  1  0
 11 37  1  0
 12 38  1  0
 12 39  1  0
 13 40  1  0
 13 41  1  0
 14 42  1  1
 15 43  1  0
 15 44  1  0
 16 45  1  0
 16 46  1  0
 17 47  1  1
 18 48  1  0
 18 49  1  0
 19 50  1  0
 19 51  1  0
 19 52  1  0
 20 53  1  6
 21 54  1  0
 21 55  1  0
 22 56  1  0
 23 57  1  0
 23 58  1  0
 24 59  1  0
 25 60  1  0
 25 61  1  0
 26 62  1  0
 26 63  1  0
 26 64  1  0
 27 65  1  0
 27 66  1  0
 27 67  1  0
 28 68  1  0
 28 69  1  0
 28 70  1  0
 29 71  1  0
 29 72  1  0
 29 73  1  0
M  END
$$$$
