
     RDKit          3D

 73 75  0  0  1  0  0  0  0  0999 V2000
   -0.1414    0.6992   -1.1260 C   0  0  1  0  0  0  0  0  0  0  0  0
    0.8178    0.9248    0.0766 C   0  0  2  0  0  0  0  0  0  0  0  0
    5.7787    0.2863    0.5113 C   0  0  0  0  0  0  0  0  0  0  0  0
   -1.4701    0.3994   -0.3621 C   0  0  2  0  0  0  0  0  0  0  0  0
    4.6985    0.7780   -0.1304 C   0  0  0  0  0  0  0  0  0  0  0  0
    5.7506   -0.4869    1.7470 C   0  0  0  0  0  0  0  0  0  0  0  0
    2.2478    1.1731   -0.3625 C   0  0  0  0  0  0  0  0  0  0  0  0
    3.3091    0.6149    0.2538 C   0  0  0  0  0  0  0  0  0  0  0  0
   -3.8161   -0.5149   -0.1875 C   0  0  0  0  0  0  0  0  0  0  0  0
   -4.9509    0.1921   -0.0437 C   0  0  0  0  0  0  0  0  0  0  0  0
    0.4920   -0.2311    1.0230 C   0  0  0  0  0  0  0  0  0  0  0  0
   -1.0056   -0.4873    0.8261 C   0  0  0  0  0  0  0  0  0  0  0  0
    7.1660    0.4597   -0.0906 C   0  0  0  0  0  0  0  0  0  0  0  0
   -2.6631   -0.2233   -1.1404 C   0  0  1  0  0  0  0  0  0  0  0  0
    6.4086   -1.8468    1.6919 C   0  0  0  0  0  0  0  0  0  0  0  0
    5.2744    0.0203    2.8955 C   0  0  0  0  0  0  0  0  0  0  0  0
   -6.1026   -0.0918    0.9077 C   0  0  1  0  0  0  0  0  0  0  0  0
   -0.1739    1.9827   -1.9928 C   0  0  0  0  0  0  0  0  0  0  0  0
    0.2853   -0.5053   -2.0043 C   0  0  0  0  0  0  0  0  0  0  0  0
    8.1663   -0.6437    0.3062 C   0  0  2  0  0  0  0  0  0  0  0  0
    7.4653   -1.9719    0.5861 C   0  0  0  0  0  0  0  0  0  0  0  0
   -7.4068   -0.3740    0.1061 C   0  0  0  0  0  0  0  0  0  0  0  0
    2.3600    2.1142   -1.5507 C   0  0  0  0  0  0  0  0  0  0  0  0
    8.9274   -0.2476    1.4508 O   0  0  0  0  0  0  0  0  0  0  0  0
    1.0634    2.8814   -1.8291 C   0  0  0  0  0  0  0  0  0  0  0  0
   -3.0961    0.6170   -2.3478 C   0  0  0  0  0  0  0  0  0  0  0  0
   -5.7986   -1.1529    1.9747 C   0  0  0  0  0  0  0  0  0  0  0  0
   -8.6469   -0.3679    1.0064 C   0  0  0  0  0  0  0  0  0  0  0  0
   -7.3638   -1.6774   -0.6998 C   0  0  0  0  0  0  0  0  0  0  0  0
    0.5035    1.8409    0.6033 H   0  0  0  0  0  0  0  0  0  0  0  0
   -1.8233    1.3478    0.0730 H   0  0  0  0  0  0  0  0  0  0  0  0
    4.8722    1.3314   -1.0514 H   0  0  0  0  0  0  0  0  0  0  0  0
    3.1333   -0.0348    1.1076 H   0  0  0  0  0  0  0  0  0  0  0  0
   -3.6717   -1.4062    0.4206 H   0  0  0  0  0  0  0  0  0  0  0  0
   -5.0946    1.0861   -0.6488 H   0  0  0  0  0  0  0  0  0  0  0  0
    1.0563   -1.1377    0.7755 H   0  0  0  0  0  0  0  0  0  0  0  0
    0.7193    0.0211    2.0645 H   0  0  0  0  0  0  0  0  0  0  0  0
   -1.5642   -0.2346    1.7345 H   0  0  0  0  0  0  0  0  0  0  0  0
   -1.1670   -1.5533    0.6278 H   0  0  0  0  0  0  0  0  0  0  0  0
    7.0752    0.4518   -1.1849 H   0  0  0  0  0  0  0  0  0  0  0  0
    7.5596    1.4412    0.2016 H   0  0  0  0  0  0  0  0  0  0  0  0
   -2.3559   -1.2005   -1.5366 H   0  0  0  0  0  0  0  0  0  0  0  0
    5.6443   -2.6195    1.5433 H   0  0  0  0  0  0  0  0  0  0  0  0
    6.8881   -2.0592    2.6567 H   0  0  0  0  0  0  0  0  0  0  0  0
    5.2945   -0.5516    3.8181 H   0  0  0  0  0  0  0  0  0  0  0  0
    4.8482    1.0186    2.9446 H   0  0  0  0  0  0  0  0  0  0  0  0
   -6.2589    0.8487    1.4559 H   0  0  0  0  0  0  0  0  0  0  0  0
   -0.2710    1.7202   -3.0535 H   0  0  0  0  0  0  0  0  0  0  0  0
   -1.0549    2.5905   -1.7549 H   0  0  0  0  0  0  0  0  0  0  0  0
    1.2751   -0.3614   -2.4472 H   0  0  0  0  0  0  0  0  0  0  0  0
    0.3165   -1.4430   -1.4413 H   0  0  0  0  0  0  0  0  0  0  0  0
   -0.4085   -0.6552   -2.8375 H   0  0  0  0  0  0  0  0  0  0  0  0
    8.8907   -0.7774   -0.5048 H   0  0  0  0  0  0  0  0  0  0  0  0
    8.1960   -2.7338    0.8825 H   0  0  0  0  0  0  0  0  0  0  0  0
    6.9856   -2.3276   -0.3347 H   0  0  0  0  0  0  0  0  0  0  0  0
   -7.5386    0.4465   -0.6137 H   0  0  0  0  0  0  0  0  0  0  0  0
    3.1541    2.8501   -1.3775 H   0  0  0  0  0  0  0  0  0  0  0  0
    2.6314    1.5386   -2.4436 H   0  0  0  0  0  0  0  0  0  0  0  0
    8.3024    0.0632    2.1299 H   0  0  0  0  0  0  0  0  0  0  0  0
    0.8829    3.5828   -1.0034 H   0  0  0  0  0  0  0  0  0  0  0  0
    1.1841    3.4995   -2.7268 H   0  0  0  0  0  0  0  0  0  0  0  0
   -2.3309    0.6175   -3.1279 H   0  0  0  0  0  0  0  0  0  0  0  0
   -4.0041    0.2088   -2.8068 H   0  0  0  0  0  0  0  0  0  0  0  0
   -3.2946    1.6571   -2.0687 H   0  0  0  0  0  0  0  0  0  0  0  0
   -6.6098   -1.2231    2.7059 H   0  0  0  0  0  0  0  0  0  0  0  0
   -5.6500   -2.1467    1.5409 H   0  0  0  0  0  0  0  0  0  0  0  0
   -4.8926   -0.8922    2.5341 H   0  0  0  0  0  0  0  0  0  0  0  0
   -9.5591   -0.4133    0.4013 H   0  0  0  0  0  0  0  0  0  0  0  0
   -8.6620   -1.2250    1.6871 H   0  0  0  0  0  0  0  0  0  0  0  0
   -8.6915    0.5481    1.6044 H   0  0  0  0  0  0  0  0  0  0  0  0
   -7.2965   -2.5550   -0.0491 H   0  0  0  0  0  0  0  0  0  0  0  0
   -6.5149   -1.6959   -1.3897 H   0  0  0  0  0  0  0  0  0  0  0  0
   -8.2737   -1.7837   -1.3011 H   0  0  0  0  0  0  0  0  0  0  0  0
  2  1  1  0
  3  5  2  0
  4  1  1  0
  5  8  1  0
  6  3  1  0
  7  2  1  0
  8  7  2  0
  9 14  1  0
 10  9  2  0
  2 11  1  0
  4 12  1  0
 13  3  1  0
 14  4  1  0
 15  6  1  0
 16  6  2  0
 17 10  1  0
 18  1  1  0
  1 19  1  6
 20 13  1  0
 21 20  1  0
 22 17  1  0
 23  7  1  0
 20 24  1  0
 25 18  1  0
 14 26  1  0
 17 27  1  0
 28 22  1  0
 29 22  1  0
 23 25  1  0
 12 11  1  0
 15 21  1  0
  2 30  1  1
  4 31  1  1
  5 32  1  0
  8 33  1  0
  9 34  1  0
 10 35  1  0
 11 36  1  0
 11 37  1  0
 12 38  1  0
 12 39  1  0
 13 40  1  0
 13 41  1  0
 14 42  1  6
 15 43  1  0
 15 44  1  0
 16 45  1  0
 16 46  1  0
 17 47  1  1
 18 48  1  0
 18 49  1  0
 19 50  1  0
 19 51  1  0
 19 52  1  0
 20 53  1  6
 21 54  1  0
 21 55  1  0
 22 56  1  0
 23 57  1  0
 23 58  1  0
 24 59  1  0
 25 60  1  0
 25 61  1  0
 26 62  1  0
 26 63  1  0
 26 64  1  0
 27 65  1  0
 27 66  1  0
 27 67  1  0
 28 68  1  0
 28 69  1  0
 28 70  1  0
 29 71  1  0
 29 72  1  0
 29 73  1  0
M  END
$$$$
