
     RDKit          3D

 73 75  0  0  1  0  0  0  0  0999 V2000
    0.6621    1.2055    1.2369 C   0  0  1  0  0  0  0  0  0  0  0  0
   -0.6592    1.7071    0.5895 C   0  0  2  0  0  0  0  0  0  0  0  0
   -5.3250   -0.1341    0.6690 C   0  0  0  0  0  0  0  0  0  0  0  0
    1.6813    1.8569    0.2543 C   0  0  2  0  0  0  0  0  0  0  0  0
   -4.1856    0.2336    1.2915 C   0  0  0  0  0  0  0  0  0  0  0  0
   -5.5755   -0.0390   -0.7641 C   0  0  0  0  0  0  0  0  0  0  0  0
   -1.8878    1.1997    1.3160 C   0  0  0  0  0  0  0  0  0  0  0  0
   -2.9859    0.7606    0.6692 C   0  0  0  0  0  0  0  0  0  0  0  0
    3.6050    0.1374   -0.0743 C   0  0  0  0  0  0  0  0  0  0  0  0
    4.1536   -0.1980   -1.2556 C   0  0  0  0  0  0  0  0  0  0  0  0
   -0.4531    1.4277   -0.9041 C   0  0  0  0  0  0  0  0  0  0  0  0
    1.0538    1.6253   -1.1402 C   0  0  0  0  0  0  0  0  0  0  0  0
   -6.4558   -0.7707    1.4647 C   0  0  0  0  0  0  0  0  0  0  0  0
    3.1922    1.5237    0.3825 C   0  0  1  0  0  0  0  0  0  0  0  0
   -5.9648   -1.3263   -1.4540 C   0  0  0  0  0  0  0  0  0  0  0  0
   -5.5761    1.1370   -1.4122 C   0  0  0  0  0  0  0  0  0  0  0  0
    4.5822   -1.5868   -1.7017 C   0  0  1  0  0  0  0  0  0  0  0  0
    0.7716    1.7435    2.6842 C   0  0  0  0  0  0  0  0  0  0  0  0
    0.7470   -0.3392    1.2632 C   0  0  0  0  0  0  0  0  0  0  0  0
   -7.3579   -1.7073    0.6374 C   0  0  2  0  0  0  0  0  0  0  0  0
   -6.5933   -2.3617   -0.5117 C   0  0  0  0  0  0  0  0  0  0  0  0
    6.1209   -1.7790   -1.5513 C   0  0  0  0  0  0  0  0  0  0  0  0
   -1.7568    1.2500    2.8308 C   0  0  0  0  0  0  0  0  0  0  0  0
   -8.4887   -0.9977    0.1239 O   0  0  0  0  0  0  0  0  0  0  0  0
   -0.5842    2.1173    3.3071 C   0  0  0  0  0  0  0  0  0  0  0  0
    4.0235    2.6329   -0.2892 C   0  0  0  0  0  0  0  0  0  0  0  0
    3.7830   -2.7037   -1.0123 C   0  0  0  0  0  0  0  0  0  0  0  0
    6.5814   -3.1700   -2.0055 C   0  0  0  0  0  0  0  0  0  0  0  0
    6.9159   -0.7231   -2.3338 C   0  0  0  0  0  0  0  0  0  0  0  0
   -0.6989    2.8051    0.6843 H   0  0  0  0  0  0  0  0  0  0  0  0
    1.6071    2.9425    0.4332 H   0  0  0  0  0  0  0  0  0  0  0  0
   -4.1378    0.0981    2.3703 H   0  0  0  0  0  0  0  0  0  0  0  0
   -2.9905    0.7774   -0.4180 H   0  0  0  0  0  0  0  0  0  0  0  0
    3.4742   -0.6427    0.6706 H   0  0  0  0  0  0  0  0  0  0  0  0
    4.3088    0.5769   -2.0041 H   0  0  0  0  0  0  0  0  0  0  0  0
   -1.0452    2.1059   -1.5280 H   0  0  0  0  0  0  0  0  0  0  0  0
   -0.7368    0.4030   -1.1711 H   0  0  0  0  0  0  0  0  0  0  0  0
    1.4549    0.7430   -1.6471 H   0  0  0  0  0  0  0  0  0  0  0  0
    1.2370    2.4867   -1.7919 H   0  0  0  0  0  0  0  0  0  0  0  0
   -7.0619    0.0235    1.9182 H   0  0  0  0  0  0  0  0  0  0  0  0
   -6.0184   -1.3609    2.2810 H   0  0  0  0  0  0  0  0  0  0  0  0
    3.4492    1.5751    1.4498 H   0  0  0  0  0  0  0  0  0  0  0  0
   -6.6802   -1.1080   -2.2574 H   0  0  0  0  0  0  0  0  0  0  0  0
   -5.0820   -1.7689   -1.9309 H   0  0  0  0  0  0  0  0  0  0  0  0
   -5.8021    1.1988   -2.4721 H   0  0  0  0  0  0  0  0  0  0  0  0
   -5.3466    2.0687   -0.9027 H   0  0  0  0  0  0  0  0  0  0  0  0
    4.3322   -1.6512   -2.7706 H   0  0  0  0  0  0  0  0  0  0  0  0
    1.4150    2.6314    2.7223 H   0  0  0  0  0  0  0  0  0  0  0  0
    1.2649    1.0041    3.3276 H   0  0  0  0  0  0  0  0  0  0  0  0
    0.7902   -0.7752    0.2606 H   0  0  0  0  0  0  0  0  0  0  0  0
   -0.1097   -0.7925    1.7703 H   0  0  0  0  0  0  0  0  0  0  0  0
    1.6315   -0.6747    1.8128 H   0  0  0  0  0  0  0  0  0  0  0  0
   -7.7638   -2.4840    1.2947 H   0  0  0  0  0  0  0  0  0  0  0  0
   -5.8034   -3.0029   -0.1001 H   0  0  0  0  0  0  0  0  0  0  0  0
   -7.2603   -3.0084   -1.0941 H   0  0  0  0  0  0  0  0  0  0  0  0
    6.3866   -1.6736   -0.4907 H   0  0  0  0  0  0  0  0  0  0  0  0
   -2.6739    1.6532    3.2762 H   0  0  0  0  0  0  0  0  0  0  0  0
   -1.6234    0.2319    3.2155 H   0  0  0  0  0  0  0  0  0  0  0  0
   -8.1621   -0.1816   -0.2955 H   0  0  0  0  0  0  0  0  0  0  0  0
   -0.8024    3.1668    3.0681 H   0  0  0  0  0  0  0  0  0  0  0  0
   -0.5072    2.0675    4.3998 H   0  0  0  0  0  0  0  0  0  0  0  0
    5.0970    2.4294   -0.2049 H   0  0  0  0  0  0  0  0  0  0  0  0
    3.8382    3.5978    0.1962 H   0  0  0  0  0  0  0  0  0  0  0  0
    3.7772    2.7460   -1.3503 H   0  0  0  0  0  0  0  0  0  0  0  0
    4.0960   -2.8423    0.0282 H   0  0  0  0  0  0  0  0  0  0  0  0
    2.7086   -2.4875   -1.0227 H   0  0  0  0  0  0  0  0  0  0  0  0
    3.9145   -3.6583   -1.5322 H   0  0  0  0  0  0  0  0  0  0  0  0
    6.2699   -3.3733   -3.0355 H   0  0  0  0  0  0  0  0  0  0  0  0
    6.1767   -3.9559   -1.3608 H   0  0  0  0  0  0  0  0  0  0  0  0
    7.6729   -3.2543   -1.9599 H   0  0  0  0  0  0  0  0  0  0  0  0
    6.7384    0.2844   -1.9457 H   0  0  0  0  0  0  0  0  0  0  0  0
    6.6488   -0.7343   -3.3958 H   0  0  0  0  0  0  0  0  0  0  0  0
    7.9927   -0.9088   -2.2550 H   0  0  0  0  0  0  0  0  0  0  0  0
  2  1  1  0
  3  5  2  0
  4  1  1  0
  5  8  1  0
  6  3  1  0
  7  2  1  0
  8  7  2  0
  9 14  1  0
 10  9  2  0
  2 11  1  0
  4 12  1  0
 13  3  1  0
 14  4  1  0
 15  6  1  0
 16  6  2  0
 17 10  1  0
 18  1  1  0
  1 19  1  1
 20 13  1  0
 21 20  1  0
 22 17  1  0
 23  7  1  0
 20 24  1  0
 25 18  1  0
 14 26  1  0
 17 27  1  0
 28 22  1  0
 29 22  1  0
 23 25  1  0
 12 11  1  0
 15 21  1  0
  2 30  1  6
  4 31  1  1
  5 32  1  0
  8 33  1  0
  9 34  1  0
 10 35  1  0
 11 36  1  0
 11 37  1  0
 12 38  1  0
 12 39  1  0
 13 40  1  0
 13 41  1  0
 14 42  1  1
 15 43  1  0
 15 44  1  0
 16 45  1  0
 16 46  1  0
 17 47  1  6
 18 48  1  0
 18 49  1  0
 19 50  1  0
 19 51  1  0
 19 52  1  0
 20 53  1  1
 21 54  1  0
 21 55  1  0
 22 56  1  0
 23 57  1  0
 23 58  1  0
 24 59  1  0
 25 60  1  0
 25 61  1  0
 26 62  1  0
 26 63  1  0
 26 64  1  0
 27 65  1  0
 27 66  1  0
 27 67  1  0
 28 68  1  0
 28 69  1  0
 28 70  1  0
 29 71  1  0
 29 72  1  0
 29 73  1  0
M  END
$$$$
