
     RDKit          3D

 73 75  0  0  1  0  0  0  0  0999 V2000
    0.3396   -0.1737   -1.4485 C   0  0  1  0  0  0  0  0  0  0  0  0
   -0.6206   -0.7338   -0.3620 C   0  0  2  0  0  0  0  0  0  0  0  0
   -5.4767    0.2566    0.4223 C   0  0  0  0  0  0  0  0  0  0  0  0
    1.6999   -0.2679   -0.6846 C   0  0  2  0  0  0  0  0  0  0  0  0
   -4.4740   -0.2068   -0.3527 C   0  0  0  0  0  0  0  0  0  0  0  0
   -5.3334    0.7900    1.7721 C   0  0  0  0  0  0  0  0  0  0  0  0
   -2.0707   -0.7020   -0.8037 C   0  0  0  0  0  0  0  0  0  0  0  0
   -3.0698   -0.2891    0.0017 C   0  0  0  0  0  0  0  0  0  0  0  0
    4.1751    0.4531   -0.3769 C   0  0  0  0  0  0  0  0  0  0  0  0
    4.5976   -0.6024    0.3369 C   0  0  0  0  0  0  0  0  0  0  0  0
   -0.1843   -0.0089    0.9114 C   0  0  0  0  0  0  0  0  0  0  0  0
    1.3309    0.1611    0.7623 C   0  0  0  0  0  0  0  0  0  0  0  0
   -6.9130    0.1796   -0.0624 C   0  0  0  0  0  0  0  0  0  0  0  0
    2.9188    0.5254   -1.2347 C   0  0  1  0  0  0  0  0  0  0  0  0
   -6.1564    0.1049    2.8404 C   0  0  0  0  0  0  0  0  0  0  0  0
   -4.6068    1.8884    2.0328 C   0  0  0  0  0  0  0  0  0  0  0  0
    5.8268   -0.7563    1.2135 C   0  0  1  0  0  0  0  0  0  0  0  0
    0.2532   -1.0668   -2.7117 C   0  0  0  0  0  0  0  0  0  0  0  0
    0.0057    1.2906   -1.8336 C   0  0  0  0  0  0  0  0  0  0  0  0
   -7.9560    0.1687    1.0709 C   0  0  2  0  0  0  0  0  0  0  0  0
   -7.4218   -0.5663    2.2969 C   0  0  0  0  0  0  0  0  0  0  0  0
    6.9351    0.3380    1.2397 C   0  0  0  0  0  0  0  0  0  0  0  0
   -2.2756   -1.1720   -2.2344 C   0  0  0  0  0  0  0  0  0  0  0  0
   -9.1517   -0.4769    0.6349 O   0  0  0  0  0  0  0  0  0  0  0  0
   -1.0468   -1.8818   -2.8137 C   0  0  0  0  0  0  0  0  0  0  0  0
    3.3075    0.1282   -2.6612 C   0  0  0  0  0  0  0  0  0  0  0  0
    5.3530   -1.0873    2.6382 C   0  0  0  0  0  0  0  0  0  0  0  0
    6.5295    1.6669    1.8837 C   0  0  0  0  0  0  0  0  0  0  0  0
    7.5752    0.5653   -0.1339 C   0  0  0  0  0  0  0  0  0  0  0  0
   -0.3799   -1.7972   -0.1990 H   0  0  0  0  0  0  0  0  0  0  0  0
    1.9732   -1.3327   -0.6466 H   0  0  0  0  0  0  0  0  0  0  0  0
   -4.7380   -0.5782   -1.3406 H   0  0  0  0  0  0  0  0  0  0  0  0
   -2.8279    0.0076    1.0192 H   0  0  0  0  0  0  0  0  0  0  0  0
    4.7571    1.3686   -0.3876 H   0  0  0  0  0  0  0  0  0  0  0  0
    3.9977   -1.5117    0.2943 H   0  0  0  0  0  0  0  0  0  0  0  0
   -0.4340   -0.5814    1.8111 H   0  0  0  0  0  0  0  0  0  0  0  0
   -0.6579    0.9749    1.0081 H   0  0  0  0  0  0  0  0  0  0  0  0
    1.6036    1.2035    0.9637 H   0  0  0  0  0  0  0  0  0  0  0  0
    1.8581   -0.4610    1.4939 H   0  0  0  0  0  0  0  0  0  0  0  0
   -7.1229    1.0332   -0.7196 H   0  0  0  0  0  0  0  0  0  0  0  0
   -7.0492   -0.7167   -0.6826 H   0  0  0  0  0  0  0  0  0  0  0  0
    2.6409    1.5879   -1.2520 H   0  0  0  0  0  0  0  0  0  0  0  0
   -6.4539    0.8402    3.5996 H   0  0  0  0  0  0  0  0  0  0  0  0
   -5.5436   -0.6470    3.3521 H   0  0  0  0  0  0  0  0  0  0  0  0
   -4.5404    2.2979    3.0358 H   0  0  0  0  0  0  0  0  0  0  0  0
   -4.0581    2.4068    1.2514 H   0  0  0  0  0  0  0  0  0  0  0  0
    6.3249   -1.6646    0.8413 H   0  0  0  0  0  0  0  0  0  0  0  0
    0.3456   -0.4526   -3.6159 H   0  0  0  0  0  0  0  0  0  0  0  0
    1.0908   -1.7738   -2.7471 H   0  0  0  0  0  0  0  0  0  0  0  0
    0.0683    1.9723   -0.9799 H   0  0  0  0  0  0  0  0  0  0  0  0
    0.6954    1.6671   -2.5960 H   0  0  0  0  0  0  0  0  0  0  0  0
   -1.0005    1.3867   -2.2517 H   0  0  0  0  0  0  0  0  0  0  0  0
   -8.2205    1.1969    1.3485 H   0  0  0  0  0  0  0  0  0  0  0  0
   -8.1882   -0.6201    3.0799 H   0  0  0  0  0  0  0  0  0  0  0  0
   -7.2066   -1.6104    2.0314 H   0  0  0  0  0  0  0  0  0  0  0  0
    7.7403   -0.0645    1.8723 H   0  0  0  0  0  0  0  0  0  0  0  0
   -3.1189   -1.8704   -2.2863 H   0  0  0  0  0  0  0  0  0  0  0  0
   -2.5189   -0.3097   -2.8664 H   0  0  0  0  0  0  0  0  0  0  0  0
   -9.4976    0.0309   -0.1190 H   0  0  0  0  0  0  0  0  0  0  0  0
   -0.9071   -2.8352   -2.2868 H   0  0  0  0  0  0  0  0  0  0  0  0
   -1.2303   -2.1428   -3.8627 H   0  0  0  0  0  0  0  0  0  0  0  0
    2.5226    0.3810   -3.3775 H   0  0  0  0  0  0  0  0  0  0  0  0
    4.2109    0.6571   -2.9874 H   0  0  0  0  0  0  0  0  0  0  0  0
    3.5067   -0.9467   -2.7348 H   0  0  0  0  0  0  0  0  0  0  0  0
    4.7380   -0.2844    3.0590 H   0  0  0  0  0  0  0  0  0  0  0  0
    6.2042   -1.2548    3.3068 H   0  0  0  0  0  0  0  0  0  0  0  0
    4.7482   -2.0017    2.6463 H   0  0  0  0  0  0  0  0  0  0  0  0
    6.2034    1.5246    2.9188 H   0  0  0  0  0  0  0  0  0  0  0  0
    7.3856    2.3503    1.9124 H   0  0  0  0  0  0  0  0  0  0  0  0
    5.7275    2.1731    1.3442 H   0  0  0  0  0  0  0  0  0  0  0  0
    7.8777   -0.3858   -0.5843 H   0  0  0  0  0  0  0  0  0  0  0  0
    8.4754    1.1825   -0.0358 H   0  0  0  0  0  0  0  0  0  0  0  0
    6.9079    1.0758   -0.8318 H   0  0  0  0  0  0  0  0  0  0  0  0
  2  1  1  0
  3  5  2  0
  4  1  1  0
  5  8  1  0
  6  3  1  0
  7  2  1  0
  8  7  2  0
  9 14  1  0
 10  9  2  0
  2 11  1  0
  4 12  1  0
 13  3  1  0
 14  4  1  0
 15  6  1  0
 16  6  2  0
 17 10  1  0
 18  1  1  0
  1 19  1  6
 20 13  1  0
 21 20  1  0
 22 17  1  0
 23  7  1  0
 20 24  1  0
 25 18  1  0
 14 26  1  0
 17 27  1  0
 28 22  1  0
 29 22  1  0
 23 25  1  0
 12 11  1  0
 15 21  1  0
  2 30  1  1
  4 31  1  1
  5 32  1  0
  8 33  1  0
  9 34  1  0
 10 35  1  0
 11 36  1  0
 11 37  1  0
 12 38  1  0
 12 39  1  0
 13 40  1  0
 13 41  1  0
 14 42  1  6
 15 43  1  0
 15 44  1  0
 16 45  1  0
 16 46  1  0
 17 47  1  6
 18 48  1  0
 18 49  1  0
 19 50  1  0
 19 51  1  0
 19 52  1  0
 20 53  1  1
 21 54  1  0
 21 55  1  0
 22 56  1  0
 23 57  1  0
 23 58  1  0
 24 59  1  0
 25 60  1  0
 25 61  1  0
 26 62  1  0
 26 63  1  0
 26 64  1  0
 27 65  1  0
 27 66  1  0
 27 67  1  0
 28 68  1  0
 28 69  1  0
 28 70  1  0
 29 71  1  0
 29 72  1  0
 29 73  1  0
M  END
$$$$
