
     RDKit          3D

 29 31  0  0  1  0  0  0  0  0999 V2000
    0.8784    0.8052   -1.1591 C   0  0  1  0  0  0  0  0  0  0  0  0
    0.0354   -0.1469   -0.2976 C   0  0  2  0  0  0  0  0  0  0  0  0
   -4.7528   -0.0588    0.4813 C   0  0  0  0  0  0  0  0  0  0  0  0
    2.2429    0.4226   -0.6946 C   0  0  2  0  0  0  0  0  0  0  0  0
   -3.6969    0.3642   -0.1593 C   0  0  0  0  0  0  0  0  0  0  0  0
   -4.6038   -1.0815    1.5378 C   0  0  0  0  0  0  0  0  0  0  0  0
   -1.3632    0.2967   -0.5129 C   0  0  0  0  0  0  0  0  0  0  0  0
   -2.3785   -0.1878    0.1854 C   0  0  0  0  0  0  0  0  0  0  0  0
    4.6785    0.8923   -0.6692 C   0  0  0  0  0  0  0  0  0  0  0  0
    4.8561   -0.1268    0.1599 C   0  0  0  0  0  0  0  0  0  0  0  0
    0.5755    0.2065    1.0687 C   0  0  0  0  0  0  0  0  0  0  0  0
    2.0566    0.5248    0.8224 C   0  0  0  0  0  0  0  0  0  0  0  0
   -6.1400    0.4183    0.2285 C   0  0  0  0  0  0  0  0  0  0  0  0
    3.3466    1.3375   -1.1727 C   0  0  1  0  0  0  0  0  0  0  0  0
   -5.8380   -1.8815    1.8502 C   0  0  0  0  0  0  0  0  0  0  0  0
   -3.4618   -1.2633    2.1501 C   0  0  0  0  0  0  0  0  0  0  0  0
    6.2059   -0.5496    0.6476 C   0  0  1  0  0  0  0  0  0  0  0  0
    0.6064    0.5590   -2.6108 C   0  0  0  0  0  0  0  0  0  0  0  0
    0.5902    2.2233   -0.7559 C   0  0  0  0  0  0  0  0  0  0  0  0
   -7.0278   -0.7489   -0.0687 C   0  0  2  0  0  0  0  0  0  0  0  0
   -6.5798   -2.0464    0.5564 C   0  0  0  0  0  0  0  0  0  0  0  0
    6.1778   -0.4944    2.1691 C   0  0  0  0  0  0  0  0  0  0  0  0
   -1.5650    1.3399   -1.5815 C   0  0  0  0  0  0  0  0  0  0  0  0
   -7.1024   -0.8703   -1.4738 O   0  0  0  0  0  0  0  0  0  0  0  0
   -0.8778    0.8123   -2.8468 C   0  0  0  0  0  0  0  0  0  0  0  0
    3.3118    1.2423   -2.7031 C   0  0  0  0  0  0  0  0  0  0  0  0
    6.4106   -1.9950    0.1956 C   0  0  0  0  0  0  0  0  0  0  0  0
    7.5580   -0.9275    2.6474 C   0  0  0  0  0  0  0  0  0  0  0  0
    5.8569    0.9340    2.5580 C   0  0  0  0  0  0  0  0  0  0  0  0
  2  1  1  0
  3  5  2  0
  4  1  1  0
  5  8  1  0
  6  3  1  0
  7  2  1  0
  8  7  2  0
  9 14  1  0
 10  9  2  0
  2 11  1  1
  4 12  1  1
 13  3  1  0
 14  4  1  0
 15  6  1  0
 16  6  2  0
 17 10  1  0
 18  1  1  0
  1 19  1  1
 20 13  1  0
 21 20  1  0
 22 17  1  0
 23  7  1  0
 20 24  1  6
 25 18  1  0
 14 26  1  6
 17 27  1  1
 28 22  1  0
 29 22  1  0
 23 25  1  0
 12 11  1  0
 15 21  1  0
M  END
