
     RDKit          3D

 82 79  0  0  0  0  0  0  0  0999 V2000
   46.3151    2.5457    6.9598 C   0  0  0  0  0  0  0  0  0  0  0  0
   45.4440    2.7375    7.9697 C   0  0  0  0  0  0  0  0  0  0  0  0
   44.0699    4.2644   11.2101 N   0  0  0  0  0  0  0  0  0  0  0  0
   44.5294    3.9160    8.1797 C   0  0  0  0  0  0  0  0  0  0  0  0
   45.3603    4.5381   10.5570 C   0  0  1  0  0  0  0  0  0  0  0  0
   46.5748    3.5279    5.8509 C   0  0  0  0  0  0  0  0  0  0  0  0
   47.1340    1.2843    6.8782 C   0  0  0  0  0  0  0  0  0  0  0  0
   43.9874    2.8947   11.7053 C   0  0  0  0  0  0  0  0  0  0  0  0
   45.1250    4.9871    9.1012 C   0  0  0  0  0  0  0  0  0  0  0  0
   46.0937    5.6448   11.3247 C   0  0  0  0  0  0  0  0  0  0  0  0
   45.3155    2.7689    8.6240 C   0  0  1  0  0  0  0  0  0  0  0  0
   45.4815    4.0061    9.5276 C   0  0  2  0  0  0  0  0  0  0  0  0
   46.5871    2.3850    7.8500 C   0  0  2  0  0  0  0  0  0  0  0  0
   44.2108    4.2666   10.3607 C   0  0  1  0  0  0  0  0  0  0  0  0
   47.0946    3.4826    6.9227 C   0  0  0  0  0  0  0  0  0  0  0  0
   44.5306    5.2743   11.4610 C   0  0  0  0  0  0  0  0  0  0  0  0
   47.9471    4.3199    7.1743 O   0  0  0  0  0  0  0  0  0  0  0  0
   44.1636    6.4379   11.5174 O   0  0  0  0  0  0  0  0  0  0  0  0
   46.2867    1.1891    7.0959 O   0  0  0  0  0  0  0  0  0  0  0  0
   43.1718    4.7528    9.5016 O   0  0  0  0  0  0  0  0  0  0  0  0
   44.9497    1.6336    9.4324 O   0  0  0  0  0  0  0  0  0  0  0  0
   45.7159    5.1575    8.6990 O   0  0  0  0  0  0  0  0  0  0  0  0
   45.3194    4.7680   12.4325 O   0  0  0  0  0  0  0  0  0  0  0  0
   46.4924    3.4412    5.7101 O   0  0  0  0  0  0  0  0  0  0  0  0
   46.9765    2.6037    6.7054 C   0  0  0  0  0  0  0  0  0  0  0  0
   46.2291    3.6160    7.1862 C   0  0  0  0  0  0  0  0  0  0  0  0
   44.5563    5.4405   10.9162 N   0  0  0  0  0  0  0  0  0  0  0  0
   46.0871    4.0643    8.6155 C   0  0  0  0  0  0  0  0  0  0  0  0
   44.5518    3.9868   10.6845 C   0  0  2  0  0  0  0  0  0  0  0  0
   47.0101    2.3124    5.2274 C   0  0  0  0  0  0  0  0  0  0  0  0
   47.8155    1.6711    7.5352 C   0  0  0  0  0  0  0  0  0  0  0  0
   44.6268    5.7924   12.3295 C   0  0  0  0  0  0  0  0  0  0  0  0
   44.7155    3.6772    9.1791 C   0  0  0  0  0  0  0  0  0  0  0  0
   43.2484    3.3488   11.1805 C   0  0  0  0  0  0  0  0  0  0  0  0
   45.3506    1.9616    8.7295 H   0  0  0  0  0  0  0  0  0  0  0  0
   43.9270    4.9044   11.9938 H   0  0  0  0  0  0  0  0  0  0  0  0
   43.5759    3.5508    8.5803 H   0  0  0  0  0  0  0  0  0  0  0  0
   44.2769    4.3778    7.2183 H   0  0  0  0  0  0  0  0  0  0  0  0
   46.0118    3.6550   10.5636 H   0  0  0  0  0  0  0  0  0  0  0  0
   46.0988    4.4985    6.0124 H   0  0  0  0  0  0  0  0  0  0  0  0
   46.2136    3.1239    4.8999 H   0  0  0  0  0  0  0  0  0  0  0  0
   47.6498    3.7161    5.7603 H   0  0  0  0  0  0  0  0  0  0  0  0
   48.2019    1.5216    6.9414 H   0  0  0  0  0  0  0  0  0  0  0  0
   46.9459    0.7728    5.9283 H   0  0  0  0  0  0  0  0  0  0  0  0
   46.8990    0.5828    7.6865 H   0  0  0  0  0  0  0  0  0  0  0  0
   44.0600    2.1709   10.8876 H   0  0  0  0  0  0  0  0  0  0  0  0
   43.0171    2.7441   12.1887 H   0  0  0  0  0  0  0  0  0  0  0  0
   44.7698    2.6871   12.4443 H   0  0  0  0  0  0  0  0  0  0  0  0
   46.0757    5.3304    8.6730 H   0  0  0  0  0  0  0  0  0  0  0  0
   44.4566    5.8590    9.0929 H   0  0  0  0  0  0  0  0  0  0  0  0
   46.2964    5.3358   12.3566 H   0  0  0  0  0  0  0  0  0  0  0  0
   45.5083    6.5707   11.3559 H   0  0  0  0  0  0  0  0  0  0  0  0
   47.0543    5.8723   10.8504 H   0  0  0  0  0  0  0  0  0  0  0  0
   44.5002    2.9332    7.9082 H   0  0  0  0  0  0  0  0  0  0  0  0
   46.3487    3.8565   10.1827 H   0  0  0  0  0  0  0  0  0  0  0  0
   47.3952    2.1066    8.5351 H   0  0  0  0  0  0  0  0  0  0  0  0
   43.8333    3.3639   10.8518 H   0  0  0  0  0  0  0  0  0  0  0  0
   45.8948    1.5040    6.2557 H   0  0  0  0  0  0  0  0  0  0  0  0
   43.5616    5.5199    9.0375 H   0  0  0  0  0  0  0  0  0  0  0  0
   45.0133    0.8569    8.8372 H   0  0  0  0  0  0  0  0  0  0  0  0
   46.3851    5.7153    9.1416 H   0  0  0  0  0  0  0  0  0  0  0  0
   45.3868    5.4949   13.0875 H   0  0  0  0  0  0  0  0  0  0  0  0
   46.8837    4.2008    5.2277 H   0  0  0  0  0  0  0  0  0  0  0  0
   45.6488    4.2124    6.4804 H   0  0  0  0  0  0  0  0  0  0  0  0
   45.3574    5.8613   10.4482 H   0  0  0  0  0  0  0  0  0  0  0  0
   46.8813    3.6582    9.2492 H   0  0  0  0  0  0  0  0  0  0  0  0
   46.2141    5.1530    8.6320 H   0  0  0  0  0  0  0  0  0  0  0  0
   45.3928    3.5254   11.2180 H   0  0  0  0  0  0  0  0  0  0  0  0
   48.0334    2.3979    4.8480 H   0  0  0  0  0  0  0  0  0  0  0  0
   46.3846    3.0037    4.6528 H   0  0  0  0  0  0  0  0  0  0  0  0
   46.6471    1.2979    5.0313 H   0  0  0  0  0  0  0  0  0  0  0  0
   47.7204    1.8378    8.6100 H   0  0  0  0  0  0  0  0  0  0  0  0
   48.8728    1.7838    7.2715 H   0  0  0  0  0  0  0  0  0  0  0  0
   47.5210    0.6328    7.3472 H   0  0  0  0  0  0  0  0  0  0  0  0
   45.4943    5.3352   12.8162 H   0  0  0  0  0  0  0  0  0  0  0  0
   44.7257    6.8786   12.4249 H   0  0  0  0  0  0  0  0  0  0  0  0
   43.7177    5.5101   12.8677 H   0  0  0  0  0  0  0  0  0  0  0  0
   44.5682    2.5994    9.0244 H   0  0  0  0  0  0  0  0  0  0  0  0
   43.9244    4.1807    8.6058 H   0  0  0  0  0  0  0  0  0  0  0  0
   42.3722    3.8117   10.7136 H   0  0  0  0  0  0  0  0  0  0  0  0
   43.1426    3.4334   12.2668 H   0  0  0  0  0  0  0  0  0  0  0  0
   43.2274    2.2798   10.9426 H   0  0  0  0  0  0  0  0  0  0  0  0
  2  1  2  3
  3  5  1  0
  4  2  1  0
  5  9  1  0
  6  1  1  0
  7  1  1  0
  8  3  1  0
  9  4  1  0
 10  5  1  0
 12 11  1  0
 13 11  1  0
 14 12  1  0
 15 13  1  0
 16 14  1  0
 17 15  2  0
 18 16  2  0
 13 19  1  0
 14 20  1  0
 11 21  1  0
 12 22  1  0
 23 16  1  0
 24 15  1  0
 26 25  2  3
 27 29  1  0
 28 26  1  0
 29 33  1  0
 30 25  1  0
 31 25  1  0
 32 27  1  0
 33 28  1  0
 34 29  1  0
  2 35  1  0
  3 36  1  0
  4 37  1  0
  4 38  1  0
  5 39  1  1
  6 40  1  0
  6 41  1  0
  6 42  1  0
  7 43  1  0
  7 44  1  0
  7 45  1  0
  8 46  1  0
  8 47  1  0
  8 48  1  0
  9 49  1  0
  9 50  1  0
 10 51  1  0
 10 52  1  0
 10 53  1  0
 11 54  1  6
 12 55  1  1
 13 56  1  1
 14 57  1  1
 19 58  1  0
 20 59  1  0
 21 60  1  0
 22 61  1  0
 23 62  1  0
 24 63  1  0
 26 64  1  0
 27 65  1  0
 28 66  1  0
 28 67  1  0
 29 68  1  1
 30 69  1  0
 30 70  1  0
 30 71  1  0
 31 72  1  0
 31 73  1  0
 31 74  1  0
 32 75  1  0
 32 76  1  0
 32 77  1  0
 33 78  1  0
 33 79  1  0
 34 80  1  0
 34 81  1  0
 34 82  1  0
M  END
> <Uni-Dock RESULT> 
ENERGY=   -7.299  LOWER_BOUND=    0.000  UPPER_BOUND=    0.000
INTER + INTRA:          -7.299
INTER:                  -7.299
INTRA:                   0.000
UNBOUND:                 0.000

$$$$

     RDKit          3D

 82 79  0  0  0  0  0  0  0  0999 V2000
   44.3442    5.1671   11.7920 C   0  0  0  0  0  0  0  0  0  0  0  0
   45.1005    6.2806   11.7309 C   0  0  0  0  0  0  0  0  0  0  0  0
   47.6771    8.8717   12.8999 N   0  0  0  0  0  0  0  0  0  0  0  0
   46.5810    6.3695   11.4671 C   0  0  0  0  0  0  0  0  0  0  0  0
   47.2051    7.6770   13.6187 C   0  0  1  0  0  0  0  0  0  0  0  0
   44.8676    3.7642   11.6519 C   0  0  0  0  0  0  0  0  0  0  0  0
   42.8596    5.2566   12.0297 C   0  0  0  0  0  0  0  0  0  0  0  0
   46.6178    9.8595   12.7262 C   0  0  0  0  0  0  0  0  0  0  0  0
   47.4216    6.4233   12.7484 C   0  0  0  0  0  0  0  0  0  0  0  0
   47.9845    7.5330   14.9316 C   0  0  0  0  0  0  0  0  0  0  0  0
   45.3122    6.8512   12.0051 C   0  0  1  0  0  0  0  0  0  0  0  0
   46.4885    7.0091   12.9882 C   0  0  2  0  0  0  0  0  0  0  0  0
   44.2529    5.8325   12.4563 C   0  0  2  0  0  0  0  0  0  0  0  0
   47.4513    8.1249   12.5359 C   0  0  1  0  0  0  0  0  0  0  0  0
   44.7997    4.4224   12.6435 C   0  0  0  0  0  0  0  0  0  0  0  0
   48.3961    8.4676   13.6842 C   0  0  0  0  0  0  0  0  0  0  0  0
   45.1911    3.9193   13.6850 O   0  0  0  0  0  0  0  0  0  0  0  0
   49.5860    8.2021   13.7574 O   0  0  0  0  0  0  0  0  0  0  0  0
   43.2024    5.8366   11.4636 O   0  0  0  0  0  0  0  0  0  0  0  0
   48.1792    7.6846   11.3826 O   0  0  0  0  0  0  0  0  0  0  0  0
   44.6456    8.1193   11.8515 O   0  0  0  0  0  0  0  0  0  0  0  0
   47.2246    5.7749   13.0326 O   0  0  0  0  0  0  0  0  0  0  0  0
   47.7857    9.1147   14.6995 O   0  0  0  0  0  0  0  0  0  0  0  0
   44.8022    3.7212   11.4846 O   0  0  0  0  0  0  0  0  0  0  0  0
   44.0461    4.6528   12.1821 C   0  0  0  0  0  0  0  0  0  0  0  0
   45.3585    4.9550   12.1532 C   0  0  0  0  0  0  0  0  0  0  0  0
   48.4240    7.9500   13.4467 N   0  0  0  0  0  0  0  0  0  0  0  0
   46.0889    5.9884   12.9673 C   0  0  0  0  0  0  0  0  0  0  0  0
   47.1159    8.3516   12.9039 C   0  0  2  0  0  0  0  0  0  0  0  0
   43.4921    3.5637   11.3004 C   0  0  0  0  0  0  0  0  0  0  0  0
   43.0145    5.3360   13.0373 C   0  0  0  0  0  0  0  0  0  0  0  0
   48.9711    8.9175   14.3904 C   0  0  0  0  0  0  0  0  0  0  0  0
   46.4818    7.1916   12.1033 C   0  0  0  0  0  0  0  0  0  0  0  0
   47.2463    9.5722   11.9846 C   0  0  0  0  0  0  0  0  0  0  0  0
   44.6140    7.2468   11.8639 H   0  0  0  0  0  0  0  0  0  0  0  0
   48.4502    9.3073   13.4068 H   0  0  0  0  0  0  0  0  0  0  0  0
   46.7721    7.2519   10.8442 H   0  0  0  0  0  0  0  0  0  0  0  0
   46.9118    5.5168   10.8631 H   0  0  0  0  0  0  0  0  0  0  0  0
   46.1426    7.7574   13.8817 H   0  0  0  0  0  0  0  0  0  0  0  0
   45.9592    3.7084   11.6444 H   0  0  0  0  0  0  0  0  0  0  0  0
   44.4959    3.3162   10.7250 H   0  0  0  0  0  0  0  0  0  0  0  0
   44.5272    3.1508   12.4928 H   0  0  0  0  0  0  0  0  0  0  0  0
   42.5948    4.7505   12.9648 H   0  0  0  0  0  0  0  0  0  0  0  0
   42.3163    4.7781   11.2081 H   0  0  0  0  0  0  0  0  0  0  0  0
   42.5114    6.2931   12.1003 H   0  0  0  0  0  0  0  0  0  0  0  0
   45.7970    9.4606   12.1220 H   0  0  0  0  0  0  0  0  0  0  0  0
   47.0193   10.7293   12.1971 H   0  0  0  0  0  0  0  0  0  0  0  0
   46.2254   10.2013   13.6909 H   0  0  0  0  0  0  0  0  0  0  0  0
   47.2072    5.5288   13.3475 H   0  0  0  0  0  0  0  0  0  0  0  0
   48.4815    6.3536   12.4681 H   0  0  0  0  0  0  0  0  0  0  0  0
   47.8229    8.4024   15.5792 H   0  0  0  0  0  0  0  0  0  0  0  0
   49.0616    7.4374   14.7534 H   0  0  0  0  0  0  0  0  0  0  0  0
   47.6560    6.6436   15.4800 H   0  0  0  0  0  0  0  0  0  0  0  0
   45.6863    6.5597   11.0156 H   0  0  0  0  0  0  0  0  0  0  0  0
   46.0920    7.2233   13.9885 H   0  0  0  0  0  0  0  0  0  0  0  0
   43.7770    6.1484   13.3909 H   0  0  0  0  0  0  0  0  0  0  0  0
   46.9313    9.0483   12.2614 H   0  0  0  0  0  0  0  0  0  0  0  0
   43.4918    5.2011   10.7772 H   0  0  0  0  0  0  0  0  0  0  0  0
   48.5810    6.8323   11.6435 H   0  0  0  0  0  0  0  0  0  0  0  0
   43.8259    7.9252   11.3496 H   0  0  0  0  0  0  0  0  0  0  0  0
   47.4927    5.6178   13.9591 H   0  0  0  0  0  0  0  0  0  0  0  0
   48.5143    9.3207   15.3229 H   0  0  0  0  0  0  0  0  0  0  0  0
   45.1932    2.8566   11.7344 H   0  0  0  0  0  0  0  0  0  0  0  0
   46.0042    4.3957   11.4743 H   0  0  0  0  0  0  0  0  0  0  0  0
   48.3372    7.0566   13.9286 H   0  0  0  0  0  0  0  0  0  0  0  0
   45.4981    6.3202   13.8264 H   0  0  0  0  0  0  0  0  0  0  0  0
   46.9822    5.5075   13.3824 H   0  0  0  0  0  0  0  0  0  0  0  0
   46.4364    8.6049   13.7280 H   0  0  0  0  0  0  0  0  0  0  0  0
   43.0300    2.7812   11.9108 H   0  0  0  0  0  0  0  0  0  0  0  0
   44.2662    3.0915   10.6864 H   0  0  0  0  0  0  0  0  0  0  0  0
   42.7355    3.9716   10.6218 H   0  0  0  0  0  0  0  0  0  0  0  0
   43.4102    6.1767   13.6107 H   0  0  0  0  0  0  0  0  0  0  0  0
   42.5831    4.6212   13.7465 H   0  0  0  0  0  0  0  0  0  0  0  0
   42.2078    5.7306   12.4099 H   0  0  0  0  0  0  0  0  0  0  0  0
   48.2743    9.1198   15.2101 H   0  0  0  0  0  0  0  0  0  0  0  0
   49.8902    8.5134   14.8271 H   0  0  0  0  0  0  0  0  0  0  0  0
   49.2408    9.8582   13.9024 H   0  0  0  0  0  0  0  0  0  0  0  0
   45.5804    7.5654   11.5982 H   0  0  0  0  0  0  0  0  0  0  0  0
   47.1675    6.8677   11.3079 H   0  0  0  0  0  0  0  0  0  0  0  0
   47.9560    9.3872   11.1708 H   0  0  0  0  0  0  0  0  0  0  0  0
   47.5775   10.4599   12.5328 H   0  0  0  0  0  0  0  0  0  0  0  0
   46.2795    9.8207   11.5340 H   0  0  0  0  0  0  0  0  0  0  0  0
  2  1  2  3
  3  5  1  0
  4  2  1  0
  5  9  1  0
  6  1  1  0
  7  1  1  0
  8  3  1  0
  9  4  1  0
 10  5  1  0
 12 11  1  0
 13 11  1  0
 14 12  1  0
 15 13  1  0
 16 14  1  0
 17 15  2  0
 18 16  2  0
 13 19  1  0
 14 20  1  0
 11 21  1  0
 12 22  1  0
 23 16  1  0
 24 15  1  0
 26 25  2  3
 27 29  1  0
 28 26  1  0
 29 33  1  0
 30 25  1  0
 31 25  1  0
 32 27  1  0
 33 28  1  0
 34 29  1  0
  2 35  1  0
  3 36  1  0
  4 37  1  0
  4 38  1  0
  5 39  1  1
  6 40  1  0
  6 41  1  0
  6 42  1  0
  7 43  1  0
  7 44  1  0
  7 45  1  0
  8 46  1  0
  8 47  1  0
  8 48  1  0
  9 49  1  0
  9 50  1  0
 10 51  1  0
 10 52  1  0
 10 53  1  0
 11 54  1  6
 12 55  1  1
 13 56  1  1
 14 57  1  1
 19 58  1  0
 20 59  1  0
 21 60  1  0
 22 61  1  0
 23 62  1  0
 24 63  1  0
 26 64  1  0
 27 65  1  0
 28 66  1  0
 28 67  1  0
 29 68  1  1
 30 69  1  0
 30 70  1  0
 30 71  1  0
 31 72  1  0
 31 73  1  0
 31 74  1  0
 32 75  1  0
 32 76  1  0
 32 77  1  0
 33 78  1  0
 33 79  1  0
 34 80  1  0
 34 81  1  0
 34 82  1  0
M  END
> <Uni-Dock RESULT> 
ENERGY=   -6.000  LOWER_BOUND=    3.946  UPPER_BOUND=    5.979
INTER + INTRA:          -6.000
INTER:                  -6.000
INTRA:                   0.000
UNBOUND:                 0.000

$$$$

     RDKit          3D

 82 79  0  0  0  0  0  0  0  0999 V2000
   44.5441    5.1154   12.2746 C   0  0  0  0  0  0  0  0  0  0  0  0
   45.4296    5.7986   13.0261 C   0  0  0  0  0  0  0  0  0  0  0  0
   48.6412    7.7460   13.8087 N   0  0  0  0  0  0  0  0  0  0  0  0
   45.7000    7.2804   13.0034 C   0  0  0  0  0  0  0  0  0  0  0  0
   48.2464    7.1273   12.5327 C   0  0  1  0  0  0  0  0  0  0  0  0
   43.6730    5.7218   11.2091 C   0  0  0  0  0  0  0  0  0  0  0  0
   44.3700    3.6297   12.4497 C   0  0  0  0  0  0  0  0  0  0  0  0
   48.8746    6.7511   14.8497 C   0  0  0  0  0  0  0  0  0  0  0  0
   46.8714    7.6676   12.0928 C   0  0  0  0  0  0  0  0  0  0  0  0
   49.2948    7.4558   11.4628 C   0  0  0  0  0  0  0  0  0  0  0  0
   46.0526    5.8852   13.2494 C   0  0  1  0  0  0  0  0  0  0  0  0
   47.1707    6.6800   12.5472 C   0  0  2  0  0  0  0  0  0  0  0  0
   45.4238    4.7868   12.3768 C   0  0  2  0  0  0  0  0  0  0  0  0
   47.8359    7.6829   13.5108 C   0  0  1  0  0  0  0  0  0  0  0  0
   44.7867    5.3119   11.0959 C   0  0  0  0  0  0  0  0  0  0  0  0
   49.1290    8.1973   12.8847 C   0  0  0  0  0  0  0  0  0  0  0  0
   45.3040    5.3759    9.9917 O   0  0  0  0  0  0  0  0  0  0  0  0
   49.3295    9.3137   12.4316 O   0  0  0  0  0  0  0  0  0  0  0  0
   44.4383    4.1066   13.1861 O   0  0  0  0  0  0  0  0  0  0  0  0
   46.9275    8.7589   13.7767 O   0  0  0  0  0  0  0  0  0  0  0  0
   46.5888    5.2428   14.4224 O   0  0  0  0  0  0  0  0  0  0  0  0
   46.5979    7.4215   11.4567 O   0  0  0  0  0  0  0  0  0  0  0  0
   50.1057    7.2665   12.8419 O   0  0  0  0  0  0  0  0  0  0  0  0
   43.5087    5.7150   11.2931 O   0  0  0  0  0  0  0  0  0  0  0  0
   44.4057    4.7336   11.6911 C   0  0  0  0  0  0  0  0  0  0  0  0
   44.9363    5.9716   11.7113 C   0  0  0  0  0  0  0  0  0  0  0  0
   48.6311    8.3235   12.6371 N   0  0  0  0  0  0  0  0  0  0  0  0
   46.3838    6.3563   11.8559 C   0  0  0  0  0  0  0  0  0  0  0  0
   48.1540    7.2377   13.5090 C   0  0  2  0  0  0  0  0  0  0  0  0
   42.9217    4.5399   11.5162 C   0  0  0  0  0  0  0  0  0  0  0  0
   45.1786    3.4530   11.8492 C   0  0  0  0  0  0  0  0  0  0  0  0
   50.0782    8.4967   12.6818 C   0  0  0  0  0  0  0  0  0  0  0  0
   46.6597    6.9458   13.2433 C   0  0  0  0  0  0  0  0  0  0  0  0
   48.3312    7.5953   14.9898 C   0  0  0  0  0  0  0  0  0  0  0  0
   46.0213    5.2501   13.7588 H   0  0  0  0  0  0  0  0  0  0  0  0
   49.4932    8.2970   13.6862 H   0  0  0  0  0  0  0  0  0  0  0  0
   45.8838    7.6174   14.0309 H   0  0  0  0  0  0  0  0  0  0  0  0
   44.8059    7.8255   12.6800 H   0  0  0  0  0  0  0  0  0  0  0  0
   48.1983    6.0337   12.6120 H   0  0  0  0  0  0  0  0  0  0  0  0
   43.9262    6.7607   10.9828 H   0  0  0  0  0  0  0  0  0  0  0  0
   42.6233    5.6849   11.5170 H   0  0  0  0  0  0  0  0  0  0  0  0
   43.7787    5.1616   10.2741 H   0  0  0  0  0  0  0  0  0  0  0  0
   44.6327    3.1060   11.5237 H   0  0  0  0  0  0  0  0  0  0  0  0
   43.3288    3.3982   12.6979 H   0  0  0  0  0  0  0  0  0  0  0  0
   45.0005    3.2285   13.2510 H   0  0  0  0  0  0  0  0  0  0  0  0
   47.9646    6.1843   15.0695 H   0  0  0  0  0  0  0  0  0  0  0  0
   49.1736    7.2583   15.7723 H   0  0  0  0  0  0  0  0  0  0  0  0
   49.6757    6.0573   14.5698 H   0  0  0  0  0  0  0  0  0  0  0  0
   46.6565    7.3167   11.0750 H   0  0  0  0  0  0  0  0  0  0  0  0
   46.9134    8.7637   12.0329 H   0  0  0  0  0  0  0  0  0  0  0  0
   50.2765    7.0563   11.7422 H   0  0  0  0  0  0  0  0  0  0  0  0
   49.3970    8.5371   11.3162 H   0  0  0  0  0  0  0  0  0  0  0  0
   49.0165    7.0127   10.5006 H   0  0  0  0  0  0  0  0  0  0  0  0
   45.2618    6.5673   13.5863 H   0  0  0  0  0  0  0  0  0  0  0  0
   47.9128    5.9771   12.1488 H   0  0  0  0  0  0  0  0  0  0  0  0
   46.1641    4.0246   12.1105 H   0  0  0  0  0  0  0  0  0  0  0  0
   48.1016    7.2338   14.4731 H   0  0  0  0  0  0  0  0  0  0  0  0
   43.6158    4.6284   13.0862 H   0  0  0  0  0  0  0  0  0  0  0  0
   46.6666    9.0969   12.8972 H   0  0  0  0  0  0  0  0  0  0  0  0
   45.8849    4.6347   14.7328 H   0  0  0  0  0  0  0  0  0  0  0  0
   47.2255    7.3889   10.7083 H   0  0  0  0  0  0  0  0  0  0  0  0
   50.8789    7.7492   12.4797 H   0  0  0  0  0  0  0  0  0  0  0  0
   43.2289    6.0469   10.4131 H   0  0  0  0  0  0  0  0  0  0  0  0
   44.2650    6.8250   11.6029 H   0  0  0  0  0  0  0  0  0  0  0  0
   48.3683    8.1306   11.6718 H   0  0  0  0  0  0  0  0  0  0  0  0
   47.0498    5.5085   11.6691 H   0  0  0  0  0  0  0  0  0  0  0  0
   46.6067    7.0935   11.0758 H   0  0  0  0  0  0  0  0  0  0  0  0
   48.7201    6.3207   13.3001 H   0  0  0  0  0  0  0  0  0  0  0  0
   42.7207    3.9455   10.6191 H   0  0  0  0  0  0  0  0  0  0  0  0
   42.3877    5.4902   11.4108 H   0  0  0  0  0  0  0  0  0  0  0  0
   42.5012    4.0193   12.3831 H   0  0  0  0  0  0  0  0  0  0  0  0
   46.2394    3.6061   12.0572 H   0  0  0  0  0  0  0  0  0  0  0  0
   45.1001    2.8531   10.9360 H   0  0  0  0  0  0  0  0  0  0  0  0
   44.7722    2.8692   12.6825 H   0  0  0  0  0  0  0  0  0  0  0  0
   50.6033    7.5671   12.4400 H   0  0  0  0  0  0  0  0  0  0  0  0
   50.3733    9.2478   11.9419 H   0  0  0  0  0  0  0  0  0  0  0  0
   50.4169    8.8625   13.6551 H   0  0  0  0  0  0  0  0  0  0  0  0
   46.3011    6.2346   14.0002 H   0  0  0  0  0  0  0  0  0  0  0  0
   46.0697    7.8630   13.3797 H   0  0  0  0  0  0  0  0  0  0  0  0
   47.8250    8.5344   15.2389 H   0  0  0  0  0  0  0  0  0  0  0  0
   49.3873    7.6932   15.2604 H   0  0  0  0  0  0  0  0  0  0  0  0
   47.9120    6.8107   15.6289 H   0  0  0  0  0  0  0  0  0  0  0  0
  2  1  2  3
  3  5  1  0
  4  2  1  0
  5  9  1  0
  6  1  1  0
  7  1  1  0
  8  3  1  0
  9  4  1  0
 10  5  1  0
 12 11  1  0
 13 11  1  0
 14 12  1  0
 15 13  1  0
 16 14  1  0
 17 15  2  0
 18 16  2  0
 13 19  1  0
 14 20  1  0
 11 21  1  0
 12 22  1  0
 23 16  1  0
 24 15  1  0
 26 25  2  3
 27 29  1  0
 28 26  1  0
 29 33  1  0
 30 25  1  0
 31 25  1  0
 32 27  1  0
 33 28  1  0
 34 29  1  0
  2 35  1  0
  3 36  1  0
  4 37  1  0
  4 38  1  0
  5 39  1  1
  6 40  1  0
  6 41  1  0
  6 42  1  0
  7 43  1  0
  7 44  1  0
  7 45  1  0
  8 46  1  0
  8 47  1  0
  8 48  1  0
  9 49  1  0
  9 50  1  0
 10 51  1  0
 10 52  1  0
 10 53  1  0
 11 54  1  6
 12 55  1  1
 13 56  1  1
 14 57  1  1
 19 58  1  0
 20 59  1  0
 21 60  1  0
 22 61  1  0
 23 62  1  0
 24 63  1  0
 26 64  1  0
 27 65  1  0
 28 66  1  0
 28 67  1  0
 29 68  1  1
 30 69  1  0
 30 70  1  0
 30 71  1  0
 31 72  1  0
 31 73  1  0
 31 74  1  0
 32 75  1  0
 32 76  1  0
 32 77  1  0
 33 78  1  0
 33 79  1  0
 34 80  1  0
 34 81  1  0
 34 82  1  0
M  END
> <Uni-Dock RESULT> 
ENERGY=   -5.893  LOWER_BOUND=    3.811  UPPER_BOUND=    5.789
INTER + INTRA:          -5.893
INTER:                  -5.893
INTRA:                   0.000
UNBOUND:                 0.000

$$$$

     RDKit          3D

 82 79  0  0  0  0  0  0  0  0999 V2000
   47.1538    8.3819   13.0991 C   0  0  0  0  0  0  0  0  0  0  0  0
   46.0521    7.6139   12.9893 C   0  0  0  0  0  0  0  0  0  0  0  0
   43.6962    5.0143   11.4363 N   0  0  0  0  0  0  0  0  0  0  0  0
   45.9402    6.1316   13.2340 C   0  0  0  0  0  0  0  0  0  0  0  0
   44.9809    5.5011   10.9079 C   0  0  1  0  0  0  0  0  0  0  0  0
   48.5248    7.8726   13.4495 C   0  0  0  0  0  0  0  0  0  0  0  0
   47.0853    9.8662   12.8531 C   0  0  0  0  0  0  0  0  0  0  0  0
   42.6821    6.0628   11.4600 C   0  0  0  0  0  0  0  0  0  0  0  0
   46.0904    5.2948   11.9579 C   0  0  0  0  0  0  0  0  0  0  0  0
   45.3308    4.7277    9.6307 C   0  0  0  0  0  0  0  0  0  0  0  0
   45.5321    7.3971   12.6313 C   0  0  1  0  0  0  0  0  0  0  0  0
   45.5377    6.2226   11.6336 C   0  0  2  0  0  0  0  0  0  0  0  0
   46.5958    8.4685   12.3417 C   0  0  2  0  0  0  0  0  0  0  0  0
   44.3767    5.2466   11.9098 C   0  0  1  0  0  0  0  0  0  0  0  0
   48.0239    7.9370   12.3697 C   0  0  0  0  0  0  0  0  0  0  0  0
   44.2223    4.3022   10.7212 C   0  0  0  0  0  0  0  0  0  0  0  0
   48.6833    7.5544   11.4159 O   0  0  0  0  0  0  0  0  0  0  0  0
   44.5087    3.1154   10.6871 O   0  0  0  0  0  0  0  0  0  0  0  0
   46.4299    9.5155   13.3241 O   0  0  0  0  0  0  0  0  0  0  0  0
   44.6449    4.5196   13.1153 O   0  0  0  0  0  0  0  0  0  0  0  0
   44.2482    8.0499   12.5920 O   0  0  0  0  0  0  0  0  0  0  0  0
   46.7722    5.4994   11.7757 O   0  0  0  0  0  0  0  0  0  0  0  0
   43.7301    4.9093    9.6205 O   0  0  0  0  0  0  0  0  0  0  0  0
   48.5412    7.9379   13.6215 O   0  0  0  0  0  0  0  0  0  0  0  0
   47.7180    8.6866   12.7920 C   0  0  0  0  0  0  0  0  0  0  0  0
   47.4291    7.3710   12.7725 C   0  0  0  0  0  0  0  0  0  0  0  0
   44.6981    4.2789   11.0344 N   0  0  0  0  0  0  0  0  0  0  0  0
   46.5391    6.6327   11.8098 C   0  0  0  0  0  0  0  0  0  0  0  0
   44.2048    5.5809   11.5122 C   0  0  2  0  0  0  0  0  0  0  0  0
   48.6548    9.2489   13.8296 C   0  0  0  0  0  0  0  0  0  0  0  0
   47.1613    9.7139   11.8448 C   0  0  0  0  0  0  0  0  0  0  0  0
   43.8910    3.7249    9.9539 C   0  0  0  0  0  0  0  0  0  0  0  0
   45.2231    6.2244   12.4806 C   0  0  0  0  0  0  0  0  0  0  0  0
   42.8604    5.4347   12.2355 C   0  0  0  0  0  0  0  0  0  0  0  0
   45.1120    8.0907   12.7121 H   0  0  0  0  0  0  0  0  0  0  0  0
   43.3508    4.2384   10.8679 H   0  0  0  0  0  0  0  0  0  0  0  0
   44.9757    5.9292   13.7156 H   0  0  0  0  0  0  0  0  0  0  0  0
   46.6949    5.8077   13.9598 H   0  0  0  0  0  0  0  0  0  0  0  0
   44.9299    6.5636   10.6376 H   0  0  0  0  0  0  0  0  0  0  0  0
   48.5905    6.7817   13.4635 H   0  0  0  0  0  0  0  0  0  0  0  0
   48.8230    8.2458   14.4343 H   0  0  0  0  0  0  0  0  0  0  0  0
   49.2549    8.2222   12.7119 H   0  0  0  0  0  0  0  0  0  0  0  0
   47.7245   10.1394   12.0061 H   0  0  0  0  0  0  0  0  0  0  0  0
   47.4279   10.4118   13.7388 H   0  0  0  0  0  0  0  0  0  0  0  0
   46.0678   10.2039   12.6267 H   0  0  0  0  0  0  0  0  0  0  0  0
   42.9759    6.8856   12.1192 H   0  0  0  0  0  0  0  0  0  0  0  0
   41.7466    5.6504   11.8504 H   0  0  0  0  0  0  0  0  0  0  0  0
   42.4863    6.4548   10.4553 H   0  0  0  0  0  0  0  0  0  0  0  0
   47.0631    5.5205   11.5018 H   0  0  0  0  0  0  0  0  0  0  0  0
   46.1283    4.2347   12.2437 H   0  0  0  0  0  0  0  0  0  0  0  0
   44.5679    4.8824    8.8590 H   0  0  0  0  0  0  0  0  0  0  0  0
   45.4099    3.6510    9.8195 H   0  0  0  0  0  0  0  0  0  0  0  0
   46.2895    5.0672    9.2241 H   0  0  0  0  0  0  0  0  0  0  0  0
   45.6741    7.0227   13.6530 H   0  0  0  0  0  0  0  0  0  0  0  0
   45.4735    6.6202   10.6131 H   0  0  0  0  0  0  0  0  0  0  0  0
   46.4203    8.9442   11.3708 H   0  0  0  0  0  0  0  0  0  0  0  0
   43.4168    5.7561   12.0419 H   0  0  0  0  0  0  0  0  0  0  0  0
   46.9571    9.2304   14.0985 H   0  0  0  0  0  0  0  0  0  0  0  0
   45.5311    4.1275   12.9860 H   0  0  0  0  0  0  0  0  0  0  0  0
   44.3551    8.8700   13.1189 H   0  0  0  0  0  0  0  0  0  0  0  0
   47.0709    5.2361   10.8833 H   0  0  0  0  0  0  0  0  0  0  0  0
   43.6290    4.1806    8.9718 H   0  0  0  0  0  0  0  0  0  0  0  0
   49.4378    7.5568   13.5051 H   0  0  0  0  0  0  0  0  0  0  0  0
   47.8859    6.7289   13.5273 H   0  0  0  0  0  0  0  0  0  0  0  0
   45.6533    4.3766   10.6937 H   0  0  0  0  0  0  0  0  0  0  0  0
   46.3350    7.2229   10.9113 H   0  0  0  0  0  0  0  0  0  0  0  0
   47.0870    5.7458   11.4709 H   0  0  0  0  0  0  0  0  0  0  0  0
   44.0721    6.2605   10.6605 H   0  0  0  0  0  0  0  0  0  0  0  0
   49.5158    9.7212   13.3458 H   0  0  0  0  0  0  0  0  0  0  0  0
   49.0367    8.4778   14.5069 H   0  0  0  0  0  0  0  0  0  0  0  0
   48.1405    9.9990   14.4398 H   0  0  0  0  0  0  0  0  0  0  0  0
   46.4216    9.3114   11.1499 H   0  0  0  0  0  0  0  0  0  0  0  0
   47.9708   10.1551   11.2531 H   0  0  0  0  0  0  0  0  0  0  0  0
   46.6675   10.5144   12.4066 H   0  0  0  0  0  0  0  0  0  0  0  0
   43.8078    4.4223    9.1142 H   0  0  0  0  0  0  0  0  0  0  0  0
   44.3665    2.8115    9.5820 H   0  0  0  0  0  0  0  0  0  0  0  0
   42.8901    3.4438   10.2931 H   0  0  0  0  0  0  0  0  0  0  0  0
   44.7673    7.1202   12.9247 H   0  0  0  0  0  0  0  0  0  0  0  0
   45.4300    5.5394   13.3148 H   0  0  0  0  0  0  0  0  0  0  0  0
   42.9275    4.7243   13.0667 H   0  0  0  0  0  0  0  0  0  0  0  0
   42.0698    5.0961   11.5584 H   0  0  0  0  0  0  0  0  0  0  0  0
   42.5360    6.3974   12.6449 H   0  0  0  0  0  0  0  0  0  0  0  0
  2  1  2  3
  3  5  1  0
  4  2  1  0
  5  9  1  0
  6  1  1  0
  7  1  1  0
  8  3  1  0
  9  4  1  0
 10  5  1  0
 12 11  1  0
 13 11  1  0
 14 12  1  0
 15 13  1  0
 16 14  1  0
 17 15  2  0
 18 16  2  0
 13 19  1  0
 14 20  1  0
 11 21  1  0
 12 22  1  0
 23 16  1  0
 24 15  1  0
 26 25  2  3
 27 29  1  0
 28 26  1  0
 29 33  1  0
 30 25  1  0
 31 25  1  0
 32 27  1  0
 33 28  1  0
 34 29  1  0
  2 35  1  0
  3 36  1  0
  4 37  1  0
  4 38  1  0
  5 39  1  1
  6 40  1  0
  6 41  1  0
  6 42  1  0
  7 43  1  0
  7 44  1  0
  7 45  1  0
  8 46  1  0
  8 47  1  0
  8 48  1  0
  9 49  1  0
  9 50  1  0
 10 51  1  0
 10 52  1  0
 10 53  1  0
 11 54  1  6
 12 55  1  1
 13 56  1  1
 14 57  1  1
 19 58  1  0
 20 59  1  0
 21 60  1  0
 22 61  1  0
 23 62  1  0
 24 63  1  0
 26 64  1  0
 27 65  1  0
 28 66  1  0
 28 67  1  0
 29 68  1  1
 30 69  1  0
 30 70  1  0
 30 71  1  0
 31 72  1  0
 31 73  1  0
 31 74  1  0
 32 75  1  0
 32 76  1  0
 32 77  1  0
 33 78  1  0
 33 79  1  0
 34 80  1  0
 34 81  1  0
 34 82  1  0
M  END
> <Uni-Dock RESULT> 
ENERGY=   -5.814  LOWER_BOUND=    2.754  UPPER_BOUND=    6.039
INTER + INTRA:          -5.814
INTER:                  -5.814
INTRA:                   0.000
UNBOUND:                 0.000

$$$$

     RDKit          3D

 82 79  0  0  0  0  0  0  0  0999 V2000
   47.7423    8.3867   12.9213 C   0  0  0  0  0  0  0  0  0  0  0  0
   47.3031    7.1478   12.6249 C   0  0  0  0  0  0  0  0  0  0  0  0
   44.7433    4.3470   12.0569 N   0  0  0  0  0  0  0  0  0  0  0  0
   46.6178    6.6962   11.3617 C   0  0  0  0  0  0  0  0  0  0  0  0
   44.4891    5.7315   12.4873 C   0  0  1  0  0  0  0  0  0  0  0  0
   47.5781    9.5912   12.0358 C   0  0  0  0  0  0  0  0  0  0  0  0
   48.4459    8.6632   14.2239 C   0  0  0  0  0  0  0  0  0  0  0  0
   45.4927    3.5928   13.0557 C   0  0  0  0  0  0  0  0  0  0  0  0
   45.0879    6.7159   11.4633 C   0  0  0  0  0  0  0  0  0  0  0  0
   42.9766    5.9599   12.5972 C   0  0  0  0  0  0  0  0  0  0  0  0
   46.9406    6.6100   12.7828 C   0  0  1  0  0  0  0  0  0  0  0  0
   45.4430    6.4004   12.4859 C   0  0  2  0  0  0  0  0  0  0  0  0
   47.2489    7.8987   13.5623 C   0  0  2  0  0  0  0  0  0  0  0  0
   45.1909    5.0390   11.8079 C   0  0  1  0  0  0  0  0  0  0  0  0
   46.8101    9.1690   12.8438 C   0  0  0  0  0  0  0  0  0  0  0  0
   43.6960    4.7340   11.8364 C   0  0  0  0  0  0  0  0  0  0  0  0
   45.7581    9.7707   12.9936 O   0  0  0  0  0  0  0  0  0  0  0  0
   42.9274    4.7494   10.8873 O   0  0  0  0  0  0  0  0  0  0  0  0
   48.6737    7.9245   13.8035 O   0  0  0  0  0  0  0  0  0  0  0  0
   45.6835    5.0806   10.4628 O   0  0  0  0  0  0  0  0  0  0  0  0
   47.4291    5.5077   13.5717 O   0  0  0  0  0  0  0  0  0  0  0  0
   44.9986    7.4341   11.5908 O   0  0  0  0  0  0  0  0  0  0  0  0
   43.2365    4.4425   13.0718 O   0  0  0  0  0  0  0  0  0  0  0  0
   47.7522    9.6136   11.9780 O   0  0  0  0  0  0  0  0  0  0  0  0
   47.6258    9.0186   13.2256 C   0  0  0  0  0  0  0  0  0  0  0  0
   46.8486    8.4444   12.2870 C   0  0  0  0  0  0  0  0  0  0  0  0
   43.8832    5.1773   11.5305 N   0  0  0  0  0  0  0  0  0  0  0  0
   45.7297    7.4586   12.4879 C   0  0  0  0  0  0  0  0  0  0  0  0
   45.0934    4.9652   12.3412 C   0  0  2  0  0  0  0  0  0  0  0  0
   48.6937   10.0071   12.8346 C   0  0  0  0  0  0  0  0  0  0  0  0
   47.5470    8.7509   14.7035 C   0  0  0  0  0  0  0  0  0  0  0  0
   42.7734    4.3188   11.9273 C   0  0  0  0  0  0  0  0  0  0  0  0
   46.1471    6.0544   12.0378 C   0  0  0  0  0  0  0  0  0  0  0  0
   45.7127    3.5894   12.0662 C   0  0  0  0  0  0  0  0  0  0  0  0
   47.4631    6.3521   13.3524 H   0  0  0  0  0  0  0  0  0  0  0  0
   43.8605    3.8644   11.8775 H   0  0  0  0  0  0  0  0  0  0  0  0
   46.9738    5.6891   11.1122 H   0  0  0  0  0  0  0  0  0  0  0  0
   46.9238    7.3243   10.5173 H   0  0  0  0  0  0  0  0  0  0  0  0
   44.9182    5.9320   13.4773 H   0  0  0  0  0  0  0  0  0  0  0  0
   46.9272    9.4108   11.1764 H   0  0  0  0  0  0  0  0  0  0  0  0
   48.5539    9.9182   11.6630 H   0  0  0  0  0  0  0  0  0  0  0  0
   47.1307   10.4150   12.6018 H   0  0  0  0  0  0  0  0  0  0  0  0
   47.8747    9.3866   14.8165 H   0  0  0  0  0  0  0  0  0  0  0  0
   49.4421    9.0766   14.0345 H   0  0  0  0  0  0  0  0  0  0  0  0
   48.5702    7.7587   14.8297 H   0  0  0  0  0  0  0  0  0  0  0  0
   46.4808    4.0314   13.2266 H   0  0  0  0  0  0  0  0  0  0  0  0
   45.6475    2.5713   12.6946 H   0  0  0  0  0  0  0  0  0  0  0  0
   44.9508    3.5372   14.0069 H   0  0  0  0  0  0  0  0  0  0  0  0
   44.7651    7.7349   11.7134 H   0  0  0  0  0  0  0  0  0  0  0  0
   44.6738    6.5025   10.4684 H   0  0  0  0  0  0  0  0  0  0  0  0
   42.5332    5.2882   13.3413 H   0  0  0  0  0  0  0  0  0  0  0  0
   42.4716    5.7875   11.6399 H   0  0  0  0  0  0  0  0  0  0  0  0
   42.7629    6.9883   12.9076 H   0  0  0  0  0  0  0  0  0  0  0  0
   47.5119    6.6163   11.8459 H   0  0  0  0  0  0  0  0  0  0  0  0
   44.8788    6.4749   13.4239 H   0  0  0  0  0  0  0  0  0  0  0  0
   46.7822    7.8799   14.5530 H   0  0  0  0  0  0  0  0  0  0  0  0
   45.6971    4.2120   12.3160 H   0  0  0  0  0  0  0  0  0  0  0  0
   49.0644    8.3374   13.0062 H   0  0  0  0  0  0  0  0  0  0  0  0
   45.2575    5.8621   10.0582 H   0  0  0  0  0  0  0  0  0  0  0  0
   48.3291    5.7700   13.8592 H   0  0  0  0  0  0  0  0  0  0  0  0
   44.1029    7.7083   11.8691 H   0  0  0  0  0  0  0  0  0  0  0  0
   42.2942    4.2120   12.9272 H   0  0  0  0  0  0  0  0  0  0  0  0
   47.3418   10.4069   11.5719 H   0  0  0  0  0  0  0  0  0  0  0  0
   47.0160    8.7100   11.2420 H   0  0  0  0  0  0  0  0  0  0  0  0
   43.5768    6.1451   11.6160 H   0  0  0  0  0  0  0  0  0  0  0  0
   45.3919    7.4343   13.5283 H   0  0  0  0  0  0  0  0  0  0  0  0
   44.8736    7.8100   11.9002 H   0  0  0  0  0  0  0  0  0  0  0  0
   44.8393    5.0281   13.4072 H   0  0  0  0  0  0  0  0  0  0  0  0
   48.5083   10.9738   13.3138 H   0  0  0  0  0  0  0  0  0  0  0  0
   48.7296   10.1747   11.7530 H   0  0  0  0  0  0  0  0  0  0  0  0
   49.6794    9.6451   13.1455 H   0  0  0  0  0  0  0  0  0  0  0  0
   46.8275    7.9737   14.9687 H   0  0  0  0  0  0  0  0  0  0  0  0
   47.2624    9.6655   15.2350 H   0  0  0  0  0  0  0  0  0  0  0  0
   48.5226    8.4223   15.0784 H   0  0  0  0  0  0  0  0  0  0  0  0
   42.5346    4.4333   12.9895 H   0  0  0  0  0  0  0  0  0  0  0  0
   41.8824    4.5954   11.3542 H   0  0  0  0  0  0  0  0  0  0  0  0
   42.9729    3.2655   11.7114 H   0  0  0  0  0  0  0  0  0  0  0  0
   47.0828    5.7897   12.5493 H   0  0  0  0  0  0  0  0  0  0  0  0
   46.3766    6.0633   10.9630 H   0  0  0  0  0  0  0  0  0  0  0  0
   45.9386    3.4566   11.0025 H   0  0  0  0  0  0  0  0  0  0  0  0
   45.0508    2.7760   12.3800 H   0  0  0  0  0  0  0  0  0  0  0  0
   46.6481    3.4692   12.6233 H   0  0  0  0  0  0  0  0  0  0  0  0
  2  1  2  3
  3  5  1  0
  4  2  1  0
  5  9  1  0
  6  1  1  0
  7  1  1  0
  8  3  1  0
  9  4  1  0
 10  5  1  0
 12 11  1  0
 13 11  1  0
 14 12  1  0
 15 13  1  0
 16 14  1  0
 17 15  2  0
 18 16  2  0
 13 19  1  0
 14 20  1  0
 11 21  1  0
 12 22  1  0
 23 16  1  0
 24 15  1  0
 26 25  2  3
 27 29  1  0
 28 26  1  0
 29 33  1  0
 30 25  1  0
 31 25  1  0
 32 27  1  0
 33 28  1  0
 34 29  1  0
  2 35  1  0
  3 36  1  0
  4 37  1  0
  4 38  1  0
  5 39  1  1
  6 40  1  0
  6 41  1  0
  6 42  1  0
  7 43  1  0
  7 44  1  0
  7 45  1  0
  8 46  1  0
  8 47  1  0
  8 48  1  0
  9 49  1  0
  9 50  1  0
 10 51  1  0
 10 52  1  0
 10 53  1  0
 11 54  1  6
 12 55  1  1
 13 56  1  1
 14 57  1  1
 19 58  1  0
 20 59  1  0
 21 60  1  0
 22 61  1  0
 23 62  1  0
 24 63  1  0
 26 64  1  0
 27 65  1  0
 28 66  1  0
 28 67  1  0
 29 68  1  1
 30 69  1  0
 30 70  1  0
 30 71  1  0
 31 72  1  0
 31 73  1  0
 31 74  1  0
 32 75  1  0
 32 76  1  0
 32 77  1  0
 33 78  1  0
 33 79  1  0
 34 80  1  0
 34 81  1  0
 34 82  1  0
M  END
> <Uni-Dock RESULT> 
ENERGY=   -5.557  LOWER_BOUND=    3.728  UPPER_BOUND=    6.110
INTER + INTRA:          -5.557
INTER:                  -5.557
INTRA:                   0.000
UNBOUND:                 0.000

$$$$

     RDKit          3D

 82 79  0  0  0  0  0  0  0  0999 V2000
   48.8665    3.8744   18.4997 C   0  0  0  0  0  0  0  0  0  0  0  0
   48.9894    4.2699   19.7819 C   0  0  0  0  0  0  0  0  0  0  0  0
   48.7106    6.6276   22.7957 N   0  0  0  0  0  0  0  0  0  0  0  0
   47.8930    4.4182   20.8043 C   0  0  0  0  0  0  0  0  0  0  0  0
   48.3493    6.9024   21.3954 C   0  0  1  0  0  0  0  0  0  0  0  0
   47.5642    3.5465   17.8228 C   0  0  0  0  0  0  0  0  0  0  0  0
   50.0782    3.7424   17.6150 C   0  0  0  0  0  0  0  0  0  0  0  0
   50.1462    6.4279   22.9609 C   0  0  0  0  0  0  0  0  0  0  0  0
   47.3426    5.8463   20.8981 C   0  0  0  0  0  0  0  0  0  0  0  0
   47.7217    8.2982   21.2972 C   0  0  0  0  0  0  0  0  0  0  0  0
   49.2027    4.7147   20.2316 C   0  0  1  0  0  0  0  0  0  0  0  0
   48.4455    5.9724   20.7004 C   0  0  2  0  0  0  0  0  0  0  0  0
   49.3925    4.6309   18.7083 C   0  0  2  0  0  0  0  0  0  0  0  0
   48.3916    6.0536   22.2390 C   0  0  1  0  0  0  0  0  0  0  0  0
   48.0837    4.6142   17.9279 C   0  0  0  0  0  0  0  0  0  0  0  0
   47.9383    7.4510   22.6516 C   0  0  0  0  0  0  0  0  0  0  0  0
   47.5131    5.5728   17.4313 O   0  0  0  0  0  0  0  0  0  0  0  0
   46.8566    7.7589   23.1281 O   0  0  0  0  0  0  0  0  0  0  0  0
   50.1555    3.4340   18.4356 O   0  0  0  0  0  0  0  0  0  0  0  0
   47.4947    5.0523   22.7356 O   0  0  0  0  0  0  0  0  0  0  0  0
   50.5152    4.6991   20.8260 O   0  0  0  0  0  0  0  0  0  0  0  0
   47.0957    5.9110   20.2090 O   0  0  0  0  0  0  0  0  0  0  0  0
   48.8696    8.4011   22.4228 O   0  0  0  0  0  0  0  0  0  0  0  0
   47.5790    3.3627   17.8101 O   0  0  0  0  0  0  0  0  0  0  0  0
   48.7880    4.0444   17.8138 C   0  0  0  0  0  0  0  0  0  0  0  0
   47.9682    4.4206   18.8143 C   0  0  0  0  0  0  0  0  0  0  0  0
   47.5759    7.1138   22.3686 N   0  0  0  0  0  0  0  0  0  0  0  0
   48.1029    5.6121   19.7232 C   0  0  0  0  0  0  0  0  0  0  0  0
   48.8121    6.3672   22.0834 C   0  0  2  0  0  0  0  0  0  0  0  0
   48.4787    2.8211   16.9902 C   0  0  0  0  0  0  0  0  0  0  0  0
   50.0587    4.7459   17.4197 C   0  0  0  0  0  0  0  0  0  0  0  0
   47.8161    8.3650   23.0776 C   0  0  0  0  0  0  0  0  0  0  0  0
   48.5234    5.1831   21.1331 C   0  0  0  0  0  0  0  0  0  0  0  0
   49.4432    5.8238   23.3712 C   0  0  0  0  0  0  0  0  0  0  0  0
   49.9851    4.4981   20.1619 H   0  0  0  0  0  0  0  0  0  0  0  0
   48.4172    7.4014   23.3954 H   0  0  0  0  0  0  0  0  0  0  0  0
   48.2766    4.0890   21.7778 H   0  0  0  0  0  0  0  0  0  0  0  0
   47.0664    3.7352   20.5776 H   0  0  0  0  0  0  0  0  0  0  0  0
   49.2314    6.8988   20.7426 H   0  0  0  0  0  0  0  0  0  0  0  0
   46.6878    3.8029   18.4235 H   0  0  0  0  0  0  0  0  0  0  0  0
   47.5201    2.4772   17.5927 H   0  0  0  0  0  0  0  0  0  0  0  0
   47.4773    4.1055   16.8852 H   0  0  0  0  0  0  0  0  0  0  0  0
   50.0059    4.4342   16.7683 H   0  0  0  0  0  0  0  0  0  0  0  0
   50.1521    2.7214   17.2259 H   0  0  0  0  0  0  0  0  0  0  0  0
   51.0092    3.9635   18.1489 H   0  0  0  0  0  0  0  0  0  0  0  0
   50.4949    5.5593   22.3937 H   0  0  0  0  0  0  0  0  0  0  0  0
   50.3644    6.2371   24.0162 H   0  0  0  0  0  0  0  0  0  0  0  0
   50.7130    7.3141   22.6527 H   0  0  0  0  0  0  0  0  0  0  0  0
   46.9679    6.1444   19.9102 H   0  0  0  0  0  0  0  0  0  0  0  0
   46.4683    5.8355   21.5632 H   0  0  0  0  0  0  0  0  0  0  0  0
   48.4308    9.0690   21.6203 H   0  0  0  0  0  0  0  0  0  0  0  0
   46.8227    8.3814   21.9185 H   0  0  0  0  0  0  0  0  0  0  0  0
   47.4357    8.5210   20.2636 H   0  0  0  0  0  0  0  0  0  0  0  0
   48.6808    3.8124   20.5746 H   0  0  0  0  0  0  0  0  0  0  0  0
   48.9359    6.8609   20.2838 H   0  0  0  0  0  0  0  0  0  0  0  0
   50.0057    5.4615   18.3424 H   0  0  0  0  0  0  0  0  0  0  0  0
   49.3661    5.8809   22.7070 H   0  0  0  0  0  0  0  0  0  0  0  0
   49.4949    2.7141   18.3724 H   0  0  0  0  0  0  0  0  0  0  0  0
   46.6559    5.1990   22.2552 H   0  0  0  0  0  0  0  0  0  0  0  0
   50.9984    3.9749   20.3749 H   0  0  0  0  0  0  0  0  0  0  0  0
   46.8346    6.8116   19.9338 H   0  0  0  0  0  0  0  0  0  0  0  0
   48.4700    9.2190   22.7877 H   0  0  0  0  0  0  0  0  0  0  0  0
   46.7402    3.4934   17.3181 H   0  0  0  0  0  0  0  0  0  0  0  0
   47.0820    3.8159   19.0133 H   0  0  0  0  0  0  0  0  0  0  0  0
   47.0980    7.3345   21.4964 H   0  0  0  0  0  0  0  0  0  0  0  0
   48.8109    6.3466   19.3276 H   0  0  0  0  0  0  0  0  0  0  0  0
   47.1293    6.1152   19.7509 H   0  0  0  0  0  0  0  0  0  0  0  0
   49.5368    7.0278   21.5901 H   0  0  0  0  0  0  0  0  0  0  0  0
   48.3666    3.0933   15.9357 H   0  0  0  0  0  0  0  0  0  0  0  0
   47.5522    2.3301   17.3062 H   0  0  0  0  0  0  0  0  0  0  0  0
   49.2876    2.0882   17.0790 H   0  0  0  0  0  0  0  0  0  0  0  0
   50.3169    5.5815   18.0734 H   0  0  0  0  0  0  0  0  0  0  0  0
   49.9709    5.1344   16.3992 H   0  0  0  0  0  0  0  0  0  0  0  0
   50.9003    4.0452   17.4518 H   0  0  0  0  0  0  0  0  0  0  0  0
   48.5215    9.0052   22.5381 H   0  0  0  0  0  0  0  0  0  0  0  0
   46.8727    8.9129   23.1694 H   0  0  0  0  0  0  0  0  0  0  0  0
   48.1830    8.1961   24.0938 H   0  0  0  0  0  0  0  0  0  0  0  0
   49.4306    4.5683   21.0527 H   0  0  0  0  0  0  0  0  0  0  0  0
   47.7505    4.5343   21.5684 H   0  0  0  0  0  0  0  0  0  0  0  0
   48.7393    5.1964   23.9289 H   0  0  0  0  0  0  0  0  0  0  0  0
   49.7796    6.6304   24.0303 H   0  0  0  0  0  0  0  0  0  0  0  0
   50.3238    5.2142   23.1418 H   0  0  0  0  0  0  0  0  0  0  0  0
  2  1  2  3
  3  5  1  0
  4  2  1  0
  5  9  1  0
  6  1  1  0
  7  1  1  0
  8  3  1  0
  9  4  1  0
 10  5  1  0
 12 11  1  0
 13 11  1  0
 14 12  1  0
 15 13  1  0
 16 14  1  0
 17 15  2  0
 18 16  2  0
 13 19  1  0
 14 20  1  0
 11 21  1  0
 12 22  1  0
 23 16  1  0
 24 15  1  0
 26 25  2  3
 27 29  1  0
 28 26  1  0
 29 33  1  0
 30 25  1  0
 31 25  1  0
 32 27  1  0
 33 28  1  0
 34 29  1  0
  2 35  1  0
  3 36  1  0
  4 37  1  0
  4 38  1  0
  5 39  1  1
  6 40  1  0
  6 41  1  0
  6 42  1  0
  7 43  1  0
  7 44  1  0
  7 45  1  0
  8 46  1  0
  8 47  1  0
  8 48  1  0
  9 49  1  0
  9 50  1  0
 10 51  1  0
 10 52  1  0
 10 53  1  0
 11 54  1  6
 12 55  1  1
 13 56  1  1
 14 57  1  1
 19 58  1  0
 20 59  1  0
 21 60  1  0
 22 61  1  0
 23 62  1  0
 24 63  1  0
 26 64  1  0
 27 65  1  0
 28 66  1  0
 28 67  1  0
 29 68  1  1
 30 69  1  0
 30 70  1  0
 30 71  1  0
 31 72  1  0
 31 73  1  0
 31 74  1  0
 32 75  1  0
 32 76  1  0
 32 77  1  0
 33 78  1  0
 33 79  1  0
 34 80  1  0
 34 81  1  0
 34 82  1  0
M  END
> <Uni-Dock RESULT> 
ENERGY=   -5.420  LOWER_BOUND=    9.336  UPPER_BOUND=   12.027
INTER + INTRA:          -5.420
INTER:                  -5.420
INTRA:                   0.000
UNBOUND:                 0.000

$$$$

     RDKit          3D

 82 79  0  0  0  0  0  0  0  0999 V2000
   47.9226    8.1911   21.6221 C   0  0  0  0  0  0  0  0  0  0  0  0
   47.5551    9.4787   21.4713 C   0  0  0  0  0  0  0  0  0  0  0  0
   47.2714   12.8946   19.7477 N   0  0  0  0  0  0  0  0  0  0  0  0
   46.4843   10.0258   20.5638 C   0  0  0  0  0  0  0  0  0  0  0  0
   47.9900   11.6998   19.2757 C   0  0  1  0  0  0  0  0  0  0  0  0
   47.3447    7.0366   20.8508 C   0  0  0  0  0  0  0  0  0  0  0  0
   48.9949    7.8067   22.6074 C   0  0  0  0  0  0  0  0  0  0  0  0
   47.8657   13.4465   20.9603 C   0  0  0  0  0  0  0  0  0  0  0  0
   47.0238   10.5005   19.2093 C   0  0  0  0  0  0  0  0  0  0  0  0
   48.5684   11.9725   17.8818 C   0  0  0  0  0  0  0  0  0  0  0  0
   47.7150   10.1142   21.3442 C   0  0  1  0  0  0  0  0  0  0  0  0
   47.8300   10.7648   19.9519 C   0  0  2  0  0  0  0  0  0  0  0  0
   48.5838    8.8583   21.5211 C   0  0  2  0  0  0  0  0  0  0  0  0
   47.0280   12.0793   19.8792 C   0  0  1  0  0  0  0  0  0  0  0  0
   48.2536    7.7417   20.5380 C   0  0  0  0  0  0  0  0  0  0  0  0
   47.4323   12.8443   18.6222 C   0  0  0  0  0  0  0  0  0  0  0  0
   48.8018    7.5183   19.4700 O   0  0  0  0  0  0  0  0  0  0  0  0
   46.7623   13.0006   17.6130 O   0  0  0  0  0  0  0  0  0  0  0  0
   48.4053    8.4002   22.8802 O   0  0  0  0  0  0  0  0  0  0  0  0
   45.6265   11.7800   19.8729 O   0  0  0  0  0  0  0  0  0  0  0  0
   48.1263   11.0617   22.3487 O   0  0  0  0  0  0  0  0  0  0  0  0
   47.2941    9.8599   18.9715 O   0  0  0  0  0  0  0  0  0  0  0  0
   48.6776   13.3607   18.6918 O   0  0  0  0  0  0  0  0  0  0  0  0
   47.2441    6.9558   20.9830 O   0  0  0  0  0  0  0  0  0  0  0  0
   48.3523    7.6543   21.4415 C   0  0  0  0  0  0  0  0  0  0  0  0
   47.5925    8.3714   20.5912 C   0  0  0  0  0  0  0  0  0  0  0  0
   47.1671   12.3424   18.5686 N   0  0  0  0  0  0  0  0  0  0  0  0
   47.9328    9.6737   19.9187 C   0  0  0  0  0  0  0  0  0  0  0  0
   47.5455   12.2211   19.9860 C   0  0  2  0  0  0  0  0  0  0  0  0
   47.8481    6.3509   22.0049 C   0  0  0  0  0  0  0  0  0  0  0  0
   49.7206    8.0461   21.9279 C   0  0  0  0  0  0  0  0  0  0  0  0
   47.7114   13.5365   17.9332 C   0  0  0  0  0  0  0  0  0  0  0  0
   47.1453   10.8338   20.5373 C   0  0  0  0  0  0  0  0  0  0  0  0
   46.8697   13.3037   20.8365 C   0  0  0  0  0  0  0  0  0  0  0  0
   48.0563   10.2359   22.0740 H   0  0  0  0  0  0  0  0  0  0  0  0
   47.2728   13.6171   19.0250 H   0  0  0  0  0  0  0  0  0  0  0  0
   45.9723   10.8454   21.0827 H   0  0  0  0  0  0  0  0  0  0  0  0
   45.7098    9.2700   20.3904 H   0  0  0  0  0  0  0  0  0  0  0  0
   48.8337   11.4504   19.9317 H   0  0  0  0  0  0  0  0  0  0  0  0
   46.6914    7.3475   20.0315 H   0  0  0  0  0  0  0  0  0  0  0  0
   46.7694    6.3891   21.5200 H   0  0  0  0  0  0  0  0  0  0  0  0
   48.1494    6.4436   20.4036 H   0  0  0  0  0  0  0  0  0  0  0  0
   49.8429    7.3499   22.0849 H   0  0  0  0  0  0  0  0  0  0  0  0
   48.6015    7.0852   23.3312 H   0  0  0  0  0  0  0  0  0  0  0  0
   49.3729    8.6688   23.1682 H   0  0  0  0  0  0  0  0  0  0  0  0
   47.8183   12.7315   21.7876 H   0  0  0  0  0  0  0  0  0  0  0  0
   47.3039   14.3350   21.2648 H   0  0  0  0  0  0  0  0  0  0  0  0
   48.9079   13.7442   20.7972 H   0  0  0  0  0  0  0  0  0  0  0  0
   47.5290    9.6591   18.7174 H   0  0  0  0  0  0  0  0  0  0  0  0
   46.1689   10.7571   18.5688 H   0  0  0  0  0  0  0  0  0  0  0  0
   49.2804   12.8053   17.9104 H   0  0  0  0  0  0  0  0  0  0  0  0
   47.7823   12.2220   17.1601 H   0  0  0  0  0  0  0  0  0  0  0  0
   49.1005   11.0922   17.5056 H   0  0  0  0  0  0  0  0  0  0  0  0
   46.6692    9.8548   21.5522 H   0  0  0  0  0  0  0  0  0  0  0  0
   48.8888   10.9456   19.7283 H   0  0  0  0  0  0  0  0  0  0  0  0
   49.6480    9.1004   21.4286 H   0  0  0  0  0  0  0  0  0  0  0  0
   47.2175   12.7394   20.7317 H   0  0  0  0  0  0  0  0  0  0  0  0
   47.6135    7.8246   22.8581 H   0  0  0  0  0  0  0  0  0  0  0  0
   45.5035   11.1456   19.1392 H   0  0  0  0  0  0  0  0  0  0  0  0
   48.1834   10.5503   23.1834 H   0  0  0  0  0  0  0  0  0  0  0  0
   47.8616    9.9064   18.1774 H   0  0  0  0  0  0  0  0  0  0  0  0
   48.7726   13.8665   17.8569 H   0  0  0  0  0  0  0  0  0  0  0  0
   47.1172    6.3049   20.2597 H   0  0  0  0  0  0  0  0  0  0  0  0
   46.6061    7.9868   20.3272 H   0  0  0  0  0  0  0  0  0  0  0  0
   47.5036   11.5314   18.0519 H   0  0  0  0  0  0  0  0  0  0  0  0
   49.0058    9.8840   19.9606 H   0  0  0  0  0  0  0  0  0  0  0  0
   47.6867    9.5681   18.8558 H   0  0  0  0  0  0  0  0  0  0  0  0
   48.6336   12.3244   20.0877 H   0  0  0  0  0  0  0  0  0  0  0  0
   48.5204    5.5330   21.7266 H   0  0  0  0  0  0  0  0  0  0  0  0
   46.8481    6.0979   21.6372 H   0  0  0  0  0  0  0  0  0  0  0  0
   47.7944    6.4042   23.0975 H   0  0  0  0  0  0  0  0  0  0  0  0
   50.0427    9.0294   21.5795 H   0  0  0  0  0  0  0  0  0  0  0  0
   50.4617    7.3129   21.5914 H   0  0  0  0  0  0  0  0  0  0  0  0
   49.7359    8.0759   23.0229 H   0  0  0  0  0  0  0  0  0  0  0  0
   48.8005   13.5858   18.0333 H   0  0  0  0  0  0  0  0  0  0  0  0
   47.4762   13.5138   16.8642 H   0  0  0  0  0  0  0  0  0  0  0  0
   47.2681   14.4521   18.3344 H   0  0  0  0  0  0  0  0  0  0  0  0
   47.3119   10.8263   21.6234 H   0  0  0  0  0  0  0  0  0  0  0  0
   46.0685   10.6698   20.3907 H   0  0  0  0  0  0  0  0  0  0  0  0
   45.7799   13.2756   20.7293 H   0  0  0  0  0  0  0  0  0  0  0  0
   47.2148   14.3067   20.5661 H   0  0  0  0  0  0  0  0  0  0  0  0
   47.1043   13.1633   21.8971 H   0  0  0  0  0  0  0  0  0  0  0  0
  2  1  2  3
  3  5  1  0
  4  2  1  0
  5  9  1  0
  6  1  1  0
  7  1  1  0
  8  3  1  0
  9  4  1  0
 10  5  1  0
 12 11  1  0
 13 11  1  0
 14 12  1  0
 15 13  1  0
 16 14  1  0
 17 15  2  0
 18 16  2  0
 13 19  1  0
 14 20  1  0
 11 21  1  0
 12 22  1  0
 23 16  1  0
 24 15  1  0
 26 25  2  3
 27 29  1  0
 28 26  1  0
 29 33  1  0
 30 25  1  0
 31 25  1  0
 32 27  1  0
 33 28  1  0
 34 29  1  0
  2 35  1  0
  3 36  1  0
  4 37  1  0
  4 38  1  0
  5 39  1  1
  6 40  1  0
  6 41  1  0
  6 42  1  0
  7 43  1  0
  7 44  1  0
  7 45  1  0
  8 46  1  0
  8 47  1  0
  8 48  1  0
  9 49  1  0
  9 50  1  0
 10 51  1  0
 10 52  1  0
 10 53  1  0
 11 54  1  6
 12 55  1  1
 13 56  1  1
 14 57  1  1
 19 58  1  0
 20 59  1  0
 21 60  1  0
 22 61  1  0
 23 62  1  0
 24 63  1  0
 26 64  1  0
 27 65  1  0
 28 66  1  0
 28 67  1  0
 29 68  1  1
 30 69  1  0
 30 70  1  0
 30 71  1  0
 31 72  1  0
 31 73  1  0
 31 74  1  0
 32 75  1  0
 32 76  1  0
 32 77  1  0
 33 78  1  0
 33 79  1  0
 34 80  1  0
 34 81  1  0
 34 82  1  0
M  END
> <Uni-Dock RESULT> 
ENERGY=   -5.336  LOWER_BOUND=   12.428  UPPER_BOUND=   13.770
INTER + INTRA:          -5.336
INTER:                  -5.336
INTRA:                   0.000
UNBOUND:                 0.000

$$$$

     RDKit          3D

 82 79  0  0  0  0  0  0  0  0999 V2000
   44.8180    5.6832   11.9912 C   0  0  0  0  0  0  0  0  0  0  0  0
   45.8893    6.4399   12.2999 C   0  0  0  0  0  0  0  0  0  0  0  0
   48.0387    9.6121   12.4919 N   0  0  0  0  0  0  0  0  0  0  0  0
   45.9940    7.4814   13.3834 C   0  0  0  0  0  0  0  0  0  0  0  0
   46.7204    9.4494   11.8576 C   0  0  1  0  0  0  0  0  0  0  0  0
   43.4756    5.7798   12.6623 C   0  0  0  0  0  0  0  0  0  0  0  0
   44.8928    4.6537   10.8944 C   0  0  0  0  0  0  0  0  0  0  0  0
   49.0713    8.8358   11.8140 C   0  0  0  0  0  0  0  0  0  0  0  0
   45.7094    8.9033   12.8851 C   0  0  0  0  0  0  0  0  0  0  0  0
   46.2382   10.8072   11.3325 C   0  0  0  0  0  0  0  0  0  0  0  0
   46.3694    6.8649   12.1144 C   0  0  1  0  0  0  0  0  0  0  0  0
   46.2479    8.3990   12.0324 C   0  0  2  0  0  0  0  0  0  0  0  0
   45.3048    6.1092   11.3027 C   0  0  2  0  0  0  0  0  0  0  0  0
   47.4099    9.0938   12.7697 C   0  0  1  0  0  0  0  0  0  0  0  0
   43.8753    6.4129   11.7348 C   0  0  0  0  0  0  0  0  0  0  0  0
   47.4345   10.5708   12.3870 C   0  0  0  0  0  0  0  0  0  0  0  0
   43.1227    7.2430   11.2495 O   0  0  0  0  0  0  0  0  0  0  0  0
   47.1227   11.5159   13.0951 O   0  0  0  0  0  0  0  0  0  0  0  0
   45.5820    4.6973   11.4398 O   0  0  0  0  0  0  0  0  0  0  0  0
   47.2404    8.9296   14.1832 O   0  0  0  0  0  0  0  0  0  0  0  0
   47.6568    6.4609   11.6089 O   0  0  0  0  0  0  0  0  0  0  0  0
   45.0178    8.8008   12.6590 O   0  0  0  0  0  0  0  0  0  0  0  0
   47.8343   10.7838   11.1154 O   0  0  0  0  0  0  0  0  0  0  0  0
   43.4766    5.6233   12.7606 O   0  0  0  0  0  0  0  0  0  0  0  0
   44.2339    5.5843   11.5981 C   0  0  0  0  0  0  0  0  0  0  0  0
   44.4935    6.6645   12.3600 C   0  0  0  0  0  0  0  0  0  0  0  0
   46.9894   10.3671   12.6794 N   0  0  0  0  0  0  0  0  0  0  0  0
   45.2755    7.8946   11.9865 C   0  0  0  0  0  0  0  0  0  0  0  0
   47.5507    9.0787   12.2412 C   0  0  2  0  0  0  0  0  0  0  0  0
   43.4088    4.4461   12.1404 C   0  0  0  0  0  0  0  0  0  0  0  0
   44.7205    5.3751   10.1904 C   0  0  0  0  0  0  0  0  0  0  0  0
   47.6816   11.5152   12.1061 C   0  0  0  0  0  0  0  0  0  0  0  0
   46.6397    7.9115   12.6845 C   0  0  0  0  0  0  0  0  0  0  0  0
   48.9533    8.8574   12.8206 C   0  0  0  0  0  0  0  0  0  0  0  0
   46.8088    6.2942   11.7333 H   0  0  0  0  0  0  0  0  0  0  0  0
   48.3144   10.5961   12.4881 H   0  0  0  0  0  0  0  0  0  0  0  0
   46.9948    7.4228   13.8283 H   0  0  0  0  0  0  0  0  0  0  0  0
   45.3036    7.2493   14.2023 H   0  0  0  0  0  0  0  0  0  0  0  0
   46.7672    8.7692   10.9975 H   0  0  0  0  0  0  0  0  0  0  0  0
   43.3898    6.6354   13.3370 H   0  0  0  0  0  0  0  0  0  0  0  0
   43.2776    4.8697   13.2374 H   0  0  0  0  0  0  0  0  0  0  0  0
   42.6873    5.8918   11.9105 H   0  0  0  0  0  0  0  0  0  0  0  0
   44.1833    4.8989   10.0961 H   0  0  0  0  0  0  0  0  0  0  0  0
   44.6449    3.6628   11.2892 H   0  0  0  0  0  0  0  0  0  0  0  0
   45.8913    4.5939   10.4473 H   0  0  0  0  0  0  0  0  0  0  0  0
   48.8563    7.7636   11.8584 H   0  0  0  0  0  0  0  0  0  0  0  0
   50.0307    8.9970   12.3153 H   0  0  0  0  0  0  0  0  0  0  0  0
   49.1807    9.1410   10.7670 H   0  0  0  0  0  0  0  0  0  0  0  0
   44.7032    8.9276   12.4467 H   0  0  0  0  0  0  0  0  0  0  0  0
   45.6771    9.5732   13.7552 H   0  0  0  0  0  0  0  0  0  0  0  0
   46.9290   11.2022   10.5788 H   0  0  0  0  0  0  0  0  0  0  0  0
   46.1556   11.5455   12.1382 H   0  0  0  0  0  0  0  0  0  0  0  0
   45.2529   10.7120   10.8638 H   0  0  0  0  0  0  0  0  0  0  0  0
   46.3154    6.5393   13.1610 H   0  0  0  0  0  0  0  0  0  0  0  0
   46.2250    8.6998   10.9776 H   0  0  0  0  0  0  0  0  0  0  0  0
   45.3989    6.3260   10.2332 H   0  0  0  0  0  0  0  0  0  0  0  0
   48.3878    8.6777   12.5071 H   0  0  0  0  0  0  0  0  0  0  0  0
   45.1234    4.4214   12.2598 H   0  0  0  0  0  0  0  0  0  0  0  0
   46.3384    9.2557   14.3725 H   0  0  0  0  0  0  0  0  0  0  0  0
   47.6156    5.4837   11.5384 H   0  0  0  0  0  0  0  0  0  0  0  0
   44.6323    9.5249   12.1279 H   0  0  0  0  0  0  0  0  0  0  0  0
   47.8603   11.7609   11.0344 H   0  0  0  0  0  0  0  0  0  0  0  0
   42.5656    5.9323   12.9541 H   0  0  0  0  0  0  0  0  0  0  0  0
   44.0961    6.6898   13.3759 H   0  0  0  0  0  0  0  0  0  0  0  0
   46.0089   10.4252   12.4090 H   0  0  0  0  0  0  0  0  0  0  0  0
   45.4069    7.9788   10.9035 H   0  0  0  0  0  0  0  0  0  0  0  0
   44.6810    8.7650   12.2875 H   0  0  0  0  0  0  0  0  0  0  0  0
   47.6172    9.0585   11.1457 H   0  0  0  0  0  0  0  0  0  0  0  0
   42.5161    4.2986   11.5240 H   0  0  0  0  0  0  0  0  0  0  0  0
   43.0762    4.6260   13.1681 H   0  0  0  0  0  0  0  0  0  0  0  0
   43.9923    3.5193   12.1397 H   0  0  0  0  0  0  0  0  0  0  0  0
   45.3844    6.1661    9.8359 H   0  0  0  0  0  0  0  0  0  0  0  0
   43.8685    5.3209    9.5039 H   0  0  0  0  0  0  0  0  0  0  0  0
   45.2801    4.4358   10.1220 H   0  0  0  0  0  0  0  0  0  0  0  0
   47.7003   11.4700   11.0124 H   0  0  0  0  0  0  0  0  0  0  0  0
   47.1556   12.4317   12.3923 H   0  0  0  0  0  0  0  0  0  0  0  0
   48.7039   11.6073   12.4833 H   0  0  0  0  0  0  0  0  0  0  0  0
   47.1524    6.9642   12.4674 H   0  0  0  0  0  0  0  0  0  0  0  0
   46.4976    7.9412   13.7739 H   0  0  0  0  0  0  0  0  0  0  0  0
   48.9496    8.9192   13.9144 H   0  0  0  0  0  0  0  0  0  0  0  0
   49.6708    9.5905   12.4385 H   0  0  0  0  0  0  0  0  0  0  0  0
   49.3334    7.8682   12.5437 H   0  0  0  0  0  0  0  0  0  0  0  0
  2  1  2  3
  3  5  1  0
  4  2  1  0
  5  9  1  0
  6  1  1  0
  7  1  1  0
  8  3  1  0
  9  4  1  0
 10  5  1  0
 12 11  1  0
 13 11  1  0
 14 12  1  0
 15 13  1  0
 16 14  1  0
 17 15  2  0
 18 16  2  0
 13 19  1  0
 14 20  1  0
 11 21  1  0
 12 22  1  0
 23 16  1  0
 24 15  1  0
 26 25  2  3
 27 29  1  0
 28 26  1  0
 29 33  1  0
 30 25  1  0
 31 25  1  0
 32 27  1  0
 33 28  1  0
 34 29  1  0
  2 35  1  0
  3 36  1  0
  4 37  1  0
  4 38  1  0
  5 39  1  1
  6 40  1  0
  6 41  1  0
  6 42  1  0
  7 43  1  0
  7 44  1  0
  7 45  1  0
  8 46  1  0
  8 47  1  0
  8 48  1  0
  9 49  1  0
  9 50  1  0
 10 51  1  0
 10 52  1  0
 10 53  1  0
 11 54  1  6
 12 55  1  1
 13 56  1  1
 14 57  1  1
 19 58  1  0
 20 59  1  0
 21 60  1  0
 22 61  1  0
 23 62  1  0
 24 63  1  0
 26 64  1  0
 27 65  1  0
 28 66  1  0
 28 67  1  0
 29 68  1  1
 30 69  1  0
 30 70  1  0
 30 71  1  0
 31 72  1  0
 31 73  1  0
 31 74  1  0
 32 75  1  0
 32 76  1  0
 32 77  1  0
 33 78  1  0
 33 79  1  0
 34 80  1  0
 34 81  1  0
 34 82  1  0
M  END
> <Uni-Dock RESULT> 
ENERGY=   -5.254  LOWER_BOUND=    3.741  UPPER_BOUND=    6.323
INTER + INTRA:          -5.254
INTER:                  -5.254
INTRA:                   0.000
UNBOUND:                 0.000

$$$$

     RDKit          3D

 82 79  0  0  0  0  0  0  0  0999 V2000
   39.0458   13.4995   14.6346 C   0  0  0  0  0  0  0  0  0  0  0  0
   39.1549   13.2392   13.3170 C   0  0  0  0  0  0  0  0  0  0  0  0
   40.8140   12.0145   10.0817 N   0  0  0  0  0  0  0  0  0  0  0  0
   39.0954   11.8945   12.6405 C   0  0  0  0  0  0  0  0  0  0  0  0
   41.3881   12.0471   11.4368 C   0  0  1  0  0  0  0  0  0  0  0  0
   38.8890   12.4562   15.7064 C   0  0  0  0  0  0  0  0  0  0  0  0
   39.0900   14.9154   15.1460 C   0  0  0  0  0  0  0  0  0  0  0  0
   40.5637   13.3542    9.5615 C   0  0  0  0  0  0  0  0  0  0  0  0
   40.4775   11.2719   12.4094 C   0  0  0  0  0  0  0  0  0  0  0  0
   42.7810   11.4059   11.4140 C   0  0  0  0  0  0  0  0  0  0  0  0
   39.4898   13.2963   12.7424 C   0  0  1  0  0  0  0  0  0  0  0  0
   40.6278   12.3786   12.2549 C   0  0  2  0  0  0  0  0  0  0  0  0
   39.7324   13.9091   14.1313 C   0  0  2  0  0  0  0  0  0  0  0  0
   40.3775   11.8922   10.8136 C   0  0  1  0  0  0  0  0  0  0  0  0
   39.9019   12.8735   15.2365 C   0  0  0  0  0  0  0  0  0  0  0  0
   41.6598   11.2749   10.2631 C   0  0  0  0  0  0  0  0  0  0  0  0
   40.9526   12.4197   15.6621 O   0  0  0  0  0  0  0  0  0  0  0  0
   41.8731   10.0895   10.0597 O   0  0  0  0  0  0  0  0  0  0  0  0
   38.6116   14.7744   14.4211 O   0  0  0  0  0  0  0  0  0  0  0  0
   39.3054   10.9411   10.8136 O   0  0  0  0  0  0  0  0  0  0  0  0
   39.3287   14.3889   11.8170 O   0  0  0  0  0  0  0  0  0  0  0  0
   40.6921   11.2251   13.1106 O   0  0  0  0  0  0  0  0  0  0  0  0
   42.6238   12.1862   10.0134 O   0  0  0  0  0  0  0  0  0  0  0  0
   38.7121   12.4828   15.7526 O   0  0  0  0  0  0  0  0  0  0  0  0
   39.3602   13.6081   15.2629 C   0  0  0  0  0  0  0  0  0  0  0  0
   39.5241   12.5238   14.4807 C   0  0  0  0  0  0  0  0  0  0  0  0
   41.3962   11.0229   10.7014 N   0  0  0  0  0  0  0  0  0  0  0  0
   40.4906   12.3412   13.3420 C   0  0  0  0  0  0  0  0  0  0  0  0
   40.7113   12.3239   10.7740 C   0  0  2  0  0  0  0  0  0  0  0  0
   38.3467   13.6010   16.3780 C   0  0  0  0  0  0  0  0  0  0  0  0
   40.1123   14.9032   15.1238 C   0  0  0  0  0  0  0  0  0  0  0  0
   42.4626   10.9945    9.7074 C   0  0  0  0  0  0  0  0  0  0  0  0
   39.7630   12.3701   11.9935 C   0  0  0  0  0  0  0  0  0  0  0  0
   39.8953   12.5942    9.5039 C   0  0  0  0  0  0  0  0  0  0  0  0
   39.2824   14.0764   12.6310 H   0  0  0  0  0  0  0  0  0  0  0  0
   41.4449   11.5280    9.4416 H   0  0  0  0  0  0  0  0  0  0  0  0
   38.5596   12.0054   11.6899 H   0  0  0  0  0  0  0  0  0  0  0  0
   38.4885   11.1982   13.2306 H   0  0  0  0  0  0  0  0  0  0  0  0
   41.5126   13.0759   11.7980 H   0  0  0  0  0  0  0  0  0  0  0  0
   39.0225   11.4354   15.3393 H   0  0  0  0  0  0  0  0  0  0  0  0
   37.8948   12.5297   16.1585 H   0  0  0  0  0  0  0  0  0  0  0  0
   39.6375   12.6087   16.4910 H   0  0  0  0  0  0  0  0  0  0  0  0
   39.9485   15.0500   15.8136 H   0  0  0  0  0  0  0  0  0  0  0  0
   38.1755   15.1442   15.7033 H   0  0  0  0  0  0  0  0  0  0  0  0
   39.1785   15.6477   14.3359 H   0  0  0  0  0  0  0  0  0  0  0  0
   39.8324   13.8891   10.1755 H   0  0  0  0  0  0  0  0  0  0  0  0
   40.1476   13.2769    8.5522 H   0  0  0  0  0  0  0  0  0  0  0  0
   41.4873   13.9414    9.5031 H   0  0  0  0  0  0  0  0  0  0  0  0
   40.9860   11.1751   13.3775 H   0  0  0  0  0  0  0  0  0  0  0  0
   40.3362   10.2479   12.0375 H   0  0  0  0  0  0  0  0  0  0  0  0
   43.4545   11.9583   10.7487 H   0  0  0  0  0  0  0  0  0  0  0  0
   42.7413   10.3660   11.0704 H   0  0  0  0  0  0  0  0  0  0  0  0
   43.2246   11.4105   12.4155 H   0  0  0  0  0  0  0  0  0  0  0  0
   38.5422   12.7432   12.7589 H   0  0  0  0  0  0  0  0  0  0  0  0
   41.5782   12.9229   12.3191 H   0  0  0  0  0  0  0  0  0  0  0  0
   40.6137   14.5595   14.1254 H   0  0  0  0  0  0  0  0  0  0  0  0
   40.0947   12.7036   10.1353 H   0  0  0  0  0  0  0  0  0  0  0  0
   37.9313   14.1932   14.8187 H   0  0  0  0  0  0  0  0  0  0  0  0
   39.5635   10.2645   11.4704 H   0  0  0  0  0  0  0  0  0  0  0  0
   38.7117   15.0134   12.2539 H   0  0  0  0  0  0  0  0  0  0  0  0
   41.6343   11.0086   13.2533 H   0  0  0  0  0  0  0  0  0  0  0  0
   43.3498   11.6616    9.6138 H   0  0  0  0  0  0  0  0  0  0  0  0
   38.9570   11.8101   16.4236 H   0  0  0  0  0  0  0  0  0  0  0  0
   38.9031   11.6474   14.6729 H   0  0  0  0  0  0  0  0  0  0  0  0
   41.8057   10.7984   11.6069 H   0  0  0  0  0  0  0  0  0  0  0  0
   41.2830   13.0956   13.3571 H   0  0  0  0  0  0  0  0  0  0  0  0
   40.9895   11.3759   13.4869 H   0  0  0  0  0  0  0  0  0  0  0  0
   41.4523   13.1251   10.8913 H   0  0  0  0  0  0  0  0  0  0  0  0
   38.8405   13.7759   17.3393 H   0  0  0  0  0  0  0  0  0  0  0  0
   37.8122   12.6478   16.4483 H   0  0  0  0  0  0  0  0  0  0  0  0
   37.6007   14.3869   16.2190 H   0  0  0  0  0  0  0  0  0  0  0  0
   40.7843   14.9275   14.2636 H   0  0  0  0  0  0  0  0  0  0  0  0
   40.7121   15.0862   16.0220 H   0  0  0  0  0  0  0  0  0  0  0  0
   39.4095   15.7347   15.0019 H   0  0  0  0  0  0  0  0  0  0  0  0
   43.1939   11.7912    9.8776 H   0  0  0  0  0  0  0  0  0  0  0  0
   42.9910   10.0380    9.7743 H   0  0  0  0  0  0  0  0  0  0  0  0
   42.0743   11.0697    8.6879 H   0  0  0  0  0  0  0  0  0  0  0  0
   39.1673   13.2919   11.9402 H   0  0  0  0  0  0  0  0  0  0  0  0
   39.0466   11.5382   11.9417 H   0  0  0  0  0  0  0  0  0  0  0  0
   39.1726   11.7932    9.3135 H   0  0  0  0  0  0  0  0  0  0  0  0
   40.5368   12.6934    8.6226 H   0  0  0  0  0  0  0  0  0  0  0  0
   39.3371   13.5320    9.5965 H   0  0  0  0  0  0  0  0  0  0  0  0
  2  1  2  3
  3  5  1  0
  4  2  1  0
  5  9  1  0
  6  1  1  0
  7  1  1  0
  8  3  1  0
  9  4  1  0
 10  5  1  0
 12 11  1  0
 13 11  1  0
 14 12  1  0
 15 13  1  0
 16 14  1  0
 17 15  2  0
 18 16  2  0
 13 19  1  0
 14 20  1  0
 11 21  1  0
 12 22  1  0
 23 16  1  0
 24 15  1  0
 26 25  2  3
 27 29  1  0
 28 26  1  0
 29 33  1  0
 30 25  1  0
 31 25  1  0
 32 27  1  0
 33 28  1  0
 34 29  1  0
  2 35  1  0
  3 36  1  0
  4 37  1  0
  4 38  1  0
  5 39  1  1
  6 40  1  0
  6 41  1  0
  6 42  1  0
  7 43  1  0
  7 44  1  0
  7 45  1  0
  8 46  1  0
  8 47  1  0
  8 48  1  0
  9 49  1  0
  9 50  1  0
 10 51  1  0
 10 52  1  0
 10 53  1  0
 11 54  1  6
 12 55  1  1
 13 56  1  1
 14 57  1  1
 19 58  1  0
 20 59  1  0
 21 60  1  0
 22 61  1  0
 23 62  1  0
 24 63  1  0
 26 64  1  0
 27 65  1  0
 28 66  1  0
 28 67  1  0
 29 68  1  1
 30 69  1  0
 30 70  1  0
 30 71  1  0
 31 72  1  0
 31 73  1  0
 31 74  1  0
 32 75  1  0
 32 76  1  0
 32 77  1  0
 33 78  1  0
 33 79  1  0
 34 80  1  0
 34 81  1  0
 34 82  1  0
M  END
> <Uni-Dock RESULT> 
ENERGY=   -5.082  LOWER_BOUND=    8.366  UPPER_BOUND=   12.090
INTER + INTRA:          -5.082
INTER:                  -5.082
INTRA:                   0.000
UNBOUND:                 0.000

$$$$
