
     RDKit          3D

 82 79  0  0  0  0  0  0  0  0999 V2000
   49.0420    4.4965   17.8041 C   0  0  0  0  0  0  0  0  0  0  0  0
   48.5387    4.4669   19.0535 C   0  0  0  0  0  0  0  0  0  0  0  0
   48.9809    7.7406   22.0031 N   0  0  0  0  0  0  0  0  0  0  0  0
   49.2917    4.2389   20.3352 C   0  0  0  0  0  0  0  0  0  0  0  0
   48.5189    6.4404   21.4835 C   0  0  1  0  0  0  0  0  0  0  0  0
   48.1391    4.7020   16.6158 C   0  0  0  0  0  0  0  0  0  0  0  0
   50.4982    4.3487   17.4581 C   0  0  0  0  0  0  0  0  0  0  0  0
   49.7332    7.6876   23.2478 C   0  0  0  0  0  0  0  0  0  0  0  0
   49.6927    5.5358   21.0503 C   0  0  0  0  0  0  0  0  0  0  0  0
   47.5641    5.7479   22.4606 C   0  0  0  0  0  0  0  0  0  0  0  0
   48.6307    5.1636   20.9093 C   0  0  1  0  0  0  0  0  0  0  0  0
   49.1214    5.6843   19.5464 C   0  0  2  0  0  0  0  0  0  0  0  0
   47.3824    5.8931   21.4327 C   0  0  2  0  0  0  0  0  0  0  0  0
   50.2626    4.8197   18.9825 C   0  0  1  0  0  0  0  0  0  0  0  0
   47.5975    7.3787   21.6858 C   0  0  0  0  0  0  0  0  0  0  0  0
   50.4487    5.0479   17.4862 C   0  0  0  0  0  0  0  0  0  0  0  0
   47.1432    8.3111   21.0452 O   0  0  0  0  0  0  0  0  0  0  0  0
   51.5147    5.3116   16.9471 O   0  0  0  0  0  0  0  0  0  0  0  0
   46.9980    5.2422   22.6658 O   0  0  0  0  0  0  0  0  0  0  0  0
   51.4681    5.1674   19.6930 O   0  0  0  0  0  0  0  0  0  0  0  0
   48.3057    3.7630   20.8071 O   0  0  0  0  0  0  0  0  0  0  0  0
   49.6048    7.0277   19.7123 O   0  0  0  0  0  0  0  0  0  0  0  0
   49.3408    4.8481   16.7505 O   0  0  0  0  0  0  0  0  0  0  0  0
   48.3391    7.5995   22.7979 O   0  0  0  0  0  0  0  0  0  0  0  0
   48.7850    4.4589   18.0724 C   0  0  0  0  0  0  0  0  0  0  0  0
   47.8560    4.6127   19.0361 C   0  0  0  0  0  0  0  0  0  0  0  0
   50.1450    6.8711   21.1511 N   0  0  0  0  0  0  0  0  0  0  0  0
   47.5379    5.8527   19.8297 C   0  0  0  0  0  0  0  0  0  0  0  0
   49.4094    5.6820   21.6106 C   0  0  2  0  0  0  0  0  0  0  0  0
   48.9487    3.1365   17.3696 C   0  0  0  0  0  0  0  0  0  0  0  0
   49.7373    5.5254   17.6058 C   0  0  0  0  0  0  0  0  0  0  0  0
   49.7362    8.1317   21.7520 C   0  0  0  0  0  0  0  0  0  0  0  0
   47.8951    5.7143   21.3149 C   0  0  0  0  0  0  0  0  0  0  0  0
   49.6578    5.3953   23.0962 C   0  0  0  0  0  0  0  0  0  0  0  0
   47.4643    4.5997   19.1819 H   0  0  0  0  0  0  0  0  0  0  0  0
   49.5511    8.1963   21.2902 H   0  0  0  0  0  0  0  0  0  0  0  0
   50.1935    3.6444   20.1508 H   0  0  0  0  0  0  0  0  0  0  0  0
   48.6764    3.6154   20.9944 H   0  0  0  0  0  0  0  0  0  0  0  0
   47.9309    6.6861   20.5908 H   0  0  0  0  0  0  0  0  0  0  0  0
   48.2189    3.8532   15.9289 H   0  0  0  0  0  0  0  0  0  0  0  0
   47.0871    4.7978   16.9045 H   0  0  0  0  0  0  0  0  0  0  0  0
   48.4207    5.6136   16.0786 H   0  0  0  0  0  0  0  0  0  0  0  0
   50.8223    5.1852   16.8294 H   0  0  0  0  0  0  0  0  0  0  0  0
   50.6608    3.4182   16.9045 H   0  0  0  0  0  0  0  0  0  0  0  0
   51.1517    4.3392   18.3339 H   0  0  0  0  0  0  0  0  0  0  0  0
   50.0050    8.7069   23.5416 H   0  0  0  0  0  0  0  0  0  0  0  0
   50.6635    7.1216   23.1465 H   0  0  0  0  0  0  0  0  0  0  0  0
   49.1421    7.2706   24.0680 H   0  0  0  0  0  0  0  0  0  0  0  0
   50.2867    5.2537   21.9286 H   0  0  0  0  0  0  0  0  0  0  0  0
   50.3632    6.1051   20.3923 H   0  0  0  0  0  0  0  0  0  0  0  0
   48.0939    5.3281   23.3221 H   0  0  0  0  0  0  0  0  0  0  0  0
   46.8067    6.4478   22.8315 H   0  0  0  0  0  0  0  0  0  0  0  0
   47.0268    4.9307   21.9686 H   0  0  0  0  0  0  0  0  0  0  0  0
   49.4336    5.2477   21.6525 H   0  0  0  0  0  0  0  0  0  0  0  0
   48.2745    5.7099   18.8519 H   0  0  0  0  0  0  0  0  0  0  0  0
   46.5375    5.7672   20.7476 H   0  0  0  0  0  0  0  0  0  0  0  0
   50.0907    3.7470   19.1151 H   0  0  0  0  0  0  0  0  0  0  0  0
   47.5701    5.6350   23.3566 H   0  0  0  0  0  0  0  0  0  0  0  0
   52.2077    4.8657   19.1280 H   0  0  0  0  0  0  0  0  0  0  0  0
   47.7671    3.5610   21.6008 H   0  0  0  0  0  0  0  0  0  0  0  0
   50.5481    6.9357   19.9697 H   0  0  0  0  0  0  0  0  0  0  0  0
   49.6237    5.0151   15.8261 H   0  0  0  0  0  0  0  0  0  0  0  0
   48.3982    8.5797   22.8308 H   0  0  0  0  0  0  0  0  0  0  0  0
   47.2297    3.7570   19.2884 H   0  0  0  0  0  0  0  0  0  0  0  0
   51.1405    6.7299   21.3221 H   0  0  0  0  0  0  0  0  0  0  0  0
   47.9925    6.7522   19.4070 H   0  0  0  0  0  0  0  0  0  0  0  0
   46.4547    6.0132   19.7527 H   0  0  0  0  0  0  0  0  0  0  0  0
   49.8355    4.8342   21.0596 H   0  0  0  0  0  0  0  0  0  0  0  0
   48.7819    3.2561   16.2940 H   0  0  0  0  0  0  0  0  0  0  0  0
   49.9602    2.7471   17.5246 H   0  0  0  0  0  0  0  0  0  0  0  0
   48.2433    2.3817   17.7327 H   0  0  0  0  0  0  0  0  0  0  0  0
   50.7710    5.1883   17.7385 H   0  0  0  0  0  0  0  0  0  0  0  0
   49.6361    6.4707   18.1418 H   0  0  0  0  0  0  0  0  0  0  0  0
   49.5768    5.7320   16.5424 H   0  0  0  0  0  0  0  0  0  0  0  0
   48.6946    8.3762   21.5263 H   0  0  0  0  0  0  0  0  0  0  0  0
   50.3462    8.9386   21.3324 H   0  0  0  0  0  0  0  0  0  0  0  0
   49.8857    8.1429   22.8353 H   0  0  0  0  0  0  0  0  0  0  0  0
   47.4223    6.5357   21.8674 H   0  0  0  0  0  0  0  0  0  0  0  0
   47.4365    4.7954   21.7056 H   0  0  0  0  0  0  0  0  0  0  0  0
   50.7300    5.3750   23.3199 H   0  0  0  0  0  0  0  0  0  0  0  0
   49.2483    4.4162   23.3688 H   0  0  0  0  0  0  0  0  0  0  0  0
   49.1855    6.1416   23.7434 H   0  0  0  0  0  0  0  0  0  0  0  0
  2  1  2  3
  3  5  1  0
  4  2  1  0
  5  9  1  0
  6  1  1  0
  7  1  1  0
  8  3  1  0
  9  4  1  0
 10  5  1  0
 12 11  1  0
 13 11  1  0
 14 12  1  0
 15 13  1  0
 16 14  1  0
 17 15  2  0
 18 16  2  0
 13 19  1  0
 14 20  1  0
 11 21  1  0
 12 22  1  0
 23 16  1  0
 24 15  1  0
 26 25  2  3
 27 29  1  0
 28 26  1  0
 29 33  1  0
 30 25  1  0
 31 25  1  0
 32 27  1  0
 33 28  1  0
 34 29  1  0
  2 35  1  0
  3 36  1  0
  4 37  1  0
  4 38  1  0
  5 39  1  1
  6 40  1  0
  6 41  1  0
  6 42  1  0
  7 43  1  0
  7 44  1  0
  7 45  1  0
  8 46  1  0
  8 47  1  0
  8 48  1  0
  9 49  1  0
  9 50  1  0
 10 51  1  0
 10 52  1  0
 10 53  1  0
 11 54  1  6
 12 55  1  1
 13 56  1  1
 14 57  1  6
 19 58  1  0
 20 59  1  0
 21 60  1  0
 22 61  1  0
 23 62  1  0
 24 63  1  0
 26 64  1  0
 27 65  1  0
 28 66  1  0
 28 67  1  0
 29 68  1  6
 30 69  1  0
 30 70  1  0
 30 71  1  0
 31 72  1  0
 31 73  1  0
 31 74  1  0
 32 75  1  0
 32 76  1  0
 32 77  1  0
 33 78  1  0
 33 79  1  0
 34 80  1  0
 34 81  1  0
 34 82  1  0
M  END
> <Uni-Dock RESULT> 
ENERGY=   -5.042  LOWER_BOUND=    0.000  UPPER_BOUND=    0.000
INTER + INTRA:          -5.042
INTER:                  -5.042
INTRA:                   0.000
UNBOUND:                 0.000

$$$$

     RDKit          3D

 82 79  0  0  0  0  0  0  0  0999 V2000
   48.0345    6.0946   22.7708 C   0  0  0  0  0  0  0  0  0  0  0  0
   48.3071    7.4129   22.7157 C   0  0  0  0  0  0  0  0  0  0  0  0
   47.3628   10.0169   19.2603 N   0  0  0  0  0  0  0  0  0  0  0  0
   49.4107    8.0849   21.9461 C   0  0  0  0  0  0  0  0  0  0  0  0
   47.8560    9.6845   20.6094 C   0  0  1  0  0  0  0  0  0  0  0  0
   46.9062    5.5775   23.6245 C   0  0  0  0  0  0  0  0  0  0  0  0
   48.7778    5.0288   22.0134 C   0  0  0  0  0  0  0  0  0  0  0  0
   48.3220   10.6757   18.3861 C   0  0  0  0  0  0  0  0  0  0  0  0
   48.9687    8.6145   20.5756 C   0  0  0  0  0  0  0  0  0  0  0  0
   48.2616   10.9393   21.3884 C   0  0  0  0  0  0  0  0  0  0  0  0
   48.6160    9.0096   21.5787 C   0  0  1  0  0  0  0  0  0  0  0  0
   47.9282    7.6515   21.3504 C   0  0  2  0  0  0  0  0  0  0  0  0
   47.6299   10.1769   21.7496 C   0  0  2  0  0  0  0  0  0  0  0  0
   48.9397    6.4918   21.3545 C   0  0  1  0  0  0  0  0  0  0  0  0
   46.7575   10.4306   20.5282 C   0  0  0  0  0  0  0  0  0  0  0  0
   48.2487    5.1493   21.5688 C   0  0  0  0  0  0  0  0  0  0  0  0
   45.5622   10.2185   20.4166 O   0  0  0  0  0  0  0  0  0  0  0  0
   48.4003    4.1646   20.8592 O   0  0  0  0  0  0  0  0  0  0  0  0
   48.4162   11.3563   22.0369 O   0  0  0  0  0  0  0  0  0  0  0  0
   49.6240    6.5027   20.0854 O   0  0  0  0  0  0  0  0  0  0  0  0
   49.4300    8.9496   22.7667 O   0  0  0  0  0  0  0  0  0  0  0  0
   47.2675    7.6774   20.0742 O   0  0  0  0  0  0  0  0  0  0  0  0
   47.4972    5.0814   22.6821 O   0  0  0  0  0  0  0  0  0  0  0  0
   47.4542   11.0105   19.5213 O   0  0  0  0  0  0  0  0  0  0  0  0
   48.0364    6.4520   22.8791 C   0  0  0  0  0  0  0  0  0  0  0  0
   47.8276    7.7681   23.0784 C   0  0  0  0  0  0  0  0  0  0  0  0
   48.2702    8.6006   19.3469 N   0  0  0  0  0  0  0  0  0  0  0  0
   47.0757    8.7325   22.1993 C   0  0  0  0  0  0  0  0  0  0  0  0
   48.9429    9.2519   20.4825 C   0  0  2  0  0  0  0  0  0  0  0  0
   48.8042    5.6364   23.8865 C   0  0  0  0  0  0  0  0  0  0  0  0
   47.5669    5.6694   21.6836 C   0  0  0  0  0  0  0  0  0  0  0  0
   47.3744    9.4509   18.5777 C   0  0  0  0  0  0  0  0  0  0  0  0
   47.9865    9.7921   21.5665 C   0  0  0  0  0  0  0  0  0  0  0  0
   49.9047   10.3533   20.0215 C   0  0  0  0  0  0  0  0  0  0  0  0
   47.6884    8.0941   23.3002 H   0  0  0  0  0  0  0  0  0  0  0  0
   47.0358    9.1621   18.8093 H   0  0  0  0  0  0  0  0  0  0  0  0
   50.2534    7.3990   21.8042 H   0  0  0  0  0  0  0  0  0  0  0  0
   49.8147    8.9005   22.5572 H   0  0  0  0  0  0  0  0  0  0  0  0
   46.9895    9.2583   21.1295 H   0  0  0  0  0  0  0  0  0  0  0  0
   47.2874    4.8671   24.3654 H   0  0  0  0  0  0  0  0  0  0  0  0
   46.3935    6.3792   24.1664 H   0  0  0  0  0  0  0  0  0  0  0  0
   46.1627    5.0681   23.0028 H   0  0  0  0  0  0  0  0  0  0  0  0
   48.0741    4.4120   21.4437 H   0  0  0  0  0  0  0  0  0  0  0  0
   49.3187    4.3801   22.7101 H   0  0  0  0  0  0  0  0  0  0  0  0
   49.4985    5.4305   21.2970 H   0  0  0  0  0  0  0  0  0  0  0  0
   47.8398   10.8871   17.4259 H   0  0  0  0  0  0  0  0  0  0  0  0
   49.1934   10.0484   18.1789 H   0  0  0  0  0  0  0  0  0  0  0  0
   48.6539   11.6363   18.7898 H   0  0  0  0  0  0  0  0  0  0  0  0
   49.8592    9.0217   20.0807 H   0  0  0  0  0  0  0  0  0  0  0  0
   48.6346    7.7657   19.9638 H   0  0  0  0  0  0  0  0  0  0  0  0
   49.2120   11.3516   21.0340 H   0  0  0  0  0  0  0  0  0  0  0  0
   47.4961   11.7189   21.3024 H   0  0  0  0  0  0  0  0  0  0  0  0
   48.3707   10.7185   22.4552 H   0  0  0  0  0  0  0  0  0  0  0  0
   49.2926    9.2308   20.7435 H   0  0  0  0  0  0  0  0  0  0  0  0
   47.1677    7.5057   22.1253 H   0  0  0  0  0  0  0  0  0  0  0  0
   46.9858   10.0226   22.6216 H   0  0  0  0  0  0  0  0  0  0  0  0
   49.6920    6.5847   22.1439 H   0  0  0  0  0  0  0  0  0  0  0  0
   48.7206   11.6845   21.1659 H   0  0  0  0  0  0  0  0  0  0  0  0
   50.0063    5.6082   19.9803 H   0  0  0  0  0  0  0  0  0  0  0  0
   49.6209    9.8822   23.0002 H   0  0  0  0  0  0  0  0  0  0  0  0
   47.9466    7.3956   19.4230 H   0  0  0  0  0  0  0  0  0  0  0  0
   47.1410    4.1674   22.6853 H   0  0  0  0  0  0  0  0  0  0  0  0
   46.7785   11.1072   18.8146 H   0  0  0  0  0  0  0  0  0  0  0  0
   48.2272    8.2208   23.9859 H   0  0  0  0  0  0  0  0  0  0  0  0
   48.9775    8.2134   18.7223 H   0  0  0  0  0  0  0  0  0  0  0  0
   46.4812    8.2291   21.4328 H   0  0  0  0  0  0  0  0  0  0  0  0
   46.3465    9.2470   22.8385 H   0  0  0  0  0  0  0  0  0  0  0  0
   49.5650    8.4768   20.9474 H   0  0  0  0  0  0  0  0  0  0  0  0
   48.1795    4.8232   24.2705 H   0  0  0  0  0  0  0  0  0  0  0  0
   49.6959    5.2021   23.4226 H   0  0  0  0  0  0  0  0  0  0  0  0
   49.1334    6.2345   24.7427 H   0  0  0  0  0  0  0  0  0  0  0  0
   48.4227    5.2100   21.1773 H   0  0  0  0  0  0  0  0  0  0  0  0
   47.0405    6.2727   20.9419 H   0  0  0  0  0  0  0  0  0  0  0  0
   46.8867    4.8721   22.0012 H   0  0  0  0  0  0  0  0  0  0  0  0
   46.5439    9.8262   19.1818 H   0  0  0  0  0  0  0  0  0  0  0  0
   46.9325    8.8598   17.7687 H   0  0  0  0  0  0  0  0  0  0  0  0
   47.8970   10.2929   18.1150 H   0  0  0  0  0  0  0  0  0  0  0  0
   47.3595   10.5901   21.1499 H   0  0  0  0  0  0  0  0  0  0  0  0
   48.5798   10.2686   22.3593 H   0  0  0  0  0  0  0  0  0  0  0  0
   50.5859    9.9832   19.2474 H   0  0  0  0  0  0  0  0  0  0  0  0
   50.5194   10.6979   20.8605 H   0  0  0  0  0  0  0  0  0  0  0  0
   49.3726   11.2237   19.6237 H   0  0  0  0  0  0  0  0  0  0  0  0
  2  1  2  3
  3  5  1  0
  4  2  1  0
  5  9  1  0
  6  1  1  0
  7  1  1  0
  8  3  1  0
  9  4  1  0
 10  5  1  0
 12 11  1  0
 13 11  1  0
 14 12  1  0
 15 13  1  0
 16 14  1  0
 17 15  2  0
 18 16  2  0
 13 19  1  0
 14 20  1  0
 11 21  1  0
 12 22  1  0
 23 16  1  0
 24 15  1  0
 26 25  2  3
 27 29  1  0
 28 26  1  0
 29 33  1  0
 30 25  1  0
 31 25  1  0
 32 27  1  0
 33 28  1  0
 34 29  1  0
  2 35  1  0
  3 36  1  0
  4 37  1  0
  4 38  1  0
  5 39  1  1
  6 40  1  0
  6 41  1  0
  6 42  1  0
  7 43  1  0
  7 44  1  0
  7 45  1  0
  8 46  1  0
  8 47  1  0
  8 48  1  0
  9 49  1  0
  9 50  1  0
 10 51  1  0
 10 52  1  0
 10 53  1  0
 11 54  1  6
 12 55  1  1
 13 56  1  1
 14 57  1  6
 19 58  1  0
 20 59  1  0
 21 60  1  0
 22 61  1  0
 23 62  1  0
 24 63  1  0
 26 64  1  0
 27 65  1  0
 28 66  1  0
 28 67  1  0
 29 68  1  6
 30 69  1  0
 30 70  1  0
 30 71  1  0
 31 72  1  0
 31 73  1  0
 31 74  1  0
 32 75  1  0
 32 76  1  0
 32 77  1  0
 33 78  1  0
 33 79  1  0
 34 80  1  0
 34 81  1  0
 34 82  1  0
M  END
> <Uni-Dock RESULT> 
ENERGY=   -4.895  LOWER_BOUND=    2.614  UPPER_BOUND=    4.657
INTER + INTRA:          -4.895
INTER:                  -4.895
INTRA:                   0.000
UNBOUND:                 0.000

$$$$

     RDKit          3D

 82 79  0  0  0  0  0  0  0  0999 V2000
   48.4624    4.8719   17.5435 C   0  0  0  0  0  0  0  0  0  0  0  0
   47.9102    5.5855   18.5440 C   0  0  0  0  0  0  0  0  0  0  0  0
   49.8448    6.3050   22.4622 N   0  0  0  0  0  0  0  0  0  0  0  0
   47.2892    5.0560   19.8073 C   0  0  0  0  0  0  0  0  0  0  0  0
   48.8002    6.4173   21.4278 C   0  0  1  0  0  0  0  0  0  0  0  0
   49.0123    5.5594   16.3210 C   0  0  0  0  0  0  0  0  0  0  0  0
   48.6037    3.3747   17.5291 C   0  0  0  0  0  0  0  0  0  0  0  0
   49.3987    5.8012   23.7527 C   0  0  0  0  0  0  0  0  0  0  0  0
   48.2504    5.0385   21.0030 C   0  0  0  0  0  0  0  0  0  0  0  0
   47.6966    7.3951   21.8423 C   0  0  0  0  0  0  0  0  0  0  0  0
   47.8553    5.9697   20.4901 C   0  0  1  0  0  0  0  0  0  0  0  0
   48.9010    5.3366   19.5546 C   0  0  2  0  0  0  0  0  0  0  0  0
   48.2024    7.4053   20.9177 C   0  0  2  0  0  0  0  0  0  0  0  0
   48.4343    3.9722   19.0174 C   0  0  1  0  0  0  0  0  0  0  0  0
   49.4940    7.5154   21.7158 C   0  0  0  0  0  0  0  0  0  0  0  0
   49.2311    3.5550   17.7859 C   0  0  0  0  0  0  0  0  0  0  0  0
   50.5492    8.0044   21.3506 O   0  0  0  0  0  0  0  0  0  0  0  0
   49.7851    2.4734   17.6458 O   0  0  0  0  0  0  0  0  0  0  0  0
   47.0970    7.8879   21.7160 O   0  0  0  0  0  0  0  0  0  0  0  0
   48.6049    3.0043   20.0724 O   0  0  0  0  0  0  0  0  0  0  0  0
   46.5736    6.0092   19.8319 O   0  0  0  0  0  0  0  0  0  0  0  0
   50.1218    5.1456   20.2887 O   0  0  0  0  0  0  0  0  0  0  0  0
   49.2159    4.4510   16.7831 O   0  0  0  0  0  0  0  0  0  0  0  0
   49.3489    7.0472   22.9788 O   0  0  0  0  0  0  0  0  0  0  0  0
   48.3002    5.1633   17.7116 C   0  0  0  0  0  0  0  0  0  0  0  0
   47.9826    6.2679   18.4147 C   0  0  0  0  0  0  0  0  0  0  0  0
   49.4854    4.8639   21.6680 N   0  0  0  0  0  0  0  0  0  0  0  0
   48.7897    6.9488   19.4887 C   0  0  0  0  0  0  0  0  0  0  0  0
   48.1436    5.4431   21.4933 C   0  0  2  0  0  0  0  0  0  0  0  0
   47.3674    4.6332   16.6540 C   0  0  0  0  0  0  0  0  0  0  0  0
   49.5536    4.3511   17.8892 C   0  0  0  0  0  0  0  0  0  0  0  0
   50.3755    5.6003   22.5526 C   0  0  0  0  0  0  0  0  0  0  0  0
   48.1340    6.8558   20.8722 C   0  0  0  0  0  0  0  0  0  0  0  0
   47.3406    5.4282   22.7994 C   0  0  0  0  0  0  0  0  0  0  0  0
   47.8761    6.6709   18.4479 H   0  0  0  0  0  0  0  0  0  0  0  0
   50.5918    5.7046   22.1122 H   0  0  0  0  0  0  0  0  0  0  0  0
   46.9028    4.0427   19.6504 H   0  0  0  0  0  0  0  0  0  0  0  0
   46.4038    5.6594   20.0394 H   0  0  0  0  0  0  0  0  0  0  0  0
   49.3063    6.8633   20.5629 H   0  0  0  0  0  0  0  0  0  0  0  0
   48.5007    5.1996   15.4224 H   0  0  0  0  0  0  0  0  0  0  0  0
   48.8854    6.6463   16.3626 H   0  0  0  0  0  0  0  0  0  0  0  0
   50.0829    5.3534   16.2193 H   0  0  0  0  0  0  0  0  0  0  0  0
   49.6442    3.0969   17.3285 H   0  0  0  0  0  0  0  0  0  0  0  0
   47.9746    2.9449   16.7427 H   0  0  0  0  0  0  0  0  0  0  0  0
   48.3278    2.9053   18.4765 H   0  0  0  0  0  0  0  0  0  0  0  0
   50.2516    5.7793   24.4391 H   0  0  0  0  0  0  0  0  0  0  0  0
   49.0098    4.7811   23.6878 H   0  0  0  0  0  0  0  0  0  0  0  0
   48.6445    6.4489   24.2084 H   0  0  0  0  0  0  0  0  0  0  0  0
   47.7169    4.5775   21.8436 H   0  0  0  0  0  0  0  0  0  0  0  0
   49.0909    4.3722   20.7664 H   0  0  0  0  0  0  0  0  0  0  0  0
   47.0364    6.9679   22.6043 H   0  0  0  0  0  0  0  0  0  0  0  0
   48.1236    8.3231   22.2396 H   0  0  0  0  0  0  0  0  0  0  0  0
   47.0782    7.6733   20.9828 H   0  0  0  0  0  0  0  0  0  0  0  0
   47.7308    5.3485   21.3861 H   0  0  0  0  0  0  0  0  0  0  0  0
   49.1034    6.0293   18.7303 H   0  0  0  0  0  0  0  0  0  0  0  0
   48.2622    8.0702   20.0498 H   0  0  0  0  0  0  0  0  0  0  0  0
   47.3802    3.9675   18.7229 H   0  0  0  0  0  0  0  0  0  0  0  0
   47.2531    7.5359   22.6163 H   0  0  0  0  0  0  0  0  0  0  0  0
   48.6161    2.1299   19.6335 H   0  0  0  0  0  0  0  0  0  0  0  0
   46.0324    6.6404   20.3511 H   0  0  0  0  0  0  0  0  0  0  0  0
   50.0339    4.2661   20.7171 H   0  0  0  0  0  0  0  0  0  0  0  0
   49.7488    4.0359   16.0717 H   0  0  0  0  0  0  0  0  0  0  0  0
   50.2438    7.1748   23.3640 H   0  0  0  0  0  0  0  0  0  0  0  0
   47.0371    6.7637   18.1948 H   0  0  0  0  0  0  0  0  0  0  0  0
   49.3902    3.9090   22.0134 H   0  0  0  0  0  0  0  0  0  0  0  0
   49.8229    6.5950   19.5282 H   0  0  0  0  0  0  0  0  0  0  0  0
   48.8580    8.0095   19.2141 H   0  0  0  0  0  0  0  0  0  0  0  0
   47.6160    4.7745   20.8017 H   0  0  0  0  0  0  0  0  0  0  0  0
   47.8692    4.6154   15.6810 H   0  0  0  0  0  0  0  0  0  0  0  0
   47.0518    3.6146   16.9024 H   0  0  0  0  0  0  0  0  0  0  0  0
   46.4647    5.2445   16.5506 H   0  0  0  0  0  0  0  0  0  0  0  0
   49.2967    3.3165   18.1409 H   0  0  0  0  0  0  0  0  0  0  0  0
   50.2092    4.7210   18.6795 H   0  0  0  0  0  0  0  0  0  0  0  0
   50.1313    4.3454   16.9590 H   0  0  0  0  0  0  0  0  0  0  0  0
   50.5817    6.6083   22.1826 H   0  0  0  0  0  0  0  0  0  0  0  0
   51.3380    5.0800   22.6001 H   0  0  0  0  0  0  0  0  0  0  0  0
   49.9893    5.6600   23.5741 H   0  0  0  0  0  0  0  0  0  0  0  0
   48.6322    7.5649   21.5449 H   0  0  0  0  0  0  0  0  0  0  0  0
   47.0946    7.2040   20.7960 H   0  0  0  0  0  0  0  0  0  0  0  0
   47.3444    4.4310   23.2532 H   0  0  0  0  0  0  0  0  0  0  0  0
   46.2957    5.6960   22.6071 H   0  0  0  0  0  0  0  0  0  0  0  0
   47.7338    6.1408   23.5319 H   0  0  0  0  0  0  0  0  0  0  0  0
  2  1  2  3
  3  5  1  0
  4  2  1  0
  5  9  1  0
  6  1  1  0
  7  1  1  0
  8  3  1  0
  9  4  1  0
 10  5  1  0
 12 11  1  0
 13 11  1  0
 14 12  1  0
 15 13  1  0
 16 14  1  0
 17 15  2  0
 18 16  2  0
 13 19  1  0
 14 20  1  0
 11 21  1  0
 12 22  1  0
 23 16  1  0
 24 15  1  0
 26 25  2  3
 27 29  1  0
 28 26  1  0
 29 33  1  0
 30 25  1  0
 31 25  1  0
 32 27  1  0
 33 28  1  0
 34 29  1  0
  2 35  1  0
  3 36  1  0
  4 37  1  0
  4 38  1  0
  5 39  1  1
  6 40  1  0
  6 41  1  0
  6 42  1  0
  7 43  1  0
  7 44  1  0
  7 45  1  0
  8 46  1  0
  8 47  1  0
  8 48  1  0
  9 49  1  0
  9 50  1  0
 10 51  1  0
 10 52  1  0
 10 53  1  0
 11 54  1  6
 12 55  1  1
 13 56  1  1
 14 57  1  6
 19 58  1  0
 20 59  1  0
 21 60  1  0
 22 61  1  0
 23 62  1  0
 24 63  1  0
 26 64  1  0
 27 65  1  0
 28 66  1  0
 28 67  1  0
 29 68  1  6
 30 69  1  0
 30 70  1  0
 30 71  1  0
 31 72  1  0
 31 73  1  0
 31 74  1  0
 32 75  1  0
 32 76  1  0
 32 77  1  0
 33 78  1  0
 33 79  1  0
 34 80  1  0
 34 81  1  0
 34 82  1  0
M  END
> <Uni-Dock RESULT> 
ENERGY=   -4.774  LOWER_BOUND=    1.185  UPPER_BOUND=    1.998
INTER + INTRA:          -4.774
INTER:                  -4.774
INTRA:                   0.000
UNBOUND:                 0.000

$$$$

     RDKit          3D

 82 79  0  0  0  0  0  0  0  0999 V2000
   48.0723    8.0847   22.9869 C   0  0  0  0  0  0  0  0  0  0  0  0
   47.9496    6.8784   22.3996 C   0  0  0  0  0  0  0  0  0  0  0  0
   49.9250    5.7351   18.6045 N   0  0  0  0  0  0  0  0  0  0  0  0
   47.1275    6.5328   21.1886 C   0  0  0  0  0  0  0  0  0  0  0  0
   49.0998    5.5449   19.8113 C   0  0  1  0  0  0  0  0  0  0  0  0
   48.9136    8.2554   24.2248 C   0  0  0  0  0  0  0  0  0  0  0  0
   47.4272    9.3516   22.4962 C   0  0  0  0  0  0  0  0  0  0  0  0
   49.2659    5.4410   17.3406 C   0  0  0  0  0  0  0  0  0  0  0  0
   47.9274    6.5474   19.8794 C   0  0  0  0  0  0  0  0  0  0  0  0
   48.6469    4.0897   19.9632 C   0  0  0  0  0  0  0  0  0  0  0  0
   48.0721    5.8120   20.7306 C   0  0  1  0  0  0  0  0  0  0  0  0
   48.6590    7.1613   21.1825 C   0  0  2  0  0  0  0  0  0  0  0  0
   49.0993    4.6679   20.7193 C   0  0  2  0  0  0  0  0  0  0  0  0
   47.5670    8.2337   21.3421 C   0  0  1  0  0  0  0  0  0  0  0  0
   50.2539    4.8858   19.7515 C   0  0  0  0  0  0  0  0  0  0  0  0
   48.0548    9.4055   22.1874 C   0  0  0  0  0  0  0  0  0  0  0  0
   51.4157    5.1290   20.0294 O   0  0  0  0  0  0  0  0  0  0  0  0
   47.9787   10.5819   21.8607 O   0  0  0  0  0  0  0  0  0  0  0  0
   48.3860    3.4623   20.3591 O   0  0  0  0  0  0  0  0  0  0  0  0
   47.2032    8.6885   20.0231 O   0  0  0  0  0  0  0  0  0  0  0  0
   47.0007    5.4265   21.6144 O   0  0  0  0  0  0  0  0  0  0  0  0
   49.5995    7.6104   20.1926 O   0  0  0  0  0  0  0  0  0  0  0  0
   48.5144    9.0614   23.4036 O   0  0  0  0  0  0  0  0  0  0  0  0
   49.8720    4.7150   18.4629 O   0  0  0  0  0  0  0  0  0  0  0  0
   48.0798    7.7126   22.9568 C   0  0  0  0  0  0  0  0  0  0  0  0
   48.3629    6.4165   22.7211 C   0  0  0  0  0  0  0  0  0  0  0  0
   48.8894    7.0161   18.9560 N   0  0  0  0  0  0  0  0  0  0  0  0
   49.3898    5.8471   21.7779 C   0  0  0  0  0  0  0  0  0  0  0  0
   48.0361    5.9894   19.5755 C   0  0  2  0  0  0  0  0  0  0  0  0
   47.0220    8.0963   23.9585 C   0  0  0  0  0  0  0  0  0  0  0  0
   48.7380    8.8826   22.2786 C   0  0  0  0  0  0  0  0  0  0  0  0
   50.0187    6.5129   18.1887 C   0  0  0  0  0  0  0  0  0  0  0  0
   48.7598    5.0916   20.6011 C   0  0  0  0  0  0  0  0  0  0  0  0
   47.3206    5.1314   18.5253 C   0  0  0  0  0  0  0  0  0  0  0  0
   48.4773    6.0323   22.8400 H   0  0  0  0  0  0  0  0  0  0  0  0
   50.2640    6.6973   18.5855 H   0  0  0  0  0  0  0  0  0  0  0  0
   46.2790    7.2193   21.0911 H   0  0  0  0  0  0  0  0  0  0  0  0
   46.6729    5.5477   21.3459 H   0  0  0  0  0  0  0  0  0  0  0  0
   49.7748    5.7530   20.6505 H   0  0  0  0  0  0  0  0  0  0  0  0
   48.3025    8.6411   25.0473 H   0  0  0  0  0  0  0  0  0  0  0  0
   49.3606    7.3126   24.5572 H   0  0  0  0  0  0  0  0  0  0  0  0
   49.7290    8.9611   24.0351 H   0  0  0  0  0  0  0  0  0  0  0  0
   48.1814   10.1378   22.3813 H   0  0  0  0  0  0  0  0  0  0  0  0
   46.6777    9.6956   23.2165 H   0  0  0  0  0  0  0  0  0  0  0  0
   46.9367    9.2392   21.5261 H   0  0  0  0  0  0  0  0  0  0  0  0
   49.9778    5.6003   16.5239 H   0  0  0  0  0  0  0  0  0  0  0  0
   48.4105    6.0969   17.1564 H   0  0  0  0  0  0  0  0  0  0  0  0
   48.9436    4.3978   17.2782 H   0  0  0  0  0  0  0  0  0  0  0  0
   47.2215    6.3476   19.0636 H   0  0  0  0  0  0  0  0  0  0  0  0
   48.3114    7.5633   19.7154 H   0  0  0  0  0  0  0  0  0  0  0  0
   47.8505    3.8331   19.2568 H   0  0  0  0  0  0  0  0  0  0  0  0
   49.4832    3.3998   19.8027 H   0  0  0  0  0  0  0  0  0  0  0  0
   48.2701    3.9013   20.9738 H   0  0  0  0  0  0  0  0  0  0  0  0
   47.6346    5.9113   19.7292 H   0  0  0  0  0  0  0  0  0  0  0  0
   49.1990    7.0144   22.1243 H   0  0  0  0  0  0  0  0  0  0  0  0
   49.5032    4.4926   21.7219 H   0  0  0  0  0  0  0  0  0  0  0  0
   46.6634    7.8534   21.8286 H   0  0  0  0  0  0  0  0  0  0  0  0
   48.3273    3.4771   19.3817 H   0  0  0  0  0  0  0  0  0  0  0  0
   46.7712    9.5572   20.1497 H   0  0  0  0  0  0  0  0  0  0  0  0
   46.8519    4.4727   21.4445 H   0  0  0  0  0  0  0  0  0  0  0  0
   49.0676    8.1095   19.5348 H   0  0  0  0  0  0  0  0  0  0  0  0
   48.7695    9.9114   23.8218 H   0  0  0  0  0  0  0  0  0  0  0  0
   50.7005    4.8883   17.9640 H   0  0  0  0  0  0  0  0  0  0  0  0
   47.8079    5.6596   23.2753 H   0  0  0  0  0  0  0  0  0  0  0  0
   48.3140    7.6033   18.3525 H   0  0  0  0  0  0  0  0  0  0  0  0
   50.0955    6.6001   21.4180 H   0  0  0  0  0  0  0  0  0  0  0  0
   49.9955    5.1362   22.3549 H   0  0  0  0  0  0  0  0  0  0  0  0
   47.2502    6.5359   20.1116 H   0  0  0  0  0  0  0  0  0  0  0  0
   47.4574    8.7133   24.7514 H   0  0  0  0  0  0  0  0  0  0  0  0
   46.2259    8.6673   23.4696 H   0  0  0  0  0  0  0  0  0  0  0  0
   46.5611    7.2234   24.4326 H   0  0  0  0  0  0  0  0  0  0  0  0
   47.9841    9.4927   21.7696 H   0  0  0  0  0  0  0  0  0  0  0  0
   49.4794    8.5973   21.5303 H   0  0  0  0  0  0  0  0  0  0  0  0
   49.2441    9.5095   23.0202 H   0  0  0  0  0  0  0  0  0  0  0  0
   50.7171    5.9447   18.8092 H   0  0  0  0  0  0  0  0  0  0  0  0
   50.5783    7.3623   17.7831 H   0  0  0  0  0  0  0  0  0  0  0  0
   49.7034    5.8985   17.3406 H   0  0  0  0  0  0  0  0  0  0  0  0
   49.5415    4.5059   20.1015 H   0  0  0  0  0  0  0  0  0  0  0  0
   48.0466    4.3540   20.9944 H   0  0  0  0  0  0  0  0  0  0  0  0
   46.8070    5.7579   17.7879 H   0  0  0  0  0  0  0  0  0  0  0  0
   46.5631    4.4993   19.0018 H   0  0  0  0  0  0  0  0  0  0  0  0
   48.0130    4.4711   17.9929 H   0  0  0  0  0  0  0  0  0  0  0  0
  2  1  2  3
  3  5  1  0
  4  2  1  0
  5  9  1  0
  6  1  1  0
  7  1  1  0
  8  3  1  0
  9  4  1  0
 10  5  1  0
 12 11  1  0
 13 11  1  0
 14 12  1  0
 15 13  1  0
 16 14  1  0
 17 15  2  0
 18 16  2  0
 13 19  1  0
 14 20  1  0
 11 21  1  0
 12 22  1  0
 23 16  1  0
 24 15  1  0
 26 25  2  3
 27 29  1  0
 28 26  1  0
 29 33  1  0
 30 25  1  0
 31 25  1  0
 32 27  1  0
 33 28  1  0
 34 29  1  0
  2 35  1  0
  3 36  1  0
  4 37  1  0
  4 38  1  0
  5 39  1  1
  6 40  1  0
  6 41  1  0
  6 42  1  0
  7 43  1  0
  7 44  1  0
  7 45  1  0
  8 46  1  0
  8 47  1  0
  8 48  1  0
  9 49  1  0
  9 50  1  0
 10 51  1  0
 10 52  1  0
 10 53  1  0
 11 54  1  6
 12 55  1  1
 13 56  1  1
 14 57  1  6
 19 58  1  0
 20 59  1  0
 21 60  1  0
 22 61  1  0
 23 62  1  0
 24 63  1  0
 26 64  1  0
 27 65  1  0
 28 66  1  0
 28 67  1  0
 29 68  1  6
 30 69  1  0
 30 70  1  0
 30 71  1  0
 31 72  1  0
 31 73  1  0
 31 74  1  0
 32 75  1  0
 32 76  1  0
 32 77  1  0
 33 78  1  0
 33 79  1  0
 34 80  1  0
 34 81  1  0
 34 82  1  0
M  END
> <Uni-Dock RESULT> 
ENERGY=   -4.632  LOWER_BOUND=    1.360  UPPER_BOUND=    4.938
INTER + INTRA:          -4.632
INTER:                  -4.632
INTRA:                   0.000
UNBOUND:                 0.000

$$$$

     RDKit          3D

 82 79  0  0  0  0  0  0  0  0999 V2000
   48.4911    6.1602   22.0244 C   0  0  0  0  0  0  0  0  0  0  0  0
   47.7166    7.2314   21.7641 C   0  0  0  0  0  0  0  0  0  0  0  0
   49.1031   10.8585   19.6348 N   0  0  0  0  0  0  0  0  0  0  0  0
   47.7360    8.5627   22.4634 C   0  0  0  0  0  0  0  0  0  0  0  0
   48.1401    9.9752   20.3176 C   0  0  1  0  0  0  0  0  0  0  0  0
   48.3190    4.8800   21.2491 C   0  0  0  0  0  0  0  0  0  0  0  0
   49.5796    6.1155   23.0613 C   0  0  0  0  0  0  0  0  0  0  0  0
   49.2391   12.1935   20.1984 C   0  0  0  0  0  0  0  0  0  0  0  0
   48.5917    9.6179   21.7502 C   0  0  0  0  0  0  0  0  0  0  0  0
   46.7182   10.5420   20.2667 C   0  0  0  0  0  0  0  0  0  0  0  0
   47.6300    9.1700   21.3491 C   0  0  1  0  0  0  0  0  0  0  0  0
   48.7266    8.0973   21.2213 C   0  0  2  0  0  0  0  0  0  0  0  0
   46.9903    9.5578   20.0058 C   0  0  2  0  0  0  0  0  0  0  0  0
   49.2187    7.6176   22.5982 C   0  0  1  0  0  0  0  0  0  0  0  0
   47.9660   10.1754   19.0139 C   0  0  0  0  0  0  0  0  0  0  0  0
   49.9563    6.2868   22.4948 C   0  0  0  0  0  0  0  0  0  0  0  0
   48.3925    9.6750   17.9874 O   0  0  0  0  0  0  0  0  0  0  0  0
   51.0658    6.0652   22.9597 O   0  0  0  0  0  0  0  0  0  0  0  0
   45.9335   10.5013   20.2972 O   0  0  0  0  0  0  0  0  0  0  0  0
   50.0948    8.6326   23.1285 O   0  0  0  0  0  0  0  0  0  0  0  0
   46.5781    8.6908   22.2101 O   0  0  0  0  0  0  0  0  0  0  0  0
   49.8408    8.6588   20.5078 O   0  0  0  0  0  0  0  0  0  0  0  0
   49.2489    5.3020   21.9130 O   0  0  0  0  0  0  0  0  0  0  0  0
   48.3002   11.4428   19.3565 O   0  0  0  0  0  0  0  0  0  0  0  0
   48.1964    6.3508   21.8968 C   0  0  0  0  0  0  0  0  0  0  0  0
   47.3080    7.0987   21.2136 C   0  0  0  0  0  0  0  0  0  0  0  0
   49.6983   10.1090   21.0208 N   0  0  0  0  0  0  0  0  0  0  0  0
   47.5763    8.0592   20.0850 C   0  0  0  0  0  0  0  0  0  0  0  0
   48.2982   10.1212   21.4744 C   0  0  2  0  0  0  0  0  0  0  0  0
   47.7368    5.4246   22.9925 C   0  0  0  0  0  0  0  0  0  0  0  0
   49.6842    6.3518   21.6761 C   0  0  0  0  0  0  0  0  0  0  0  0
   49.9720   10.8713   19.8120 C   0  0  0  0  0  0  0  0  0  0  0  0
   47.2958    9.5177   20.4681 C   0  0  0  0  0  0  0  0  0  0  0  0
   47.8481   11.5234   21.9012 C   0  0  0  0  0  0  0  0  0  0  0  0
   46.9670    7.1490   20.9768 H   0  0  0  0  0  0  0  0  0  0  0  0
   50.0178   10.4065   19.6288 H   0  0  0  0  0  0  0  0  0  0  0  0
   48.0976    8.4517   23.4918 H   0  0  0  0  0  0  0  0  0  0  0  0
   46.7036    8.9167   22.5672 H   0  0  0  0  0  0  0  0  0  0  0  0
   48.1323    9.0534   19.7232 H   0  0  0  0  0  0  0  0  0  0  0  0
   48.0784    4.0558   21.9286 H   0  0  0  0  0  0  0  0  0  0  0  0
   47.5139    4.9466   20.5098 H   0  0  0  0  0  0  0  0  0  0  0  0
   49.2420    4.6334   20.7143 H   0  0  0  0  0  0  0  0  0  0  0  0
   50.5169    5.7745   22.6083 H   0  0  0  0  0  0  0  0  0  0  0  0
   49.3093    5.4179   23.8607 H   0  0  0  0  0  0  0  0  0  0  0  0
   49.7834    7.0880   23.5162 H   0  0  0  0  0  0  0  0  0  0  0  0
   49.9627   12.7585   19.6014 H   0  0  0  0  0  0  0  0  0  0  0  0
   49.6130   12.1739   21.2259 H   0  0  0  0  0  0  0  0  0  0  0  0
   48.2992   12.7516   20.1647 H   0  0  0  0  0  0  0  0  0  0  0  0
   48.5864   10.5192   22.3758 H   0  0  0  0  0  0  0  0  0  0  0  0
   49.6316    9.2651   21.7234 H   0  0  0  0  0  0  0  0  0  0  0  0
   46.5879   11.3827   20.9560 H   0  0  0  0  0  0  0  0  0  0  0  0
   46.4686   10.8851   19.2561 H   0  0  0  0  0  0  0  0  0  0  0  0
   45.9825    9.7758   20.5320 H   0  0  0  0  0  0  0  0  0  0  0  0
   48.0410   10.0698   21.8239 H   0  0  0  0  0  0  0  0  0  0  0  0
   48.3343    7.2586   20.6358 H   0  0  0  0  0  0  0  0  0  0  0  0
   46.5052    8.6948   19.5379 H   0  0  0  0  0  0  0  0  0  0  0  0
   48.4044    7.4678   23.3139 H   0  0  0  0  0  0  0  0  0  0  0  0
   46.3772   11.3697   20.3858 H   0  0  0  0  0  0  0  0  0  0  0  0
   50.6315    8.1896   23.8163 H   0  0  0  0  0  0  0  0  0  0  0  0
   45.8147    9.2829   22.0447 H   0  0  0  0  0  0  0  0  0  0  0  0
   50.3992    9.0884   21.1921 H   0  0  0  0  0  0  0  0  0  0  0  0
   49.8436    4.5222   21.9370 H   0  0  0  0  0  0  0  0  0  0  0  0
   48.9246   11.7048   18.6446 H   0  0  0  0  0  0  0  0  0  0  0  0
   46.2534    7.0119   21.4752 H   0  0  0  0  0  0  0  0  0  0  0  0
   50.2921   10.4569   21.7735 H   0  0  0  0  0  0  0  0  0  0  0  0
   48.5838    7.9564   19.6741 H   0  0  0  0  0  0  0  0  0  0  0  0
   46.9005    7.7860   19.2642 H   0  0  0  0  0  0  0  0  0  0  0  0
   48.2707    9.5019   22.3797 H   0  0  0  0  0  0  0  0  0  0  0  0
   48.0192    4.3927   22.7592 H   0  0  0  0  0  0  0  0  0  0  0  0
   48.1977    5.7056   23.9450 H   0  0  0  0  0  0  0  0  0  0  0  0
   46.6506    5.4484   23.1295 H   0  0  0  0  0  0  0  0  0  0  0  0
   50.1998    6.6280   22.6022 H   0  0  0  0  0  0  0  0  0  0  0  0
   50.0139    7.0493   20.9042 H   0  0  0  0  0  0  0  0  0  0  0  0
   50.0198    5.3522   21.3807 H   0  0  0  0  0  0  0  0  0  0  0  0
   49.4235   10.4844   18.9488 H   0  0  0  0  0  0  0  0  0  0  0  0
   51.0370   10.7846   19.5719 H   0  0  0  0  0  0  0  0  0  0  0  0
   49.7534   11.9358   19.9342 H   0  0  0  0  0  0  0  0  0  0  0  0
   47.2726   10.1225   19.5531 H   0  0  0  0  0  0  0  0  0  0  0  0
   46.2835    9.5849   20.8902 H   0  0  0  0  0  0  0  0  0  0  0  0
   48.5550   11.9650   22.6122 H   0  0  0  0  0  0  0  0  0  0  0  0
   46.8722   11.4757   22.3972 H   0  0  0  0  0  0  0  0  0  0  0  0
   47.7507   12.2016   21.0471 H   0  0  0  0  0  0  0  0  0  0  0  0
  2  1  2  3
  3  5  1  0
  4  2  1  0
  5  9  1  0
  6  1  1  0
  7  1  1  0
  8  3  1  0
  9  4  1  0
 10  5  1  0
 12 11  1  0
 13 11  1  0
 14 12  1  0
 15 13  1  0
 16 14  1  0
 17 15  2  0
 18 16  2  0
 13 19  1  0
 14 20  1  0
 11 21  1  0
 12 22  1  0
 23 16  1  0
 24 15  1  0
 26 25  2  3
 27 29  1  0
 28 26  1  0
 29 33  1  0
 30 25  1  0
 31 25  1  0
 32 27  1  0
 33 28  1  0
 34 29  1  0
  2 35  1  0
  3 36  1  0
  4 37  1  0
  4 38  1  0
  5 39  1  1
  6 40  1  0
  6 41  1  0
  6 42  1  0
  7 43  1  0
  7 44  1  0
  7 45  1  0
  8 46  1  0
  8 47  1  0
  8 48  1  0
  9 49  1  0
  9 50  1  0
 10 51  1  0
 10 52  1  0
 10 53  1  0
 11 54  1  6
 12 55  1  1
 13 56  1  1
 14 57  1  6
 19 58  1  0
 20 59  1  0
 21 60  1  0
 22 61  1  0
 23 62  1  0
 24 63  1  0
 26 64  1  0
 27 65  1  0
 28 66  1  0
 28 67  1  0
 29 68  1  6
 30 69  1  0
 30 70  1  0
 30 71  1  0
 31 72  1  0
 31 73  1  0
 31 74  1  0
 32 75  1  0
 32 76  1  0
 32 77  1  0
 33 78  1  0
 33 79  1  0
 34 80  1  0
 34 81  1  0
 34 82  1  0
M  END
> <Uni-Dock RESULT> 
ENERGY=   -4.557  LOWER_BOUND=    2.725  UPPER_BOUND=    4.594
INTER + INTRA:          -4.557
INTER:                  -4.557
INTRA:                   0.000
UNBOUND:                 0.000

$$$$

     RDKit          3D

 82 79  0  0  0  0  0  0  0  0999 V2000
   46.9097    7.2808   12.6145 C   0  0  0  0  0  0  0  0  0  0  0  0
   48.2268    7.4232   12.3692 C   0  0  0  0  0  0  0  0  0  0  0  0
   50.8466   10.3503   14.4142 N   0  0  0  0  0  0  0  0  0  0  0  0
   48.8959    8.5204   11.5881 C   0  0  0  0  0  0  0  0  0  0  0  0
   50.5074    9.2487   13.4947 C   0  0  1  0  0  0  0  0  0  0  0  0
   46.3954    6.0958   13.3895 C   0  0  0  0  0  0  0  0  0  0  0  0
   45.8427    8.2467   12.1782 C   0  0  0  0  0  0  0  0  0  0  0  0
   51.5035   11.4970   13.8045 C   0  0  0  0  0  0  0  0  0  0  0  0
   49.4321    9.6592   12.4655 C   0  0  0  0  0  0  0  0  0  0  0  0
   51.7576    8.6516   12.8419 C   0  0  0  0  0  0  0  0  0  0  0  0
   49.8256    8.5954   12.4550 C   0  0  1  0  0  0  0  0  0  0  0  0
   48.4717    8.5789   13.1872 C   0  0  2  0  0  0  0  0  0  0  0  0
   50.9972    8.0987   13.3181 C   0  0  2  0  0  0  0  0  0  0  0  0
   47.3071    8.9195   12.2409 C   0  0  1  0  0  0  0  0  0  0  0  0
   51.2591    8.9516   14.5515 C   0  0  0  0  0  0  0  0  0  0  0  0
   45.9673    8.4855   12.8259 C   0  0  0  0  0  0  0  0  0  0  0  0
   51.0533    8.6517   15.7150 O   0  0  0  0  0  0  0  0  0  0  0  0
   44.9841    9.2058   12.9295 O   0  0  0  0  0  0  0  0  0  0  0  0
   52.1719    8.0934   12.4742 O   0  0  0  0  0  0  0  0  0  0  0  0
   47.3186   10.3454   12.0273 O   0  0  0  0  0  0  0  0  0  0  0  0
   49.7578    7.7538   11.2869 O   0  0  0  0  0  0  0  0  0  0  0  0
   48.5049    9.5555   14.2413 O   0  0  0  0  0  0  0  0  0  0  0  0
   45.8995    7.1834   13.1559 O   0  0  0  0  0  0  0  0  0  0  0  0
   51.8388   10.1343   14.2340 O   0  0  0  0  0  0  0  0  0  0  0  0
   47.2667    7.1791   12.5740 C   0  0  0  0  0  0  0  0  0  0  0  0
   48.5832    6.9189   12.6953 C   0  0  0  0  0  0  0  0  0  0  0  0
   49.4255   10.5783   13.5392 N   0  0  0  0  0  0  0  0  0  0  0  0
   49.5541    7.4897   13.6953 C   0  0  0  0  0  0  0  0  0  0  0  0
   50.0699    9.7371   12.5177 C   0  0  2  0  0  0  0  0  0  0  0  0
   46.4441    6.4927   11.5148 C   0  0  0  0  0  0  0  0  0  0  0  0
   46.4903    8.1456   13.4255 C   0  0  0  0  0  0  0  0  0  0  0  0
   50.2827   10.9972   14.6379 C   0  0  0  0  0  0  0  0  0  0  0  0
   50.6113    8.3923   13.0469 C   0  0  0  0  0  0  0  0  0  0  0  0
   51.1681   10.4955   11.7629 C   0  0  0  0  0  0  0  0  0  0  0  0
   48.9092    6.6626   12.7492 H   0  0  0  0  0  0  0  0  0  0  0  0
   49.9949   10.6649   14.8796 H   0  0  0  0  0  0  0  0  0  0  0  0
   48.2063    8.9406   10.8474 H   0  0  0  0  0  0  0  0  0  0  0  0
   49.7076    8.0814   10.9962 H   0  0  0  0  0  0  0  0  0  0  0  0
   50.0837    8.4662   14.1360 H   0  0  0  0  0  0  0  0  0  0  0  0
   45.6808    5.5290   12.7839 H   0  0  0  0  0  0  0  0  0  0  0  0
   47.1978    5.4111   13.6836 H   0  0  0  0  0  0  0  0  0  0  0  0
   45.8917    6.4293   14.3027 H   0  0  0  0  0  0  0  0  0  0  0  0
   45.2313    8.5450   13.0368 H   0  0  0  0  0  0  0  0  0  0  0  0
   45.1891    7.7756   11.4367 H   0  0  0  0  0  0  0  0  0  0  0  0
   46.2432    9.1645   11.7407 H   0  0  0  0  0  0  0  0  0  0  0  0
   51.7204   12.2365   14.5824 H   0  0  0  0  0  0  0  0  0  0  0  0
   50.8725   11.9882   13.0584 H   0  0  0  0  0  0  0  0  0  0  0  0
   52.4611   11.2283   13.3498 H   0  0  0  0  0  0  0  0  0  0  0  0
   49.8365   10.4262   11.7932 H   0  0  0  0  0  0  0  0  0  0  0  0
   48.5869   10.1227   12.9921 H   0  0  0  0  0  0  0  0  0  0  0  0
   52.1664    9.3067   12.0656 H   0  0  0  0  0  0  0  0  0  0  0  0
   52.5413    8.4719   13.5868 H   0  0  0  0  0  0  0  0  0  0  0  0
   51.5329    7.6853   12.3789 H   0  0  0  0  0  0  0  0  0  0  0  0
   50.0462    9.6102   12.1003 H   0  0  0  0  0  0  0  0  0  0  0  0
   48.3271    7.5922   13.6408 H   0  0  0  0  0  0  0  0  0  0  0  0
   50.8433    7.0602   13.6293 H   0  0  0  0  0  0  0  0  0  0  0  0
   47.3937    8.4318   11.2650 H   0  0  0  0  0  0  0  0  0  0  0  0
   52.5013    9.0155   12.4812 H   0  0  0  0  0  0  0  0  0  0  0  0
   46.4226   10.5751   11.7084 H   0  0  0  0  0  0  0  0  0  0  0  0
   50.6887    7.5976   11.0227 H   0  0  0  0  0  0  0  0  0  0  0  0
   48.2219   10.3987   13.8247 H   0  0  0  0  0  0  0  0  0  0  0  0
   44.9872    7.0609   13.4951 H   0  0  0  0  0  0  0  0  0  0  0  0
   51.9411   10.5699   15.1087 H   0  0  0  0  0  0  0  0  0  0  0  0
   49.0310    6.2000   12.0092 H   0  0  0  0  0  0  0  0  0  0  0  0
   49.0369   11.4062   13.0878 H   0  0  0  0  0  0  0  0  0  0  0  0
   49.0561    8.0100   14.5172 H   0  0  0  0  0  0  0  0  0  0  0  0
   50.0701    6.6405   14.1616 H   0  0  0  0  0  0  0  0  0  0  0  0
   49.2903    9.5118   11.7793 H   0  0  0  0  0  0  0  0  0  0  0  0
   45.6328    5.9208   11.9770 H   0  0  0  0  0  0  0  0  0  0  0  0
   46.0069    7.2320   10.8357 H   0  0  0  0  0  0  0  0  0  0  0  0
   47.0379    5.7980   10.9114 H   0  0  0  0  0  0  0  0  0  0  0  0
   46.0283    8.9126   12.7946 H   0  0  0  0  0  0  0  0  0  0  0  0
   47.0986    8.6641   14.1687 H   0  0  0  0  0  0  0  0  0  0  0  0
   45.6954    7.6173   13.9623 H   0  0  0  0  0  0  0  0  0  0  0  0
   50.6601   10.1467   15.2123 H   0  0  0  0  0  0  0  0  0  0  0  0
   49.6964   11.6092   15.3313 H   0  0  0  0  0  0  0  0  0  0  0  0
   51.1236   11.6084   14.2984 H   0  0  0  0  0  0  0  0  0  0  0  0
   51.4137    8.5706   13.7734 H   0  0  0  0  0  0  0  0  0  0  0  0
   51.0823    7.8471   12.2172 H   0  0  0  0  0  0  0  0  0  0  0  0
   50.7971   11.4551   11.3866 H   0  0  0  0  0  0  0  0  0  0  0  0
   51.5070    9.9140   10.8982 H   0  0  0  0  0  0  0  0  0  0  0  0
   52.0423   10.6881   12.3934 H   0  0  0  0  0  0  0  0  0  0  0  0
  2  1  2  3
  3  5  1  0
  4  2  1  0
  5  9  1  0
  6  1  1  0
  7  1  1  0
  8  3  1  0
  9  4  1  0
 10  5  1  0
 12 11  1  0
 13 11  1  0
 14 12  1  0
 15 13  1  0
 16 14  1  0
 17 15  2  0
 18 16  2  0
 13 19  1  0
 14 20  1  0
 11 21  1  0
 12 22  1  0
 23 16  1  0
 24 15  1  0
 26 25  2  3
 27 29  1  0
 28 26  1  0
 29 33  1  0
 30 25  1  0
 31 25  1  0
 32 27  1  0
 33 28  1  0
 34 29  1  0
  2 35  1  0
  3 36  1  0
  4 37  1  0
  4 38  1  0
  5 39  1  1
  6 40  1  0
  6 41  1  0
  6 42  1  0
  7 43  1  0
  7 44  1  0
  7 45  1  0
  8 46  1  0
  8 47  1  0
  8 48  1  0
  9 49  1  0
  9 50  1  0
 10 51  1  0
 10 52  1  0
 10 53  1  0
 11 54  1  6
 12 55  1  1
 13 56  1  1
 14 57  1  6
 19 58  1  0
 20 59  1  0
 21 60  1  0
 22 61  1  0
 23 62  1  0
 24 63  1  0
 26 64  1  0
 27 65  1  0
 28 66  1  0
 28 67  1  0
 29 68  1  6
 30 69  1  0
 30 70  1  0
 30 71  1  0
 31 72  1  0
 31 73  1  0
 31 74  1  0
 32 75  1  0
 32 76  1  0
 32 77  1  0
 33 78  1  0
 33 79  1  0
 34 80  1  0
 34 81  1  0
 34 82  1  0
M  END
> <Uni-Dock RESULT> 
ENERGY=   -4.546  LOWER_BOUND=    6.856  UPPER_BOUND=    8.492
INTER + INTRA:          -4.546
INTER:                  -4.546
INTRA:                   0.000
UNBOUND:                 0.000

$$$$

     RDKit          3D

 82 79  0  0  0  0  0  0  0  0999 V2000
   46.2192    6.9644   12.4615 C   0  0  0  0  0  0  0  0  0  0  0  0
   47.5303    6.9762   12.7713 C   0  0  0  0  0  0  0  0  0  0  0  0
   49.3496    9.6047   15.8362 N   0  0  0  0  0  0  0  0  0  0  0  0
   48.5512    8.0083   12.3787 C   0  0  0  0  0  0  0  0  0  0  0  0
   49.3144    8.5520   14.8045 C   0  0  1  0  0  0  0  0  0  0  0  0
   45.3340    5.8294   12.9061 C   0  0  0  0  0  0  0  0  0  0  0  0
   45.5082    8.0370   11.6830 C   0  0  0  0  0  0  0  0  0  0  0  0
   50.2946   10.6856   15.5981 C   0  0  0  0  0  0  0  0  0  0  0  0
   48.7861    9.0786   13.4527 C   0  0  0  0  0  0  0  0  0  0  0  0
   50.6639    7.8388   14.6780 C   0  0  0  0  0  0  0  0  0  0  0  0
   49.0552    7.9809   13.5478 C   0  0  1  0  0  0  0  0  0  0  0  0
   47.5253    8.0932   13.6751 C   0  0  2  0  0  0  0  0  0  0  0  0
   49.7306    7.3604   14.7819 C   0  0  2  0  0  0  0  0  0  0  0  0
   46.8759    8.5585   12.3599 C   0  0  1  0  0  0  0  0  0  0  0  0
   49.5469    8.1704   16.0577 C   0  0  0  0  0  0  0  0  0  0  0  0
   45.3815    8.2555   12.3375 C   0  0  0  0  0  0  0  0  0  0  0  0
   48.8639    7.8811   17.0251 O   0  0  0  0  0  0  0  0  0  0  0  0
   44.5075    9.0700   12.0744 O   0  0  0  0  0  0  0  0  0  0  0  0
   51.1404    7.2455   14.4797 O   0  0  0  0  0  0  0  0  0  0  0  0
   47.0981    9.9781   12.2397 O   0  0  0  0  0  0  0  0  0  0  0  0
   49.3903    7.1620   12.4101 O   0  0  0  0  0  0  0  0  0  0  0  0
   47.2164    9.0510   14.7013 O   0  0  0  0  0  0  0  0  0  0  0  0
   45.0722    6.9637   12.5477 O   0  0  0  0  0  0  0  0  0  0  0  0
   50.3070    9.2919   16.0578 O   0  0  0  0  0  0  0  0  0  0  0  0
   46.5518    6.8277   12.5623 C   0  0  0  0  0  0  0  0  0  0  0  0
   47.6791    6.4354   13.1873 C   0  0  0  0  0  0  0  0  0  0  0  0
   48.4280    9.9831   14.4781 N   0  0  0  0  0  0  0  0  0  0  0  0
   48.2105    6.8958   14.5193 C   0  0  0  0  0  0  0  0  0  0  0  0
   49.3528    9.0916   13.7596 C   0  0  2  0  0  0  0  0  0  0  0  0
   46.1692    6.2381   11.2298 C   0  0  0  0  0  0  0  0  0  0  0  0
   45.5862    7.8589   13.0785 C   0  0  0  0  0  0  0  0  0  0  0  0
   48.8026   10.3027   15.8473 C   0  0  0  0  0  0  0  0  0  0  0  0
   49.5143    7.6940   14.3938 C   0  0  0  0  0  0  0  0  0  0  0  0
   50.7242    9.7432   13.5461 C   0  0  0  0  0  0  0  0  0  0  0  0
   47.9317    6.1471   13.3545 H   0  0  0  0  0  0  0  0  0  0  0  0
   48.4138    9.9987   15.9368 H   0  0  0  0  0  0  0  0  0  0  0  0
   48.2588    8.5030   11.4457 H   0  0  0  0  0  0  0  0  0  0  0  0
   49.4906    7.4959   12.1403 H   0  0  0  0  0  0  0  0  0  0  0  0
   48.6011    7.8097   15.1830 H   0  0  0  0  0  0  0  0  0  0  0  0
   44.8774    5.3434   12.0377 H   0  0  0  0  0  0  0  0  0  0  0  0
   45.8861    5.0647   13.4625 H   0  0  0  0  0  0  0  0  0  0  0  0
   44.5363    6.2028   13.5566 H   0  0  0  0  0  0  0  0  0  0  0  0
   44.6313    8.3866   12.2388 H   0  0  0  0  0  0  0  0  0  0  0  0
   45.1703    7.6413   10.7196 H   0  0  0  0  0  0  0  0  0  0  0  0
   46.1301    8.9142   11.4885 H   0  0  0  0  0  0  0  0  0  0  0  0
   50.2436   11.3918   16.4334 H   0  0  0  0  0  0  0  0  0  0  0  0
   50.0640   11.2452   14.6872 H   0  0  0  0  0  0  0  0  0  0  0  0
   51.3266   10.3266   15.5521 H   0  0  0  0  0  0  0  0  0  0  0  0
   49.4930    9.8078   13.0374 H   0  0  0  0  0  0  0  0  0  0  0  0
   47.8447    9.6195   13.6192 H   0  0  0  0  0  0  0  0  0  0  0  0
   51.4069    8.4572   14.1637 H   0  0  0  0  0  0  0  0  0  0  0  0
   51.0616    7.5739   15.6644 H   0  0  0  0  0  0  0  0  0  0  0  0
   50.5609    6.9046   14.1165 H   0  0  0  0  0  0  0  0  0  0  0  0
   49.4884    8.9719   13.3619 H   0  0  0  0  0  0  0  0  0  0  0  0
   47.1238    7.1216   13.9834 H   0  0  0  0  0  0  0  0  0  0  0  0
   49.3736    6.3396   14.9536 H   0  0  0  0  0  0  0  0  0  0  0  0
   47.3054    8.0743   11.4774 H   0  0  0  0  0  0  0  0  0  0  0  0
   51.5187    8.1297   14.6637 H   0  0  0  0  0  0  0  0  0  0  0  0
   46.4307   10.2998   11.6006 H   0  0  0  0  0  0  0  0  0  0  0  0
   50.3311    6.9157   12.5333 H   0  0  0  0  0  0  0  0  0  0  0  0
   47.2008    9.9225   14.2487 H   0  0  0  0  0  0  0  0  0  0  0  0
   44.0936    6.9301   12.4869 H   0  0  0  0  0  0  0  0  0  0  0  0
   50.0859    9.7064   16.9208 H   0  0  0  0  0  0  0  0  0  0  0  0
   48.3004    5.6820   12.7031 H   0  0  0  0  0  0  0  0  0  0  0  0
   48.3289   10.8503   13.9506 H   0  0  0  0  0  0  0  0  0  0  0  0
   47.4712    7.4553   15.0979 H   0  0  0  0  0  0  0  0  0  0  0  0
   48.4178    5.9944   15.1105 H   0  0  0  0  0  0  0  0  0  0  0  0
   48.9206    8.9531   12.7607 H   0  0  0  0  0  0  0  0  0  0  0  0
   45.1935    5.7460   11.2996 H   0  0  0  0  0  0  0  0  0  0  0  0
   46.1098    7.0243   10.4700 H   0  0  0  0  0  0  0  0  0  0  0  0
   46.8922    5.4933   10.8809 H   0  0  0  0  0  0  0  0  0  0  0  0
   45.4873    8.6747   12.3544 H   0  0  0  0  0  0  0  0  0  0  0  0
   45.8863    8.3062   14.0278 H   0  0  0  0  0  0  0  0  0  0  0  0
   44.5993    7.4078   13.2254 H   0  0  0  0  0  0  0  0  0  0  0  0
   48.8400    9.4130   16.4819 H   0  0  0  0  0  0  0  0  0  0  0  0
   48.0428   10.9637   16.2775 H   0  0  0  0  0  0  0  0  0  0  0  0
   49.7593   10.8298   15.9035 H   0  0  0  0  0  0  0  0  0  0  0  0
   49.9679    7.7835   15.3887 H   0  0  0  0  0  0  0  0  0  0  0  0
   50.2299    7.1125   13.7962 H   0  0  0  0  0  0  0  0  0  0  0  0
   50.6225   10.7390   13.1008 H   0  0  0  0  0  0  0  0  0  0  0  0
   51.3304    9.1393   12.8617 H   0  0  0  0  0  0  0  0  0  0  0  0
   51.2832    9.8407   14.4825 H   0  0  0  0  0  0  0  0  0  0  0  0
  2  1  2  3
  3  5  1  0
  4  2  1  0
  5  9  1  0
  6  1  1  0
  7  1  1  0
  8  3  1  0
  9  4  1  0
 10  5  1  0
 12 11  1  0
 13 11  1  0
 14 12  1  0
 15 13  1  0
 16 14  1  0
 17 15  2  0
 18 16  2  0
 13 19  1  0
 14 20  1  0
 11 21  1  0
 12 22  1  0
 23 16  1  0
 24 15  1  0
 26 25  2  3
 27 29  1  0
 28 26  1  0
 29 33  1  0
 30 25  1  0
 31 25  1  0
 32 27  1  0
 33 28  1  0
 34 29  1  0
  2 35  1  0
  3 36  1  0
  4 37  1  0
  4 38  1  0
  5 39  1  1
  6 40  1  0
  6 41  1  0
  6 42  1  0
  7 43  1  0
  7 44  1  0
  7 45  1  0
  8 46  1  0
  8 47  1  0
  8 48  1  0
  9 49  1  0
  9 50  1  0
 10 51  1  0
 10 52  1  0
 10 53  1  0
 11 54  1  6
 12 55  1  1
 13 56  1  1
 14 57  1  6
 19 58  1  0
 20 59  1  0
 21 60  1  0
 22 61  1  0
 23 62  1  0
 24 63  1  0
 26 64  1  0
 27 65  1  0
 28 66  1  0
 28 67  1  0
 29 68  1  6
 30 69  1  0
 30 70  1  0
 30 71  1  0
 31 72  1  0
 31 73  1  0
 31 74  1  0
 32 75  1  0
 32 76  1  0
 32 77  1  0
 33 78  1  0
 33 79  1  0
 34 80  1  0
 34 81  1  0
 34 82  1  0
M  END
> <Uni-Dock RESULT> 
ENERGY=   -4.524  LOWER_BOUND=    5.270  UPPER_BOUND=    7.550
INTER + INTRA:          -4.524
INTER:                  -4.524
INTRA:                   0.000
UNBOUND:                 0.000

$$$$

     RDKit          3D

 82 79  0  0  0  0  0  0  0  0999 V2000
   49.1742   13.5683   16.4525 C   0  0  0  0  0  0  0  0  0  0  0  0
   48.3051   13.6304   17.4802 C   0  0  0  0  0  0  0  0  0  0  0  0
   48.6596   11.2515   21.1987 N   0  0  0  0  0  0  0  0  0  0  0  0
   47.2478   12.6243   17.8428 C   0  0  0  0  0  0  0  0  0  0  0  0
   48.0770   12.2450   20.2782 C   0  0  1  0  0  0  0  0  0  0  0  0
   50.1538   14.6857   16.2050 C   0  0  0  0  0  0  0  0  0  0  0  0
   49.2785   12.4256   15.4802 C   0  0  0  0  0  0  0  0  0  0  0  0
   47.7549   10.2017   21.6435 C   0  0  0  0  0  0  0  0  0  0  0  0
   47.6950   11.6242   18.9170 C   0  0  0  0  0  0  0  0  0  0  0  0
   46.9198   13.0086   20.9288 C   0  0  0  0  0  0  0  0  0  0  0  0
   47.5390   12.7362   19.0774 C   0  0  1  0  0  0  0  0  0  0  0  0
   48.8436   12.5641   18.2788 C   0  0  2  0  0  0  0  0  0  0  0  0
   47.7331   13.4507   20.4250 C   0  0  2  0  0  0  0  0  0  0  0  0
   48.5808   12.0012   16.8709 C   0  0  1  0  0  0  0  0  0  0  0  0
   48.6375   12.7028   21.3945 C   0  0  0  0  0  0  0  0  0  0  0  0
   49.7692   12.2371   15.9447 C   0  0  0  0  0  0  0  0  0  0  0  0
   49.7632   13.0133   21.7446 O   0  0  0  0  0  0  0  0  0  0  0  0
   50.3121   11.3723   15.2711 O   0  0  0  0  0  0  0  0  0  0  0  0
   46.4208   13.6107   21.0118 O   0  0  0  0  0  0  0  0  0  0  0  0
   48.3262   10.5883   17.0044 O   0  0  0  0  0  0  0  0  0  0  0  0
   46.5950   13.5069   18.3078 O   0  0  0  0  0  0  0  0  0  0  0  0
   49.6996   11.6500   18.9841 O   0  0  0  0  0  0  0  0  0  0  0  0
   50.1471   13.5235   15.8405 O   0  0  0  0  0  0  0  0  0  0  0  0
   48.0232   11.6172   21.9233 O   0  0  0  0  0  0  0  0  0  0  0  0
   48.9674   13.7246   16.7213 C   0  0  0  0  0  0  0  0  0  0  0  0
   48.4350   14.1986   17.8647 C   0  0  0  0  0  0  0  0  0  0  0  0
   48.5902   10.7611   19.5889 N   0  0  0  0  0  0  0  0  0  0  0  0
   48.7995   13.8337   19.2798 C   0  0  0  0  0  0  0  0  0  0  0  0
   47.4223   11.6525   19.5004 C   0  0  2  0  0  0  0  0  0  0  0  0
   48.4834   14.2248   15.3852 C   0  0  0  0  0  0  0  0  0  0  0  0
   50.0472   12.6813   16.6330 C   0  0  0  0  0  0  0  0  0  0  0  0
   49.1033   10.5318   20.9310 C   0  0  0  0  0  0  0  0  0  0  0  0
   47.6747   13.0877   20.0084 C   0  0  0  0  0  0  0  0  0  0  0  0
   46.1912   11.0509   20.1885 C   0  0  0  0  0  0  0  0  0  0  0  0
   48.3325   14.5062   18.1288 H   0  0  0  0  0  0  0  0  0  0  0  0
   49.4700   10.8230   20.7509 H   0  0  0  0  0  0  0  0  0  0  0  0
   46.9257   12.0681   16.9553 H   0  0  0  0  0  0  0  0  0  0  0  0
   46.3527   13.1638   18.1740 H   0  0  0  0  0  0  0  0  0  0  0  0
   48.8779   12.9746   20.1069 H   0  0  0  0  0  0  0  0  0  0  0  0
   50.0052   15.1042   15.2042 H   0  0  0  0  0  0  0  0  0  0  0  0
   50.0439   15.5025   16.9261 H   0  0  0  0  0  0  0  0  0  0  0  0
   51.1807   14.3132   16.2787 H   0  0  0  0  0  0  0  0  0  0  0  0
   50.3127   12.0682   15.4292 H   0  0  0  0  0  0  0  0  0  0  0  0
   48.9776   12.7541   14.4799 H   0  0  0  0  0  0  0  0  0  0  0  0
   48.6601   11.5673   15.7540 H   0  0  0  0  0  0  0  0  0  0  0  0
   48.2910    9.5396   22.3316 H   0  0  0  0  0  0  0  0  0  0  0  0
   47.3962    9.5847   20.8149 H   0  0  0  0  0  0  0  0  0  0  0  0
   46.8995   10.6024   22.1946 H   0  0  0  0  0  0  0  0  0  0  0  0
   46.8774   10.9055   19.0541 H   0  0  0  0  0  0  0  0  0  0  0  0
   48.5487   11.0524   18.5288 H   0  0  0  0  0  0  0  0  0  0  0  0
   46.0146   12.3967   21.0003 H   0  0  0  0  0  0  0  0  0  0  0  0
   47.1883   13.3430   21.9374 H   0  0  0  0  0  0  0  0  0  0  0  0
   46.6713   13.9060   20.3530 H   0  0  0  0  0  0  0  0  0  0  0  0
   47.0770   11.7566   19.2538 H   0  0  0  0  0  0  0  0  0  0  0  0
   49.3528   13.5324   18.2205 H   0  0  0  0  0  0  0  0  0  0  0  0
   48.1255   14.4626   20.2802 H   0  0  0  0  0  0  0  0  0  0  0  0
   47.7119   12.4559   16.3850 H   0  0  0  0  0  0  0  0  0  0  0  0
   46.2234   12.7550   21.4449 H   0  0  0  0  0  0  0  0  0  0  0  0
   48.4809   10.2040   16.1180 H   0  0  0  0  0  0  0  0  0  0  0  0
   45.9133   13.8003   18.9481 H   0  0  0  0  0  0  0  0  0  0  0  0
   49.4399   10.7557   18.6721 H   0  0  0  0  0  0  0  0  0  0  0  0
   50.8972   13.5111   15.2084 H   0  0  0  0  0  0  0  0  0  0  0  0
   48.7133   11.2402   22.5124 H   0  0  0  0  0  0  0  0  0  0  0  0
   47.6500   14.9514   17.7935 H   0  0  0  0  0  0  0  0  0  0  0  0
   48.3530    9.8634   19.1669 H   0  0  0  0  0  0  0  0  0  0  0  0
   49.7362   13.2742   19.3433 H   0  0  0  0  0  0  0  0  0  0  0  0
   48.9879   14.7737   19.8147 H   0  0  0  0  0  0  0  0  0  0  0  0
   47.1753   11.7183   18.4335 H   0  0  0  0  0  0  0  0  0  0  0  0
   49.3105   14.6768   14.8280 H   0  0  0  0  0  0  0  0  0  0  0  0
   48.0762   13.3973   14.7951 H   0  0  0  0  0  0  0  0  0  0  0  0
   47.6972   14.9808   15.4835 H   0  0  0  0  0  0  0  0  0  0  0  0
   49.6929   11.8244   16.0500 H   0  0  0  0  0  0  0  0  0  0  0  0
   50.3698   12.2989   17.6030 H   0  0  0  0  0  0  0  0  0  0  0  0
   50.9290   13.0961   16.1336 H   0  0  0  0  0  0  0  0  0  0  0  0
   49.4540   11.4550   21.4006 H   0  0  0  0  0  0  0  0  0  0  0  0
   49.9678    9.8623   20.8703 H   0  0  0  0  0  0  0  0  0  0  0  0
   48.3664   10.0508   21.5804 H   0  0  0  0  0  0  0  0  0  0  0  0
   47.9023   13.0714   21.0815 H   0  0  0  0  0  0  0  0  0  0  0  0
   46.7459   13.6671   19.9140 H   0  0  0  0  0  0  0  0  0  0  0  0
   46.0046   10.0292   19.8398 H   0  0  0  0  0  0  0  0  0  0  0  0
   45.2987   11.6432   19.9581 H   0  0  0  0  0  0  0  0  0  0  0  0
   46.2992   11.0281   21.2778 H   0  0  0  0  0  0  0  0  0  0  0  0
  2  1  2  3
  3  5  1  0
  4  2  1  0
  5  9  1  0
  6  1  1  0
  7  1  1  0
  8  3  1  0
  9  4  1  0
 10  5  1  0
 12 11  1  0
 13 11  1  0
 14 12  1  0
 15 13  1  0
 16 14  1  0
 17 15  2  0
 18 16  2  0
 13 19  1  0
 14 20  1  0
 11 21  1  0
 12 22  1  0
 23 16  1  0
 24 15  1  0
 26 25  2  3
 27 29  1  0
 28 26  1  0
 29 33  1  0
 30 25  1  0
 31 25  1  0
 32 27  1  0
 33 28  1  0
 34 29  1  0
  2 35  1  0
  3 36  1  0
  4 37  1  0
  4 38  1  0
  5 39  1  1
  6 40  1  0
  6 41  1  0
  6 42  1  0
  7 43  1  0
  7 44  1  0
  7 45  1  0
  8 46  1  0
  8 47  1  0
  8 48  1  0
  9 49  1  0
  9 50  1  0
 10 51  1  0
 10 52  1  0
 10 53  1  0
 11 54  1  6
 12 55  1  1
 13 56  1  1
 14 57  1  6
 19 58  1  0
 20 59  1  0
 21 60  1  0
 22 61  1  0
 23 62  1  0
 24 63  1  0
 26 64  1  0
 27 65  1  0
 28 66  1  0
 28 67  1  0
 29 68  1  6
 30 69  1  0
 30 70  1  0
 30 71  1  0
 31 72  1  0
 31 73  1  0
 31 74  1  0
 32 75  1  0
 32 76  1  0
 32 77  1  0
 33 78  1  0
 33 79  1  0
 34 80  1  0
 34 81  1  0
 34 82  1  0
M  END
> <Uni-Dock RESULT> 
ENERGY=   -4.459  LOWER_BOUND=    5.947  UPPER_BOUND=    7.506
INTER + INTRA:          -4.459
INTER:                  -4.459
INTRA:                   0.000
UNBOUND:                 0.000

$$$$

     RDKit          3D

 82 79  0  0  0  0  0  0  0  0999 V2000
   47.2321   11.7252   19.8974 C   0  0  0  0  0  0  0  0  0  0  0  0
   47.3409   12.2146   18.6469 C   0  0  0  0  0  0  0  0  0  0  0  0
   51.1029   13.7458   16.8820 N   0  0  0  0  0  0  0  0  0  0  0  0
   47.4572   13.6574   18.2388 C   0  0  0  0  0  0  0  0  0  0  0  0
   49.6769   13.3727   16.9142 C   0  0  1  0  0  0  0  0  0  0  0  0
   47.0869   10.2445   20.1340 C   0  0  0  0  0  0  0  0  0  0  0  0
   47.2546   12.5543   21.1521 C   0  0  0  0  0  0  0  0  0  0  0  0
   51.3830   15.1229   16.5032 C   0  0  0  0  0  0  0  0  0  0  0  0
   48.9044   14.1194   18.0231 C   0  0  0  0  0  0  0  0  0  0  0  0
   49.0238   13.5147   15.5362 C   0  0  0  0  0  0  0  0  0  0  0  0
   48.3531   13.3621   17.3835 C   0  0  1  0  0  0  0  0  0  0  0  0
   48.7006   12.6741   18.7159 C   0  0  2  0  0  0  0  0  0  0  0  0
   48.9594   12.6640   16.1549 C   0  0  2  0  0  0  0  0  0  0  0  0
   47.9393   13.3009   19.8972 C   0  0  1  0  0  0  0  0  0  0  0  0
   50.4815   12.6415   16.1474 C   0  0  0  0  0  0  0  0  0  0  0  0
   47.9319   12.3764   21.1100 C   0  0  0  0  0  0  0  0  0  0  0  0
   51.2074   11.6761   16.3119 O   0  0  0  0  0  0  0  0  0  0  0  0
   48.2608   12.7057   22.2413 O   0  0  0  0  0  0  0  0  0  0  0  0
   48.4795   13.3701   14.9874 O   0  0  0  0  0  0  0  0  0  0  0  0
   48.5872   14.5467   20.2246 O   0  0  0  0  0  0  0  0  0  0  0  0
   46.9228   13.3886   17.2076 O   0  0  0  0  0  0  0  0  0  0  0  0
   50.1110   12.8153   18.9544 O   0  0  0  0  0  0  0  0  0  0  0  0
   47.4387   11.1483   20.8709 O   0  0  0  0  0  0  0  0  0  0  0  0
   51.0033   13.8587   15.8617 O   0  0  0  0  0  0  0  0  0  0  0  0
   47.2020   11.7325   19.5253 C   0  0  0  0  0  0  0  0  0  0  0  0
   47.3739   11.6879   18.1897 C   0  0  0  0  0  0  0  0  0  0  0  0
   50.2908   14.1969   18.2869 N   0  0  0  0  0  0  0  0  0  0  0  0
   48.6676   11.7085   17.4188 C   0  0  0  0  0  0  0  0  0  0  0  0
   49.0993   14.2613   17.4253 C   0  0  2  0  0  0  0  0  0  0  0  0
   45.8198   11.6829   20.1225 C   0  0  0  0  0  0  0  0  0  0  0  0
   48.3066   11.8444   20.5399 C   0  0  0  0  0  0  0  0  0  0  0  0
   51.5573   14.0196   17.5927 C   0  0  0  0  0  0  0  0  0  0  0  0
   48.8447   12.9879   16.5915 C   0  0  0  0  0  0  0  0  0  0  0  0
   49.1154   15.4986   16.5199 C   0  0  0  0  0  0  0  0  0  0  0  0
   47.3256   11.5123   17.8132 H   0  0  0  0  0  0  0  0  0  0  0  0
   51.5117   13.5646   17.7991 H   0  0  0  0  0  0  0  0  0  0  0  0
   46.9871   14.3073   18.9854 H   0  0  0  0  0  0  0  0  0  0  0  0
   46.8691   13.8097   17.3263 H   0  0  0  0  0  0  0  0  0  0  0  0
   49.6706   12.3029   17.1561 H   0  0  0  0  0  0  0  0  0  0  0  0
   46.1551   10.0368   20.6700 H   0  0  0  0  0  0  0  0  0  0  0  0
   47.0666    9.6741   19.1995 H   0  0  0  0  0  0  0  0  0  0  0  0
   47.9245    9.8720   20.7327 H   0  0  0  0  0  0  0  0  0  0  0  0
   48.0100   12.1678   21.8449 H   0  0  0  0  0  0  0  0  0  0  0  0
   46.2792   12.5131   21.6477 H   0  0  0  0  0  0  0  0  0  0  0  0
   47.4980   13.6043   20.9721 H   0  0  0  0  0  0  0  0  0  0  0  0
   52.4673   15.2756   16.4972 H   0  0  0  0  0  0  0  0  0  0  0  0
   50.9593   15.8419   17.2100 H   0  0  0  0  0  0  0  0  0  0  0  0
   51.0273   15.3524   15.4948 H   0  0  0  0  0  0  0  0  0  0  0  0
   48.8737   15.1922   17.7952 H   0  0  0  0  0  0  0  0  0  0  0  0
   49.4485   14.0194   18.9720 H   0  0  0  0  0  0  0  0  0  0  0  0
   48.8464   14.5628   15.2735 H   0  0  0  0  0  0  0  0  0  0  0  0
   49.6511   13.0672   14.7568 H   0  0  0  0  0  0  0  0  0  0  0  0
   48.0606   12.9952   15.5050 H   0  0  0  0  0  0  0  0  0  0  0  0
   48.6879   14.4070   17.4040 H   0  0  0  0  0  0  0  0  0  0  0  0
   48.4742   11.6055   18.6316 H   0  0  0  0  0  0  0  0  0  0  0  0
   48.5876   11.6382   16.0625 H   0  0  0  0  0  0  0  0  0  0  0  0
   46.8922   13.5168   19.6636 H   0  0  0  0  0  0  0  0  0  0  0  0
   49.0696   14.1457   14.8916 H   0  0  0  0  0  0  0  0  0  0  0  0
   48.3110   14.7593   21.1389 H   0  0  0  0  0  0  0  0  0  0  0  0
   46.7797   13.5876   16.2585 H   0  0  0  0  0  0  0  0  0  0  0  0
   50.2123   13.6743   19.4197 H   0  0  0  0  0  0  0  0  0  0  0  0
   47.4854   10.6895   21.7368 H   0  0  0  0  0  0  0  0  0  0  0  0
   51.9716   13.6956   15.8962 H   0  0  0  0  0  0  0  0  0  0  0  0
   46.4879   11.6134   17.5591 H   0  0  0  0  0  0  0  0  0  0  0  0
   50.3374   15.0461   18.8498 H   0  0  0  0  0  0  0  0  0  0  0  0
   49.5401   11.5376   18.0543 H   0  0  0  0  0  0  0  0  0  0  0  0
   48.6424   10.8560   16.7277 H   0  0  0  0  0  0  0  0  0  0  0  0
   48.2457   14.3887   18.1028 H   0  0  0  0  0  0  0  0  0  0  0  0
   45.7246   10.8167   20.7855 H   0  0  0  0  0  0  0  0  0  0  0  0
   45.6248   12.5901   20.7036 H   0  0  0  0  0  0  0  0  0  0  0  0
   45.0388   11.6036   19.3589 H   0  0  0  0  0  0  0  0  0  0  0  0
   48.1620   12.7402   21.1534 H   0  0  0  0  0  0  0  0  0  0  0  0
   49.3029   11.9136   20.0997 H   0  0  0  0  0  0  0  0  0  0  0  0
   48.2991   10.9707   21.2000 H   0  0  0  0  0  0  0  0  0  0  0  0
   51.5945   13.0773   17.0392 H   0  0  0  0  0  0  0  0  0  0  0  0
   52.3643   13.9817   18.3319 H   0  0  0  0  0  0  0  0  0  0  0  0
   51.7783   14.8486   16.9145 H   0  0  0  0  0  0  0  0  0  0  0  0
   49.6657   12.8348   15.8801 H   0  0  0  0  0  0  0  0  0  0  0  0
   47.9472   13.1391   15.9759 H   0  0  0  0  0  0  0  0  0  0  0  0
   49.3007   16.4093   17.0999 H   0  0  0  0  0  0  0  0  0  0  0  0
   48.1465   15.6191   16.0224 H   0  0  0  0  0  0  0  0  0  0  0  0
   49.8797   15.4267   15.7392 H   0  0  0  0  0  0  0  0  0  0  0  0
  2  1  2  3
  3  5  1  0
  4  2  1  0
  5  9  1  0
  6  1  1  0
  7  1  1  0
  8  3  1  0
  9  4  1  0
 10  5  1  0
 12 11  1  0
 13 11  1  0
 14 12  1  0
 15 13  1  0
 16 14  1  0
 17 15  2  0
 18 16  2  0
 13 19  1  0
 14 20  1  0
 11 21  1  0
 12 22  1  0
 23 16  1  0
 24 15  1  0
 26 25  2  3
 27 29  1  0
 28 26  1  0
 29 33  1  0
 30 25  1  0
 31 25  1  0
 32 27  1  0
 33 28  1  0
 34 29  1  0
  2 35  1  0
  3 36  1  0
  4 37  1  0
  4 38  1  0
  5 39  1  1
  6 40  1  0
  6 41  1  0
  6 42  1  0
  7 43  1  0
  7 44  1  0
  7 45  1  0
  8 46  1  0
  8 47  1  0
  8 48  1  0
  9 49  1  0
  9 50  1  0
 10 51  1  0
 10 52  1  0
 10 53  1  0
 11 54  1  6
 12 55  1  1
 13 56  1  1
 14 57  1  6
 19 58  1  0
 20 59  1  0
 21 60  1  0
 22 61  1  0
 23 62  1  0
 24 63  1  0
 26 64  1  0
 27 65  1  0
 28 66  1  0
 28 67  1  0
 29 68  1  6
 30 69  1  0
 30 70  1  0
 30 71  1  0
 31 72  1  0
 31 73  1  0
 31 74  1  0
 32 75  1  0
 32 76  1  0
 32 77  1  0
 33 78  1  0
 33 79  1  0
 34 80  1  0
 34 81  1  0
 34 82  1  0
M  END
> <Uni-Dock RESULT> 
ENERGY=   -4.429  LOWER_BOUND=    6.493  UPPER_BOUND=    8.739
INTER + INTRA:          -4.429
INTER:                  -4.429
INTRA:                   0.000
UNBOUND:                 0.000

$$$$
