
     RDKit          3D

 82 79  0  0  0  0  0  0  0  0999 V2000
   43.8193    5.4379   11.6103 C   0  0  0  0  0  0  0  0  0  0  0  0
   44.6463    6.5008   11.6090 C   0  0  0  0  0  0  0  0  0  0  0  0
   48.8321    6.8533   14.3027 N   0  0  0  0  0  0  0  0  0  0  0  0
   46.1503    6.4959   11.5488 C   0  0  0  0  0  0  0  0  0  0  0  0
   48.2913    6.7702   12.9347 C   0  0  1  0  0  0  0  0  0  0  0  0
   42.3260    5.6295   11.6426 C   0  0  0  0  0  0  0  0  0  0  0  0
   44.2595    4.0004   11.5923 C   0  0  0  0  0  0  0  0  0  0  0  0
   48.6245    8.1279   14.9753 C   0  0  0  0  0  0  0  0  0  0  0  0
   46.7509    6.8516   12.9141 C   0  0  0  0  0  0  0  0  0  0  0  0
   48.9556    7.7857   12.0003 C   0  0  0  0  0  0  0  0  0  0  0  0
   47.2525    6.1766   12.8419 C   0  0  1  0  0  0  0  0  0  0  0  0
   45.7306    6.2638   12.6218 C   0  0  2  0  0  0  0  0  0  0  0  0
   47.7604    7.0557   13.9970 C   0  0  2  0  0  0  0  0  0  0  0  0
   45.2909    5.3423   11.4623 C   0  0  1  0  0  0  0  0  0  0  0  0
   47.8219    8.5296   13.6308 C   0  0  0  0  0  0  0  0  0  0  0  0
   43.7742    5.1823   11.4558 C   0  0  0  0  0  0  0  0  0  0  0  0
   48.7184    9.0409   12.9736 O   0  0  0  0  0  0  0  0  0  0  0  0
   43.0143    5.2758   12.4069 O   0  0  0  0  0  0  0  0  0  0  0  0
   49.1098    6.6167   14.2928 O   0  0  0  0  0  0  0  0  0  0  0  0
   45.7617    5.8512   10.2099 O   0  0  0  0  0  0  0  0  0  0  0  0
   47.6068    4.8057   13.1340 O   0  0  0  0  0  0  0  0  0  0  0  0
   45.3669    7.6238   12.3630 O   0  0  0  0  0  0  0  0  0  0  0  0
   43.3024    4.8655   10.2259 O   0  0  0  0  0  0  0  0  0  0  0  0
   46.8344    9.2731   14.1596 O   0  0  0  0  0  0  0  0  0  0  0  0
   48.4469    8.0089   13.5790 C   0  0  0  0  0  0  0  0  0  0  0  0
   47.1062    8.0993   13.4810 C   0  0  0  0  0  0  0  0  0  0  0  0
   45.1065    4.9180   11.0350 N   0  0  0  0  0  0  0  0  0  0  0  0
   46.2081    7.3878   12.5052 C   0  0  0  0  0  0  0  0  0  0  0  0
   44.4986    5.4732   12.2549 C   0  0  2  0  0  0  0  0  0  0  0  0
   49.1974    8.8144   14.6072 C   0  0  0  0  0  0  0  0  0  0  0  0
   49.3185    7.1219   12.7310 C   0  0  0  0  0  0  0  0  0  0  0  0
   44.1222    4.4262   10.0771 C   0  0  0  0  0  0  0  0  0  0  0  0
   45.5721    6.1455   13.1404 C   0  0  0  0  0  0  0  0  0  0  0  0
   43.7945    4.3844   13.0737 C   0  0  0  0  0  0  0  0  0  0  0  0
   44.2072    7.4994   11.6411 H   0  0  0  0  0  0  0  0  0  0  0  0
   48.4189    6.1096   14.8665 H   0  0  0  0  0  0  0  0  0  0  0  0
   46.4535    7.2342   10.7962 H   0  0  0  0  0  0  0  0  0  0  0  0
   46.5383    5.5324   11.2047 H   0  0  0  0  0  0  0  0  0  0  0  0
   48.5734    5.7739   12.5703 H   0  0  0  0  0  0  0  0  0  0  0  0
   41.8613    5.1408   10.7816 H   0  0  0  0  0  0  0  0  0  0  0  0
   41.9096    5.1967   12.5570 H   0  0  0  0  0  0  0  0  0  0  0  0
   42.0404    6.6863   11.6126 H   0  0  0  0  0  0  0  0  0  0  0  0
   44.0414    3.5570   10.6163 H   0  0  0  0  0  0  0  0  0  0  0  0
   43.7246    3.4314   12.3591 H   0  0  0  0  0  0  0  0  0  0  0  0
   45.3285    3.8750   11.7910 H   0  0  0  0  0  0  0  0  0  0  0  0
   47.5636    8.3650   15.0988 H   0  0  0  0  0  0  0  0  0  0  0  0
   49.1204    8.9522   14.4556 H   0  0  0  0  0  0  0  0  0  0  0  0
   49.0624    8.0756   15.9772 H   0  0  0  0  0  0  0  0  0  0  0  0
   46.4211    7.8613   13.1940 H   0  0  0  0  0  0  0  0  0  0  0  0
   46.3458    6.1627   13.6694 H   0  0  0  0  0  0  0  0  0  0  0  0
   48.6124    8.8085   12.1913 H   0  0  0  0  0  0  0  0  0  0  0  0
   50.0467    7.7619   12.1110 H   0  0  0  0  0  0  0  0  0  0  0  0
   48.7367    7.5530   10.9538 H   0  0  0  0  0  0  0  0  0  0  0  0
   47.7832    6.4560   11.9202 H   0  0  0  0  0  0  0  0  0  0  0  0
   45.2306    5.9542   13.5463 H   0  0  0  0  0  0  0  0  0  0  0  0
   47.1801    6.9061   14.9119 H   0  0  0  0  0  0  0  0  0  0  0  0
   45.7005    4.3339   11.5876 H   0  0  0  0  0  0  0  0  0  0  0  0
   49.6878    7.0540   13.6325 H   0  0  0  0  0  0  0  0  0  0  0  0
   45.2705    5.3606    9.5221 H   0  0  0  0  0  0  0  0  0  0  0  0
   48.4660    4.8639   13.6042 H   0  0  0  0  0  0  0  0  0  0  0  0
   44.3942    7.6749   12.3740 H   0  0  0  0  0  0  0  0  0  0  0  0
   42.3349    4.7599   10.3637 H   0  0  0  0  0  0  0  0  0  0  0  0
   46.9918   10.1750   13.8080 H   0  0  0  0  0  0  0  0  0  0  0  0
   46.5784    8.7585   14.1698 H   0  0  0  0  0  0  0  0  0  0  0  0
   45.6671    5.6324   10.5714 H   0  0  0  0  0  0  0  0  0  0  0  0
   45.4222    8.0889   12.1945 H   0  0  0  0  0  0  0  0  0  0  0  0
   46.7560    7.1288   11.5949 H   0  0  0  0  0  0  0  0  0  0  0  0
   43.7601    6.2377   11.9820 H   0  0  0  0  0  0  0  0  0  0  0  0
   48.5390    9.4798   15.1731 H   0  0  0  0  0  0  0  0  0  0  0  0
   49.6925    8.1483   15.3185 H   0  0  0  0  0  0  0  0  0  0  0  0
   49.9546    9.4381   14.1232 H   0  0  0  0  0  0  0  0  0  0  0  0
   50.0217    7.7285   12.1519 H   0  0  0  0  0  0  0  0  0  0  0  0
   48.7569    6.5023   12.0293 H   0  0  0  0  0  0  0  0  0  0  0  0
   49.8945    6.4455   13.3713 H   0  0  0  0  0  0  0  0  0  0  0  0
   44.6291    4.1693    9.1424 H   0  0  0  0  0  0  0  0  0  0  0  0
   43.3670    5.1820    9.8468 H   0  0  0  0  0  0  0  0  0  0  0  0
   43.6317    3.5168   10.4337 H   0  0  0  0  0  0  0  0  0  0  0  0
   46.3552    5.4168   13.3903 H   0  0  0  0  0  0  0  0  0  0  0  0
   45.1092    6.4386   14.0938 H   0  0  0  0  0  0  0  0  0  0  0  0
   42.9377    3.9629   12.5384 H   0  0  0  0  0  0  0  0  0  0  0  0
   44.4801    3.5668   13.3242 H   0  0  0  0  0  0  0  0  0  0  0  0
   43.4116    4.7963   14.0143 H   0  0  0  0  0  0  0  0  0  0  0  0
  2  1  2  3
  3  5  1  0
  4  2  1  0
  5  9  1  0
  6  1  1  0
  7  1  1  0
  8  3  1  0
  9  4  1  0
 10  5  1  0
 12 11  1  0
 13 11  1  0
 14 12  1  0
 15 13  1  0
 16 14  1  0
 17 15  2  0
 18 16  2  0
 13 19  1  0
 14 20  1  0
 11 21  1  0
 12 22  1  0
 23 16  1  0
 24 15  1  0
 26 25  2  3
 27 29  1  0
 28 26  1  0
 29 33  1  0
 30 25  1  0
 31 25  1  0
 32 27  1  0
 33 28  1  0
 34 29  1  0
  2 35  1  0
  3 36  1  0
  4 37  1  0
  4 38  1  0
  5 39  1  6
  6 40  1  0
  6 41  1  0
  6 42  1  0
  7 43  1  0
  7 44  1  0
  7 45  1  0
  8 46  1  0
  8 47  1  0
  8 48  1  0
  9 49  1  0
  9 50  1  0
 10 51  1  0
 10 52  1  0
 10 53  1  0
 11 54  1  1
 12 55  1  6
 13 56  1  6
 14 57  1  6
 19 58  1  0
 20 59  1  0
 21 60  1  0
 22 61  1  0
 23 62  1  0
 24 63  1  0
 26 64  1  0
 27 65  1  0
 28 66  1  0
 28 67  1  0
 29 68  1  1
 30 69  1  0
 30 70  1  0
 30 71  1  0
 31 72  1  0
 31 73  1  0
 31 74  1  0
 32 75  1  0
 32 76  1  0
 32 77  1  0
 33 78  1  0
 33 79  1  0
 34 80  1  0
 34 81  1  0
 34 82  1  0
M  END
> <Uni-Dock RESULT> 
ENERGY=   -7.135  LOWER_BOUND=    0.000  UPPER_BOUND=    0.000
INTER + INTRA:          -7.135
INTER:                  -7.135
INTRA:                   0.000
UNBOUND:                 0.000

$$$$

     RDKit          3D

 82 79  0  0  0  0  0  0  0  0999 V2000
   44.2368    4.9000   11.7058 C   0  0  0  0  0  0  0  0  0  0  0  0
   45.5175    5.1500   12.0391 C   0  0  0  0  0  0  0  0  0  0  0  0
   47.4268    9.6986   12.7909 N   0  0  0  0  0  0  0  0  0  0  0  0
   46.0264    6.1125   13.0783 C   0  0  0  0  0  0  0  0  0  0  0  0
   47.0916    8.4182   13.4381 C   0  0  1  0  0  0  0  0  0  0  0  0
   43.9051    3.8726   10.6561 C   0  0  0  0  0  0  0  0  0  0  0  0
   43.0391    5.5877   12.3003 C   0  0  0  0  0  0  0  0  0  0  0  0
   48.5860    9.6636   11.9102 C   0  0  0  0  0  0  0  0  0  0  0  0
   46.6376    7.3540   12.4176 C   0  0  0  0  0  0  0  0  0  0  0  0
   48.2231    7.9295   14.3473 C   0  0  0  0  0  0  0  0  0  0  0  0
   46.1733    7.8294   12.9378 C   0  0  1  0  0  0  0  0  0  0  0  0
   45.7207    6.6384   12.0726 C   0  0  2  0  0  0  0  0  0  0  0  0
   47.2325    8.7161   12.2619 C   0  0  2  0  0  0  0  0  0  0  0  0
   44.6449    5.8061   12.8054 C   0  0  1  0  0  0  0  0  0  0  0  0
   48.6165    8.0878   12.2694 C   0  0  0  0  0  0  0  0  0  0  0  0
   43.9734    4.8357   11.8392 C   0  0  0  0  0  0  0  0  0  0  0  0
   49.3695    8.0877   13.2338 O   0  0  0  0  0  0  0  0  0  0  0  0
   43.8499    4.9585   10.6307 O   0  0  0  0  0  0  0  0  0  0  0  0
   47.2999    9.9439   13.0295 O   0  0  0  0  0  0  0  0  0  0  0  0
   45.2182    5.1125   13.9186 O   0  0  0  0  0  0  0  0  0  0  0  0
   45.0248    8.6547   13.2382 O   0  0  0  0  0  0  0  0  0  0  0  0
   46.8575    5.8329   11.7443 O   0  0  0  0  0  0  0  0  0  0  0  0
   43.4500    3.7626   12.4794 O   0  0  0  0  0  0  0  0  0  0  0  0
   49.0022    7.5839   11.0841 O   0  0  0  0  0  0  0  0  0  0  0  0
   48.3403    8.6160   12.8255 C   0  0  0  0  0  0  0  0  0  0  0  0
   47.9593    7.6290   11.9911 C   0  0  0  0  0  0  0  0  0  0  0  0
   44.1612    5.5085   13.0777 N   0  0  0  0  0  0  0  0  0  0  0  0
   46.9326    6.5585   12.2456 C   0  0  0  0  0  0  0  0  0  0  0  0
   44.5370    5.7875   11.6824 C   0  0  2  0  0  0  0  0  0  0  0  0
   49.4072    9.5976   12.4165 C   0  0  0  0  0  0  0  0  0  0  0  0
   47.7635    8.8631   14.1936 C   0  0  0  0  0  0  0  0  0  0  0  0
   43.3118    4.3307   13.2179 C   0  0  0  0  0  0  0  0  0  0  0  0
   45.5825    6.9238   11.6171 C   0  0  0  0  0  0  0  0  0  0  0  0
   43.3170    6.1905   10.8452 C   0  0  0  0  0  0  0  0  0  0  0  0
   46.3046    4.5970   11.5238 H   0  0  0  0  0  0  0  0  0  0  0  0
   46.6171   10.0222   12.2606 H   0  0  0  0  0  0  0  0  0  0  0  0
   46.7834    5.5869   13.6734 H   0  0  0  0  0  0  0  0  0  0  0  0
   45.2382    6.4064   13.7781 H   0  0  0  0  0  0  0  0  0  0  0  0
   46.2352    8.6366   14.0891 H   0  0  0  0  0  0  0  0  0  0  0  0
   43.2421    3.1072   11.0692 H   0  0  0  0  0  0  0  0  0  0  0  0
   43.4041    4.3480    9.8076 H   0  0  0  0  0  0  0  0  0  0  0  0
   44.7964    3.3627   10.2753 H   0  0  0  0  0  0  0  0  0  0  0  0
   42.4973    4.8944   12.9506 H   0  0  0  0  0  0  0  0  0  0  0  0
   42.3619    5.9207   11.5076 H   0  0  0  0  0  0  0  0  0  0  0  0
   43.2991    6.4728   12.8892 H   0  0  0  0  0  0  0  0  0  0  0  0
   48.4503    8.9744   11.0715 H   0  0  0  0  0  0  0  0  0  0  0  0
   49.5021    9.4028   12.4472 H   0  0  0  0  0  0  0  0  0  0  0  0
   48.7398   10.6613   11.4868 H   0  0  0  0  0  0  0  0  0  0  0  0
   47.4858    7.0416   11.7933 H   0  0  0  0  0  0  0  0  0  0  0  0
   45.8921    7.7995   11.7433 H   0  0  0  0  0  0  0  0  0  0  0  0
   49.0742    7.5433   13.7758 H   0  0  0  0  0  0  0  0  0  0  0  0
   48.5814    8.7401   14.9938 H   0  0  0  0  0  0  0  0  0  0  0  0
   47.8749    7.1278   15.0053 H   0  0  0  0  0  0  0  0  0  0  0  0
   46.5693    7.4687   13.8982 H   0  0  0  0  0  0  0  0  0  0  0  0
   45.3070    7.0301   11.1367 H   0  0  0  0  0  0  0  0  0  0  0  0
   46.9408    9.0024   11.2476 H   0  0  0  0  0  0  0  0  0  0  0  0
   43.8466    6.4507   13.1895 H   0  0  0  0  0  0  0  0  0  0  0  0
   47.8739    9.7502   13.8004 H   0  0  0  0  0  0  0  0  0  0  0  0
   44.5534    4.4494   14.1895 H   0  0  0  0  0  0  0  0  0  0  0  0
   45.3991    9.5354   13.4551 H   0  0  0  0  0  0  0  0  0  0  0  0
   46.5718    5.1775   11.0826 H   0  0  0  0  0  0  0  0  0  0  0  0
   43.0258    3.2425   11.7613 H   0  0  0  0  0  0  0  0  0  0  0  0
   49.8835    7.1913   11.2600 H   0  0  0  0  0  0  0  0  0  0  0  0
   48.4323    7.5657   11.0114 H   0  0  0  0  0  0  0  0  0  0  0  0
   44.9995    5.3606   13.6391 H   0  0  0  0  0  0  0  0  0  0  0  0
   47.3038    5.6220   11.8086 H   0  0  0  0  0  0  0  0  0  0  0  0
   46.8303    6.3693   13.3178 H   0  0  0  0  0  0  0  0  0  0  0  0
   44.9858    4.8908   11.2366 H   0  0  0  0  0  0  0  0  0  0  0  0
   49.8346    9.3607   11.4378 H   0  0  0  0  0  0  0  0  0  0  0  0
   48.9899   10.6065   12.3647 H   0  0  0  0  0  0  0  0  0  0  0  0
   50.2268    9.5923   13.1409 H   0  0  0  0  0  0  0  0  0  0  0  0
   48.5436    8.7610   14.9545 H   0  0  0  0  0  0  0  0  0  0  0  0
   46.9529    8.1800   14.4541 H   0  0  0  0  0  0  0  0  0  0  0  0
   47.3607    9.8799   14.2488 H   0  0  0  0  0  0  0  0  0  0  0  0
   43.1961    4.0968   14.2802 H   0  0  0  0  0  0  0  0  0  0  0  0
   43.7490    3.4548   12.7321 H   0  0  0  0  0  0  0  0  0  0  0  0
   42.3093    4.5068   12.8196 H   0  0  0  0  0  0  0  0  0  0  0  0
   45.1813    7.8242   12.1017 H   0  0  0  0  0  0  0  0  0  0  0  0
   45.7483    7.1898   10.5630 H   0  0  0  0  0  0  0  0  0  0  0  0
   42.5994    5.3693   10.7503 H   0  0  0  0  0  0  0  0  0  0  0  0
   42.7990    7.0515   11.2829 H   0  0  0  0  0  0  0  0  0  0  0  0
   43.6210    6.4675    9.8294 H   0  0  0  0  0  0  0  0  0  0  0  0
  2  1  2  3
  3  5  1  0
  4  2  1  0
  5  9  1  0
  6  1  1  0
  7  1  1  0
  8  3  1  0
  9  4  1  0
 10  5  1  0
 12 11  1  0
 13 11  1  0
 14 12  1  0
 15 13  1  0
 16 14  1  0
 17 15  2  0
 18 16  2  0
 13 19  1  0
 14 20  1  0
 11 21  1  0
 12 22  1  0
 23 16  1  0
 24 15  1  0
 26 25  2  3
 27 29  1  0
 28 26  1  0
 29 33  1  0
 30 25  1  0
 31 25  1  0
 32 27  1  0
 33 28  1  0
 34 29  1  0
  2 35  1  0
  3 36  1  0
  4 37  1  0
  4 38  1  0
  5 39  1  6
  6 40  1  0
  6 41  1  0
  6 42  1  0
  7 43  1  0
  7 44  1  0
  7 45  1  0
  8 46  1  0
  8 47  1  0
  8 48  1  0
  9 49  1  0
  9 50  1  0
 10 51  1  0
 10 52  1  0
 10 53  1  0
 11 54  1  1
 12 55  1  6
 13 56  1  6
 14 57  1  6
 19 58  1  0
 20 59  1  0
 21 60  1  0
 22 61  1  0
 23 62  1  0
 24 63  1  0
 26 64  1  0
 27 65  1  0
 28 66  1  0
 28 67  1  0
 29 68  1  1
 30 69  1  0
 30 70  1  0
 30 71  1  0
 31 72  1  0
 31 73  1  0
 31 74  1  0
 32 75  1  0
 32 76  1  0
 32 77  1  0
 33 78  1  0
 33 79  1  0
 34 80  1  0
 34 81  1  0
 34 82  1  0
M  END
> <Uni-Dock RESULT> 
ENERGY=   -6.462  LOWER_BOUND=    1.349  UPPER_BOUND=    2.428
INTER + INTRA:          -6.462
INTER:                  -6.462
INTRA:                   0.000
UNBOUND:                 0.000

$$$$

     RDKit          3D

 82 79  0  0  0  0  0  0  0  0999 V2000
   49.1363    7.8984   13.6534 C   0  0  0  0  0  0  0  0  0  0  0  0
   48.6268    6.8407   12.9936 C   0  0  0  0  0  0  0  0  0  0  0  0
   43.7673    5.7491   12.6869 N   0  0  0  0  0  0  0  0  0  0  0  0
   47.4283    6.8148   12.0833 C   0  0  0  0  0  0  0  0  0  0  0  0
   44.9530    6.1631   11.9166 C   0  0  1  0  0  0  0  0  0  0  0  0
   50.3707    7.7490   14.5029 C   0  0  0  0  0  0  0  0  0  0  0  0
   48.5604    9.2872   13.6358 C   0  0  0  0  0  0  0  0  0  0  0  0
   43.7653    4.3599   13.1234 C   0  0  0  0  0  0  0  0  0  0  0  0
   46.2379    6.1345   12.7698 C   0  0  0  0  0  0  0  0  0  0  0  0
   45.0850    5.3728   10.6114 C   0  0  0  0  0  0  0  0  0  0  0  0
   45.7614    6.7926   12.5413 C   0  0  1  0  0  0  0  0  0  0  0  0
   47.1423    6.8041   13.2232 C   0  0  2  0  0  0  0  0  0  0  0  0
   44.8451    5.6549   13.0220 C   0  0  2  0  0  0  0  0  0  0  0  0
   47.9986    7.9820   12.7072 C   0  0  1  0  0  0  0  0  0  0  0  0
   45.2283    4.3050   12.4380 C   0  0  0  0  0  0  0  0  0  0  0  0
   49.2185    8.1842   13.6000 C   0  0  0  0  0  0  0  0  0  0  0  0
   44.9380    3.9337   11.3089 O   0  0  0  0  0  0  0  0  0  0  0  0
   49.3294    7.8952   14.7811 O   0  0  0  0  0  0  0  0  0  0  0  0
   43.5083    5.9731   12.5606 O   0  0  0  0  0  0  0  0  0  0  0  0
   48.3853    7.7637   11.3464 O   0  0  0  0  0  0  0  0  0  0  0  0
   45.0950    8.0473   12.8095 O   0  0  0  0  0  0  0  0  0  0  0  0
   47.7963    5.5526   12.9889 O   0  0  0  0  0  0  0  0  0  0  0  0
   50.2347    8.7914   12.9412 O   0  0  0  0  0  0  0  0  0  0  0  0
   45.8609    3.4888   13.2990 O   0  0  0  0  0  0  0  0  0  0  0  0
   44.6637    4.8047   12.1282 C   0  0  0  0  0  0  0  0  0  0  0  0
   45.8294    4.7794   12.8034 C   0  0  0  0  0  0  0  0  0  0  0  0
   48.3191    8.4992   12.5446 N   0  0  0  0  0  0  0  0  0  0  0  0
   46.9922    5.7241   12.6610 C   0  0  0  0  0  0  0  0  0  0  0  0
   48.2295    7.6944   13.7735 C   0  0  2  0  0  0  0  0  0  0  0  0
   43.6075    3.7609   12.3809 C   0  0  0  0  0  0  0  0  0  0  0  0
   44.2800    5.8380   11.1032 C   0  0  0  0  0  0  0  0  0  0  0  0
   49.5772    9.2287   12.4278 C   0  0  0  0  0  0  0  0  0  0  0  0
   46.9668    6.8036   13.7498 C   0  0  0  0  0  0  0  0  0  0  0  0
   48.1825    8.5841   15.0217 C   0  0  0  0  0  0  0  0  0  0  0  0
   49.1250    5.8754   13.0980 H   0  0  0  0  0  0  0  0  0  0  0  0
   43.6771    6.3537   13.5042 H   0  0  0  0  0  0  0  0  0  0  0  0
   47.7120    6.2625   11.1788 H   0  0  0  0  0  0  0  0  0  0  0  0
   47.1498    7.8199   11.7523 H   0  0  0  0  0  0  0  0  0  0  0  0
   44.7672    7.2079   11.6357 H   0  0  0  0  0  0  0  0  0  0  0  0
   51.1503    8.4376   14.1651 H   0  0  0  0  0  0  0  0  0  0  0  0
   50.1381    7.9701   15.5488 H   0  0  0  0  0  0  0  0  0  0  0  0
   50.7867    6.7369   14.4596 H   0  0  0  0  0  0  0  0  0  0  0  0
   49.2089    9.9511   13.0565 H   0  0  0  0  0  0  0  0  0  0  0  0
   48.4852    9.6785   14.6551 H   0  0  0  0  0  0  0  0  0  0  0  0
   47.5560    9.3313   13.2032 H   0  0  0  0  0  0  0  0  0  0  0  0
   44.6025    4.1323   13.7897 H   0  0  0  0  0  0  0  0  0  0  0  0
   43.7759    3.6643   12.2798 H   0  0  0  0  0  0  0  0  0  0  0  0
   42.8449    4.1654   13.6831 H   0  0  0  0  0  0  0  0  0  0  0  0
   46.5115    5.0977   13.0080 H   0  0  0  0  0  0  0  0  0  0  0  0
   46.0439    6.6412   13.7263 H   0  0  0  0  0  0  0  0  0  0  0  0
   45.4207    4.3443   10.7838 H   0  0  0  0  0  0  0  0  0  0  0  0
   44.1270    5.3378   10.0780 H   0  0  0  0  0  0  0  0  0  0  0  0
   45.8061    5.8482    9.9397 H   0  0  0  0  0  0  0  0  0  0  0  0
   45.8803    6.7190   11.4505 H   0  0  0  0  0  0  0  0  0  0  0  0
   46.9920    6.9056   14.3038 H   0  0  0  0  0  0  0  0  0  0  0  0
   44.7909    5.6055   14.1132 H   0  0  0  0  0  0  0  0  0  0  0  0
   47.4360    8.9213   12.7473 H   0  0  0  0  0  0  0  0  0  0  0  0
   43.4688    5.6840   11.6246 H   0  0  0  0  0  0  0  0  0  0  0  0
   49.0905    8.4148   11.1627 H   0  0  0  0  0  0  0  0  0  0  0  0
   44.1409    7.8562   12.6828 H   0  0  0  0  0  0  0  0  0  0  0  0
   48.5944    5.5293   13.5470 H   0  0  0  0  0  0  0  0  0  0  0  0
   50.9339    8.8908   13.6249 H   0  0  0  0  0  0  0  0  0  0  0  0
   46.0678    2.6887   12.7708 H   0  0  0  0  0  0  0  0  0  0  0  0
   45.9841    3.9943   13.5432 H   0  0  0  0  0  0  0  0  0  0  0  0
   48.2286    7.8954   11.7279 H   0  0  0  0  0  0  0  0  0  0  0  0
   47.9172    5.1378   12.7416 H   0  0  0  0  0  0  0  0  0  0  0  0
   47.0063    6.1708   11.6629 H   0  0  0  0  0  0  0  0  0  0  0  0
   49.1047    7.0364   13.8462 H   0  0  0  0  0  0  0  0  0  0  0  0
   43.9380    3.0022   13.0963 H   0  0  0  0  0  0  0  0  0  0  0  0
   42.7047    4.2289   12.7817 H   0  0  0  0  0  0  0  0  0  0  0  0
   43.3531    3.2442   11.4509 H   0  0  0  0  0  0  0  0  0  0  0  0
   44.1197    5.3616   10.1309 H   0  0  0  0  0  0  0  0  0  0  0  0
   45.0303    6.6198   10.9712 H   0  0  0  0  0  0  0  0  0  0  0  0
   43.3485    6.3300   11.4024 H   0  0  0  0  0  0  0  0  0  0  0  0
   49.6385    9.6802   11.4334 H   0  0  0  0  0  0  0  0  0  0  0  0
   50.4410    8.5697   12.5458 H   0  0  0  0  0  0  0  0  0  0  0  0
   49.6388   10.0447   13.1525 H   0  0  0  0  0  0  0  0  0  0  0  0
   46.0736    7.4309   13.6268 H   0  0  0  0  0  0  0  0  0  0  0  0
   46.8647    6.3112   14.7277 H   0  0  0  0  0  0  0  0  0  0  0  0
   49.1135    9.1434   15.1579 H   0  0  0  0  0  0  0  0  0  0  0  0
   47.3547    9.3005   14.9706 H   0  0  0  0  0  0  0  0  0  0  0  0
   48.0405    7.9768   15.9229 H   0  0  0  0  0  0  0  0  0  0  0  0
  2  1  2  3
  3  5  1  0
  4  2  1  0
  5  9  1  0
  6  1  1  0
  7  1  1  0
  8  3  1  0
  9  4  1  0
 10  5  1  0
 12 11  1  0
 13 11  1  0
 14 12  1  0
 15 13  1  0
 16 14  1  0
 17 15  2  0
 18 16  2  0
 13 19  1  0
 14 20  1  0
 11 21  1  0
 12 22  1  0
 23 16  1  0
 24 15  1  0
 26 25  2  3
 27 29  1  0
 28 26  1  0
 29 33  1  0
 30 25  1  0
 31 25  1  0
 32 27  1  0
 33 28  1  0
 34 29  1  0
  2 35  1  0
  3 36  1  0
  4 37  1  0
  4 38  1  0
  5 39  1  6
  6 40  1  0
  6 41  1  0
  6 42  1  0
  7 43  1  0
  7 44  1  0
  7 45  1  0
  8 46  1  0
  8 47  1  0
  8 48  1  0
  9 49  1  0
  9 50  1  0
 10 51  1  0
 10 52  1  0
 10 53  1  0
 11 54  1  1
 12 55  1  6
 13 56  1  6
 14 57  1  6
 19 58  1  0
 20 59  1  0
 21 60  1  0
 22 61  1  0
 23 62  1  0
 24 63  1  0
 26 64  1  0
 27 65  1  0
 28 66  1  0
 28 67  1  0
 29 68  1  1
 30 69  1  0
 30 70  1  0
 30 71  1  0
 31 72  1  0
 31 73  1  0
 31 74  1  0
 32 75  1  0
 32 76  1  0
 32 77  1  0
 33 78  1  0
 33 79  1  0
 34 80  1  0
 34 81  1  0
 34 82  1  0
M  END
> <Uni-Dock RESULT> 
ENERGY=   -6.140  LOWER_BOUND=    1.267  UPPER_BOUND=    5.296
INTER + INTRA:          -6.140
INTER:                  -6.140
INTRA:                   0.000
UNBOUND:                 0.000

$$$$

     RDKit          3D

 82 79  0  0  0  0  0  0  0  0999 V2000
   47.5244   11.9633   20.3378 C   0  0  0  0  0  0  0  0  0  0  0  0
   48.2512   10.9957   20.9289 C   0  0  0  0  0  0  0  0  0  0  0  0
   47.2851    6.1108   20.6053 N   0  0  0  0  0  0  0  0  0  0  0  0
   48.7041    9.6906   20.3313 C   0  0  0  0  0  0  0  0  0  0  0  0
   48.2476    7.1677   20.2489 C   0  0  1  0  0  0  0  0  0  0  0  0
   47.1862   13.2289   21.0803 C   0  0  0  0  0  0  0  0  0  0  0  0
   46.9774   11.9005   18.9386 C   0  0  0  0  0  0  0  0  0  0  0  0
   47.2684    5.7359   22.0123 C   0  0  0  0  0  0  0  0  0  0  0  0
   47.8889    8.5212   20.8964 C   0  0  0  0  0  0  0  0  0  0  0  0
   49.6908    6.7367   20.5263 C   0  0  0  0  0  0  0  0  0  0  0  0
   47.7649    8.2569   20.1045 C   0  0  1  0  0  0  0  0  0  0  0  0
   47.5812    9.6744   20.6783 C   0  0  2  0  0  0  0  0  0  0  0  0
   47.3489    7.1393   21.0755 C   0  0  2  0  0  0  0  0  0  0  0  0
   47.9993   10.7429   19.6437 C   0  0  1  0  0  0  0  0  0  0  0  0
   48.3703    6.9072   22.1769 C   0  0  0  0  0  0  0  0  0  0  0  0
   47.5208   12.1232   20.0815 C   0  0  0  0  0  0  0  0  0  0  0  0
   49.4048    6.2693   22.0359 O   0  0  0  0  0  0  0  0  0  0  0  0
   46.5629   12.3856   20.7917 O   0  0  0  0  0  0  0  0  0  0  0  0
   47.2561    5.9216   20.2946 O   0  0  0  0  0  0  0  0  0  0  0  0
   49.4173   10.7258   19.4487 O   0  0  0  0  0  0  0  0  0  0  0  0
   46.9663    8.1285   18.9062 O   0  0  0  0  0  0  0  0  0  0  0  0
   48.3443    9.7999   21.8829 O   0  0  0  0  0  0  0  0  0  0  0  0
   48.2755   13.1145   19.5492 O   0  0  0  0  0  0  0  0  0  0  0  0
   48.0130    7.3993   23.3760 O   0  0  0  0  0  0  0  0  0  0  0  0
   48.3355    6.4910   21.4769 C   0  0  0  0  0  0  0  0  0  0  0  0
   48.0997    7.6975   22.0285 C   0  0  0  0  0  0  0  0  0  0  0  0
   48.1071   11.1752   19.1986 N   0  0  0  0  0  0  0  0  0  0  0  0
   48.3396    9.0497   21.4130 C   0  0  0  0  0  0  0  0  0  0  0  0
   47.1832   11.0904   20.3411 C   0  0  2  0  0  0  0  0  0  0  0  0
   48.0563    5.2271   22.2474 C   0  0  0  0  0  0  0  0  0  0  0  0
   48.8613    6.2640   20.0849 C   0  0  0  0  0  0  0  0  0  0  0  0
   48.4130   12.5477   18.8097 C   0  0  0  0  0  0  0  0  0  0  0  0
   47.0477    9.6286   20.8240 C   0  0  0  0  0  0  0  0  0  0  0  0
   45.7916   11.6203   19.9748 C   0  0  0  0  0  0  0  0  0  0  0  0
   48.5789   11.1493   21.9585 H   0  0  0  0  0  0  0  0  0  0  0  0
   46.3489    6.4109   20.3310 H   0  0  0  0  0  0  0  0  0  0  0  0
   49.7664    9.5663   20.5751 H   0  0  0  0  0  0  0  0  0  0  0  0
   48.6409    9.7022   19.2390 H   0  0  0  0  0  0  0  0  0  0  0  0
   48.1576    7.2887   19.1616 H   0  0  0  0  0  0  0  0  0  0  0  0
   47.5519   14.1012   20.5313 H   0  0  0  0  0  0  0  0  0  0  0  0
   46.1023   13.3192   21.1981 H   0  0  0  0  0  0  0  0  0  0  0  0
   47.6347   13.2591   22.0790 H   0  0  0  0  0  0  0  0  0  0  0  0
   47.5275   12.5916   18.2932 H   0  0  0  0  0  0  0  0  0  0  0  0
   45.9210   12.1864   18.9324 H   0  0  0  0  0  0  0  0  0  0  0  0
   47.0391   10.9011   18.4968 H   0  0  0  0  0  0  0  0  0  0  0  0
   46.9917    6.5715   22.6619 H   0  0  0  0  0  0  0  0  0  0  0  0
   48.2280    5.3266   22.3397 H   0  0  0  0  0  0  0  0  0  0  0  0
   46.5212    4.9499   22.1610 H   0  0  0  0  0  0  0  0  0  0  0  0
   48.0434    8.4741   21.9830 H   0  0  0  0  0  0  0  0  0  0  0  0
   46.8203    8.7236   20.7345 H   0  0  0  0  0  0  0  0  0  0  0  0
   49.9225    6.7349   21.5971 H   0  0  0  0  0  0  0  0  0  0  0  0
   49.8804    5.7311   20.1310 H   0  0  0  0  0  0  0  0  0  0  0  0
   50.3995    7.4105   20.0354 H   0  0  0  0  0  0  0  0  0  0  0  0
   48.8131    8.1024   19.8099 H   0  0  0  0  0  0  0  0  0  0  0  0
   46.5247    9.8072   20.9365 H   0  0  0  0  0  0  0  0  0  0  0  0
   46.3546    7.3115   21.4971 H   0  0  0  0  0  0  0  0  0  0  0  0
   47.5270   10.5532   18.6734 H   0  0  0  0  0  0  0  0  0  0  0  0
   48.1725    5.5833   20.2104 H   0  0  0  0  0  0  0  0  0  0  0  0
   49.6297   11.5510   18.9703 H   0  0  0  0  0  0  0  0  0  0  0  0
   46.8306    7.1627   18.7980 H   0  0  0  0  0  0  0  0  0  0  0  0
   48.0975   10.6448   22.3002 H   0  0  0  0  0  0  0  0  0  0  0  0
   47.8496   13.9377   19.8765 H   0  0  0  0  0  0  0  0  0  0  0  0
   48.7772    7.2036   23.9586 H   0  0  0  0  0  0  0  0  0  0  0  0
   47.6920    7.7361   23.0384 H   0  0  0  0  0  0  0  0  0  0  0  0
   48.9850   10.7101   19.4280 H   0  0  0  0  0  0  0  0  0  0  0  0
   48.7207    9.7166   22.1978 H   0  0  0  0  0  0  0  0  0  0  0  0
   49.1280    8.9950   20.6570 H   0  0  0  0  0  0  0  0  0  0  0  0
   47.5753   11.6858   21.1754 H   0  0  0  0  0  0  0  0  0  0  0  0
   47.7195    5.4302   23.2681 H   0  0  0  0  0  0  0  0  0  0  0  0
   47.2776    4.6459   21.7468 H   0  0  0  0  0  0  0  0  0  0  0  0
   48.9613    4.6165   22.3174 H   0  0  0  0  0  0  0  0  0  0  0  0
   49.8235    5.7440   20.1267 H   0  0  0  0  0  0  0  0  0  0  0  0
   49.0054    7.1859   19.5183 H   0  0  0  0  0  0  0  0  0  0  0  0
   48.1591    5.6425   19.5194 H   0  0  0  0  0  0  0  0  0  0  0  0
   49.2117   12.5387   18.0623 H   0  0  0  0  0  0  0  0  0  0  0  0
   48.7606   13.1422   19.6583 H   0  0  0  0  0  0  0  0  0  0  0  0
   47.5513   13.0378   18.3491 H   0  0  0  0  0  0  0  0  0  0  0  0
   46.7038    8.9953   19.9949 H   0  0  0  0  0  0  0  0  0  0  0  0
   46.2622    9.5828   21.5922 H   0  0  0  0  0  0  0  0  0  0  0  0
   45.8105   12.6913   19.7490 H   0  0  0  0  0  0  0  0  0  0  0  0
   45.3790   11.0928   19.1072 H   0  0  0  0  0  0  0  0  0  0  0  0
   45.0947   11.4826   20.8092 H   0  0  0  0  0  0  0  0  0  0  0  0
  2  1  2  3
  3  5  1  0
  4  2  1  0
  5  9  1  0
  6  1  1  0
  7  1  1  0
  8  3  1  0
  9  4  1  0
 10  5  1  0
 12 11  1  0
 13 11  1  0
 14 12  1  0
 15 13  1  0
 16 14  1  0
 17 15  2  0
 18 16  2  0
 13 19  1  0
 14 20  1  0
 11 21  1  0
 12 22  1  0
 23 16  1  0
 24 15  1  0
 26 25  2  3
 27 29  1  0
 28 26  1  0
 29 33  1  0
 30 25  1  0
 31 25  1  0
 32 27  1  0
 33 28  1  0
 34 29  1  0
  2 35  1  0
  3 36  1  0
  4 37  1  0
  4 38  1  0
  5 39  1  6
  6 40  1  0
  6 41  1  0
  6 42  1  0
  7 43  1  0
  7 44  1  0
  7 45  1  0
  8 46  1  0
  8 47  1  0
  8 48  1  0
  9 49  1  0
  9 50  1  0
 10 51  1  0
 10 52  1  0
 10 53  1  0
 11 54  1  1
 12 55  1  6
 13 56  1  6
 14 57  1  6
 19 58  1  0
 20 59  1  0
 21 60  1  0
 22 61  1  0
 23 62  1  0
 24 63  1  0
 26 64  1  0
 27 65  1  0
 28 66  1  0
 28 67  1  0
 29 68  1  1
 30 69  1  0
 30 70  1  0
 30 71  1  0
 31 72  1  0
 31 73  1  0
 31 74  1  0
 32 75  1  0
 32 76  1  0
 32 77  1  0
 33 78  1  0
 33 79  1  0
 34 80  1  0
 34 81  1  0
 34 82  1  0
M  END
> <Uni-Dock RESULT> 
ENERGY=   -4.978  LOWER_BOUND=    8.042  UPPER_BOUND=    9.632
INTER + INTRA:          -4.978
INTER:                  -4.978
INTRA:                   0.000
UNBOUND:                 0.000

$$$$

     RDKit          3D

 82 79  0  0  0  0  0  0  0  0999 V2000
   40.8291   11.1145   10.8657 C   0  0  0  0  0  0  0  0  0  0  0  0
   41.9712   10.7753   10.2377 C   0  0  0  0  0  0  0  0  0  0  0  0
   44.1760   13.4892    6.6777 N   0  0  0  0  0  0  0  0  0  0  0  0
   43.1441   11.6630    9.9187 C   0  0  0  0  0  0  0  0  0  0  0  0
   44.3134   12.9792    8.0531 C   0  0  1  0  0  0  0  0  0  0  0  0
   39.7660   10.0819   11.1324 C   0  0  0  0  0  0  0  0  0  0  0  0
   40.4841   12.4974   11.3445 C   0  0  0  0  0  0  0  0  0  0  0  0
   44.3382   12.4933    5.6279 C   0  0  0  0  0  0  0  0  0  0  0  0
   43.1842   11.9950    8.4221 C   0  0  0  0  0  0  0  0  0  0  0  0
   45.7112   12.4076    8.3084 C   0  0  0  0  0  0  0  0  0  0  0  0
   43.2751   12.8080    8.6299 C   0  0  1  0  0  0  0  0  0  0  0  0
   42.2490   11.7934    9.1682 C   0  0  2  0  0  0  0  0  0  0  0  0
   43.5861   12.6365    7.1336 C   0  0  2  0  0  0  0  0  0  0  0  0
   41.9716   12.0377   10.6683 C   0  0  1  0  0  0  0  0  0  0  0  0
   44.4978   11.4528    6.8547 C   0  0  0  0  0  0  0  0  0  0  0  0
   40.7387   11.2590   11.1151 C   0  0  0  0  0  0  0  0  0  0  0  0
   45.7116   11.4649    7.0082 O   0  0  0  0  0  0  0  0  0  0  0  0
   39.7925   10.9095   10.4272 O   0  0  0  0  0  0  0  0  0  0  0  0
   44.2791   13.8377    6.7115 O   0  0  0  0  0  0  0  0  0  0  0  0
   43.1159   11.6883   11.4542 O   0  0  0  0  0  0  0  0  0  0  0  0
   42.7625   14.1450    8.8298 O   0  0  0  0  0  0  0  0  0  0  0  0
   42.7348   10.4654    8.9455 O   0  0  0  0  0  0  0  0  0  0  0  0
   40.7572   10.9984   12.4444 O   0  0  0  0  0  0  0  0  0  0  0  0
   43.8715   10.3814    6.3373 O   0  0  0  0  0  0  0  0  0  0  0  0
   44.7481   12.2224    6.9523 C   0  0  0  0  0  0  0  0  0  0  0  0
   43.8093   11.3356    7.3364 C   0  0  0  0  0  0  0  0  0  0  0  0
   41.8117   12.1808   11.2604 N   0  0  0  0  0  0  0  0  0  0  0  0
   43.2031   11.1769    8.7046 C   0  0  0  0  0  0  0  0  0  0  0  0
   41.0869   11.6105   10.1135 C   0  0  2  0  0  0  0  0  0  0  0  0
   45.2640   12.2294    5.5370 C   0  0  0  0  0  0  0  0  0  0  0  0
   45.3548   13.2779    7.8373 C   0  0  0  0  0  0  0  0  0  0  0  0
   41.2372   11.8023   12.5469 C   0  0  0  0  0  0  0  0  0  0  0  0
   41.8474   11.8875    8.7968 C   0  0  0  0  0  0  0  0  0  0  0  0
   39.6735   12.1943    9.9994 C   0  0  0  0  0  0  0  0  0  0  0  0
   42.1006    9.7390    9.9210 H   0  0  0  0  0  0  0  0  0  0  0  0
   43.2605   13.9292    6.5789 H   0  0  0  0  0  0  0  0  0  0  0  0
   44.0545   11.1269   10.2137 H   0  0  0  0  0  0  0  0  0  0  0  0
   43.1271   12.5838   10.5096 H   0  0  0  0  0  0  0  0  0  0  0  0
   44.2086   13.8588    8.7014 H   0  0  0  0  0  0  0  0  0  0  0  0
   39.5482   10.0282   12.2028 H   0  0  0  0  0  0  0  0  0  0  0  0
   38.8456   10.3418   10.6010 H   0  0  0  0  0  0  0  0  0  0  0  0
   40.0673    9.0799   10.8090 H   0  0  0  0  0  0  0  0  0  0  0  0
   40.5261   12.5337   12.4371 H   0  0  0  0  0  0  0  0  0  0  0  0
   39.4716   12.7658   11.0272 H   0  0  0  0  0  0  0  0  0  0  0  0
   41.1550   13.2684   10.9530 H   0  0  0  0  0  0  0  0  0  0  0  0
   43.5880   11.6994    5.6884 H   0  0  0  0  0  0  0  0  0  0  0  0
   45.3367   12.0477    5.6351 H   0  0  0  0  0  0  0  0  0  0  0  0
   44.2154   12.9802    4.6552 H   0  0  0  0  0  0  0  0  0  0  0  0
   43.2955   11.0609    7.8550 H   0  0  0  0  0  0  0  0  0  0  0  0
   42.2185   12.4324    8.1305 H   0  0  0  0  0  0  0  0  0  0  0  0
   45.8569   11.4389    7.8179 H   0  0  0  0  0  0  0  0  0  0  0  0
   46.4858   13.0960    7.9487 H   0  0  0  0  0  0  0  0  0  0  0  0
   45.8840   12.2657    9.3795 H   0  0  0  0  0  0  0  0  0  0  0  0
   44.2124   12.7349    9.2004 H   0  0  0  0  0  0  0  0  0  0  0  0
   41.3195   11.9090    8.5996 H   0  0  0  0  0  0  0  0  0  0  0  0
   42.6762   12.5775    6.5299 H   0  0  0  0  0  0  0  0  0  0  0  0
   41.7471   13.0932   10.8573 H   0  0  0  0  0  0  0  0  0  0  0  0
   45.2154   13.7176    6.9766 H   0  0  0  0  0  0  0  0  0  0  0  0
   42.8022   11.6523   12.3790 H   0  0  0  0  0  0  0  0  0  0  0  0
   43.2440   14.6979    8.1777 H   0  0  0  0  0  0  0  0  0  0  0  0
   42.0113    9.8486    9.1575 H   0  0  0  0  0  0  0  0  0  0  0  0
   39.9078   10.5306   12.6056 H   0  0  0  0  0  0  0  0  0  0  0  0
   44.5759    9.7048    6.2495 H   0  0  0  0  0  0  0  0  0  0  0  0
   43.4248   10.6334    6.5970 H   0  0  0  0  0  0  0  0  0  0  0  0
   42.7827   11.8700   11.2456 H   0  0  0  0  0  0  0  0  0  0  0  0
   43.0728   10.1034    8.8953 H   0  0  0  0  0  0  0  0  0  0  0  0
   43.8904   11.5372    9.4751 H   0  0  0  0  0  0  0  0  0  0  0  0
   41.0069   10.5226   10.2337 H   0  0  0  0  0  0  0  0  0  0  0  0
   44.8357   11.4218    4.9362 H   0  0  0  0  0  0  0  0  0  0  0  0
   45.0159   13.1765    5.0511 H   0  0  0  0  0  0  0  0  0  0  0  0
   46.3505   12.1027    5.5275 H   0  0  0  0  0  0  0  0  0  0  0  0
   46.4330   13.1148    7.9321 H   0  0  0  0  0  0  0  0  0  0  0  0
   44.9315   13.2984    8.8433 H   0  0  0  0  0  0  0  0  0  0  0  0
   45.1944   14.2681    7.3981 H   0  0  0  0  0  0  0  0  0  0  0  0
   41.9048   12.1320   13.3483 H   0  0  0  0  0  0  0  0  0  0  0  0
   41.1219   10.7192   12.6371 H   0  0  0  0  0  0  0  0  0  0  0  0
   40.2725   12.2875   12.7162 H   0  0  0  0  0  0  0  0  0  0  0  0
   41.9885   12.9696    8.6716 H   0  0  0  0  0  0  0  0  0  0  0  0
   41.2227   11.5591    7.9535 H   0  0  0  0  0  0  0  0  0  0  0  0
   39.0478   11.9150   10.8530 H   0  0  0  0  0  0  0  0  0  0  0  0
   39.6973   13.2881    9.9332 H   0  0  0  0  0  0  0  0  0  0  0  0
   39.1725   11.8184    9.1001 H   0  0  0  0  0  0  0  0  0  0  0  0
  2  1  2  3
  3  5  1  0
  4  2  1  0
  5  9  1  0
  6  1  1  0
  7  1  1  0
  8  3  1  0
  9  4  1  0
 10  5  1  0
 12 11  1  0
 13 11  1  0
 14 12  1  0
 15 13  1  0
 16 14  1  0
 17 15  2  0
 18 16  2  0
 13 19  1  0
 14 20  1  0
 11 21  1  0
 12 22  1  0
 23 16  1  0
 24 15  1  0
 26 25  2  3
 27 29  1  0
 28 26  1  0
 29 33  1  0
 30 25  1  0
 31 25  1  0
 32 27  1  0
 33 28  1  0
 34 29  1  0
  2 35  1  0
  3 36  1  0
  4 37  1  0
  4 38  1  0
  5 39  1  6
  6 40  1  0
  6 41  1  0
  6 42  1  0
  7 43  1  0
  7 44  1  0
  7 45  1  0
  8 46  1  0
  8 47  1  0
  8 48  1  0
  9 49  1  0
  9 50  1  0
 10 51  1  0
 10 52  1  0
 10 53  1  0
 11 54  1  1
 12 55  1  6
 13 56  1  6
 14 57  1  6
 19 58  1  0
 20 59  1  0
 21 60  1  0
 22 61  1  0
 23 62  1  0
 24 63  1  0
 26 64  1  0
 27 65  1  0
 28 66  1  0
 28 67  1  0
 29 68  1  1
 30 69  1  0
 30 70  1  0
 30 71  1  0
 31 72  1  0
 31 73  1  0
 31 74  1  0
 32 75  1  0
 32 76  1  0
 32 77  1  0
 33 78  1  0
 33 79  1  0
 34 80  1  0
 34 81  1  0
 34 82  1  0
M  END
> <Uni-Dock RESULT> 
ENERGY=   -4.847  LOWER_BOUND=    6.844  UPPER_BOUND=    8.216
INTER + INTRA:          -4.847
INTER:                  -4.847
INTRA:                   0.000
UNBOUND:                 0.000

$$$$

     RDKit          3D

 82 79  0  0  0  0  0  0  0  0999 V2000
   48.4616    8.7684   20.2370 C   0  0  0  0  0  0  0  0  0  0  0  0
   48.9557    8.0381   19.2190 C   0  0  0  0  0  0  0  0  0  0  0  0
   47.4072    3.4567   17.9887 N   0  0  0  0  0  0  0  0  0  0  0  0
   48.1866    7.2314   18.2075 C   0  0  0  0  0  0  0  0  0  0  0  0
   47.4759    4.8586   17.5407 C   0  0  1  0  0  0  0  0  0  0  0  0
   49.3828    9.5451   21.1402 C   0  0  0  0  0  0  0  0  0  0  0  0
   47.0045    8.8851   20.5892 C   0  0  0  0  0  0  0  0  0  0  0  0
   48.6708    2.7336   17.9594 C   0  0  0  0  0  0  0  0  0  0  0  0
   48.3212    5.7306   18.4919 C   0  0  0  0  0  0  0  0  0  0  0  0
   47.9208    4.9651   16.0791 C   0  0  0  0  0  0  0  0  0  0  0  0
   47.4821    5.6679   18.4268 C   0  0  1  0  0  0  0  0  0  0  0  0
   48.3036    6.6846   19.2413 C   0  0  2  0  0  0  0  0  0  0  0  0
   48.0921    4.2563   18.4064 C   0  0  2  0  0  0  0  0  0  0  0  0
   47.6224    8.0713   19.2338 C   0  0  1  0  0  0  0  0  0  0  0  0
   49.2897    4.1469   17.4769 C   0  0  0  0  0  0  0  0  0  0  0  0
   48.2500    8.9781   20.2873 C   0  0  0  0  0  0  0  0  0  0  0  0
   49.2118    4.0276   16.2617 O   0  0  0  0  0  0  0  0  0  0  0  0
   48.8063    8.6405   21.3204 O   0  0  0  0  0  0  0  0  0  0  0  0
   47.0632    3.3646   17.9091 O   0  0  0  0  0  0  0  0  0  0  0  0
   47.6994    8.6618   17.9321 O   0  0  0  0  0  0  0  0  0  0  0  0
   46.1557    5.5738   18.9943 O   0  0  0  0  0  0  0  0  0  0  0  0
   49.6286    6.7606   18.7051 O   0  0  0  0  0  0  0  0  0  0  0  0
   48.0968   10.2897   19.9845 O   0  0  0  0  0  0  0  0  0  0  0  0
   50.4774    4.1106   18.1061 O   0  0  0  0  0  0  0  0  0  0  0  0
   48.5225    3.9601   17.2743 C   0  0  0  0  0  0  0  0  0  0  0  0
   49.2673    4.7772   18.0445 C   0  0  0  0  0  0  0  0  0  0  0  0
   47.3099    8.6158   19.2838 N   0  0  0  0  0  0  0  0  0  0  0  0
   49.0154    6.2286   18.3523 C   0  0  0  0  0  0  0  0  0  0  0  0
   48.2117    7.8673   20.1741 C   0  0  2  0  0  0  0  0  0  0  0  0
   48.9346    2.5283   17.0521 C   0  0  0  0  0  0  0  0  0  0  0  0
   47.2393    4.3481   16.5901 C   0  0  0  0  0  0  0  0  0  0  0  0
   47.2918   10.0483   19.5593 C   0  0  0  0  0  0  0  0  0  0  0  0
   48.3326    6.3966   19.7149 C   0  0  0  0  0  0  0  0  0  0  0  0
   47.7128    7.8923   21.6240 C   0  0  0  0  0  0  0  0  0  0  0  0
   50.0370    8.0174   19.0729 H   0  0  0  0  0  0  0  0  0  0  0  0
   47.0327    3.4316   18.9378 H   0  0  0  0  0  0  0  0  0  0  0  0
   48.5936    7.4686   17.2168 H   0  0  0  0  0  0  0  0  0  0  0  0
   47.1308    7.5175   18.1801 H   0  0  0  0  0  0  0  0  0  0  0  0
   46.4435    5.2289   17.5844 H   0  0  0  0  0  0  0  0  0  0  0  0
   49.1144   10.6053   21.1361 H   0  0  0  0  0  0  0  0  0  0  0  0
   49.3106    9.1701   22.1655 H   0  0  0  0  0  0  0  0  0  0  0  0
   50.4306    9.4714   20.8302 H   0  0  0  0  0  0  0  0  0  0  0  0
   46.6394    9.8844   20.3341 H   0  0  0  0  0  0  0  0  0  0  0  0
   46.8611    8.7270   21.6626 H   0  0  0  0  0  0  0  0  0  0  0  0
   46.3768    8.1521   20.0730 H   0  0  0  0  0  0  0  0  0  0  0  0
   49.4216    3.1817   18.6169 H   0  0  0  0  0  0  0  0  0  0  0  0
   49.0770    2.6572   16.9471 H   0  0  0  0  0  0  0  0  0  0  0  0
   48.5024    1.7109   18.3114 H   0  0  0  0  0  0  0  0  0  0  0  0
   49.3810    5.4505   18.4214 H   0  0  0  0  0  0  0  0  0  0  0  0
   48.0082    5.5372   19.5281 H   0  0  0  0  0  0  0  0  0  0  0  0
   48.9899    4.7591   15.9569 H   0  0  0  0  0  0  0  0  0  0  0  0
   47.3604    4.2636   15.4488 H   0  0  0  0  0  0  0  0  0  0  0  0
   47.7299    5.9683   15.6862 H   0  0  0  0  0  0  0  0  0  0  0  0
   47.3642    6.0211   17.3920 H   0  0  0  0  0  0  0  0  0  0  0  0
   48.3803    6.3191   20.2714 H   0  0  0  0  0  0  0  0  0  0  0  0
   48.3456    3.9048   19.4105 H   0  0  0  0  0  0  0  0  0  0  0  0
   46.5629    7.9877   19.4998 H   0  0  0  0  0  0  0  0  0  0  0  0
   47.0823    3.4470   16.9323 H   0  0  0  0  0  0  0  0  0  0  0  0
   47.4597    9.6016   18.0520 H   0  0  0  0  0  0  0  0  0  0  0  0
   45.8177    4.7018   18.6976 H   0  0  0  0  0  0  0  0  0  0  0  0
   50.1645    7.2925   19.3206 H   0  0  0  0  0  0  0  0  0  0  0  0
   48.5080   10.7575   20.7449 H   0  0  0  0  0  0  0  0  0  0  0  0
   51.1373    4.0757   17.3815 H   0  0  0  0  0  0  0  0  0  0  0  0
   50.1661    4.3746   18.5109 H   0  0  0  0  0  0  0  0  0  0  0  0
   47.5947    8.4855   18.3135 H   0  0  0  0  0  0  0  0  0  0  0  0
   49.9833    6.7473   18.3560 H   0  0  0  0  0  0  0  0  0  0  0  0
   48.4281    6.6953   17.5565 H   0  0  0  0  0  0  0  0  0  0  0  0
   49.2136    8.3138   20.1417 H   0  0  0  0  0  0  0  0  0  0  0  0
   49.8928    2.2950   17.5254 H   0  0  0  0  0  0  0  0  0  0  0  0
   48.1826    1.8520   17.4664 H   0  0  0  0  0  0  0  0  0  0  0  0
   49.0404    2.3246   15.9825 H   0  0  0  0  0  0  0  0  0  0  0  0
   47.3484    4.2539   15.5051 H   0  0  0  0  0  0  0  0  0  0  0  0
   46.9230    5.3704   16.8055 H   0  0  0  0  0  0  0  0  0  0  0  0
   46.4306    3.6839   16.9130 H   0  0  0  0  0  0  0  0  0  0  0  0
   46.7246   10.5570   18.7743 H   0  0  0  0  0  0  0  0  0  0  0  0
   48.2988   10.4729   19.5677 H   0  0  0  0  0  0  0  0  0  0  0  0
   46.7939   10.2705   20.5067 H   0  0  0  0  0  0  0  0  0  0  0  0
   47.3366    5.9342   19.6882 H   0  0  0  0  0  0  0  0  0  0  0  0
   48.9104    5.8393   20.4664 H   0  0  0  0  0  0  0  0  0  0  0  0
   47.7316    8.9032   22.0434 H   0  0  0  0  0  0  0  0  0  0  0  0
   46.6898    7.5066   21.7011 H   0  0  0  0  0  0  0  0  0  0  0  0
   48.3508    7.2703   22.2620 H   0  0  0  0  0  0  0  0  0  0  0  0
  2  1  2  3
  3  5  1  0
  4  2  1  0
  5  9  1  0
  6  1  1  0
  7  1  1  0
  8  3  1  0
  9  4  1  0
 10  5  1  0
 12 11  1  0
 13 11  1  0
 14 12  1  0
 15 13  1  0
 16 14  1  0
 17 15  2  0
 18 16  2  0
 13 19  1  0
 14 20  1  0
 11 21  1  0
 12 22  1  0
 23 16  1  0
 24 15  1  0
 26 25  2  3
 27 29  1  0
 28 26  1  0
 29 33  1  0
 30 25  1  0
 31 25  1  0
 32 27  1  0
 33 28  1  0
 34 29  1  0
  2 35  1  0
  3 36  1  0
  4 37  1  0
  4 38  1  0
  5 39  1  6
  6 40  1  0
  6 41  1  0
  6 42  1  0
  7 43  1  0
  7 44  1  0
  7 45  1  0
  8 46  1  0
  8 47  1  0
  8 48  1  0
  9 49  1  0
  9 50  1  0
 10 51  1  0
 10 52  1  0
 10 53  1  0
 11 54  1  1
 12 55  1  6
 13 56  1  6
 14 57  1  6
 19 58  1  0
 20 59  1  0
 21 60  1  0
 22 61  1  0
 23 62  1  0
 24 63  1  0
 26 64  1  0
 27 65  1  0
 28 66  1  0
 28 67  1  0
 29 68  1  1
 30 69  1  0
 30 70  1  0
 30 71  1  0
 31 72  1  0
 31 73  1  0
 31 74  1  0
 32 75  1  0
 32 76  1  0
 32 77  1  0
 33 78  1  0
 33 79  1  0
 34 80  1  0
 34 81  1  0
 34 82  1  0
M  END
> <Uni-Dock RESULT> 
ENERGY=   -4.837  LOWER_BOUND=    5.248  UPPER_BOUND=    8.005
INTER + INTRA:          -4.837
INTER:                  -4.837
INTRA:                   0.000
UNBOUND:                 0.000

$$$$

     RDKit          3D

 82 79  0  0  0  0  0  0  0  0999 V2000
   48.5771    5.8266   18.1309 C   0  0  0  0  0  0  0  0  0  0  0  0
   48.8941    7.1353   18.1586 C   0  0  0  0  0  0  0  0  0  0  0  0
   46.6099   10.5576   20.9818 N   0  0  0  0  0  0  0  0  0  0  0  0
   49.0324    8.0227   19.3665 C   0  0  0  0  0  0  0  0  0  0  0  0
   47.8802    9.8469   20.7538 C   0  0  1  0  0  0  0  0  0  0  0  0
   48.5140    5.0815   16.8238 C   0  0  0  0  0  0  0  0  0  0  0  0
   48.2517    4.9905   19.3374 C   0  0  0  0  0  0  0  0  0  0  0  0
   46.2743   11.5636   19.9839 C   0  0  0  0  0  0  0  0  0  0  0  0
   47.8374    8.9769   19.4806 C   0  0  0  0  0  0  0  0  0  0  0  0
   49.0772   10.8019   20.7847 C   0  0  0  0  0  0  0  0  0  0  0  0
   47.7622    8.7468   20.2891 C   0  0  1  0  0  0  0  0  0  0  0  0
   47.9145    7.8454   19.0496 C   0  0  2  0  0  0  0  0  0  0  0  0
   46.8986    9.9951   20.0421 C   0  0  2  0  0  0  0  0  0  0  0  0
   48.7753    6.6047   19.3766 C   0  0  1  0  0  0  0  0  0  0  0  0
   47.6313   11.0706   19.2569 C   0  0  0  0  0  0  0  0  0  0  0  0
   48.6586    5.5680   18.2641 C   0  0  0  0  0  0  0  0  0  0  0  0
   48.4447   11.8458   19.7411 O   0  0  0  0  0  0  0  0  0  0  0  0
   47.7231    5.4057   17.4964 O   0  0  0  0  0  0  0  0  0  0  0  0
   46.5742   10.5420   21.3447 O   0  0  0  0  0  0  0  0  0  0  0  0
   50.1396    6.9818   19.5900 O   0  0  0  0  0  0  0  0  0  0  0  0
   47.1499    7.9827   21.3528 O   0  0  0  0  0  0  0  0  0  0  0  0
   48.4915    8.6034   17.9812 O   0  0  0  0  0  0  0  0  0  0  0  0
   49.7397    4.7530   18.2144 O   0  0  0  0  0  0  0  0  0  0  0  0
   47.2569   11.1680   17.9692 O   0  0  0  0  0  0  0  0  0  0  0  0
   47.5824   11.0374   20.0698 C   0  0  0  0  0  0  0  0  0  0  0  0
   47.6275   10.2762   18.9590 C   0  0  0  0  0  0  0  0  0  0  0  0
   49.0696    6.0694   19.5297 N   0  0  0  0  0  0  0  0  0  0  0  0
   48.3395    8.9631   18.7755 C   0  0  0  0  0  0  0  0  0  0  0  0
   48.0005    6.4142   18.5788 C   0  0  2  0  0  0  0  0  0  0  0  0
   46.8357   12.3457   20.0740 C   0  0  0  0  0  0  0  0  0  0  0  0
   48.2221   10.6856   21.3861 C   0  0  0  0  0  0  0  0  0  0  0  0
   49.8158    4.8762   19.1450 C   0  0  0  0  0  0  0  0  0  0  0  0
   47.3752    7.7817   18.9355 C   0  0  0  0  0  0  0  0  0  0  0  0
   46.8944    5.3521   18.5726 C   0  0  0  0  0  0  0  0  0  0  0  0
   49.0940    7.6404   17.2122 H   0  0  0  0  0  0  0  0  0  0  0  0
   45.8536    9.8741   21.0311 H   0  0  0  0  0  0  0  0  0  0  0  0
   49.9636    8.5915   19.2540 H   0  0  0  0  0  0  0  0  0  0  0  0
   49.1399    7.4401   20.2864 H   0  0  0  0  0  0  0  0  0  0  0  0
   47.9933    9.1708   21.6111 H   0  0  0  0  0  0  0  0  0  0  0  0
   49.1954    4.2263   16.8404 H   0  0  0  0  0  0  0  0  0  0  0  0
   47.4982    4.7157   16.6466 H   0  0  0  0  0  0  0  0  0  0  0  0
   48.7969    5.7089   15.9720 H   0  0  0  0  0  0  0  0  0  0  0  0
   49.0692    4.2912   19.5364 H   0  0  0  0  0  0  0  0  0  0  0  0
   47.3375    4.4147   19.1631 H   0  0  0  0  0  0  0  0  0  0  0  0
   48.0858    5.5851   20.2412 H   0  0  0  0  0  0  0  0  0  0  0  0
   46.1582   11.1349   18.9842 H   0  0  0  0  0  0  0  0  0  0  0  0
   47.0131   12.3689   19.9478 H   0  0  0  0  0  0  0  0  0  0  0  0
   45.3174   12.0230   20.2515 H   0  0  0  0  0  0  0  0  0  0  0  0
   47.8068    9.6146   18.5867 H   0  0  0  0  0  0  0  0  0  0  0  0
   46.9107    8.3850   19.4823 H   0  0  0  0  0  0  0  0  0  0  0  0
   49.1350   11.4207   19.8825 H   0  0  0  0  0  0  0  0  0  0  0  0
   49.0233   11.4666   21.6557 H   0  0  0  0  0  0  0  0  0  0  0  0
   50.0163   10.2463   20.8660 H   0  0  0  0  0  0  0  0  0  0  0  0
   48.7520    9.0626   20.6494 H   0  0  0  0  0  0  0  0  0  0  0  0
   46.9160    7.5256   18.7315 H   0  0  0  0  0  0  0  0  0  0  0  0
   45.9459    9.7468   19.5661 H   0  0  0  0  0  0  0  0  0  0  0  0
   48.4194    6.1113   20.2878 H   0  0  0  0  0  0  0  0  0  0  0  0
   47.3545   11.0682   21.6195 H   0  0  0  0  0  0  0  0  0  0  0  0
   50.6519    6.1500   19.5672 H   0  0  0  0  0  0  0  0  0  0  0  0
   46.7572    8.6549   21.9500 H   0  0  0  0  0  0  0  0  0  0  0  0
   48.4412    8.0594   17.1746 H   0  0  0  0  0  0  0  0  0  0  0  0
   49.5274    4.1224   17.4908 H   0  0  0  0  0  0  0  0  0  0  0  0
   47.8348   11.8682   17.5984 H   0  0  0  0  0  0  0  0  0  0  0  0
   47.1020   10.6236   18.0697 H   0  0  0  0  0  0  0  0  0  0  0  0
   49.7296    6.8430   19.6040 H   0  0  0  0  0  0  0  0  0  0  0  0
   48.7758    8.9519   17.7679 H   0  0  0  0  0  0  0  0  0  0  0  0
   49.1820    8.8811   19.4680 H   0  0  0  0  0  0  0  0  0  0  0  0
   48.4190    6.4887   17.5670 H   0  0  0  0  0  0  0  0  0  0  0  0
   46.4234   12.5902   19.0907 H   0  0  0  0  0  0  0  0  0  0  0  0
   46.0060   12.3027   20.7842 H   0  0  0  0  0  0  0  0  0  0  0  0
   47.5030   13.1636   20.3611 H   0  0  0  0  0  0  0  0  0  0  0  0
   48.9740   11.4357   21.6510 H   0  0  0  0  0  0  0  0  0  0  0  0
   48.7111    9.7097   21.3854 H   0  0  0  0  0  0  0  0  0  0  0  0
   47.4627   10.6670   22.1749 H   0  0  0  0  0  0  0  0  0  0  0  0
   50.6801    4.7655   19.8064 H   0  0  0  0  0  0  0  0  0  0  0  0
   50.1899    4.9442   18.1204 H   0  0  0  0  0  0  0  0  0  0  0  0
   49.2130    3.9709   19.2544 H   0  0  0  0  0  0  0  0  0  0  0  0
   46.9905    7.7558   19.9640 H   0  0  0  0  0  0  0  0  0  0  0  0
   46.5044    7.9511   18.2856 H   0  0  0  0  0  0  0  0  0  0  0  0
   47.2573    4.3888   18.2004 H   0  0  0  0  0  0  0  0  0  0  0  0
   46.4812    5.1999   19.5763 H   0  0  0  0  0  0  0  0  0  0  0  0
   46.0706    5.6572   17.9175 H   0  0  0  0  0  0  0  0  0  0  0  0
  2  1  2  3
  3  5  1  0
  4  2  1  0
  5  9  1  0
  6  1  1  0
  7  1  1  0
  8  3  1  0
  9  4  1  0
 10  5  1  0
 12 11  1  0
 13 11  1  0
 14 12  1  0
 15 13  1  0
 16 14  1  0
 17 15  2  0
 18 16  2  0
 13 19  1  0
 14 20  1  0
 11 21  1  0
 12 22  1  0
 23 16  1  0
 24 15  1  0
 26 25  2  3
 27 29  1  0
 28 26  1  0
 29 33  1  0
 30 25  1  0
 31 25  1  0
 32 27  1  0
 33 28  1  0
 34 29  1  0
  2 35  1  0
  3 36  1  0
  4 37  1  0
  4 38  1  0
  5 39  1  6
  6 40  1  0
  6 41  1  0
  6 42  1  0
  7 43  1  0
  7 44  1  0
  7 45  1  0
  8 46  1  0
  8 47  1  0
  8 48  1  0
  9 49  1  0
  9 50  1  0
 10 51  1  0
 10 52  1  0
 10 53  1  0
 11 54  1  1
 12 55  1  6
 13 56  1  6
 14 57  1  6
 19 58  1  0
 20 59  1  0
 21 60  1  0
 22 61  1  0
 23 62  1  0
 24 63  1  0
 26 64  1  0
 27 65  1  0
 28 66  1  0
 28 67  1  0
 29 68  1  1
 30 69  1  0
 30 70  1  0
 30 71  1  0
 31 72  1  0
 31 73  1  0
 31 74  1  0
 32 75  1  0
 32 76  1  0
 32 77  1  0
 33 78  1  0
 33 79  1  0
 34 80  1  0
 34 81  1  0
 34 82  1  0
M  END
> <Uni-Dock RESULT> 
ENERGY=   -4.811  LOWER_BOUND=    5.871  UPPER_BOUND=    7.910
INTER + INTRA:          -4.811
INTER:                  -4.811
INTRA:                   0.000
UNBOUND:                 0.000

$$$$

     RDKit          3D

 82 79  0  0  0  0  0  0  0  0999 V2000
   48.0218   14.1126   16.3806 C   0  0  0  0  0  0  0  0  0  0  0  0
   47.4770   13.8079   17.5739 C   0  0  0  0  0  0  0  0  0  0  0  0
   48.6688    9.8077   20.3087 N   0  0  0  0  0  0  0  0  0  0  0  0
   48.1856   13.3345   18.8146 C   0  0  0  0  0  0  0  0  0  0  0  0
   48.7119   11.2795   20.2569 C   0  0  1  0  0  0  0  0  0  0  0  0
   47.1599   14.6058   15.2486 C   0  0  0  0  0  0  0  0  0  0  0  0
   49.4819   13.9938   16.0416 C   0  0  0  0  0  0  0  0  0  0  0  0
   47.3527    9.2340   20.5521 C   0  0  0  0  0  0  0  0  0  0  0  0
   47.9328   11.8403   19.0493 C   0  0  0  0  0  0  0  0  0  0  0  0
   48.2837   11.9061   21.5872 C   0  0  0  0  0  0  0  0  0  0  0  0
   48.7648   11.7404   19.1501 C   0  0  1  0  0  0  0  0  0  0  0  0
   48.0213   12.4813   18.0230 C   0  0  2  0  0  0  0  0  0  0  0  0
   48.0465   10.4685   19.6313 C   0  0  2  0  0  0  0  0  0  0  0  0
   48.8088   13.7339   17.5781 C   0  0  1  0  0  0  0  0  0  0  0  0
   46.8485   10.7695   20.5169 C   0  0  0  0  0  0  0  0  0  0  0  0
   48.2489   14.2764   16.2673 C   0  0  0  0  0  0  0  0  0  0  0  0
   46.9225   11.0617   21.7027 O   0  0  0  0  0  0  0  0  0  0  0  0
   47.6630   13.6529   15.3962 O   0  0  0  0  0  0  0  0  0  0  0  0
   49.0050    9.7223   20.4222 O   0  0  0  0  0  0  0  0  0  0  0  0
   48.7843   14.7330   18.6028 O   0  0  0  0  0  0  0  0  0  0  0  0
   50.0771   11.3610   18.6766 O   0  0  0  0  0  0  0  0  0  0  0  0
   46.7089   12.8331   18.4732 O   0  0  0  0  0  0  0  0  0  0  0  0
   48.5055   15.5979   16.1140 O   0  0  0  0  0  0  0  0  0  0  0  0
   45.6586   10.6124   19.9108 O   0  0  0  0  0  0  0  0  0  0  0  0
   47.5996   10.6049   20.7873 C   0  0  0  0  0  0  0  0  0  0  0  0
   46.9173   11.1677   19.7709 C   0  0  0  0  0  0  0  0  0  0  0  0
   49.1626   14.2045   17.3544 N   0  0  0  0  0  0  0  0  0  0  0  0
   47.2803   12.4069   18.9979 C   0  0  0  0  0  0  0  0  0  0  0  0
   48.2009   13.2695   16.7487 C   0  0  2  0  0  0  0  0  0  0  0  0
   47.0780    9.3673   21.4696 C   0  0  0  0  0  0  0  0  0  0  0  0
   48.9125   11.1035   21.3288 C   0  0  0  0  0  0  0  0  0  0  0  0
   49.2913   15.4544   16.6131 C   0  0  0  0  0  0  0  0  0  0  0  0
   47.9677   12.0535   17.6736 C   0  0  0  0  0  0  0  0  0  0  0  0
   48.6934   12.7662   15.3864 C   0  0  0  0  0  0  0  0  0  0  0  0
   46.3981   13.9189   17.6947 H   0  0  0  0  0  0  0  0  0  0  0  0
   49.0357    9.4358   19.4320 H   0  0  0  0  0  0  0  0  0  0  0  0
   47.8030   13.9219   19.6584 H   0  0  0  0  0  0  0  0  0  0  0  0
   49.2606   13.5329   18.7672 H   0  0  0  0  0  0  0  0  0  0  0  0
   49.7699   11.5348   20.1136 H   0  0  0  0  0  0  0  0  0  0  0  0
   47.5102   15.5819   14.9013 H   0  0  0  0  0  0  0  0  0  0  0  0
   47.1977   13.9026   14.4113 H   0  0  0  0  0  0  0  0  0  0  0  0
   46.1110   14.7200   15.5423 H   0  0  0  0  0  0  0  0  0  0  0  0
   49.9251   14.9901   15.9533 H   0  0  0  0  0  0  0  0  0  0  0  0
   49.6075   13.4725   15.0875 H   0  0  0  0  0  0  0  0  0  0  0  0
   50.0529   13.4330   16.7881 H   0  0  0  0  0  0  0  0  0  0  0  0
   46.6361    9.4890   19.7658 H   0  0  0  0  0  0  0  0  0  0  0  0
   46.9466    9.5345   21.5219 H   0  0  0  0  0  0  0  0  0  0  0  0
   47.4392    8.1430   20.5689 H   0  0  0  0  0  0  0  0  0  0  0  0
   46.8547   11.6808   19.1868 H   0  0  0  0  0  0  0  0  0  0  0  0
   48.2248   11.2857   18.1459 H   0  0  0  0  0  0  0  0  0  0  0  0
   47.2024   11.8343   21.7481 H   0  0  0  0  0  0  0  0  0  0  0  0
   48.7905   11.4184   22.4290 H   0  0  0  0  0  0  0  0  0  0  0  0
   48.5542   12.9656   21.6234 H   0  0  0  0  0  0  0  0  0  0  0  0
   48.9148   12.4122   20.0078 H   0  0  0  0  0  0  0  0  0  0  0  0
   47.9114   11.7966   17.1748 H   0  0  0  0  0  0  0  0  0  0  0  0
   47.7616    9.8189   18.7989 H   0  0  0  0  0  0  0  0  0  0  0  0
   49.8573   13.4861   17.3791 H   0  0  0  0  0  0  0  0  0  0  0  0
   48.9970   10.1307   21.3136 H   0  0  0  0  0  0  0  0  0  0  0  0
   49.0961   15.5564   18.1788 H   0  0  0  0  0  0  0  0  0  0  0  0
   50.3474   10.6174   19.2570 H   0  0  0  0  0  0  0  0  0  0  0  0
   46.2133   13.1648   17.7029 H   0  0  0  0  0  0  0  0  0  0  0  0
   48.1285   15.8112   15.2316 H   0  0  0  0  0  0  0  0  0  0  0  0
   45.0014   10.8737   20.5902 H   0  0  0  0  0  0  0  0  0  0  0  0
   45.9875   10.7000   19.4476 H   0  0  0  0  0  0  0  0  0  0  0  0
   48.8731   14.4310   18.3055 H   0  0  0  0  0  0  0  0  0  0  0  0
   46.3559   12.9650   18.7985 H   0  0  0  0  0  0  0  0  0  0  0  0
   47.9060   13.0692   19.6027 H   0  0  0  0  0  0  0  0  0  0  0  0
   47.2371   13.7747   16.6069 H   0  0  0  0  0  0  0  0  0  0  0  0
   46.1023    9.0607   21.0816 H   0  0  0  0  0  0  0  0  0  0  0  0
   47.7730    8.5364   21.3238 H   0  0  0  0  0  0  0  0  0  0  0  0
   46.9617    9.5450   22.5427 H   0  0  0  0  0  0  0  0  0  0  0  0
   48.8015   11.3894   22.3795 H   0  0  0  0  0  0  0  0  0  0  0  0
   49.3066   11.9664   20.7887 H   0  0  0  0  0  0  0  0  0  0  0  0
   49.6653   10.3106   21.2662 H   0  0  0  0  0  0  0  0  0  0  0  0
   49.9001   16.1540   17.1932 H   0  0  0  0  0  0  0  0  0  0  0  0
   48.3204   15.9256   16.4402 H   0  0  0  0  0  0  0  0  0  0  0  0
   49.8004   15.3058   15.6574 H   0  0  0  0  0  0  0  0  0  0  0  0
   48.9247   11.5538   17.8763 H   0  0  0  0  0  0  0  0  0  0  0  0
   47.3446   11.3204   17.1412 H   0  0  0  0  0  0  0  0  0  0  0  0
   48.7515   13.5747   14.6507 H   0  0  0  0  0  0  0  0  0  0  0  0
   49.6827   12.3014   15.4661 H   0  0  0  0  0  0  0  0  0  0  0  0
   48.0057   12.0152   14.9812 H   0  0  0  0  0  0  0  0  0  0  0  0
  2  1  2  3
  3  5  1  0
  4  2  1  0
  5  9  1  0
  6  1  1  0
  7  1  1  0
  8  3  1  0
  9  4  1  0
 10  5  1  0
 12 11  1  0
 13 11  1  0
 14 12  1  0
 15 13  1  0
 16 14  1  0
 17 15  2  0
 18 16  2  0
 13 19  1  0
 14 20  1  0
 11 21  1  0
 12 22  1  0
 23 16  1  0
 24 15  1  0
 26 25  2  3
 27 29  1  0
 28 26  1  0
 29 33  1  0
 30 25  1  0
 31 25  1  0
 32 27  1  0
 33 28  1  0
 34 29  1  0
  2 35  1  0
  3 36  1  0
  4 37  1  0
  4 38  1  0
  5 39  1  6
  6 40  1  0
  6 41  1  0
  6 42  1  0
  7 43  1  0
  7 44  1  0
  7 45  1  0
  8 46  1  0
  8 47  1  0
  8 48  1  0
  9 49  1  0
  9 50  1  0
 10 51  1  0
 10 52  1  0
 10 53  1  0
 11 54  1  1
 12 55  1  6
 13 56  1  6
 14 57  1  6
 19 58  1  0
 20 59  1  0
 21 60  1  0
 22 61  1  0
 23 62  1  0
 24 63  1  0
 26 64  1  0
 27 65  1  0
 28 66  1  0
 28 67  1  0
 29 68  1  1
 30 69  1  0
 30 70  1  0
 30 71  1  0
 31 72  1  0
 31 73  1  0
 31 74  1  0
 32 75  1  0
 32 76  1  0
 32 77  1  0
 33 78  1  0
 33 79  1  0
 34 80  1  0
 34 81  1  0
 34 82  1  0
M  END
> <Uni-Dock RESULT> 
ENERGY=   -4.770  LOWER_BOUND=    7.914  UPPER_BOUND=    9.475
INTER + INTRA:          -4.770
INTER:                  -4.770
INTRA:                   0.000
UNBOUND:                 0.000

$$$$

     RDKit          3D

 82 79  0  0  0  0  0  0  0  0999 V2000
   48.5406    6.7308   20.3648 C   0  0  0  0  0  0  0  0  0  0  0  0
   49.0282    7.9857   20.3993 C   0  0  0  0  0  0  0  0  0  0  0  0
   46.4133   12.0867   19.2835 N   0  0  0  0  0  0  0  0  0  0  0  0
   48.3677    9.2138   20.9659 C   0  0  0  0  0  0  0  0  0  0  0  0
   47.1033   11.3635   20.3660 C   0  0  1  0  0  0  0  0  0  0  0  0
   49.3578    5.6073   19.7837 C   0  0  0  0  0  0  0  0  0  0  0  0
   47.1846    6.3164   20.8652 C   0  0  0  0  0  0  0  0  0  0  0  0
   47.2868   12.7164   18.3033 C   0  0  0  0  0  0  0  0  0  0  0  0
   47.8724   10.1328   19.8428 C   0  0  0  0  0  0  0  0  0  0  0  0
   47.9759   12.3002   21.2067 C   0  0  0  0  0  0  0  0  0  0  0  0
   47.1266   10.1708   20.2360 C   0  0  1  0  0  0  0  0  0  0  0  0
   47.9668    8.9246   19.8996 C   0  0  2  0  0  0  0  0  0  0  0  0
   47.1757   11.2597   19.1511 C   0  0  2  0  0  0  0  0  0  0  0  0
   47.8542    7.8684   21.0215 C   0  0  1  0  0  0  0  0  0  0  0  0
   48.4785   12.0424   19.1626 C   0  0  0  0  0  0  0  0  0  0  0  0
   48.4119    6.5296   20.5497 C   0  0  0  0  0  0  0  0  0  0  0  0
   48.7342   12.9460   19.9469 O   0  0  0  0  0  0  0  0  0  0  0  0
   48.4741    6.1145   19.4032 O   0  0  0  0  0  0  0  0  0  0  0  0
   46.1000   12.1868   19.4419 O   0  0  0  0  0  0  0  0  0  0  0  0
   48.5233    8.3185   22.2042 O   0  0  0  0  0  0  0  0  0  0  0  0
   45.7471    9.7740   20.4093 O   0  0  0  0  0  0  0  0  0  0  0  0
   49.3292    9.3134   19.6954 O   0  0  0  0  0  0  0  0  0  0  0  0
   48.8297    5.7609   21.5841 O   0  0  0  0  0  0  0  0  0  0  0  0
   49.3281   11.7180   18.1723 O   0  0  0  0  0  0  0  0  0  0  0  0
   47.7942   12.2688   19.5433 C   0  0  0  0  0  0  0  0  0  0  0  0
   48.5096   11.1946   19.1563 C   0  0  0  0  0  0  0  0  0  0  0  0
   47.7541    7.4151   21.4471 N   0  0  0  0  0  0  0  0  0  0  0  0
   48.7050    9.9045   19.9063 C   0  0  0  0  0  0  0  0  0  0  0  0
   48.0207    7.4198   19.9997 C   0  0  2  0  0  0  0  0  0  0  0  0
   47.7219   13.4966   18.6735 C   0  0  0  0  0  0  0  0  0  0  0  0
   47.0005   12.3660   20.8185 C   0  0  0  0  0  0  0  0  0  0  0  0
   48.1597    6.1753   22.1004 C   0  0  0  0  0  0  0  0  0  0  0  0
   47.7481    8.8182   19.4007 C   0  0  0  0  0  0  0  0  0  0  0  0
   47.1500    6.3911   19.2679 C   0  0  0  0  0  0  0  0  0  0  0  0
   50.0229    8.1669   19.9885 H   0  0  0  0  0  0  0  0  0  0  0  0
   45.7863   11.4408   18.8026 H   0  0  0  0  0  0  0  0  0  0  0  0
   49.1108    9.7341   21.5829 H   0  0  0  0  0  0  0  0  0  0  0  0
   47.5415    8.9564   21.6355 H   0  0  0  0  0  0  0  0  0  0  0  0
   46.3060   10.9976   21.0258 H   0  0  0  0  0  0  0  0  0  0  0  0
   49.4949    4.8144   20.5243 H   0  0  0  0  0  0  0  0  0  0  0  0
   48.8525    5.1858   18.9097 H   0  0  0  0  0  0  0  0  0  0  0  0
   50.3536    5.9360   19.4680 H   0  0  0  0  0  0  0  0  0  0  0  0
   47.2903    5.7318   21.7839 H   0  0  0  0  0  0  0  0  0  0  0  0
   46.6780    5.6987   20.1173 H   0  0  0  0  0  0  0  0  0  0  0  0
   46.5260    7.1647   21.0763 H   0  0  0  0  0  0  0  0  0  0  0  0
   47.9114   11.9898   17.7755 H   0  0  0  0  0  0  0  0  0  0  0  0
   47.9251   13.4816   18.7535 H   0  0  0  0  0  0  0  0  0  0  0  0
   46.6709   13.2197   17.5511 H   0  0  0  0  0  0  0  0  0  0  0  0
   48.7338   10.4523   19.2406 H   0  0  0  0  0  0  0  0  0  0  0  0
   47.2143    9.5556   19.1773 H   0  0  0  0  0  0  0  0  0  0  0  0
   48.8873   12.6006   20.6780 H   0  0  0  0  0  0  0  0  0  0  0  0
   47.4224   13.2065   21.4818 H   0  0  0  0  0  0  0  0  0  0  0  0
   48.2788   11.8166   22.1402 H   0  0  0  0  0  0  0  0  0  0  0  0
   47.4588   10.6028   21.1912 H   0  0  0  0  0  0  0  0  0  0  0  0
   47.5952    8.5022   18.9594 H   0  0  0  0  0  0  0  0  0  0  0  0
   46.9735   10.8555   18.1552 H   0  0  0  0  0  0  0  0  0  0  0  0
   46.8059    7.6843   21.2811 H   0  0  0  0  0  0  0  0  0  0  0  0
   46.4407   12.7872   20.1381 H   0  0  0  0  0  0  0  0  0  0  0  0
   48.6058    7.5321   22.7785 H   0  0  0  0  0  0  0  0  0  0  0  0
   45.2299   10.5942   20.2589 H   0  0  0  0  0  0  0  0  0  0  0  0
   49.8057    8.5402   19.3432 H   0  0  0  0  0  0  0  0  0  0  0  0
   49.1294    4.9291   21.1546 H   0  0  0  0  0  0  0  0  0  0  0  0
   50.1191   12.2741   18.3362 H   0  0  0  0  0  0  0  0  0  0  0  0
   49.0233   11.2312   18.1959 H   0  0  0  0  0  0  0  0  0  0  0  0
   48.2533    8.1840   21.8936 H   0  0  0  0  0  0  0  0  0  0  0  0
   49.7440    9.5811   19.7595 H   0  0  0  0  0  0  0  0  0  0  0  0
   48.5892   10.0625   20.9822 H   0  0  0  0  0  0  0  0  0  0  0  0
   49.0754    7.1760   19.8197 H   0  0  0  0  0  0  0  0  0  0  0  0
   48.3457   13.4079   17.7793 H   0  0  0  0  0  0  0  0  0  0  0  0
   46.6923   13.6669   18.3485 H   0  0  0  0  0  0  0  0  0  0  0  0
   48.0665   14.3753   19.2265 H   0  0  0  0  0  0  0  0  0  0  0  0
   47.3914   13.1748   21.4438 H   0  0  0  0  0  0  0  0  0  0  0  0
   47.0156   11.4496   21.4115 H   0  0  0  0  0  0  0  0  0  0  0  0
   45.9527   12.5856   20.5880 H   0  0  0  0  0  0  0  0  0  0  0  0
   48.0733    6.2965   23.1841 H   0  0  0  0  0  0  0  0  0  0  0  0
   49.1989    5.9203   21.8779 H   0  0  0  0  0  0  0  0  0  0  0  0
   47.5112    5.3411   21.8205 H   0  0  0  0  0  0  0  0  0  0  0  0
   46.7109    9.1140   19.6085 H   0  0  0  0  0  0  0  0  0  0  0  0
   47.8369    8.7560   18.3064 H   0  0  0  0  0  0  0  0  0  0  0  0
   47.3964    5.3662   19.5630 H   0  0  0  0  0  0  0  0  0  0  0  0
   46.0846    6.5588   19.4627 H   0  0  0  0  0  0  0  0  0  0  0  0
   47.3036    6.4569   18.1849 H   0  0  0  0  0  0  0  0  0  0  0  0
  2  1  2  3
  3  5  1  0
  4  2  1  0
  5  9  1  0
  6  1  1  0
  7  1  1  0
  8  3  1  0
  9  4  1  0
 10  5  1  0
 12 11  1  0
 13 11  1  0
 14 12  1  0
 15 13  1  0
 16 14  1  0
 17 15  2  0
 18 16  2  0
 13 19  1  0
 14 20  1  0
 11 21  1  0
 12 22  1  0
 23 16  1  0
 24 15  1  0
 26 25  2  3
 27 29  1  0
 28 26  1  0
 29 33  1  0
 30 25  1  0
 31 25  1  0
 32 27  1  0
 33 28  1  0
 34 29  1  0
  2 35  1  0
  3 36  1  0
  4 37  1  0
  4 38  1  0
  5 39  1  6
  6 40  1  0
  6 41  1  0
  6 42  1  0
  7 43  1  0
  7 44  1  0
  7 45  1  0
  8 46  1  0
  8 47  1  0
  8 48  1  0
  9 49  1  0
  9 50  1  0
 10 51  1  0
 10 52  1  0
 10 53  1  0
 11 54  1  1
 12 55  1  6
 13 56  1  6
 14 57  1  6
 19 58  1  0
 20 59  1  0
 21 60  1  0
 22 61  1  0
 23 62  1  0
 24 63  1  0
 26 64  1  0
 27 65  1  0
 28 66  1  0
 28 67  1  0
 29 68  1  1
 30 69  1  0
 30 70  1  0
 30 71  1  0
 31 72  1  0
 31 73  1  0
 31 74  1  0
 32 75  1  0
 32 76  1  0
 32 77  1  0
 33 78  1  0
 33 79  1  0
 34 80  1  0
 34 81  1  0
 34 82  1  0
M  END
> <Uni-Dock RESULT> 
ENERGY=   -4.598  LOWER_BOUND=    7.458  UPPER_BOUND=    9.019
INTER + INTRA:          -4.598
INTER:                  -4.598
INTRA:                   0.000
UNBOUND:                 0.000

$$$$
