
     RDKit          3D

 82 79  0  0  0  0  0  0  0  0999 V2000
   48.0176    8.3808   12.5297 C   0  0  0  0  0  0  0  0  0  0  0  0
   47.3677    7.3788   11.9058 C   0  0  0  0  0  0  0  0  0  0  0  0
   44.9707    3.6387   12.6228 N   0  0  0  0  0  0  0  0  0  0  0  0
   46.7504    6.1478   12.5132 C   0  0  0  0  0  0  0  0  0  0  0  0
   44.5259    4.9758   13.0411 C   0  0  1  0  0  0  0  0  0  0  0  0
   48.2683    8.4727   14.0096 C   0  0  0  0  0  0  0  0  0  0  0  0
   48.5621    9.5454   11.7425 C   0  0  0  0  0  0  0  0  0  0  0  0
   44.7873    3.3357   11.2111 C   0  0  0  0  0  0  0  0  0  0  0  0
   45.2278    6.1564   12.3383 C   0  0  0  0  0  0  0  0  0  0  0  0
   43.0036    5.1161   12.9334 C   0  0  0  0  0  0  0  0  0  0  0  0
   45.9089    5.6671   12.0556 C   0  0  1  0  0  0  0  0  0  0  0  0
   46.5359    6.8209   12.8669 C   0  0  2  0  0  0  0  0  0  0  0  0
   44.4942    5.3343   12.5596 C   0  0  2  0  0  0  0  0  0  0  0  0
   47.9536    7.1483   12.3653 C   0  0  1  0  0  0  0  0  0  0  0  0
   44.1050    3.9110   12.1610 C   0  0  0  0  0  0  0  0  0  0  0  0
   48.3721    8.5604   12.7599 C   0  0  0  0  0  0  0  0  0  0  0  0
   44.7955    2.9075   12.1976 O   0  0  0  0  0  0  0  0  0  0  0  0
   49.4124    8.8501   13.3345 O   0  0  0  0  0  0  0  0  0  0  0  0
   43.5860    6.3081   12.0101 O   0  0  0  0  0  0  0  0  0  0  0  0
   48.8559    6.1779   12.9309 O   0  0  0  0  0  0  0  0  0  0  0  0
   45.8250    6.0600   10.6718 O   0  0  0  0  0  0  0  0  0  0  0  0
   46.6073    6.4385   14.2526 O   0  0  0  0  0  0  0  0  0  0  0  0
   47.5335    9.5252   12.3393 O   0  0  0  0  0  0  0  0  0  0  0  0
   42.8001    3.8327   11.7945 O   0  0  0  0  0  0  0  0  0  0  0  0
   44.4270    4.1577   11.6592 C   0  0  0  0  0  0  0  0  0  0  0  0
   45.6453    4.7285   11.5868 C   0  0  0  0  0  0  0  0  0  0  0  0
   48.2478    7.8220   13.4648 N   0  0  0  0  0  0  0  0  0  0  0  0
   46.2843    5.6659   12.5767 C   0  0  0  0  0  0  0  0  0  0  0  0
   46.8634    8.1133   13.0628 C   0  0  2  0  0  0  0  0  0  0  0  0
   43.4255    4.3946   12.7556 C   0  0  0  0  0  0  0  0  0  0  0  0
   43.9611    3.2057   10.5889 C   0  0  0  0  0  0  0  0  0  0  0  0
   49.2205    7.8146   12.3808 C   0  0  0  0  0  0  0  0  0  0  0  0
   46.2630    7.1075   12.0603 C   0  0  0  0  0  0  0  0  0  0  0  0
   46.7029    9.5481   12.5497 C   0  0  0  0  0  0  0  0  0  0  0  0
   47.2554    7.4358   10.8225 H   0  0  0  0  0  0  0  0  0  0  0  0
   45.9536    3.5130   12.8656 H   0  0  0  0  0  0  0  0  0  0  0  0
   46.9947    6.0432   13.5734 H   0  0  0  0  0  0  0  0  0  0  0  0
   47.1836    5.2761   12.0087 H   0  0  0  0  0  0  0  0  0  0  0  0
   44.7639    5.0480   14.1105 H   0  0  0  0  0  0  0  0  0  0  0  0
   47.9908    7.5697   14.5580 H   0  0  0  0  0  0  0  0  0  0  0  0
   49.3330    8.6468   14.2006 H   0  0  0  0  0  0  0  0  0  0  0  0
   47.6996    9.3073   14.4346 H   0  0  0  0  0  0  0  0  0  0  0  0
   49.6478    9.6148   11.8697 H   0  0  0  0  0  0  0  0  0  0  0  0
   48.3596    9.4543   10.6703 H   0  0  0  0  0  0  0  0  0  0  0  0
   48.1102   10.4809   12.0887 H   0  0  0  0  0  0  0  0  0  0  0  0
   43.7361    3.3804   10.9129 H   0  0  0  0  0  0  0  0  0  0  0  0
   45.1267    2.3126   11.0215 H   0  0  0  0  0  0  0  0  0  0  0  0
   45.3746    3.9960   10.5671 H   0  0  0  0  0  0  0  0  0  0  0  0
   44.9747    6.1705   11.2702 H   0  0  0  0  0  0  0  0  0  0  0  0
   44.8304    7.0919   12.7555 H   0  0  0  0  0  0  0  0  0  0  0  0
   42.6650    5.1463   11.8925 H   0  0  0  0  0  0  0  0  0  0  0  0
   42.4961    4.2857   13.4368 H   0  0  0  0  0  0  0  0  0  0  0  0
   42.6705    6.0424   13.4151 H   0  0  0  0  0  0  0  0  0  0  0  0
   46.5588    4.7869   12.1220 H   0  0  0  0  0  0  0  0  0  0  0  0
   45.8853    7.6988   12.7925 H   0  0  0  0  0  0  0  0  0  0  0  0
   44.4168    5.3770   13.6508 H   0  0  0  0  0  0  0  0  0  0  0  0
   48.0391    7.0905   11.2756 H   0  0  0  0  0  0  0  0  0  0  0  0
   42.7085    5.8752   12.0354 H   0  0  0  0  0  0  0  0  0  0  0  0
   49.7515    6.5622   12.8480 H   0  0  0  0  0  0  0  0  0  0  0  0
   44.9990    6.5870   10.6075 H   0  0  0  0  0  0  0  0  0  0  0  0
   47.4573    5.9548   14.3406 H   0  0  0  0  0  0  0  0  0  0  0  0
   47.9470   10.3603   12.6460 H   0  0  0  0  0  0  0  0  0  0  0  0
   42.6821    2.8839   11.5712 H   0  0  0  0  0  0  0  0  0  0  0  0
   46.2805    4.4907   10.7333 H   0  0  0  0  0  0  0  0  0  0  0  0
   48.5419    8.5036   14.1647 H   0  0  0  0  0  0  0  0  0  0  0  0
   47.3167    5.3312   12.7324 H   0  0  0  0  0  0  0  0  0  0  0  0
   45.7999    5.6095   13.5563 H   0  0  0  0  0  0  0  0  0  0  0  0
   46.2662    8.0420   13.9817 H   0  0  0  0  0  0  0  0  0  0  0  0
   43.7121    5.1969   13.4392 H   0  0  0  0  0  0  0  0  0  0  0  0
   43.2876    3.4808   13.3425 H   0  0  0  0  0  0  0  0  0  0  0  0
   42.4578    4.6765   12.3261 H   0  0  0  0  0  0  0  0  0  0  0  0
   43.0622    3.5947   10.0995 H   0  0  0  0  0  0  0  0  0  0  0  0
   44.7188    3.0463    9.8143 H   0  0  0  0  0  0  0  0  0  0  0  0
   43.7245    2.2306   11.0273 H   0  0  0  0  0  0  0  0  0  0  0  0
   49.2931    8.7856   11.8824 H   0  0  0  0  0  0  0  0  0  0  0  0
   50.2086    7.5857   12.7932 H   0  0  0  0  0  0  0  0  0  0  0  0
   49.0025    7.0410   11.6391 H   0  0  0  0  0  0  0  0  0  0  0  0
   45.2216    7.3956   11.8620 H   0  0  0  0  0  0  0  0  0  0  0  0
   46.7812    7.1699   11.0949 H   0  0  0  0  0  0  0  0  0  0  0  0
   47.1167   10.2699   13.2621 H   0  0  0  0  0  0  0  0  0  0  0  0
   45.6422    9.7893   12.4163 H   0  0  0  0  0  0  0  0  0  0  0  0
   47.1981    9.6965   11.5847 H   0  0  0  0  0  0  0  0  0  0  0  0
  2  1  2  3
  3  5  1  0
  4  2  1  0
  5  9  1  0
  6  1  1  0
  7  1  1  0
  8  3  1  0
  9  4  1  0
 10  5  1  0
 12 11  1  0
 13 11  1  0
 14 12  1  0
 15 13  1  0
 16 14  1  0
 17 15  2  0
 18 16  2  0
 13 19  1  0
 14 20  1  0
 11 21  1  0
 12 22  1  0
 23 16  1  0
 24 15  1  0
 26 25  2  3
 27 29  1  0
 28 26  1  0
 29 33  1  0
 30 25  1  0
 31 25  1  0
 32 27  1  0
 33 28  1  0
 34 29  1  0
  2 35  1  0
  3 36  1  0
  4 37  1  0
  4 38  1  0
  5 39  1  1
  6 40  1  0
  6 41  1  0
  6 42  1  0
  7 43  1  0
  7 44  1  0
  7 45  1  0
  8 46  1  0
  8 47  1  0
  8 48  1  0
  9 49  1  0
  9 50  1  0
 10 51  1  0
 10 52  1  0
 10 53  1  0
 11 54  1  6
 12 55  1  1
 13 56  1  1
 14 57  1  6
 19 58  1  0
 20 59  1  0
 21 60  1  0
 22 61  1  0
 23 62  1  0
 24 63  1  0
 26 64  1  0
 27 65  1  0
 28 66  1  0
 28 67  1  0
 29 68  1  1
 30 69  1  0
 30 70  1  0
 30 71  1  0
 31 72  1  0
 31 73  1  0
 31 74  1  0
 32 75  1  0
 32 76  1  0
 32 77  1  0
 33 78  1  0
 33 79  1  0
 34 80  1  0
 34 81  1  0
 34 82  1  0
M  END
> <Uni-Dock RESULT> 
ENERGY=   -6.737  LOWER_BOUND=    0.000  UPPER_BOUND=    0.000
INTER + INTRA:          -6.737
INTER:                  -6.737
INTRA:                   0.000
UNBOUND:                 0.000

$$$$

     RDKit          3D

 82 79  0  0  0  0  0  0  0  0999 V2000
   48.3123    8.3107   12.9550 C   0  0  0  0  0  0  0  0  0  0  0  0
   47.4381    7.3089   13.1739 C   0  0  0  0  0  0  0  0  0  0  0  0
   43.2573    5.9108   12.2719 N   0  0  0  0  0  0  0  0  0  0  0  0
   45.9837    7.2413   12.7925 C   0  0  0  0  0  0  0  0  0  0  0  0
   44.2875    6.0955   11.2398 C   0  0  1  0  0  0  0  0  0  0  0  0
   47.9992    9.6091   12.2641 C   0  0  0  0  0  0  0  0  0  0  0  0
   49.7449    8.1874   13.4078 C   0  0  0  0  0  0  0  0  0  0  0  0
   43.3663    4.6836   13.0467 C   0  0  0  0  0  0  0  0  0  0  0  0
   45.7407    6.1386   11.7561 C   0  0  0  0  0  0  0  0  0  0  0  0
   44.1470    5.0591   10.1198 C   0  0  0  0  0  0  0  0  0  0  0  0
   45.5065    6.3025   12.5937 C   0  0  1  0  0  0  0  0  0  0  0  0
   46.4608    7.4496   12.1982 C   0  0  2  0  0  0  0  0  0  0  0  0
   44.7612    5.7482   11.3675 C   0  0  2  0  0  0  0  0  0  0  0  0
   47.2010    8.0070   13.4270 C   0  0  1  0  0  0  0  0  0  0  0  0
   43.4781    5.0374   11.7972 C   0  0  0  0  0  0  0  0  0  0  0  0
   48.4806    8.7322   13.0253 C   0  0  0  0  0  0  0  0  0  0  0  0
   42.6699    5.3933   12.6370 O   0  0  0  0  0  0  0  0  0  0  0  0
   48.7839    9.8656   13.3712 O   0  0  0  0  0  0  0  0  0  0  0  0
   45.6539    4.8592   10.6692 O   0  0  0  0  0  0  0  0  0  0  0  0
   46.3054    8.9049   14.1107 O   0  0  0  0  0  0  0  0  0  0  0  0
   46.2754    5.2377   13.1863 O   0  0  0  0  0  0  0  0  0  0  0  0
   45.6986    8.5090   11.5915 O   0  0  0  0  0  0  0  0  0  0  0  0
   49.3398    7.9848   12.3081 O   0  0  0  0  0  0  0  0  0  0  0  0
   43.2559    3.9177   11.0624 O   0  0  0  0  0  0  0  0  0  0  0  0
   43.9245    4.8875   12.2385 C   0  0  0  0  0  0  0  0  0  0  0  0
   44.7215    5.6723   12.9896 C   0  0  0  0  0  0  0  0  0  0  0  0
   47.5540    9.1080   12.7850 N   0  0  0  0  0  0  0  0  0  0  0  0
   45.4224    6.9390   12.5757 C   0  0  0  0  0  0  0  0  0  0  0  0
   47.6710    7.9518   11.8836 C   0  0  2  0  0  0  0  0  0  0  0  0
   43.6128    5.1118   10.7846 C   0  0  0  0  0  0  0  0  0  0  0  0
   43.2689    3.6681   12.8322 C   0  0  0  0  0  0  0  0  0  0  0  0
   48.0700    8.9005   14.1310 C   0  0  0  0  0  0  0  0  0  0  0  0
   46.9179    6.6925   12.3570 C   0  0  0  0  0  0  0  0  0  0  0  0
   49.1314    7.6184   11.5617 C   0  0  0  0  0  0  0  0  0  0  0  0
   47.7973    6.4177   13.6897 H   0  0  0  0  0  0  0  0  0  0  0  0
   43.2627    6.7082   12.9081 H   0  0  0  0  0  0  0  0  0  0  0  0
   45.6135    8.1939   12.4046 H   0  0  0  0  0  0  0  0  0  0  0  0
   45.4109    7.0354   13.7044 H   0  0  0  0  0  0  0  0  0  0  0  0
   44.0780    7.0708   10.7809 H   0  0  0  0  0  0  0  0  0  0  0  0
   46.9362    9.7497   12.0561 H   0  0  0  0  0  0  0  0  0  0  0  0
   48.3162   10.4527   12.8874 H   0  0  0  0  0  0  0  0  0  0  0  0
   48.5345    9.6640   11.3096 H   0  0  0  0  0  0  0  0  0  0  0  0
   49.9877    8.9840   14.1194 H   0  0  0  0  0  0  0  0  0  0  0  0
   49.9446    7.2306   13.9013 H   0  0  0  0  0  0  0  0  0  0  0  0
   50.4213    8.2678   12.5505 H   0  0  0  0  0  0  0  0  0  0  0  0
   43.2886    3.7914   12.4192 H   0  0  0  0  0  0  0  0  0  0  0  0
   42.5383    4.6411   13.7612 H   0  0  0  0  0  0  0  0  0  0  0  0
   44.2941    4.6405   13.6238 H   0  0  0  0  0  0  0  0  0  0  0  0
   46.0272    5.1645   12.1732 H   0  0  0  0  0  0  0  0  0  0  0  0
   46.4066    6.3080   10.8987 H   0  0  0  0  0  0  0  0  0  0  0  0
   44.4232    4.0529   10.4521 H   0  0  0  0  0  0  0  0  0  0  0  0
   43.1193    5.0268    9.7411 H   0  0  0  0  0  0  0  0  0  0  0  0
   44.7975    5.3175    9.2765 H   0  0  0  0  0  0  0  0  0  0  0  0
   44.7960    6.6691   13.3435 H   0  0  0  0  0  0  0  0  0  0  0  0
   47.1715    7.0762   11.4532 H   0  0  0  0  0  0  0  0  0  0  0  0
   44.4547    6.5357   10.6716 H   0  0  0  0  0  0  0  0  0  0  0  0
   47.4946    7.2240   14.1334 H   0  0  0  0  0  0  0  0  0  0  0  0
   45.0677    4.2710   10.1510 H   0  0  0  0  0  0  0  0  0  0  0  0
   46.8674    9.4553   14.6920 H   0  0  0  0  0  0  0  0  0  0  0  0
   46.6211    4.7211   12.4262 H   0  0  0  0  0  0  0  0  0  0  0  0
   45.3909    9.0638   12.3411 H   0  0  0  0  0  0  0  0  0  0  0  0
   50.1074    8.5753   12.1522 H   0  0  0  0  0  0  0  0  0  0  0  0
   42.4159    3.5663   11.4300 H   0  0  0  0  0  0  0  0  0  0  0  0
   44.8855    5.3997   14.0323 H   0  0  0  0  0  0  0  0  0  0  0  0
   48.0356    9.9052   12.3685 H   0  0  0  0  0  0  0  0  0  0  0  0
   45.2694    7.6782   13.3709 H   0  0  0  0  0  0  0  0  0  0  0  0
   44.9761    7.3710   11.6748 H   0  0  0  0  0  0  0  0  0  0  0  0
   47.2067    8.2640   10.9385 H   0  0  0  0  0  0  0  0  0  0  0  0
   44.2104    5.9053   10.3302 H   0  0  0  0  0  0  0  0  0  0  0  0
   42.5559    5.3695   10.6622 H   0  0  0  0  0  0  0  0  0  0  0  0
   43.8126    4.1991   10.2124 H   0  0  0  0  0  0  0  0  0  0  0  0
   43.6003    2.7656   12.3084 H   0  0  0  0  0  0  0  0  0  0  0  0
   43.5065    3.5425   13.8939 H   0  0  0  0  0  0  0  0  0  0  0  0
   42.1802    3.7429   12.7424 H   0  0  0  0  0  0  0  0  0  0  0  0
   49.1404    8.6751   14.1345 H   0  0  0  0  0  0  0  0  0  0  0  0
   47.9289    9.8191   14.7100 H   0  0  0  0  0  0  0  0  0  0  0  0
   47.5306    8.1096   14.6599 H   0  0  0  0  0  0  0  0  0  0  0  0
   47.0386    5.9099   11.5956 H   0  0  0  0  0  0  0  0  0  0  0  0
   47.3722    6.2935   13.2729 H   0  0  0  0  0  0  0  0  0  0  0  0
   49.6706    8.5059   11.2133 H   0  0  0  0  0  0  0  0  0  0  0  0
   49.1849    6.8678   10.7650 H   0  0  0  0  0  0  0  0  0  0  0  0
   49.6612    7.2147   12.4305 H   0  0  0  0  0  0  0  0  0  0  0  0
  2  1  2  3
  3  5  1  0
  4  2  1  0
  5  9  1  0
  6  1  1  0
  7  1  1  0
  8  3  1  0
  9  4  1  0
 10  5  1  0
 12 11  1  0
 13 11  1  0
 14 12  1  0
 15 13  1  0
 16 14  1  0
 17 15  2  0
 18 16  2  0
 13 19  1  0
 14 20  1  0
 11 21  1  0
 12 22  1  0
 23 16  1  0
 24 15  1  0
 26 25  2  3
 27 29  1  0
 28 26  1  0
 29 33  1  0
 30 25  1  0
 31 25  1  0
 32 27  1  0
 33 28  1  0
 34 29  1  0
  2 35  1  0
  3 36  1  0
  4 37  1  0
  4 38  1  0
  5 39  1  1
  6 40  1  0
  6 41  1  0
  6 42  1  0
  7 43  1  0
  7 44  1  0
  7 45  1  0
  8 46  1  0
  8 47  1  0
  8 48  1  0
  9 49  1  0
  9 50  1  0
 10 51  1  0
 10 52  1  0
 10 53  1  0
 11 54  1  6
 12 55  1  1
 13 56  1  1
 14 57  1  6
 19 58  1  0
 20 59  1  0
 21 60  1  0
 22 61  1  0
 23 62  1  0
 24 63  1  0
 26 64  1  0
 27 65  1  0
 28 66  1  0
 28 67  1  0
 29 68  1  1
 30 69  1  0
 30 70  1  0
 30 71  1  0
 31 72  1  0
 31 73  1  0
 31 74  1  0
 32 75  1  0
 32 76  1  0
 32 77  1  0
 33 78  1  0
 33 79  1  0
 34 80  1  0
 34 81  1  0
 34 82  1  0
M  END
> <Uni-Dock RESULT> 
ENERGY=   -6.616  LOWER_BOUND=    1.232  UPPER_BOUND=    2.116
INTER + INTRA:          -6.616
INTER:                  -6.616
INTRA:                   0.000
UNBOUND:                 0.000

$$$$

     RDKit          3D

 82 79  0  0  0  0  0  0  0  0999 V2000
   44.1543    4.6631   11.7142 C   0  0  0  0  0  0  0  0  0  0  0  0
   45.4348    5.0354   11.9073 C   0  0  0  0  0  0  0  0  0  0  0  0
   48.2643    8.5193   11.5846 N   0  0  0  0  0  0  0  0  0  0  0  0
   46.0912    6.3397   11.5422 C   0  0  0  0  0  0  0  0  0  0  0  0
   47.1090    8.4984   12.4933 C   0  0  1  0  0  0  0  0  0  0  0  0
   43.0868    5.5038   11.0700 C   0  0  0  0  0  0  0  0  0  0  0  0
   43.6775    3.3048   12.1618 C   0  0  0  0  0  0  0  0  0  0  0  0
   49.4292    7.7767   12.0427 C   0  0  0  0  0  0  0  0  0  0  0  0
   46.5321    7.1003   12.7977 C   0  0  0  0  0  0  0  0  0  0  0  0
   47.4097    9.2494   13.7949 C   0  0  0  0  0  0  0  0  0  0  0  0
   46.9233    6.7166   12.1027 C   0  0  1  0  0  0  0  0  0  0  0  0
   45.4162    6.4229   11.9442 C   0  0  2  0  0  0  0  0  0  0  0  0
   47.1589    8.0305   12.8672 C   0  0  2  0  0  0  0  0  0  0  0  0
   45.1824    5.1113   11.1738 C   0  0  1  0  0  0  0  0  0  0  0  0
   48.5489    8.5868   12.5600 C   0  0  0  0  0  0  0  0  0  0  0  0
   43.7967    4.5399   11.4535 C   0  0  0  0  0  0  0  0  0  0  0  0
   49.1136    8.6380   11.4813 O   0  0  0  0  0  0  0  0  0  0  0  0
   42.9871    4.2098   10.5981 O   0  0  0  0  0  0  0  0  0  0  0  0
   46.9913    7.7631   14.2728 O   0  0  0  0  0  0  0  0  0  0  0  0
   45.3385    5.3918    9.7692 O   0  0  0  0  0  0  0  0  0  0  0  0
   47.5351    5.6390   12.8381 O   0  0  0  0  0  0  0  0  0  0  0  0
   44.7982    7.5046   11.2236 O   0  0  0  0  0  0  0  0  0  0  0  0
   43.5382    4.3253   12.7567 O   0  0  0  0  0  0  0  0  0  0  0  0
   49.1281    9.1250   13.6636 O   0  0  0  0  0  0  0  0  0  0  0  0
   48.6162    7.9466   12.6052 C   0  0  0  0  0  0  0  0  0  0  0  0
   47.9729    6.9448   11.9745 C   0  0  0  0  0  0  0  0  0  0  0  0
   43.9190    5.4153   10.9278 N   0  0  0  0  0  0  0  0  0  0  0  0
   46.5088    6.8600   11.6335 C   0  0  0  0  0  0  0  0  0  0  0  0
   44.2657    5.8177   12.2993 C   0  0  2  0  0  0  0  0  0  0  0  0
   47.9625    9.1881   13.1461 C   0  0  0  0  0  0  0  0  0  0  0  0
   50.1042    7.8812   12.8301 C   0  0  0  0  0  0  0  0  0  0  0  0
   44.4019    4.1015   10.5255 C   0  0  0  0  0  0  0  0  0  0  0  0
   45.7797    5.9005   12.5785 C   0  0  0  0  0  0  0  0  0  0  0  0
   43.5702    4.9444   13.3485 C   0  0  0  0  0  0  0  0  0  0  0  0
   46.1088    4.3256   12.3882 H   0  0  0  0  0  0  0  0  0  0  0  0
   47.9855    8.1695   10.6677 H   0  0  0  0  0  0  0  0  0  0  0  0
   45.4379    6.9769   10.9407 H   0  0  0  0  0  0  0  0  0  0  0  0
   46.9608    6.1093   10.9154 H   0  0  0  0  0  0  0  0  0  0  0  0
   46.3208    9.0705   11.9862 H   0  0  0  0  0  0  0  0  0  0  0  0
   43.4640    6.4298   10.6304 H   0  0  0  0  0  0  0  0  0  0  0  0
   42.6018    4.9428   10.2635 H   0  0  0  0  0  0  0  0  0  0  0  0
   42.3252    5.7737   11.8101 H   0  0  0  0  0  0  0  0  0  0  0  0
   43.3060    2.7320   11.3053 H   0  0  0  0  0  0  0  0  0  0  0  0
   44.4736    2.7183   12.6320 H   0  0  0  0  0  0  0  0  0  0  0  0
   42.8661    3.4091   12.8897 H   0  0  0  0  0  0  0  0  0  0  0  0
   49.8181    8.1623   12.9892 H   0  0  0  0  0  0  0  0  0  0  0  0
   50.2301    7.8835   11.3044 H   0  0  0  0  0  0  0  0  0  0  0  0
   49.2236    6.7074   12.1445 H   0  0  0  0  0  0  0  0  0  0  0  0
   47.2590    6.5013   13.3612 H   0  0  0  0  0  0  0  0  0  0  0  0
   45.6632    7.2221   13.4591 H   0  0  0  0  0  0  0  0  0  0  0  0
   48.1263    8.7120   14.4248 H   0  0  0  0  0  0  0  0  0  0  0  0
   47.8128   10.2471   13.5886 H   0  0  0  0  0  0  0  0  0  0  0  0
   46.4924    9.3825   14.3796 H   0  0  0  0  0  0  0  0  0  0  0  0
   47.3870    6.7596   11.1104 H   0  0  0  0  0  0  0  0  0  0  0  0
   44.9595    6.3758   12.9385 H   0  0  0  0  0  0  0  0  0  0  0  0
   46.4480    8.8135   12.5845 H   0  0  0  0  0  0  0  0  0  0  0  0
   45.9017    4.3309   11.4417 H   0  0  0  0  0  0  0  0  0  0  0  0
   47.4878    8.4753   14.7246 H   0  0  0  0  0  0  0  0  0  0  0  0
   44.9106    4.6498    9.2970 H   0  0  0  0  0  0  0  0  0  0  0  0
   47.3694    5.8504   13.7825 H   0  0  0  0  0  0  0  0  0  0  0  0
   44.9116    7.2773   10.2750 H   0  0  0  0  0  0  0  0  0  0  0  0
   42.6354    3.9417   12.7675 H   0  0  0  0  0  0  0  0  0  0  0  0
   49.9965    9.4430   13.3338 H   0  0  0  0  0  0  0  0  0  0  0  0
   48.5531    6.0851   11.6386 H   0  0  0  0  0  0  0  0  0  0  0  0
   42.9047    5.4391   10.8199 H   0  0  0  0  0  0  0  0  0  0  0  0
   46.4289    6.5100   10.5975 H   0  0  0  0  0  0  0  0  0  0  0  0
   46.0320    7.8446   11.6549 H   0  0  0  0  0  0  0  0  0  0  0  0
   43.8634    6.8323   12.4215 H   0  0  0  0  0  0  0  0  0  0  0  0
   46.8711    9.1535   13.1129 H   0  0  0  0  0  0  0  0  0  0  0  0
   48.2923   10.0642   12.5787 H   0  0  0  0  0  0  0  0  0  0  0  0
   48.2418    9.3331   14.1955 H   0  0  0  0  0  0  0  0  0  0  0  0
   50.3276    7.8992   13.9018 H   0  0  0  0  0  0  0  0  0  0  0  0
   50.5492    6.9716   12.4129 H   0  0  0  0  0  0  0  0  0  0  0  0
   50.5958    8.7380   12.3576 H   0  0  0  0  0  0  0  0  0  0  0  0
   43.9877    3.3002   11.1444 H   0  0  0  0  0  0  0  0  0  0  0  0
   44.0898    3.9101    9.4936 H   0  0  0  0  0  0  0  0  0  0  0  0
   45.4939    4.0436   10.5396 H   0  0  0  0  0  0  0  0  0  0  0  0
   45.9232    6.2460   13.6113 H   0  0  0  0  0  0  0  0  0  0  0  0
   46.2357    4.9034   12.5289 H   0  0  0  0  0  0  0  0  0  0  0  0
   42.4919    4.8901   13.1639 H   0  0  0  0  0  0  0  0  0  0  0  0
   43.7110    5.3661   14.3502 H   0  0  0  0  0  0  0  0  0  0  0  0
   43.9674    3.9243   13.3620 H   0  0  0  0  0  0  0  0  0  0  0  0
  2  1  2  3
  3  5  1  0
  4  2  1  0
  5  9  1  0
  6  1  1  0
  7  1  1  0
  8  3  1  0
  9  4  1  0
 10  5  1  0
 12 11  1  0
 13 11  1  0
 14 12  1  0
 15 13  1  0
 16 14  1  0
 17 15  2  0
 18 16  2  0
 13 19  1  0
 14 20  1  0
 11 21  1  0
 12 22  1  0
 23 16  1  0
 24 15  1  0
 26 25  2  3
 27 29  1  0
 28 26  1  0
 29 33  1  0
 30 25  1  0
 31 25  1  0
 32 27  1  0
 33 28  1  0
 34 29  1  0
  2 35  1  0
  3 36  1  0
  4 37  1  0
  4 38  1  0
  5 39  1  1
  6 40  1  0
  6 41  1  0
  6 42  1  0
  7 43  1  0
  7 44  1  0
  7 45  1  0
  8 46  1  0
  8 47  1  0
  8 48  1  0
  9 49  1  0
  9 50  1  0
 10 51  1  0
 10 52  1  0
 10 53  1  0
 11 54  1  6
 12 55  1  1
 13 56  1  1
 14 57  1  6
 19 58  1  0
 20 59  1  0
 21 60  1  0
 22 61  1  0
 23 62  1  0
 24 63  1  0
 26 64  1  0
 27 65  1  0
 28 66  1  0
 28 67  1  0
 29 68  1  1
 30 69  1  0
 30 70  1  0
 30 71  1  0
 31 72  1  0
 31 73  1  0
 31 74  1  0
 32 75  1  0
 32 76  1  0
 32 77  1  0
 33 78  1  0
 33 79  1  0
 34 80  1  0
 34 81  1  0
 34 82  1  0
M  END
> <Uni-Dock RESULT> 
ENERGY=   -6.516  LOWER_BOUND=    1.128  UPPER_BOUND=    5.338
INTER + INTRA:          -6.516
INTER:                  -6.516
INTRA:                   0.000
UNBOUND:                 0.000

$$$$

     RDKit          3D

 82 79  0  0  0  0  0  0  0  0999 V2000
   48.6305    7.4944   12.9633 C   0  0  0  0  0  0  0  0  0  0  0  0
   47.8128    6.4372   12.7921 C   0  0  0  0  0  0  0  0  0  0  0  0
   43.5714    5.0351   13.3329 N   0  0  0  0  0  0  0  0  0  0  0  0
   46.3840    6.2823   13.2391 C   0  0  0  0  0  0  0  0  0  0  0  0
   43.9514    6.1286   12.4270 C   0  0  1  0  0  0  0  0  0  0  0  0
   48.2686    8.7757   13.6622 C   0  0  0  0  0  0  0  0  0  0  0  0
   50.0403    7.4643   12.4302 C   0  0  0  0  0  0  0  0  0  0  0  0
   43.8180    3.6934   12.8259 C   0  0  0  0  0  0  0  0  0  0  0  0
   45.4427    6.1742   12.0344 C   0  0  0  0  0  0  0  0  0  0  0  0
   43.0667    6.1490   11.1758 C   0  0  0  0  0  0  0  0  0  0  0  0
   45.7010    5.6545   12.7025 C   0  0  1  0  0  0  0  0  0  0  0  0
   46.5248    6.9521   12.8446 C   0  0  2  0  0  0  0  0  0  0  0  0
   44.3472    5.9238   12.0236 C   0  0  2  0  0  0  0  0  0  0  0  0
   47.8762    6.6817   13.5296 C   0  0  1  0  0  0  0  0  0  0  0  0
   43.3485    4.8179   12.3634 C   0  0  0  0  0  0  0  0  0  0  0  0
   48.8890    7.7776   13.2162 C   0  0  0  0  0  0  0  0  0  0  0  0
   43.1622    4.2823   13.4421 O   0  0  0  0  0  0  0  0  0  0  0  0
   49.5378    8.3939   14.0502 O   0  0  0  0  0  0  0  0  0  0  0  0
   44.5730    6.0194   10.6041 O   0  0  0  0  0  0  0  0  0  0  0  0
   47.6423    6.6016   14.9489 O   0  0  0  0  0  0  0  0  0  0  0  0
   46.4417    4.7159   11.8982 O   0  0  0  0  0  0  0  0  0  0  0  0
   45.7816    7.8983   13.6345 O   0  0  0  0  0  0  0  0  0  0  0  0
   49.1044    7.9744   11.9024 O   0  0  0  0  0  0  0  0  0  0  0  0
   42.5738    4.4973   11.2956 O   0  0  0  0  0  0  0  0  0  0  0  0
   43.9180    4.5270   12.2770 C   0  0  0  0  0  0  0  0  0  0  0  0
   45.1194    4.7532   12.8431 C   0  0  0  0  0  0  0  0  0  0  0  0
   48.0609    7.9637   13.7969 N   0  0  0  0  0  0  0  0  0  0  0  0
   45.7440    6.0810   13.1808 C   0  0  0  0  0  0  0  0  0  0  0  0
   47.4802    7.8182   12.4535 C   0  0  2  0  0  0  0  0  0  0  0  0
   42.9640    5.5950   11.8183 C   0  0  0  0  0  0  0  0  0  0  0  0
   43.4317    3.1203   12.0456 C   0  0  0  0  0  0  0  0  0  0  0  0
   49.1354    7.0328   14.1129 C   0  0  0  0  0  0  0  0  0  0  0  0
   46.8433    6.4415   12.1774 C   0  0  0  0  0  0  0  0  0  0  0  0
   48.4811    8.1809   11.3516 C   0  0  0  0  0  0  0  0  0  0  0  0
   48.2036    5.5659   12.2654 H   0  0  0  0  0  0  0  0  0  0  0  0
   44.0517    5.1475   14.2260 H   0  0  0  0  0  0  0  0  0  0  0  0
   46.0605    7.1053   13.8816 H   0  0  0  0  0  0  0  0  0  0  0  0
   46.3237    5.3726   13.8483 H   0  0  0  0  0  0  0  0  0  0  0  0
   43.7315    7.0565   12.9713 H   0  0  0  0  0  0  0  0  0  0  0  0
   47.2967    8.7442   14.1598 H   0  0  0  0  0  0  0  0  0  0  0  0
   49.0131    9.0076   14.4319 H   0  0  0  0  0  0  0  0  0  0  0  0
   48.2465    9.6016   12.9424 H   0  0  0  0  0  0  0  0  0  0  0  0
   50.7581    7.5848   13.2488 H   0  0  0  0  0  0  0  0  0  0  0  0
   50.2731    6.5229   11.9217 H   0  0  0  0  0  0  0  0  0  0  0  0
   50.1910    8.2771   11.7121 H   0  0  0  0  0  0  0  0  0  0  0  0
   43.2631    3.4919   11.9054 H   0  0  0  0  0  0  0  0  0  0  0  0
   43.4749    2.9657   13.5680 H   0  0  0  0  0  0  0  0  0  0  0  0
   44.8817    3.5050   12.6559 H   0  0  0  0  0  0  0  0  0  0  0  0
   45.7065    5.2952   11.4321 H   0  0  0  0  0  0  0  0  0  0  0  0
   45.6017    7.0452   11.3838 H   0  0  0  0  0  0  0  0  0  0  0  0
   43.2728    5.3034   10.5113 H   0  0  0  0  0  0  0  0  0  0  0  0
   42.0049    6.1247   11.4451 H   0  0  0  0  0  0  0  0  0  0  0  0
   43.2371    7.0674   10.6026 H   0  0  0  0  0  0  0  0  0  0  0  0
   45.5535    5.2124   13.6947 H   0  0  0  0  0  0  0  0  0  0  0  0
   46.6735    7.3862   11.8502 H   0  0  0  0  0  0  0  0  0  0  0  0
   43.8896    6.8606   12.3575 H   0  0  0  0  0  0  0  0  0  0  0  0
   48.3292    5.7376   13.2106 H   0  0  0  0  0  0  0  0  0  0  0  0
   43.7046    5.8221   10.1981 H   0  0  0  0  0  0  0  0  0  0  0  0
   48.5150    6.7237   15.3733 H   0  0  0  0  0  0  0  0  0  0  0  0
   46.2482    4.9696   10.9697 H   0  0  0  0  0  0  0  0  0  0  0  0
   46.0091    7.6875   14.5662 H   0  0  0  0  0  0  0  0  0  0  0  0
   49.7850    8.6800   11.8686 H   0  0  0  0  0  0  0  0  0  0  0  0
   41.9856    3.7923   11.6436 H   0  0  0  0  0  0  0  0  0  0  0  0
   45.7321    3.8956   13.1220 H   0  0  0  0  0  0  0  0  0  0  0  0
   48.4091    8.9163   13.9080 H   0  0  0  0  0  0  0  0  0  0  0  0
   46.1602    6.0046   14.1923 H   0  0  0  0  0  0  0  0  0  0  0  0
   44.9966    6.8790   13.2236 H   0  0  0  0  0  0  0  0  0  0  0  0
   46.6722    8.5599   12.3975 H   0  0  0  0  0  0  0  0  0  0  0  0
   43.3898    6.6005   11.8513 H   0  0  0  0  0  0  0  0  0  0  0  0
   42.0632    5.5867   12.4403 H   0  0  0  0  0  0  0  0  0  0  0  0
   42.6664    5.4122   10.7798 H   0  0  0  0  0  0  0  0  0  0  0  0
   43.2712    2.9447   10.9769 H   0  0  0  0  0  0  0  0  0  0  0  0
   44.1441    2.3690   12.4026 H   0  0  0  0  0  0  0  0  0  0  0  0
   42.4852    2.9563   12.5713 H   0  0  0  0  0  0  0  0  0  0  0  0
   49.9937    7.1479   13.4446 H   0  0  0  0  0  0  0  0  0  0  0  0
   49.4869    7.2299   15.1310 H   0  0  0  0  0  0  0  0  0  0  0  0
   48.7967    5.9930   14.0932 H   0  0  0  0  0  0  0  0  0  0  0  0
   46.4087    6.4569   11.1686 H   0  0  0  0  0  0  0  0  0  0  0  0
   47.6115    5.6578   12.1618 H   0  0  0  0  0  0  0  0  0  0  0  0
   48.9295    9.1633   11.5344 H   0  0  0  0  0  0  0  0  0  0  0  0
   47.9782    8.2252   10.3788 H   0  0  0  0  0  0  0  0  0  0  0  0
   49.2879    7.4453   11.2718 H   0  0  0  0  0  0  0  0  0  0  0  0
  2  1  2  3
  3  5  1  0
  4  2  1  0
  5  9  1  0
  6  1  1  0
  7  1  1  0
  8  3  1  0
  9  4  1  0
 10  5  1  0
 12 11  1  0
 13 11  1  0
 14 12  1  0
 15 13  1  0
 16 14  1  0
 17 15  2  0
 18 16  2  0
 13 19  1  0
 14 20  1  0
 11 21  1  0
 12 22  1  0
 23 16  1  0
 24 15  1  0
 26 25  2  3
 27 29  1  0
 28 26  1  0
 29 33  1  0
 30 25  1  0
 31 25  1  0
 32 27  1  0
 33 28  1  0
 34 29  1  0
  2 35  1  0
  3 36  1  0
  4 37  1  0
  4 38  1  0
  5 39  1  1
  6 40  1  0
  6 41  1  0
  6 42  1  0
  7 43  1  0
  7 44  1  0
  7 45  1  0
  8 46  1  0
  8 47  1  0
  8 48  1  0
  9 49  1  0
  9 50  1  0
 10 51  1  0
 10 52  1  0
 10 53  1  0
 11 54  1  6
 12 55  1  1
 13 56  1  1
 14 57  1  6
 19 58  1  0
 20 59  1  0
 21 60  1  0
 22 61  1  0
 23 62  1  0
 24 63  1  0
 26 64  1  0
 27 65  1  0
 28 66  1  0
 28 67  1  0
 29 68  1  1
 30 69  1  0
 30 70  1  0
 30 71  1  0
 31 72  1  0
 31 73  1  0
 31 74  1  0
 32 75  1  0
 32 76  1  0
 32 77  1  0
 33 78  1  0
 33 79  1  0
 34 80  1  0
 34 81  1  0
 34 82  1  0
M  END
> <Uni-Dock RESULT> 
ENERGY=   -6.460  LOWER_BOUND=    1.210  UPPER_BOUND=    1.528
INTER + INTRA:          -6.460
INTER:                  -6.460
INTRA:                   0.000
UNBOUND:                 0.000

$$$$

     RDKit          3D

 82 79  0  0  0  0  0  0  0  0999 V2000
   44.4265    4.4258   11.5246 C   0  0  0  0  0  0  0  0  0  0  0  0
   45.3074    5.4264   11.3286 C   0  0  0  0  0  0  0  0  0  0  0  0
   46.6430    9.4174   12.9208 N   0  0  0  0  0  0  0  0  0  0  0  0
   45.3789    6.7558   12.0306 C   0  0  0  0  0  0  0  0  0  0  0  0
   46.7448    8.1670   13.6869 C   0  0  1  0  0  0  0  0  0  0  0  0
   43.2964    4.4374   12.5166 C   0  0  0  0  0  0  0  0  0  0  0  0
   44.5241    3.1535   10.7218 C   0  0  0  0  0  0  0  0  0  0  0  0
   47.6742    9.6150   11.9130 C   0  0  0  0  0  0  0  0  0  0  0  0
   46.6675    6.8718   12.8522 C   0  0  0  0  0  0  0  0  0  0  0  0
   47.9927    8.1581   14.5763 C   0  0  0  0  0  0  0  0  0  0  0  0
   46.3115    7.2709   12.1471 C   0  0  1  0  0  0  0  0  0  0  0  0
   45.3321    6.1376   12.5203 C   0  0  2  0  0  0  0  0  0  0  0  0
   47.0805    7.7734   13.3809 C   0  0  2  0  0  0  0  0  0  0  0  0
   44.5591    5.6405   11.2859 C   0  0  1  0  0  0  0  0  0  0  0  0
   47.6098    9.1873   13.1425 C   0  0  0  0  0  0  0  0  0  0  0  0
   44.0095    4.2346   11.5014 C   0  0  0  0  0  0  0  0  0  0  0  0
   47.0354   10.1228   12.6134 O   0  0  0  0  0  0  0  0  0  0  0  0
   42.8458    3.9009   11.3266 O   0  0  0  0  0  0  0  0  0  0  0  0
   48.1477    6.8436   13.6485 O   0  0  0  0  0  0  0  0  0  0  0  0
   43.4863    6.5687   11.0347 O   0  0  0  0  0  0  0  0  0  0  0  0
   47.2600    6.7712   11.1843 O   0  0  0  0  0  0  0  0  0  0  0  0
   44.3922    6.6282   13.4938 O   0  0  0  0  0  0  0  0  0  0  0  0
   44.9411    3.3184   11.8235 O   0  0  0  0  0  0  0  0  0  0  0  0
   48.8499    9.3532   13.6695 O   0  0  0  0  0  0  0  0  0  0  0  0
   47.6829    8.8704   12.5851 C   0  0  0  0  0  0  0  0  0  0  0  0
   46.7964    8.1865   11.8359 C   0  0  0  0  0  0  0  0  0  0  0  0
   43.6464    5.0385   12.0301 N   0  0  0  0  0  0  0  0  0  0  0  0
   45.6909    7.2820   12.3122 C   0  0  0  0  0  0  0  0  0  0  0  0
   44.9768    4.8420   12.6254 C   0  0  2  0  0  0  0  0  0  0  0  0
   47.7668    8.8202   14.0857 C   0  0  0  0  0  0  0  0  0  0  0  0
   48.7053    9.7667   11.9367 C   0  0  0  0  0  0  0  0  0  0  0  0
   43.5808    4.8647   10.5856 C   0  0  0  0  0  0  0  0  0  0  0  0
   46.0592    5.8098   12.1068 C   0  0  0  0  0  0  0  0  0  0  0  0
   45.4506    3.3896   12.5090 C   0  0  0  0  0  0  0  0  0  0  0  0
   46.0817    5.2881   10.5731 H   0  0  0  0  0  0  0  0  0  0  0  0
   45.7268    9.4728   12.4755 H   0  0  0  0  0  0  0  0  0  0  0  0
   44.5162    6.9273   12.6796 H   0  0  0  0  0  0  0  0  0  0  0  0
   45.3486    7.5382   11.2631 H   0  0  0  0  0  0  0  0  0  0  0  0
   45.8842    8.1645   14.3688 H   0  0  0  0  0  0  0  0  0  0  0  0
   43.1481    5.4052   13.0006 H   0  0  0  0  0  0  0  0  0  0  0  0
   42.3549    4.1833   12.0171 H   0  0  0  0  0  0  0  0  0  0  0  0
   43.4811    3.6974   13.3034 H   0  0  0  0  0  0  0  0  0  0  0  0
   43.6050    2.9961   10.1472 H   0  0  0  0  0  0  0  0  0  0  0  0
   45.3586    3.1713   10.0132 H   0  0  0  0  0  0  0  0  0  0  0  0
   44.6702    2.2961   11.3872 H   0  0  0  0  0  0  0  0  0  0  0  0
   48.6769    9.6414   12.3486 H   0  0  0  0  0  0  0  0  0  0  0  0
   47.5144   10.5829   11.4277 H   0  0  0  0  0  0  0  0  0  0  0  0
   47.6394    8.8513   11.1311 H   0  0  0  0  0  0  0  0  0  0  0  0
   47.5402    6.7902   12.1915 H   0  0  0  0  0  0  0  0  0  0  0  0
   46.7263    6.0154   13.5380 H   0  0  0  0  0  0  0  0  0  0  0  0
   48.9148    8.0706   13.9921 H   0  0  0  0  0  0  0  0  0  0  0  0
   48.0521    9.0711   15.1790 H   0  0  0  0  0  0  0  0  0  0  0  0
   47.9610    7.3104   15.2703 H   0  0  0  0  0  0  0  0  0  0  0  0
   45.7517    8.0903   11.6817 H   0  0  0  0  0  0  0  0  0  0  0  0
   45.8974    5.3199   12.9798 H   0  0  0  0  0  0  0  0  0  0  0  0
   46.4496    7.8308   14.2737 H   0  0  0  0  0  0  0  0  0  0  0  0
   45.1825    5.5974   10.3872 H   0  0  0  0  0  0  0  0  0  0  0  0
   48.8030    7.3555   14.1649 H   0  0  0  0  0  0  0  0  0  0  0  0
   42.8527    6.0985   10.4568 H   0  0  0  0  0  0  0  0  0  0  0  0
   47.9485    6.3185   11.7181 H   0  0  0  0  0  0  0  0  0  0  0  0
   43.6708    7.0378   12.9684 H   0  0  0  0  0  0  0  0  0  0  0  0
   44.4412    2.4781   11.9031 H   0  0  0  0  0  0  0  0  0  0  0  0
   49.0664   10.2865   13.4545 H   0  0  0  0  0  0  0  0  0  0  0  0
   46.8419    8.2917   10.7517 H   0  0  0  0  0  0  0  0  0  0  0  0
   42.9870    4.3948   12.4681 H   0  0  0  0  0  0  0  0  0  0  0  0
   44.7880    7.5328   11.7429 H   0  0  0  0  0  0  0  0  0  0  0  0
   45.4438    7.4655   13.3622 H   0  0  0  0  0  0  0  0  0  0  0  0
   44.8551    5.0455   13.6977 H   0  0  0  0  0  0  0  0  0  0  0  0
   47.1256    8.0559   14.5308 H   0  0  0  0  0  0  0  0  0  0  0  0
   47.4859    9.7892   14.5105 H   0  0  0  0  0  0  0  0  0  0  0  0
   48.7922    8.5925   14.3973 H   0  0  0  0  0  0  0  0  0  0  0  0
   49.7172    9.4214   12.1724 H   0  0  0  0  0  0  0  0  0  0  0  0
   48.6074    9.7897   10.8462 H   0  0  0  0  0  0  0  0  0  0  0  0
   48.5938   10.7931   12.3016 H   0  0  0  0  0  0  0  0  0  0  0  0
   43.8571    3.8524   10.2768 H   0  0  0  0  0  0  0  0  0  0  0  0
   42.5514    5.0364   10.2545 H   0  0  0  0  0  0  0  0  0  0  0  0
   44.2063    5.5892   10.0562 H   0  0  0  0  0  0  0  0  0  0  0  0
   46.9952    5.6024   12.6432 H   0  0  0  0  0  0  0  0  0  0  0  0
   46.2713    5.6184   11.0471 H   0  0  0  0  0  0  0  0  0  0  0  0
   44.6914    2.6961   12.8865 H   0  0  0  0  0  0  0  0  0  0  0  0
   46.3595    3.2360   13.1017 H   0  0  0  0  0  0  0  0  0  0  0  0
   45.6817    3.1150   11.4748 H   0  0  0  0  0  0  0  0  0  0  0  0
  2  1  2  3
  3  5  1  0
  4  2  1  0
  5  9  1  0
  6  1  1  0
  7  1  1  0
  8  3  1  0
  9  4  1  0
 10  5  1  0
 12 11  1  0
 13 11  1  0
 14 12  1  0
 15 13  1  0
 16 14  1  0
 17 15  2  0
 18 16  2  0
 13 19  1  0
 14 20  1  0
 11 21  1  0
 12 22  1  0
 23 16  1  0
 24 15  1  0
 26 25  2  3
 27 29  1  0
 28 26  1  0
 29 33  1  0
 30 25  1  0
 31 25  1  0
 32 27  1  0
 33 28  1  0
 34 29  1  0
  2 35  1  0
  3 36  1  0
  4 37  1  0
  4 38  1  0
  5 39  1  1
  6 40  1  0
  6 41  1  0
  6 42  1  0
  7 43  1  0
  7 44  1  0
  7 45  1  0
  8 46  1  0
  8 47  1  0
  8 48  1  0
  9 49  1  0
  9 50  1  0
 10 51  1  0
 10 52  1  0
 10 53  1  0
 11 54  1  6
 12 55  1  1
 13 56  1  1
 14 57  1  6
 19 58  1  0
 20 59  1  0
 21 60  1  0
 22 61  1  0
 23 62  1  0
 24 63  1  0
 26 64  1  0
 27 65  1  0
 28 66  1  0
 28 67  1  0
 29 68  1  1
 30 69  1  0
 30 70  1  0
 30 71  1  0
 31 72  1  0
 31 73  1  0
 31 74  1  0
 32 75  1  0
 32 76  1  0
 32 77  1  0
 33 78  1  0
 33 79  1  0
 34 80  1  0
 34 81  1  0
 34 82  1  0
M  END
> <Uni-Dock RESULT> 
ENERGY=   -6.276  LOWER_BOUND=    0.998  UPPER_BOUND=    5.404
INTER + INTRA:          -6.276
INTER:                  -6.276
INTRA:                   0.000
UNBOUND:                 0.000

$$$$

     RDKit          3D

 82 79  0  0  0  0  0  0  0  0999 V2000
   43.8106    5.4750   11.7361 C   0  0  0  0  0  0  0  0  0  0  0  0
   44.8022    5.9019   12.5423 C   0  0  0  0  0  0  0  0  0  0  0  0
   49.1940    6.8755   12.6504 N   0  0  0  0  0  0  0  0  0  0  0  0
   46.2745    5.9899   12.2423 C   0  0  0  0  0  0  0  0  0  0  0  0
   48.2235    7.6116   11.8276 C   0  0  1  0  0  0  0  0  0  0  0  0
   43.9814    4.9806   10.3263 C   0  0  0  0  0  0  0  0  0  0  0  0
   42.3822    5.4701   12.2183 C   0  0  0  0  0  0  0  0  0  0  0  0
   49.2084    7.2304   14.0619 C   0  0  0  0  0  0  0  0  0  0  0  0
   46.7464    7.4480   12.2419 C   0  0  0  0  0  0  0  0  0  0  0  0
   48.5908    9.0959   11.7261 C   0  0  0  0  0  0  0  0  0  0  0  0
   46.8947    6.7200   12.7227 C   0  0  1  0  0  0  0  0  0  0  0  0
   45.8156    6.3236   11.6926 C   0  0  2  0  0  0  0  0  0  0  0  0
   47.7970    7.8426   12.1825 C   0  0  2  0  0  0  0  0  0  0  0  0
   44.9178    5.1962   12.2323 C   0  0  1  0  0  0  0  0  0  0  0  0
   49.1354    7.8556   12.9205 C   0  0  0  0  0  0  0  0  0  0  0  0
   43.5787    5.1532   11.5044 C   0  0  0  0  0  0  0  0  0  0  0  0
   49.8225    6.9020   13.2424 O   0  0  0  0  0  0  0  0  0  0  0  0
   43.0916    4.1573   10.9877 O   0  0  0  0  0  0  0  0  0  0  0  0
   47.0933    9.0903   12.3345 O   0  0  0  0  0  0  0  0  0  0  0  0
   45.6241    3.9518   12.0635 O   0  0  0  0  0  0  0  0  0  0  0  0
   46.2472    7.1858   13.9227 O   0  0  0  0  0  0  0  0  0  0  0  0
   46.4582    5.8723   10.4864 O   0  0  0  0  0  0  0  0  0  0  0  0
   42.8891    6.3082   11.5435 O   0  0  0  0  0  0  0  0  0  0  0  0
   49.5680    9.1216   13.1507 O   0  0  0  0  0  0  0  0  0  0  0  0
   48.6852    7.7268   13.3645 C   0  0  0  0  0  0  0  0  0  0  0  0
   47.7324    6.7751   13.4050 C   0  0  0  0  0  0  0  0  0  0  0  0
   44.4561    4.9101   11.0264 N   0  0  0  0  0  0  0  0  0  0  0  0
   46.8874    6.2677   12.2667 C   0  0  0  0  0  0  0  0  0  0  0  0
   44.5709    6.3685   11.1780 C   0  0  2  0  0  0  0  0  0  0  0  0
   49.0634    8.5197   12.1441 C   0  0  0  0  0  0  0  0  0  0  0  0
   49.4659    8.0838   14.6023 C   0  0  0  0  0  0  0  0  0  0  0  0
   43.8815    4.2107   12.1674 C   0  0  0  0  0  0  0  0  0  0  0  0
   45.4622    6.8216   12.3517 C   0  0  0  0  0  0  0  0  0  0  0  0
   43.2003    7.0496   11.2466 C   0  0  0  0  0  0  0  0  0  0  0  0
   44.5396    6.2347   13.5471 H   0  0  0  0  0  0  0  0  0  0  0  0
   49.0288    5.8728   12.5606 H   0  0  0  0  0  0  0  0  0  0  0  0
   46.5301    5.5239   11.2872 H   0  0  0  0  0  0  0  0  0  0  0  0
   46.8050    5.4214   13.0153 H   0  0  0  0  0  0  0  0  0  0  0  0
   48.3223    7.2029   10.8133 H   0  0  0  0  0  0  0  0  0  0  0  0
   45.0251    4.8613   10.0271 H   0  0  0  0  0  0  0  0  0  0  0  0
   43.5030    4.0017   10.2104 H   0  0  0  0  0  0  0  0  0  0  0  0
   43.5127    5.6798    9.6247 H   0  0  0  0  0  0  0  0  0  0  0  0
   41.9775    4.4526   12.1950 H   0  0  0  0  0  0  0  0  0  0  0  0
   42.2879    5.8405   13.2443 H   0  0  0  0  0  0  0  0  0  0  0  0
   41.7636    6.1059   11.5763 H   0  0  0  0  0  0  0  0  0  0  0  0
   49.4580    8.2834   14.2198 H   0  0  0  0  0  0  0  0  0  0  0  0
   49.9812    6.6427   14.5670 H   0  0  0  0  0  0  0  0  0  0  0  0
   48.2579    7.0060   14.5539 H   0  0  0  0  0  0  0  0  0  0  0  0
   46.5744    7.8965   13.2289 H   0  0  0  0  0  0  0  0  0  0  0  0
   46.1254    8.0191   11.5381 H   0  0  0  0  0  0  0  0  0  0  0  0
   48.4395    9.6238   12.6735 H   0  0  0  0  0  0  0  0  0  0  0  0
   49.6365    9.2221   11.4245 H   0  0  0  0  0  0  0  0  0  0  0  0
   47.9711    9.5918   10.9703 H   0  0  0  0  0  0  0  0  0  0  0  0
   47.4902    5.8356   12.9771 H   0  0  0  0  0  0  0  0  0  0  0  0
   45.2206    7.2095   11.4464 H   0  0  0  0  0  0  0  0  0  0  0  0
   48.0353    7.7153   11.1216 H   0  0  0  0  0  0  0  0  0  0  0  0
   44.6908    5.3110   13.2970 H   0  0  0  0  0  0  0  0  0  0  0  0
   47.7932    9.7745   12.3370 H   0  0  0  0  0  0  0  0  0  0  0  0
   44.9490    3.2473   12.1314 H   0  0  0  0  0  0  0  0  0  0  0  0
   46.0342    8.1280   13.7465 H   0  0  0  0  0  0  0  0  0  0  0  0
   46.6291    4.9161   10.6305 H   0  0  0  0  0  0  0  0  0  0  0  0
   42.0574    6.1136   11.0611 H   0  0  0  0  0  0  0  0  0  0  0  0
   50.4217    8.9899   13.6176 H   0  0  0  0  0  0  0  0  0  0  0  0
   47.5359    6.2766   14.3545 H   0  0  0  0  0  0  0  0  0  0  0  0
   43.8955    4.7042   10.1993 H   0  0  0  0  0  0  0  0  0  0  0  0
   46.8757    5.1728   12.3241 H   0  0  0  0  0  0  0  0  0  0  0  0
   47.3294    6.5124   11.2961 H   0  0  0  0  0  0  0  0  0  0  0  0
   45.0511    6.7257   10.2572 H   0  0  0  0  0  0  0  0  0  0  0  0
   48.3914    8.3603   11.2977 H   0  0  0  0  0  0  0  0  0  0  0  0
   50.0781    8.2594   11.8263 H   0  0  0  0  0  0  0  0  0  0  0  0
   49.0381    9.5915   12.3696 H   0  0  0  0  0  0  0  0  0  0  0  0
   49.3058    9.1352   14.8623 H   0  0  0  0  0  0  0  0  0  0  0  0
   49.1743    7.4792   15.4677 H   0  0  0  0  0  0  0  0  0  0  0  0
   50.5361    7.9261   14.4327 H   0  0  0  0  0  0  0  0  0  0  0  0
   42.8573    4.5319   12.3776 H   0  0  0  0  0  0  0  0  0  0  0  0
   43.8475    3.1390   11.9454 H   0  0  0  0  0  0  0  0  0  0  0  0
   44.4905    4.3259   13.0686 H   0  0  0  0  0  0  0  0  0  0  0  0
   45.5096    7.9191   12.3471 H   0  0  0  0  0  0  0  0  0  0  0  0
   45.0065    6.5445   13.3108 H   0  0  0  0  0  0  0  0  0  0  0  0
   42.5649    6.7417   10.4092 H   0  0  0  0  0  0  0  0  0  0  0  0
   43.3120    8.1384   11.1911 H   0  0  0  0  0  0  0  0  0  0  0  0
   42.6740    6.8198   12.1787 H   0  0  0  0  0  0  0  0  0  0  0  0
  2  1  2  3
  3  5  1  0
  4  2  1  0
  5  9  1  0
  6  1  1  0
  7  1  1  0
  8  3  1  0
  9  4  1  0
 10  5  1  0
 12 11  1  0
 13 11  1  0
 14 12  1  0
 15 13  1  0
 16 14  1  0
 17 15  2  0
 18 16  2  0
 13 19  1  0
 14 20  1  0
 11 21  1  0
 12 22  1  0
 23 16  1  0
 24 15  1  0
 26 25  2  3
 27 29  1  0
 28 26  1  0
 29 33  1  0
 30 25  1  0
 31 25  1  0
 32 27  1  0
 33 28  1  0
 34 29  1  0
  2 35  1  0
  3 36  1  0
  4 37  1  0
  4 38  1  0
  5 39  1  1
  6 40  1  0
  6 41  1  0
  6 42  1  0
  7 43  1  0
  7 44  1  0
  7 45  1  0
  8 46  1  0
  8 47  1  0
  8 48  1  0
  9 49  1  0
  9 50  1  0
 10 51  1  0
 10 52  1  0
 10 53  1  0
 11 54  1  6
 12 55  1  1
 13 56  1  1
 14 57  1  6
 19 58  1  0
 20 59  1  0
 21 60  1  0
 22 61  1  0
 23 62  1  0
 24 63  1  0
 26 64  1  0
 27 65  1  0
 28 66  1  0
 28 67  1  0
 29 68  1  1
 30 69  1  0
 30 70  1  0
 30 71  1  0
 31 72  1  0
 31 73  1  0
 31 74  1  0
 32 75  1  0
 32 76  1  0
 32 77  1  0
 33 78  1  0
 33 79  1  0
 34 80  1  0
 34 81  1  0
 34 82  1  0
M  END
> <Uni-Dock RESULT> 
ENERGY=   -6.102  LOWER_BOUND=    1.079  UPPER_BOUND=    5.268
INTER + INTRA:          -6.102
INTER:                  -6.102
INTRA:                   0.000
UNBOUND:                 0.000

$$$$

     RDKit          3D

 82 79  0  0  0  0  0  0  0  0999 V2000
   48.1237    8.2596   13.5400 C   0  0  0  0  0  0  0  0  0  0  0  0
   46.8532    7.8419   13.3756 C   0  0  0  0  0  0  0  0  0  0  0  0
   44.0996    5.7083   10.5272 N   0  0  0  0  0  0  0  0  0  0  0  0
   46.2233    7.2336   12.1514 C   0  0  0  0  0  0  0  0  0  0  0  0
   45.2608    5.0673   11.1609 C   0  0  1  0  0  0  0  0  0  0  0  0
   49.2048    8.2029   12.4964 C   0  0  0  0  0  0  0  0  0  0  0  0
   48.5733    8.8385   14.8573 C   0  0  0  0  0  0  0  0  0  0  0  0
   42.9219    5.8367   11.3726 C   0  0  0  0  0  0  0  0  0  0  0  0
   45.8087    5.7816   12.4138 C   0  0  0  0  0  0  0  0  0  0  0  0
   44.9864    3.5901   11.4629 C   0  0  0  0  0  0  0  0  0  0  0  0
   45.4039    6.5476   12.2332 C   0  0  1  0  0  0  0  0  0  0  0  0
   46.9029    6.8919   12.3647 C   0  0  2  0  0  0  0  0  0  0  0  0
   45.2032    5.0983   11.7584 C   0  0  2  0  0  0  0  0  0  0  0  0
   47.1018    8.3441   12.8338 C   0  0  1  0  0  0  0  0  0  0  0  0
   43.8237    4.9295   11.1224 C   0  0  0  0  0  0  0  0  0  0  0  0
   48.4765    8.5433   13.4627 C   0  0  0  0  0  0  0  0  0  0  0  0
   43.2524    5.6893   10.3599 O   0  0  0  0  0  0  0  0  0  0  0  0
   49.2722    9.4179   13.1494 O   0  0  0  0  0  0  0  0  0  0  0  0
   45.3751    4.2304   12.8952 O   0  0  0  0  0  0  0  0  0  0  0  0
   46.9417    9.2028   11.6881 O   0  0  0  0  0  0  0  0  0  0  0  0
   44.7737    6.7030   13.5197 O   0  0  0  0  0  0  0  0  0  0  0  0
   47.5396    6.7229   11.0850 O   0  0  0  0  0  0  0  0  0  0  0  0
   48.7397    7.7186   14.4930 O   0  0  0  0  0  0  0  0  0  0  0  0
   43.2648    3.7360   11.4482 O   0  0  0  0  0  0  0  0  0  0  0  0
   43.7425    5.3202   11.6296 C   0  0  0  0  0  0  0  0  0  0  0  0
   44.3587    6.4703   11.9653 C   0  0  0  0  0  0  0  0  0  0  0  0
   48.3699    8.3511   12.4581 N   0  0  0  0  0  0  0  0  0  0  0  0
   45.8180    6.8110   11.8188 C   0  0  0  0  0  0  0  0  0  0  0  0
   48.0423    7.0526   13.0661 C   0  0  2  0  0  0  0  0  0  0  0  0
   44.4277    4.1039   11.0705 C   0  0  0  0  0  0  0  0  0  0  0  0
   42.2551    5.1656   11.8106 C   0  0  0  0  0  0  0  0  0  0  0  0
   47.8550    9.5154   13.1654 C   0  0  0  0  0  0  0  0  0  0  0  0
   46.5325    6.7585   13.1724 C   0  0  0  0  0  0  0  0  0  0  0  0
   48.7258    6.8643   14.4243 C   0  0  0  0  0  0  0  0  0  0  0  0
   46.1671    7.9413   14.2174 H   0  0  0  0  0  0  0  0  0  0  0  0
   44.3639    6.6310   10.1815 H   0  0  0  0  0  0  0  0  0  0  0  0
   46.8862    7.2720   11.2832 H   0  0  0  0  0  0  0  0  0  0  0  0
   45.3443    7.8371   11.8960 H   0  0  0  0  0  0  0  0  0  0  0  0
   46.0578    5.0813   10.4058 H   0  0  0  0  0  0  0  0  0  0  0  0
   48.8451    7.9075   11.5082 H   0  0  0  0  0  0  0  0  0  0  0  0
   49.6713    9.1880   12.3842 H   0  0  0  0  0  0  0  0  0  0  0  0
   49.9777    7.4863   12.7963 H   0  0  0  0  0  0  0  0  0  0  0  0
   48.9258    9.8664   14.7193 H   0  0  0  0  0  0  0  0  0  0  0  0
   47.7679    8.8615   15.5986 H   0  0  0  0  0  0  0  0  0  0  0  0
   49.3922    8.2422   15.2732 H   0  0  0  0  0  0  0  0  0  0  0  0
   42.5486    4.8657   11.7100 H   0  0  0  0  0  0  0  0  0  0  0  0
   42.1181    6.3005   10.7923 H   0  0  0  0  0  0  0  0  0  0  0  0
   43.1043    6.4759   12.2409 H   0  0  0  0  0  0  0  0  0  0  0  0
   45.0727    5.7446   13.2274 H   0  0  0  0  0  0  0  0  0  0  0  0
   46.6848    5.2245   12.7731 H   0  0  0  0  0  0  0  0  0  0  0  0
   44.2626    3.4627   12.2747 H   0  0  0  0  0  0  0  0  0  0  0  0
   44.6040    3.0723   10.5762 H   0  0  0  0  0  0  0  0  0  0  0  0
   45.9107    3.0837   11.7633 H   0  0  0  0  0  0  0  0  0  0  0  0
   44.9341    7.2504   11.5354 H   0  0  0  0  0  0  0  0  0  0  0  0
   47.3657    6.1902   13.0668 H   0  0  0  0  0  0  0  0  0  0  0  0
   45.9293    4.8030   10.9942 H   0  0  0  0  0  0  0  0  0  0  0  0
   46.3673    8.6485   13.5861 H   0  0  0  0  0  0  0  0  0  0  0  0
   44.8979    3.4093   12.6584 H   0  0  0  0  0  0  0  0  0  0  0  0
   47.3496   10.0575   11.9327 H   0  0  0  0  0  0  0  0  0  0  0  0
   44.9510    5.8609   13.9922 H   0  0  0  0  0  0  0  0  0  0  0  0
   47.4142    7.5799   10.6223 H   0  0  0  0  0  0  0  0  0  0  0  0
   49.6338    7.9839   14.7972 H   0  0  0  0  0  0  0  0  0  0  0  0
   42.4012    3.7531   10.9813 H   0  0  0  0  0  0  0  0  0  0  0  0
   43.7571    7.2811   12.3767 H   0  0  0  0  0  0  0  0  0  0  0  0
   49.3836    8.4364   12.3805 H   0  0  0  0  0  0  0  0  0  0  0  0
   45.8826    7.8187   11.3917 H   0  0  0  0  0  0  0  0  0  0  0  0
   46.3168    6.1497   11.1037 H   0  0  0  0  0  0  0  0  0  0  0  0
   48.4678    6.2947   12.3949 H   0  0  0  0  0  0  0  0  0  0  0  0
   45.5177    4.1739   11.0870 H   0  0  0  0  0  0  0  0  0  0  0  0
   44.1133    3.9381   10.0351 H   0  0  0  0  0  0  0  0  0  0  0  0
   44.1593    3.2184   11.6572 H   0  0  0  0  0  0  0  0  0  0  0  0
   42.0400    4.3492   12.5076 H   0  0  0  0  0  0  0  0  0  0  0  0
   41.7870    6.0730   12.2067 H   0  0  0  0  0  0  0  0  0  0  0  0
   41.7792    4.9385   10.8509 H   0  0  0  0  0  0  0  0  0  0  0  0
   48.2557    9.5948   14.1801 H   0  0  0  0  0  0  0  0  0  0  0  0
   48.1551   10.4194   12.6253 H   0  0  0  0  0  0  0  0  0  0  0  0
   46.7620    9.5213   13.2051 H   0  0  0  0  0  0  0  0  0  0  0  0
   46.4043    5.7548   13.6000 H   0  0  0  0  0  0  0  0  0  0  0  0
   46.0542    7.4494   13.8783 H   0  0  0  0  0  0  0  0  0  0  0  0
   49.8013    7.0601   14.3546 H   0  0  0  0  0  0  0  0  0  0  0  0
   48.6018    5.8332   14.7744 H   0  0  0  0  0  0  0  0  0  0  0  0
   48.3061    7.5247   15.1900 H   0  0  0  0  0  0  0  0  0  0  0  0
  2  1  2  3
  3  5  1  0
  4  2  1  0
  5  9  1  0
  6  1  1  0
  7  1  1  0
  8  3  1  0
  9  4  1  0
 10  5  1  0
 12 11  1  0
 13 11  1  0
 14 12  1  0
 15 13  1  0
 16 14  1  0
 17 15  2  0
 18 16  2  0
 13 19  1  0
 14 20  1  0
 11 21  1  0
 12 22  1  0
 23 16  1  0
 24 15  1  0
 26 25  2  3
 27 29  1  0
 28 26  1  0
 29 33  1  0
 30 25  1  0
 31 25  1  0
 32 27  1  0
 33 28  1  0
 34 29  1  0
  2 35  1  0
  3 36  1  0
  4 37  1  0
  4 38  1  0
  5 39  1  1
  6 40  1  0
  6 41  1  0
  6 42  1  0
  7 43  1  0
  7 44  1  0
  7 45  1  0
  8 46  1  0
  8 47  1  0
  8 48  1  0
  9 49  1  0
  9 50  1  0
 10 51  1  0
 10 52  1  0
 10 53  1  0
 11 54  1  6
 12 55  1  1
 13 56  1  1
 14 57  1  6
 19 58  1  0
 20 59  1  0
 21 60  1  0
 22 61  1  0
 23 62  1  0
 24 63  1  0
 26 64  1  0
 27 65  1  0
 28 66  1  0
 28 67  1  0
 29 68  1  1
 30 69  1  0
 30 70  1  0
 30 71  1  0
 31 72  1  0
 31 73  1  0
 31 74  1  0
 32 75  1  0
 32 76  1  0
 32 77  1  0
 33 78  1  0
 33 79  1  0
 34 80  1  0
 34 81  1  0
 34 82  1  0
M  END
> <Uni-Dock RESULT> 
ENERGY=   -5.739  LOWER_BOUND=    1.214  UPPER_BOUND=    2.248
INTER + INTRA:          -5.739
INTER:                  -5.739
INTRA:                   0.000
UNBOUND:                 0.000

$$$$

     RDKit          3D

 82 79  0  0  0  0  0  0  0  0999 V2000
   47.7436   11.4605   20.0744 C   0  0  0  0  0  0  0  0  0  0  0  0
   47.7446   10.4269   20.9389 C   0  0  0  0  0  0  0  0  0  0  0  0
   47.0841    5.9868   21.2502 N   0  0  0  0  0  0  0  0  0  0  0  0
   47.3193    9.0046   20.6912 C   0  0  0  0  0  0  0  0  0  0  0  0
   48.1614    6.5892   20.4519 C   0  0  1  0  0  0  0  0  0  0  0  0
   47.2992   11.3998   18.6391 C   0  0  0  0  0  0  0  0  0  0  0  0
   48.2207   12.8223   20.5110 C   0  0  0  0  0  0  0  0  0  0  0  0
   47.3324    5.9240   22.6829 C   0  0  0  0  0  0  0  0  0  0  0  0
   48.5117    8.0489   20.8081 C   0  0  0  0  0  0  0  0  0  0  0  0
   49.4211    5.7166   20.4667 C   0  0  0  0  0  0  0  0  0  0  0  0
   47.7533    8.1933   21.2407 C   0  0  1  0  0  0  0  0  0  0  0  0
   47.8242    9.2858   20.1525 C   0  0  2  0  0  0  0  0  0  0  0  0
   48.5092    6.9251   20.8090 C   0  0  2  0  0  0  0  0  0  0  0  0
   47.0621   10.5514   20.5835 C   0  0  1  0  0  0  0  0  0  0  0  0
   48.0044    5.7101   21.5868 C   0  0  0  0  0  0  0  0  0  0  0  0
   47.5386   11.7783   19.8136 C   0  0  0  0  0  0  0  0  0  0  0  0
   46.8526    5.4222   21.8616 O   0  0  0  0  0  0  0  0  0  0  0  0
   46.8113   12.5571   19.2132 O   0  0  0  0  0  0  0  0  0  0  0  0
   49.9153    7.1499   21.0269 O   0  0  0  0  0  0  0  0  0  0  0  0
   45.6592   10.3221   20.3491 O   0  0  0  0  0  0  0  0  0  0  0  0
   48.3522    8.6981   22.4501 O   0  0  0  0  0  0  0  0  0  0  0  0
   47.2408    8.7800   18.9378 O   0  0  0  0  0  0  0  0  0  0  0  0
   48.8594   12.0167   19.9129 O   0  0  0  0  0  0  0  0  0  0  0  0
   49.0189    4.8713   21.9190 O   0  0  0  0  0  0  0  0  0  0  0  0
   48.0200    6.1999   22.0066 C   0  0  0  0  0  0  0  0  0  0  0  0
   47.4690    7.4281   21.9506 C   0  0  0  0  0  0  0  0  0  0  0  0
   47.0259   11.0189   19.3468 N   0  0  0  0  0  0  0  0  0  0  0  0
   47.3590    8.3353   20.7539 C   0  0  0  0  0  0  0  0  0  0  0  0
   48.3373   10.4048   19.6044 C   0  0  2  0  0  0  0  0  0  0  0  0
   48.6923    5.5011   20.8573 C   0  0  0  0  0  0  0  0  0  0  0  0
   48.0072    5.4112   23.2899 C   0  0  0  0  0  0  0  0  0  0  0  0
   46.5151   11.8639   20.4174 C   0  0  0  0  0  0  0  0  0  0  0  0
   48.3783    9.4755   20.8339 C   0  0  0  0  0  0  0  0  0  0  0  0
   49.4567   11.4483   19.6788 C   0  0  0  0  0  0  0  0  0  0  0  0
   48.0932   10.6087   21.9561 H   0  0  0  0  0  0  0  0  0  0  0  0
   46.2124    6.4904   21.0848 H   0  0  0  0  0  0  0  0  0  0  0  0
   46.8461    8.8790   19.7138 H   0  0  0  0  0  0  0  0  0  0  0  0
   46.5576    8.7513   21.4380 H   0  0  0  0  0  0  0  0  0  0  0  0
   47.8008    6.5867   19.4148 H   0  0  0  0  0  0  0  0  0  0  0  0
   46.8330   10.4509   18.3645 H   0  0  0  0  0  0  0  0  0  0  0  0
   46.5625   12.1860   18.4399 H   0  0  0  0  0  0  0  0  0  0  0  0
   48.1569   11.5530   17.9746 H   0  0  0  0  0  0  0  0  0  0  0  0
   47.4167   13.5584   20.4036 H   0  0  0  0  0  0  0  0  0  0  0  0
   48.5433   12.8348   21.5572 H   0  0  0  0  0  0  0  0  0  0  0  0
   49.0694   13.1411   19.8968 H   0  0  0  0  0  0  0  0  0  0  0  0
   48.2172    5.3275   22.9224 H   0  0  0  0  0  0  0  0  0  0  0  0
   46.4813    5.4368   23.1689 H   0  0  0  0  0  0  0  0  0  0  0  0
   47.4342    6.9174   23.1285 H   0  0  0  0  0  0  0  0  0  0  0  0
   48.9369    8.1042   21.8186 H   0  0  0  0  0  0  0  0  0  0  0  0
   49.3042    8.3894   20.1276 H   0  0  0  0  0  0  0  0  0  0  0  0
   49.9153    5.7223   21.4439 H   0  0  0  0  0  0  0  0  0  0  0  0
   49.1833    4.6790   20.2071 H   0  0  0  0  0  0  0  0  0  0  0  0
   50.1458    6.0797   19.7291 H   0  0  0  0  0  0  0  0  0  0  0  0
   46.7023    7.9630   21.4502 H   0  0  0  0  0  0  0  0  0  0  0  0
   48.8759    9.5155   19.9513 H   0  0  0  0  0  0  0  0  0  0  0  0
   48.3641    6.6904   19.7496 H   0  0  0  0  0  0  0  0  0  0  0  0
   47.1914   10.7802   21.6461 H   0  0  0  0  0  0  0  0  0  0  0  0
   50.3044    6.2547   21.0992 H   0  0  0  0  0  0  0  0  0  0  0  0
   45.2384   11.2050   20.3464 H   0  0  0  0  0  0  0  0  0  0  0  0
   49.3166    8.5549   22.3344 H   0  0  0  0  0  0  0  0  0  0  0  0
   46.2801    8.9659   19.0193 H   0  0  0  0  0  0  0  0  0  0  0  0
   49.0004   12.8363   19.3927 H   0  0  0  0  0  0  0  0  0  0  0  0
   48.5666    4.1455   22.4014 H   0  0  0  0  0  0  0  0  0  0  0  0
   47.0216    7.8386   22.8560 H   0  0  0  0  0  0  0  0  0  0  0  0
   47.0789   11.5708   18.4904 H   0  0  0  0  0  0  0  0  0  0  0  0
   46.3386    8.7359   20.7335 H   0  0  0  0  0  0  0  0  0  0  0  0
   47.4834    7.7839   19.8170 H   0  0  0  0  0  0  0  0  0  0  0  0
   48.5504    9.7807   18.7262 H   0  0  0  0  0  0  0  0  0  0  0  0
   48.8294    6.1395   19.9815 H   0  0  0  0  0  0  0  0  0  0  0  0
   48.1059    4.6281   20.5533 H   0  0  0  0  0  0  0  0  0  0  0  0
   49.6889    5.1583   21.1571 H   0  0  0  0  0  0  0  0  0  0  0  0
   49.0307    5.2034   23.6183 H   0  0  0  0  0  0  0  0  0  0  0  0
   47.4992    5.9435   24.1011 H   0  0  0  0  0  0  0  0  0  0  0  0
   47.4885    4.4581   23.1425 H   0  0  0  0  0  0  0  0  0  0  0  0
   47.1676   12.7185   20.6182 H   0  0  0  0  0  0  0  0  0  0  0  0
   45.5396   12.2621   20.1195 H   0  0  0  0  0  0  0  0  0  0  0  0
   46.3563   11.3029   21.3428 H   0  0  0  0  0  0  0  0  0  0  0  0
   49.3855    9.0434   20.9082 H   0  0  0  0  0  0  0  0  0  0  0  0
   48.2291   10.0505   21.7567 H   0  0  0  0  0  0  0  0  0  0  0  0
   49.4416   12.1054   18.8026 H   0  0  0  0  0  0  0  0  0  0  0  0
   50.4358   10.9565   19.7037 H   0  0  0  0  0  0  0  0  0  0  0  0
   49.3782   12.0711   20.5757 H   0  0  0  0  0  0  0  0  0  0  0  0
  2  1  2  3
  3  5  1  0
  4  2  1  0
  5  9  1  0
  6  1  1  0
  7  1  1  0
  8  3  1  0
  9  4  1  0
 10  5  1  0
 12 11  1  0
 13 11  1  0
 14 12  1  0
 15 13  1  0
 16 14  1  0
 17 15  2  0
 18 16  2  0
 13 19  1  0
 14 20  1  0
 11 21  1  0
 12 22  1  0
 23 16  1  0
 24 15  1  0
 26 25  2  3
 27 29  1  0
 28 26  1  0
 29 33  1  0
 30 25  1  0
 31 25  1  0
 32 27  1  0
 33 28  1  0
 34 29  1  0
  2 35  1  0
  3 36  1  0
  4 37  1  0
  4 38  1  0
  5 39  1  1
  6 40  1  0
  6 41  1  0
  6 42  1  0
  7 43  1  0
  7 44  1  0
  7 45  1  0
  8 46  1  0
  8 47  1  0
  8 48  1  0
  9 49  1  0
  9 50  1  0
 10 51  1  0
 10 52  1  0
 10 53  1  0
 11 54  1  6
 12 55  1  1
 13 56  1  1
 14 57  1  6
 19 58  1  0
 20 59  1  0
 21 60  1  0
 22 61  1  0
 23 62  1  0
 24 63  1  0
 26 64  1  0
 27 65  1  0
 28 66  1  0
 28 67  1  0
 29 68  1  1
 30 69  1  0
 30 70  1  0
 30 71  1  0
 31 72  1  0
 31 73  1  0
 31 74  1  0
 32 75  1  0
 32 76  1  0
 32 77  1  0
 33 78  1  0
 33 79  1  0
 34 80  1  0
 34 81  1  0
 34 82  1  0
M  END
> <Uni-Dock RESULT> 
ENERGY=   -5.589  LOWER_BOUND=    8.174  UPPER_BOUND=    9.401
INTER + INTRA:          -5.589
INTER:                  -5.589
INTRA:                   0.000
UNBOUND:                 0.000

$$$$

     RDKit          3D

 82 79  0  0  0  0  0  0  0  0999 V2000
   49.0152    5.2153   19.6389 C   0  0  0  0  0  0  0  0  0  0  0  0
   48.6987    6.4889   19.3332 C   0  0  0  0  0  0  0  0  0  0  0  0
   46.3082   10.0413   20.7166 N   0  0  0  0  0  0  0  0  0  0  0  0
   47.6961    7.3872   20.0064 C   0  0  0  0  0  0  0  0  0  0  0  0
   47.4274    9.4732   21.4818 C   0  0  1  0  0  0  0  0  0  0  0  0
   48.4074    4.4060   20.7510 C   0  0  0  0  0  0  0  0  0  0  0  0
   50.0634    4.4770   18.8460 C   0  0  0  0  0  0  0  0  0  0  0  0
   46.6878   10.8906   19.5973 C   0  0  0  0  0  0  0  0  0  0  0  0
   48.3915    8.5770   20.6771 C   0  0  0  0  0  0  0  0  0  0  0  0
   48.2048   10.5643   22.2259 C   0  0  0  0  0  0  0  0  0  0  0  0
   47.8220    8.4515   20.0114 C   0  0  1  0  0  0  0  0  0  0  0  0
   48.1994    7.0388   20.5059 C   0  0  2  0  0  0  0  0  0  0  0  0
   47.9251    9.4861   21.1450 C   0  0  2  0  0  0  0  0  0  0  0  0
   48.0896    6.0040   19.3720 C   0  0  1  0  0  0  0  0  0  0  0  0
   47.0665   10.7111   20.8315 C   0  0  0  0  0  0  0  0  0  0  0  0
   48.9286    4.7650   19.6650 C   0  0  0  0  0  0  0  0  0  0  0  0
   45.9437   10.7377   20.3585 O   0  0  0  0  0  0  0  0  0  0  0  0
   48.5183    3.6134   19.6256 O   0  0  0  0  0  0  0  0  0  0  0  0
   49.3136    9.8356   21.3028 O   0  0  0  0  0  0  0  0  0  0  0  0
   46.7000    5.6507   19.2311 O   0  0  0  0  0  0  0  0  0  0  0  0
   48.7239    8.8337   18.9546 O   0  0  0  0  0  0  0  0  0  0  0  0
   47.3104    6.6594   21.5723 O   0  0  0  0  0  0  0  0  0  0  0  0
   50.2308    5.0181   19.8919 O   0  0  0  0  0  0  0  0  0  0  0  0
   47.6770   11.8617   21.2142 O   0  0  0  0  0  0  0  0  0  0  0  0
   47.3361   10.5315   20.2734 C   0  0  0  0  0  0  0  0  0  0  0  0
   47.3395    9.3443   19.6366 C   0  0  0  0  0  0  0  0  0  0  0  0
   48.0933    4.9900   20.2210 N   0  0  0  0  0  0  0  0  0  0  0  0
   47.4634    7.9725   20.2448 C   0  0  0  0  0  0  0  0  0  0  0  0
   49.0549    6.0100   20.6660 C   0  0  2  0  0  0  0  0  0  0  0  0
   47.5080   10.7177   21.7556 C   0  0  0  0  0  0  0  0  0  0  0  0
   47.1614   11.8145   19.5035 C   0  0  0  0  0  0  0  0  0  0  0  0
   48.1174    4.6941   18.7952 C   0  0  0  0  0  0  0  0  0  0  0  0
   48.8638    7.3957   20.0175 C   0  0  0  0  0  0  0  0  0  0  0  0
   50.5049    5.5387   20.5152 C   0  0  0  0  0  0  0  0  0  0  0  0
   49.2171    6.9603   18.4975 H   0  0  0  0  0  0  0  0  0  0  0  0
   45.7092    9.2890   20.3760 H   0  0  0  0  0  0  0  0  0  0  0  0
   47.0937    6.8532   20.7457 H   0  0  0  0  0  0  0  0  0  0  0  0
   46.9992    7.7414   19.2376 H   0  0  0  0  0  0  0  0  0  0  0  0
   46.9697    8.8431   22.2558 H   0  0  0  0  0  0  0  0  0  0  0  0
   47.5602    4.8953   21.2367 H   0  0  0  0  0  0  0  0  0  0  0  0
   48.0427    3.4483   20.3633 H   0  0  0  0  0  0  0  0  0  0  0  0
   49.1600    4.2033   21.5213 H   0  0  0  0  0  0  0  0  0  0  0  0
   49.6288    3.5861   18.3799 H   0  0  0  0  0  0  0  0  0  0  0  0
   50.4921    5.0923   18.0482 H   0  0  0  0  0  0  0  0  0  0  0  0
   50.8826    4.1629   19.5013 H   0  0  0  0  0  0  0  0  0  0  0  0
   47.2696   11.7593   19.9176 H   0  0  0  0  0  0  0  0  0  0  0  0
   45.7806   11.2753   19.1210 H   0  0  0  0  0  0  0  0  0  0  0  0
   47.2464   10.3423   18.8336 H   0  0  0  0  0  0  0  0  0  0  0  0
   48.9258    9.1703   19.9238 H   0  0  0  0  0  0  0  0  0  0  0  0
   49.1606    8.1950   21.3624 H   0  0  0  0  0  0  0  0  0  0  0  0
   48.7766   11.2016   21.5433 H   0  0  0  0  0  0  0  0  0  0  0  0
   47.5287   11.2015   22.8069 H   0  0  0  0  0  0  0  0  0  0  0  0
   48.9148   10.1150   22.9294 H   0  0  0  0  0  0  0  0  0  0  0  0
   46.8056    8.4288   19.6015 H   0  0  0  0  0  0  0  0  0  0  0  0
   49.2172    7.0664   20.9092 H   0  0  0  0  0  0  0  0  0  0  0  0
   47.5630    9.0972   22.1021 H   0  0  0  0  0  0  0  0  0  0  0  0
   48.4354    6.3947   18.4097 H   0  0  0  0  0  0  0  0  0  0  0  0
   49.3038   10.7132   21.7362 H   0  0  0  0  0  0  0  0  0  0  0  0
   46.6850    4.8088   18.7336 H   0  0  0  0  0  0  0  0  0  0  0  0
   49.5199    9.1800   19.4135 H   0  0  0  0  0  0  0  0  0  0  0  0
   46.5310    6.2622   21.1260 H   0  0  0  0  0  0  0  0  0  0  0  0
   50.6305    4.1341   20.0374 H   0  0  0  0  0  0  0  0  0  0  0  0
   47.0303   12.5573   20.9648 H   0  0  0  0  0  0  0  0  0  0  0  0
   47.2204    9.3356   18.5529 H   0  0  0  0  0  0  0  0  0  0  0  0
   48.2605    4.1264   20.7380 H   0  0  0  0  0  0  0  0  0  0  0  0
   46.7061    7.3322   19.7771 H   0  0  0  0  0  0  0  0  0  0  0  0
   47.2290    7.9824   21.3136 H   0  0  0  0  0  0  0  0  0  0  0  0
   48.8779    6.1351   21.7426 H   0  0  0  0  0  0  0  0  0  0  0  0
   47.7843    9.7996   22.2791 H   0  0  0  0  0  0  0  0  0  0  0  0
   46.5800   11.0948   22.1972 H   0  0  0  0  0  0  0  0  0  0  0  0
   48.3031   11.4452   21.9532 H   0  0  0  0  0  0  0  0  0  0  0  0
   48.0402   12.4553   19.6287 H   0  0  0  0  0  0  0  0  0  0  0  0
   47.0260   11.6414   18.4306 H   0  0  0  0  0  0  0  0  0  0  0  0
   46.2812   12.3558   19.8660 H   0  0  0  0  0  0  0  0  0  0  0  0
   49.0844    4.2996   18.4699 H   0  0  0  0  0  0  0  0  0  0  0  0
   47.3645    3.9290   18.5794 H   0  0  0  0  0  0  0  0  0  0  0  0
   47.8598    5.5681   18.1903 H   0  0  0  0  0  0  0  0  0  0  0  0
   49.6030    8.0847   20.4482 H   0  0  0  0  0  0  0  0  0  0  0  0
   49.0838    7.3519   18.9432 H   0  0  0  0  0  0  0  0  0  0  0  0
   50.6517    4.5596   20.9838 H   0  0  0  0  0  0  0  0  0  0  0  0
   51.1878    6.2426   21.0042 H   0  0  0  0  0  0  0  0  0  0  0  0
   50.8051    5.4645   19.4650 H   0  0  0  0  0  0  0  0  0  0  0  0
  2  1  2  3
  3  5  1  0
  4  2  1  0
  5  9  1  0
  6  1  1  0
  7  1  1  0
  8  3  1  0
  9  4  1  0
 10  5  1  0
 12 11  1  0
 13 11  1  0
 14 12  1  0
 15 13  1  0
 16 14  1  0
 17 15  2  0
 18 16  2  0
 13 19  1  0
 14 20  1  0
 11 21  1  0
 12 22  1  0
 23 16  1  0
 24 15  1  0
 26 25  2  3
 27 29  1  0
 28 26  1  0
 29 33  1  0
 30 25  1  0
 31 25  1  0
 32 27  1  0
 33 28  1  0
 34 29  1  0
  2 35  1  0
  3 36  1  0
  4 37  1  0
  4 38  1  0
  5 39  1  1
  6 40  1  0
  6 41  1  0
  6 42  1  0
  7 43  1  0
  7 44  1  0
  7 45  1  0
  8 46  1  0
  8 47  1  0
  8 48  1  0
  9 49  1  0
  9 50  1  0
 10 51  1  0
 10 52  1  0
 10 53  1  0
 11 54  1  6
 12 55  1  1
 13 56  1  1
 14 57  1  6
 19 58  1  0
 20 59  1  0
 21 60  1  0
 22 61  1  0
 23 62  1  0
 24 63  1  0
 26 64  1  0
 27 65  1  0
 28 66  1  0
 28 67  1  0
 29 68  1  1
 30 69  1  0
 30 70  1  0
 30 71  1  0
 31 72  1  0
 31 73  1  0
 31 74  1  0
 32 75  1  0
 32 76  1  0
 32 77  1  0
 33 78  1  0
 33 79  1  0
 34 80  1  0
 34 81  1  0
 34 82  1  0
M  END
> <Uni-Dock RESULT> 
ENERGY=   -5.245  LOWER_BOUND=    7.334  UPPER_BOUND=    9.483
INTER + INTRA:          -5.245
INTER:                  -5.245
INTRA:                   0.000
UNBOUND:                 0.000

$$$$
