
     RDKit          3D

 82 79  0  0  0  0  0  0  0  0999 V2000
   47.9896    8.1843   13.0298 C   0  0  0  0  0  0  0  0  0  0  0  0
   47.0504    7.5100   13.7216 C   0  0  0  0  0  0  0  0  0  0  0  0
   44.9225    4.4679   11.3533 N   0  0  0  0  0  0  0  0  0  0  0  0
   46.3188    6.2688   13.2822 C   0  0  0  0  0  0  0  0  0  0  0  0
   44.1571    5.3922   12.1969 C   0  0  1  0  0  0  0  0  0  0  0  0
   48.4492    7.8295   11.6441 C   0  0  0  0  0  0  0  0  0  0  0  0
   48.6508    9.4044   13.6134 C   0  0  0  0  0  0  0  0  0  0  0  0
   44.2780    3.1765   11.1632 C   0  0  0  0  0  0  0  0  0  0  0  0
   45.0237    6.6207   12.5412 C   0  0  0  0  0  0  0  0  0  0  0  0
   42.8721    5.8668   11.5103 C   0  0  0  0  0  0  0  0  0  0  0  0
   45.4359    5.7671   12.4537 C   0  0  1  0  0  0  0  0  0  0  0  0
   46.5512    6.8309   12.5286 C   0  0  2  0  0  0  0  0  0  0  0  0
   44.0955    6.3724   12.0058 C   0  0  2  0  0  0  0  0  0  0  0  0
   47.8601    6.2149   13.0627 C   0  0  1  0  0  0  0  0  0  0  0  0
   42.9397    5.4768   12.4533 C   0  0  0  0  0  0  0  0  0  0  0  0
   48.9867    7.1966   12.7775 C   0  0  0  0  0  0  0  0  0  0  0  0
   42.7389    5.0194   13.5648 O   0  0  0  0  0  0  0  0  0  0  0  0
   49.2112    8.2233   13.4030 O   0  0  0  0  0  0  0  0  0  0  0  0
   44.1328    6.5307   10.5736 O   0  0  0  0  0  0  0  0  0  0  0  0
   47.7437    5.9785   14.4698 O   0  0  0  0  0  0  0  0  0  0  0  0
   45.8301    4.7563   11.5056 O   0  0  0  0  0  0  0  0  0  0  0  0
   46.1330    7.8915   13.4109 O   0  0  0  0  0  0  0  0  0  0  0  0
   49.7299    6.8689   11.7051 O   0  0  0  0  0  0  0  0  0  0  0  0
   42.0520    5.2556   11.4492 O   0  0  0  0  0  0  0  0  0  0  0  0
   47.7490    8.1930   12.9846 C   0  0  0  0  0  0  0  0  0  0  0  0
   46.5159    8.4526   12.5060 C   0  0  0  0  0  0  0  0  0  0  0  0
   44.0787    4.5206   10.6152 N   0  0  0  0  0  0  0  0  0  0  0  0
   45.2901    7.5882   12.6451 C   0  0  0  0  0  0  0  0  0  0  0  0
   44.0011    5.6373   11.5764 C   0  0  2  0  0  0  0  0  0  0  0  0
   48.8921    9.1343   12.7159 C   0  0  0  0  0  0  0  0  0  0  0  0
   48.1146    6.9651   13.7767 C   0  0  0  0  0  0  0  0  0  0  0  0
   44.8523    3.3687   11.0636 C   0  0  0  0  0  0  0  0  0  0  0  0
   45.3577    6.3557   11.7316 C   0  0  0  0  0  0  0  0  0  0  0  0
   43.3834    5.2130   12.9123 C   0  0  0  0  0  0  0  0  0  0  0  0
   46.7714    7.8694   14.7110 H   0  0  0  0  0  0  0  0  0  0  0  0
   45.1277    4.8924   10.4523 H   0  0  0  0  0  0  0  0  0  0  0  0
   46.0877    5.6741   14.1755 H   0  0  0  0  0  0  0  0  0  0  0  0
   46.9679    5.6398   12.6620 H   0  0  0  0  0  0  0  0  0  0  0  0
   43.8940    4.8936   13.1388 H   0  0  0  0  0  0  0  0  0  0  0  0
   48.3259    8.6896   10.9780 H   0  0  0  0  0  0  0  0  0  0  0  0
   47.8928    6.9988   11.2029 H   0  0  0  0  0  0  0  0  0  0  0  0
   49.5075    7.5491   11.6552 H   0  0  0  0  0  0  0  0  0  0  0  0
   48.4171   10.2868   13.0067 H   0  0  0  0  0  0  0  0  0  0  0  0
   49.7384    9.2744   13.6332 H   0  0  0  0  0  0  0  0  0  0  0  0
   48.3236    9.6093   14.6378 H   0  0  0  0  0  0  0  0  0  0  0  0
   44.0605    2.6959   12.1244 H   0  0  0  0  0  0  0  0  0  0  0  0
   43.3585    3.2591   10.5792 H   0  0  0  0  0  0  0  0  0  0  0  0
   44.9573    2.5161   10.6137 H   0  0  0  0  0  0  0  0  0  0  0  0
   44.4313    7.3061   13.1636 H   0  0  0  0  0  0  0  0  0  0  0  0
   45.2668    7.1699   11.6212 H   0  0  0  0  0  0  0  0  0  0  0  0
   42.3611    6.6173   12.1210 H   0  0  0  0  0  0  0  0  0  0  0  0
   42.1700    5.0414   11.3559 H   0  0  0  0  0  0  0  0  0  0  0  0
   43.0841    6.3192   10.5352 H   0  0  0  0  0  0  0  0  0  0  0  0
   45.3278    5.2889   13.4335 H   0  0  0  0  0  0  0  0  0  0  0  0
   46.7150    7.2579   11.5314 H   0  0  0  0  0  0  0  0  0  0  0  0
   43.9027    7.3554   12.4475 H   0  0  0  0  0  0  0  0  0  0  0  0
   48.1021    5.2632   12.5820 H   0  0  0  0  0  0  0  0  0  0  0  0
   43.2007    6.4347   10.2854 H   0  0  0  0  0  0  0  0  0  0  0  0
   47.3154    6.7689   14.8463 H   0  0  0  0  0  0  0  0  0  0  0  0
   45.5384    5.0934   10.6301 H   0  0  0  0  0  0  0  0  0  0  0  0
   46.8117    8.5968   13.3790 H   0  0  0  0  0  0  0  0  0  0  0  0
   50.4346    7.5515   11.6671 H   0  0  0  0  0  0  0  0  0  0  0  0
   41.3762    4.6759   11.8632 H   0  0  0  0  0  0  0  0  0  0  0  0
   46.3642    9.3617   11.9257 H   0  0  0  0  0  0  0  0  0  0  0  0
   44.4673    4.8616    9.7372 H   0  0  0  0  0  0  0  0  0  0  0  0
   44.4116    8.1961   12.3946 H   0  0  0  0  0  0  0  0  0  0  0  0
   45.1675    7.2919   13.6916 H   0  0  0  0  0  0  0  0  0  0  0  0
   43.3050    6.3587   11.1262 H   0  0  0  0  0  0  0  0  0  0  0  0
   49.6661    8.6291   12.1299 H   0  0  0  0  0  0  0  0  0  0  0  0
   49.3360    9.4699   13.6607 H   0  0  0  0  0  0  0  0  0  0  0  0
   48.5742   10.0282   12.1631 H   0  0  0  0  0  0  0  0  0  0  0  0
   48.5927    6.2339   13.1115 H   0  0  0  0  0  0  0  0  0  0  0  0
   48.8193    7.2110   14.5815 H   0  0  0  0  0  0  0  0  0  0  0  0
   47.2481    6.4886   14.2431 H   0  0  0  0  0  0  0  0  0  0  0  0
   44.8543    2.6089   10.2712 H   0  0  0  0  0  0  0  0  0  0  0  0
   44.4108    2.8985   11.9485 H   0  0  0  0  0  0  0  0  0  0  0  0
   45.8970    3.6202   11.2676 H   0  0  0  0  0  0  0  0  0  0  0  0
   45.7211    6.6530   10.7363 H   0  0  0  0  0  0  0  0  0  0  0  0
   46.1031    5.6621   12.1414 H   0  0  0  0  0  0  0  0  0  0  0  0
   42.4823    4.6097   12.7535 H   0  0  0  0  0  0  0  0  0  0  0  0
   43.0782    6.0909   13.4930 H   0  0  0  0  0  0  0  0  0  0  0  0
   44.0828    4.6285   13.5237 H   0  0  0  0  0  0  0  0  0  0  0  0
  2  1  2  3
  3  5  1  0
  4  2  1  0
  5  9  1  0
  6  1  1  0
  7  1  1  0
  8  3  1  0
  9  4  1  0
 10  5  1  0
 12 11  1  0
 13 11  1  0
 14 12  1  0
 15 13  1  0
 16 14  1  0
 17 15  2  0
 18 16  2  0
 13 19  1  0
 14 20  1  0
 11 21  1  0
 12 22  1  0
 23 16  1  0
 24 15  1  0
 26 25  2  3
 27 29  1  0
 28 26  1  0
 29 33  1  0
 30 25  1  0
 31 25  1  0
 32 27  1  0
 33 28  1  0
 34 29  1  0
  2 35  1  0
  3 36  1  0
  4 37  1  0
  4 38  1  0
  5 39  1  6
  6 40  1  0
  6 41  1  0
  6 42  1  0
  7 43  1  0
  7 44  1  0
  7 45  1  0
  8 46  1  0
  8 47  1  0
  8 48  1  0
  9 49  1  0
  9 50  1  0
 10 51  1  0
 10 52  1  0
 10 53  1  0
 11 54  1  6
 12 55  1  1
 13 56  1  1
 14 57  1  6
 19 58  1  0
 20 59  1  0
 21 60  1  0
 22 61  1  0
 23 62  1  0
 24 63  1  0
 26 64  1  0
 27 65  1  0
 28 66  1  0
 28 67  1  0
 29 68  1  1
 30 69  1  0
 30 70  1  0
 30 71  1  0
 31 72  1  0
 31 73  1  0
 31 74  1  0
 32 75  1  0
 32 76  1  0
 32 77  1  0
 33 78  1  0
 33 79  1  0
 34 80  1  0
 34 81  1  0
 34 82  1  0
M  END
> <Uni-Dock RESULT> 
ENERGY=   -7.274  LOWER_BOUND=    0.000  UPPER_BOUND=    0.000
INTER + INTRA:          -7.274
INTER:                  -7.274
INTRA:                   0.000
UNBOUND:                 0.000

$$$$

     RDKit          3D

 82 79  0  0  0  0  0  0  0  0999 V2000
   44.2691    3.9535   12.0362 C   0  0  0  0  0  0  0  0  0  0  0  0
   44.5435    4.7108   13.1163 C   0  0  0  0  0  0  0  0  0  0  0  0
   47.1423    8.1630   12.2682 N   0  0  0  0  0  0  0  0  0  0  0  0
   45.1973    6.0677   13.1285 C   0  0  0  0  0  0  0  0  0  0  0  0
   47.4326    7.3069   13.4235 C   0  0  1  0  0  0  0  0  0  0  0  0
   44.6180    4.3235   10.6225 C   0  0  0  0  0  0  0  0  0  0  0  0
   43.5886    2.6186   12.1822 C   0  0  0  0  0  0  0  0  0  0  0  0
   47.5778    9.5419   12.4356 C   0  0  0  0  0  0  0  0  0  0  0  0
   46.7203    5.9491   13.2564 C   0  0  0  0  0  0  0  0  0  0  0  0
   48.9355    7.0623   13.5943 C   0  0  0  0  0  0  0  0  0  0  0  0
   46.3044    6.7393   12.9265 C   0  0  1  0  0  0  0  0  0  0  0  0
   45.5158    5.5254   12.3920 C   0  0  2  0  0  0  0  0  0  0  0  0
   47.7385    6.3589   13.3296 C   0  0  2  0  0  0  0  0  0  0  0  0
   44.0575    5.9156   12.0776 C   0  0  1  0  0  0  0  0  0  0  0  0
   48.2927    7.3804   14.3233 C   0  0  0  0  0  0  0  0  0  0  0  0
   43.4490    4.8032   11.2368 C   0  0  0  0  0  0  0  0  0  0  0  0
   47.7637    7.7930   15.3407 O   0  0  0  0  0  0  0  0  0  0  0  0
   43.0713    3.7187   11.6576 O   0  0  0  0  0  0  0  0  0  0  0  0
   48.5351    6.2847   12.1305 O   0  0  0  0  0  0  0  0  0  0  0  0
   43.3275    6.0797   13.2981 O   0  0  0  0  0  0  0  0  0  0  0  0
   46.3618    7.7400   11.8914 O   0  0  0  0  0  0  0  0  0  0  0  0
   45.5223    4.4830   13.3878 O   0  0  0  0  0  0  0  0  0  0  0  0
   43.3956    5.0870    9.9230 O   0  0  0  0  0  0  0  0  0  0  0  0
   49.5448    7.7864   13.9874 O   0  0  0  0  0  0  0  0  0  0  0  0
   44.4916    3.9818   12.1346 C   0  0  0  0  0  0  0  0  0  0  0  0
   45.8031    3.9296   12.4416 C   0  0  0  0  0  0  0  0  0  0  0  0
   48.2510    8.2757   12.1354 N   0  0  0  0  0  0  0  0  0  0  0  0
   46.5919    4.9491   13.2211 C   0  0  0  0  0  0  0  0  0  0  0  0
   47.9446    7.1248   13.0062 C   0  0  2  0  0  0  0  0  0  0  0  0
   43.8544    2.9060   11.2971 C   0  0  0  0  0  0  0  0  0  0  0  0
   43.5637    5.0947   12.5462 C   0  0  0  0  0  0  0  0  0  0  0  0
   47.1952    9.2767   12.0357 C   0  0  0  0  0  0  0  0  0  0  0  0
   46.8622    6.2129   12.3918 C   0  0  0  0  0  0  0  0  0  0  0  0
   47.6342    7.5501   14.4446 C   0  0  0  0  0  0  0  0  0  0  0  0
   44.2704    4.3349   14.1012 H   0  0  0  0  0  0  0  0  0  0  0  0
   47.5448    7.7695   11.4212 H   0  0  0  0  0  0  0  0  0  0  0  0
   44.7944    6.6335   13.9786 H   0  0  0  0  0  0  0  0  0  0  0  0
   44.9212    6.6349   12.2319 H   0  0  0  0  0  0  0  0  0  0  0  0
   47.0431    7.7794   14.3345 H   0  0  0  0  0  0  0  0  0  0  0  0
   45.2222    3.5319   10.1675 H   0  0  0  0  0  0  0  0  0  0  0  0
   45.1923    5.2501   10.5467 H   0  0  0  0  0  0  0  0  0  0  0  0
   43.7077    4.4496   10.0273 H   0  0  0  0  0  0  0  0  0  0  0  0
   44.2527    1.8170   11.8392 H   0  0  0  0  0  0  0  0  0  0  0  0
   42.6724    2.5914   11.5822 H   0  0  0  0  0  0  0  0  0  0  0  0
   43.3116    2.4000   13.2186 H   0  0  0  0  0  0  0  0  0  0  0  0
   47.1431    9.9890   13.3375 H   0  0  0  0  0  0  0  0  0  0  0  0
   48.6663    9.6266   12.4736 H   0  0  0  0  0  0  0  0  0  0  0  0
   47.2327   10.1316   11.5796 H   0  0  0  0  0  0  0  0  0  0  0  0
   46.9576    5.3181   14.1244 H   0  0  0  0  0  0  0  0  0  0  0  0
   47.1215    5.4282   12.3761 H   0  0  0  0  0  0  0  0  0  0  0  0
   49.1229    6.3560   14.4088 H   0  0  0  0  0  0  0  0  0  0  0  0
   49.4685    7.9869   13.8375 H   0  0  0  0  0  0  0  0  0  0  0  0
   49.3782    6.6448   12.6831 H   0  0  0  0  0  0  0  0  0  0  0  0
   45.7706    7.1673   13.7823 H   0  0  0  0  0  0  0  0  0  0  0  0
   46.0063    5.1413   11.4890 H   0  0  0  0  0  0  0  0  0  0  0  0
   47.7968    5.3881   13.8323 H   0  0  0  0  0  0  0  0  0  0  0  0
   43.9856    6.8509   11.5159 H   0  0  0  0  0  0  0  0  0  0  0  0
   49.4408    6.5294   12.4147 H   0  0  0  0  0  0  0  0  0  0  0  0
   43.5849    5.3367   13.8738 H   0  0  0  0  0  0  0  0  0  0  0  0
   47.1412    7.5018   11.3428 H   0  0  0  0  0  0  0  0  0  0  0  0
   45.0947    3.6918   13.0003 H   0  0  0  0  0  0  0  0  0  0  0  0
   42.9467    4.3149    9.5151 H   0  0  0  0  0  0  0  0  0  0  0  0
   49.7749    8.4297   14.6926 H   0  0  0  0  0  0  0  0  0  0  0  0
   46.3898    3.0884   12.0750 H   0  0  0  0  0  0  0  0  0  0  0  0
   48.4786    7.9373   11.2017 H   0  0  0  0  0  0  0  0  0  0  0  0
   47.5396    4.4885   13.5271 H   0  0  0  0  0  0  0  0  0  0  0  0
   46.0601    5.1954   14.1454 H   0  0  0  0  0  0  0  0  0  0  0  0
   48.8731    6.5383   13.0480 H   0  0  0  0  0  0  0  0  0  0  0  0
   43.4762    3.3310   10.3621 H   0  0  0  0  0  0  0  0  0  0  0  0
   43.0142    2.4537   11.8373 H   0  0  0  0  0  0  0  0  0  0  0  0
   44.5586    2.1018   11.0463 H   0  0  0  0  0  0  0  0  0  0  0  0
   43.4366    5.7898   11.7058 H   0  0  0  0  0  0  0  0  0  0  0  0
   42.5761    4.7025   12.8213 H   0  0  0  0  0  0  0  0  0  0  0  0
   43.9354    5.6600   13.4052 H   0  0  0  0  0  0  0  0  0  0  0  0
   47.5227   10.0754   11.3574 H   0  0  0  0  0  0  0  0  0  0  0  0
   46.9873    9.7499   13.0010 H   0  0  0  0  0  0  0  0  0  0  0  0
   46.2685    8.8674   11.6233 H   0  0  0  0  0  0  0  0  0  0  0  0
   47.1694    5.9285   11.3741 H   0  0  0  0  0  0  0  0  0  0  0  0
   45.9204    6.7674   12.2897 H   0  0  0  0  0  0  0  0  0  0  0  0
   48.3653    8.2838   14.8030 H   0  0  0  0  0  0  0  0  0  0  0  0
   47.6902    6.6905   15.1222 H   0  0  0  0  0  0  0  0  0  0  0  0
   46.6334    7.9909   14.5381 H   0  0  0  0  0  0  0  0  0  0  0  0
  2  1  2  3
  3  5  1  0
  4  2  1  0
  5  9  1  0
  6  1  1  0
  7  1  1  0
  8  3  1  0
  9  4  1  0
 10  5  1  0
 12 11  1  0
 13 11  1  0
 14 12  1  0
 15 13  1  0
 16 14  1  0
 17 15  2  0
 18 16  2  0
 13 19  1  0
 14 20  1  0
 11 21  1  0
 12 22  1  0
 23 16  1  0
 24 15  1  0
 26 25  2  3
 27 29  1  0
 28 26  1  0
 29 33  1  0
 30 25  1  0
 31 25  1  0
 32 27  1  0
 33 28  1  0
 34 29  1  0
  2 35  1  0
  3 36  1  0
  4 37  1  0
  4 38  1  0
  5 39  1  6
  6 40  1  0
  6 41  1  0
  6 42  1  0
  7 43  1  0
  7 44  1  0
  7 45  1  0
  8 46  1  0
  8 47  1  0
  8 48  1  0
  9 49  1  0
  9 50  1  0
 10 51  1  0
 10 52  1  0
 10 53  1  0
 11 54  1  6
 12 55  1  1
 13 56  1  1
 14 57  1  6
 19 58  1  0
 20 59  1  0
 21 60  1  0
 22 61  1  0
 23 62  1  0
 24 63  1  0
 26 64  1  0
 27 65  1  0
 28 66  1  0
 28 67  1  0
 29 68  1  1
 30 69  1  0
 30 70  1  0
 30 71  1  0
 31 72  1  0
 31 73  1  0
 31 74  1  0
 32 75  1  0
 32 76  1  0
 32 77  1  0
 33 78  1  0
 33 79  1  0
 34 80  1  0
 34 81  1  0
 34 82  1  0
M  END
> <Uni-Dock RESULT> 
ENERGY=   -6.341  LOWER_BOUND=    1.615  UPPER_BOUND=    5.275
INTER + INTRA:          -6.341
INTER:                  -6.341
INTRA:                   0.000
UNBOUND:                 0.000

$$$$

     RDKit          3D

 82 79  0  0  0  0  0  0  0  0999 V2000
   44.0895    5.4580   12.0021 C   0  0  0  0  0  0  0  0  0  0  0  0
   44.6451    6.4887   11.3355 C   0  0  0  0  0  0  0  0  0  0  0  0
   48.7417    7.4564   12.6287 N   0  0  0  0  0  0  0  0  0  0  0  0
   46.0889    6.9164   11.3698 C   0  0  0  0  0  0  0  0  0  0  0  0
   47.7625    8.5360   12.4631 C   0  0  1  0  0  0  0  0  0  0  0  0
   44.8265    4.5603   12.9550 C   0  0  0  0  0  0  0  0  0  0  0  0
   42.6261    5.1391   11.8494 C   0  0  0  0  0  0  0  0  0  0  0  0
   50.1182    7.8730   12.4030 C   0  0  0  0  0  0  0  0  0  0  0  0
   46.3358    7.9502   12.4745 C   0  0  0  0  0  0  0  0  0  0  0  0
   47.8763    9.5897   13.5697 C   0  0  0  0  0  0  0  0  0  0  0  0
   47.0461    7.4444   12.0926 C   0  0  1  0  0  0  0  0  0  0  0  0
   45.8137    6.5234   12.2111 C   0  0  2  0  0  0  0  0  0  0  0  0
   46.9650    8.6376   13.0589 C   0  0  2  0  0  0  0  0  0  0  0  0
   45.8792    5.3855   11.1725 C   0  0  1  0  0  0  0  0  0  0  0  0
   47.8592    9.7751   12.5641 C   0  0  0  0  0  0  0  0  0  0  0  0
   44.8531    4.3344   11.5686 C   0  0  0  0  0  0  0  0  0  0  0  0
   47.8992   10.2591   11.4464 O   0  0  0  0  0  0  0  0  0  0  0  0
   43.6446    4.4214   11.4015 O   0  0  0  0  0  0  0  0  0  0  0  0
   47.3508    8.1785   14.3696 O   0  0  0  0  0  0  0  0  0  0  0  0
   45.5907    5.9036    9.8695 O   0  0  0  0  0  0  0  0  0  0  0  0
   48.2245    6.6748   12.4014 O   0  0  0  0  0  0  0  0  0  0  0  0
   44.6206    7.3007   11.9865 O   0  0  0  0  0  0  0  0  0  0  0  0
   45.3857    3.2676   12.1914 O   0  0  0  0  0  0  0  0  0  0  0  0
   48.6308   10.2830   13.5601 O   0  0  0  0  0  0  0  0  0  0  0  0
   44.1518    5.6726   12.1025 C   0  0  0  0  0  0  0  0  0  0  0  0
   44.3697    6.7188   12.9240 C   0  0  0  0  0  0  0  0  0  0  0  0
   49.1571    8.0330   13.4973 N   0  0  0  0  0  0  0  0  0  0  0  0
   45.3668    7.8310   12.7288 C   0  0  0  0  0  0  0  0  0  0  0  0
   47.8087    8.5183   13.1464 C   0  0  2  0  0  0  0  0  0  0  0  0
   43.1522    4.6069   12.4631 C   0  0  0  0  0  0  0  0  0  0  0  0
   44.8800    5.4424   10.8041 C   0  0  0  0  0  0  0  0  0  0  0  0
   49.8556    7.3192   12.4347 C   0  0  0  0  0  0  0  0  0  0  0  0
   46.8039    7.3577   12.9915 C   0  0  0  0  0  0  0  0  0  0  0  0
   47.8269    9.4691   11.9457 C   0  0  0  0  0  0  0  0  0  0  0  0
   44.0125    7.0943   10.6882 H   0  0  0  0  0  0  0  0  0  0  0  0
   48.6516    7.0295   13.5473 H   0  0  0  0  0  0  0  0  0  0  0  0
   46.3409    7.3477   10.3922 H   0  0  0  0  0  0  0  0  0  0  0  0
   46.7442    6.0462   11.4923 H   0  0  0  0  0  0  0  0  0  0  0  0
   47.9168    9.0225   11.4913 H   0  0  0  0  0  0  0  0  0  0  0  0
   44.3288    4.5617   13.9301 H   0  0  0  0  0  0  0  0  0  0  0  0
   45.8627    4.8643   13.1225 H   0  0  0  0  0  0  0  0  0  0  0  0
   44.8410    3.5335   12.5752 H   0  0  0  0  0  0  0  0  0  0  0  0
   42.1105    5.2656   12.8082 H   0  0  0  0  0  0  0  0  0  0  0  0
   42.4954    4.1030   11.5186 H   0  0  0  0  0  0  0  0  0  0  0  0
   42.1302    5.7849   11.1177 H   0  0  0  0  0  0  0  0  0  0  0  0
   50.2390    8.3242   11.4110 H   0  0  0  0  0  0  0  0  0  0  0  0
   50.4658    8.5718   13.1674 H   0  0  0  0  0  0  0  0  0  0  0  0
   50.7686    6.9928   12.4432 H   0  0  0  0  0  0  0  0  0  0  0  0
   45.6164    8.7733   12.3605 H   0  0  0  0  0  0  0  0  0  0  0  0
   46.1322    7.4946   13.4534 H   0  0  0  0  0  0  0  0  0  0  0  0
   47.0845   10.3390   13.4740 H   0  0  0  0  0  0  0  0  0  0  0  0
   48.8325   10.1203   13.5232 H   0  0  0  0  0  0  0  0  0  0  0  0
   47.7873    9.1365   14.5633 H   0  0  0  0  0  0  0  0  0  0  0  0
   47.1336    7.7981   11.0594 H   0  0  0  0  0  0  0  0  0  0  0  0
   45.7667    6.1064   13.2247 H   0  0  0  0  0  0  0  0  0  0  0  0
   45.9571    9.0582   13.1334 H   0  0  0  0  0  0  0  0  0  0  0  0
   46.8627    4.9096   11.1335 H   0  0  0  0  0  0  0  0  0  0  0  0
   47.7511    8.9615   14.8028 H   0  0  0  0  0  0  0  0  0  0  0  0
   44.8326    6.5068    9.9757 H   0  0  0  0  0  0  0  0  0  0  0  0
   48.3133    6.7167   13.3789 H   0  0  0  0  0  0  0  0  0  0  0  0
   43.8475    6.7224   12.1509 H   0  0  0  0  0  0  0  0  0  0  0  0
   44.6295    2.6605   12.3453 H   0  0  0  0  0  0  0  0  0  0  0  0
   49.1470   10.9890   13.1140 H   0  0  0  0  0  0  0  0  0  0  0  0
   43.8020    6.7786   13.8516 H   0  0  0  0  0  0  0  0  0  0  0  0
   49.0931    7.4311   14.3169 H   0  0  0  0  0  0  0  0  0  0  0  0
   45.1074    8.6482   13.4136 H   0  0  0  0  0  0  0  0  0  0  0  0
   45.2688    8.2378   11.7175 H   0  0  0  0  0  0  0  0  0  0  0  0
   47.4815    9.1135   14.0105 H   0  0  0  0  0  0  0  0  0  0  0  0
   43.6556    3.6419   12.5783 H   0  0  0  0  0  0  0  0  0  0  0  0
   42.3980    4.5124   11.6728 H   0  0  0  0  0  0  0  0  0  0  0  0
   42.6247    4.8307   13.3997 H   0  0  0  0  0  0  0  0  0  0  0  0
   45.6819    4.7095   10.9636 H   0  0  0  0  0  0  0  0  0  0  0  0
   44.2013    5.0489   10.0364 H   0  0  0  0  0  0  0  0  0  0  0  0
   45.3258    6.3557   10.4011 H   0  0  0  0  0  0  0  0  0  0  0  0
   50.8361    6.9945   12.8066 H   0  0  0  0  0  0  0  0  0  0  0  0
   50.0451    7.9599   11.5671 H   0  0  0  0  0  0  0  0  0  0  0  0
   49.3218    6.4200   12.1140 H   0  0  0  0  0  0  0  0  0  0  0  0
   46.8287    6.7389   13.9011 H   0  0  0  0  0  0  0  0  0  0  0  0
   47.1102    6.7064   12.1628 H   0  0  0  0  0  0  0  0  0  0  0  0
   48.6287   10.2097   12.0441 H   0  0  0  0  0  0  0  0  0  0  0  0
   46.8862   10.0278   11.8810 H   0  0  0  0  0  0  0  0  0  0  0  0
   47.9696    8.9346   10.9978 H   0  0  0  0  0  0  0  0  0  0  0  0
  2  1  2  3
  3  5  1  0
  4  2  1  0
  5  9  1  0
  6  1  1  0
  7  1  1  0
  8  3  1  0
  9  4  1  0
 10  5  1  0
 12 11  1  0
 13 11  1  0
 14 12  1  0
 15 13  1  0
 16 14  1  0
 17 15  2  0
 18 16  2  0
 13 19  1  0
 14 20  1  0
 11 21  1  0
 12 22  1  0
 23 16  1  0
 24 15  1  0
 26 25  2  3
 27 29  1  0
 28 26  1  0
 29 33  1  0
 30 25  1  0
 31 25  1  0
 32 27  1  0
 33 28  1  0
 34 29  1  0
  2 35  1  0
  3 36  1  0
  4 37  1  0
  4 38  1  0
  5 39  1  6
  6 40  1  0
  6 41  1  0
  6 42  1  0
  7 43  1  0
  7 44  1  0
  7 45  1  0
  8 46  1  0
  8 47  1  0
  8 48  1  0
  9 49  1  0
  9 50  1  0
 10 51  1  0
 10 52  1  0
 10 53  1  0
 11 54  1  6
 12 55  1  1
 13 56  1  1
 14 57  1  6
 19 58  1  0
 20 59  1  0
 21 60  1  0
 22 61  1  0
 23 62  1  0
 24 63  1  0
 26 64  1  0
 27 65  1  0
 28 66  1  0
 28 67  1  0
 29 68  1  1
 30 69  1  0
 30 70  1  0
 30 71  1  0
 31 72  1  0
 31 73  1  0
 31 74  1  0
 32 75  1  0
 32 76  1  0
 32 77  1  0
 33 78  1  0
 33 79  1  0
 34 80  1  0
 34 81  1  0
 34 82  1  0
M  END
> <Uni-Dock RESULT> 
ENERGY=   -5.795  LOWER_BOUND=    1.810  UPPER_BOUND=    5.191
INTER + INTRA:          -5.795
INTER:                  -5.795
INTRA:                   0.000
UNBOUND:                 0.000

$$$$

     RDKit          3D

 82 79  0  0  0  0  0  0  0  0999 V2000
   44.3968    4.9174   11.6113 C   0  0  0  0  0  0  0  0  0  0  0  0
   45.7214    4.8204   11.8375 C   0  0  0  0  0  0  0  0  0  0  0  0
   47.4256    8.2609   13.9938 N   0  0  0  0  0  0  0  0  0  0  0  0
   46.5533    5.6976   12.7360 C   0  0  0  0  0  0  0  0  0  0  0  0
   48.1049    7.7489   12.7987 C   0  0  1  0  0  0  0  0  0  0  0  0
   43.5050    5.9744   12.1986 C   0  0  0  0  0  0  0  0  0  0  0  0
   43.6969    3.9478   10.6968 C   0  0  0  0  0  0  0  0  0  0  0  0
   48.3220    8.8851   14.9561 C   0  0  0  0  0  0  0  0  0  0  0  0
   47.1242    6.8957   11.9687 C   0  0  0  0  0  0  0  0  0  0  0  0
   48.6488    8.8790   11.9184 C   0  0  0  0  0  0  0  0  0  0  0  0
   47.0584    6.8931   12.9184 C   0  0  1  0  0  0  0  0  0  0  0  0
   45.8103    6.1850   12.3510 C   0  0  2  0  0  0  0  0  0  0  0  0
   47.7117    7.8215   11.8815 C   0  0  2  0  0  0  0  0  0  0  0  0
   45.2266    5.1963   13.3805 C   0  0  1  0  0  0  0  0  0  0  0  0
   49.1765    8.0664   12.2457 C   0  0  0  0  0  0  0  0  0  0  0  0
   43.8303    4.8108   12.9156 C   0  0  0  0  0  0  0  0  0  0  0  0
   50.0239    7.2359   12.5238 O   0  0  0  0  0  0  0  0  0  0  0  0
   43.5720    4.0275   12.0126 O   0  0  0  0  0  0  0  0  0  0  0  0
   46.9538    9.0468   11.8383 O   0  0  0  0  0  0  0  0  0  0  0  0
   46.0647    4.0390   13.4677 O   0  0  0  0  0  0  0  0  0  0  0  0
   46.6608    7.6771   14.0600 O   0  0  0  0  0  0  0  0  0  0  0  0
   46.1785    5.4635   11.1584 O   0  0  0  0  0  0  0  0  0  0  0  0
   42.8467    5.4591   13.5652 O   0  0  0  0  0  0  0  0  0  0  0  0
   49.5021    9.3834   12.1780 O   0  0  0  0  0  0  0  0  0  0  0  0
   44.5665    5.0657   11.5154 C   0  0  0  0  0  0  0  0  0  0  0  0
   45.2435    6.0159   10.8404 C   0  0  0  0  0  0  0  0  0  0  0  0
   47.7416    9.2889   13.6729 N   0  0  0  0  0  0  0  0  0  0  0  0
   46.6092    6.5606   11.1686 C   0  0  0  0  0  0  0  0  0  0  0  0
   47.8518    8.3358   12.5520 C   0  0  2  0  0  0  0  0  0  0  0  0
   43.1793    4.6632   11.0931 C   0  0  0  0  0  0  0  0  0  0  0  0
   45.0852    4.3563   12.7388 C   0  0  0  0  0  0  0  0  0  0  0  0
   47.7428    8.6872   15.0012 C   0  0  0  0  0  0  0  0  0  0  0  0
   46.5711    7.4908   12.3898 C   0  0  0  0  0  0  0  0  0  0  0  0
   49.1287    7.4933   12.6283 C   0  0  0  0  0  0  0  0  0  0  0  0
   46.2803    4.0299   11.3388 H   0  0  0  0  0  0  0  0  0  0  0  0
   46.6851    8.9080   13.7349 H   0  0  0  0  0  0  0  0  0  0  0  0
   47.3725    5.0906   13.1431 H   0  0  0  0  0  0  0  0  0  0  0  0
   45.9660    6.0283   13.6006 H   0  0  0  0  0  0  0  0  0  0  0  0
   48.9380    7.1016   13.1019 H   0  0  0  0  0  0  0  0  0  0  0  0
   42.9825    6.5089   11.3986 H   0  0  0  0  0  0  0  0  0  0  0  0
   44.0467    6.7215   12.7839 H   0  0  0  0  0  0  0  0  0  0  0  0
   42.7575    5.5183   12.8559 H   0  0  0  0  0  0  0  0  0  0  0  0
   43.2832    4.4773    9.8309 H   0  0  0  0  0  0  0  0  0  0  0  0
   42.8756    3.4517   11.2256 H   0  0  0  0  0  0  0  0  0  0  0  0
   44.3667    3.1679   10.3205 H   0  0  0  0  0  0  0  0  0  0  0  0
   49.1209    8.1977   15.2586 H   0  0  0  0  0  0  0  0  0  0  0  0
   48.7605    9.8079   14.5695 H   0  0  0  0  0  0  0  0  0  0  0  0
   47.7548    9.1437   15.8567 H   0  0  0  0  0  0  0  0  0  0  0  0
   47.6465    6.5302   11.0734 H   0  0  0  0  0  0  0  0  0  0  0  0
   46.2992    7.5265   11.6099 H   0  0  0  0  0  0  0  0  0  0  0  0
   49.0764    8.4784   10.9943 H   0  0  0  0  0  0  0  0  0  0  0  0
   49.4405    9.4390   12.4262 H   0  0  0  0  0  0  0  0  0  0  0  0
   47.8580    9.5847   11.6408 H   0  0  0  0  0  0  0  0  0  0  0  0
   47.7769    6.1392   13.2587 H   0  0  0  0  0  0  0  0  0  0  0  0
   45.0573    6.9353   12.0801 H   0  0  0  0  0  0  0  0  0  0  0  0
   47.7197    7.3957   10.8730 H   0  0  0  0  0  0  0  0  0  0  0  0
   45.1493    5.6301   14.3811 H   0  0  0  0  0  0  0  0  0  0  0  0
   47.6054    9.7372   11.5935 H   0  0  0  0  0  0  0  0  0  0  0  0
   46.3016    3.8022   12.5525 H   0  0  0  0  0  0  0  0  0  0  0  0
   46.3646    8.5389   13.6929 H   0  0  0  0  0  0  0  0  0  0  0  0
   45.3618    5.0936   10.7644 H   0  0  0  0  0  0  0  0  0  0  0  0
   42.0144    5.0856   13.2024 H   0  0  0  0  0  0  0  0  0  0  0  0
   50.4501    9.3994   12.4332 H   0  0  0  0  0  0  0  0  0  0  0  0
   44.7664    6.4815    9.9791 H   0  0  0  0  0  0  0  0  0  0  0  0
   46.8941    9.8428   13.5588 H   0  0  0  0  0  0  0  0  0  0  0  0
   46.9813    7.1043   10.2912 H   0  0  0  0  0  0  0  0  0  0  0  0
   47.3050    5.7315   11.3312 H   0  0  0  0  0  0  0  0  0  0  0  0
   47.9424    8.9584   11.6508 H   0  0  0  0  0  0  0  0  0  0  0  0
   42.4625    4.8912   11.8881 H   0  0  0  0  0  0  0  0  0  0  0  0
   43.1426    3.5859   10.8916 H   0  0  0  0  0  0  0  0  0  0  0  0
   42.8546    5.1821   10.1815 H   0  0  0  0  0  0  0  0  0  0  0  0
   44.6516    4.8175   13.6360 H   0  0  0  0  0  0  0  0  0  0  0  0
   44.8050    3.2951   12.7272 H   0  0  0  0  0  0  0  0  0  0  0  0
   46.1744    4.3999   12.8236 H   0  0  0  0  0  0  0  0  0  0  0  0
   47.6440    9.4808   15.7533 H   0  0  0  0  0  0  0  0  0  0  0  0
   48.6829    8.1677   15.2144 H   0  0  0  0  0  0  0  0  0  0  0  0
   46.9049    8.0001   15.1499 H   0  0  0  0  0  0  0  0  0  0  0  0
   45.7047    8.1650   12.3138 H   0  0  0  0  0  0  0  0  0  0  0  0
   46.4117    6.8779   13.2863 H   0  0  0  0  0  0  0  0  0  0  0  0
   49.9987    8.1196   12.8561 H   0  0  0  0  0  0  0  0  0  0  0  0
   49.3303    7.0093   11.6658 H   0  0  0  0  0  0  0  0  0  0  0  0
   49.0614    6.7099   13.3941 H   0  0  0  0  0  0  0  0  0  0  0  0
  2  1  2  3
  3  5  1  0
  4  2  1  0
  5  9  1  0
  6  1  1  0
  7  1  1  0
  8  3  1  0
  9  4  1  0
 10  5  1  0
 12 11  1  0
 13 11  1  0
 14 12  1  0
 15 13  1  0
 16 14  1  0
 17 15  2  0
 18 16  2  0
 13 19  1  0
 14 20  1  0
 11 21  1  0
 12 22  1  0
 23 16  1  0
 24 15  1  0
 26 25  2  3
 27 29  1  0
 28 26  1  0
 29 33  1  0
 30 25  1  0
 31 25  1  0
 32 27  1  0
 33 28  1  0
 34 29  1  0
  2 35  1  0
  3 36  1  0
  4 37  1  0
  4 38  1  0
  5 39  1  6
  6 40  1  0
  6 41  1  0
  6 42  1  0
  7 43  1  0
  7 44  1  0
  7 45  1  0
  8 46  1  0
  8 47  1  0
  8 48  1  0
  9 49  1  0
  9 50  1  0
 10 51  1  0
 10 52  1  0
 10 53  1  0
 11 54  1  6
 12 55  1  1
 13 56  1  1
 14 57  1  6
 19 58  1  0
 20 59  1  0
 21 60  1  0
 22 61  1  0
 23 62  1  0
 24 63  1  0
 26 64  1  0
 27 65  1  0
 28 66  1  0
 28 67  1  0
 29 68  1  1
 30 69  1  0
 30 70  1  0
 30 71  1  0
 31 72  1  0
 31 73  1  0
 31 74  1  0
 32 75  1  0
 32 76  1  0
 32 77  1  0
 33 78  1  0
 33 79  1  0
 34 80  1  0
 34 81  1  0
 34 82  1  0
M  END
> <Uni-Dock RESULT> 
ENERGY=   -5.622  LOWER_BOUND=    1.768  UPPER_BOUND=    5.298
INTER + INTRA:          -5.622
INTER:                  -5.622
INTRA:                   0.000
UNBOUND:                 0.000

$$$$

     RDKit          3D

 82 79  0  0  0  0  0  0  0  0999 V2000
   47.9649    4.4437   17.3456 C   0  0  0  0  0  0  0  0  0  0  0  0
   48.3034    5.6307   17.8859 C   0  0  0  0  0  0  0  0  0  0  0  0
   49.4776    5.3984   22.1236 N   0  0  0  0  0  0  0  0  0  0  0  0
   48.9637    5.8632   19.2196 C   0  0  0  0  0  0  0  0  0  0  0  0
   48.5355    6.4362   21.6909 C   0  0  1  0  0  0  0  0  0  0  0  0
   48.1531    3.1138   18.0189 C   0  0  0  0  0  0  0  0  0  0  0  0
   47.3257    4.3694   15.9846 C   0  0  0  0  0  0  0  0  0  0  0  0
   50.2772    5.7769   23.2796 C   0  0  0  0  0  0  0  0  0  0  0  0
   47.9229    6.0475   20.3298 C   0  0  0  0  0  0  0  0  0  0  0  0
   47.4049    6.6444   22.7039 C   0  0  0  0  0  0  0  0  0  0  0  0
   48.8248    5.8108   20.5217 C   0  0  1  0  0  0  0  0  0  0  0  0
   48.4013    5.0749   19.2331 C   0  0  2  0  0  0  0  0  0  0  0  0
   47.6114    6.2264   21.3696 C   0  0  2  0  0  0  0  0  0  0  0  0
   49.6301    4.7471   18.3611 C   0  0  1  0  0  0  0  0  0  0  0  0
   47.9918    7.3783   22.3005 C   0  0  0  0  0  0  0  0  0  0  0  0
   49.1997    3.7312   17.3137 C   0  0  0  0  0  0  0  0  0  0  0  0
   48.5597    8.4162   22.0080 O   0  0  0  0  0  0  0  0  0  0  0  0
   48.5485    3.9782   16.3083 O   0  0  0  0  0  0  0  0  0  0  0  0
   47.1586    5.0690   22.0996 O   0  0  0  0  0  0  0  0  0  0  0  0
   50.1107    5.9415   17.7352 O   0  0  0  0  0  0  0  0  0  0  0  0
   49.6566    4.9288   21.3004 O   0  0  0  0  0  0  0  0  0  0  0  0
   47.5005    5.9153   18.4844 O   0  0  0  0  0  0  0  0  0  0  0  0
   49.5601    2.4685   17.6060 O   0  0  0  0  0  0  0  0  0  0  0  0
   47.5660    7.1636   23.5724 O   0  0  0  0  0  0  0  0  0  0  0  0
   47.8423    4.5558   17.5255 C   0  0  0  0  0  0  0  0  0  0  0  0
   46.9694    4.9161   18.4874 C   0  0  0  0  0  0  0  0  0  0  0  0
   48.8941    5.3368   23.0802 N   0  0  0  0  0  0  0  0  0  0  0  0
   47.2208    5.8673   19.6282 C   0  0  0  0  0  0  0  0  0  0  0  0
   48.1109    6.0232   22.0351 C   0  0  2  0  0  0  0  0  0  0  0  0
   47.4580    3.5468   16.4771 C   0  0  0  0  0  0  0  0  0  0  0  0
   49.2531    5.0724   17.4181 C   0  0  0  0  0  0  0  0  0  0  0  0
   50.3368    5.3258   22.8678 C   0  0  0  0  0  0  0  0  0  0  0  0
   48.1115    5.2359   20.7081 C   0  0  0  0  0  0  0  0  0  0  0  0
   48.5205    7.4898   21.8702 C   0  0  0  0  0  0  0  0  0  0  0  0
   48.0981    6.5392   17.3217 H   0  0  0  0  0  0  0  0  0  0  0  0
   48.9890    4.5256   22.3069 H   0  0  0  0  0  0  0  0  0  0  0  0
   49.5875    6.7631   19.1398 H   0  0  0  0  0  0  0  0  0  0  0  0
   49.6500    5.0418   19.4565 H   0  0  0  0  0  0  0  0  0  0  0  0
   49.0729    7.3840   21.5577 H   0  0  0  0  0  0  0  0  0  0  0  0
   47.1968    2.5833   18.0715 H   0  0  0  0  0  0  0  0  0  0  0  0
   48.5320    3.1957   19.0406 H   0  0  0  0  0  0  0  0  0  0  0  0
   48.8598    2.4983   17.4529 H   0  0  0  0  0  0  0  0  0  0  0  0
   46.3158    3.9510   16.0644 H   0  0  0  0  0  0  0  0  0  0  0  0
   47.9163    3.7275   15.3218 H   0  0  0  0  0  0  0  0  0  0  0  0
   47.2420    5.3505   15.5063 H   0  0  0  0  0  0  0  0  0  0  0  0
   50.8233    6.7100   23.0966 H   0  0  0  0  0  0  0  0  0  0  0  0
   49.6704    5.8794   24.1823 H   0  0  0  0  0  0  0  0  0  0  0  0
   51.0203    4.9954   23.4710 H   0  0  0  0  0  0  0  0  0  0  0  0
   47.2128    6.8299   20.0272 H   0  0  0  0  0  0  0  0  0  0  0  0
   47.3378    5.1240   20.4392 H   0  0  0  0  0  0  0  0  0  0  0  0
   46.6707    7.3609   22.3231 H   0  0  0  0  0  0  0  0  0  0  0  0
   47.7822    7.0395   23.6524 H   0  0  0  0  0  0  0  0  0  0  0  0
   46.8778    5.7067   22.9122 H   0  0  0  0  0  0  0  0  0  0  0  0
   49.4206    6.6907   20.2548 H   0  0  0  0  0  0  0  0  0  0  0  0
   47.8703    4.1523   19.4983 H   0  0  0  0  0  0  0  0  0  0  0  0
   46.7744    6.5915   20.7659 H   0  0  0  0  0  0  0  0  0  0  0  0
   50.4524    4.3181   18.9400 H   0  0  0  0  0  0  0  0  0  0  0  0
   46.7702    5.4282   22.9249 H   0  0  0  0  0  0  0  0  0  0  0  0
   49.3237    6.4202   17.4168 H   0  0  0  0  0  0  0  0  0  0  0  0
   49.0338    4.3912   21.8372 H   0  0  0  0  0  0  0  0  0  0  0  0
   47.1745    5.4011   17.7172 H   0  0  0  0  0  0  0  0  0  0  0  0
   49.2636    1.9358   16.8363 H   0  0  0  0  0  0  0  0  0  0  0  0
   47.8724    7.9617   24.0554 H   0  0  0  0  0  0  0  0  0  0  0  0
   45.9780    4.4651   18.4853 H   0  0  0  0  0  0  0  0  0  0  0  0
   48.5632    4.3773   23.1701 H   0  0  0  0  0  0  0  0  0  0  0  0
   46.2518    6.1521   20.0571 H   0  0  0  0  0  0  0  0  0  0  0  0
   47.6674    6.7898   19.2445 H   0  0  0  0  0  0  0  0  0  0  0  0
   47.0761    6.0282   22.4054 H   0  0  0  0  0  0  0  0  0  0  0  0
   48.0987    2.6627   16.5526 H   0  0  0  0  0  0  0  0  0  0  0  0
   47.5775    3.9773   15.4758 H   0  0  0  0  0  0  0  0  0  0  0  0
   46.4140    3.2213   16.5755 H   0  0  0  0  0  0  0  0  0  0  0  0
   49.9434    4.3316   17.8427 H   0  0  0  0  0  0  0  0  0  0  0  0
   49.5317    5.2419   16.3700 H   0  0  0  0  0  0  0  0  0  0  0  0
   49.3989    6.0187   17.9461 H   0  0  0  0  0  0  0  0  0  0  0  0
   50.8155    4.7820   23.6926 H   0  0  0  0  0  0  0  0  0  0  0  0
   50.7586    6.3363   22.8710 H   0  0  0  0  0  0  0  0  0  0  0  0
   50.6193    4.8159   21.9424 H   0  0  0  0  0  0  0  0  0  0  0  0
   47.7806    4.2047   20.9036 H   0  0  0  0  0  0  0  0  0  0  0  0
   49.1341    5.1661   20.3155 H   0  0  0  0  0  0  0  0  0  0  0  0
   48.6170    7.9819   22.8447 H   0  0  0  0  0  0  0  0  0  0  0  0
   47.7581    8.0433   21.3103 H   0  0  0  0  0  0  0  0  0  0  0  0
   49.4747    7.5949   21.3382 H   0  0  0  0  0  0  0  0  0  0  0  0
  2  1  2  3
  3  5  1  0
  4  2  1  0
  5  9  1  0
  6  1  1  0
  7  1  1  0
  8  3  1  0
  9  4  1  0
 10  5  1  0
 12 11  1  0
 13 11  1  0
 14 12  1  0
 15 13  1  0
 16 14  1  0
 17 15  2  0
 18 16  2  0
 13 19  1  0
 14 20  1  0
 11 21  1  0
 12 22  1  0
 23 16  1  0
 24 15  1  0
 26 25  2  3
 27 29  1  0
 28 26  1  0
 29 33  1  0
 30 25  1  0
 31 25  1  0
 32 27  1  0
 33 28  1  0
 34 29  1  0
  2 35  1  0
  3 36  1  0
  4 37  1  0
  4 38  1  0
  5 39  1  6
  6 40  1  0
  6 41  1  0
  6 42  1  0
  7 43  1  0
  7 44  1  0
  7 45  1  0
  8 46  1  0
  8 47  1  0
  8 48  1  0
  9 49  1  0
  9 50  1  0
 10 51  1  0
 10 52  1  0
 10 53  1  0
 11 54  1  6
 12 55  1  1
 13 56  1  1
 14 57  1  6
 19 58  1  0
 20 59  1  0
 21 60  1  0
 22 61  1  0
 23 62  1  0
 24 63  1  0
 26 64  1  0
 27 65  1  0
 28 66  1  0
 28 67  1  0
 29 68  1  1
 30 69  1  0
 30 70  1  0
 30 71  1  0
 31 72  1  0
 31 73  1  0
 31 74  1  0
 32 75  1  0
 32 76  1  0
 32 77  1  0
 33 78  1  0
 33 79  1  0
 34 80  1  0
 34 81  1  0
 34 82  1  0
M  END
> <Uni-Dock RESULT> 
ENERGY=   -5.474  LOWER_BOUND=    7.020  UPPER_BOUND=    9.126
INTER + INTRA:          -5.474
INTER:                  -5.474
INTRA:                   0.000
UNBOUND:                 0.000

$$$$

     RDKit          3D

 82 79  0  0  0  0  0  0  0  0999 V2000
   47.6593   11.6432   19.5466 C   0  0  0  0  0  0  0  0  0  0  0  0
   46.8679   10.6020   19.2227 C   0  0  0  0  0  0  0  0  0  0  0  0
   47.9238    6.8476   21.2673 N   0  0  0  0  0  0  0  0  0  0  0  0
   46.8118    9.2605   19.9053 C   0  0  0  0  0  0  0  0  0  0  0  0
   47.6711    6.8368   19.8223 C   0  0  1  0  0  0  0  0  0  0  0  0
   48.6818   11.6291   20.6473 C   0  0  0  0  0  0  0  0  0  0  0  0
   47.5866   12.9361   18.7788 C   0  0  0  0  0  0  0  0  0  0  0  0
   47.6126    5.5876   21.9267 C   0  0  0  0  0  0  0  0  0  0  0  0
   47.7893    8.2694   19.2632 C   0  0  0  0  0  0  0  0  0  0  0  0
   48.6522    5.9284   19.0741 C   0  0  0  0  0  0  0  0  0  0  0  0
   47.4436    8.1365   20.1402 C   0  0  1  0  0  0  0  0  0  0  0  0
   47.6989    9.6465   19.9509 C   0  0  2  0  0  0  0  0  0  0  0  0
   48.2760    7.2878   19.1651 C   0  0  2  0  0  0  0  0  0  0  0  0
   46.7890   10.4760   20.8794 C   0  0  1  0  0  0  0  0  0  0  0  0
   47.6334    5.9117   18.9871 C   0  0  0  0  0  0  0  0  0  0  0  0
   47.3281   11.8983   20.9099 C   0  0  0  0  0  0  0  0  0  0  0  0
   46.4689    5.6608   18.7299 O   0  0  0  0  0  0  0  0  0  0  0  0
   47.1891   12.7310   20.0250 O   0  0  0  0  0  0  0  0  0  0  0  0
   49.6167    7.1945   19.6860 O   0  0  0  0  0  0  0  0  0  0  0  0
   45.4466   10.4578   20.3824 O   0  0  0  0  0  0  0  0  0  0  0  0
   47.7988    7.7776   21.4897 O   0  0  0  0  0  0  0  0  0  0  0  0
   47.4270   10.0028   18.5807 O   0  0  0  0  0  0  0  0  0  0  0  0
   48.0472   12.1796   22.0114 O   0  0  0  0  0  0  0  0  0  0  0  0
   48.5444    4.9096   19.0928 O   0  0  0  0  0  0  0  0  0  0  0  0
   47.7338   11.4420   19.4284 C   0  0  0  0  0  0  0  0  0  0  0  0
   48.4294   10.4908   18.7740 C   0  0  0  0  0  0  0  0  0  0  0  0
   48.7114    6.0690   21.0855 N   0  0  0  0  0  0  0  0  0  0  0  0
   48.0842    9.0283   18.6676 C   0  0  0  0  0  0  0  0  0  0  0  0
   48.3505    6.7492   19.8270 C   0  0  2  0  0  0  0  0  0  0  0  0
   48.2385   12.8585   19.4899 C   0  0  0  0  0  0  0  0  0  0  0  0
   46.4470   11.1970   20.1720 C   0  0  0  0  0  0  0  0  0  0  0  0
   47.7123    6.1527   22.1445 C   0  0  0  0  0  0  0  0  0  0  0  0
   48.3534    8.2842   19.9836 C   0  0  0  0  0  0  0  0  0  0  0  0
   47.0533    6.2038   19.2222 C   0  0  0  0  0  0  0  0  0  0  0  0
   46.1778   10.7101   18.3873 H   0  0  0  0  0  0  0  0  0  0  0  0
   48.8857    7.1151   21.4603 H   0  0  0  0  0  0  0  0  0  0  0  0
   45.7859    8.8783   19.8241 H   0  0  0  0  0  0  0  0  0  0  0  0
   47.0087    9.3673   20.9785 H   0  0  0  0  0  0  0  0  0  0  0  0
   46.6478    6.4872   19.6336 H   0  0  0  0  0  0  0  0  0  0  0  0
   49.6655   11.8945   20.2467 H   0  0  0  0  0  0  0  0  0  0  0  0
   48.7838   10.6545   21.1309 H   0  0  0  0  0  0  0  0  0  0  0  0
   48.4159   12.3559   21.4219 H   0  0  0  0  0  0  0  0  0  0  0  0
   48.5410   13.1308   18.2764 H   0  0  0  0  0  0  0  0  0  0  0  0
   47.3748   13.7697   19.4573 H   0  0  0  0  0  0  0  0  0  0  0  0
   46.8040   12.9259   18.0132 H   0  0  0  0  0  0  0  0  0  0  0  0
   46.5741    5.2883   21.7416 H   0  0  0  0  0  0  0  0  0  0  0  0
   48.2854    4.7850   21.6161 H   0  0  0  0  0  0  0  0  0  0  0  0
   47.7289    5.7127   23.0085 H   0  0  0  0  0  0  0  0  0  0  0  0
   47.6079    8.2403   18.1796 H   0  0  0  0  0  0  0  0  0  0  0  0
   48.8177    8.6329   19.3952 H   0  0  0  0  0  0  0  0  0  0  0  0
   48.4993    6.0004   17.9930 H   0  0  0  0  0  0  0  0  0  0  0  0
   48.5194    4.8779   19.3514 H   0  0  0  0  0  0  0  0  0  0  0  0
   49.6915    6.2058   19.2825 H   0  0  0  0  0  0  0  0  0  0  0  0
   46.3757    7.9319   20.0051 H   0  0  0  0  0  0  0  0  0  0  0  0
   48.7528    9.8670   20.1608 H   0  0  0  0  0  0  0  0  0  0  0  0
   48.3345    7.7242   18.1629 H   0  0  0  0  0  0  0  0  0  0  0  0
   46.7725   10.0915   21.9028 H   0  0  0  0  0  0  0  0  0  0  0  0
   49.9497    6.3283   19.3701 H   0  0  0  0  0  0  0  0  0  0  0  0
   45.5093   10.5855   19.4182 H   0  0  0  0  0  0  0  0  0  0  0  0
   48.7627    7.5900   21.4634 H   0  0  0  0  0  0  0  0  0  0  0  0
   47.6766   10.9417   18.4571 H   0  0  0  0  0  0  0  0  0  0  0  0
   48.2891   13.1269   21.9209 H   0  0  0  0  0  0  0  0  0  0  0  0
   48.0085    4.0970   18.9636 H   0  0  0  0  0  0  0  0  0  0  0  0
   49.3617   10.7716   18.2857 H   0  0  0  0  0  0  0  0  0  0  0  0
   49.5932    6.4466   21.4288 H   0  0  0  0  0  0  0  0  0  0  0  0
   48.6833    8.5926   17.8581 H   0  0  0  0  0  0  0  0  0  0  0  0
   47.0380    8.9199   18.3650 H   0  0  0  0  0  0  0  0  0  0  0  0
   49.1540    6.4967   19.1210 H   0  0  0  0  0  0  0  0  0  0  0  0
   48.4430   13.1407   20.5274 H   0  0  0  0  0  0  0  0  0  0  0  0
   47.4863   13.5461   19.0852 H   0  0  0  0  0  0  0  0  0  0  0  0
   49.1605   12.9975   18.9102 H   0  0  0  0  0  0  0  0  0  0  0  0
   46.6611   11.1003   21.2446 H   0  0  0  0  0  0  0  0  0  0  0  0
   45.7475   12.0316   20.0342 H   0  0  0  0  0  0  0  0  0  0  0  0
   45.9334   10.2899   19.8420 H   0  0  0  0  0  0  0  0  0  0  0  0
   48.0877    5.6274   23.0325 H   0  0  0  0  0  0  0  0  0  0  0  0
   46.7748    5.6623   21.8624 H   0  0  0  0  0  0  0  0  0  0  0  0
   47.5079    7.1840   22.4460 H   0  0  0  0  0  0  0  0  0  0  0  0
   49.3239    8.6002   20.3949 H   0  0  0  0  0  0  0  0  0  0  0  0
   47.5918    8.5867   20.7138 H   0  0  0  0  0  0  0  0  0  0  0  0
   47.0462    5.1079   19.2329 H   0  0  0  0  0  0  0  0  0  0  0  0
   46.9565    6.5108   18.1746 H   0  0  0  0  0  0  0  0  0  0  0  0
   46.1654    6.5568   19.7623 H   0  0  0  0  0  0  0  0  0  0  0  0
  2  1  2  3
  3  5  1  0
  4  2  1  0
  5  9  1  0
  6  1  1  0
  7  1  1  0
  8  3  1  0
  9  4  1  0
 10  5  1  0
 12 11  1  0
 13 11  1  0
 14 12  1  0
 15 13  1  0
 16 14  1  0
 17 15  2  0
 18 16  2  0
 13 19  1  0
 14 20  1  0
 11 21  1  0
 12 22  1  0
 23 16  1  0
 24 15  1  0
 26 25  2  3
 27 29  1  0
 28 26  1  0
 29 33  1  0
 30 25  1  0
 31 25  1  0
 32 27  1  0
 33 28  1  0
 34 29  1  0
  2 35  1  0
  3 36  1  0
  4 37  1  0
  4 38  1  0
  5 39  1  6
  6 40  1  0
  6 41  1  0
  6 42  1  0
  7 43  1  0
  7 44  1  0
  7 45  1  0
  8 46  1  0
  8 47  1  0
  8 48  1  0
  9 49  1  0
  9 50  1  0
 10 51  1  0
 10 52  1  0
 10 53  1  0
 11 54  1  6
 12 55  1  1
 13 56  1  1
 14 57  1  6
 19 58  1  0
 20 59  1  0
 21 60  1  0
 22 61  1  0
 23 62  1  0
 24 63  1  0
 26 64  1  0
 27 65  1  0
 28 66  1  0
 28 67  1  0
 29 68  1  1
 30 69  1  0
 30 70  1  0
 30 71  1  0
 31 72  1  0
 31 73  1  0
 31 74  1  0
 32 75  1  0
 32 76  1  0
 32 77  1  0
 33 78  1  0
 33 79  1  0
 34 80  1  0
 34 81  1  0
 34 82  1  0
M  END
> <Uni-Dock RESULT> 
ENERGY=   -5.373  LOWER_BOUND=    7.272  UPPER_BOUND=    8.772
INTER + INTRA:          -5.373
INTER:                  -5.373
INTRA:                   0.000
UNBOUND:                 0.000

$$$$

     RDKit          3D

 82 79  0  0  0  0  0  0  0  0999 V2000
   48.4248    6.2089   20.8883 C   0  0  0  0  0  0  0  0  0  0  0  0
   47.3086    6.9076   20.6034 C   0  0  0  0  0  0  0  0  0  0  0  0
   48.0773   10.8570   18.8138 N   0  0  0  0  0  0  0  0  0  0  0  0
   47.2140    8.1695   19.7865 C   0  0  0  0  0  0  0  0  0  0  0  0
   47.1133   10.7372   19.9130 C   0  0  1  0  0  0  0  0  0  0  0  0
   49.8112    6.6040   20.4653 C   0  0  0  0  0  0  0  0  0  0  0  0
   48.3575    4.9461   21.7051 C   0  0  0  0  0  0  0  0  0  0  0  0
   47.7928   11.9546   17.9008 C   0  0  0  0  0  0  0  0  0  0  0  0
   47.3500    9.4146   20.6703 C   0  0  0  0  0  0  0  0  0  0  0  0
   47.2216   11.9028   20.9017 C   0  0  0  0  0  0  0  0  0  0  0  0
   47.4963    9.4481   19.7302 C   0  0  1  0  0  0  0  0  0  0  0  0
   48.0599    8.1106   20.2543 C   0  0  2  0  0  0  0  0  0  0  0  0
   47.3854   10.4999   20.8462 C   0  0  2  0  0  0  0  0  0  0  0  0
   48.0789    7.0491   19.1359 C   0  0  1  0  0  0  0  0  0  0  0  0
   46.3619   11.5684   20.4601 C   0  0  0  0  0  0  0  0  0  0  0  0
   48.9568    5.8974   19.6024 C   0  0  0  0  0  0  0  0  0  0  0  0
   45.2256   11.3994   20.0535 O   0  0  0  0  0  0  0  0  0  0  0  0
   48.6349    5.0410   20.4139 O   0  0  0  0  0  0  0  0  0  0  0  0
   48.6953   11.0604   21.0639 O   0  0  0  0  0  0  0  0  0  0  0  0
   46.7462    6.5934   18.8797 O   0  0  0  0  0  0  0  0  0  0  0  0
   48.3787    9.9471   18.7063 O   0  0  0  0  0  0  0  0  0  0  0  0
   47.2320    7.6418   21.3373 O   0  0  0  0  0  0  0  0  0  0  0  0
   50.1929    5.9115   19.0720 O   0  0  0  0  0  0  0  0  0  0  0  0
   46.8351   12.8238   20.6733 O   0  0  0  0  0  0  0  0  0  0  0  0
   48.3604    6.4197   20.9949 C   0  0  0  0  0  0  0  0  0  0  0  0
   48.2783    7.5309   21.7536 C   0  0  0  0  0  0  0  0  0  0  0  0
   48.3695   11.8515   19.2438 N   0  0  0  0  0  0  0  0  0  0  0  0
   47.5022    8.7841   21.4429 C   0  0  0  0  0  0  0  0  0  0  0  0
   47.6285   11.0514   20.2375 C   0  0  2  0  0  0  0  0  0  0  0  0
   49.2254    5.2628   21.4169 C   0  0  0  0  0  0  0  0  0  0  0  0
   47.6552    6.2336   19.6770 C   0  0  0  0  0  0  0  0  0  0  0  0
   48.1589   11.4643   17.8537 C   0  0  0  0  0  0  0  0  0  0  0  0
   48.1813    9.6148   20.3443 C   0  0  0  0  0  0  0  0  0  0  0  0
   46.1141   11.1033   20.0136 C   0  0  0  0  0  0  0  0  0  0  0  0
   46.3542    6.5455   20.9828 H   0  0  0  0  0  0  0  0  0  0  0  0
   49.0241   10.9394   19.1756 H   0  0  0  0  0  0  0  0  0  0  0  0
   46.2402    8.1763   19.2796 H   0  0  0  0  0  0  0  0  0  0  0  0
   47.9673    8.1687   18.9901 H   0  0  0  0  0  0  0  0  0  0  0  0
   46.0950   10.7111   19.5038 H   0  0  0  0  0  0  0  0  0  0  0  0
   50.4624    6.6780   21.3423 H   0  0  0  0  0  0  0  0  0  0  0  0
   49.8494    7.5691   19.9542 H   0  0  0  0  0  0  0  0  0  0  0  0
   50.2293    5.8538   19.7861 H   0  0  0  0  0  0  0  0  0  0  0  0
   48.9103    5.0735   22.6429 H   0  0  0  0  0  0  0  0  0  0  0  0
   48.8005    4.1111   21.1513 H   0  0  0  0  0  0  0  0  0  0  0  0
   47.3304    4.6658   21.9602 H   0  0  0  0  0  0  0  0  0  0  0  0
   46.7797   11.8761   17.4888 H   0  0  0  0  0  0  0  0  0  0  0  0
   47.9188   12.9288   18.3789 H   0  0  0  0  0  0  0  0  0  0  0  0
   48.4924   11.9094   17.0594 H   0  0  0  0  0  0  0  0  0  0  0  0
   46.6271    9.3474   21.4955 H   0  0  0  0  0  0  0  0  0  0  0  0
   48.3468    9.4277   21.1324 H   0  0  0  0  0  0  0  0  0  0  0  0
   46.5534   11.7504   21.7548 H   0  0  0  0  0  0  0  0  0  0  0  0
   46.9416   12.8529   20.4359 H   0  0  0  0  0  0  0  0  0  0  0  0
   48.2409   12.0027   21.2910 H   0  0  0  0  0  0  0  0  0  0  0  0
   46.5150    9.2722   19.2757 H   0  0  0  0  0  0  0  0  0  0  0  0
   49.0743    8.2692   20.6408 H   0  0  0  0  0  0  0  0  0  0  0  0
   47.0377   10.0796   21.7953 H   0  0  0  0  0  0  0  0  0  0  0  0
   48.4869    7.4356   18.1981 H   0  0  0  0  0  0  0  0  0  0  0  0
   48.5293   11.9784   21.3655 H   0  0  0  0  0  0  0  0  0  0  0  0
   46.3277    6.4657   19.7506 H   0  0  0  0  0  0  0  0  0  0  0  0
   49.0729   10.4514   19.1848 H   0  0  0  0  0  0  0  0  0  0  0  0
   47.6514    6.8410   21.7140 H   0  0  0  0  0  0  0  0  0  0  0  0
   50.6263    5.1012   19.4179 H   0  0  0  0  0  0  0  0  0  0  0  0
   46.0939   13.4007   20.3870 H   0  0  0  0  0  0  0  0  0  0  0  0
   48.8472    7.5702   22.6815 H   0  0  0  0  0  0  0  0  0  0  0  0
   49.3653   11.8078   19.4547 H   0  0  0  0  0  0  0  0  0  0  0  0
   47.4192    9.3733   22.3649 H   0  0  0  0  0  0  0  0  0  0  0  0
   46.4794    8.5202   21.1565 H   0  0  0  0  0  0  0  0  0  0  0  0
   47.8180   11.5413   21.2028 H   0  0  0  0  0  0  0  0  0  0  0  0
   50.0196    5.0986   20.6819 H   0  0  0  0  0  0  0  0  0  0  0  0
   48.6251    4.3480   21.4889 H   0  0  0  0  0  0  0  0  0  0  0  0
   49.6949    5.4291   22.3954 H   0  0  0  0  0  0  0  0  0  0  0  0
   48.3600    6.4299   18.8582 H   0  0  0  0  0  0  0  0  0  0  0  0
   47.2820    5.2068   19.5717 H   0  0  0  0  0  0  0  0  0  0  0  0
   46.7973    6.9009   19.5580 H   0  0  0  0  0  0  0  0  0  0  0  0
   48.7638   12.1126   17.2064 H   0  0  0  0  0  0  0  0  0  0  0  0
   47.1166   11.5968   17.5453 H   0  0  0  0  0  0  0  0  0  0  0  0
   48.4697   10.4346   17.6548 H   0  0  0  0  0  0  0  0  0  0  0  0
   49.2645    9.6612   20.5325 H   0  0  0  0  0  0  0  0  0  0  0  0
   48.0530    9.0930   19.3873 H   0  0  0  0  0  0  0  0  0  0  0  0
   45.7798   12.1309   19.8307 H   0  0  0  0  0  0  0  0  0  0  0  0
   45.5798   10.7503   20.9030 H   0  0  0  0  0  0  0  0  0  0  0  0
   45.8010   10.4852   19.1624 H   0  0  0  0  0  0  0  0  0  0  0  0
  2  1  2  3
  3  5  1  0
  4  2  1  0
  5  9  1  0
  6  1  1  0
  7  1  1  0
  8  3  1  0
  9  4  1  0
 10  5  1  0
 12 11  1  0
 13 11  1  0
 14 12  1  0
 15 13  1  0
 16 14  1  0
 17 15  2  0
 18 16  2  0
 13 19  1  0
 14 20  1  0
 11 21  1  0
 12 22  1  0
 23 16  1  0
 24 15  1  0
 26 25  2  3
 27 29  1  0
 28 26  1  0
 29 33  1  0
 30 25  1  0
 31 25  1  0
 32 27  1  0
 33 28  1  0
 34 29  1  0
  2 35  1  0
  3 36  1  0
  4 37  1  0
  4 38  1  0
  5 39  1  6
  6 40  1  0
  6 41  1  0
  6 42  1  0
  7 43  1  0
  7 44  1  0
  7 45  1  0
  8 46  1  0
  8 47  1  0
  8 48  1  0
  9 49  1  0
  9 50  1  0
 10 51  1  0
 10 52  1  0
 10 53  1  0
 11 54  1  6
 12 55  1  1
 13 56  1  1
 14 57  1  6
 19 58  1  0
 20 59  1  0
 21 60  1  0
 22 61  1  0
 23 62  1  0
 24 63  1  0
 26 64  1  0
 27 65  1  0
 28 66  1  0
 28 67  1  0
 29 68  1  1
 30 69  1  0
 30 70  1  0
 30 71  1  0
 31 72  1  0
 31 73  1  0
 31 74  1  0
 32 75  1  0
 32 76  1  0
 32 77  1  0
 33 78  1  0
 33 79  1  0
 34 80  1  0
 34 81  1  0
 34 82  1  0
M  END
> <Uni-Dock RESULT> 
ENERGY=   -5.160  LOWER_BOUND=    7.481  UPPER_BOUND=    9.326
INTER + INTRA:          -5.160
INTER:                  -5.160
INTRA:                   0.000
UNBOUND:                 0.000

$$$$

     RDKit          3D

 82 79  0  0  0  0  0  0  0  0999 V2000
   47.6682   11.9582   19.1791 C   0  0  0  0  0  0  0  0  0  0  0  0
   47.0191   10.7827   19.2894 C   0  0  0  0  0  0  0  0  0  0  0  0
   47.7556    8.6810   23.0883 N   0  0  0  0  0  0  0  0  0  0  0  0
   46.8715    9.9427   20.5310 C   0  0  0  0  0  0  0  0  0  0  0  0
   47.8372    7.9397   21.8251 C   0  0  1  0  0  0  0  0  0  0  0  0
   48.4146   12.6300   20.2967 C   0  0  0  0  0  0  0  0  0  0  0  0
   47.7120   12.6957   17.8674 C   0  0  0  0  0  0  0  0  0  0  0  0
   47.3612    7.8615   24.2250 C   0  0  0  0  0  0  0  0  0  0  0  0
   48.0132    8.9271   20.6533 C   0  0  0  0  0  0  0  0  0  0  0  0
   49.0027    6.9451   21.8167 C   0  0  0  0  0  0  0  0  0  0  0  0
   47.4844    9.1805   21.4033 C   0  0  1  0  0  0  0  0  0  0  0  0
   47.7066   10.4332   20.5299 C   0  0  2  0  0  0  0  0  0  0  0  0
   48.5538    8.1060   21.1469 C   0  0  2  0  0  0  0  0  0  0  0  0
   46.5732   11.4569   20.7431 C   0  0  1  0  0  0  0  0  0  0  0  0
   48.0319    6.7338   21.5745 C   0  0  0  0  0  0  0  0  0  0  0  0
   47.0257   12.7825   20.1494 C   0  0  0  0  0  0  0  0  0  0  0  0
   46.9685    6.2163   21.2802 O   0  0  0  0  0  0  0  0  0  0  0  0
   47.0526   13.0560   18.9576 O   0  0  0  0  0  0  0  0  0  0  0  0
   49.7447    8.4796   21.8679 O   0  0  0  0  0  0  0  0  0  0  0  0
   45.3804   10.9983   20.0979 O   0  0  0  0  0  0  0  0  0  0  0  0
   47.5410    9.5722   22.7887 O   0  0  0  0  0  0  0  0  0  0  0  0
   47.7358   10.0419   19.1427 O   0  0  0  0  0  0  0  0  0  0  0  0
   47.4633   13.6637   21.0667 O   0  0  0  0  0  0  0  0  0  0  0  0
   48.9402    6.0574   22.3246 O   0  0  0  0  0  0  0  0  0  0  0  0
   47.7766   11.7390   19.1929 C   0  0  0  0  0  0  0  0  0  0  0  0
   48.6451   10.7090   19.2358 C   0  0  0  0  0  0  0  0  0  0  0  0
   48.5986    8.0410   23.4613 N   0  0  0  0  0  0  0  0  0  0  0  0
   48.4002    9.3418   19.8191 C   0  0  0  0  0  0  0  0  0  0  0  0
   48.5012    7.9697   21.9909 C   0  0  2  0  0  0  0  0  0  0  0  0
   48.1889   13.0692   18.6223 C   0  0  0  0  0  0  0  0  0  0  0  0
   46.3675   11.6883   19.7226 C   0  0  0  0  0  0  0  0  0  0  0  0
   47.3831    8.4694   24.1436 C   0  0  0  0  0  0  0  0  0  0  0  0
   48.3983    9.3715   21.3544 C   0  0  0  0  0  0  0  0  0  0  0  0
   47.4009    7.0107   21.5266 C   0  0  0  0  0  0  0  0  0  0  0  0
   46.5318   10.3700   18.4073 H   0  0  0  0  0  0  0  0  0  0  0  0
   48.6356    9.1512   23.2847 H   0  0  0  0  0  0  0  0  0  0  0  0
   45.9091    9.4173   20.4757 H   0  0  0  0  0  0  0  0  0  0  0  0
   46.8153   10.5800   21.4211 H   0  0  0  0  0  0  0  0  0  0  0  0
   46.9002    7.3913   21.6628 H   0  0  0  0  0  0  0  0  0  0  0  0
   49.4503   12.8167   19.9948 H   0  0  0  0  0  0  0  0  0  0  0  0
   48.4490   12.0356   21.2130 H   0  0  0  0  0  0  0  0  0  0  0  0
   47.9474   13.5892   20.5426 H   0  0  0  0  0  0  0  0  0  0  0  0
   48.7455   12.7680   17.5096 H   0  0  0  0  0  0  0  0  0  0  0  0
   47.3142   13.7093   17.9878 H   0  0  0  0  0  0  0  0  0  0  0  0
   47.1243   12.2003   17.0879 H   0  0  0  0  0  0  0  0  0  0  0  0
   46.4064    7.3560   24.0379 H   0  0  0  0  0  0  0  0  0  0  0  0
   48.1229    7.1214   24.4809 H   0  0  0  0  0  0  0  0  0  0  0  0
   47.2238    8.5065   25.0994 H   0  0  0  0  0  0  0  0  0  0  0  0
   48.0833    8.3543   19.7179 H   0  0  0  0  0  0  0  0  0  0  0  0
   48.9673    9.4611   20.7614 H   0  0  0  0  0  0  0  0  0  0  0  0
   49.0953    6.4651   20.8377 H   0  0  0  0  0  0  0  0  0  0  0  0
   48.8588    6.1503   22.5554 H   0  0  0  0  0  0  0  0  0  0  0  0
   49.9541    7.4431   22.0345 H   0  0  0  0  0  0  0  0  0  0  0  0
   46.4854    8.7763   21.2060 H   0  0  0  0  0  0  0  0  0  0  0  0
   48.6744   10.8848   20.7802 H   0  0  0  0  0  0  0  0  0  0  0  0
   48.8176    8.0110   20.0887 H   0  0  0  0  0  0  0  0  0  0  0  0
   46.3432   11.6134   21.8005 H   0  0  0  0  0  0  0  0  0  0  0  0
   50.1798    7.6302   22.0922 H   0  0  0  0  0  0  0  0  0  0  0  0
   45.6537   10.6554   19.2276 H   0  0  0  0  0  0  0  0  0  0  0  0
   48.4935    9.5443   23.0278 H   0  0  0  0  0  0  0  0  0  0  0  0
   47.9637   10.8318   18.6105 H   0  0  0  0  0  0  0  0  0  0  0  0
   47.6758   14.4755   20.5570 H   0  0  0  0  0  0  0  0  0  0  0  0
   48.4852    5.2118   22.5296 H   0  0  0  0  0  0  0  0  0  0  0  0
   49.6498   10.8592   18.8430 H   0  0  0  0  0  0  0  0  0  0  0  0
   49.3617    8.6663   23.7160 H   0  0  0  0  0  0  0  0  0  0  0  0
   49.1862    8.6681   19.4554 H   0  0  0  0  0  0  0  0  0  0  0  0
   47.4556    8.9436   19.4355 H   0  0  0  0  0  0  0  0  0  0  0  0
   49.4544    7.5350   21.6585 H   0  0  0  0  0  0  0  0  0  0  0  0
   48.1402   13.8421   19.3956 H   0  0  0  0  0  0  0  0  0  0  0  0
   47.5172   13.3545   17.8039 H   0  0  0  0  0  0  0  0  0  0  0  0
   49.2109   13.0514   18.2212 H   0  0  0  0  0  0  0  0  0  0  0  0
   46.3376   12.1521   20.7174 H   0  0  0  0  0  0  0  0  0  0  0  0
   45.6799   12.2367   19.0659 H   0  0  0  0  0  0  0  0  0  0  0  0
   45.9840   10.6679   19.8087 H   0  0  0  0  0  0  0  0  0  0  0  0
   47.5714    8.4990   25.2248 H   0  0  0  0  0  0  0  0  0  0  0  0
   46.5572    7.7676   23.9877 H   0  0  0  0  0  0  0  0  0  0  0  0
   47.0687    9.4740   23.8465 H   0  0  0  0  0  0  0  0  0  0  0  0
   49.2351    9.9897   21.7130 H   0  0  0  0  0  0  0  0  0  0  0  0
   47.4782    9.8674   21.6895 H   0  0  0  0  0  0  0  0  0  0  0  0
   47.4416    6.0679   22.0840 H   0  0  0  0  0  0  0  0  0  0  0  0
   47.5297    6.7583   20.4679 H   0  0  0  0  0  0  0  0  0  0  0  0
   46.3986    7.4397   21.6533 H   0  0  0  0  0  0  0  0  0  0  0  0
  2  1  2  3
  3  5  1  0
  4  2  1  0
  5  9  1  0
  6  1  1  0
  7  1  1  0
  8  3  1  0
  9  4  1  0
 10  5  1  0
 12 11  1  0
 13 11  1  0
 14 12  1  0
 15 13  1  0
 16 14  1  0
 17 15  2  0
 18 16  2  0
 13 19  1  0
 14 20  1  0
 11 21  1  0
 12 22  1  0
 23 16  1  0
 24 15  1  0
 26 25  2  3
 27 29  1  0
 28 26  1  0
 29 33  1  0
 30 25  1  0
 31 25  1  0
 32 27  1  0
 33 28  1  0
 34 29  1  0
  2 35  1  0
  3 36  1  0
  4 37  1  0
  4 38  1  0
  5 39  1  6
  6 40  1  0
  6 41  1  0
  6 42  1  0
  7 43  1  0
  7 44  1  0
  7 45  1  0
  8 46  1  0
  8 47  1  0
  8 48  1  0
  9 49  1  0
  9 50  1  0
 10 51  1  0
 10 52  1  0
 10 53  1  0
 11 54  1  6
 12 55  1  1
 13 56  1  1
 14 57  1  6
 19 58  1  0
 20 59  1  0
 21 60  1  0
 22 61  1  0
 23 62  1  0
 24 63  1  0
 26 64  1  0
 27 65  1  0
 28 66  1  0
 28 67  1  0
 29 68  1  1
 30 69  1  0
 30 70  1  0
 30 71  1  0
 31 72  1  0
 31 73  1  0
 31 74  1  0
 32 75  1  0
 32 76  1  0
 32 77  1  0
 33 78  1  0
 33 79  1  0
 34 80  1  0
 34 81  1  0
 34 82  1  0
M  END
> <Uni-Dock RESULT> 
ENERGY=   -5.155  LOWER_BOUND=    8.701  UPPER_BOUND=   10.064
INTER + INTRA:          -5.155
INTER:                  -5.155
INTRA:                   0.000
UNBOUND:                 0.000

$$$$

     RDKit          3D

 82 79  0  0  0  0  0  0  0  0999 V2000
   48.6368    5.8470   22.2902 C   0  0  0  0  0  0  0  0  0  0  0  0
   49.4545    5.1680   21.4621 C   0  0  0  0  0  0  0  0  0  0  0  0
   48.5165    5.6946   17.1920 N   0  0  0  0  0  0  0  0  0  0  0  0
   49.5522    5.3132   19.9661 C   0  0  0  0  0  0  0  0  0  0  0  0
   48.7597    4.3467   17.7173 C   0  0  1  0  0  0  0  0  0  0  0  0
   47.6225    6.8625   21.8459 C   0  0  0  0  0  0  0  0  0  0  0  0
   48.6687    5.6053   23.7757 C   0  0  0  0  0  0  0  0  0  0  0  0
   48.8668    5.8490   15.7875 C   0  0  0  0  0  0  0  0  0  0  0  0
   48.5982    4.3495   19.2511 C   0  0  0  0  0  0  0  0  0  0  0  0
   47.7990    3.3144   17.1179 C   0  0  0  0  0  0  0  0  0  0  0  0
   48.9534    5.1185   18.8167 C   0  0  1  0  0  0  0  0  0  0  0  0
   48.6552    5.4933   20.2836 C   0  0  2  0  0  0  0  0  0  0  0  0
   48.1382    3.8975   18.3600 C   0  0  2  0  0  0  0  0  0  0  0  0
   49.5480    6.6643   20.7415 C   0  0  1  0  0  0  0  0  0  0  0  0
   48.8173    3.2313   17.1629 C   0  0  0  0  0  0  0  0  0  0  0  0
   48.9700    7.2105   22.0385 C   0  0  0  0  0  0  0  0  0  0  0  0
   49.9865    2.9046   17.0563 O   0  0  0  0  0  0  0  0  0  0  0  0
   49.0800    6.6918   23.1406 O   0  0  0  0  0  0  0  0  0  0  0  0
   46.8041    4.3431   18.0450 O   0  0  0  0  0  0  0  0  0  0  0  0
   50.8870    6.2002   20.9442 O   0  0  0  0  0  0  0  0  0  0  0  0
   48.6173    6.2421   17.9795 O   0  0  0  0  0  0  0  0  0  0  0  0
   48.9079    4.3492   21.1235 O   0  0  0  0  0  0  0  0  0  0  0  0
   48.2508    8.3359   21.8774 O   0  0  0  0  0  0  0  0  0  0  0  0
   47.9351    2.9598   16.1663 O   0  0  0  0  0  0  0  0  0  0  0  0
   48.5671    5.6632   22.1441 C   0  0  0  0  0  0  0  0  0  0  0  0
   47.8937    4.7037   21.4787 C   0  0  0  0  0  0  0  0  0  0  0  0
   47.7496    5.2378   16.5119 N   0  0  0  0  0  0  0  0  0  0  0  0
   48.2785    4.0714   20.1666 C   0  0  0  0  0  0  0  0  0  0  0  0
   48.0830    4.3164   17.6149 C   0  0  2  0  0  0  0  0  0  0  0  0
   48.0239    6.2363   23.4252 C   0  0  0  0  0  0  0  0  0  0  0  0
   49.8652    6.2707   21.6806 C   0  0  0  0  0  0  0  0  0  0  0  0
   48.7530    6.2579   16.2308 C   0  0  0  0  0  0  0  0  0  0  0  0
   48.0388    5.0233   18.9857 C   0  0  0  0  0  0  0  0  0  0  0  0
   49.3907    3.5591   17.3650 C   0  0  0  0  0  0  0  0  0  0  0  0
   50.1357    4.4326   21.8875 H   0  0  0  0  0  0  0  0  0  0  0  0
   47.5489    5.9683   17.3432 H   0  0  0  0  0  0  0  0  0  0  0  0
   50.5878    5.1019   19.6691 H   0  0  0  0  0  0  0  0  0  0  0  0
   49.3597    6.3503   19.6677 H   0  0  0  0  0  0  0  0  0  0  0  0
   49.7910    4.0472   17.4898 H   0  0  0  0  0  0  0  0  0  0  0  0
   46.6292    6.5828   22.2115 H   0  0  0  0  0  0  0  0  0  0  0  0
   47.5508    6.9560   20.7595 H   0  0  0  0  0  0  0  0  0  0  0  0
   47.8734    7.8501   22.2465 H   0  0  0  0  0  0  0  0  0  0  0  0
   47.7058    5.2051   24.1136 H   0  0  0  0  0  0  0  0  0  0  0  0
   48.8619    6.5424   24.3093 H   0  0  0  0  0  0  0  0  0  0  0  0
   49.4460    4.8920   24.0681 H   0  0  0  0  0  0  0  0  0  0  0  0
   49.9119    5.5713   15.6060 H   0  0  0  0  0  0  0  0  0  0  0  0
   48.2144    5.2638   15.1353 H   0  0  0  0  0  0  0  0  0  0  0  0
   48.7544    6.9012   15.5052 H   0  0  0  0  0  0  0  0  0  0  0  0
   48.7730    3.3309   19.6253 H   0  0  0  0  0  0  0  0  0  0  0  0
   47.5610    4.6013   19.5121 H   0  0  0  0  0  0  0  0  0  0  0  0
   47.9426    2.3350   17.5844 H   0  0  0  0  0  0  0  0  0  0  0  0
   47.9627    3.1890   16.0429 H   0  0  0  0  0  0  0  0  0  0  0  0
   46.7539    3.6057   17.2706 H   0  0  0  0  0  0  0  0  0  0  0  0
   50.0255    4.9220   18.7058 H   0  0  0  0  0  0  0  0  0  0  0  0
   47.5970    5.7652   20.3823 H   0  0  0  0  0  0  0  0  0  0  0  0
   48.0609    3.1239   19.1308 H   0  0  0  0  0  0  0  0  0  0  0  0
   49.5820    7.4763   20.0102 H   0  0  0  0  0  0  0  0  0  0  0  0
   46.4930    3.7311   17.3452 H   0  0  0  0  0  0  0  0  0  0  0  0
   50.8144    5.3492   21.4136 H   0  0  0  0  0  0  0  0  0  0  0  0
   47.6587    6.1453   17.7874 H   0  0  0  0  0  0  0  0  0  0  0  0
   48.6316    4.5764   22.0352 H   0  0  0  0  0  0  0  0  0  0  0  0
   47.9822    8.5970   22.7850 H   0  0  0  0  0  0  0  0  0  0  0  0
   48.4923    2.5446   15.4726 H   0  0  0  0  0  0  0  0  0  0  0  0
   46.9508    4.3483   21.8921 H   0  0  0  0  0  0  0  0  0  0  0  0
   46.8599    5.6919   16.7129 H   0  0  0  0  0  0  0  0  0  0  0  0
   47.6862    3.1564   20.0403 H   0  0  0  0  0  0  0  0  0  0  0  0
   49.3252    3.7542   20.2058 H   0  0  0  0  0  0  0  0  0  0  0  0
   47.2820    3.5638   17.6154 H   0  0  0  0  0  0  0  0  0  0  0  0
   47.8187    7.3043   23.3029 H   0  0  0  0  0  0  0  0  0  0  0  0
   48.7541    6.1139   24.2341 H   0  0  0  0  0  0  0  0  0  0  0  0
   47.0945    5.7439   23.7404 H   0  0  0  0  0  0  0  0  0  0  0  0
   49.6610    7.2329   21.1925 H   0  0  0  0  0  0  0  0  0  0  0  0
   50.5404    6.4503   22.5272 H   0  0  0  0  0  0  0  0  0  0  0  0
   50.4014    5.6340   20.9717 H   0  0  0  0  0  0  0  0  0  0  0  0
   48.3983    6.8910   15.4070 H   0  0  0  0  0  0  0  0  0  0  0  0
   49.7018    5.8197   15.9041 H   0  0  0  0  0  0  0  0  0  0  0  0
   48.9309    6.9163   17.0858 H   0  0  0  0  0  0  0  0  0  0  0  0
   47.0627    5.5179   19.1020 H   0  0  0  0  0  0  0  0  0  0  0  0
   48.7966    5.8164   19.0217 H   0  0  0  0  0  0  0  0  0  0  0  0
   49.4282    3.1685   16.3418 H   0  0  0  0  0  0  0  0  0  0  0  0
   49.4720    2.6965   18.0363 H   0  0  0  0  0  0  0  0  0  0  0  0
   50.2721    4.1942   17.5211 H   0  0  0  0  0  0  0  0  0  0  0  0
  2  1  2  3
  3  5  1  0
  4  2  1  0
  5  9  1  0
  6  1  1  0
  7  1  1  0
  8  3  1  0
  9  4  1  0
 10  5  1  0
 12 11  1  0
 13 11  1  0
 14 12  1  0
 15 13  1  0
 16 14  1  0
 17 15  2  0
 18 16  2  0
 13 19  1  0
 14 20  1  0
 11 21  1  0
 12 22  1  0
 23 16  1  0
 24 15  1  0
 26 25  2  3
 27 29  1  0
 28 26  1  0
 29 33  1  0
 30 25  1  0
 31 25  1  0
 32 27  1  0
 33 28  1  0
 34 29  1  0
  2 35  1  0
  3 36  1  0
  4 37  1  0
  4 38  1  0
  5 39  1  6
  6 40  1  0
  6 41  1  0
  6 42  1  0
  7 43  1  0
  7 44  1  0
  7 45  1  0
  8 46  1  0
  8 47  1  0
  8 48  1  0
  9 49  1  0
  9 50  1  0
 10 51  1  0
 10 52  1  0
 10 53  1  0
 11 54  1  6
 12 55  1  1
 13 56  1  1
 14 57  1  6
 19 58  1  0
 20 59  1  0
 21 60  1  0
 22 61  1  0
 23 62  1  0
 24 63  1  0
 26 64  1  0
 27 65  1  0
 28 66  1  0
 28 67  1  0
 29 68  1  1
 30 69  1  0
 30 70  1  0
 30 71  1  0
 31 72  1  0
 31 73  1  0
 31 74  1  0
 32 75  1  0
 32 76  1  0
 32 77  1  0
 33 78  1  0
 33 79  1  0
 34 80  1  0
 34 81  1  0
 34 82  1  0
M  END
> <Uni-Dock RESULT> 
ENERGY=   -5.107  LOWER_BOUND=    6.653  UPPER_BOUND=    8.449
INTER + INTRA:          -5.107
INTER:                  -5.107
INTRA:                   0.000
UNBOUND:                 0.000

$$$$
