
     RDKit          3D

 82 79  0  0  0  0  0  0  0  0999 V2000
   44.2545    4.9722   11.1083 C   0  0  0  0  0  0  0  0  0  0  0  0
   45.0519    4.4619   12.0670 C   0  0  0  0  0  0  0  0  0  0  0  0
   48.4665    6.6973   13.7400 N   0  0  0  0  0  0  0  0  0  0  0  0
   45.1192    4.8344   13.5231 C   0  0  0  0  0  0  0  0  0  0  0  0
   47.0882    6.5145   13.2527 C   0  0  1  0  0  0  0  0  0  0  0  0
   43.2231    6.0482   11.3056 C   0  0  0  0  0  0  0  0  0  0  0  0
   44.3474    4.4664    9.6912 C   0  0  0  0  0  0  0  0  0  0  0  0
   49.2670    7.5584   12.8824 C   0  0  0  0  0  0  0  0  0  0  0  0
   46.5250    5.2659   13.9649 C   0  0  0  0  0  0  0  0  0  0  0  0
   46.2355    7.7573   13.5266 C   0  0  0  0  0  0  0  0  0  0  0  0
   45.2489    6.7542   12.0828 C   0  0  1  0  0  0  0  0  0  0  0  0
   46.6712    6.5857   11.5056 C   0  0  2  0  0  0  0  0  0  0  0  0
   44.5041    5.4891   12.5300 C   0  0  2  0  0  0  0  0  0  0  0  0
   47.7164    5.9303   12.4246 C   0  0  1  0  0  0  0  0  0  0  0  0
   43.9854    4.6401   11.3761 C   0  0  0  0  0  0  0  0  0  0  0  0
   47.9591    6.7257   13.7114 C   0  0  0  0  0  0  0  0  0  0  0  0
   42.8396    4.2184   11.2929 O   0  0  0  0  0  0  0  0  0  0  0  0
   48.2278    7.9109   13.8144 O   0  0  0  0  0  0  0  0  0  0  0  0
   43.3587    5.9485   13.2999 O   0  0  0  0  0  0  0  0  0  0  0  0
   47.3598    4.5687   12.6841 O   0  0  0  0  0  0  0  0  0  0  0  0
   45.3178    7.6660   13.2028 O   0  0  0  0  0  0  0  0  0  0  0  0
   47.1413    7.8787   11.0780 O   0  0  0  0  0  0  0  0  0  0  0  0
   47.9154    5.9351   14.8123 O   0  0  0  0  0  0  0  0  0  0  0  0
   44.8977    4.3094   10.4515 O   0  0  0  0  0  0  0  0  0  0  0  0
   47.6763    7.9724   13.8092 C   0  0  0  0  0  0  0  0  0  0  0  0
   47.0329    7.7404   12.6486 C   0  0  0  0  0  0  0  0  0  0  0  0
   43.5950    4.3140   11.7412 N   0  0  0  0  0  0  0  0  0  0  0  0
   46.7891    6.4173   11.9743 C   0  0  0  0  0  0  0  0  0  0  0  0
   45.0213    4.6068   11.5075 C   0  0  2  0  0  0  0  0  0  0  0  0
   47.8524    9.3795   14.3190 C   0  0  0  0  0  0  0  0  0  0  0  0
   48.2613    6.9155   14.7049 C   0  0  0  0  0  0  0  0  0  0  0  0
   43.2826    2.8936   11.6374 C   0  0  0  0  0  0  0  0  0  0  0  0
   45.3111    6.0210   12.0586 C   0  0  0  0  0  0  0  0  0  0  0  0
   45.3546    4.5040   10.0159 C   0  0  0  0  0  0  0  0  0  0  0  0
   45.7500    3.6719   11.7860 H   0  0  0  0  0  0  0  0  0  0  0  0
   48.4533    7.0717   14.6882 H   0  0  0  0  0  0  0  0  0  0  0  0
   44.8383    3.9459   14.1028 H   0  0  0  0  0  0  0  0  0  0  0  0
   44.3946    5.6046   13.7955 H   0  0  0  0  0  0  0  0  0  0  0  0
   47.1112    6.3213   12.1733 H   0  0  0  0  0  0  0  0  0  0  0  0
   43.1174    6.3702   12.3430 H   0  0  0  0  0  0  0  0  0  0  0  0
   42.2408    5.6900   10.9790 H   0  0  0  0  0  0  0  0  0  0  0  0
   43.4827    6.9304   10.7103 H   0  0  0  0  0  0  0  0  0  0  0  0
   44.6067    5.2862    9.0132 H   0  0  0  0  0  0  0  0  0  0  0  0
   45.1089    3.6879    9.5757 H   0  0  0  0  0  0  0  0  0  0  0  0
   43.3881    4.0426    9.3762 H   0  0  0  0  0  0  0  0  0  0  0  0
   48.9016    8.5892   12.8742 H   0  0  0  0  0  0  0  0  0  0  0  0
   50.2974    7.5773   13.2523 H   0  0  0  0  0  0  0  0  0  0  0  0
   49.2978    7.1800   11.8556 H   0  0  0  0  0  0  0  0  0  0  0  0
   46.5019    5.4398   15.0496 H   0  0  0  0  0  0  0  0  0  0  0  0
   47.2112    4.4217   13.8066 H   0  0  0  0  0  0  0  0  0  0  0  0
   45.2204    7.6348   13.1387 H   0  0  0  0  0  0  0  0  0  0  0  0
   46.6493    8.6459   13.0396 H   0  0  0  0  0  0  0  0  0  0  0  0
   46.1626    7.9634   14.6003 H   0  0  0  0  0  0  0  0  0  0  0  0
   44.6394    7.2817   11.3374 H   0  0  0  0  0  0  0  0  0  0  0  0
   46.6090    5.9856   10.5936 H   0  0  0  0  0  0  0  0  0  0  0  0
   45.0772    4.8664   13.2173 H   0  0  0  0  0  0  0  0  0  0  0  0
   48.6868    5.9066   11.9137 H   0  0  0  0  0  0  0  0  0  0  0  0
   42.6927    5.2323   13.2477 H   0  0  0  0  0  0  0  0  0  0  0  0
   47.8155    4.3368   13.5193 H   0  0  0  0  0  0  0  0  0  0  0  0
   44.4361    7.5961   13.6300 H   0  0  0  0  0  0  0  0  0  0  0  0
   47.0219    8.4749   11.8489 H   0  0  0  0  0  0  0  0  0  0  0  0
   48.0595    6.5708   15.5472 H   0  0  0  0  0  0  0  0  0  0  0  0
   44.4225    3.7271    9.8208 H   0  0  0  0  0  0  0  0  0  0  0  0
   46.6401    8.5948   12.0960 H   0  0  0  0  0  0  0  0  0  0  0  0
   43.3358    4.6279   12.6768 H   0  0  0  0  0  0  0  0  0  0  0  0
   47.4147    5.6247   12.3940 H   0  0  0  0  0  0  0  0  0  0  0  0
   47.0938    6.5241   10.9269 H   0  0  0  0  0  0  0  0  0  0  0  0
   45.6397    3.8934   12.0674 H   0  0  0  0  0  0  0  0  0  0  0  0
   47.4168   10.1246   13.6446 H   0  0  0  0  0  0  0  0  0  0  0  0
   47.3694    9.4930   15.2953 H   0  0  0  0  0  0  0  0  0  0  0  0
   48.9169    9.6120   14.4283 H   0  0  0  0  0  0  0  0  0  0  0  0
   48.0084    5.8979   14.3999 H   0  0  0  0  0  0  0  0  0  0  0  0
   47.8883    7.0411   15.7275 H   0  0  0  0  0  0  0  0  0  0  0  0
   49.3530    7.0014   14.7242 H   0  0  0  0  0  0  0  0  0  0  0  0
   43.4362    2.5111   10.6246 H   0  0  0  0  0  0  0  0  0  0  0  0
   42.2257    2.7408   11.8790 H   0  0  0  0  0  0  0  0  0  0  0  0
   43.8735    2.2995   12.3422 H   0  0  0  0  0  0  0  0  0  0  0  0
   44.7027    6.7629   11.5231 H   0  0  0  0  0  0  0  0  0  0  0  0
   44.9992    6.0627   13.1121 H   0  0  0  0  0  0  0  0  0  0  0  0
   45.1445    3.5058    9.6195 H   0  0  0  0  0  0  0  0  0  0  0  0
   44.7801    5.2286    9.4283 H   0  0  0  0  0  0  0  0  0  0  0  0
   46.4173    4.6885    9.8330 H   0  0  0  0  0  0  0  0  0  0  0  0
  2  1  2  3
  3  5  1  0
  4  2  1  0
  5  9  1  0
  6  1  1  0
  7  1  1  0
  8  3  1  0
  9  4  1  0
 10  5  1  0
 12 11  1  0
 13 11  1  0
 14 12  1  0
 15 13  1  0
 16 14  1  0
 17 15  2  0
 18 16  2  0
 13 19  1  0
 14 20  1  0
 11 21  1  0
 12 22  1  0
 23 16  1  0
 24 15  1  0
 26 25  2  3
 27 29  1  0
 28 26  1  0
 29 33  1  0
 30 25  1  0
 31 25  1  0
 32 27  1  0
 33 28  1  0
 34 29  1  0
  2 35  1  0
  3 36  1  0
  4 37  1  0
  4 38  1  0
  5 39  1  1
  6 40  1  0
  6 41  1  0
  6 42  1  0
  7 43  1  0
  7 44  1  0
  7 45  1  0
  8 46  1  0
  8 47  1  0
  8 48  1  0
  9 49  1  0
  9 50  1  0
 10 51  1  0
 10 52  1  0
 10 53  1  0
 11 54  1  6
 12 55  1  1
 13 56  1  1
 14 57  1  1
 19 58  1  0
 20 59  1  0
 21 60  1  0
 22 61  1  0
 23 62  1  0
 24 63  1  0
 26 64  1  0
 27 65  1  0
 28 66  1  0
 28 67  1  0
 29 68  1  1
 30 69  1  0
 30 70  1  0
 30 71  1  0
 31 72  1  0
 31 73  1  0
 31 74  1  0
 32 75  1  0
 32 76  1  0
 32 77  1  0
 33 78  1  0
 33 79  1  0
 34 80  1  0
 34 81  1  0
 34 82  1  0
M  END
> <Uni-Dock RESULT> 
ENERGY=   -4.532  LOWER_BOUND=    0.000  UPPER_BOUND=    0.000
INTER + INTRA:          -4.532
INTER:                  -4.532
INTRA:                   0.000
UNBOUND:                 0.000

$$$$

     RDKit          3D

 82 79  0  0  0  0  0  0  0  0999 V2000
   48.5207   12.9831   18.5296 C   0  0  0  0  0  0  0  0  0  0  0  0
   47.4988   12.1149   18.6610 C   0  0  0  0  0  0  0  0  0  0  0  0
   47.6109    8.7433   21.5027 N   0  0  0  0  0  0  0  0  0  0  0  0
   46.5121   11.9966   19.7906 C   0  0  0  0  0  0  0  0  0  0  0  0
   47.8149   10.1323   21.0558 C   0  0  1  0  0  0  0  0  0  0  0  0
   48.8912   14.0578   19.5134 C   0  0  0  0  0  0  0  0  0  0  0  0
   49.4114   12.9328   17.3142 C   0  0  0  0  0  0  0  0  0  0  0  0
   48.8569    8.0308   21.7425 C   0  0  0  0  0  0  0  0  0  0  0  0
   46.4874   10.5951   20.4176 C   0  0  0  0  0  0  0  0  0  0  0  0
   48.2282   11.0338   22.2233 C   0  0  0  0  0  0  0  0  0  0  0  0
   48.7869   12.0360   20.5657 C   0  0  1  0  0  0  0  0  0  0  0  0
   49.2664   10.6365   20.1230 C   0  0  2  0  0  0  0  0  0  0  0  0
   47.6562   12.6919   19.7618 C   0  0  2  0  0  0  0  0  0  0  0  0
   48.2128    9.5156   20.1161 C   0  0  1  0  0  0  0  0  0  0  0  0
   48.0949   13.2213   18.4021 C   0  0  0  0  0  0  0  0  0  0  0  0
   47.6154    9.2523   21.5022 C   0  0  0  0  0  0  0  0  0  0  0  0
   47.8475   14.3465   17.9894 O   0  0  0  0  0  0  0  0  0  0  0  0
   48.2148    9.0404   22.5430 O   0  0  0  0  0  0  0  0  0  0  0  0
   47.2004   13.8209   20.5576 O   0  0  0  0  0  0  0  0  0  0  0  0
   47.2094    9.7884   19.1326 O   0  0  0  0  0  0  0  0  0  0  0  0
   48.3804   11.9601   21.9513 O   0  0  0  0  0  0  0  0  0  0  0  0
   50.3777   10.2550   20.9569 O   0  0  0  0  0  0  0  0  0  0  0  0
   46.2607    9.2018   21.4694 O   0  0  0  0  0  0  0  0  0  0  0  0
   48.7344   12.3390   17.6218 O   0  0  0  0  0  0  0  0  0  0  0  0
   48.2155    9.5940   22.5825 C   0  0  0  0  0  0  0  0  0  0  0  0
   48.9976   10.2800   21.7265 C   0  0  0  0  0  0  0  0  0  0  0  0
   47.5837   13.5763   18.3328 N   0  0  0  0  0  0  0  0  0  0  0  0
   48.7935   10.4875   20.2500 C   0  0  0  0  0  0  0  0  0  0  0  0
   48.0394   12.1799   18.4647 C   0  0  2  0  0  0  0  0  0  0  0  0
   48.5977    9.4664   24.0345 C   0  0  0  0  0  0  0  0  0  0  0  0
   46.9238    8.9126   22.2238 C   0  0  0  0  0  0  0  0  0  0  0  0
   46.8499   13.8196   17.0965 C   0  0  0  0  0  0  0  0  0  0  0  0
   48.3993   11.9372   19.9477 C   0  0  0  0  0  0  0  0  0  0  0  0
   49.2344   11.9144   17.5439 C   0  0  0  0  0  0  0  0  0  0  0  0
   47.3349   11.3914   17.8609 H   0  0  0  0  0  0  0  0  0  0  0  0
   47.0385    8.7299   22.3463 H   0  0  0  0  0  0  0  0  0  0  0  0
   45.5157   12.2028   19.3795 H   0  0  0  0  0  0  0  0  0  0  0  0
   46.6701   12.7459   20.5690 H   0  0  0  0  0  0  0  0  0  0  0  0
   48.5978   10.1516   20.2880 H   0  0  0  0  0  0  0  0  0  0  0  0
   48.2095   14.1298   20.3626 H   0  0  0  0  0  0  0  0  0  0  0  0
   48.8915   15.0350   19.0184 H   0  0  0  0  0  0  0  0  0  0  0  0
   49.8955   13.8732   19.9102 H   0  0  0  0  0  0  0  0  0  0  0  0
   50.4488   12.7493   17.6129 H   0  0  0  0  0  0  0  0  0  0  0  0
   49.1220   12.1386   16.6180 H   0  0  0  0  0  0  0  0  0  0  0  0
   49.3669   13.8831   16.7720 H   0  0  0  0  0  0  0  0  0  0  0  0
   49.4175    8.4489   22.5833 H   0  0  0  0  0  0  0  0  0  0  0  0
   48.6338    6.9861   21.9825 H   0  0  0  0  0  0  0  0  0  0  0  0
   49.4930    8.0302   20.8515 H   0  0  0  0  0  0  0  0  0  0  0  0
   45.6892   10.5747   21.1725 H   0  0  0  0  0  0  0  0  0  0  0  0
   46.1911    9.8748   19.6419 H   0  0  0  0  0  0  0  0  0  0  0  0
   48.4091   12.0588   21.8878 H   0  0  0  0  0  0  0  0  0  0  0  0
   49.1573   10.6904   22.6888 H   0  0  0  0  0  0  0  0  0  0  0  0
   47.4536   11.0652   22.9978 H   0  0  0  0  0  0  0  0  0  0  0  0
   49.6556   12.7072   20.5717 H   0  0  0  0  0  0  0  0  0  0  0  0
   49.6770   10.7116   19.1123 H   0  0  0  0  0  0  0  0  0  0  0  0
   46.7794   12.0548   19.6439 H   0  0  0  0  0  0  0  0  0  0  0  0
   48.6877    8.5711   19.8233 H   0  0  0  0  0  0  0  0  0  0  0  0
   46.7951   14.4508   19.9266 H   0  0  0  0  0  0  0  0  0  0  0  0
   46.4220    9.2815   19.4191 H   0  0  0  0  0  0  0  0  0  0  0  0
   47.9281   12.8153   22.1208 H   0  0  0  0  0  0  0  0  0  0  0  0
   50.0687   10.3676   21.8820 H   0  0  0  0  0  0  0  0  0  0  0  0
   46.0218    9.0553   22.4109 H   0  0  0  0  0  0  0  0  0  0  0  0
   48.8945   12.8135   16.7780 H   0  0  0  0  0  0  0  0  0  0  0  0
   49.9060   10.7427   22.1144 H   0  0  0  0  0  0  0  0  0  0  0  0
   46.9707   13.8057   19.1155 H   0  0  0  0  0  0  0  0  0  0  0  0
   48.0455    9.8022   19.8418 H   0  0  0  0  0  0  0  0  0  0  0  0
   49.7381   10.2398   19.7523 H   0  0  0  0  0  0  0  0  0  0  0  0
   47.2197   11.4992   18.2008 H   0  0  0  0  0  0  0  0  0  0  0  0
   49.5422    9.9719   24.2628 H   0  0  0  0  0  0  0  0  0  0  0  0
   47.8232    9.9067   24.6712 H   0  0  0  0  0  0  0  0  0  0  0  0
   48.7117    8.4112   24.3044 H   0  0  0  0  0  0  0  0  0  0  0  0
   46.5862    9.1271   21.2076 H   0  0  0  0  0  0  0  0  0  0  0  0
   46.1254    9.2417   22.8983 H   0  0  0  0  0  0  0  0  0  0  0  0
   47.0315    7.8271   22.3224 H   0  0  0  0  0  0  0  0  0  0  0  0
   47.4807   13.6956   16.2120 H   0  0  0  0  0  0  0  0  0  0  0  0
   46.4919   14.8542   17.0903 H   0  0  0  0  0  0  0  0  0  0  0  0
   45.9759   13.1654   17.0124 H   0  0  0  0  0  0  0  0  0  0  0  0
   49.2156   12.6083   20.2489 H   0  0  0  0  0  0  0  0  0  0  0  0
   47.5327   12.1995   20.5713 H   0  0  0  0  0  0  0  0  0  0  0  0
   48.9861   12.0917   16.4929 H   0  0  0  0  0  0  0  0  0  0  0  0
   50.0861   12.5533   17.8020 H   0  0  0  0  0  0  0  0  0  0  0  0
   49.5623   10.8727   17.6095 H   0  0  0  0  0  0  0  0  0  0  0  0
  2  1  2  3
  3  5  1  0
  4  2  1  0
  5  9  1  0
  6  1  1  0
  7  1  1  0
  8  3  1  0
  9  4  1  0
 10  5  1  0
 12 11  1  0
 13 11  1  0
 14 12  1  0
 15 13  1  0
 16 14  1  0
 17 15  2  0
 18 16  2  0
 13 19  1  0
 14 20  1  0
 11 21  1  0
 12 22  1  0
 23 16  1  0
 24 15  1  0
 26 25  2  3
 27 29  1  0
 28 26  1  0
 29 33  1  0
 30 25  1  0
 31 25  1  0
 32 27  1  0
 33 28  1  0
 34 29  1  0
  2 35  1  0
  3 36  1  0
  4 37  1  0
  4 38  1  0
  5 39  1  1
  6 40  1  0
  6 41  1  0
  6 42  1  0
  7 43  1  0
  7 44  1  0
  7 45  1  0
  8 46  1  0
  8 47  1  0
  8 48  1  0
  9 49  1  0
  9 50  1  0
 10 51  1  0
 10 52  1  0
 10 53  1  0
 11 54  1  6
 12 55  1  1
 13 56  1  1
 14 57  1  1
 19 58  1  0
 20 59  1  0
 21 60  1  0
 22 61  1  0
 23 62  1  0
 24 63  1  0
 26 64  1  0
 27 65  1  0
 28 66  1  0
 28 67  1  0
 29 68  1  1
 30 69  1  0
 30 70  1  0
 30 71  1  0
 31 72  1  0
 31 73  1  0
 31 74  1  0
 32 75  1  0
 32 76  1  0
 32 77  1  0
 33 78  1  0
 33 79  1  0
 34 80  1  0
 34 81  1  0
 34 82  1  0
M  END
> <Uni-Dock RESULT> 
ENERGY=   -4.292  LOWER_BOUND=    8.690  UPPER_BOUND=   10.244
INTER + INTRA:          -4.292
INTER:                  -4.292
INTRA:                   0.000
UNBOUND:                 0.000

$$$$

     RDKit          3D

 82 79  0  0  0  0  0  0  0  0999 V2000
   47.9380   10.9303   20.5899 C   0  0  0  0  0  0  0  0  0  0  0  0
   48.6728   12.0595   20.6066 C   0  0  0  0  0  0  0  0  0  0  0  0
   49.5937   14.3359   16.9425 N   0  0  0  0  0  0  0  0  0  0  0  0
   48.2104   13.4787   20.4172 C   0  0  0  0  0  0  0  0  0  0  0  0
   48.7450   13.5700   17.8718 C   0  0  1  0  0  0  0  0  0  0  0  0
   46.4507   10.8541   20.3833 C   0  0  0  0  0  0  0  0  0  0  0  0
   48.5971    9.5896   20.7916 C   0  0  0  0  0  0  0  0  0  0  0  0
   49.8491   13.6363   15.6923 C   0  0  0  0  0  0  0  0  0  0  0  0
   48.9371   14.1956   19.2701 C   0  0  0  0  0  0  0  0  0  0  0  0
   47.2776   13.6001   17.4331 C   0  0  0  0  0  0  0  0  0  0  0  0
   47.4187   12.0207   18.6780 C   0  0  1  0  0  0  0  0  0  0  0  0
   48.7252   11.7727   17.8931 C   0  0  2  0  0  0  0  0  0  0  0  0
   47.5338   12.3492   20.1727 C   0  0  2  0  0  0  0  0  0  0  0  0
   49.7464   12.9229   17.8707 C   0  0  1  0  0  0  0  0  0  0  0  0
   47.8823   11.1473   21.0417 C   0  0  0  0  0  0  0  0  0  0  0  0
   49.1931   14.1970   17.2241 C   0  0  0  0  0  0  0  0  0  0  0  0
   47.2784   10.8360   22.0596 O   0  0  0  0  0  0  0  0  0  0  0  0
   48.6540   14.3055   16.1355 O   0  0  0  0  0  0  0  0  0  0  0  0
   46.2237   12.8328   20.5795 O   0  0  0  0  0  0  0  0  0  0  0  0
   50.2549   13.1564   19.1880 O   0  0  0  0  0  0  0  0  0  0  0  0
   46.6938   13.0896   18.0279 O   0  0  0  0  0  0  0  0  0  0  0  0
   48.3787   11.4028   16.5445 O   0  0  0  0  0  0  0  0  0  0  0  0
   49.4268   15.2947   17.9853 O   0  0  0  0  0  0  0  0  0  0  0  0
   48.9654   10.4569   20.6588 O   0  0  0  0  0  0  0  0  0  0  0  0
   48.1947   14.1786   16.4199 C   0  0  0  0  0  0  0  0  0  0  0  0
   48.0716   12.9170   16.8764 C   0  0  0  0  0  0  0  0  0  0  0  0
   47.7107   11.4327   21.5720 N   0  0  0  0  0  0  0  0  0  0  0  0
   48.8264   12.2625   18.0018 C   0  0  0  0  0  0  0  0  0  0  0  0
   48.6707   11.5011   20.4546 C   0  0  2  0  0  0  0  0  0  0  0  0
   47.3688   14.6545   15.2528 C   0  0  0  0  0  0  0  0  0  0  0  0
   49.1133   15.2235   16.9907 C   0  0  0  0  0  0  0  0  0  0  0  0
   48.3604   11.3238   22.8728 C   0  0  0  0  0  0  0  0  0  0  0  0
   47.9196   12.0416   19.2172 C   0  0  0  0  0  0  0  0  0  0  0  0
   49.2822   10.1227   20.1852 C   0  0  0  0  0  0  0  0  0  0  0  0
   49.7462   11.9699   20.7804 H   0  0  0  0  0  0  0  0  0  0  0  0
   49.1682   15.2421   16.7495 H   0  0  0  0  0  0  0  0  0  0  0  0
   48.4247   14.0208   21.3470 H   0  0  0  0  0  0  0  0  0  0  0  0
   47.1305   13.5550   20.2742 H   0  0  0  0  0  0  0  0  0  0  0  0
   49.0929   12.5304   17.9027 H   0  0  0  0  0  0  0  0  0  0  0  0
   45.9689   11.8295   20.2966 H   0  0  0  0  0  0  0  0  0  0  0  0
   45.9812   10.3381   21.2278 H   0  0  0  0  0  0  0  0  0  0  0  0
   46.2272   10.2923   19.4698 H   0  0  0  0  0  0  0  0  0  0  0  0
   48.4277    8.9497   19.9193 H   0  0  0  0  0  0  0  0  0  0  0  0
   49.6795    9.6745   20.9345 H   0  0  0  0  0  0  0  0  0  0  0  0
   48.1830    9.0926   21.6751 H   0  0  0  0  0  0  0  0  0  0  0  0
   48.9403   13.5056   15.0981 H   0  0  0  0  0  0  0  0  0  0  0  0
   50.5545   14.2193   15.0911 H   0  0  0  0  0  0  0  0  0  0  0  0
   50.3059   12.6574   15.8700 H   0  0  0  0  0  0  0  0  0  0  0  0
   48.5998   15.2412   19.2552 H   0  0  0  0  0  0  0  0  0  0  0  0
   50.0103   14.2254   19.5063 H   0  0  0  0  0  0  0  0  0  0  0  0
   46.6508   13.0073   18.1051 H   0  0  0  0  0  0  0  0  0  0  0  0
   47.1470   13.1772   16.4321 H   0  0  0  0  0  0  0  0  0  0  0  0
   46.8846   14.6230   17.4217 H   0  0  0  0  0  0  0  0  0  0  0  0
   46.7755   11.1395   18.5554 H   0  0  0  0  0  0  0  0  0  0  0  0
   49.2239   10.8950   18.3137 H   0  0  0  0  0  0  0  0  0  0  0  0
   48.2188   13.1699   20.3867 H   0  0  0  0  0  0  0  0  0  0  0  0
   50.6051   12.6356   17.2514 H   0  0  0  0  0  0  0  0  0  0  0  0
   46.1615   12.6681   21.5429 H   0  0  0  0  0  0  0  0  0  0  0  0
   50.5818   14.0795   19.1791 H   0  0  0  0  0  0  0  0  0  0  0  0
   45.9769   13.3184   18.6591 H   0  0  0  0  0  0  0  0  0  0  0  0
   47.7711   12.1037   16.2228 H   0  0  0  0  0  0  0  0  0  0  0  0
   49.0040   16.0159   17.4693 H   0  0  0  0  0  0  0  0  0  0  0  0
   49.0813    9.7634   21.3432 H   0  0  0  0  0  0  0  0  0  0  0  0
   47.3566   12.2570   16.3837 H   0  0  0  0  0  0  0  0  0  0  0  0
   47.1363   12.2759   21.5744 H   0  0  0  0  0  0  0  0  0  0  0  0
   49.7082   12.8407   18.2915 H   0  0  0  0  0  0  0  0  0  0  0  0
   49.2005   11.3023   17.6284 H   0  0  0  0  0  0  0  0  0  0  0  0
   49.4709   12.2112   20.7003 H   0  0  0  0  0  0  0  0  0  0  0  0
   46.7119   13.8709   14.8601 H   0  0  0  0  0  0  0  0  0  0  0  0
   46.7375   15.4974   15.5529 H   0  0  0  0  0  0  0  0  0  0  0  0
   48.0210   14.9816   14.4362 H   0  0  0  0  0  0  0  0  0  0  0  0
   49.6018   14.9142   17.9171 H   0  0  0  0  0  0  0  0  0  0  0  0
   48.5497   16.1349   17.2194 H   0  0  0  0  0  0  0  0  0  0  0  0
   49.8937   15.4749   16.2644 H   0  0  0  0  0  0  0  0  0  0  0  0
   48.9111   10.3854   22.9808 H   0  0  0  0  0  0  0  0  0  0  0  0
   47.5965   11.3372   23.6569 H   0  0  0  0  0  0  0  0  0  0  0  0
   49.0382   12.1643   23.0552 H   0  0  0  0  0  0  0  0  0  0  0  0
   47.1048   11.3562   18.9455 H   0  0  0  0  0  0  0  0  0  0  0  0
   47.4480   12.9999   19.4782 H   0  0  0  0  0  0  0  0  0  0  0  0
   49.8095    9.7327   21.0612 H   0  0  0  0  0  0  0  0  0  0  0  0
   48.5142    9.3946   19.9015 H   0  0  0  0  0  0  0  0  0  0  0  0
   50.0197   10.1664   19.3783 H   0  0  0  0  0  0  0  0  0  0  0  0
  2  1  2  3
  3  5  1  0
  4  2  1  0
  5  9  1  0
  6  1  1  0
  7  1  1  0
  8  3  1  0
  9  4  1  0
 10  5  1  0
 12 11  1  0
 13 11  1  0
 14 12  1  0
 15 13  1  0
 16 14  1  0
 17 15  2  0
 18 16  2  0
 13 19  1  0
 14 20  1  0
 11 21  1  0
 12 22  1  0
 23 16  1  0
 24 15  1  0
 26 25  2  3
 27 29  1  0
 28 26  1  0
 29 33  1  0
 30 25  1  0
 31 25  1  0
 32 27  1  0
 33 28  1  0
 34 29  1  0
  2 35  1  0
  3 36  1  0
  4 37  1  0
  4 38  1  0
  5 39  1  1
  6 40  1  0
  6 41  1  0
  6 42  1  0
  7 43  1  0
  7 44  1  0
  7 45  1  0
  8 46  1  0
  8 47  1  0
  8 48  1  0
  9 49  1  0
  9 50  1  0
 10 51  1  0
 10 52  1  0
 10 53  1  0
 11 54  1  6
 12 55  1  1
 13 56  1  1
 14 57  1  1
 19 58  1  0
 20 59  1  0
 21 60  1  0
 22 61  1  0
 23 62  1  0
 24 63  1  0
 26 64  1  0
 27 65  1  0
 28 66  1  0
 28 67  1  0
 29 68  1  1
 30 69  1  0
 30 70  1  0
 30 71  1  0
 31 72  1  0
 31 73  1  0
 31 74  1  0
 32 75  1  0
 32 76  1  0
 32 77  1  0
 33 78  1  0
 33 79  1  0
 34 80  1  0
 34 81  1  0
 34 82  1  0
M  END
> <Uni-Dock RESULT> 
ENERGY=   -4.221  LOWER_BOUND=    8.638  UPPER_BOUND=   10.111
INTER + INTRA:          -4.221
INTER:                  -4.221
INTRA:                   0.000
UNBOUND:                 0.000

$$$$

     RDKit          3D

 82 79  0  0  0  0  0  0  0  0999 V2000
   48.2461    7.9762   22.2063 C   0  0  0  0  0  0  0  0  0  0  0  0
   47.4554    8.2795   21.1584 C   0  0  0  0  0  0  0  0  0  0  0  0
   47.1310   12.3731   19.5479 N   0  0  0  0  0  0  0  0  0  0  0  0
   47.8595    8.6112   19.7475 C   0  0  0  0  0  0  0  0  0  0  0  0
   47.8268   11.1914   20.0865 C   0  0  1  0  0  0  0  0  0  0  0  0
   49.7469    7.8919   22.1778 C   0  0  0  0  0  0  0  0  0  0  0  0
   47.6423    7.6813   23.5558 C   0  0  0  0  0  0  0  0  0  0  0  0
   47.1668   13.5169   20.4468 C   0  0  0  0  0  0  0  0  0  0  0  0
   47.3285    9.9736   19.2788 C   0  0  0  0  0  0  0  0  0  0  0  0
   49.3470   11.3531   19.9898 C   0  0  0  0  0  0  0  0  0  0  0  0
   49.0614    9.9133   21.3715 C   0  0  1  0  0  0  0  0  0  0  0  0
   47.9503   10.8724   21.8512 C   0  0  2  0  0  0  0  0  0  0  0  0
   48.6376    8.5393   20.8350 C   0  0  2  0  0  0  0  0  0  0  0  0
   46.8856   11.2696   20.8142 C   0  0  1  0  0  0  0  0  0  0  0  0
   48.1994    7.5635   21.9200 C   0  0  0  0  0  0  0  0  0  0  0  0
   47.4767   12.0040   19.6064 C   0  0  0  0  0  0  0  0  0  0  0  0
   48.6110    6.4153   22.0198 O   0  0  0  0  0  0  0  0  0  0  0  0
   48.2100   12.9784   19.6136 O   0  0  0  0  0  0  0  0  0  0  0  0
   49.8117    7.9846   20.1796 O   0  0  0  0  0  0  0  0  0  0  0  0
   46.1170   10.1239   20.4333 O   0  0  0  0  0  0  0  0  0  0  0  0
   49.8334   10.5861   20.3508 O   0  0  0  0  0  0  0  0  0  0  0  0
   48.5747   12.0557   22.3857 O   0  0  0  0  0  0  0  0  0  0  0  0
   47.0333   11.4889   18.4329 O   0  0  0  0  0  0  0  0  0  0  0  0
   47.2554    8.0196   22.7549 O   0  0  0  0  0  0  0  0  0  0  0  0
   48.6119   12.5979   19.6546 C   0  0  0  0  0  0  0  0  0  0  0  0
   48.7194   11.9260   20.8174 C   0  0  0  0  0  0  0  0  0  0  0  0
   48.2468    7.0649   21.5442 N   0  0  0  0  0  0  0  0  0  0  0  0
   47.8005   10.8659   21.3618 C   0  0  0  0  0  0  0  0  0  0  0  0
   47.5207    8.3349   21.7307 C   0  0  2  0  0  0  0  0  0  0  0  0
   49.6192   13.6563   19.2859 C   0  0  0  0  0  0  0  0  0  0  0  0
   47.5383   12.3840   18.6234 C   0  0  0  0  0  0  0  0  0  0  0  0
   47.3638    5.9050   21.5157 C   0  0  0  0  0  0  0  0  0  0  0  0
   48.4647    9.4856   21.3156 C   0  0  0  0  0  0  0  0  0  0  0  0
   47.0577    8.4819   23.1835 C   0  0  0  0  0  0  0  0  0  0  0  0
   46.3761    8.2927   21.3176 H   0  0  0  0  0  0  0  0  0  0  0  0
   47.5305   12.6309   18.6461 H   0  0  0  0  0  0  0  0  0  0  0  0
   47.4358    7.8380   19.0941 H   0  0  0  0  0  0  0  0  0  0  0  0
   48.9399    8.5648   19.5961 H   0  0  0  0  0  0  0  0  0  0  0  0
   47.5429   11.0546   21.1369 H   0  0  0  0  0  0  0  0  0  0  0  0
   50.1768    8.0477   21.1868 H   0  0  0  0  0  0  0  0  0  0  0  0
   50.0731    6.9027   22.5172 H   0  0  0  0  0  0  0  0  0  0  0  0
   50.1777    8.6443   22.8473 H   0  0  0  0  0  0  0  0  0  0  0  0
   48.0168    8.3910   24.3009 H   0  0  0  0  0  0  0  0  0  0  0  0
   46.5497    7.7548   23.5486 H   0  0  0  0  0  0  0  0  0  0  0  0
   47.9054    6.6676   23.8756 H   0  0  0  0  0  0  0  0  0  0  0  0
   48.1802   13.9053   20.5822 H   0  0  0  0  0  0  0  0  0  0  0  0
   46.5583   14.3244   20.0264 H   0  0  0  0  0  0  0  0  0  0  0  0
   46.7439   13.2678   21.4254 H   0  0  0  0  0  0  0  0  0  0  0  0
   47.5985   10.0979   18.2210 H   0  0  0  0  0  0  0  0  0  0  0  0
   46.2300    9.9459   19.3112 H   0  0  0  0  0  0  0  0  0  0  0  0
   49.8654   10.4899   20.4164 H   0  0  0  0  0  0  0  0  0  0  0  0
   49.6955   12.2302   20.5440 H   0  0  0  0  0  0  0  0  0  0  0  0
   49.6723   11.4600   18.9488 H   0  0  0  0  0  0  0  0  0  0  0  0
   49.7681    9.7700   22.1994 H   0  0  0  0  0  0  0  0  0  0  0  0
   47.4331   10.4120   22.6976 H   0  0  0  0  0  0  0  0  0  0  0  0
   47.8758    8.5917   20.0569 H   0  0  0  0  0  0  0  0  0  0  0  0
   46.1831   11.9798   21.2673 H   0  0  0  0  0  0  0  0  0  0  0  0
   49.6947    7.0123   20.1922 H   0  0  0  0  0  0  0  0  0  0  0  0
   45.7431   10.3437   19.5554 H   0  0  0  0  0  0  0  0  0  0  0  0
   50.3984    9.8806   19.9663 H   0  0  0  0  0  0  0  0  0  0  0  0
   49.1900   12.3713   21.6888 H   0  0  0  0  0  0  0  0  0  0  0  0
   47.5043   12.0300   17.7618 H   0  0  0  0  0  0  0  0  0  0  0  0
   47.0503    7.2637   23.3459 H   0  0  0  0  0  0  0  0  0  0  0  0
   49.5552   12.1646   21.4763 H   0  0  0  0  0  0  0  0  0  0  0  0
   48.7579    7.0958   20.6617 H   0  0  0  0  0  0  0  0  0  0  0  0
   46.8460   10.8412   20.8289 H   0  0  0  0  0  0  0  0  0  0  0  0
   47.5649   11.1389   22.3969 H   0  0  0  0  0  0  0  0  0  0  0  0
   46.6467    8.3596   21.0671 H   0  0  0  0  0  0  0  0  0  0  0  0
   50.3861   13.7883   20.0567 H   0  0  0  0  0  0  0  0  0  0  0  0
   50.1280   13.3881   18.3540 H   0  0  0  0  0  0  0  0  0  0  0  0
   49.1202   14.6208   19.1447 H   0  0  0  0  0  0  0  0  0  0  0  0
   46.8982   11.5246   18.8336 H   0  0  0  0  0  0  0  0  0  0  0  0
   47.9906   12.2087   17.6409 H   0  0  0  0  0  0  0  0  0  0  0  0
   46.9008   13.2720   18.5550 H   0  0  0  0  0  0  0  0  0  0  0  0
   46.8602    5.7472   22.4733 H   0  0  0  0  0  0  0  0  0  0  0  0
   47.9581    5.0074   21.3162 H   0  0  0  0  0  0  0  0  0  0  0  0
   46.6141    5.9899   20.7221 H   0  0  0  0  0  0  0  0  0  0  0  0
   49.3566    9.4876   21.9575 H   0  0  0  0  0  0  0  0  0  0  0  0
   48.8177    9.3035   20.2905 H   0  0  0  0  0  0  0  0  0  0  0  0
   46.3942    7.6652   23.4842 H   0  0  0  0  0  0  0  0  0  0  0  0
   47.9087    8.4970   23.8734 H   0  0  0  0  0  0  0  0  0  0  0  0
   46.4904    9.4062   23.3277 H   0  0  0  0  0  0  0  0  0  0  0  0
  2  1  2  3
  3  5  1  0
  4  2  1  0
  5  9  1  0
  6  1  1  0
  7  1  1  0
  8  3  1  0
  9  4  1  0
 10  5  1  0
 12 11  1  0
 13 11  1  0
 14 12  1  0
 15 13  1  0
 16 14  1  0
 17 15  2  0
 18 16  2  0
 13 19  1  0
 14 20  1  0
 11 21  1  0
 12 22  1  0
 23 16  1  0
 24 15  1  0
 26 25  2  3
 27 29  1  0
 28 26  1  0
 29 33  1  0
 30 25  1  0
 31 25  1  0
 32 27  1  0
 33 28  1  0
 34 29  1  0
  2 35  1  0
  3 36  1  0
  4 37  1  0
  4 38  1  0
  5 39  1  1
  6 40  1  0
  6 41  1  0
  6 42  1  0
  7 43  1  0
  7 44  1  0
  7 45  1  0
  8 46  1  0
  8 47  1  0
  8 48  1  0
  9 49  1  0
  9 50  1  0
 10 51  1  0
 10 52  1  0
 10 53  1  0
 11 54  1  6
 12 55  1  1
 13 56  1  1
 14 57  1  1
 19 58  1  0
 20 59  1  0
 21 60  1  0
 22 61  1  0
 23 62  1  0
 24 63  1  0
 26 64  1  0
 27 65  1  0
 28 66  1  0
 28 67  1  0
 29 68  1  1
 30 69  1  0
 30 70  1  0
 30 71  1  0
 31 72  1  0
 31 73  1  0
 31 74  1  0
 32 75  1  0
 32 76  1  0
 32 77  1  0
 33 78  1  0
 33 79  1  0
 34 80  1  0
 34 81  1  0
 34 82  1  0
M  END
> <Uni-Dock RESULT> 
ENERGY=   -4.218  LOWER_BOUND=    8.452  UPPER_BOUND=   10.189
INTER + INTRA:          -4.218
INTER:                  -4.218
INTRA:                   0.000
UNBOUND:                 0.000

$$$$

     RDKit          3D

 82 79  0  0  0  0  0  0  0  0999 V2000
   48.5770    4.3440   17.6028 C   0  0  0  0  0  0  0  0  0  0  0  0
   47.7057    5.3049   17.9673 C   0  0  0  0  0  0  0  0  0  0  0  0
   47.5136    6.8858   22.0807 N   0  0  0  0  0  0  0  0  0  0  0  0
   47.9839    6.7512   18.2751 C   0  0  0  0  0  0  0  0  0  0  0  0
   48.1741    6.4189   20.8493 C   0  0  1  0  0  0  0  0  0  0  0  0
   50.0566    4.5283   17.4099 C   0  0  0  0  0  0  0  0  0  0  0  0
   48.0970    2.9380   17.3466 C   0  0  0  0  0  0  0  0  0  0  0  0
   47.7257    5.9992   23.2150 C   0  0  0  0  0  0  0  0  0  0  0  0
   47.5073    7.1664   19.6744 C   0  0  0  0  0  0  0  0  0  0  0  0
   49.6837    6.6738   20.9007 C   0  0  0  0  0  0  0  0  0  0  0  0
   49.4395    5.2652   19.4793 C   0  0  1  0  0  0  0  0  0  0  0  0
   48.4570    4.6756   20.5144 C   0  0  2  0  0  0  0  0  0  0  0  0
   48.8635    5.7503   18.1420 C   0  0  2  0  0  0  0  0  0  0  0  0
   47.3219    5.5974   20.9923 C   0  0  1  0  0  0  0  0  0  0  0  0
   48.4709    4.6225   17.1959 C   0  0  0  0  0  0  0  0  0  0  0  0
   47.8358    6.8624   21.6873 C   0  0  0  0  0  0  0  0  0  0  0  0
   48.8062    4.5625   16.0204 O   0  0  0  0  0  0  0  0  0  0  0  0
   48.6348    6.9347   22.6059 O   0  0  0  0  0  0  0  0  0  0  0  0
   49.9197    6.5226   17.5066 O   0  0  0  0  0  0  0  0  0  0  0  0
   46.4366    5.8926   19.9071 O   0  0  0  0  0  0  0  0  0  0  0  0
   50.1480    6.3629   20.0988 O   0  0  0  0  0  0  0  0  0  0  0  0
   49.2179    4.2127   21.6468 O   0  0  0  0  0  0  0  0  0  0  0  0
   47.2366    7.9818   21.2109 O   0  0  0  0  0  0  0  0  0  0  0  0
   47.6545    3.6954   17.7156 O   0  0  0  0  0  0  0  0  0  0  0  0
   49.0100    6.9346   22.1970 C   0  0  0  0  0  0  0  0  0  0  0  0
   49.1889    5.7872   21.5140 C   0  0  0  0  0  0  0  0  0  0  0  0
   48.4427    4.9997   16.6968 N   0  0  0  0  0  0  0  0  0  0  0  0
   48.2570    5.1467   20.5209 C   0  0  0  0  0  0  0  0  0  0  0  0
   47.8341    4.7426   18.0153 C   0  0  2  0  0  0  0  0  0  0  0  0
   50.0477    7.4095   23.1811 C   0  0  0  0  0  0  0  0  0  0  0  0
   47.8224    7.8477   22.0661 C   0  0  0  0  0  0  0  0  0  0  0  0
   47.4795    4.9325   15.6041 C   0  0  0  0  0  0  0  0  0  0  0  0
   48.8108    5.2574   19.0963 C   0  0  0  0  0  0  0  0  0  0  0  0
   47.5366    3.2501   18.1891 C   0  0  0  0  0  0  0  0  0  0  0  0
   46.6526    5.0343   18.0581 H   0  0  0  0  0  0  0  0  0  0  0  0
   47.8349    7.8251   22.3128 H   0  0  0  0  0  0  0  0  0  0  0  0
   47.4395    7.3546   17.5375 H   0  0  0  0  0  0  0  0  0  0  0  0
   49.0364    7.0140   18.1511 H   0  0  0  0  0  0  0  0  0  0  0  0
   47.9917    5.3441   20.7288 H   0  0  0  0  0  0  0  0  0  0  0  0
   50.3912    5.5591   17.5385 H   0  0  0  0  0  0  0  0  0  0  0  0
   50.3436    4.2215   16.3982 H   0  0  0  0  0  0  0  0  0  0  0  0
   50.6081    3.9096   18.1262 H   0  0  0  0  0  0  0  0  0  0  0  0
   48.5975    2.2382   18.0239 H   0  0  0  0  0  0  0  0  0  0  0  0
   47.0178    2.8317   17.4992 H   0  0  0  0  0  0  0  0  0  0  0  0
   48.3177    2.6441   16.3151 H   0  0  0  0  0  0  0  0  0  0  0  0
   48.7733    5.9713   23.5281 H   0  0  0  0  0  0  0  0  0  0  0  0
   47.1371    6.3565   24.0663 H   0  0  0  0  0  0  0  0  0  0  0  0
   47.3900    4.9812   22.9928 H   0  0  0  0  0  0  0  0  0  0  0  0
   47.6742    8.2470   19.7834 H   0  0  0  0  0  0  0  0  0  0  0  0
   46.4191    7.0198   19.7264 H   0  0  0  0  0  0  0  0  0  0  0  0
   50.1795    6.3006   20.0003 H   0  0  0  0  0  0  0  0  0  0  0  0
   50.1507    6.1616   21.7478 H   0  0  0  0  0  0  0  0  0  0  0  0
   49.9058    7.7432   20.9883 H   0  0  0  0  0  0  0  0  0  0  0  0
   50.2162    4.5150   19.2814 H   0  0  0  0  0  0  0  0  0  0  0  0
   47.9985    3.7785   20.0890 H   0  0  0  0  0  0  0  0  0  0  0  0
   48.0308    6.4451   18.2530 H   0  0  0  0  0  0  0  0  0  0  0  0
   46.7237    5.0759   21.7497 H   0  0  0  0  0  0  0  0  0  0  0  0
   49.7343    6.4948   16.5452 H   0  0  0  0  0  0  0  0  0  0  0  0
   45.9904    6.7276   20.1573 H   0  0  0  0  0  0  0  0  0  0  0  0
   50.6172    6.8019   19.3559 H   0  0  0  0  0  0  0  0  0  0  0  0
   49.7786    4.9709   21.9201 H   0  0  0  0  0  0  0  0  0  0  0  0
   47.6733    8.7000   21.7193 H   0  0  0  0  0  0  0  0  0  0  0  0
   47.4576    3.0838   16.9739 H   0  0  0  0  0  0  0  0  0  0  0  0
   50.1037    5.2195   21.6884 H   0  0  0  0  0  0  0  0  0  0  0  0
   48.8601    5.9307   16.6944 H   0  0  0  0  0  0  0  0  0  0  0  0
   47.2530    5.5773   20.5679 H   0  0  0  0  0  0  0  0  0  0  0  0
   48.1508    4.0936   20.8057 H   0  0  0  0  0  0  0  0  0  0  0  0
   46.8999    5.3118   18.1063 H   0  0  0  0  0  0  0  0  0  0  0  0
   50.8982    6.7230   23.2537 H   0  0  0  0  0  0  0  0  0  0  0  0
   50.4360    8.3884   22.8808 H   0  0  0  0  0  0  0  0  0  0  0  0
   49.6081    7.5010   24.1799 H   0  0  0  0  0  0  0  0  0  0  0  0
   47.1468    7.5693   21.2545 H   0  0  0  0  0  0  0  0  0  0  0  0
   48.1561    8.8714   21.8628 H   0  0  0  0  0  0  0  0  0  0  0  0
   47.2474    7.8523   22.9983 H   0  0  0  0  0  0  0  0  0  0  0  0
   47.0681    3.9271   15.4791 H   0  0  0  0  0  0  0  0  0  0  0  0
   47.9831    5.1898   14.6667 H   0  0  0  0  0  0  0  0  0  0  0  0
   46.6595    5.6439   15.7467 H   0  0  0  0  0  0  0  0  0  0  0  0
   49.7624    4.7119   19.0307 H   0  0  0  0  0  0  0  0  0  0  0  0
   49.0411    6.3131   18.8936 H   0  0  0  0  0  0  0  0  0  0  0  0
   46.8504    2.8793   17.4214 H   0  0  0  0  0  0  0  0  0  0  0  0
   48.4536    2.6525   18.1394 H   0  0  0  0  0  0  0  0  0  0  0  0
   47.0559    3.0506   19.1514 H   0  0  0  0  0  0  0  0  0  0  0  0
  2  1  2  3
  3  5  1  0
  4  2  1  0
  5  9  1  0
  6  1  1  0
  7  1  1  0
  8  3  1  0
  9  4  1  0
 10  5  1  0
 12 11  1  0
 13 11  1  0
 14 12  1  0
 15 13  1  0
 16 14  1  0
 17 15  2  0
 18 16  2  0
 13 19  1  0
 14 20  1  0
 11 21  1  0
 12 22  1  0
 23 16  1  0
 24 15  1  0
 26 25  2  3
 27 29  1  0
 28 26  1  0
 29 33  1  0
 30 25  1  0
 31 25  1  0
 32 27  1  0
 33 28  1  0
 34 29  1  0
  2 35  1  0
  3 36  1  0
  4 37  1  0
  4 38  1  0
  5 39  1  1
  6 40  1  0
  6 41  1  0
  6 42  1  0
  7 43  1  0
  7 44  1  0
  7 45  1  0
  8 46  1  0
  8 47  1  0
  8 48  1  0
  9 49  1  0
  9 50  1  0
 10 51  1  0
 10 52  1  0
 10 53  1  0
 11 54  1  6
 12 55  1  1
 13 56  1  1
 14 57  1  1
 19 58  1  0
 20 59  1  0
 21 60  1  0
 22 61  1  0
 23 62  1  0
 24 63  1  0
 26 64  1  0
 27 65  1  0
 28 66  1  0
 28 67  1  0
 29 68  1  1
 30 69  1  0
 30 70  1  0
 30 71  1  0
 31 72  1  0
 31 73  1  0
 31 74  1  0
 32 75  1  0
 32 76  1  0
 32 77  1  0
 33 78  1  0
 33 79  1  0
 34 80  1  0
 34 81  1  0
 34 82  1  0
M  END
> <Uni-Dock RESULT> 
ENERGY=   -4.196  LOWER_BOUND=    5.703  UPPER_BOUND=    8.156
INTER + INTRA:          -4.196
INTER:                  -4.196
INTRA:                   0.000
UNBOUND:                 0.000

$$$$

     RDKit          3D

 82 79  0  0  0  0  0  0  0  0999 V2000
   47.2783   11.4178   20.4783 C   0  0  0  0  0  0  0  0  0  0  0  0
   48.4732   10.8205   20.3030 C   0  0  0  0  0  0  0  0  0  0  0  0
   49.8223    7.4503   22.8086 N   0  0  0  0  0  0  0  0  0  0  0  0
   48.7639    9.4646   19.7191 C   0  0  0  0  0  0  0  0  0  0  0  0
   48.8625    8.2311   22.0086 C   0  0  1  0  0  0  0  0  0  0  0  0
   45.9434   10.8373   20.1023 C   0  0  0  0  0  0  0  0  0  0  0  0
   47.1963   12.7900   21.0973 C   0  0  0  0  0  0  0  0  0  0  0  0
   49.4903    7.4140   24.2249 C   0  0  0  0  0  0  0  0  0  0  0  0
   49.5609    8.5623   20.6722 C   0  0  0  0  0  0  0  0  0  0  0  0
   47.5613    7.4524   21.7914 C   0  0  0  0  0  0  0  0  0  0  0  0
   47.0836    9.3784   21.4356 C   0  0  1  0  0  0  0  0  0  0  0  0
   47.9454    9.6166   22.6947 C   0  0  2  0  0  0  0  0  0  0  0  0
   47.5824    9.9618   20.1067 C   0  0  2  0  0  0  0  0  0  0  0  0
   49.3881    9.0841   22.6549 C   0  0  1  0  0  0  0  0  0  0  0  0
   47.4114   11.4716   19.9948 C   0  0  0  0  0  0  0  0  0  0  0  0
   49.4563    7.5642   22.4735 C   0  0  0  0  0  0  0  0  0  0  0  0
   46.9023   12.0372   19.0364 O   0  0  0  0  0  0  0  0  0  0  0  0
   48.8810    6.7101   23.1268 O   0  0  0  0  0  0  0  0  0  0  0  0
   46.7763    9.3402   19.0677 O   0  0  0  0  0  0  0  0  0  0  0  0
   50.1456    9.7862   21.6640 O   0  0  0  0  0  0  0  0  0  0  0  0
   46.9023    7.9533   21.2717 O   0  0  0  0  0  0  0  0  0  0  0  0
   47.2521    9.0603   23.8285 O   0  0  0  0  0  0  0  0  0  0  0  0
   50.3270    7.2087   21.4966 O   0  0  0  0  0  0  0  0  0  0  0  0
   47.9244   12.1839   21.0076 O   0  0  0  0  0  0  0  0  0  0  0  0
   48.4717    6.7955   22.7619 C   0  0  0  0  0  0  0  0  0  0  0  0
   47.8048    7.9639   22.8336 C   0  0  0  0  0  0  0  0  0  0  0  0
   47.4928   11.4732   19.3739 N   0  0  0  0  0  0  0  0  0  0  0  0
   48.2949    9.3340   22.4497 C   0  0  0  0  0  0  0  0  0  0  0  0
   48.1667   11.1681   20.6497 C   0  0  2  0  0  0  0  0  0  0  0  0
   47.8249    5.5152   23.2237 C   0  0  0  0  0  0  0  0  0  0  0  0
   49.8679    6.6229   22.2305 C   0  0  0  0  0  0  0  0  0  0  0  0
   48.1955   12.4798   18.5872 C   0  0  0  0  0  0  0  0  0  0  0  0
   47.6049    9.8273   21.1734 C   0  0  0  0  0  0  0  0  0  0  0  0
   47.9508   12.3016   21.6571 C   0  0  0  0  0  0  0  0  0  0  0  0
   49.3679   11.3638   20.6110 H   0  0  0  0  0  0  0  0  0  0  0  0
   49.8858    6.4999   22.4451 H   0  0  0  0  0  0  0  0  0  0  0  0
   49.3653    9.6187   18.8142 H   0  0  0  0  0  0  0  0  0  0  0  0
   47.8620    8.9456   19.3882 H   0  0  0  0  0  0  0  0  0  0  0  0
   48.6403    9.1702   22.5297 H   0  0  0  0  0  0  0  0  0  0  0  0
   46.0107    9.8701   19.6011 H   0  0  0  0  0  0  0  0  0  0  0  0
   45.4182   11.5158   19.4214 H   0  0  0  0  0  0  0  0  0  0  0  0
   45.3268   10.7036   20.9978 H   0  0  0  0  0  0  0  0  0  0  0  0
   46.5929   12.7575   22.0105 H   0  0  0  0  0  0  0  0  0  0  0  0
   48.1815   13.1859   21.3654 H   0  0  0  0  0  0  0  0  0  0  0  0
   46.7338   13.4944   20.3979 H   0  0  0  0  0  0  0  0  0  0  0  0
   48.5584    6.8750   24.4178 H   0  0  0  0  0  0  0  0  0  0  0  0
   50.2880    6.8973   24.7686 H   0  0  0  0  0  0  0  0  0  0  0  0
   49.4144    8.4233   24.6421 H   0  0  0  0  0  0  0  0  0  0  0  0
   49.7977    7.6308   20.1397 H   0  0  0  0  0  0  0  0  0  0  0  0
   50.5253    9.0470   20.8811 H   0  0  0  0  0  0  0  0  0  0  0  0
   46.8366    8.0423   21.2234 H   0  0  0  0  0  0  0  0  0  0  0  0
   47.0797    7.1986   22.7409 H   0  0  0  0  0  0  0  0  0  0  0  0
   47.7398    6.5205   21.2433 H   0  0  0  0  0  0  0  0  0  0  0  0
   46.0745    9.7614   21.6365 H   0  0  0  0  0  0  0  0  0  0  0  0
   47.9943   10.6921   22.8859 H   0  0  0  0  0  0  0  0  0  0  0  0
   48.6110    9.6887   19.8700 H   0  0  0  0  0  0  0  0  0  0  0  0
   49.8757    9.2811   23.6176 H   0  0  0  0  0  0  0  0  0  0  0  0
   46.7927    9.9571   18.3070 H   0  0  0  0  0  0  0  0  0  0  0  0
   50.8861    9.1885   21.4331 H   0  0  0  0  0  0  0  0  0  0  0  0
   46.5077    7.8580   20.3773 H   0  0  0  0  0  0  0  0  0  0  0  0
   47.0373    8.1344   23.5826 H   0  0  0  0  0  0  0  0  0  0  0  0
   50.2489    6.2296   21.4761 H   0  0  0  0  0  0  0  0  0  0  0  0
   47.7822   13.1221   20.7577 H   0  0  0  0  0  0  0  0  0  0  0  0
   46.7875    7.9546   23.2269 H   0  0  0  0  0  0  0  0  0  0  0  0
   47.4289   10.6220   18.8149 H   0  0  0  0  0  0  0  0  0  0  0  0
   49.3807    9.3575   22.3225 H   0  0  0  0  0  0  0  0  0  0  0  0
   48.0711   10.0064   23.2858 H   0  0  0  0  0  0  0  0  0  0  0  0
   49.2426   11.0378   20.4752 H   0  0  0  0  0  0  0  0  0  0  0  0
   46.8106    5.6747   23.6053 H   0  0  0  0  0  0  0  0  0  0  0  0
   47.7595    4.8023   22.3950 H   0  0  0  0  0  0  0  0  0  0  0  0
   48.4148    5.0616   24.0271 H   0  0  0  0  0  0  0  0  0  0  0  0
   50.2737    7.5271   21.7719 H   0  0  0  0  0  0  0  0  0  0  0  0
   49.8832    5.8436   21.4604 H   0  0  0  0  0  0  0  0  0  0  0  0
   50.5429    6.3212   23.0385 H   0  0  0  0  0  0  0  0  0  0  0  0
   48.2087   13.4544   19.0828 H   0  0  0  0  0  0  0  0  0  0  0  0
   47.6766   12.6147   17.6326 H   0  0  0  0  0  0  0  0  0  0  0  0
   49.2228   12.1722   18.3662 H   0  0  0  0  0  0  0  0  0  0  0  0
   46.5249    9.9196   21.3541 H   0  0  0  0  0  0  0  0  0  0  0  0
   47.7271    9.0619   20.3937 H   0  0  0  0  0  0  0  0  0  0  0  0
   48.3412   13.2549   21.2875 H   0  0  0  0  0  0  0  0  0  0  0  0
   46.8873   12.4370   21.8829 H   0  0  0  0  0  0  0  0  0  0  0  0
   48.4723   12.1014   22.5978 H   0  0  0  0  0  0  0  0  0  0  0  0
  2  1  2  3
  3  5  1  0
  4  2  1  0
  5  9  1  0
  6  1  1  0
  7  1  1  0
  8  3  1  0
  9  4  1  0
 10  5  1  0
 12 11  1  0
 13 11  1  0
 14 12  1  0
 15 13  1  0
 16 14  1  0
 17 15  2  0
 18 16  2  0
 13 19  1  0
 14 20  1  0
 11 21  1  0
 12 22  1  0
 23 16  1  0
 24 15  1  0
 26 25  2  3
 27 29  1  0
 28 26  1  0
 29 33  1  0
 30 25  1  0
 31 25  1  0
 32 27  1  0
 33 28  1  0
 34 29  1  0
  2 35  1  0
  3 36  1  0
  4 37  1  0
  4 38  1  0
  5 39  1  1
  6 40  1  0
  6 41  1  0
  6 42  1  0
  7 43  1  0
  7 44  1  0
  7 45  1  0
  8 46  1  0
  8 47  1  0
  8 48  1  0
  9 49  1  0
  9 50  1  0
 10 51  1  0
 10 52  1  0
 10 53  1  0
 11 54  1  6
 12 55  1  1
 13 56  1  1
 14 57  1  1
 19 58  1  0
 20 59  1  0
 21 60  1  0
 22 61  1  0
 23 62  1  0
 24 63  1  0
 26 64  1  0
 27 65  1  0
 28 66  1  0
 28 67  1  0
 29 68  1  1
 30 69  1  0
 30 70  1  0
 30 71  1  0
 31 72  1  0
 31 73  1  0
 31 74  1  0
 32 75  1  0
 32 76  1  0
 32 77  1  0
 33 78  1  0
 33 79  1  0
 34 80  1  0
 34 81  1  0
 34 82  1  0
M  END
> <Uni-Dock RESULT> 
ENERGY=   -4.146  LOWER_BOUND=    8.700  UPPER_BOUND=   10.551
INTER + INTRA:          -4.146
INTER:                  -4.146
INTRA:                   0.000
UNBOUND:                 0.000

$$$$

     RDKit          3D

 82 79  0  0  0  0  0  0  0  0999 V2000
   48.5392    7.9919   20.6898 C   0  0  0  0  0  0  0  0  0  0  0  0
   49.4246    6.9827   20.5769 C   0  0  0  0  0  0  0  0  0  0  0  0
   48.6491    3.4237   18.0892 N   0  0  0  0  0  0  0  0  0  0  0  0
   50.2962    6.6308   19.4021 C   0  0  0  0  0  0  0  0  0  0  0  0
   48.6651    4.8613   18.4116 C   0  0  1  0  0  0  0  0  0  0  0  0
   48.2380    9.0175   19.6325 C   0  0  0  0  0  0  0  0  0  0  0  0
   47.7469    8.1716   21.9597 C   0  0  0  0  0  0  0  0  0  0  0  0
   47.3053    2.8721   18.0016 C   0  0  0  0  0  0  0  0  0  0  0  0
   50.0875    5.1901   18.9138 C   0  0  0  0  0  0  0  0  0  0  0  0
   48.2845    5.7058   17.1915 C   0  0  0  0  0  0  0  0  0  0  0  0
   47.9931    6.9165   18.7769 C   0  0  1  0  0  0  0  0  0  0  0  0
   47.3695    5.6408   19.3837 C   0  0  2  0  0  0  0  0  0  0  0  0
   49.2594    7.4775   19.4379 C   0  0  2  0  0  0  0  0  0  0  0  0
   48.2638    4.3900   19.4306 C   0  0  1  0  0  0  0  0  0  0  0  0
   49.0013    8.1792   20.7654 C   0  0  0  0  0  0  0  0  0  0  0  0
   48.7116    3.9266   18.0406 C   0  0  0  0  0  0  0  0  0  0  0  0
   49.4260    9.2911   21.0499 O   0  0  0  0  0  0  0  0  0  0  0  0
   48.0105    3.7095   17.0666 O   0  0  0  0  0  0  0  0  0  0  0  0
   49.7965    8.4588   18.5082 O   0  0  0  0  0  0  0  0  0  0  0  0
   49.3678    4.6063   20.3154 O   0  0  0  0  0  0  0  0  0  0  0  0
   48.2771    6.6644   17.3817 O   0  0  0  0  0  0  0  0  0  0  0  0
   46.1562    5.3453   18.6650 O   0  0  0  0  0  0  0  0  0  0  0  0
   50.0464    3.6923   17.9897 O   0  0  0  0  0  0  0  0  0  0  0  0
   48.3139    7.4653   21.6678 O   0  0  0  0  0  0  0  0  0  0  0  0
   48.0796    4.2522   16.9737 C   0  0  0  0  0  0  0  0  0  0  0  0
   47.4635    5.1119   17.8083 C   0  0  0  0  0  0  0  0  0  0  0  0
   49.5586    8.4648   20.7665 N   0  0  0  0  0  0  0  0  0  0  0  0
   47.8074    5.4174   19.2411 C   0  0  0  0  0  0  0  0  0  0  0  0
   48.9142    7.1387   20.8007 C   0  0  2  0  0  0  0  0  0  0  0  0
   47.5721    4.0524   15.5690 C   0  0  0  0  0  0  0  0  0  0  0  0
   49.2943    3.4328   17.3118 C   0  0  0  0  0  0  0  0  0  0  0  0
   50.4119    8.7113   21.9228 C   0  0  0  0  0  0  0  0  0  0  0  0
   48.4112    6.8195   19.3750 C   0  0  0  0  0  0  0  0  0  0  0  0
   47.7699    7.1223   21.8190 C   0  0  0  0  0  0  0  0  0  0  0  0
   49.5536    6.3161   21.4310 H   0  0  0  0  0  0  0  0  0  0  0  0
   49.1473    3.2577   17.2154 H   0  0  0  0  0  0  0  0  0  0  0  0
   51.3401    6.7324   19.7254 H   0  0  0  0  0  0  0  0  0  0  0  0
   50.1782    7.3239   18.5666 H   0  0  0  0  0  0  0  0  0  0  0  0
   47.9536    5.0556   19.2233 H   0  0  0  0  0  0  0  0  0  0  0  0
   48.8551    8.9200   18.7377 H   0  0  0  0  0  0  0  0  0  0  0  0
   48.4049   10.0248   20.0293 H   0  0  0  0  0  0  0  0  0  0  0  0
   47.1904    8.9396   19.3219 H   0  0  0  0  0  0  0  0  0  0  0  0
   46.6743    8.1079   21.7486 H   0  0  0  0  0  0  0  0  0  0  0  0
   47.9825    7.4089   22.7094 H   0  0  0  0  0  0  0  0  0  0  0  0
   47.9582    9.1503   22.4031 H   0  0  0  0  0  0  0  0  0  0  0  0
   46.7409    3.2887   17.1624 H   0  0  0  0  0  0  0  0  0  0  0  0
   47.3696    1.7896   17.8500 H   0  0  0  0  0  0  0  0  0  0  0  0
   46.7458    3.0374   18.9280 H   0  0  0  0  0  0  0  0  0  0  0  0
   50.8149    4.9936   18.1141 H   0  0  0  0  0  0  0  0  0  0  0  0
   50.3458    4.5062   19.7348 H   0  0  0  0  0  0  0  0  0  0  0  0
   48.2667    6.7713   17.4370 H   0  0  0  0  0  0  0  0  0  0  0  0
   47.2848    5.4548   16.8231 H   0  0  0  0  0  0  0  0  0  0  0  0
   48.9938    5.5620   16.3687 H   0  0  0  0  0  0  0  0  0  0  0  0
   47.2225    7.6983   18.7625 H   0  0  0  0  0  0  0  0  0  0  0  0
   47.0523    5.8600   20.4070 H   0  0  0  0  0  0  0  0  0  0  0  0
   50.0512    6.7381   19.5595 H   0  0  0  0  0  0  0  0  0  0  0  0
   47.6929    3.5494   19.8440 H   0  0  0  0  0  0  0  0  0  0  0  0
   50.3291    9.0793   19.0473 H   0  0  0  0  0  0  0  0  0  0  0  0
   50.0569    3.9723   20.0288 H   0  0  0  0  0  0  0  0  0  0  0  0
   48.8235    7.4307   17.1008 H   0  0  0  0  0  0  0  0  0  0  0  0
   46.4044    5.3328   17.7152 H   0  0  0  0  0  0  0  0  0  0  0  0
   50.1899    3.4325   17.0533 H   0  0  0  0  0  0  0  0  0  0  0  0
   48.2837    8.0293   22.4701 H   0  0  0  0  0  0  0  0  0  0  0  0
   46.5965    5.6600   17.4374 H   0  0  0  0  0  0  0  0  0  0  0  0
   50.1337    8.5380   19.9269 H   0  0  0  0  0  0  0  0  0  0  0  0
   48.4881    4.6735   19.6643 H   0  0  0  0  0  0  0  0  0  0  0  0
   46.8800    5.3470   19.8211 H   0  0  0  0  0  0  0  0  0  0  0  0
   49.6552    6.3769   21.0754 H   0  0  0  0  0  0  0  0  0  0  0  0
   46.6875    4.6617   15.3548 H   0  0  0  0  0  0  0  0  0  0  0  0
   48.3460    4.3241   14.8434 H   0  0  0  0  0  0  0  0  0  0  0  0
   47.2996    3.0036   15.4108 H   0  0  0  0  0  0  0  0  0  0  0  0
   49.7352    3.6864   18.2782 H   0  0  0  0  0  0  0  0  0  0  0  0
   50.0741    3.5881   16.5579 H   0  0  0  0  0  0  0  0  0  0  0  0
   49.0373    2.3682   17.3263 H   0  0  0  0  0  0  0  0  0  0  0  0
   49.8411    8.7535   22.8544 H   0  0  0  0  0  0  0  0  0  0  0  0
   50.9024    9.6831   21.8051 H   0  0  0  0  0  0  0  0  0  0  0  0
   51.1961    7.9524   22.0128 H   0  0  0  0  0  0  0  0  0  0  0  0
   47.6695    7.5681   19.0639 H   0  0  0  0  0  0  0  0  0  0  0  0
   49.2537    6.9039   18.6737 H   0  0  0  0  0  0  0  0  0  0  0  0
   48.1204    7.3547   22.8294 H   0  0  0  0  0  0  0  0  0  0  0  0
   46.9922    7.8479   21.5562 H   0  0  0  0  0  0  0  0  0  0  0  0
   47.3037    6.1343   21.8763 H   0  0  0  0  0  0  0  0  0  0  0  0
  2  1  2  3
  3  5  1  0
  4  2  1  0
  5  9  1  0
  6  1  1  0
  7  1  1  0
  8  3  1  0
  9  4  1  0
 10  5  1  0
 12 11  1  0
 13 11  1  0
 14 12  1  0
 15 13  1  0
 16 14  1  0
 17 15  2  0
 18 16  2  0
 13 19  1  0
 14 20  1  0
 11 21  1  0
 12 22  1  0
 23 16  1  0
 24 15  1  0
 26 25  2  3
 27 29  1  0
 28 26  1  0
 29 33  1  0
 30 25  1  0
 31 25  1  0
 32 27  1  0
 33 28  1  0
 34 29  1  0
  2 35  1  0
  3 36  1  0
  4 37  1  0
  4 38  1  0
  5 39  1  1
  6 40  1  0
  6 41  1  0
  6 42  1  0
  7 43  1  0
  7 44  1  0
  7 45  1  0
  8 46  1  0
  8 47  1  0
  8 48  1  0
  9 49  1  0
  9 50  1  0
 10 51  1  0
 10 52  1  0
 10 53  1  0
 11 54  1  6
 12 55  1  1
 13 56  1  1
 14 57  1  1
 19 58  1  0
 20 59  1  0
 21 60  1  0
 22 61  1  0
 23 62  1  0
 24 63  1  0
 26 64  1  0
 27 65  1  0
 28 66  1  0
 28 67  1  0
 29 68  1  1
 30 69  1  0
 30 70  1  0
 30 71  1  0
 31 72  1  0
 31 73  1  0
 31 74  1  0
 32 75  1  0
 32 76  1  0
 32 77  1  0
 33 78  1  0
 33 79  1  0
 34 80  1  0
 34 81  1  0
 34 82  1  0
M  END
> <Uni-Dock RESULT> 
ENERGY=   -4.135  LOWER_BOUND=    5.285  UPPER_BOUND=    8.623
INTER + INTRA:          -4.135
INTER:                  -4.135
INTRA:                   0.000
UNBOUND:                 0.000

$$$$

     RDKit          3D

 82 79  0  0  0  0  0  0  0  0999 V2000
   49.2139    6.3846   17.9931 C   0  0  0  0  0  0  0  0  0  0  0  0
   48.4370    5.5063   18.6567 C   0  0  0  0  0  0  0  0  0  0  0  0
   48.2276    5.3919   23.0612 N   0  0  0  0  0  0  0  0  0  0  0  0
   47.1532    5.7670   19.3968 C   0  0  0  0  0  0  0  0  0  0  0  0
   48.2694    6.0287   21.7332 C   0  0  1  0  0  0  0  0  0  0  0  0
   48.9423    7.8553   17.8400 C   0  0  0  0  0  0  0  0  0  0  0  0
   50.4805    5.9227   17.3184 C   0  0  0  0  0  0  0  0  0  0  0  0
   49.4190    5.6482   23.8563 C   0  0  0  0  0  0  0  0  0  0  0  0
   47.2085    5.3192   20.8646 C   0  0  0  0  0  0  0  0  0  0  0  0
   48.0065    7.5344   21.8336 C   0  0  0  0  0  0  0  0  0  0  0  0
   48.9052    7.2786   20.0472 C   0  0  1  0  0  0  0  0  0  0  0  0
   49.8130    6.3332   20.8637 C   0  0  2  0  0  0  0  0  0  0  0  0
   48.0403    6.6603   18.9404 C   0  0  2  0  0  0  0  0  0  0  0  0
   49.1151    5.1948   21.6277 C   0  0  1  0  0  0  0  0  0  0  0  0
   48.8248    6.2633   17.6961 C   0  0  0  0  0  0  0  0  0  0  0  0
   48.1188    5.7042   22.6742 C   0  0  0  0  0  0  0  0  0  0  0  0
   48.5058    6.5694   16.5549 O   0  0  0  0  0  0  0  0  0  0  0  0
   48.3179    6.5250   23.5540 O   0  0  0  0  0  0  0  0  0  0  0  0
   47.0824    7.6863   18.5592 O   0  0  0  0  0  0  0  0  0  0  0  0
   48.5170    4.2771   20.7065 O   0  0  0  0  0  0  0  0  0  0  0  0
   48.0394    7.9834   20.9661 O   0  0  0  0  0  0  0  0  0  0  0  0
   50.5881    7.1307   21.7796 O   0  0  0  0  0  0  0  0  0  0  0  0
   46.9216    5.0736   22.5839 O   0  0  0  0  0  0  0  0  0  0  0  0
   49.8877    5.4767   17.9144 O   0  0  0  0  0  0  0  0  0  0  0  0
   48.1809    6.8896   23.1587 C   0  0  0  0  0  0  0  0  0  0  0  0
   49.0523    7.0709   22.1473 C   0  0  0  0  0  0  0  0  0  0  0  0
   48.3112    6.2158   17.3409 N   0  0  0  0  0  0  0  0  0  0  0  0
   49.3726    6.1253   21.0213 C   0  0  0  0  0  0  0  0  0  0  0  0
   48.9827    5.6456   18.5237 C   0  0  2  0  0  0  0  0  0  0  0  0
   48.0125    7.9437   24.2224 C   0  0  0  0  0  0  0  0  0  0  0  0
   47.3021    5.6833   23.3429 C   0  0  0  0  0  0  0  0  0  0  0  0
   48.0568    5.2264   16.3005 C   0  0  0  0  0  0  0  0  0  0  0  0
   48.8082    6.6405   19.6930 C   0  0  0  0  0  0  0  0  0  0  0  0
   50.4616    5.3787   18.2266 C   0  0  0  0  0  0  0  0  0  0  0  0
   48.7482    4.4608   18.6779 H   0  0  0  0  0  0  0  0  0  0  0  0
   47.4004    5.7025   23.5699 H   0  0  0  0  0  0  0  0  0  0  0  0
   46.3629    5.1936   18.8959 H   0  0  0  0  0  0  0  0  0  0  0  0
   46.8391    6.8113   19.3417 H   0  0  0  0  0  0  0  0  0  0  0  0
   49.2567    5.8620   21.2856 H   0  0  0  0  0  0  0  0  0  0  0  0
   47.9956    8.1751   18.2787 H   0  0  0  0  0  0  0  0  0  0  0  0
   48.9101    8.1217   16.7779 H   0  0  0  0  0  0  0  0  0  0  0  0
   49.7403    8.4357   18.3158 H   0  0  0  0  0  0  0  0  0  0  0  0
   51.3446    6.4525   17.7328 H   0  0  0  0  0  0  0  0  0  0  0  0
   50.6556    4.8498   17.4502 H   0  0  0  0  0  0  0  0  0  0  0  0
   50.4314    6.1221   16.2428 H   0  0  0  0  0  0  0  0  0  0  0  0
   49.5179    6.7037   24.1252 H   0  0  0  0  0  0  0  0  0  0  0  0
   49.3605    5.0754   24.7876 H   0  0  0  0  0  0  0  0  0  0  0  0
   50.3244    5.3247   23.3327 H   0  0  0  0  0  0  0  0  0  0  0  0
   46.2125    5.4700   21.3035 H   0  0  0  0  0  0  0  0  0  0  0  0
   47.3906    4.2353   20.8884 H   0  0  0  0  0  0  0  0  0  0  0  0
   48.0669    8.0135   20.8524 H   0  0  0  0  0  0  0  0  0  0  0  0
   48.7464    8.0317   22.4685 H   0  0  0  0  0  0  0  0  0  0  0  0
   47.0130    7.7401   22.2477 H   0  0  0  0  0  0  0  0  0  0  0  0
   49.5366    8.0629   19.6097 H   0  0  0  0  0  0  0  0  0  0  0  0
   50.5429    5.8797   20.1874 H   0  0  0  0  0  0  0  0  0  0  0  0
   47.4358    5.8187   19.2792 H   0  0  0  0  0  0  0  0  0  0  0  0
   49.8619    4.6254   22.1946 H   0  0  0  0  0  0  0  0  0  0  0  0
   46.8125    7.4769   17.6412 H   0  0  0  0  0  0  0  0  0  0  0  0
   47.8134    3.8230   21.2141 H   0  0  0  0  0  0  0  0  0  0  0  0
   47.3787    8.4258   20.3894 H   0  0  0  0  0  0  0  0  0  0  0  0
   49.9400    7.6850   22.2661 H   0  0  0  0  0  0  0  0  0  0  0  0
   46.3880    5.5106   23.2835 H   0  0  0  0  0  0  0  0  0  0  0  0
   50.2411    5.2716   17.0223 H   0  0  0  0  0  0  0  0  0  0  0  0
   49.6234    7.9997   22.1179 H   0  0  0  0  0  0  0  0  0  0  0  0
   47.4163    6.6167   17.6225 H   0  0  0  0  0  0  0  0  0  0  0  0
   49.0030    5.1155   21.2197 H   0  0  0  0  0  0  0  0  0  0  0  0
   50.4642    6.0448   20.9637 H   0  0  0  0  0  0  0  0  0  0  0  0
   48.4937    4.7043   18.8059 H   0  0  0  0  0  0  0  0  0  0  0  0
   48.6661    8.8076   24.0602 H   0  0  0  0  0  0  0  0  0  0  0  0
   46.9796    8.3071   24.2367 H   0  0  0  0  0  0  0  0  0  0  0  0
   48.2489    7.5282   25.2076 H   0  0  0  0  0  0  0  0  0  0  0  0
   47.3291    4.9922   22.4978 H   0  0  0  0  0  0  0  0  0  0  0  0
   46.2584    5.9938   23.4643 H   0  0  0  0  0  0  0  0  0  0  0  0
   47.6035    5.1323   24.2402 H   0  0  0  0  0  0  0  0  0  0  0  0
   48.9823    4.8295   15.8745 H   0  0  0  0  0  0  0  0  0  0  0  0
   47.5068    5.7013   15.4816 H   0  0  0  0  0  0  0  0  0  0  0  0
   47.4460    4.3980   16.6743 H   0  0  0  0  0  0  0  0  0  0  0  0
   49.2823    7.5995   19.4419 H   0  0  0  0  0  0  0  0  0  0  0  0
   47.7367    6.8472   19.8269 H   0  0  0  0  0  0  0  0  0  0  0  0
   50.5902    4.6797   17.3944 H   0  0  0  0  0  0  0  0  0  0  0  0
   50.9909    6.3044   17.9750 H   0  0  0  0  0  0  0  0  0  0  0  0
   50.9639    4.9263   19.0868 H   0  0  0  0  0  0  0  0  0  0  0  0
  2  1  2  3
  3  5  1  0
  4  2  1  0
  5  9  1  0
  6  1  1  0
  7  1  1  0
  8  3  1  0
  9  4  1  0
 10  5  1  0
 12 11  1  0
 13 11  1  0
 14 12  1  0
 15 13  1  0
 16 14  1  0
 17 15  2  0
 18 16  2  0
 13 19  1  0
 14 20  1  0
 11 21  1  0
 12 22  1  0
 23 16  1  0
 24 15  1  0
 26 25  2  3
 27 29  1  0
 28 26  1  0
 29 33  1  0
 30 25  1  0
 31 25  1  0
 32 27  1  0
 33 28  1  0
 34 29  1  0
  2 35  1  0
  3 36  1  0
  4 37  1  0
  4 38  1  0
  5 39  1  1
  6 40  1  0
  6 41  1  0
  6 42  1  0
  7 43  1  0
  7 44  1  0
  7 45  1  0
  8 46  1  0
  8 47  1  0
  8 48  1  0
  9 49  1  0
  9 50  1  0
 10 51  1  0
 10 52  1  0
 10 53  1  0
 11 54  1  6
 12 55  1  1
 13 56  1  1
 14 57  1  1
 19 58  1  0
 20 59  1  0
 21 60  1  0
 22 61  1  0
 23 62  1  0
 24 63  1  0
 26 64  1  0
 27 65  1  0
 28 66  1  0
 28 67  1  0
 29 68  1  1
 30 69  1  0
 30 70  1  0
 30 71  1  0
 31 72  1  0
 31 73  1  0
 31 74  1  0
 32 75  1  0
 32 76  1  0
 32 77  1  0
 33 78  1  0
 33 79  1  0
 34 80  1  0
 34 81  1  0
 34 82  1  0
M  END
> <Uni-Dock RESULT> 
ENERGY=   -4.019  LOWER_BOUND=    6.279  UPPER_BOUND=    8.771
INTER + INTRA:          -4.019
INTER:                  -4.019
INTRA:                   0.000
UNBOUND:                 0.000

$$$$

     RDKit          3D

 82 79  0  0  0  0  0  0  0  0999 V2000
   48.0156   12.3091   19.8972 C   0  0  0  0  0  0  0  0  0  0  0  0
   47.9767   11.1993   19.1342 C   0  0  0  0  0  0  0  0  0  0  0  0
   48.7130    7.1728   20.7777 N   0  0  0  0  0  0  0  0  0  0  0  0
   46.9245   10.1243   19.1007 C   0  0  0  0  0  0  0  0  0  0  0  0
   48.1501    8.5342   20.7568 C   0  0  1  0  0  0  0  0  0  0  0  0
   46.9732   12.7226   20.8987 C   0  0  0  0  0  0  0  0  0  0  0  0
   49.1742   13.2677   19.7889 C   0  0  0  0  0  0  0  0  0  0  0  0
   49.7068    6.9808   21.8231 C   0  0  0  0  0  0  0  0  0  0  0  0
   47.4926    8.7240   19.3728 C   0  0  0  0  0  0  0  0  0  0  0  0
   47.1448    8.7344   21.8951 C   0  0  0  0  0  0  0  0  0  0  0  0
   47.6768   10.5962   21.3342 C   0  0  1  0  0  0  0  0  0  0  0  0
   49.0872    9.9681   21.3019 C   0  0  2  0  0  0  0  0  0  0  0  0
   47.0857   11.0953   20.0087 C   0  0  2  0  0  0  0  0  0  0  0  0
   49.2722    8.7317   20.4054 C   0  0  1  0  0  0  0  0  0  0  0  0
   47.7039   12.3954   19.5101 C   0  0  0  0  0  0  0  0  0  0  0  0
   48.3815    7.5566   20.8217 C   0  0  0  0  0  0  0  0  0  0  0  0
   47.0581   13.3693   19.1465 O   0  0  0  0  0  0  0  0  0  0  0  0
   48.2735    7.0609   21.9307 O   0  0  0  0  0  0  0  0  0  0  0  0
   45.6746   11.3380   20.2647 O   0  0  0  0  0  0  0  0  0  0  0  0
   49.0967    9.0890   19.0306 O   0  0  0  0  0  0  0  0  0  0  0  0
   46.7638    9.6344   21.9103 O   0  0  0  0  0  0  0  0  0  0  0  0
   49.4716    9.6514   22.6537 O   0  0  0  0  0  0  0  0  0  0  0  0
   47.7195    7.0230   19.7653 O   0  0  0  0  0  0  0  0  0  0  0  0
   49.0414   12.3990   19.4239 O   0  0  0  0  0  0  0  0  0  0  0  0
   47.8891    7.4550   22.0011 C   0  0  0  0  0  0  0  0  0  0  0  0
   48.3130    8.7299   22.1006 C   0  0  0  0  0  0  0  0  0  0  0  0
   47.2394   12.5055   19.1049 N   0  0  0  0  0  0  0  0  0  0  0  0
   48.8674    9.6083   21.0117 C   0  0  0  0  0  0  0  0  0  0  0  0
   48.3245   11.5594   19.4246 C   0  0  2  0  0  0  0  0  0  0  0  0
   47.3892    6.7173   23.2162 C   0  0  0  0  0  0  0  0  0  0  0  0
   47.8505    6.6486   20.7323 C   0  0  0  0  0  0  0  0  0  0  0  0
   47.3617   13.0798   17.7703 C   0  0  0  0  0  0  0  0  0  0  0  0
   47.8718   10.7101   20.6334 C   0  0  0  0  0  0  0  0  0  0  0  0
   49.6254   12.3122   19.7202 C   0  0  0  0  0  0  0  0  0  0  0  0
   48.7978   11.0281   18.4364 H   0  0  0  0  0  0  0  0  0  0  0  0
   47.9646    6.4887   20.8838 H   0  0  0  0  0  0  0  0  0  0  0  0
   46.4871   10.1241   18.0942 H   0  0  0  0  0  0  0  0  0  0  0  0
   46.0951   10.3244   19.7820 H   0  0  0  0  0  0  0  0  0  0  0  0
   48.9644    9.2616   20.8601 H   0  0  0  0  0  0  0  0  0  0  0  0
   46.1083   12.0579   20.9320 H   0  0  0  0  0  0  0  0  0  0  0  0
   46.5994   13.7239   20.6587 H   0  0  0  0  0  0  0  0  0  0  0  0
   47.4084   12.7498   21.9036 H   0  0  0  0  0  0  0  0  0  0  0  0
   49.6791   13.3615   20.7560 H   0  0  0  0  0  0  0  0  0  0  0  0
   49.9195   12.9396   19.0568 H   0  0  0  0  0  0  0  0  0  0  0  0
   48.8200   14.2575   19.4823 H   0  0  0  0  0  0  0  0  0  0  0  0
   49.2729    7.0512   22.8246 H   0  0  0  0  0  0  0  0  0  0  0  0
   50.1455    5.9825   21.7240 H   0  0  0  0  0  0  0  0  0  0  0  0
   50.5235    7.7044   21.7339 H   0  0  0  0  0  0  0  0  0  0  0  0
   46.6780    7.9970   19.2494 H   0  0  0  0  0  0  0  0  0  0  0  0
   48.2289    8.4918   18.5902 H   0  0  0  0  0  0  0  0  0  0  0  0
   46.7484    9.7536   21.8992 H   0  0  0  0  0  0  0  0  0  0  0  0
   47.6075    8.5768   22.8744 H   0  0  0  0  0  0  0  0  0  0  0  0
   46.2979    8.0446   21.8066 H   0  0  0  0  0  0  0  0  0  0  0  0
   47.6901   11.4258   22.0531 H   0  0  0  0  0  0  0  0  0  0  0  0
   49.8002   10.7279   20.9699 H   0  0  0  0  0  0  0  0  0  0  0  0
   47.1062   10.3489   19.2144 H   0  0  0  0  0  0  0  0  0  0  0  0
   50.3004    8.3620   20.5027 H   0  0  0  0  0  0  0  0  0  0  0  0
   45.3889   11.9988   19.6006 H   0  0  0  0  0  0  0  0  0  0  0  0
   48.8603    8.2550   18.5750 H   0  0  0  0  0  0  0  0  0  0  0  0
   45.8727   10.0124   21.7438 H   0  0  0  0  0  0  0  0  0  0  0  0
   48.7351    9.1173   23.0230 H   0  0  0  0  0  0  0  0  0  0  0  0
   47.1811    6.3123   20.1777 H   0  0  0  0  0  0  0  0  0  0  0  0
   49.2703   13.2728   19.0408 H   0  0  0  0  0  0  0  0  0  0  0  0
   48.2776    9.2110   23.0788 H   0  0  0  0  0  0  0  0  0  0  0  0
   46.3432   12.0211   19.1605 H   0  0  0  0  0  0  0  0  0  0  0  0
   49.1443    9.0319   20.1246 H   0  0  0  0  0  0  0  0  0  0  0  0
   49.7961   10.0502   21.3905 H   0  0  0  0  0  0  0  0  0  0  0  0
   48.4827   10.8811   18.5762 H   0  0  0  0  0  0  0  0  0  0  0  0
   47.4310    7.3308   24.1227 H   0  0  0  0  0  0  0  0  0  0  0  0
   46.3484    6.4089   23.0718 H   0  0  0  0  0  0  0  0  0  0  0  0
   47.9960    5.8227   23.3920 H   0  0  0  0  0  0  0  0  0  0  0  0
   48.0813    7.2322   19.8386 H   0  0  0  0  0  0  0  0  0  0  0  0
   46.8498    6.2272   20.5852 H   0  0  0  0  0  0  0  0  0  0  0  0
   48.5665    5.8218   20.7906 H   0  0  0  0  0  0  0  0  0  0  0  0
   48.2531   13.7052   17.6712 H   0  0  0  0  0  0  0  0  0  0  0  0
   46.4975   13.7235   17.5769 H   0  0  0  0  0  0  0  0  0  0  0  0
   47.3767   12.3033   16.9984 H   0  0  0  0  0  0  0  0  0  0  0  0
   47.6979   11.3597   21.5025 H   0  0  0  0  0  0  0  0  0  0  0  0
   46.9065   10.2404   20.3962 H   0  0  0  0  0  0  0  0  0  0  0  0
   49.9465   12.9206   18.8690 H   0  0  0  0  0  0  0  0  0  0  0  0
   49.5147   12.9745   20.5860 H   0  0  0  0  0  0  0  0  0  0  0  0
   50.4463   11.6196   19.9284 H   0  0  0  0  0  0  0  0  0  0  0  0
  2  1  2  3
  3  5  1  0
  4  2  1  0
  5  9  1  0
  6  1  1  0
  7  1  1  0
  8  3  1  0
  9  4  1  0
 10  5  1  0
 12 11  1  0
 13 11  1  0
 14 12  1  0
 15 13  1  0
 16 14  1  0
 17 15  2  0
 18 16  2  0
 13 19  1  0
 14 20  1  0
 11 21  1  0
 12 22  1  0
 23 16  1  0
 24 15  1  0
 26 25  2  3
 27 29  1  0
 28 26  1  0
 29 33  1  0
 30 25  1  0
 31 25  1  0
 32 27  1  0
 33 28  1  0
 34 29  1  0
  2 35  1  0
  3 36  1  0
  4 37  1  0
  4 38  1  0
  5 39  1  1
  6 40  1  0
  6 41  1  0
  6 42  1  0
  7 43  1  0
  7 44  1  0
  7 45  1  0
  8 46  1  0
  8 47  1  0
  8 48  1  0
  9 49  1  0
  9 50  1  0
 10 51  1  0
 10 52  1  0
 10 53  1  0
 11 54  1  6
 12 55  1  1
 13 56  1  1
 14 57  1  1
 19 58  1  0
 20 59  1  0
 21 60  1  0
 22 61  1  0
 23 62  1  0
 24 63  1  0
 26 64  1  0
 27 65  1  0
 28 66  1  0
 28 67  1  0
 29 68  1  1
 30 69  1  0
 30 70  1  0
 30 71  1  0
 31 72  1  0
 31 73  1  0
 31 74  1  0
 32 75  1  0
 32 76  1  0
 32 77  1  0
 33 78  1  0
 33 79  1  0
 34 80  1  0
 34 81  1  0
 34 82  1  0
M  END
> <Uni-Dock RESULT> 
ENERGY=   -4.001  LOWER_BOUND=    8.061  UPPER_BOUND=   10.012
INTER + INTRA:          -4.001
INTER:                  -4.001
INTRA:                   0.000
UNBOUND:                 0.000

$$$$
