
     RDKit          3D

 82 79  0  0  0  0  0  0  0  0999 V2000
   44.1837    4.8004   11.6630 C   0  0  0  0  0  0  0  0  0  0  0  0
   45.3265    4.6844   12.3636 C   0  0  0  0  0  0  0  0  0  0  0  0
   47.2496    8.3971   13.9484 N   0  0  0  0  0  0  0  0  0  0  0  0
   46.0448    5.7692   13.1182 C   0  0  0  0  0  0  0  0  0  0  0  0
   47.9184    7.5382   12.9548 C   0  0  1  0  0  0  0  0  0  0  0  0
   43.4218    6.0833   11.4730 C   0  0  0  0  0  0  0  0  0  0  0  0
   43.5841    3.6096   10.9639 C   0  0  0  0  0  0  0  0  0  0  0  0
   48.1875    9.1529   14.7705 C   0  0  0  0  0  0  0  0  0  0  0  0
   46.8959    6.6546   12.2034 C   0  0  0  0  0  0  0  0  0  0  0  0
   48.6969    8.3727   11.9288 C   0  0  0  0  0  0  0  0  0  0  0  0
   46.3298    7.4726   13.3017 C   0  0  1  0  0  0  0  0  0  0  0  0
   45.0016    7.1680   12.5679 C   0  0  2  0  0  0  0  0  0  0  0  0
   47.6013    6.9739   12.5981 C   0  0  2  0  0  0  0  0  0  0  0  0
   44.8720    5.8043   11.8786 C   0  0  1  0  0  0  0  0  0  0  0  0
   48.8360    7.2925   13.4388 C   0  0  0  0  0  0  0  0  0  0  0  0
   44.9209    4.6539   12.8751 C   0  0  0  0  0  0  0  0  0  0  0  0
   49.7432    8.0521   13.1358 O   0  0  0  0  0  0  0  0  0  0  0  0
   45.5106    4.6291   13.9411 O   0  0  0  0  0  0  0  0  0  0  0  0
   47.7048    7.5356   11.2897 O   0  0  0  0  0  0  0  0  0  0  0  0
   43.6159    5.8107   11.1707 O   0  0  0  0  0  0  0  0  0  0  0  0
   46.4069    8.9091   13.4473 O   0  0  0  0  0  0  0  0  0  0  0  0
   44.7860    8.2093   11.5803 O   0  0  0  0  0  0  0  0  0  0  0  0
   44.2450    3.5690   12.4349 O   0  0  0  0  0  0  0  0  0  0  0  0
   48.8846    6.6023   14.5958 O   0  0  0  0  0  0  0  0  0  0  0  0
   44.1338    4.6140   11.9911 C   0  0  0  0  0  0  0  0  0  0  0  0
   45.4762    4.7139   11.9555 C   0  0  0  0  0  0  0  0  0  0  0  0
   47.8603    8.6033   13.7699 N   0  0  0  0  0  0  0  0  0  0  0  0
   46.3042    5.9111   11.5722 C   0  0  0  0  0  0  0  0  0  0  0  0
   47.6517    7.8931   12.4994 C   0  0  2  0  0  0  0  0  0  0  0  0
   43.4717    3.3329   12.4275 C   0  0  0  0  0  0  0  0  0  0  0  0
   43.1693    5.7164   11.6473 C   0  0  0  0  0  0  0  0  0  0  0  0
   48.3415    9.9682   13.6018 C   0  0  0  0  0  0  0  0  0  0  0  0
   46.8333    6.6257   12.8201 C   0  0  0  0  0  0  0  0  0  0  0  0
   48.9831    7.5449   11.8300 C   0  0  0  0  0  0  0  0  0  0  0  0
   45.8089    3.7091   12.4118 H   0  0  0  0  0  0  0  0  0  0  0  0
   46.6937    7.8116   14.5717 H   0  0  0  0  0  0  0  0  0  0  0  0
   46.6847    5.2875   13.8664 H   0  0  0  0  0  0  0  0  0  0  0  0
   45.3244    6.3640   13.6869 H   0  0  0  0  0  0  0  0  0  0  0  0
   48.6222    6.8687   13.4679 H   0  0  0  0  0  0  0  0  0  0  0  0
   42.3459    5.9202   11.6162 H   0  0  0  0  0  0  0  0  0  0  0  0
   43.5796    6.4560   10.4538 H   0  0  0  0  0  0  0  0  0  0  0  0
   43.7218    6.8724   12.1677 H   0  0  0  0  0  0  0  0  0  0  0  0
   43.5554    3.7800    9.8833 H   0  0  0  0  0  0  0  0  0  0  0  0
   42.5660    3.4332   11.3213 H   0  0  0  0  0  0  0  0  0  0  0  0
   44.1553    2.6916   11.1456 H   0  0  0  0  0  0  0  0  0  0  0  0
   48.9530    8.5038   15.2093 H   0  0  0  0  0  0  0  0  0  0  0  0
   48.6716    9.9544   14.2023 H   0  0  0  0  0  0  0  0  0  0  0  0
   47.6435    9.6296   15.5920 H   0  0  0  0  0  0  0  0  0  0  0  0
   47.4471    6.0171   11.5022 H   0  0  0  0  0  0  0  0  0  0  0  0
   46.2389    7.2848   11.5909 H   0  0  0  0  0  0  0  0  0  0  0  0
   49.5576    8.8737   12.3840 H   0  0  0  0  0  0  0  0  0  0  0  0
   48.0577    9.1392   11.4742 H   0  0  0  0  0  0  0  0  0  0  0  0
   49.0836    7.7398   11.1211 H   0  0  0  0  0  0  0  0  0  0  0  0
   46.2870    7.0566   14.3138 H   0  0  0  0  0  0  0  0  0  0  0  0
   44.1802    7.3007   13.2827 H   0  0  0  0  0  0  0  0  0  0  0  0
   47.5826    5.8874   12.4689 H   0  0  0  0  0  0  0  0  0  0  0  0
   45.6533    5.6575   11.1252 H   0  0  0  0  0  0  0  0  0  0  0  0
   47.8923    8.4857   11.4275 H   0  0  0  0  0  0  0  0  0  0  0  0
   43.5211    4.9057   10.8117 H   0  0  0  0  0  0  0  0  0  0  0  0
   45.8837    9.2608   12.6923 H   0  0  0  0  0  0  0  0  0  0  0  0
   44.0509    7.8750   11.0229 H   0  0  0  0  0  0  0  0  0  0  0  0
   44.3423    2.9076   13.1554 H   0  0  0  0  0  0  0  0  0  0  0  0
   49.7132    6.9132   15.0179 H   0  0  0  0  0  0  0  0  0  0  0  0
   46.0680    3.8448   12.2474 H   0  0  0  0  0  0  0  0  0  0  0  0
   48.5034    8.0781   14.3616 H   0  0  0  0  0  0  0  0  0  0  0  0
   45.7424    6.6122   10.9485 H   0  0  0  0  0  0  0  0  0  0  0  0
   47.1325    5.5526   10.9506 H   0  0  0  0  0  0  0  0  0  0  0  0
   47.0558    8.5232   11.8273 H   0  0  0  0  0  0  0  0  0  0  0  0
   44.1965    2.5557   12.6940 H   0  0  0  0  0  0  0  0  0  0  0  0
   42.8420    3.5166   13.3052 H   0  0  0  0  0  0  0  0  0  0  0  0
   42.8407    2.9389   11.6233 H   0  0  0  0  0  0  0  0  0  0  0  0
   43.6494    6.5999   11.2227 H   0  0  0  0  0  0  0  0  0  0  0  0
   42.4437    5.3626   10.9098 H   0  0  0  0  0  0  0  0  0  0  0  0
   42.6263    6.0309   12.5457 H   0  0  0  0  0  0  0  0  0  0  0  0
   49.3732    9.9973   13.2413 H   0  0  0  0  0  0  0  0  0  0  0  0
   47.7080   10.5380   12.9167 H   0  0  0  0  0  0  0  0  0  0  0  0
   48.3208   10.4795   14.5686 H   0  0  0  0  0  0  0  0  0  0  0  0
   47.4403    5.9289   13.4165 H   0  0  0  0  0  0  0  0  0  0  0  0
   45.9732    6.9056   13.4478 H   0  0  0  0  0  0  0  0  0  0  0  0
   49.5960    6.9038   12.4737 H   0  0  0  0  0  0  0  0  0  0  0  0
   48.8278    7.0199   10.8836 H   0  0  0  0  0  0  0  0  0  0  0  0
   49.5659    8.4425   11.5963 H   0  0  0  0  0  0  0  0  0  0  0  0
  2  1  2  3
  3  5  1  0
  4  2  1  0
  5  9  1  0
  6  1  1  0
  7  1  1  0
  8  3  1  0
  9  4  1  0
 10  5  1  0
 12 11  1  0
 13 11  1  0
 14 12  1  0
 15 13  1  0
 16 14  1  0
 17 15  2  0
 18 16  2  0
 13 19  1  0
 14 20  1  0
 11 21  1  0
 12 22  1  0
 23 16  1  0
 24 15  1  0
 26 25  2  3
 27 29  1  0
 28 26  1  0
 29 33  1  0
 30 25  1  0
 31 25  1  0
 32 27  1  0
 33 28  1  0
 34 29  1  0
  2 35  1  0
  3 36  1  0
  4 37  1  0
  4 38  1  0
  5 39  1  6
  6 40  1  0
  6 41  1  0
  6 42  1  0
  7 43  1  0
  7 44  1  0
  7 45  1  0
  8 46  1  0
  8 47  1  0
  8 48  1  0
  9 49  1  0
  9 50  1  0
 10 51  1  0
 10 52  1  0
 10 53  1  0
 11 54  1  6
 12 55  1  6
 13 56  1  1
 14 57  1  1
 19 58  1  0
 20 59  1  0
 21 60  1  0
 22 61  1  0
 23 62  1  0
 24 63  1  0
 26 64  1  0
 27 65  1  0
 28 66  1  0
 28 67  1  0
 29 68  1  1
 30 69  1  0
 30 70  1  0
 30 71  1  0
 31 72  1  0
 31 73  1  0
 31 74  1  0
 32 75  1  0
 32 76  1  0
 32 77  1  0
 33 78  1  0
 33 79  1  0
 34 80  1  0
 34 81  1  0
 34 82  1  0
M  END
> <Uni-Dock RESULT> 
ENERGY=   -6.759  LOWER_BOUND=    0.000  UPPER_BOUND=    0.000
INTER + INTRA:          -6.759
INTER:                  -6.759
INTRA:                   0.000
UNBOUND:                 0.000

$$$$

     RDKit          3D

 82 79  0  0  0  0  0  0  0  0999 V2000
   44.1871    4.8045   11.6644 C   0  0  0  0  0  0  0  0  0  0  0  0
   45.3281    4.6888   12.3679 C   0  0  0  0  0  0  0  0  0  0  0  0
   47.2547    8.4035   13.9439 N   0  0  0  0  0  0  0  0  0  0  0  0
   46.0468    5.7750   13.1203 C   0  0  0  0  0  0  0  0  0  0  0  0
   47.9241    7.5398   12.9548 C   0  0  1  0  0  0  0  0  0  0  0  0
   43.4281    6.0882   11.4681 C   0  0  0  0  0  0  0  0  0  0  0  0
   43.5868    3.6124   10.9681 C   0  0  0  0  0  0  0  0  0  0  0  0
   48.1922    9.1605   14.7655 C   0  0  0  0  0  0  0  0  0  0  0  0
   46.9016    6.6555   12.2043 C   0  0  0  0  0  0  0  0  0  0  0  0
   48.7064    8.3693   11.9277 C   0  0  0  0  0  0  0  0  0  0  0  0
   46.3346    7.4785   13.2985 C   0  0  1  0  0  0  0  0  0  0  0  0
   45.0074    7.1738   12.5627 C   0  0  2  0  0  0  0  0  0  0  0  0
   47.6067    6.9749   12.5995 C   0  0  2  0  0  0  0  0  0  0  0  0
   44.8768    5.8079   11.8780 C   0  0  1  0  0  0  0  0  0  0  0  0
   48.8401    7.2941   13.4418 C   0  0  0  0  0  0  0  0  0  0  0  0
   44.9213    4.6609   12.8786 C   0  0  0  0  0  0  0  0  0  0  0  0
   49.7494    8.0509   13.1382 O   0  0  0  0  0  0  0  0  0  0  0  0
   45.5085    4.6388   13.9461 O   0  0  0  0  0  0  0  0  0  0  0  0
   47.7142    7.5318   11.2893 O   0  0  0  0  0  0  0  0  0  0  0  0
   43.6223    5.8141   11.1672 O   0  0  0  0  0  0  0  0  0  0  0  0
   46.4141    8.9153   13.4391 O   0  0  0  0  0  0  0  0  0  0  0  0
   44.7961    8.2120   11.5709 O   0  0  0  0  0  0  0  0  0  0  0  0
   44.2443    3.5758   12.4408 O   0  0  0  0  0  0  0  0  0  0  0  0
   48.8848    6.6080   14.6014 O   0  0  0  0  0  0  0  0  0  0  0  0
   44.1361    4.6194   11.9930 C   0  0  0  0  0  0  0  0  0  0  0  0
   45.4788    4.7166   11.9601 C   0  0  0  0  0  0  0  0  0  0  0  0
   47.8662    8.6079   13.7660 N   0  0  0  0  0  0  0  0  0  0  0  0
   46.3099    5.9109   11.5744 C   0  0  0  0  0  0  0  0  0  0  0  0
   47.6590    7.8936   12.4977 C   0  0  2  0  0  0  0  0  0  0  0  0
   43.4706    3.3411   12.4324 C   0  0  0  0  0  0  0  0  0  0  0  0
   43.1745    5.7223   11.6431 C   0  0  0  0  0  0  0  0  0  0  0  0
   48.3503    9.9713   13.5942 C   0  0  0  0  0  0  0  0  0  0  0  0
   46.8375    6.6290   12.8210 C   0  0  0  0  0  0  0  0  0  0  0  0
   48.9913    7.5406   11.8325 C   0  0  0  0  0  0  0  0  0  0  0  0
   45.8086    3.7129   12.4207 H   0  0  0  0  0  0  0  0  0  0  0  0
   46.6963    7.8213   14.5680 H   0  0  0  0  0  0  0  0  0  0  0  0
   46.6840    5.2947   13.8717 H   0  0  0  0  0  0  0  0  0  0  0  0
   45.3262    6.3731   13.6853 H   0  0  0  0  0  0  0  0  0  0  0  0
   48.6254    6.8708   13.4720 H   0  0  0  0  0  0  0  0  0  0  0  0
   42.3515    5.9276   11.6095 H   0  0  0  0  0  0  0  0  0  0  0  0
   43.5889    6.4569   10.4479 H   0  0  0  0  0  0  0  0  0  0  0  0
   43.7280    6.8792   12.1606 H   0  0  0  0  0  0  0  0  0  0  0  0
   43.5608    3.7790    9.8869 H   0  0  0  0  0  0  0  0  0  0  0  0
   42.5675    3.4391   11.3239 H   0  0  0  0  0  0  0  0  0  0  0  0
   44.1558    2.6940   11.1544 H   0  0  0  0  0  0  0  0  0  0  0  0
   48.9554    8.5115   15.2083 H   0  0  0  0  0  0  0  0  0  0  0  0
   48.6791    9.9590   14.1955 H   0  0  0  0  0  0  0  0  0  0  0  0
   47.6471    9.6412   15.5840 H   0  0  0  0  0  0  0  0  0  0  0  0
   47.4532    6.0145   11.5066 H   0  0  0  0  0  0  0  0  0  0  0  0
   46.2472    7.2848   11.5881 H   0  0  0  0  0  0  0  0  0  0  0  0
   49.5671    8.8702   12.3830 H   0  0  0  0  0  0  0  0  0  0  0  0
   48.0697    9.1353   11.4689 H   0  0  0  0  0  0  0  0  0  0  0  0
   49.0938    7.7328   11.1231 H   0  0  0  0  0  0  0  0  0  0  0  0
   46.2887    7.0662   14.3119 H   0  0  0  0  0  0  0  0  0  0  0  0
   44.1847    7.3106   13.2751 H   0  0  0  0  0  0  0  0  0  0  0  0
   47.5862    5.8880   12.4741 H   0  0  0  0  0  0  0  0  0  0  0  0
   45.6596    5.6569   11.1268 H   0  0  0  0  0  0  0  0  0  0  0  0
   47.9032    8.4819   11.4241 H   0  0  0  0  0  0  0  0  0  0  0  0
   43.5266    4.9081   10.8112 H   0  0  0  0  0  0  0  0  0  0  0  0
   45.8932    9.2654   12.6816 H   0  0  0  0  0  0  0  0  0  0  0  0
   44.0616    7.8771   11.0130 H   0  0  0  0  0  0  0  0  0  0  0  0
   44.3387    2.9168   13.1638 H   0  0  0  0  0  0  0  0  0  0  0  0
   49.7130    6.9188   15.0243 H   0  0  0  0  0  0  0  0  0  0  0  0
   46.0683    3.8474   12.2564 H   0  0  0  0  0  0  0  0  0  0  0  0
   48.5069    8.0836   14.3611 H   0  0  0  0  0  0  0  0  0  0  0  0
   45.7508    6.6108   10.9470 H   0  0  0  0  0  0  0  0  0  0  0  0
   47.1389    5.5486   10.9559 H   0  0  0  0  0  0  0  0  0  0  0  0
   47.0659    8.5225   11.8219 H   0  0  0  0  0  0  0  0  0  0  0  0
   44.1933    2.5635   12.7033 H   0  0  0  0  0  0  0  0  0  0  0  0
   42.8393    3.5292   13.3080 H   0  0  0  0  0  0  0  0  0  0  0  0
   42.8407    2.9454   11.6282 H   0  0  0  0  0  0  0  0  0  0  0  0
   43.6572    6.6034   11.2165 H   0  0  0  0  0  0  0  0  0  0  0  0
   42.4499    5.3673   10.9052 H   0  0  0  0  0  0  0  0  0  0  0  0
   42.6301    6.0412   12.5392 H   0  0  0  0  0  0  0  0  0  0  0  0
   49.3828    9.9972   13.2360 H   0  0  0  0  0  0  0  0  0  0  0  0
   47.7194   10.5398   12.9057 H   0  0  0  0  0  0  0  0  0  0  0  0
   48.3284   10.4861   14.5591 H   0  0  0  0  0  0  0  0  0  0  0  0
   47.4419    5.9331   13.4212 H   0  0  0  0  0  0  0  0  0  0  0  0
   45.9766    6.9127   13.4457 H   0  0  0  0  0  0  0  0  0  0  0  0
   49.6015    6.9006   12.4798 H   0  0  0  0  0  0  0  0  0  0  0  0
   48.8371    7.0125   10.8876 H   0  0  0  0  0  0  0  0  0  0  0  0
   49.5764    8.4362   11.5969 H   0  0  0  0  0  0  0  0  0  0  0  0
  2  1  2  3
  3  5  1  0
  4  2  1  0
  5  9  1  0
  6  1  1  0
  7  1  1  0
  8  3  1  0
  9  4  1  0
 10  5  1  0
 12 11  1  0
 13 11  1  0
 14 12  1  0
 15 13  1  0
 16 14  1  0
 17 15  2  0
 18 16  2  0
 13 19  1  0
 14 20  1  0
 11 21  1  0
 12 22  1  0
 23 16  1  0
 24 15  1  0
 26 25  2  3
 27 29  1  0
 28 26  1  0
 29 33  1  0
 30 25  1  0
 31 25  1  0
 32 27  1  0
 33 28  1  0
 34 29  1  0
  2 35  1  0
  3 36  1  0
  4 37  1  0
  4 38  1  0
  5 39  1  6
  6 40  1  0
  6 41  1  0
  6 42  1  0
  7 43  1  0
  7 44  1  0
  7 45  1  0
  8 46  1  0
  8 47  1  0
  8 48  1  0
  9 49  1  0
  9 50  1  0
 10 51  1  0
 10 52  1  0
 10 53  1  0
 11 54  1  6
 12 55  1  6
 13 56  1  1
 14 57  1  1
 19 58  1  0
 20 59  1  0
 21 60  1  0
 22 61  1  0
 23 62  1  0
 24 63  1  0
 26 64  1  0
 27 65  1  0
 28 66  1  0
 28 67  1  0
 29 68  1  1
 30 69  1  0
 30 70  1  0
 30 71  1  0
 31 72  1  0
 31 73  1  0
 31 74  1  0
 32 75  1  0
 32 76  1  0
 32 77  1  0
 33 78  1  0
 33 79  1  0
 34 80  1  0
 34 81  1  0
 34 82  1  0
M  END
> <Uni-Dock RESULT> 
ENERGY=   -6.756  LOWER_BOUND=    0.008  UPPER_BOUND=    0.008
INTER + INTRA:          -6.756
INTER:                  -6.756
INTRA:                   0.000
UNBOUND:                 0.000

$$$$

     RDKit          3D

 82 79  0  0  0  0  0  0  0  0999 V2000
   48.4104    8.2610   13.1553 C   0  0  0  0  0  0  0  0  0  0  0  0
   47.1870    8.4693   12.6354 C   0  0  0  0  0  0  0  0  0  0  0  0
   44.1869    5.1597   12.8345 N   0  0  0  0  0  0  0  0  0  0  0  0
   45.9889    7.5659   12.7390 C   0  0  0  0  0  0  0  0  0  0  0  0
   44.6848    5.6817   11.5493 C   0  0  1  0  0  0  0  0  0  0  0  0
   48.8179    7.0322   13.9211 C   0  0  0  0  0  0  0  0  0  0  0  0
   49.5098    9.2720   12.9677 C   0  0  0  0  0  0  0  0  0  0  0  0
   42.8549    4.5744   12.7335 C   0  0  0  0  0  0  0  0  0  0  0  0
   46.0343    6.4144   11.7304 C   0  0  0  0  0  0  0  0  0  0  0  0
   44.8688    4.5559   10.5228 C   0  0  0  0  0  0  0  0  0  0  0  0
   45.3990    5.9513   12.9865 C   0  0  1  0  0  0  0  0  0  0  0  0
   46.8291    6.1532   13.5428 C   0  0  2  0  0  0  0  0  0  0  0  0
   45.2457    6.1566   11.4717 C   0  0  2  0  0  0  0  0  0  0  0  0
   47.6610    7.2988   12.9537 C   0  0  1  0  0  0  0  0  0  0  0  0
   43.7878    5.9756   11.0537 C   0  0  0  0  0  0  0  0  0  0  0  0
   47.0441    8.6604   13.2438 C   0  0  0  0  0  0  0  0  0  0  0  0
   43.3452    5.0989   10.3275 O   0  0  0  0  0  0  0  0  0  0  0  0
   45.8617    8.9158   13.3902 O   0  0  0  0  0  0  0  0  0  0  0  0
   46.1053    5.2705   10.7548 O   0  0  0  0  0  0  0  0  0  0  0  0
   48.9770    7.2026   13.5350 O   0  0  0  0  0  0  0  0  0  0  0  0
   45.0085    4.5993   13.3185 O   0  0  0  0  0  0  0  0  0  0  0  0
   47.5586    4.9113   13.3656 O   0  0  0  0  0  0  0  0  0  0  0  0
   47.9728    9.6418   13.2886 O   0  0  0  0  0  0  0  0  0  0  0  0
   42.9729    6.9353   11.5357 O   0  0  0  0  0  0  0  0  0  0  0  0
   48.2168    8.5289   13.3442 C   0  0  0  0  0  0  0  0  0  0  0  0
   47.4066    8.3246   12.2881 C   0  0  0  0  0  0  0  0  0  0  0  0
   43.9182    4.8700   12.2948 N   0  0  0  0  0  0  0  0  0  0  0  0
   47.0045    7.0115   11.6718 C   0  0  0  0  0  0  0  0  0  0  0  0
   45.1437    5.2420   11.5724 C   0  0  2  0  0  0  0  0  0  0  0  0
   48.4897    9.9243   13.8425 C   0  0  0  0  0  0  0  0  0  0  0  0
   48.8964    7.4492   14.1417 C   0  0  0  0  0  0  0  0  0  0  0  0
   43.5348    3.4763   12.1121 C   0  0  0  0  0  0  0  0  0  0  0  0
   45.5997    6.6058   12.1299 C   0  0  0  0  0  0  0  0  0  0  0  0
   44.9030    5.3068   10.0625 C   0  0  0  0  0  0  0  0  0  0  0  0
   47.0109    9.3858   12.0739 H   0  0  0  0  0  0  0  0  0  0  0  0
   44.1384    5.9254   13.5066 H   0  0  0  0  0  0  0  0  0  0  0  0
   45.0952    8.1758   12.5640 H   0  0  0  0  0  0  0  0  0  0  0  0
   45.8941    7.1926   13.7626 H   0  0  0  0  0  0  0  0  0  0  0  0
   43.9642    6.4072   11.1479 H   0  0  0  0  0  0  0  0  0  0  0  0
   49.3917    7.3055   14.8159 H   0  0  0  0  0  0  0  0  0  0  0  0
   49.4507    6.3987   13.2879 H   0  0  0  0  0  0  0  0  0  0  0  0
   47.9698    6.4290   14.2558 H   0  0  0  0  0  0  0  0  0  0  0  0
   50.3368    8.8314   12.4025 H   0  0  0  0  0  0  0  0  0  0  0  0
   49.8845    9.6091   13.9380 H   0  0  0  0  0  0  0  0  0  0  0  0
   49.1669   10.1612   12.4257 H   0  0  0  0  0  0  0  0  0  0  0  0
   42.1507    5.2566   12.2449 H   0  0  0  0  0  0  0  0  0  0  0  0
   42.8699    3.6202   12.1961 H   0  0  0  0  0  0  0  0  0  0  0  0
   42.4753    4.3671   13.7390 H   0  0  0  0  0  0  0  0  0  0  0  0
   46.3422    6.8071   10.7543 H   0  0  0  0  0  0  0  0  0  0  0  0
   46.8095    5.6977   12.0291 H   0  0  0  0  0  0  0  0  0  0  0  0
   43.9091    4.1272   10.2157 H   0  0  0  0  0  0  0  0  0  0  0  0
   45.4891    3.7473   10.9280 H   0  0  0  0  0  0  0  0  0  0  0  0
   45.3591    4.9288    9.6156 H   0  0  0  0  0  0  0  0  0  0  0  0
   44.7082    6.6161   13.5157 H   0  0  0  0  0  0  0  0  0  0  0  0
   46.7570    6.2701   14.6311 H   0  0  0  0  0  0  0  0  0  0  0  0
   45.5315    7.1714   11.1784 H   0  0  0  0  0  0  0  0  0  0  0  0
   47.7898    7.1884   11.8715 H   0  0  0  0  0  0  0  0  0  0  0  0
   45.7314    4.3770   10.8908 H   0  0  0  0  0  0  0  0  0  0  0  0
   49.4583    7.9888   13.2078 H   0  0  0  0  0  0  0  0  0  0  0  0
   45.8569    4.1042   13.3697 H   0  0  0  0  0  0  0  0  0  0  0  0
   48.4939    5.1437   13.5505 H   0  0  0  0  0  0  0  0  0  0  0  0
   47.4614   10.4576   13.4862 H   0  0  0  0  0  0  0  0  0  0  0  0
   42.0890    6.6837   11.1940 H   0  0  0  0  0  0  0  0  0  0  0  0
   46.9578    9.1936   11.8041 H   0  0  0  0  0  0  0  0  0  0  0  0
   43.1507    5.4813   12.0176 H   0  0  0  0  0  0  0  0  0  0  0  0
   47.7188    6.2166   11.9044 H   0  0  0  0  0  0  0  0  0  0  0  0
   47.0364    7.1356   10.5835 H   0  0  0  0  0  0  0  0  0  0  0  0
   45.9278    4.5055   11.7885 H   0  0  0  0  0  0  0  0  0  0  0  0
   47.9644   10.6883   13.2588 H   0  0  0  0  0  0  0  0  0  0  0  0
   48.1660   10.0199   14.8849 H   0  0  0  0  0  0  0  0  0  0  0  0
   49.5619   10.1430   13.7899 H   0  0  0  0  0  0  0  0  0  0  0  0
   48.7895    6.4532   13.7082 H   0  0  0  0  0  0  0  0  0  0  0  0
   49.9684    7.6533   14.2109 H   0  0  0  0  0  0  0  0  0  0  0  0
   48.4825    7.4178   15.1560 H   0  0  0  0  0  0  0  0  0  0  0  0
   43.1778    3.2794   11.0977 H   0  0  0  0  0  0  0  0  0  0  0  0
   44.3616    2.7974   12.3374 H   0  0  0  0  0  0  0  0  0  0  0  0
   42.7168    3.2346   12.7968 H   0  0  0  0  0  0  0  0  0  0  0  0
   44.8782    7.3862   11.8468 H   0  0  0  0  0  0  0  0  0  0  0  0
   45.5951    6.5614   13.2299 H   0  0  0  0  0  0  0  0  0  0  0  0
   44.1323    6.0453    9.8141 H   0  0  0  0  0  0  0  0  0  0  0  0
   45.8152    5.5800    9.5251 H   0  0  0  0  0  0  0  0  0  0  0  0
   44.5832    4.3390    9.6614 H   0  0  0  0  0  0  0  0  0  0  0  0
  2  1  2  3
  3  5  1  0
  4  2  1  0
  5  9  1  0
  6  1  1  0
  7  1  1  0
  8  3  1  0
  9  4  1  0
 10  5  1  0
 12 11  1  0
 13 11  1  0
 14 12  1  0
 15 13  1  0
 16 14  1  0
 17 15  2  0
 18 16  2  0
 13 19  1  0
 14 20  1  0
 11 21  1  0
 12 22  1  0
 23 16  1  0
 24 15  1  0
 26 25  2  3
 27 29  1  0
 28 26  1  0
 29 33  1  0
 30 25  1  0
 31 25  1  0
 32 27  1  0
 33 28  1  0
 34 29  1  0
  2 35  1  0
  3 36  1  0
  4 37  1  0
  4 38  1  0
  5 39  1  6
  6 40  1  0
  6 41  1  0
  6 42  1  0
  7 43  1  0
  7 44  1  0
  7 45  1  0
  8 46  1  0
  8 47  1  0
  8 48  1  0
  9 49  1  0
  9 50  1  0
 10 51  1  0
 10 52  1  0
 10 53  1  0
 11 54  1  6
 12 55  1  6
 13 56  1  1
 14 57  1  1
 19 58  1  0
 20 59  1  0
 21 60  1  0
 22 61  1  0
 23 62  1  0
 24 63  1  0
 26 64  1  0
 27 65  1  0
 28 66  1  0
 28 67  1  0
 29 68  1  1
 30 69  1  0
 30 70  1  0
 30 71  1  0
 31 72  1  0
 31 73  1  0
 31 74  1  0
 32 75  1  0
 32 76  1  0
 32 77  1  0
 33 78  1  0
 33 79  1  0
 34 80  1  0
 34 81  1  0
 34 82  1  0
M  END
> <Uni-Dock RESULT> 
ENERGY=   -6.512  LOWER_BOUND=    1.598  UPPER_BOUND=    5.225
INTER + INTRA:          -6.512
INTER:                  -6.512
INTRA:                   0.000
UNBOUND:                 0.000

$$$$

     RDKit          3D

 82 79  0  0  0  0  0  0  0  0999 V2000
   44.3173    5.3269   12.0167 C   0  0  0  0  0  0  0  0  0  0  0  0
   45.0561    6.2726   11.4083 C   0  0  0  0  0  0  0  0  0  0  0  0
   49.1268    7.1746   13.0239 N   0  0  0  0  0  0  0  0  0  0  0  0
   46.4952    6.6162   11.6786 C   0  0  0  0  0  0  0  0  0  0  0  0
   48.0530    8.1842   13.0133 C   0  0  1  0  0  0  0  0  0  0  0  0
   44.8043    4.4474   13.1356 C   0  0  0  0  0  0  0  0  0  0  0  0
   42.8817    5.0999   11.6248 C   0  0  0  0  0  0  0  0  0  0  0  0
   50.4610    7.7625   12.9937 C   0  0  0  0  0  0  0  0  0  0  0  0
   46.6620    7.5175   12.9055 C   0  0  0  0  0  0  0  0  0  0  0  0
   48.0880    9.0500   14.2798 C   0  0  0  0  0  0  0  0  0  0  0  0
   47.8119    6.5875   12.8109 C   0  0  1  0  0  0  0  0  0  0  0  0
   46.7244    5.5358   13.1374 C   0  0  2  0  0  0  0  0  0  0  0  0
   47.3456    8.0510   12.8461 C   0  0  2  0  0  0  0  0  0  0  0  0
   45.3146    5.7832   12.5872 C   0  0  1  0  0  0  0  0  0  0  0  0
   48.4916    8.9853   12.4634 C   0  0  0  0  0  0  0  0  0  0  0  0
   45.2844    5.7657   11.0648 C   0  0  0  0  0  0  0  0  0  0  0  0
   49.0247    9.8128   13.1866 O   0  0  0  0  0  0  0  0  0  0  0  0
   46.1864    6.0795   10.3079 O   0  0  0  0  0  0  0  0  0  0  0  0
   46.8151    8.3787   14.1304 O   0  0  0  0  0  0  0  0  0  0  0  0
   44.4677    4.7473   13.1244 O   0  0  0  0  0  0  0  0  0  0  0  0
   48.8702    6.4090   13.7798 O   0  0  0  0  0  0  0  0  0  0  0  0
   46.6433    5.4079   14.5807 O   0  0  0  0  0  0  0  0  0  0  0  0
   44.0793    5.3873   10.5830 O   0  0  0  0  0  0  0  0  0  0  0  0
   48.8740    8.8593   11.1769 O   0  0  0  0  0  0  0  0  0  0  0  0
   44.4141    5.2287   11.6620 C   0  0  0  0  0  0  0  0  0  0  0  0
   44.8287    6.5094   11.6947 C   0  0  0  0  0  0  0  0  0  0  0  0
   49.3052    7.7718   13.2665 N   0  0  0  0  0  0  0  0  0  0  0  0
   45.5674    7.2140   12.8009 C   0  0  0  0  0  0  0  0  0  0  0  0
   47.8875    7.9837   13.5937 C   0  0  2  0  0  0  0  0  0  0  0  0
   43.7047    4.6833   10.4498 C   0  0  0  0  0  0  0  0  0  0  0  0
   44.6184    4.2192   12.7587 C   0  0  0  0  0  0  0  0  0  0  0  0
   50.2082    8.0667   14.3713 C   0  0  0  0  0  0  0  0  0  0  0  0
   47.0616    7.3140   12.4765 C   0  0  0  0  0  0  0  0  0  0  0  0
   47.5599    9.4737   13.7153 C   0  0  0  0  0  0  0  0  0  0  0  0
   44.5909    6.8714   10.6266 H   0  0  0  0  0  0  0  0  0  0  0  0
   49.0313    6.5809   12.2001 H   0  0  0  0  0  0  0  0  0  0  0  0
   46.8895    7.1236   10.7907 H   0  0  0  0  0  0  0  0  0  0  0  0
   47.0826    5.6990   11.7780 H   0  0  0  0  0  0  0  0  0  0  0  0
   48.1769    8.8375   12.1389 H   0  0  0  0  0  0  0  0  0  0  0  0
   44.4990    3.4061   12.9712 H   0  0  0  0  0  0  0  0  0  0  0  0
   44.3705    4.7865   14.0839 H   0  0  0  0  0  0  0  0  0  0  0  0
   45.8920    4.4491   13.2460 H   0  0  0  0  0  0  0  0  0  0  0  0
   42.2208    5.3054   12.4724 H   0  0  0  0  0  0  0  0  0  0  0  0
   42.7352    4.0646   11.3050 H   0  0  0  0  0  0  0  0  0  0  0  0
   42.5728    5.7431   10.7925 H   0  0  0  0  0  0  0  0  0  0  0  0
   50.5629    8.4898   12.1809 H   0  0  0  0  0  0  0  0  0  0  0  0
   50.7157    8.2415   13.9451 H   0  0  0  0  0  0  0  0  0  0  0  0
   51.1995    6.9717   12.8282 H   0  0  0  0  0  0  0  0  0  0  0  0
   45.9061    8.3107   12.8708 H   0  0  0  0  0  0  0  0  0  0  0  0
   46.4555    6.9388   13.8145 H   0  0  0  0  0  0  0  0  0  0  0  0
   48.9757    9.6905   14.3079 H   0  0  0  0  0  0  0  0  0  0  0  0
   48.0865    8.4299   15.1843 H   0  0  0  0  0  0  0  0  0  0  0  0
   47.2138    9.7104   14.3275 H   0  0  0  0  0  0  0  0  0  0  0  0
   48.2447    6.3670   11.8294 H   0  0  0  0  0  0  0  0  0  0  0  0
   47.0864    4.5567   12.8003 H   0  0  0  0  0  0  0  0  0  0  0  0
   46.5427    8.2286   12.1240 H   0  0  0  0  0  0  0  0  0  0  0  0
   44.9049    6.7353   12.9414 H   0  0  0  0  0  0  0  0  0  0  0  0
   47.5824    8.3815   14.7369 H   0  0  0  0  0  0  0  0  0  0  0  0
   43.5991    4.8795   12.6942 H   0  0  0  0  0  0  0  0  0  0  0  0
   48.4192    6.0348   14.5699 H   0  0  0  0  0  0  0  0  0  0  0  0
   45.8267    4.8872   14.7387 H   0  0  0  0  0  0  0  0  0  0  0  0
   44.1857    5.4082    9.6061 H   0  0  0  0  0  0  0  0  0  0  0  0
   49.6058    9.5057   11.0870 H   0  0  0  0  0  0  0  0  0  0  0  0
   44.6353    7.1387   10.8244 H   0  0  0  0  0  0  0  0  0  0  0  0
   49.5615    8.3263   12.4502 H   0  0  0  0  0  0  0  0  0  0  0  0
   45.4256    6.7184   13.7655 H   0  0  0  0  0  0  0  0  0  0  0  0
   45.1264    8.2115   12.9075 H   0  0  0  0  0  0  0  0  0  0  0  0
   47.6557    7.4779   14.5394 H   0  0  0  0  0  0  0  0  0  0  0  0
   43.5902    5.4323    9.6584 H   0  0  0  0  0  0  0  0  0  0  0  0
   44.2685    3.8413   10.0330 H   0  0  0  0  0  0  0  0  0  0  0  0
   42.7040    4.3306   10.7226 H   0  0  0  0  0  0  0  0  0  0  0  0
   45.0268    4.6474   13.6758 H   0  0  0  0  0  0  0  0  0  0  0  0
   43.6646    3.7537   13.0216 H   0  0  0  0  0  0  0  0  0  0  0  0
   45.3062    3.4355   12.4212 H   0  0  0  0  0  0  0  0  0  0  0  0
   50.2605    9.1380   14.5827 H   0  0  0  0  0  0  0  0  0  0  0  0
   49.9176    7.5370   15.2825 H   0  0  0  0  0  0  0  0  0  0  0  0
   51.2180    7.7377   14.1094 H   0  0  0  0  0  0  0  0  0  0  0  0
   47.1996    7.8589   11.5310 H   0  0  0  0  0  0  0  0  0  0  0  0
   47.4469    6.2964   12.3089 H   0  0  0  0  0  0  0  0  0  0  0  0
   47.7691   10.0043   12.7796 H   0  0  0  0  0  0  0  0  0  0  0  0
   46.5064    9.6310   13.9621 H   0  0  0  0  0  0  0  0  0  0  0  0
   48.1410    9.9526   14.5108 H   0  0  0  0  0  0  0  0  0  0  0  0
  2  1  2  3
  3  5  1  0
  4  2  1  0
  5  9  1  0
  6  1  1  0
  7  1  1  0
  8  3  1  0
  9  4  1  0
 10  5  1  0
 12 11  1  0
 13 11  1  0
 14 12  1  0
 15 13  1  0
 16 14  1  0
 17 15  2  0
 18 16  2  0
 13 19  1  0
 14 20  1  0
 11 21  1  0
 12 22  1  0
 23 16  1  0
 24 15  1  0
 26 25  2  3
 27 29  1  0
 28 26  1  0
 29 33  1  0
 30 25  1  0
 31 25  1  0
 32 27  1  0
 33 28  1  0
 34 29  1  0
  2 35  1  0
  3 36  1  0
  4 37  1  0
  4 38  1  0
  5 39  1  6
  6 40  1  0
  6 41  1  0
  6 42  1  0
  7 43  1  0
  7 44  1  0
  7 45  1  0
  8 46  1  0
  8 47  1  0
  8 48  1  0
  9 49  1  0
  9 50  1  0
 10 51  1  0
 10 52  1  0
 10 53  1  0
 11 54  1  6
 12 55  1  6
 13 56  1  1
 14 57  1  1
 19 58  1  0
 20 59  1  0
 21 60  1  0
 22 61  1  0
 23 62  1  0
 24 63  1  0
 26 64  1  0
 27 65  1  0
 28 66  1  0
 28 67  1  0
 29 68  1  1
 30 69  1  0
 30 70  1  0
 30 71  1  0
 31 72  1  0
 31 73  1  0
 31 74  1  0
 32 75  1  0
 32 76  1  0
 32 77  1  0
 33 78  1  0
 33 79  1  0
 34 80  1  0
 34 81  1  0
 34 82  1  0
M  END
> <Uni-Dock RESULT> 
ENERGY=   -6.161  LOWER_BOUND=    1.185  UPPER_BOUND=    2.386
INTER + INTRA:          -6.161
INTER:                  -6.161
INTRA:                   0.000
UNBOUND:                 0.000

$$$$

     RDKit          3D

 82 79  0  0  0  0  0  0  0  0999 V2000
   47.7262    6.0829   22.7476 C   0  0  0  0  0  0  0  0  0  0  0  0
   48.3570    5.1524   22.0084 C   0  0  0  0  0  0  0  0  0  0  0  0
   49.4634    6.1581   17.7943 N   0  0  0  0  0  0  0  0  0  0  0  0
   48.9596    5.3314   20.6419 C   0  0  0  0  0  0  0  0  0  0  0  0
   48.5105    5.0795   18.1118 C   0  0  1  0  0  0  0  0  0  0  0  0
   47.4704    7.4982   22.3071 C   0  0  0  0  0  0  0  0  0  0  0  0
   47.1806    5.7454   24.1094 C   0  0  0  0  0  0  0  0  0  0  0  0
   50.1486    5.9561   16.5228 C   0  0  0  0  0  0  0  0  0  0  0  0
   47.9129    5.2621   19.5262 C   0  0  0  0  0  0  0  0  0  0  0  0
   47.3629    5.0305   17.0942 C   0  0  0  0  0  0  0  0  0  0  0  0
   48.9668    6.2375   19.1603 C   0  0  1  0  0  0  0  0  0  0  0  0
   48.3538    7.0312   20.3392 C   0  0  2  0  0  0  0  0  0  0  0  0
   48.2289    4.9442   18.7816 C   0  0  2  0  0  0  0  0  0  0  0  0
   47.8026    6.2259   21.5221 C   0  0  1  0  0  0  0  0  0  0  0  0
   48.9530    4.2314   17.6413 C   0  0  0  0  0  0  0  0  0  0  0  0
   48.8949    5.4433   22.2387 C   0  0  0  0  0  0  0  0  0  0  0  0
   48.5220    4.0434   16.5140 O   0  0  0  0  0  0  0  0  0  0  0  0
   49.9172    4.9935   21.7515 O   0  0  0  0  0  0  0  0  0  0  0  0
   46.8706    5.2218   18.4412 O   0  0  0  0  0  0  0  0  0  0  0  0
   47.1821    7.1697   22.4183 O   0  0  0  0  0  0  0  0  0  0  0  0
   48.9746    7.1246   18.0185 O   0  0  0  0  0  0  0  0  0  0  0  0
   47.2914    7.8676   19.8123 O   0  0  0  0  0  0  0  0  0  0  0  0
   48.6020    5.2357   23.5420 O   0  0  0  0  0  0  0  0  0  0  0  0
   50.1626    3.7531   17.9955 O   0  0  0  0  0  0  0  0  0  0  0  0
   48.0726    6.0015   22.8827 C   0  0  0  0  0  0  0  0  0  0  0  0
   47.9389    5.0548   21.9344 C   0  0  0  0  0  0  0  0  0  0  0  0
   49.2265    5.8314   17.2609 N   0  0  0  0  0  0  0  0  0  0  0  0
   47.3933    5.2132   20.5405 C   0  0  0  0  0  0  0  0  0  0  0  0
   48.0433    5.5091   18.0720 C   0  0  2  0  0  0  0  0  0  0  0  0
   48.6676    5.6634   24.2250 C   0  0  0  0  0  0  0  0  0  0  0  0
   47.6939    7.4492   22.7271 C   0  0  0  0  0  0  0  0  0  0  0  0
   48.9024    6.3637   15.9439 C   0  0  0  0  0  0  0  0  0  0  0  0
   48.5324    5.2967   19.5192 C   0  0  0  0  0  0  0  0  0  0  0  0
   47.3216    4.2698   17.5376 C   0  0  0  0  0  0  0  0  0  0  0  0
   48.4623    4.1485   22.4173 H   0  0  0  0  0  0  0  0  0  0  0  0
   50.1733    6.1989   18.5255 H   0  0  0  0  0  0  0  0  0  0  0  0
   49.7047    4.5402   20.4997 H   0  0  0  0  0  0  0  0  0  0  0  0
   49.5179    6.2711   20.6037 H   0  0  0  0  0  0  0  0  0  0  0  0
   49.0350    4.1144   18.0949 H   0  0  0  0  0  0  0  0  0  0  0  0
   47.6991    8.2035   23.1163 H   0  0  0  0  0  0  0  0  0  0  0  0
   46.4131    7.6136   22.0400 H   0  0  0  0  0  0  0  0  0  0  0  0
   48.0683    7.7976   21.4422 H   0  0  0  0  0  0  0  0  0  0  0  0
   46.0933    5.8680   24.1226 H   0  0  0  0  0  0  0  0  0  0  0  0
   47.6196    6.4007   24.8668 H   0  0  0  0  0  0  0  0  0  0  0  0
   47.4074    4.7136   24.4025 H   0  0  0  0  0  0  0  0  0  0  0  0
   50.5933    4.9571   16.4587 H   0  0  0  0  0  0  0  0  0  0  0  0
   49.4784    6.1119   15.6708 H   0  0  0  0  0  0  0  0  0  0  0  0
   50.9572    6.6879   16.4291 H   0  0  0  0  0  0  0  0  0  0  0  0
   47.2381    4.4206   19.7219 H   0  0  0  0  0  0  0  0  0  0  0  0
   47.2902    6.1651   19.5531 H   0  0  0  0  0  0  0  0  0  0  0  0
   47.7120    4.7155   16.1053 H   0  0  0  0  0  0  0  0  0  0  0  0
   46.8834    6.0112   16.9897 H   0  0  0  0  0  0  0  0  0  0  0  0
   46.5927    4.3149   17.4060 H   0  0  0  0  0  0  0  0  0  0  0  0
   50.0134    6.0068   19.3854 H   0  0  0  0  0  0  0  0  0  0  0  0
   49.1064    7.7448   20.6962 H   0  0  0  0  0  0  0  0  0  0  0  0
   48.2015    4.2432   19.6214 H   0  0  0  0  0  0  0  0  0  0  0  0
   47.0156    5.5327   21.2062 H   0  0  0  0  0  0  0  0  0  0  0  0
   46.9079    5.7060   17.5922 H   0  0  0  0  0  0  0  0  0  0  0  0
   46.9147    6.6429   23.1980 H   0  0  0  0  0  0  0  0  0  0  0  0
   48.2269    7.7424   18.1825 H   0  0  0  0  0  0  0  0  0  0  0  0
   46.8170    8.1965   20.6059 H   0  0  0  0  0  0  0  0  0  0  0  0
   49.3720    4.7351   23.8920 H   0  0  0  0  0  0  0  0  0  0  0  0
   50.4985    3.3371   17.1736 H   0  0  0  0  0  0  0  0  0  0  0  0
   48.2693    4.0406   22.1650 H   0  0  0  0  0  0  0  0  0  0  0  0
   49.8199    5.0076   17.1668 H   0  0  0  0  0  0  0  0  0  0  0  0
   46.7466    6.0910   20.4535 H   0  0  0  0  0  0  0  0  0  0  0  0
   46.7535    4.3469   20.3374 H   0  0  0  0  0  0  0  0  0  0  0  0
   47.3572    6.3654   18.0658 H   0  0  0  0  0  0  0  0  0  0  0  0
   48.9555    4.6091   24.3026 H   0  0  0  0  0  0  0  0  0  0  0  0
   49.5646    6.2677   24.4001 H   0  0  0  0  0  0  0  0  0  0  0  0
   47.9466    5.8719   25.0230 H   0  0  0  0  0  0  0  0  0  0  0  0
   47.1592    7.6634   21.8000 H   0  0  0  0  0  0  0  0  0  0  0  0
   47.0418    7.7562   23.5493 H   0  0  0  0  0  0  0  0  0  0  0  0
   48.5939    8.0744   22.7453 H   0  0  0  0  0  0  0  0  0  0  0  0
   48.4730    5.6014   15.2884 H   0  0  0  0  0  0  0  0  0  0  0  0
   48.2116    7.2086   16.0090 H   0  0  0  0  0  0  0  0  0  0  0  0
   49.8175    6.7252   15.4658 H   0  0  0  0  0  0  0  0  0  0  0  0
   49.1486    4.3874   19.5765 H   0  0  0  0  0  0  0  0  0  0  0  0
   49.1876    6.1354   19.8012 H   0  0  0  0  0  0  0  0  0  0  0  0
   47.9793    3.3932   17.5441 H   0  0  0  0  0  0  0  0  0  0  0  0
   46.4397    4.0323   18.1388 H   0  0  0  0  0  0  0  0  0  0  0  0
   46.9684    4.4178   16.5114 H   0  0  0  0  0  0  0  0  0  0  0  0
  2  1  2  3
  3  5  1  0
  4  2  1  0
  5  9  1  0
  6  1  1  0
  7  1  1  0
  8  3  1  0
  9  4  1  0
 10  5  1  0
 12 11  1  0
 13 11  1  0
 14 12  1  0
 15 13  1  0
 16 14  1  0
 17 15  2  0
 18 16  2  0
 13 19  1  0
 14 20  1  0
 11 21  1  0
 12 22  1  0
 23 16  1  0
 24 15  1  0
 26 25  2  3
 27 29  1  0
 28 26  1  0
 29 33  1  0
 30 25  1  0
 31 25  1  0
 32 27  1  0
 33 28  1  0
 34 29  1  0
  2 35  1  0
  3 36  1  0
  4 37  1  0
  4 38  1  0
  5 39  1  6
  6 40  1  0
  6 41  1  0
  6 42  1  0
  7 43  1  0
  7 44  1  0
  7 45  1  0
  8 46  1  0
  8 47  1  0
  8 48  1  0
  9 49  1  0
  9 50  1  0
 10 51  1  0
 10 52  1  0
 10 53  1  0
 11 54  1  6
 12 55  1  6
 13 56  1  1
 14 57  1  1
 19 58  1  0
 20 59  1  0
 21 60  1  0
 22 61  1  0
 23 62  1  0
 24 63  1  0
 26 64  1  0
 27 65  1  0
 28 66  1  0
 28 67  1  0
 29 68  1  1
 30 69  1  0
 30 70  1  0
 30 71  1  0
 31 72  1  0
 31 73  1  0
 31 74  1  0
 32 75  1  0
 32 76  1  0
 32 77  1  0
 33 78  1  0
 33 79  1  0
 34 80  1  0
 34 81  1  0
 34 82  1  0
M  END
> <Uni-Dock RESULT> 
ENERGY=   -5.473  LOWER_BOUND=    6.627  UPPER_BOUND=    8.721
INTER + INTRA:          -5.473
INTER:                  -5.473
INTRA:                   0.000
UNBOUND:                 0.000

$$$$

     RDKit          3D

 82 79  0  0  0  0  0  0  0  0999 V2000
   48.3046    4.1337   17.8122 C   0  0  0  0  0  0  0  0  0  0  0  0
   47.5592    5.0520   18.4536 C   0  0  0  0  0  0  0  0  0  0  0  0
   49.3833    7.2741   21.8784 N   0  0  0  0  0  0  0  0  0  0  0  0
   48.0180    6.0188   19.5106 C   0  0  0  0  0  0  0  0  0  0  0  0
   48.2200    6.3871   22.0582 C   0  0  1  0  0  0  0  0  0  0  0  0
   49.7632    3.8783   18.0762 C   0  0  0  0  0  0  0  0  0  0  0  0
   47.6939    3.2389   16.7671 C   0  0  0  0  0  0  0  0  0  0  0  0
   49.4544    8.3298   22.8821 C   0  0  0  0  0  0  0  0  0  0  0  0
   48.1074    5.3730   20.8963 C   0  0  0  0  0  0  0  0  0  0  0  0
   48.3063    5.6139   23.3809 C   0  0  0  0  0  0  0  0  0  0  0  0
   49.1832    6.3811   20.7465 C   0  0  1  0  0  0  0  0  0  0  0  0
   49.7134    5.3605   19.7107 C   0  0  2  0  0  0  0  0  0  0  0  0
   47.9492    5.9312   21.5434 C   0  0  2  0  0  0  0  0  0  0  0  0
   48.6766    4.5631   18.9102 C   0  0  1  0  0  0  0  0  0  0  0  0
   47.4964    7.0370   22.4948 C   0  0  0  0  0  0  0  0  0  0  0  0
   47.8277    5.4615   18.0208 C   0  0  0  0  0  0  0  0  0  0  0  0
   47.5011    6.9902   23.7153 O   0  0  0  0  0  0  0  0  0  0  0  0
   47.5258    6.6243   18.2247 O   0  0  0  0  0  0  0  0  0  0  0  0
   48.2198    4.7190   22.2473 O   0  0  0  0  0  0  0  0  0  0  0  0
   49.4064    3.6056   18.1167 O   0  0  0  0  0  0  0  0  0  0  0  0
   50.2666    6.6428   21.6676 O   0  0  0  0  0  0  0  0  0  0  0  0
   50.5814    4.4272   20.4047 O   0  0  0  0  0  0  0  0  0  0  0  0
   47.3673    4.8102   16.9293 O   0  0  0  0  0  0  0  0  0  0  0  0
   47.0191    8.1249   21.8577 O   0  0  0  0  0  0  0  0  0  0  0  0
   48.2162    4.4293   17.5893 C   0  0  0  0  0  0  0  0  0  0  0  0
   47.4571    4.6886   18.6710 C   0  0  0  0  0  0  0  0  0  0  0  0
   49.1505    7.2454   22.5048 N   0  0  0  0  0  0  0  0  0  0  0  0
   47.8458    4.5782   20.1211 C   0  0  0  0  0  0  0  0  0  0  0  0
   48.6267    5.9120   22.1741 C   0  0  2  0  0  0  0  0  0  0  0  0
   47.6631    4.6209   16.2010 C   0  0  0  0  0  0  0  0  0  0  0  0
   49.6478    3.9677   17.6208 C   0  0  0  0  0  0  0  0  0  0  0  0
   49.9024    7.2827   23.7523 C   0  0  0  0  0  0  0  0  0  0  0  0
   48.1723    5.9584   20.7009 C   0  0  0  0  0  0  0  0  0  0  0  0
   47.4753    5.5191   23.1026 C   0  0  0  0  0  0  0  0  0  0  0  0
   46.5030    5.1319   18.2004 H   0  0  0  0  0  0  0  0  0  0  0  0
   49.3212    7.7205   20.9635 H   0  0  0  0  0  0  0  0  0  0  0  0
   47.3037    6.8497   19.5353 H   0  0  0  0  0  0  0  0  0  0  0  0
   48.9740    6.4617   19.2174 H   0  0  0  0  0  0  0  0  0  0  0  0
   47.3012    6.9891   22.0638 H   0  0  0  0  0  0  0  0  0  0  0  0
   50.3158    3.7763   17.1334 H   0  0  0  0  0  0  0  0  0  0  0  0
   49.8756    2.9458   18.6423 H   0  0  0  0  0  0  0  0  0  0  0  0
   50.2466    4.6759   18.6465 H   0  0  0  0  0  0  0  0  0  0  0  0
   47.7596    2.1922   17.0797 H   0  0  0  0  0  0  0  0  0  0  0  0
   48.2171    3.3569   15.8143 H   0  0  0  0  0  0  0  0  0  0  0  0
   46.6377    3.4718   16.5882 H   0  0  0  0  0  0  0  0  0  0  0  0
   48.5072    8.8741   22.9626 H   0  0  0  0  0  0  0  0  0  0  0  0
   49.7337    7.9373   23.8657 H   0  0  0  0  0  0  0  0  0  0  0  0
   50.2287    9.0482   22.5950 H   0  0  0  0  0  0  0  0  0  0  0  0
   47.2129    4.7617   21.0634 H   0  0  0  0  0  0  0  0  0  0  0  0
   48.9588    4.6813   20.9225 H   0  0  0  0  0  0  0  0  0  0  0  0
   48.1978    6.2772   24.2454 H   0  0  0  0  0  0  0  0  0  0  0  0
   49.2652    5.0896   23.4720 H   0  0  0  0  0  0  0  0  0  0  0  0
   47.5091    4.8640   23.4494 H   0  0  0  0  0  0  0  0  0  0  0  0
   48.9651    7.3280   20.2416 H   0  0  0  0  0  0  0  0  0  0  0  0
   50.3834    5.8910   19.0231 H   0  0  0  0  0  0  0  0  0  0  0  0
   47.1036    5.7232   20.8806 H   0  0  0  0  0  0  0  0  0  0  0  0
   48.0174    3.9854   19.5670 H   0  0  0  0  0  0  0  0  0  0  0  0
   48.8548    4.9617   22.9506 H   0  0  0  0  0  0  0  0  0  0  0  0
   48.7316    3.1704   17.5581 H   0  0  0  0  0  0  0  0  0  0  0  0
   50.8066    5.8207   21.6515 H   0  0  0  0  0  0  0  0  0  0  0  0
   50.7337    3.7030   19.7603 H   0  0  0  0  0  0  0  0  0  0  0  0
   46.8479    5.4854   16.4390 H   0  0  0  0  0  0  0  0  0  0  0  0
   46.7798    8.7355   22.5865 H   0  0  0  0  0  0  0  0  0  0  0  0
   46.4348    5.0368   18.5148 H   0  0  0  0  0  0  0  0  0  0  0  0
   48.3880    7.9215   22.5379 H   0  0  0  0  0  0  0  0  0  0  0  0
   48.6925    3.9010   20.2654 H   0  0  0  0  0  0  0  0  0  0  0  0
   47.0028    4.1236   20.6537 H   0  0  0  0  0  0  0  0  0  0  0  0
   49.4352    5.1752   22.2589 H   0  0  0  0  0  0  0  0  0  0  0  0
   46.6279    4.9794   16.2076 H   0  0  0  0  0  0  0  0  0  0  0  0
   48.2666    5.3547   15.6553 H   0  0  0  0  0  0  0  0  0  0  0  0
   47.6847    3.6742   15.6501 H   0  0  0  0  0  0  0  0  0  0  0  0
   50.0049    3.7202   18.6220 H   0  0  0  0  0  0  0  0  0  0  0  0
   49.7648    3.0687   17.0094 H   0  0  0  0  0  0  0  0  0  0  0  0
   50.3010    4.7497   17.2173 H   0  0  0  0  0  0  0  0  0  0  0  0
   49.2558    7.1540   24.6242 H   0  0  0  0  0  0  0  0  0  0  0  0
   50.6864    6.5210   23.7739 H   0  0  0  0  0  0  0  0  0  0  0  0
   50.3899    8.2570   23.8505 H   0  0  0  0  0  0  0  0  0  0  0  0
   47.2988    6.6189   20.5990 H   0  0  0  0  0  0  0  0  0  0  0  0
   48.9743    6.4064   20.0941 H   0  0  0  0  0  0  0  0  0  0  0  0
   46.6453    6.2310   23.0298 H   0  0  0  0  0  0  0  0  0  0  0  0
   47.0881    4.5261   22.8588 H   0  0  0  0  0  0  0  0  0  0  0  0
   47.7945    5.4806   24.1497 H   0  0  0  0  0  0  0  0  0  0  0  0
  2  1  2  3
  3  5  1  0
  4  2  1  0
  5  9  1  0
  6  1  1  0
  7  1  1  0
  8  3  1  0
  9  4  1  0
 10  5  1  0
 12 11  1  0
 13 11  1  0
 14 12  1  0
 15 13  1  0
 16 14  1  0
 17 15  2  0
 18 16  2  0
 13 19  1  0
 14 20  1  0
 11 21  1  0
 12 22  1  0
 23 16  1  0
 24 15  1  0
 26 25  2  3
 27 29  1  0
 28 26  1  0
 29 33  1  0
 30 25  1  0
 31 25  1  0
 32 27  1  0
 33 28  1  0
 34 29  1  0
  2 35  1  0
  3 36  1  0
  4 37  1  0
  4 38  1  0
  5 39  1  6
  6 40  1  0
  6 41  1  0
  6 42  1  0
  7 43  1  0
  7 44  1  0
  7 45  1  0
  8 46  1  0
  8 47  1  0
  8 48  1  0
  9 49  1  0
  9 50  1  0
 10 51  1  0
 10 52  1  0
 10 53  1  0
 11 54  1  6
 12 55  1  6
 13 56  1  1
 14 57  1  1
 19 58  1  0
 20 59  1  0
 21 60  1  0
 22 61  1  0
 23 62  1  0
 24 63  1  0
 26 64  1  0
 27 65  1  0
 28 66  1  0
 28 67  1  0
 29 68  1  1
 30 69  1  0
 30 70  1  0
 30 71  1  0
 31 72  1  0
 31 73  1  0
 31 74  1  0
 32 75  1  0
 32 76  1  0
 32 77  1  0
 33 78  1  0
 33 79  1  0
 34 80  1  0
 34 81  1  0
 34 82  1  0
M  END
> <Uni-Dock RESULT> 
ENERGY=   -5.371  LOWER_BOUND=    6.885  UPPER_BOUND=    8.690
INTER + INTRA:          -5.371
INTER:                  -5.371
INTRA:                   0.000
UNBOUND:                 0.000

$$$$

     RDKit          3D

 82 79  0  0  0  0  0  0  0  0999 V2000
   47.8417    4.3743   18.3942 C   0  0  0  0  0  0  0  0  0  0  0  0
   47.3580    5.6167   18.5747 C   0  0  0  0  0  0  0  0  0  0  0  0
   49.4419    8.3251   21.4585 N   0  0  0  0  0  0  0  0  0  0  0  0
   47.9891    6.7333   19.3604 C   0  0  0  0  0  0  0  0  0  0  0  0
   48.0502    7.8877   21.6691 C   0  0  1  0  0  0  0  0  0  0  0  0
   49.1182    3.8559   18.9978 C   0  0  0  0  0  0  0  0  0  0  0  0
   47.0878    3.3661   17.5688 C   0  0  0  0  0  0  0  0  0  0  0  0
   49.7387    9.6041   22.0933 C   0  0  0  0  0  0  0  0  0  0  0  0
   47.7421    6.6027   20.8661 C   0  0  0  0  0  0  0  0  0  0  0  0
   47.7669    7.6214   23.1536 C   0  0  0  0  0  0  0  0  0  0  0  0
   49.0855    7.1823   20.6304 C   0  0  1  0  0  0  0  0  0  0  0  0
   49.3717    5.7679   20.0707 C   0  0  2  0  0  0  0  0  0  0  0  0
   47.7025    7.3698   21.2728 C   0  0  2  0  0  0  0  0  0  0  0  0
   48.2212    5.0423   19.3627 C   0  0  1  0  0  0  0  0  0  0  0  0
   47.5240    8.8119   21.7430 C   0  0  0  0  0  0  0  0  0  0  0  0
   47.7797    5.7682   18.0990 C   0  0  0  0  0  0  0  0  0  0  0  0
   47.3972    9.1875   22.8983 O   0  0  0  0  0  0  0  0  0  0  0  0
   47.8330    6.9662   17.8826 O   0  0  0  0  0  0  0  0  0  0  0  0
   47.5177    6.4469   22.3462 O   0  0  0  0  0  0  0  0  0  0  0  0
   48.6925    3.7162   19.0489 O   0  0  0  0  0  0  0  0  0  0  0  0
   50.1034    7.4537   21.6207 O   0  0  0  0  0  0  0  0  0  0  0  0
   49.8391    4.9385   21.1660 O   0  0  0  0  0  0  0  0  0  0  0  0
   47.2477    4.9250   17.1861 O   0  0  0  0  0  0  0  0  0  0  0  0
   47.4685    9.6992   20.7295 O   0  0  0  0  0  0  0  0  0  0  0  0
   47.8705    4.5876   18.0802 C   0  0  0  0  0  0  0  0  0  0  0  0
   47.1285    5.3897   18.8673 C   0  0  0  0  0  0  0  0  0  0  0  0
   49.1528    8.5746   22.0077 N   0  0  0  0  0  0  0  0  0  0  0  0
   47.3237    5.6870   20.3299 C   0  0  0  0  0  0  0  0  0  0  0  0
   48.2775    7.3932   21.9981 C   0  0  2  0  0  0  0  0  0  0  0  0
   47.5389    4.4274   16.6193 C   0  0  0  0  0  0  0  0  0  0  0  0
   49.0801    3.8103   18.5232 C   0  0  0  0  0  0  0  0  0  0  0  0
   49.7566    8.8413   23.3066 C   0  0  0  0  0  0  0  0  0  0  0  0
   48.0028    7.0473   20.5203 C   0  0  0  0  0  0  0  0  0  0  0  0
   46.9779    7.6559   22.7623 C   0  0  0  0  0  0  0  0  0  0  0  0
   46.4072    5.8758   18.1111 H   0  0  0  0  0  0  0  0  0  0  0  0
   49.6083    8.4301   20.4578 H   0  0  0  0  0  0  0  0  0  0  0  0
   47.5669    7.6771   18.9968 H   0  0  0  0  0  0  0  0  0  0  0  0
   49.0586    6.7845   19.1373 H   0  0  0  0  0  0  0  0  0  0  0  0
   47.3656    8.6715   21.3171 H   0  0  0  0  0  0  0  0  0  0  0  0
   49.7000    3.2969   18.2537 H   0  0  0  0  0  0  0  0  0  0  0  0
   48.8829    3.1794   19.8281 H   0  0  0  0  0  0  0  0  0  0  0  0
   49.7671    4.6464   19.3842 H   0  0  0  0  0  0  0  0  0  0  0  0
   46.7974    2.5115   18.1875 H   0  0  0  0  0  0  0  0  0  0  0  0
   47.7105    3.0099   16.7436 H   0  0  0  0  0  0  0  0  0  0  0  0
   46.1770    3.7889   17.1287 H   0  0  0  0  0  0  0  0  0  0  0  0
   49.0023   10.3688   21.8231 H   0  0  0  0  0  0  0  0  0  0  0  0
   49.7879    9.5150   23.1837 H   0  0  0  0  0  0  0  0  0  0  0  0
   50.7205    9.9533   21.7582 H   0  0  0  0  0  0  0  0  0  0  0  0
   46.6910    6.3403   21.0337 H   0  0  0  0  0  0  0  0  0  0  0  0
   48.3321    5.7665   21.2618 H   0  0  0  0  0  0  0  0  0  0  0  0
   47.7861    8.5450   23.7414 H   0  0  0  0  0  0  0  0  0  0  0  0
   48.5041    6.9306   23.5803 H   0  0  0  0  0  0  0  0  0  0  0  0
   46.7746    7.1747   23.2893 H   0  0  0  0  0  0  0  0  0  0  0  0
   49.2193    7.9204   19.8326 H   0  0  0  0  0  0  0  0  0  0  0  0
   50.2351    5.8370   19.3978 H   0  0  0  0  0  0  0  0  0  0  0  0
   46.9015    7.1738   20.5534 H   0  0  0  0  0  0  0  0  0  0  0  0
   47.3563    4.9171   20.0231 H   0  0  0  0  0  0  0  0  0  0  0  0
   48.1262    6.7427   23.0526 H   0  0  0  0  0  0  0  0  0  0  0  0
   47.9731    3.3067   18.5278 H   0  0  0  0  0  0  0  0  0  0  0  0
   50.3626    6.5660   21.9561 H   0  0  0  0  0  0  0  0  0  0  0  0
   49.8217    4.0241   20.8104 H   0  0  0  0  0  0  0  0  0  0  0  0
   47.0111    5.5009   16.4255 H   0  0  0  0  0  0  0  0  0  0  0  0
   47.3606   10.5626   21.1813 H   0  0  0  0  0  0  0  0  0  0  0  0
   46.2832    5.9157   18.4203 H   0  0  0  0  0  0  0  0  0  0  0  0
   48.6364    9.3940   21.6892 H   0  0  0  0  0  0  0  0  0  0  0  0
   47.9024    4.9056   20.8307 H   0  0  0  0  0  0  0  0  0  0  0  0
   46.3347    5.6781   20.8020 H   0  0  0  0  0  0  0  0  0  0  0  0
   48.8075    6.5475   22.4538 H   0  0  0  0  0  0  0  0  0  0  0  0
   46.6690    5.0218   16.3189 H   0  0  0  0  0  0  0  0  0  0  0  0
   48.3885    4.7460   16.0051 H   0  0  0  0  0  0  0  0  0  0  0  0
   47.3202    3.3781   16.3927 H   0  0  0  0  0  0  0  0  0  0  0  0
   49.2460    3.8379   19.6017 H   0  0  0  0  0  0  0  0  0  0  0  0
   48.9722    2.7586   18.2442 H   0  0  0  0  0  0  0  0  0  0  0  0
   49.9781    4.2083   18.0372 H   0  0  0  0  0  0  0  0  0  0  0  0
   49.0214    9.1922   24.0357 H   0  0  0  0  0  0  0  0  0  0  0  0
   50.2617    7.9578   23.7060 H   0  0  0  0  0  0  0  0  0  0  0  0
   50.5090    9.6282   23.1997 H   0  0  0  0  0  0  0  0  0  0  0  0
   47.3894    7.8351   20.0591 H   0  0  0  0  0  0  0  0  0  0  0  0
   48.9580    7.0353   19.9730 H   0  0  0  0  0  0  0  0  0  0  0  0
   46.4187    8.4888   22.3211 H   0  0  0  0  0  0  0  0  0  0  0  0
   46.3285    6.7762   22.7580 H   0  0  0  0  0  0  0  0  0  0  0  0
   47.1679    7.8977   23.8136 H   0  0  0  0  0  0  0  0  0  0  0  0
  2  1  2  3
  3  5  1  0
  4  2  1  0
  5  9  1  0
  6  1  1  0
  7  1  1  0
  8  3  1  0
  9  4  1  0
 10  5  1  0
 12 11  1  0
 13 11  1  0
 14 12  1  0
 15 13  1  0
 16 14  1  0
 17 15  2  0
 18 16  2  0
 13 19  1  0
 14 20  1  0
 11 21  1  0
 12 22  1  0
 23 16  1  0
 24 15  1  0
 26 25  2  3
 27 29  1  0
 28 26  1  0
 29 33  1  0
 30 25  1  0
 31 25  1  0
 32 27  1  0
 33 28  1  0
 34 29  1  0
  2 35  1  0
  3 36  1  0
  4 37  1  0
  4 38  1  0
  5 39  1  6
  6 40  1  0
  6 41  1  0
  6 42  1  0
  7 43  1  0
  7 44  1  0
  7 45  1  0
  8 46  1  0
  8 47  1  0
  8 48  1  0
  9 49  1  0
  9 50  1  0
 10 51  1  0
 10 52  1  0
 10 53  1  0
 11 54  1  6
 12 55  1  6
 13 56  1  1
 14 57  1  1
 19 58  1  0
 20 59  1  0
 21 60  1  0
 22 61  1  0
 23 62  1  0
 24 63  1  0
 26 64  1  0
 27 65  1  0
 28 66  1  0
 28 67  1  0
 29 68  1  1
 30 69  1  0
 30 70  1  0
 30 71  1  0
 31 72  1  0
 31 73  1  0
 31 74  1  0
 32 75  1  0
 32 76  1  0
 32 77  1  0
 33 78  1  0
 33 79  1  0
 34 80  1  0
 34 81  1  0
 34 82  1  0
M  END
> <Uni-Dock RESULT> 
ENERGY=   -5.240  LOWER_BOUND=    6.597  UPPER_BOUND=    8.515
INTER + INTRA:          -5.240
INTER:                  -5.240
INTRA:                   0.000
UNBOUND:                 0.000

$$$$

     RDKit          3D

 82 79  0  0  0  0  0  0  0  0999 V2000
   46.9937   10.8292   20.0558 C   0  0  0  0  0  0  0  0  0  0  0  0
   47.2521   10.2711   21.2525 C   0  0  0  0  0  0  0  0  0  0  0  0
   50.0039    6.7507   21.4212 N   0  0  0  0  0  0  0  0  0  0  0  0
   48.2621    9.1990   21.5571 C   0  0  0  0  0  0  0  0  0  0  0  0
   48.5886    6.6514   21.8207 C   0  0  1  0  0  0  0  0  0  0  0  0
   47.6623   10.4388   18.7662 C   0  0  0  0  0  0  0  0  0  0  0  0
   45.9487   11.9036   19.9160 C   0  0  0  0  0  0  0  0  0  0  0  0
   50.8523    5.7660   22.0825 C   0  0  0  0  0  0  0  0  0  0  0  0
   47.7537    7.7980   21.2049 C   0  0  0  0  0  0  0  0  0  0  0  0
   47.9792    5.3108   21.3891 C   0  0  0  0  0  0  0  0  0  0  0  0
   49.2114    7.8773   20.9503 C   0  0  1  0  0  0  0  0  0  0  0  0
   48.7553    8.8443   19.8312 C   0  0  2  0  0  0  0  0  0  0  0  0
   48.0800    7.1778   21.7190 C   0  0  2  0  0  0  0  0  0  0  0  0
   47.5220    9.7127   20.1073 C   0  0  1  0  0  0  0  0  0  0  0  0
   48.6537    6.2901   22.8216 C   0  0  0  0  0  0  0  0  0  0  0  0
   47.7553   10.6880   21.2533 C   0  0  0  0  0  0  0  0  0  0  0  0
   48.5768    5.0729   22.8860 O   0  0  0  0  0  0  0  0  0  0  0  0
   48.4916   10.5335   22.2119 O   0  0  0  0  0  0  0  0  0  0  0  0
   47.2540    6.4295   20.8269 O   0  0  0  0  0  0  0  0  0  0  0  0
   47.2282   10.4228   18.8873 O   0  0  0  0  0  0  0  0  0  0  0  0
   50.0423    6.8740   20.3227 O   0  0  0  0  0  0  0  0  0  0  0  0
   48.5126    8.0613   18.6336 O   0  0  0  0  0  0  0  0  0  0  0  0
   46.9967   11.8010   21.1381 O   0  0  0  0  0  0  0  0  0  0  0  0
   49.2536    6.9868   23.8076 O   0  0  0  0  0  0  0  0  0  0  0  0
   47.1833   11.0646   20.2871 C   0  0  0  0  0  0  0  0  0  0  0  0
   46.8935   10.0558   21.1307 C   0  0  0  0  0  0  0  0  0  0  0  0
   49.8186    6.1456   21.6377 N   0  0  0  0  0  0  0  0  0  0  0  0
   46.9900    8.5764   20.8704 C   0  0  0  0  0  0  0  0  0  0  0  0
   48.4521    6.4923   21.2203 C   0  0  2  0  0  0  0  0  0  0  0  0
   47.0500   12.4980   20.7316 C   0  0  0  0  0  0  0  0  0  0  0  0
   47.6796   10.9040   18.8759 C   0  0  0  0  0  0  0  0  0  0  0  0
   50.2591    4.8405   21.1628 C   0  0  0  0  0  0  0  0  0  0  0  0
   48.2658    7.9990   21.4921 C   0  0  0  0  0  0  0  0  0  0  0  0
   47.4114    5.6559   21.9683 C   0  0  0  0  0  0  0  0  0  0  0  0
   46.6863   10.6136   22.1178 H   0  0  0  0  0  0  0  0  0  0  0  0
   50.3536    7.6764   21.6681 H   0  0  0  0  0  0  0  0  0  0  0  0
   48.4912    9.2511   22.6276 H   0  0  0  0  0  0  0  0  0  0  0  0
   49.2025    9.4198   21.0442 H   0  0  0  0  0  0  0  0  0  0  0  0
   48.5126    6.7350   22.9134 H   0  0  0  0  0  0  0  0  0  0  0  0
   47.9478   11.3297   18.1922 H   0  0  0  0  0  0  0  0  0  0  0  0
   46.9682    9.8466   18.1579 H   0  0  0  0  0  0  0  0  0  0  0  0
   48.5695    9.8460   18.9106 H   0  0  0  0  0  0  0  0  0  0  0  0
   45.1442   11.5657   19.2556 H   0  0  0  0  0  0  0  0  0  0  0  0
   46.3919   12.8114   19.4977 H   0  0  0  0  0  0  0  0  0  0  0  0
   45.5022   12.1752   20.8798 H   0  0  0  0  0  0  0  0  0  0  0  0
   50.7106    5.7762   23.1687 H   0  0  0  0  0  0  0  0  0  0  0  0
   50.6744    4.7548   21.7014 H   0  0  0  0  0  0  0  0  0  0  0  0
   51.9021    6.0015   21.8808 H   0  0  0  0  0  0  0  0  0  0  0  0
   46.7209    7.6943   21.5573 H   0  0  0  0  0  0  0  0  0  0  0  0
   47.7165    7.6866   20.1140 H   0  0  0  0  0  0  0  0  0  0  0  0
   48.4116    4.4720   21.9444 H   0  0  0  0  0  0  0  0  0  0  0  0
   48.1379    5.1291   20.3192 H   0  0  0  0  0  0  0  0  0  0  0  0
   46.8982    5.2944   21.5727 H   0  0  0  0  0  0  0  0  0  0  0  0
   49.8511    8.4176   21.6560 H   0  0  0  0  0  0  0  0  0  0  0  0
   49.6063    9.4838   19.5668 H   0  0  0  0  0  0  0  0  0  0  0  0
   47.4266    7.9049   22.2110 H   0  0  0  0  0  0  0  0  0  0  0  0
   46.6409    9.1020   20.3321 H   0  0  0  0  0  0  0  0  0  0  0  0
   47.8063    5.6804   20.5260 H   0  0  0  0  0  0  0  0  0  0  0  0
   46.4935   11.0272   19.1148 H   0  0  0  0  0  0  0  0  0  0  0  0
   49.7146    6.8283   19.3963 H   0  0  0  0  0  0  0  0  0  0  0  0
   48.0505    8.6760   18.0240 H   0  0  0  0  0  0  0  0  0  0  0  0
   47.2374   12.3466   21.9194 H   0  0  0  0  0  0  0  0  0  0  0  0
   49.5698    6.2930   24.4240 H   0  0  0  0  0  0  0  0  0  0  0  0
   46.5585   10.3042   22.1392 H   0  0  0  0  0  0  0  0  0  0  0  0
   49.8951    6.1902   22.6535 H   0  0  0  0  0  0  0  0  0  0  0  0
   46.9573    8.3479   19.8012 H   0  0  0  0  0  0  0  0  0  0  0  0
   46.1003    8.1072   21.3055 H   0  0  0  0  0  0  0  0  0  0  0  0
   48.3511    6.3252   20.1406 H   0  0  0  0  0  0  0  0  0  0  0  0
   46.7097   12.5854   21.7694 H   0  0  0  0  0  0  0  0  0  0  0  0
   48.0178   13.0058   20.6542 H   0  0  0  0  0  0  0  0  0  0  0  0
   46.3286   13.0260   20.0985 H   0  0  0  0  0  0  0  0  0  0  0  0
   47.6635    9.8715   18.5222 H   0  0  0  0  0  0  0  0  0  0  0  0
   47.0559   11.4851   18.1912 H   0  0  0  0  0  0  0  0  0  0  0  0
   48.7109   11.2668   18.7994 H   0  0  0  0  0  0  0  0  0  0  0  0
   49.7356    4.0234   21.6662 H   0  0  0  0  0  0  0  0  0  0  0  0
   50.1256    4.7379   20.0826 H   0  0  0  0  0  0  0  0  0  0  0  0
   51.3259    4.7213   21.3736 H   0  0  0  0  0  0  0  0  0  0  0  0
   48.2675    8.1870   22.5758 H   0  0  0  0  0  0  0  0  0  0  0  0
   49.1281    8.5453   21.0797 H   0  0  0  0  0  0  0  0  0  0  0  0
   47.4792    5.8123   23.0509 H   0  0  0  0  0  0  0  0  0  0  0  0
   46.3954    5.9113   21.6553 H   0  0  0  0  0  0  0  0  0  0  0  0
   47.5371    4.5851   21.7746 H   0  0  0  0  0  0  0  0  0  0  0  0
  2  1  2  3
  3  5  1  0
  4  2  1  0
  5  9  1  0
  6  1  1  0
  7  1  1  0
  8  3  1  0
  9  4  1  0
 10  5  1  0
 12 11  1  0
 13 11  1  0
 14 12  1  0
 15 13  1  0
 16 14  1  0
 17 15  2  0
 18 16  2  0
 13 19  1  0
 14 20  1  0
 11 21  1  0
 12 22  1  0
 23 16  1  0
 24 15  1  0
 26 25  2  3
 27 29  1  0
 28 26  1  0
 29 33  1  0
 30 25  1  0
 31 25  1  0
 32 27  1  0
 33 28  1  0
 34 29  1  0
  2 35  1  0
  3 36  1  0
  4 37  1  0
  4 38  1  0
  5 39  1  6
  6 40  1  0
  6 41  1  0
  6 42  1  0
  7 43  1  0
  7 44  1  0
  7 45  1  0
  8 46  1  0
  8 47  1  0
  8 48  1  0
  9 49  1  0
  9 50  1  0
 10 51  1  0
 10 52  1  0
 10 53  1  0
 11 54  1  6
 12 55  1  6
 13 56  1  1
 14 57  1  1
 19 58  1  0
 20 59  1  0
 21 60  1  0
 22 61  1  0
 23 62  1  0
 24 63  1  0
 26 64  1  0
 27 65  1  0
 28 66  1  0
 28 67  1  0
 29 68  1  1
 30 69  1  0
 30 70  1  0
 30 71  1  0
 31 72  1  0
 31 73  1  0
 31 74  1  0
 32 75  1  0
 32 76  1  0
 32 77  1  0
 33 78  1  0
 33 79  1  0
 34 80  1  0
 34 81  1  0
 34 82  1  0
M  END
> <Uni-Dock RESULT> 
ENERGY=   -5.174  LOWER_BOUND=    7.899  UPPER_BOUND=    9.796
INTER + INTRA:          -5.174
INTER:                  -5.174
INTRA:                   0.000
UNBOUND:                 0.000

$$$$

     RDKit          3D

 82 79  0  0  0  0  0  0  0  0999 V2000
   47.8355    6.9138   22.2048 C   0  0  0  0  0  0  0  0  0  0  0  0
   47.8777    7.4220   20.9597 C   0  0  0  0  0  0  0  0  0  0  0  0
   48.7942   11.7693   20.4541 N   0  0  0  0  0  0  0  0  0  0  0  0
   48.3230    8.8004   20.5545 C   0  0  0  0  0  0  0  0  0  0  0  0
   47.5019   11.1937   20.0406 C   0  0  1  0  0  0  0  0  0  0  0  0
   48.1999    7.6715   23.4521 C   0  0  0  0  0  0  0  0  0  0  0  0
   47.3678    5.5035   22.4461 C   0  0  0  0  0  0  0  0  0  0  0  0
   49.1506   12.9668   19.7019 C   0  0  0  0  0  0  0  0  0  0  0  0
   47.2314    9.8539   20.7636 C   0  0  0  0  0  0  0  0  0  0  0  0
   46.3426   12.1553   20.3343 C   0  0  0  0  0  0  0  0  0  0  0  0
   48.5599   10.4536   21.0311 C   0  0  1  0  0  0  0  0  0  0  0  0
   48.5251    9.4862   22.2388 C   0  0  2  0  0  0  0  0  0  0  0  0
   47.2742   10.5071   20.1918 C   0  0  2  0  0  0  0  0  0  0  0  0
   47.8176    8.1395   22.0449 C   0  0  1  0  0  0  0  0  0  0  0  0
   47.4485   11.4575   19.0090 C   0  0  0  0  0  0  0  0  0  0  0  0
   48.5128    7.2741   21.0025 C   0  0  0  0  0  0  0  0  0  0  0  0
   46.8446   12.5029   18.8237 O   0  0  0  0  0  0  0  0  0  0  0  0
   49.1500    7.6558   20.0365 O   0  0  0  0  0  0  0  0  0  0  0  0
   46.1607   10.8845   21.0016 O   0  0  0  0  0  0  0  0  0  0  0  0
   47.8098    7.4821   23.3282 O   0  0  0  0  0  0  0  0  0  0  0  0
   48.8304   11.7720   21.5595 O   0  0  0  0  0  0  0  0  0  0  0  0
   47.9040   10.1805   23.3516 O   0  0  0  0  0  0  0  0  0  0  0  0
   48.3199    5.9546   21.2245 O   0  0  0  0  0  0  0  0  0  0  0  0
   48.3411   11.0174   18.0997 O   0  0  0  0  0  0  0  0  0  0  0  0
   48.1206    6.7682   21.9989 C   0  0  0  0  0  0  0  0  0  0  0  0
   47.4555    7.4651   21.0580 C   0  0  0  0  0  0  0  0  0  0  0  0
   48.3712   12.2075   20.1777 N   0  0  0  0  0  0  0  0  0  0  0  0
   46.8754    8.8495   21.1705 C   0  0  0  0  0  0  0  0  0  0  0  0
   47.2804   11.3271   20.6216 C   0  0  2  0  0  0  0  0  0  0  0  0
   48.6562    5.3924   21.6983 C   0  0  0  0  0  0  0  0  0  0  0  0
   48.4263    7.2549   23.3893 C   0  0  0  0  0  0  0  0  0  0  0  0
   48.1659   13.6081   20.5225 C   0  0  0  0  0  0  0  0  0  0  0  0
   47.7927    9.8774   20.5000 C   0  0  0  0  0  0  0  0  0  0  0  0
   46.0144   11.5448   19.7897 C   0  0  0  0  0  0  0  0  0  0  0  0
   47.5640    6.7898   20.1303 H   0  0  0  0  0  0  0  0  0  0  0  0
   49.5286   11.0780   20.3018 H   0  0  0  0  0  0  0  0  0  0  0  0
   48.6027    8.7627   19.4954 H   0  0  0  0  0  0  0  0  0  0  0  0
   49.2383    9.0664   21.0908 H   0  0  0  0  0  0  0  0  0  0  0  0
   47.5232   10.9903   18.9612 H   0  0  0  0  0  0  0  0  0  0  0  0
   48.8219    7.0542   24.1130 H   0  0  0  0  0  0  0  0  0  0  0  0
   47.2871    7.9437   23.9956 H   0  0  0  0  0  0  0  0  0  0  0  0
   48.7574    8.5907   23.2535 H   0  0  0  0  0  0  0  0  0  0  0  0
   46.4662    5.5045   23.0662 H   0  0  0  0  0  0  0  0  0  0  0  0
   48.1461    4.9277   22.9545 H   0  0  0  0  0  0  0  0  0  0  0  0
   47.1343    4.9790   21.5121 H   0  0  0  0  0  0  0  0  0  0  0  0
   49.0803   12.8002   18.6215 H   0  0  0  0  0  0  0  0  0  0  0  0
   48.5259   13.8223   19.9799 H   0  0  0  0  0  0  0  0  0  0  0  0
   50.1853   13.2412   19.9305 H   0  0  0  0  0  0  0  0  0  0  0  0
   46.2774    9.4564   20.3982 H   0  0  0  0  0  0  0  0  0  0  0  0
   47.0964   10.0317   21.8379 H   0  0  0  0  0  0  0  0  0  0  0  0
   46.3858   13.0471   19.7002 H   0  0  0  0  0  0  0  0  0  0  0  0
   46.3531   12.4810   21.3814 H   0  0  0  0  0  0  0  0  0  0  0  0
   45.3759   11.6733   20.1453 H   0  0  0  0  0  0  0  0  0  0  0  0
   49.4056   10.1950   20.3853 H   0  0  0  0  0  0  0  0  0  0  0  0
   49.5574    9.3175   22.5690 H   0  0  0  0  0  0  0  0  0  0  0  0
   47.0340    9.5256   19.7717 H   0  0  0  0  0  0  0  0  0  0  0  0
   46.7693    8.2726   21.7568 H   0  0  0  0  0  0  0  0  0  0  0  0
   46.3097   11.8241   21.2290 H   0  0  0  0  0  0  0  0  0  0  0  0
   47.4299    6.5968   23.1587 H   0  0  0  0  0  0  0  0  0  0  0  0
   48.4722   11.7478   22.4753 H   0  0  0  0  0  0  0  0  0  0  0  0
   47.7327    9.4801   24.0172 H   0  0  0  0  0  0  0  0  0  0  0  0
   48.8142    5.5072   20.5023 H   0  0  0  0  0  0  0  0  0  0  0  0
   48.3472   11.7229   17.4188 H   0  0  0  0  0  0  0  0  0  0  0  0
   47.3137    7.0070   20.0777 H   0  0  0  0  0  0  0  0  0  0  0  0
   48.5081   12.1133   19.1717 H   0  0  0  0  0  0  0  0  0  0  0  0
   46.6937    9.1317   22.2115 H   0  0  0  0  0  0  0  0  0  0  0  0
   45.8920    8.8342   20.6871 H   0  0  0  0  0  0  0  0  0  0  0  0
   47.0642   11.5251   21.6789 H   0  0  0  0  0  0  0  0  0  0  0  0
   48.4399    5.0728   20.6729 H   0  0  0  0  0  0  0  0  0  0  0  0
   49.7438    5.3768   21.8300 H   0  0  0  0  0  0  0  0  0  0  0  0
   48.2131    4.6560   22.3777 H   0  0  0  0  0  0  0  0  0  0  0  0
   47.9384    8.1989   23.6386 H   0  0  0  0  0  0  0  0  0  0  0  0
   48.0917    6.5191   24.1256 H   0  0  0  0  0  0  0  0  0  0  0  0
   49.5067    7.3967   23.5059 H   0  0  0  0  0  0  0  0  0  0  0  0
   47.3599   14.0599   19.9382 H   0  0  0  0  0  0  0  0  0  0  0  0
   47.9491   13.7342   21.5866 H   0  0  0  0  0  0  0  0  0  0  0  0
   49.0788   14.1704   20.3056 H   0  0  0  0  0  0  0  0  0  0  0  0
   47.9294    9.6162   19.4404 H   0  0  0  0  0  0  0  0  0  0  0  0
   48.7868    9.8098   20.9684 H   0  0  0  0  0  0  0  0  0  0  0  0
   46.1963   11.3413   18.7284 H   0  0  0  0  0  0  0  0  0  0  0  0
   45.2023   10.8926   20.1222 H   0  0  0  0  0  0  0  0  0  0  0  0
   45.6443   12.5721   19.8766 H   0  0  0  0  0  0  0  0  0  0  0  0
  2  1  2  3
  3  5  1  0
  4  2  1  0
  5  9  1  0
  6  1  1  0
  7  1  1  0
  8  3  1  0
  9  4  1  0
 10  5  1  0
 12 11  1  0
 13 11  1  0
 14 12  1  0
 15 13  1  0
 16 14  1  0
 17 15  2  0
 18 16  2  0
 13 19  1  0
 14 20  1  0
 11 21  1  0
 12 22  1  0
 23 16  1  0
 24 15  1  0
 26 25  2  3
 27 29  1  0
 28 26  1  0
 29 33  1  0
 30 25  1  0
 31 25  1  0
 32 27  1  0
 33 28  1  0
 34 29  1  0
  2 35  1  0
  3 36  1  0
  4 37  1  0
  4 38  1  0
  5 39  1  6
  6 40  1  0
  6 41  1  0
  6 42  1  0
  7 43  1  0
  7 44  1  0
  7 45  1  0
  8 46  1  0
  8 47  1  0
  8 48  1  0
  9 49  1  0
  9 50  1  0
 10 51  1  0
 10 52  1  0
 10 53  1  0
 11 54  1  6
 12 55  1  6
 13 56  1  1
 14 57  1  1
 19 58  1  0
 20 59  1  0
 21 60  1  0
 22 61  1  0
 23 62  1  0
 24 63  1  0
 26 64  1  0
 27 65  1  0
 28 66  1  0
 28 67  1  0
 29 68  1  1
 30 69  1  0
 30 70  1  0
 30 71  1  0
 31 72  1  0
 31 73  1  0
 31 74  1  0
 32 75  1  0
 32 76  1  0
 32 77  1  0
 33 78  1  0
 33 79  1  0
 34 80  1  0
 34 81  1  0
 34 82  1  0
M  END
> <Uni-Dock RESULT> 
ENERGY=   -4.931  LOWER_BOUND=    8.396  UPPER_BOUND=    9.642
INTER + INTRA:          -4.931
INTER:                  -4.931
INTRA:                   0.000
UNBOUND:                 0.000

$$$$
