
     RDKit          3D

 82 79  0  0  0  0  0  0  0  0999 V2000
   44.3040    4.4927   12.5316 C   0  0  0  0  0  0  0  0  0  0  0  0
   45.6139    4.7202   12.7511 C   0  0  0  0  0  0  0  0  0  0  0  0
   48.2133    8.7333   11.5157 N   0  0  0  0  0  0  0  0  0  0  0  0
   46.2566    5.9661   13.2991 C   0  0  0  0  0  0  0  0  0  0  0  0
   47.5945    8.0745   12.6807 C   0  0  1  0  0  0  0  0  0  0  0  0
   43.8360    3.1594   12.0085 C   0  0  0  0  0  0  0  0  0  0  0  0
   43.1997    5.4879   12.7574 C   0  0  0  0  0  0  0  0  0  0  0  0
   48.4720   10.1518   11.7329 C   0  0  0  0  0  0  0  0  0  0  0  0
   47.0256    6.7175   12.2079 C   0  0  0  0  0  0  0  0  0  0  0  0
   48.6149    7.8965   13.8102 C   0  0  0  0  0  0  0  0  0  0  0  0
   46.3002    6.0575   11.4238 C   0  0  1  0  0  0  0  0  0  0  0  0
   46.1768    7.5664   11.7188 C   0  0  2  0  0  0  0  0  0  0  0  0
   45.2704    5.1812   12.1760 C   0  0  2  0  0  0  0  0  0  0  0  0
   46.4017    7.9954   13.1748 C   0  0  1  0  0  0  0  0  0  0  0  0
   46.0238    4.2541   13.1261 C   0  0  0  0  0  0  0  0  0  0  0  0
   47.8660    7.8711   13.5899 C   0  0  0  0  0  0  0  0  0  0  0  0
   46.1799    3.0486   13.0220 O   0  0  0  0  0  0  0  0  0  0  0  0
   48.6956    7.0783   13.1826 O   0  0  0  0  0  0  0  0  0  0  0  0
   44.4770    4.4287   11.2512 O   0  0  0  0  0  0  0  0  0  0  0  0
   45.9783    9.3727   13.2753 O   0  0  0  0  0  0  0  0  0  0  0  0
   46.1178    5.8708   10.0008 O   0  0  0  0  0  0  0  0  0  0  0  0
   44.8569    7.9884   11.3054 O   0  0  0  0  0  0  0  0  0  0  0  0
   48.1848    8.7667   14.5547 O   0  0  0  0  0  0  0  0  0  0  0  0
   46.5591    4.9147   14.1775 O   0  0  0  0  0  0  0  0  0  0  0  0
   48.5893    8.4901   12.6637 C   0  0  0  0  0  0  0  0  0  0  0  0
   47.2616    8.4183   12.8840 C   0  0  0  0  0  0  0  0  0  0  0  0
   43.7449    5.2524   11.5523 N   0  0  0  0  0  0  0  0  0  0  0  0
   46.4589    7.2352   13.3564 C   0  0  0  0  0  0  0  0  0  0  0  0
   44.6479    5.5395   12.6782 C   0  0  2  0  0  0  0  0  0  0  0  0
   49.5657    7.3597   12.8375 C   0  0  0  0  0  0  0  0  0  0  0  0
   49.2163    9.7760   12.1897 C   0  0  0  0  0  0  0  0  0  0  0  0
   42.5762    4.4721   11.9311 C   0  0  0  0  0  0  0  0  0  0  0  0
   45.5750    6.6887   12.2289 C   0  0  0  0  0  0  0  0  0  0  0  0
   45.4433    4.2947   13.0850 C   0  0  0  0  0  0  0  0  0  0  0  0
   46.3212    3.9193   12.5327 H   0  0  0  0  0  0  0  0  0  0  0  0
   47.5921    8.6431   10.7109 H   0  0  0  0  0  0  0  0  0  0  0  0
   46.9393    5.6552   14.0979 H   0  0  0  0  0  0  0  0  0  0  0  0
   45.5238    6.6301   13.7668 H   0  0  0  0  0  0  0  0  0  0  0  0
   46.7567    8.6845   13.0423 H   0  0  0  0  0  0  0  0  0  0  0  0
   43.1520    2.6911   12.7243 H   0  0  0  0  0  0  0  0  0  0  0  0
   43.3097    3.2869   11.0566 H   0  0  0  0  0  0  0  0  0  0  0  0
   44.6650    2.4642   11.8384 H   0  0  0  0  0  0  0  0  0  0  0  0
   43.5598    6.4895   13.0037 H   0  0  0  0  0  0  0  0  0  0  0  0
   42.5917    5.5863   11.8520 H   0  0  0  0  0  0  0  0  0  0  0  0
   42.5511    5.1515   13.5726 H   0  0  0  0  0  0  0  0  0  0  0  0
   47.5586   10.6919   12.0027 H   0  0  0  0  0  0  0  0  0  0  0  0
   49.2309   10.3173   12.5023 H   0  0  0  0  0  0  0  0  0  0  0  0
   48.8578   10.5913   10.8071 H   0  0  0  0  0  0  0  0  0  0  0  0
   47.8390    6.0830   11.8301 H   0  0  0  0  0  0  0  0  0  0  0  0
   46.3469    6.8911   11.3610 H   0  0  0  0  0  0  0  0  0  0  0  0
   49.4564    7.2714   13.4920 H   0  0  0  0  0  0  0  0  0  0  0  0
   48.1592    7.4283   14.6878 H   0  0  0  0  0  0  0  0  0  0  0  0
   49.0158    8.8561   14.1508 H   0  0  0  0  0  0  0  0  0  0  0  0
   47.3215    5.7267   11.6335 H   0  0  0  0  0  0  0  0  0  0  0  0
   46.8672    8.1120   11.0625 H   0  0  0  0  0  0  0  0  0  0  0  0
   44.5712    5.7666   12.7809 H   0  0  0  0  0  0  0  0  0  0  0  0
   45.7795    7.4310   13.8737 H   0  0  0  0  0  0  0  0  0  0  0  0
   45.1001    4.1117   10.5673 H   0  0  0  0  0  0  0  0  0  0  0  0
   46.3775    9.7061   14.1052 H   0  0  0  0  0  0  0  0  0  0  0  0
   45.2734    6.3290    9.7988 H   0  0  0  0  0  0  0  0  0  0  0  0
   44.7616    8.8976   11.6637 H   0  0  0  0  0  0  0  0  0  0  0  0
   49.1326    8.5907   14.7446 H   0  0  0  0  0  0  0  0  0  0  0  0
   47.0087    4.1987   14.6793 H   0  0  0  0  0  0  0  0  0  0  0  0
   46.6613    9.3122   12.7100 H   0  0  0  0  0  0  0  0  0  0  0  0
   44.2540    4.7745   10.8090 H   0  0  0  0  0  0  0  0  0  0  0  0
   45.8290    7.5635   14.1927 H   0  0  0  0  0  0  0  0  0  0  0  0
   47.1053    6.4497   13.7533 H   0  0  0  0  0  0  0  0  0  0  0  0
   44.0615    5.8911   13.5361 H   0  0  0  0  0  0  0  0  0  0  0  0
   50.0476    7.1295   11.8808 H   0  0  0  0  0  0  0  0  0  0  0  0
   50.3428    7.6418   13.5569 H   0  0  0  0  0  0  0  0  0  0  0  0
   49.1094    6.4355   13.1998 H   0  0  0  0  0  0  0  0  0  0  0  0
   48.4787   10.5734   12.0522 H   0  0  0  0  0  0  0  0  0  0  0  0
   49.9548   10.1278   12.9178 H   0  0  0  0  0  0  0  0  0  0  0  0
   49.7201    9.6213   11.2298 H   0  0  0  0  0  0  0  0  0  0  0  0
   42.8404    3.4609   12.2537 H   0  0  0  0  0  0  0  0  0  0  0  0
   41.9122    4.3781   11.0662 H   0  0  0  0  0  0  0  0  0  0  0  0
   42.0078    4.9668   12.7255 H   0  0  0  0  0  0  0  0  0  0  0  0
   44.9586    7.5123   11.8398 H   0  0  0  0  0  0  0  0  0  0  0  0
   46.2094    6.3535   11.3959 H   0  0  0  0  0  0  0  0  0  0  0  0
   46.0851    4.4978   13.9478 H   0  0  0  0  0  0  0  0  0  0  0  0
   44.7848    3.4705   13.3767 H   0  0  0  0  0  0  0  0  0  0  0  0
   46.0809    3.9436   12.2657 H   0  0  0  0  0  0  0  0  0  0  0  0
  2  1  2  3
  3  5  1  0
  4  2  1  0
  5  9  1  0
  6  1  1  0
  7  1  1  0
  8  3  1  0
  9  4  1  0
 10  5  1  0
 12 11  1  0
 13 11  1  0
 14 12  1  0
 15 13  1  0
 16 14  1  0
 17 15  2  0
 18 16  2  0
 13 19  1  0
 14 20  1  0
 11 21  1  0
 12 22  1  0
 23 16  1  0
 24 15  1  0
 26 25  2  3
 27 29  1  0
 28 26  1  0
 29 33  1  0
 30 25  1  0
 31 25  1  0
 32 27  1  0
 33 28  1  0
 34 29  1  0
  2 35  1  0
  3 36  1  0
  4 37  1  0
  4 38  1  0
  5 39  1  6
  6 40  1  0
  6 41  1  0
  6 42  1  0
  7 43  1  0
  7 44  1  0
  7 45  1  0
  8 46  1  0
  8 47  1  0
  8 48  1  0
  9 49  1  0
  9 50  1  0
 10 51  1  0
 10 52  1  0
 10 53  1  0
 11 54  1  1
 12 55  1  6
 13 56  1  6
 14 57  1  1
 19 58  1  0
 20 59  1  0
 21 60  1  0
 22 61  1  0
 23 62  1  0
 24 63  1  0
 26 64  1  0
 27 65  1  0
 28 66  1  0
 28 67  1  0
 29 68  1  1
 30 69  1  0
 30 70  1  0
 30 71  1  0
 31 72  1  0
 31 73  1  0
 31 74  1  0
 32 75  1  0
 32 76  1  0
 32 77  1  0
 33 78  1  0
 33 79  1  0
 34 80  1  0
 34 81  1  0
 34 82  1  0
M  END
> <Uni-Dock RESULT> 
ENERGY=   -6.616  LOWER_BOUND=    0.000  UPPER_BOUND=    0.000
INTER + INTRA:          -6.616
INTER:                  -6.616
INTRA:                   0.000
UNBOUND:                 0.000

$$$$

     RDKit          3D

 82 79  0  0  0  0  0  0  0  0999 V2000
   47.3373    9.2352   13.1097 C   0  0  0  0  0  0  0  0  0  0  0  0
   46.2581    8.8109   12.4233 C   0  0  0  0  0  0  0  0  0  0  0  0
   45.0927    4.1616   11.2340 N   0  0  0  0  0  0  0  0  0  0  0  0
   45.3405    7.6659   12.7590 C   0  0  0  0  0  0  0  0  0  0  0  0
   44.7254    5.2378   12.1728 C   0  0  1  0  0  0  0  0  0  0  0  0
   48.1215   10.4325   12.6389 C   0  0  0  0  0  0  0  0  0  0  0  0
   47.8767    8.5983   14.3604 C   0  0  0  0  0  0  0  0  0  0  0  0
   44.6678    2.8415   11.6847 C   0  0  0  0  0  0  0  0  0  0  0  0
   45.5449    6.4926   11.7954 C   0  0  0  0  0  0  0  0  0  0  0  0
   43.2183    5.5114   12.1235 C   0  0  0  0  0  0  0  0  0  0  0  0
   46.6523    7.0396   11.5699 C   0  0  1  0  0  0  0  0  0  0  0  0
   46.4305    5.7367   12.3651 C   0  0  2  0  0  0  0  0  0  0  0  0
   46.8802    8.2881   12.4551 C   0  0  2  0  0  0  0  0  0  0  0  0
   45.2012    5.7010   13.2828 C   0  0  1  0  0  0  0  0  0  0  0  0
   45.7342    9.2678   12.2168 C   0  0  0  0  0  0  0  0  0  0  0  0
   43.8968    5.6292   12.4921 C   0  0  0  0  0  0  0  0  0  0  0  0
   45.7771   10.3339   11.6253 O   0  0  0  0  0  0  0  0  0  0  0  0
   43.6652    6.0825   11.3860 O   0  0  0  0  0  0  0  0  0  0  0  0
   48.1418    8.8959   12.1552 O   0  0  0  0  0  0  0  0  0  0  0  0
   45.3351    4.5289   14.1162 O   0  0  0  0  0  0  0  0  0  0  0  0
   47.8132    6.8490   10.7278 O   0  0  0  0  0  0  0  0  0  0  0  0
   47.6149    5.5003   13.1604 O   0  0  0  0  0  0  0  0  0  0  0  0
   42.9260    4.9979   13.1947 O   0  0  0  0  0  0  0  0  0  0  0  0
   44.5662    8.8357   12.7435 O   0  0  0  0  0  0  0  0  0  0  0  0
   44.0226    4.6362   11.6190 C   0  0  0  0  0  0  0  0  0  0  0  0
   44.7880    5.0431   12.6508 C   0  0  0  0  0  0  0  0  0  0  0  0
   48.3802    8.3633   13.1373 N   0  0  0  0  0  0  0  0  0  0  0  0
   45.0791    6.4521   13.0952 C   0  0  0  0  0  0  0  0  0  0  0  0
   46.9276    8.2251   13.3279 C   0  0  2  0  0  0  0  0  0  0  0  0
   43.2930    5.5395   10.6635 C   0  0  0  0  0  0  0  0  0  0  0  0
   43.8478    3.1673   11.3305 C   0  0  0  0  0  0  0  0  0  0  0  0
   48.9666    9.4451   13.9145 C   0  0  0  0  0  0  0  0  0  0  0  0
   46.5360    6.8285   12.8006 C   0  0  0  0  0  0  0  0  0  0  0  0
   46.1631    9.3394   12.6057 C   0  0  0  0  0  0  0  0  0  0  0  0
   45.9760    9.3508   11.5187 H   0  0  0  0  0  0  0  0  0  0  0  0
   46.1069    4.1477   11.1208 H   0  0  0  0  0  0  0  0  0  0  0  0
   44.3134    8.0407   12.6869 H   0  0  0  0  0  0  0  0  0  0  0  0
   45.4699    7.3301   13.7919 H   0  0  0  0  0  0  0  0  0  0  0  0
   45.0071    4.9444   13.1923 H   0  0  0  0  0  0  0  0  0  0  0  0
   48.1103   11.2166   13.4035 H   0  0  0  0  0  0  0  0  0  0  0  0
   49.1621   10.1532   12.4422 H   0  0  0  0  0  0  0  0  0  0  0  0
   47.7136   10.8618   11.7176 H   0  0  0  0  0  0  0  0  0  0  0  0
   47.3871    7.6555   14.6152 H   0  0  0  0  0  0  0  0  0  0  0  0
   48.9423    8.3766   14.2396 H   0  0  0  0  0  0  0  0  0  0  0  0
   47.7613    9.2798   15.2094 H   0  0  0  0  0  0  0  0  0  0  0  0
   45.0722    2.6032   12.6738 H   0  0  0  0  0  0  0  0  0  0  0  0
   43.5789    2.7463   11.7064 H   0  0  0  0  0  0  0  0  0  0  0  0
   45.0383    2.0872   10.9828 H   0  0  0  0  0  0  0  0  0  0  0  0
   45.2932    6.8094   10.7741 H   0  0  0  0  0  0  0  0  0  0  0  0
   46.6125    6.2318   11.7866 H   0  0  0  0  0  0  0  0  0  0  0  0
   42.9038    5.8305   11.1238 H   0  0  0  0  0  0  0  0  0  0  0  0
   42.9327    6.2936   12.8333 H   0  0  0  0  0  0  0  0  0  0  0  0
   42.6353    4.6261   12.3954 H   0  0  0  0  0  0  0  0  0  0  0  0
   45.8154    7.1953   10.8832 H   0  0  0  0  0  0  0  0  0  0  0  0
   46.3896    4.8958   11.6607 H   0  0  0  0  0  0  0  0  0  0  0  0
   46.8926    8.0577   13.5248 H   0  0  0  0  0  0  0  0  0  0  0  0
   45.1654    6.5573   13.9607 H   0  0  0  0  0  0  0  0  0  0  0  0
   48.2219    8.8686   11.1809 H   0  0  0  0  0  0  0  0  0  0  0  0
   44.4411    4.3687   14.4828 H   0  0  0  0  0  0  0  0  0  0  0  0
   48.5141    6.5393   11.3414 H   0  0  0  0  0  0  0  0  0  0  0  0
   47.3659    4.7707   13.7687 H   0  0  0  0  0  0  0  0  0  0  0  0
   42.1445    5.0184   12.5998 H   0  0  0  0  0  0  0  0  0  0  0  0
   43.9395    9.5542   12.5036 H   0  0  0  0  0  0  0  0  0  0  0  0
   45.2724    4.2825   13.2646 H   0  0  0  0  0  0  0  0  0  0  0  0
   48.5921    8.4934   12.1482 H   0  0  0  0  0  0  0  0  0  0  0  0
   44.8935    6.5134   14.1750 H   0  0  0  0  0  0  0  0  0  0  0  0
   44.3959    7.1648   12.6287 H   0  0  0  0  0  0  0  0  0  0  0  0
   46.6949    8.2618   14.3994 H   0  0  0  0  0  0  0  0  0  0  0  0
   43.6614    5.3830    9.6435 H   0  0  0  0  0  0  0  0  0  0  0  0
   42.2200    5.3171   10.6812 H   0  0  0  0  0  0  0  0  0  0  0  0
   43.4069    6.6026   10.8884 H   0  0  0  0  0  0  0  0  0  0  0  0
   44.4070    2.5360   12.0289 H   0  0  0  0  0  0  0  0  0  0  0  0
   42.7909    2.8902   11.4046 H   0  0  0  0  0  0  0  0  0  0  0  0
   44.1986    2.9347   10.3196 H   0  0  0  0  0  0  0  0  0  0  0  0
   48.6156   10.4278   13.5866 H   0  0  0  0  0  0  0  0  0  0  0  0
   50.0539    9.4266   13.7914 H   0  0  0  0  0  0  0  0  0  0  0  0
   48.7579    9.3260   14.9828 H   0  0  0  0  0  0  0  0  0  0  0  0
   47.1905    6.0761   13.2645 H   0  0  0  0  0  0  0  0  0  0  0  0
   46.7166    6.7736   11.7175 H   0  0  0  0  0  0  0  0  0  0  0  0
   45.0859    9.2598   12.7806 H   0  0  0  0  0  0  0  0  0  0  0  0
   46.4616   10.3310   12.9601 H   0  0  0  0  0  0  0  0  0  0  0  0
   46.3327    9.3026   11.5235 H   0  0  0  0  0  0  0  0  0  0  0  0
  2  1  2  3
  3  5  1  0
  4  2  1  0
  5  9  1  0
  6  1  1  0
  7  1  1  0
  8  3  1  0
  9  4  1  0
 10  5  1  0
 12 11  1  0
 13 11  1  0
 14 12  1  0
 15 13  1  0
 16 14  1  0
 17 15  2  0
 18 16  2  0
 13 19  1  0
 14 20  1  0
 11 21  1  0
 12 22  1  0
 23 16  1  0
 24 15  1  0
 26 25  2  3
 27 29  1  0
 28 26  1  0
 29 33  1  0
 30 25  1  0
 31 25  1  0
 32 27  1  0
 33 28  1  0
 34 29  1  0
  2 35  1  0
  3 36  1  0
  4 37  1  0
  4 38  1  0
  5 39  1  6
  6 40  1  0
  6 41  1  0
  6 42  1  0
  7 43  1  0
  7 44  1  0
  7 45  1  0
  8 46  1  0
  8 47  1  0
  8 48  1  0
  9 49  1  0
  9 50  1  0
 10 51  1  0
 10 52  1  0
 10 53  1  0
 11 54  1  1
 12 55  1  6
 13 56  1  6
 14 57  1  1
 19 58  1  0
 20 59  1  0
 21 60  1  0
 22 61  1  0
 23 62  1  0
 24 63  1  0
 26 64  1  0
 27 65  1  0
 28 66  1  0
 28 67  1  0
 29 68  1  1
 30 69  1  0
 30 70  1  0
 30 71  1  0
 31 72  1  0
 31 73  1  0
 31 74  1  0
 32 75  1  0
 32 76  1  0
 32 77  1  0
 33 78  1  0
 33 79  1  0
 34 80  1  0
 34 81  1  0
 34 82  1  0
M  END
> <Uni-Dock RESULT> 
ENERGY=   -6.338  LOWER_BOUND=    1.335  UPPER_BOUND=    5.251
INTER + INTRA:          -6.338
INTER:                  -6.338
INTRA:                   0.000
UNBOUND:                 0.000

$$$$

     RDKit          3D

 82 79  0  0  0  0  0  0  0  0999 V2000
   47.8081    6.7771   22.2338 C   0  0  0  0  0  0  0  0  0  0  0  0
   47.6379    8.0958   22.4523 C   0  0  0  0  0  0  0  0  0  0  0  0
   48.9009   11.8219   19.4674 N   0  0  0  0  0  0  0  0  0  0  0  0
   47.0927    9.1275   21.5015 C   0  0  0  0  0  0  0  0  0  0  0  0
   47.7245   11.0598   19.9253 C   0  0  1  0  0  0  0  0  0  0  0  0
   48.3373    5.8827   23.3249 C   0  0  0  0  0  0  0  0  0  0  0  0
   47.5183    6.0663   20.9409 C   0  0  0  0  0  0  0  0  0  0  0  0
   48.6672   12.5365   18.2181 C   0  0  0  0  0  0  0  0  0  0  0  0
   48.1997   10.0640   21.0074 C   0  0  0  0  0  0  0  0  0  0  0  0
   46.6413   12.0022   20.4613 C   0  0  0  0  0  0  0  0  0  0  0  0
   48.9661    9.1380   21.3702 C   0  0  1  0  0  0  0  0  0  0  0  0
   48.6373    9.5237   19.9134 C   0  0  2  0  0  0  0  0  0  0  0  0
   48.1896    7.9033   21.8867 C   0  0  2  0  0  0  0  0  0  0  0  0
   47.1837    9.9233   19.6272 C   0  0  1  0  0  0  0  0  0  0  0  0
   47.2890    8.3429   23.0380 C   0  0  0  0  0  0  0  0  0  0  0  0
   46.8312   11.2793   20.2345 C   0  0  0  0  0  0  0  0  0  0  0  0
   47.4226    8.0934   24.2247 O   0  0  0  0  0  0  0  0  0  0  0  0
   47.2872   11.7909   21.2410 O   0  0  0  0  0  0  0  0  0  0  0  0
   49.0955    6.8782   22.3102 O   0  0  0  0  0  0  0  0  0  0  0  0
   47.0395    9.9763   18.1910 O   0  0  0  0  0  0  0  0  0  0  0  0
   50.3838    8.8587   21.4423 O   0  0  0  0  0  0  0  0  0  0  0  0
   48.9883    8.4013   19.0719 O   0  0  0  0  0  0  0  0  0  0  0  0
   45.8631   11.9041   19.5224 O   0  0  0  0  0  0  0  0  0  0  0  0
   46.2478    9.0983   22.6212 O   0  0  0  0  0  0  0  0  0  0  0  0
   47.7741   12.1347   19.8559 C   0  0  0  0  0  0  0  0  0  0  0  0
   47.5012   10.8643   19.4984 C   0  0  0  0  0  0  0  0  0  0  0  0
   48.7489    6.4654   21.3030 N   0  0  0  0  0  0  0  0  0  0  0  0
   47.0193    9.7349   20.3699 C   0  0  0  0  0  0  0  0  0  0  0  0
   47.6555    7.4486   21.3612 C   0  0  2  0  0  0  0  0  0  0  0  0
   47.6620   12.6935   21.2475 C   0  0  0  0  0  0  0  0  0  0  0  0
   48.2484   13.1317   18.8300 C   0  0  0  0  0  0  0  0  0  0  0  0
   48.3379    5.1189   21.6717 C   0  0  0  0  0  0  0  0  0  0  0  0
   48.1200    8.6851   20.5629 C   0  0  0  0  0  0  0  0  0  0  0  0
   47.3055    7.8065   22.8094 C   0  0  0  0  0  0  0  0  0  0  0  0
   47.9004    8.4953   23.4325 H   0  0  0  0  0  0  0  0  0  0  0  0
   49.6813   11.1797   19.3251 H   0  0  0  0  0  0  0  0  0  0  0  0
   46.3286    9.6967   22.0428 H   0  0  0  0  0  0  0  0  0  0  0  0
   46.5828    8.6673   20.6502 H   0  0  0  0  0  0  0  0  0  0  0  0
   47.3173   10.4794   19.0874 H   0  0  0  0  0  0  0  0  0  0  0  0
   47.6033    5.1067   23.5672 H   0  0  0  0  0  0  0  0  0  0  0  0
   49.2643    5.3964   23.0030 H   0  0  0  0  0  0  0  0  0  0  0  0
   48.5544    6.4333   24.2464 H   0  0  0  0  0  0  0  0  0  0  0  0
   47.2676    6.7414   20.1194 H   0  0  0  0  0  0  0  0  0  0  0  0
   48.3961    5.4948   20.6214 H   0  0  0  0  0  0  0  0  0  0  0  0
   46.6839    5.3700   21.0733 H   0  0  0  0  0  0  0  0  0  0  0  0
   48.3500   11.8589   17.4188 H   0  0  0  0  0  0  0  0  0  0  0  0
   47.9263   13.3323   18.3331 H   0  0  0  0  0  0  0  0  0  0  0  0
   49.5993   13.0146   17.8992 H   0  0  0  0  0  0  0  0  0  0  0  0
   48.6225   10.6130   21.8599 H   0  0  0  0  0  0  0  0  0  0  0  0
   49.0147    9.4523   20.5957 H   0  0  0  0  0  0  0  0  0  0  0  0
   47.0055   12.5827   21.3160 H   0  0  0  0  0  0  0  0  0  0  0  0
   45.7549   11.4471   20.7830 H   0  0  0  0  0  0  0  0  0  0  0  0
   46.2989   12.7052   19.6958 H   0  0  0  0  0  0  0  0  0  0  0  0
   48.8047   10.0015   22.0220 H   0  0  0  0  0  0  0  0  0  0  0  0
   49.3106   10.3329   19.6020 H   0  0  0  0  0  0  0  0  0  0  0  0
   47.5454    7.4536   21.1249 H   0  0  0  0  0  0  0  0  0  0  0  0
   46.4710    9.1738   19.9799 H   0  0  0  0  0  0  0  0  0  0  0  0
   49.8102    7.3412   22.7911 H   0  0  0  0  0  0  0  0  0  0  0  0
   46.2203   10.4892   18.0321 H   0  0  0  0  0  0  0  0  0  0  0  0
   50.5423    8.2042   20.7281 H   0  0  0  0  0  0  0  0  0  0  0  0
   48.6089    8.6198   18.1929 H   0  0  0  0  0  0  0  0  0  0  0  0
   45.7156   12.7480   20.0033 H   0  0  0  0  0  0  0  0  0  0  0  0
   45.7786    9.3053   23.4600 H   0  0  0  0  0  0  0  0  0  0  0  0
   47.6333   10.5835   18.4527 H   0  0  0  0  0  0  0  0  0  0  0  0
   49.5215    6.7663   21.8969 H   0  0  0  0  0  0  0  0  0  0  0  0
   46.1518    9.2741   19.8809 H   0  0  0  0  0  0  0  0  0  0  0  0
   46.6643   10.1018   21.3352 H   0  0  0  0  0  0  0  0  0  0  0  0
   46.7678    7.0371   20.8650 H   0  0  0  0  0  0  0  0  0  0  0  0
   48.6419   13.0427   21.5918 H   0  0  0  0  0  0  0  0  0  0  0  0
   46.9697   13.5430   21.2566 H   0  0  0  0  0  0  0  0  0  0  0  0
   47.2993   11.9724   21.9837 H   0  0  0  0  0  0  0  0  0  0  0  0
   48.3403   12.6909   17.8319 H   0  0  0  0  0  0  0  0  0  0  0  0
   47.5444   13.9677   18.7610 H   0  0  0  0  0  0  0  0  0  0  0  0
   49.2308   13.5260   19.1099 H   0  0  0  0  0  0  0  0  0  0  0  0
   48.0458    5.0486   22.7235 H   0  0  0  0  0  0  0  0  0  0  0  0
   49.1766    4.4330   21.5171 H   0  0  0  0  0  0  0  0  0  0  0  0
   47.5115    4.7692   21.0442 H   0  0  0  0  0  0  0  0  0  0  0  0
   48.4678    8.3592   19.5717 H   0  0  0  0  0  0  0  0  0  0  0  0
   48.9846    9.1480   21.0600 H   0  0  0  0  0  0  0  0  0  0  0  0
   46.4660    8.5069   22.8535 H   0  0  0  0  0  0  0  0  0  0  0  0
   47.0032    6.9247   23.3829 H   0  0  0  0  0  0  0  0  0  0  0  0
   48.1569    8.2677   23.3229 H   0  0  0  0  0  0  0  0  0  0  0  0
  2  1  2  3
  3  5  1  0
  4  2  1  0
  5  9  1  0
  6  1  1  0
  7  1  1  0
  8  3  1  0
  9  4  1  0
 10  5  1  0
 12 11  1  0
 13 11  1  0
 14 12  1  0
 15 13  1  0
 16 14  1  0
 17 15  2  0
 18 16  2  0
 13 19  1  0
 14 20  1  0
 11 21  1  0
 12 22  1  0
 23 16  1  0
 24 15  1  0
 26 25  2  3
 27 29  1  0
 28 26  1  0
 29 33  1  0
 30 25  1  0
 31 25  1  0
 32 27  1  0
 33 28  1  0
 34 29  1  0
  2 35  1  0
  3 36  1  0
  4 37  1  0
  4 38  1  0
  5 39  1  6
  6 40  1  0
  6 41  1  0
  6 42  1  0
  7 43  1  0
  7 44  1  0
  7 45  1  0
  8 46  1  0
  8 47  1  0
  8 48  1  0
  9 49  1  0
  9 50  1  0
 10 51  1  0
 10 52  1  0
 10 53  1  0
 11 54  1  1
 12 55  1  6
 13 56  1  6
 14 57  1  1
 19 58  1  0
 20 59  1  0
 21 60  1  0
 22 61  1  0
 23 62  1  0
 24 63  1  0
 26 64  1  0
 27 65  1  0
 28 66  1  0
 28 67  1  0
 29 68  1  1
 30 69  1  0
 30 70  1  0
 30 71  1  0
 31 72  1  0
 31 73  1  0
 31 74  1  0
 32 75  1  0
 32 76  1  0
 32 77  1  0
 33 78  1  0
 33 79  1  0
 34 80  1  0
 34 81  1  0
 34 82  1  0
M  END
> <Uni-Dock RESULT> 
ENERGY=   -5.619  LOWER_BOUND=    7.978  UPPER_BOUND=    9.457
INTER + INTRA:          -5.619
INTER:                  -5.619
INTRA:                   0.000
UNBOUND:                 0.000

$$$$

     RDKit          3D

 82 79  0  0  0  0  0  0  0  0999 V2000
   47.3243   10.5883   19.2802 C   0  0  0  0  0  0  0  0  0  0  0  0
   47.7705    9.3175   19.2391 C   0  0  0  0  0  0  0  0  0  0  0  0
   49.7182    6.6974   22.9445 N   0  0  0  0  0  0  0  0  0  0  0  0
   47.4931    8.2084   20.2181 C   0  0  0  0  0  0  0  0  0  0  0  0
   48.4761    6.8410   22.1628 C   0  0  1  0  0  0  0  0  0  0  0  0
   47.6772   11.5592   18.1832 C   0  0  0  0  0  0  0  0  0  0  0  0
   46.4716   11.1747   20.3710 C   0  0  0  0  0  0  0  0  0  0  0  0
   49.5137    6.0262   24.2227 C   0  0  0  0  0  0  0  0  0  0  0  0
   48.7376    7.8798   21.0488 C   0  0  0  0  0  0  0  0  0  0  0  0
   48.0383    5.4909   21.5848 C   0  0  0  0  0  0  0  0  0  0  0  0
   49.1149    9.0249   20.6980 C   0  0  1  0  0  0  0  0  0  0  0  0
   48.6422    8.6194   22.1090 C   0  0  2  0  0  0  0  0  0  0  0  0
   48.0433    9.7641   19.8616 C   0  0  2  0  0  0  0  0  0  0  0  0
   47.4609    7.6424   22.1759 C   0  0  1  0  0  0  0  0  0  0  0  0
   47.7034    8.9094   18.6435 C   0  0  0  0  0  0  0  0  0  0  0  0
   47.8535    6.2359   21.7292 C   0  0  0  0  0  0  0  0  0  0  0  0
   47.9971    9.1230   17.4788 O   0  0  0  0  0  0  0  0  0  0  0  0
   48.7028    5.9176   20.9168 O   0  0  0  0  0  0  0  0  0  0  0  0
   48.5168   11.0555   19.4627 O   0  0  0  0  0  0  0  0  0  0  0  0
   47.0179    7.6150   23.5505 O   0  0  0  0  0  0  0  0  0  0  0  0
   50.2639    9.8906   20.8505 O   0  0  0  0  0  0  0  0  0  0  0  0
   48.2895    9.8291   22.8187 O   0  0  0  0  0  0  0  0  0  0  0  0
   47.0923    5.2934   22.3348 O   0  0  0  0  0  0  0  0  0  0  0  0
   47.0012    7.8006   18.9690 O   0  0  0  0  0  0  0  0  0  0  0  0
   48.9473    5.9018   22.4046 C   0  0  0  0  0  0  0  0  0  0  0  0
   48.0985    6.9438   22.5051 C   0  0  0  0  0  0  0  0  0  0  0  0
   47.8044   11.3330   20.3115 N   0  0  0  0  0  0  0  0  0  0  0  0
   47.4132    7.6966   21.3956 C   0  0  0  0  0  0  0  0  0  0  0  0
   47.2620    9.9695   20.2015 C   0  0  2  0  0  0  0  0  0  0  0  0
   49.4069    5.2706   21.1195 C   0  0  0  0  0  0  0  0  0  0  0  0
   49.5350    5.2735   23.6421 C   0  0  0  0  0  0  0  0  0  0  0  0
   46.9734   12.3409   19.6697 C   0  0  0  0  0  0  0  0  0  0  0  0
   47.9935    9.1087   21.2531 C   0  0  0  0  0  0  0  0  0  0  0  0
   47.4427    9.4114   18.7859 C   0  0  0  0  0  0  0  0  0  0  0  0
   48.3971    9.0168   18.3987 H   0  0  0  0  0  0  0  0  0  0  0  0
   50.1061    7.6230   23.1300 H   0  0  0  0  0  0  0  0  0  0  0  0
   47.1833    7.3323   19.6374 H   0  0  0  0  0  0  0  0  0  0  0  0
   46.6542    8.4481   20.8778 H   0  0  0  0  0  0  0  0  0  0  0  0
   47.6810    7.2328   22.8102 H   0  0  0  0  0  0  0  0  0  0  0  0
   46.7681   11.9211   17.6913 H   0  0  0  0  0  0  0  0  0  0  0  0
   48.2163   12.4192   18.5944 H   0  0  0  0  0  0  0  0  0  0  0  0
   48.3124   11.1063   17.4145 H   0  0  0  0  0  0  0  0  0  0  0  0
   46.3366   10.5068   21.2248 H   0  0  0  0  0  0  0  0  0  0  0  0
   46.9327   12.0897   20.7575 H   0  0  0  0  0  0  0  0  0  0  0  0
   45.4811   11.4276   19.9792 H   0  0  0  0  0  0  0  0  0  0  0  0
   48.7667    6.5422   24.8346 H   0  0  0  0  0  0  0  0  0  0  0  0
   49.2175    4.9815   24.0947 H   0  0  0  0  0  0  0  0  0  0  0  0
   50.4561    6.0227   24.7801 H   0  0  0  0  0  0  0  0  0  0  0  0
   49.5369    7.5223   20.3853 H   0  0  0  0  0  0  0  0  0  0  0  0
   49.1052    8.8089   21.5068 H   0  0  0  0  0  0  0  0  0  0  0  0
   48.7996    5.0794   20.9130 H   0  0  0  0  0  0  0  0  0  0  0  0
   47.1049    5.5834   21.0213 H   0  0  0  0  0  0  0  0  0  0  0  0
   47.8473    4.7546   22.3714 H   0  0  0  0  0  0  0  0  0  0  0  0
   49.4828    8.1415   20.1681 H   0  0  0  0  0  0  0  0  0  0  0  0
   49.4954    8.2052   22.6617 H   0  0  0  0  0  0  0  0  0  0  0  0
   47.1116    9.9306   20.4109 H   0  0  0  0  0  0  0  0  0  0  0  0
   46.6073    7.9834   21.5850 H   0  0  0  0  0  0  0  0  0  0  0  0
   49.4499   10.9242   19.2012 H   0  0  0  0  0  0  0  0  0  0  0  0
   46.4716    6.8060   23.6301 H   0  0  0  0  0  0  0  0  0  0  0  0
   49.9650   10.5888   21.4725 H   0  0  0  0  0  0  0  0  0  0  0  0
   47.8391    9.5181   23.6340 H   0  0  0  0  0  0  0  0  0  0  0  0
   47.4241    4.4435   21.9704 H   0  0  0  0  0  0  0  0  0  0  0  0
   46.8712    7.3612   18.0992 H   0  0  0  0  0  0  0  0  0  0  0  0
   47.8527    7.3142   23.5012 H   0  0  0  0  0  0  0  0  0  0  0  0
   48.7481   11.3660   19.9263 H   0  0  0  0  0  0  0  0  0  0  0  0
   46.3446    7.7597   21.6367 H   0  0  0  0  0  0  0  0  0  0  0  0
   47.4795    7.1562   20.4490 H   0  0  0  0  0  0  0  0  0  0  0  0
   46.1943    9.9798   20.4533 H   0  0  0  0  0  0  0  0  0  0  0  0
   50.4942    5.3653   21.0227 H   0  0  0  0  0  0  0  0  0  0  0  0
   49.1507    4.2051   21.1116 H   0  0  0  0  0  0  0  0  0  0  0  0
   48.9632    5.7169   20.2264 H   0  0  0  0  0  0  0  0  0  0  0  0
   49.1989    5.7672   24.5599 H   0  0  0  0  0  0  0  0  0  0  0  0
   49.2446    4.2195   23.7058 H   0  0  0  0  0  0  0  0  0  0  0  0
   50.6281    5.3324   23.6151 H   0  0  0  0  0  0  0  0  0  0  0  0
   46.9349   12.2154   18.5838 H   0  0  0  0  0  0  0  0  0  0  0  0
   47.3918   13.3319   19.8714 H   0  0  0  0  0  0  0  0  0  0  0  0
   45.9543   12.3302   20.0701 H   0  0  0  0  0  0  0  0  0  0  0  0
   47.9317    9.6106   22.2298 H   0  0  0  0  0  0  0  0  0  0  0  0
   49.0623    9.0419   21.0039 H   0  0  0  0  0  0  0  0  0  0  0  0
   47.0036    8.4133   18.6936 H   0  0  0  0  0  0  0  0  0  0  0  0
   46.9474   10.0376   18.0372 H   0  0  0  0  0  0  0  0  0  0  0  0
   48.5030    9.3395   18.5180 H   0  0  0  0  0  0  0  0  0  0  0  0
  2  1  2  3
  3  5  1  0
  4  2  1  0
  5  9  1  0
  6  1  1  0
  7  1  1  0
  8  3  1  0
  9  4  1  0
 10  5  1  0
 12 11  1  0
 13 11  1  0
 14 12  1  0
 15 13  1  0
 16 14  1  0
 17 15  2  0
 18 16  2  0
 13 19  1  0
 14 20  1  0
 11 21  1  0
 12 22  1  0
 23 16  1  0
 24 15  1  0
 26 25  2  3
 27 29  1  0
 28 26  1  0
 29 33  1  0
 30 25  1  0
 31 25  1  0
 32 27  1  0
 33 28  1  0
 34 29  1  0
  2 35  1  0
  3 36  1  0
  4 37  1  0
  4 38  1  0
  5 39  1  6
  6 40  1  0
  6 41  1  0
  6 42  1  0
  7 43  1  0
  7 44  1  0
  7 45  1  0
  8 46  1  0
  8 47  1  0
  8 48  1  0
  9 49  1  0
  9 50  1  0
 10 51  1  0
 10 52  1  0
 10 53  1  0
 11 54  1  1
 12 55  1  6
 13 56  1  6
 14 57  1  1
 19 58  1  0
 20 59  1  0
 21 60  1  0
 22 61  1  0
 23 62  1  0
 24 63  1  0
 26 64  1  0
 27 65  1  0
 28 66  1  0
 28 67  1  0
 29 68  1  1
 30 69  1  0
 30 70  1  0
 30 71  1  0
 31 72  1  0
 31 73  1  0
 31 74  1  0
 32 75  1  0
 32 76  1  0
 32 77  1  0
 33 78  1  0
 33 79  1  0
 34 80  1  0
 34 81  1  0
 34 82  1  0
M  END
> <Uni-Dock RESULT> 
ENERGY=   -5.482  LOWER_BOUND=    7.657  UPPER_BOUND=    9.796
INTER + INTRA:          -5.482
INTER:                  -5.482
INTRA:                   0.000
UNBOUND:                 0.000

$$$$

     RDKit          3D

 82 79  0  0  0  0  0  0  0  0999 V2000
   48.2775    7.9087   20.7442 C   0  0  0  0  0  0  0  0  0  0  0  0
   47.9330    7.4625   19.5203 C   0  0  0  0  0  0  0  0  0  0  0  0
   49.6914    3.4932   17.1664 N   0  0  0  0  0  0  0  0  0  0  0  0
   47.6065    6.0519   19.1089 C   0  0  0  0  0  0  0  0  0  0  0  0
   48.5048    3.9637   17.9045 C   0  0  1  0  0  0  0  0  0  0  0  0
   48.5346    9.3746   20.9799 C   0  0  0  0  0  0  0  0  0  0  0  0
   48.4511    7.0487   21.9653 C   0  0  0  0  0  0  0  0  0  0  0  0
   49.7782    2.0395   17.0925 C   0  0  0  0  0  0  0  0  0  0  0  0
   48.7224    5.4554   18.2453 C   0  0  0  0  0  0  0  0  0  0  0  0
   47.2315    3.7530   17.0781 C   0  0  0  0  0  0  0  0  0  0  0  0
   49.4250    6.3616   18.7567 C   0  0  1  0  0  0  0  0  0  0  0  0
   49.5127    4.8560   19.0797 C   0  0  2  0  0  0  0  0  0  0  0  0
   48.6431    7.1876   19.8058 C   0  0  2  0  0  0  0  0  0  0  0  0
   48.1811    4.0967   19.1498 C   0  0  1  0  0  0  0  0  0  0  0  0
   47.4047    7.7763   19.1353 C   0  0  0  0  0  0  0  0  0  0  0  0
   47.5441    3.9274   17.7724 C   0  0  0  0  0  0  0  0  0  0  0  0
   47.1999    8.9430   18.8432 O   0  0  0  0  0  0  0  0  0  0  0  0
   47.6316    4.6683   16.8101 O   0  0  0  0  0  0  0  0  0  0  0  0
   49.4691    8.2228   20.3507 O   0  0  0  0  0  0  0  0  0  0  0  0
   48.4677    2.8012   19.7206 O   0  0  0  0  0  0  0  0  0  0  0  0
   50.7757    6.8737   18.6750 O   0  0  0  0  0  0  0  0  0  0  0  0
   50.1974    4.7174   20.3459 O   0  0  0  0  0  0  0  0  0  0  0  0
   46.7808    2.8099   17.7139 O   0  0  0  0  0  0  0  0  0  0  0  0
   46.4723    6.8378   18.8556 O   0  0  0  0  0  0  0  0  0  0  0  0
   48.4768    3.4296   16.9683 C   0  0  0  0  0  0  0  0  0  0  0  0
   48.4373    3.6330   18.3000 C   0  0  0  0  0  0  0  0  0  0  0  0
   49.4770    7.4616   21.2025 N   0  0  0  0  0  0  0  0  0  0  0  0
   47.8201    4.7848   19.0480 C   0  0  0  0  0  0  0  0  0  0  0  0
   48.3329    6.8180   20.5374 C   0  0  2  0  0  0  0  0  0  0  0  0
   47.9054    4.3517   15.9268 C   0  0  0  0  0  0  0  0  0  0  0  0
   49.1447    2.2027   16.4026 C   0  0  0  0  0  0  0  0  0  0  0  0
   49.0964    8.2941   22.3339 C   0  0  0  0  0  0  0  0  0  0  0  0
   48.9022    5.6769   19.6680 C   0  0  0  0  0  0  0  0  0  0  0  0
   47.5364    7.8252   19.7014 C   0  0  0  0  0  0  0  0  0  0  0  0
   47.8545    8.1872   18.7093 H   0  0  0  0  0  0  0  0  0  0  0  0
   50.5327    3.8387   17.6295 H   0  0  0  0  0  0  0  0  0  0  0  0
   46.6682    6.0871   18.5440 H   0  0  0  0  0  0  0  0  0  0  0  0
   47.4169    5.4093   19.9735 H   0  0  0  0  0  0  0  0  0  0  0  0
   48.4195    3.4105   18.8487 H   0  0  0  0  0  0  0  0  0  0  0  0
   47.8340    9.7666   21.7249 H   0  0  0  0  0  0  0  0  0  0  0  0
   49.5549    9.5283   21.3470 H   0  0  0  0  0  0  0  0  0  0  0  0
   48.4170    9.9701   20.0684 H   0  0  0  0  0  0  0  0  0  0  0  0
   48.3977    5.9780   21.7551 H   0  0  0  0  0  0  0  0  0  0  0  0
   49.4315    7.2317   22.4175 H   0  0  0  0  0  0  0  0  0  0  0  0
   47.6808    7.2869   22.7058 H   0  0  0  0  0  0  0  0  0  0  0  0
   49.7756    1.5839   18.0880 H   0  0  0  0  0  0  0  0  0  0  0  0
   48.9689    1.6100   16.4959 H   0  0  0  0  0  0  0  0  0  0  0  0
   50.7165    1.7613   16.6013 H   0  0  0  0  0  0  0  0  0  0  0  0
   48.8210    6.0391   17.3198 H   0  0  0  0  0  0  0  0  0  0  0  0
   49.6742    5.5628   18.7843 H   0  0  0  0  0  0  0  0  0  0  0  0
   47.2709    4.3109   16.1362 H   0  0  0  0  0  0  0  0  0  0  0  0
   46.3427    4.0789   17.6269 H   0  0  0  0  0  0  0  0  0  0  0  0
   47.0718    2.6970   16.8396 H   0  0  0  0  0  0  0  0  0  0  0  0
   49.0003    6.4967   17.7579 H   0  0  0  0  0  0  0  0  0  0  0  0
   50.1733    4.3755   18.3464 H   0  0  0  0  0  0  0  0  0  0  0  0
   48.2983    6.5868   20.6529 H   0  0  0  0  0  0  0  0  0  0  0  0
   47.4655    4.5769   19.8217 H   0  0  0  0  0  0  0  0  0  0  0  0
   49.9636    8.5916   19.5918 H   0  0  0  0  0  0  0  0  0  0  0  0
   47.6909    2.2455   19.5038 H   0  0  0  0  0  0  0  0  0  0  0  0
   51.1977    6.5896   19.5146 H   0  0  0  0  0  0  0  0  0  0  0  0
   50.0795    3.7741   20.5918 H   0  0  0  0  0  0  0  0  0  0  0  0
   46.4219    2.8097   16.7993 H   0  0  0  0  0  0  0  0  0  0  0  0
   45.7577    7.3606   18.4281 H   0  0  0  0  0  0  0  0  0  0  0  0
   48.8999    2.8882   18.9490 H   0  0  0  0  0  0  0  0  0  0  0  0
   50.0072    8.0142   20.5290 H   0  0  0  0  0  0  0  0  0  0  0  0
   47.1827    4.3732   19.8407 H   0  0  0  0  0  0  0  0  0  0  0  0
   47.1622    5.3705   18.4026 H   0  0  0  0  0  0  0  0  0  0  0  0
   47.6739    6.3733   21.2934 H   0  0  0  0  0  0  0  0  0  0  0  0
   48.7028    4.7145   15.2687 H   0  0  0  0  0  0  0  0  0  0  0  0
   47.1691    3.8177   15.3156 H   0  0  0  0  0  0  0  0  0  0  0  0
   47.4054    5.2296   16.3426 H   0  0  0  0  0  0  0  0  0  0  0  0
   49.5690    1.5621   17.1826 H   0  0  0  0  0  0  0  0  0  0  0  0
   48.4217    1.6048   15.8377 H   0  0  0  0  0  0  0  0  0  0  0  0
   49.9596    2.4903   15.7301 H   0  0  0  0  0  0  0  0  0  0  0  0
   48.5115    9.1662   22.0279 H   0  0  0  0  0  0  0  0  0  0  0  0
   50.0007    8.6621   22.8285 H   0  0  0  0  0  0  0  0  0  0  0  0
   48.5295    7.7223   23.0759 H   0  0  0  0  0  0  0  0  0  0  0  0
   49.5574    5.0487   20.2891 H   0  0  0  0  0  0  0  0  0  0  0  0
   49.5342    6.0938   18.8708 H   0  0  0  0  0  0  0  0  0  0  0  0
   46.6630    7.3552   19.2393 H   0  0  0  0  0  0  0  0  0  0  0  0
   47.1567    8.6493   20.3136 H   0  0  0  0  0  0  0  0  0  0  0  0
   48.1512    8.2542   18.9019 H   0  0  0  0  0  0  0  0  0  0  0  0
  2  1  2  3
  3  5  1  0
  4  2  1  0
  5  9  1  0
  6  1  1  0
  7  1  1  0
  8  3  1  0
  9  4  1  0
 10  5  1  0
 12 11  1  0
 13 11  1  0
 14 12  1  0
 15 13  1  0
 16 14  1  0
 17 15  2  0
 18 16  2  0
 13 19  1  0
 14 20  1  0
 11 21  1  0
 12 22  1  0
 23 16  1  0
 24 15  1  0
 26 25  2  3
 27 29  1  0
 28 26  1  0
 29 33  1  0
 30 25  1  0
 31 25  1  0
 32 27  1  0
 33 28  1  0
 34 29  1  0
  2 35  1  0
  3 36  1  0
  4 37  1  0
  4 38  1  0
  5 39  1  6
  6 40  1  0
  6 41  1  0
  6 42  1  0
  7 43  1  0
  7 44  1  0
  7 45  1  0
  8 46  1  0
  8 47  1  0
  8 48  1  0
  9 49  1  0
  9 50  1  0
 10 51  1  0
 10 52  1  0
 10 53  1  0
 11 54  1  1
 12 55  1  6
 13 56  1  6
 14 57  1  1
 19 58  1  0
 20 59  1  0
 21 60  1  0
 22 61  1  0
 23 62  1  0
 24 63  1  0
 26 64  1  0
 27 65  1  0
 28 66  1  0
 28 67  1  0
 29 68  1  1
 30 69  1  0
 30 70  1  0
 30 71  1  0
 31 72  1  0
 31 73  1  0
 31 74  1  0
 32 75  1  0
 32 76  1  0
 32 77  1  0
 33 78  1  0
 33 79  1  0
 34 80  1  0
 34 81  1  0
 34 82  1  0
M  END
> <Uni-Dock RESULT> 
ENERGY=   -5.359  LOWER_BOUND=    6.043  UPPER_BOUND=    8.396
INTER + INTRA:          -5.359
INTER:                  -5.359
INTRA:                   0.000
UNBOUND:                 0.000

$$$$

     RDKit          3D

 82 79  0  0  0  0  0  0  0  0999 V2000
   48.9509    3.4019   17.7464 C   0  0  0  0  0  0  0  0  0  0  0  0
   50.2062    3.0429   17.4133 C   0  0  0  0  0  0  0  0  0  0  0  0
   54.3864    5.4865   18.3844 N   0  0  0  0  0  0  0  0  0  0  0  0
   51.4324    3.0511   18.2862 C   0  0  0  0  0  0  0  0  0  0  0  0
   53.6070    4.3151   18.8256 C   0  0  1  0  0  0  0  0  0  0  0  0
   47.8318    3.2918   16.7434 C   0  0  0  0  0  0  0  0  0  0  0  0
   48.5275    3.9397   19.0852 C   0  0  0  0  0  0  0  0  0  0  0  0
   55.3466    5.9422   19.3827 C   0  0  0  0  0  0  0  0  0  0  0  0
   52.3932    4.1729   17.8797 C   0  0  0  0  0  0  0  0  0  0  0  0
   54.4755    3.0524   18.8240 C   0  0  0  0  0  0  0  0  0  0  0  0
   51.3768    4.6691   17.3344 C   0  0  1  0  0  0  0  0  0  0  0  0
   52.0612    5.1867   18.6161 C   0  0  2  0  0  0  0  0  0  0  0  0
   50.1035    3.8291   17.5941 C   0  0  2  0  0  0  0  0  0  0  0  0
   52.5808    4.1191   19.5881 C   0  0  1  0  0  0  0  0  0  0  0  0
   50.3483    2.4087   17.0917 C   0  0  0  0  0  0  0  0  0  0  0  0
   53.8039    3.3889   19.0382 C   0  0  0  0  0  0  0  0  0  0  0  0
   49.8607    1.8716   16.1108 O   0  0  0  0  0  0  0  0  0  0  0  0
   54.0814    3.1634   17.8742 O   0  0  0  0  0  0  0  0  0  0  0  0
   48.9713    4.4135   16.9403 O   0  0  0  0  0  0  0  0  0  0  0  0
   52.9265    4.8016   20.8134 O   0  0  0  0  0  0  0  0  0  0  0  0
   51.0195    5.8183   16.5315 O   0  0  0  0  0  0  0  0  0  0  0  0
   51.1135    6.0299   19.3103 O   0  0  0  0  0  0  0  0  0  0  0  0
   54.6051    2.9442   20.0356 O   0  0  0  0  0  0  0  0  0  0  0  0
   51.2219    1.7286   17.8680 O   0  0  0  0  0  0  0  0  0  0  0  0
   54.6704    4.3165   18.6468 C   0  0  0  0  0  0  0  0  0  0  0  0
   53.5118    4.3846   19.3320 C   0  0  0  0  0  0  0  0  0  0  0  0
   48.7854    4.7226   18.0243 N   0  0  0  0  0  0  0  0  0  0  0  0
   52.2563    3.5808   19.1201 C   0  0  0  0  0  0  0  0  0  0  0  0
   49.7897    3.7164   18.4045 C   0  0  2  0  0  0  0  0  0  0  0  0
   54.9450    3.4031   17.4843 C   0  0  0  0  0  0  0  0  0  0  0  0
   55.8275    5.2103   19.0125 C   0  0  0  0  0  0  0  0  0  0  0  0
   47.4142    4.2750   18.2183 C   0  0  0  0  0  0  0  0  0  0  0  0
   51.1362    4.4570   18.5467 C   0  0  0  0  0  0  0  0  0  0  0  0
   49.8682    2.5896   17.3692 C   0  0  0  0  0  0  0  0  0  0  0  0
   50.3887    2.6806   16.4010 H   0  0  0  0  0  0  0  0  0  0  0  0
   53.7479    6.2568   18.1826 H   0  0  0  0  0  0  0  0  0  0  0  0
   51.9190    2.0759   18.1723 H   0  0  0  0  0  0  0  0  0  0  0  0
   51.1770    3.1415   19.3460 H   0  0  0  0  0  0  0  0  0  0  0  0
   53.2262    4.4914   19.8398 H   0  0  0  0  0  0  0  0  0  0  0  0
   47.0601    2.6071   17.1112 H   0  0  0  0  0  0  0  0  0  0  0  0
   47.3746    4.2723   16.5734 H   0  0  0  0  0  0  0  0  0  0  0  0
   48.1761    2.9140   15.7748 H   0  0  0  0  0  0  0  0  0  0  0  0
   49.3645    4.1444   19.7568 H   0  0  0  0  0  0  0  0  0  0  0  0
   47.9889    4.8845   18.9573 H   0  0  0  0  0  0  0  0  0  0  0  0
   47.8607    3.2281   19.5826 H   0  0  0  0  0  0  0  0  0  0  0  0
   54.8585    6.1782   20.3339 H   0  0  0  0  0  0  0  0  0  0  0  0
   56.1388    5.2086   19.5547 H   0  0  0  0  0  0  0  0  0  0  0  0
   55.8322    6.8549   19.0220 H   0  0  0  0  0  0  0  0  0  0  0  0
   52.7395    4.0035   16.8509 H   0  0  0  0  0  0  0  0  0  0  0  0
   51.8366    5.1206   17.8690 H   0  0  0  0  0  0  0  0  0  0  0  0
   54.8551    2.8312   17.8204 H   0  0  0  0  0  0  0  0  0  0  0  0
   53.9116    2.1814   19.1714 H   0  0  0  0  0  0  0  0  0  0  0  0
   55.3331    3.1480   19.4969 H   0  0  0  0  0  0  0  0  0  0  0  0
   52.0997    4.1075   16.7356 H   0  0  0  0  0  0  0  0  0  0  0  0
   52.8821    5.8576   18.3316 H   0  0  0  0  0  0  0  0  0  0  0  0
   49.8471    3.7578   18.6555 H   0  0  0  0  0  0  0  0  0  0  0  0
   51.8119    3.3882   19.8502 H   0  0  0  0  0  0  0  0  0  0  0  0
   49.2933    4.6996   16.0623 H   0  0  0  0  0  0  0  0  0  0  0  0
   53.5003    4.1777   21.3039 H   0  0  0  0  0  0  0  0  0  0  0  0
   50.5137    6.3973   17.1419 H   0  0  0  0  0  0  0  0  0  0  0  0
   51.5214    6.1939   20.1884 H   0  0  0  0  0  0  0  0  0  0  0  0
   55.3424    2.4913   19.5701 H   0  0  0  0  0  0  0  0  0  0  0  0
   51.2802    0.8561   17.4185 H   0  0  0  0  0  0  0  0  0  0  0  0
   53.4392    5.1004   20.1519 H   0  0  0  0  0  0  0  0  0  0  0  0
   48.9233    5.0048   17.0540 H   0  0  0  0  0  0  0  0  0  0  0  0
   51.9456    3.1731   20.0903 H   0  0  0  0  0  0  0  0  0  0  0  0
   52.4402    2.7200   18.4739 H   0  0  0  0  0  0  0  0  0  0  0  0
   49.5297    3.2924   19.3824 H   0  0  0  0  0  0  0  0  0  0  0  0
   55.1698    3.9927   16.5886 H   0  0  0  0  0  0  0  0  0  0  0  0
   55.8086    2.7650   17.7037 H   0  0  0  0  0  0  0  0  0  0  0  0
   54.1102    2.7436   17.2356 H   0  0  0  0  0  0  0  0  0  0  0  0
   55.5908    5.8779   19.8475 H   0  0  0  0  0  0  0  0  0  0  0  0
   56.6940    4.6074   19.3038 H   0  0  0  0  0  0  0  0  0  0  0  0
   56.1093    5.8349   18.1583 H   0  0  0  0  0  0  0  0  0  0  0  0
   47.1499    3.4495   17.5511 H   0  0  0  0  0  0  0  0  0  0  0  0
   46.7326    5.1035   18.0019 H   0  0  0  0  0  0  0  0  0  0  0  0
   47.2379    3.9708   19.2553 H   0  0  0  0  0  0  0  0  0  0  0  0
   50.9981    5.3234   19.2100 H   0  0  0  0  0  0  0  0  0  0  0  0
   51.4476    4.8575   17.5713 H   0  0  0  0  0  0  0  0  0  0  0  0
   50.5861    1.8213   17.6720 H   0  0  0  0  0  0  0  0  0  0  0  0
   48.9056    2.0829   17.2480 H   0  0  0  0  0  0  0  0  0  0  0  0
   50.1751    2.9702   16.3883 H   0  0  0  0  0  0  0  0  0  0  0  0
  2  1  2  3
  3  5  1  0
  4  2  1  0
  5  9  1  0
  6  1  1  0
  7  1  1  0
  8  3  1  0
  9  4  1  0
 10  5  1  0
 12 11  1  0
 13 11  1  0
 14 12  1  0
 15 13  1  0
 16 14  1  0
 17 15  2  0
 18 16  2  0
 13 19  1  0
 14 20  1  0
 11 21  1  0
 12 22  1  0
 23 16  1  0
 24 15  1  0
 26 25  2  3
 27 29  1  0
 28 26  1  0
 29 33  1  0
 30 25  1  0
 31 25  1  0
 32 27  1  0
 33 28  1  0
 34 29  1  0
  2 35  1  0
  3 36  1  0
  4 37  1  0
  4 38  1  0
  5 39  1  6
  6 40  1  0
  6 41  1  0
  6 42  1  0
  7 43  1  0
  7 44  1  0
  7 45  1  0
  8 46  1  0
  8 47  1  0
  8 48  1  0
  9 49  1  0
  9 50  1  0
 10 51  1  0
 10 52  1  0
 10 53  1  0
 11 54  1  1
 12 55  1  6
 13 56  1  6
 14 57  1  1
 19 58  1  0
 20 59  1  0
 21 60  1  0
 22 61  1  0
 23 62  1  0
 24 63  1  0
 26 64  1  0
 27 65  1  0
 28 66  1  0
 28 67  1  0
 29 68  1  1
 30 69  1  0
 30 70  1  0
 30 71  1  0
 31 72  1  0
 31 73  1  0
 31 74  1  0
 32 75  1  0
 32 76  1  0
 32 77  1  0
 33 78  1  0
 33 79  1  0
 34 80  1  0
 34 81  1  0
 34 82  1  0
M  END
> <Uni-Dock RESULT> 
ENERGY=   -5.131  LOWER_BOUND=    7.164  UPPER_BOUND=    8.563
INTER + INTRA:          -5.131
INTER:                  -5.131
INTRA:                   0.000
UNBOUND:                 0.000

$$$$

     RDKit          3D

 82 79  0  0  0  0  0  0  0  0999 V2000
   39.1816   11.4918   12.4008 C   0  0  0  0  0  0  0  0  0  0  0  0
   39.8724   10.9821   11.3622 C   0  0  0  0  0  0  0  0  0  0  0  0
   43.7568   12.9878    9.0651 N   0  0  0  0  0  0  0  0  0  0  0  0
   41.3662   10.8922   11.2006 C   0  0  0  0  0  0  0  0  0  0  0  0
   43.4094   11.9299   10.0318 C   0  0  1  0  0  0  0  0  0  0  0  0
   37.6751   11.4631   12.4058 C   0  0  0  0  0  0  0  0  0  0  0  0
   39.7896   12.1304   13.6188 C   0  0  0  0  0  0  0  0  0  0  0  0
   45.1608   13.3771    9.1250 C   0  0  0  0  0  0  0  0  0  0  0  0
   41.8688   11.8822   10.1451 C   0  0  0  0  0  0  0  0  0  0  0  0
   43.9854   10.5800    9.5907 C   0  0  0  0  0  0  0  0  0  0  0  0
   40.7767   12.4639   10.3583 C   0  0  1  0  0  0  0  0  0  0  0  0
   42.1683   12.9573   10.8045 C   0  0  2  0  0  0  0  0  0  0  0  0
   39.9591   11.7819   11.4811 C   0  0  2  0  0  0  0  0  0  0  0  0
   43.1455   11.8817   11.2971 C   0  0  1  0  0  0  0  0  0  0  0  0
   39.7292   10.3228   11.0964 C   0  0  0  0  0  0  0  0  0  0  0  0
   43.6477   10.9976   10.1578 C   0  0  0  0  0  0  0  0  0  0  0  0
   38.6834    9.8012   10.7460 O   0  0  0  0  0  0  0  0  0  0  0  0
   43.0648   10.6928    9.1331 O   0  0  0  0  0  0  0  0  0  0  0  0
   38.7133   12.4593   11.6809 O   0  0  0  0  0  0  0  0  0  0  0  0
   44.2567   12.5740   11.9075 O   0  0  0  0  0  0  0  0  0  0  0  0
   40.0372   13.6099    9.8758 O   0  0  0  0  0  0  0  0  0  0  0  0
   41.9730   13.9294   11.8572 O   0  0  0  0  0  0  0  0  0  0  0  0
   44.8846   10.5104   10.4174 O   0  0  0  0  0  0  0  0  0  0  0  0
   40.8596    9.5843   11.1686 O   0  0  0  0  0  0  0  0  0  0  0  0
   44.0800   11.8060    9.1965 C   0  0  0  0  0  0  0  0  0  0  0  0
   43.6804   12.0312   10.4638 C   0  0  0  0  0  0  0  0  0  0  0  0
   39.3152   12.8334   12.5769 N   0  0  0  0  0  0  0  0  0  0  0  0
   42.5632   11.3629   11.2204 C   0  0  0  0  0  0  0  0  0  0  0  0
   40.2608   11.7397   12.3029 C   0  0  2  0  0  0  0  0  0  0  0  0
   43.4590   10.8185    8.2476 C   0  0  0  0  0  0  0  0  0  0  0  0
   45.2315   12.5812    8.6096 C   0  0  0  0  0  0  0  0  0  0  0  0
   38.4021   12.5491   13.6740 C   0  0  0  0  0  0  0  0  0  0  0  0
   41.3957   12.3321   11.4410 C   0  0  0  0  0  0  0  0  0  0  0  0
   39.5675   10.5675   11.6006 C   0  0  0  0  0  0  0  0  0  0  0  0
   39.3128   10.5586   10.5274 H   0  0  0  0  0  0  0  0  0  0  0  0
   43.1893   13.8146    9.2551 H   0  0  0  0  0  0  0  0  0  0  0  0
   41.5991    9.8651   10.8978 H   0  0  0  0  0  0  0  0  0  0  0  0
   41.8886   11.0559   12.1476 H   0  0  0  0  0  0  0  0  0  0  0  0
   43.8129   12.1908   11.0186 H   0  0  0  0  0  0  0  0  0  0  0  0
   37.3106   10.8845   13.2613 H   0  0  0  0  0  0  0  0  0  0  0  0
   37.2748   12.4799   12.4774 H   0  0  0  0  0  0  0  0  0  0  0  0
   37.2640   11.0081   11.4983 H   0  0  0  0  0  0  0  0  0  0  0  0
   40.8705   12.2699   13.5437 H   0  0  0  0  0  0  0  0  0  0  0  0
   39.3550   13.1226   13.7794 H   0  0  0  0  0  0  0  0  0  0  0  0
   39.5880   11.5190   14.5042 H   0  0  0  0  0  0  0  0  0  0  0  0
   45.4458   13.7064   10.1295 H   0  0  0  0  0  0  0  0  0  0  0  0
   45.8245   12.5684    8.8073 H   0  0  0  0  0  0  0  0  0  0  0  0
   45.3299   14.2140    8.4395 H   0  0  0  0  0  0  0  0  0  0  0  0
   41.4304   11.6314    9.1695 H   0  0  0  0  0  0  0  0  0  0  0  0
   41.4993   12.8843   10.4044 H   0  0  0  0  0  0  0  0  0  0  0  0
   43.5858   10.2751    8.6173 H   0  0  0  0  0  0  0  0  0  0  0  0
   43.7516    9.7925   10.3136 H   0  0  0  0  0  0  0  0  0  0  0  0
   45.0767   10.6090    9.5145 H   0  0  0  0  0  0  0  0  0  0  0  0
   40.8838   11.8005    9.4953 H   0  0  0  0  0  0  0  0  0  0  0  0
   42.6243   13.5204    9.9799 H   0  0  0  0  0  0  0  0  0  0  0  0
   40.4732   11.7852   12.4472 H   0  0  0  0  0  0  0  0  0  0  0  0
   42.7100   11.2523   12.0770 H   0  0  0  0  0  0  0  0  0  0  0  0
   38.3818   12.6699   10.7853 H   0  0  0  0  0  0  0  0  0  0  0  0
   44.9768   11.9121   11.9593 H   0  0  0  0  0  0  0  0  0  0  0  0
   40.1001   14.2670   10.6023 H   0  0  0  0  0  0  0  0  0  0  0  0
   42.8708   14.0849   12.2233 H   0  0  0  0  0  0  0  0  0  0  0  0
   45.0971    9.9591    9.6324 H   0  0  0  0  0  0  0  0  0  0  0  0
   40.5559    8.6922   10.8883 H   0  0  0  0  0  0  0  0  0  0  0  0
   44.2121   12.7854   11.0454 H   0  0  0  0  0  0  0  0  0  0  0  0
   38.7853   13.0566   11.7346 H   0  0  0  0  0  0  0  0  0  0  0  0
   42.9580   11.0343   12.1901 H   0  0  0  0  0  0  0  0  0  0  0  0
   42.2222   10.4600   10.7097 H   0  0  0  0  0  0  0  0  0  0  0  0
   40.6975   11.3896   13.2464 H   0  0  0  0  0  0  0  0  0  0  0  0
   43.0599   11.3405    7.3708 H   0  0  0  0  0  0  0  0  0  0  0  0
   44.2125   10.0988    7.9080 H   0  0  0  0  0  0  0  0  0  0  0  0
   42.6374   10.2454    8.6838 H   0  0  0  0  0  0  0  0  0  0  0  0
   45.6489   13.3062    9.3161 H   0  0  0  0  0  0  0  0  0  0  0  0
   46.0372   11.8992    8.3179 H   0  0  0  0  0  0  0  0  0  0  0  0
   44.9044   13.1333    7.7224 H   0  0  0  0  0  0  0  0  0  0  0  0
   37.7162   11.7299   13.4399 H   0  0  0  0  0  0  0  0  0  0  0  0
   37.7960   13.4378   13.8755 H   0  0  0  0  0  0  0  0  0  0  0  0
   38.9469   12.3113   14.5935 H   0  0  0  0  0  0  0  0  0  0  0  0
   41.7823   13.2363   11.9337 H   0  0  0  0  0  0  0  0  0  0  0  0
   40.9975   12.6534   10.4678 H   0  0  0  0  0  0  0  0  0  0  0  0
   40.2615    9.7383   11.4330 H   0  0  0  0  0  0  0  0  0  0  0  0
   38.7444   10.1657   12.1998 H   0  0  0  0  0  0  0  0  0  0  0  0
   39.1613   10.8692   10.6283 H   0  0  0  0  0  0  0  0  0  0  0  0
  2  1  2  3
  3  5  1  0
  4  2  1  0
  5  9  1  0
  6  1  1  0
  7  1  1  0
  8  3  1  0
  9  4  1  0
 10  5  1  0
 12 11  1  0
 13 11  1  0
 14 12  1  0
 15 13  1  0
 16 14  1  0
 17 15  2  0
 18 16  2  0
 13 19  1  0
 14 20  1  0
 11 21  1  0
 12 22  1  0
 23 16  1  0
 24 15  1  0
 26 25  2  3
 27 29  1  0
 28 26  1  0
 29 33  1  0
 30 25  1  0
 31 25  1  0
 32 27  1  0
 33 28  1  0
 34 29  1  0
  2 35  1  0
  3 36  1  0
  4 37  1  0
  4 38  1  0
  5 39  1  6
  6 40  1  0
  6 41  1  0
  6 42  1  0
  7 43  1  0
  7 44  1  0
  7 45  1  0
  8 46  1  0
  8 47  1  0
  8 48  1  0
  9 49  1  0
  9 50  1  0
 10 51  1  0
 10 52  1  0
 10 53  1  0
 11 54  1  1
 12 55  1  6
 13 56  1  6
 14 57  1  1
 19 58  1  0
 20 59  1  0
 21 60  1  0
 22 61  1  0
 23 62  1  0
 24 63  1  0
 26 64  1  0
 27 65  1  0
 28 66  1  0
 28 67  1  0
 29 68  1  1
 30 69  1  0
 30 70  1  0
 30 71  1  0
 31 72  1  0
 31 73  1  0
 31 74  1  0
 32 75  1  0
 32 76  1  0
 32 77  1  0
 33 78  1  0
 33 79  1  0
 34 80  1  0
 34 81  1  0
 34 82  1  0
M  END
> <Uni-Dock RESULT> 
ENERGY=   -5.121  LOWER_BOUND=    6.253  UPPER_BOUND=    7.677
INTER + INTRA:          -5.121
INTER:                  -5.121
INTRA:                   0.000
UNBOUND:                 0.000

$$$$

     RDKit          3D

 82 79  0  0  0  0  0  0  0  0999 V2000
   47.3784   11.3027   19.1790 C   0  0  0  0  0  0  0  0  0  0  0  0
   47.9988   10.3503   18.4553 C   0  0  0  0  0  0  0  0  0  0  0  0
   49.5692    5.9368   20.0183 N   0  0  0  0  0  0  0  0  0  0  0  0
   47.7024    8.8750   18.4217 C   0  0  0  0  0  0  0  0  0  0  0  0
   48.4874    6.5651   19.2377 C   0  0  1  0  0  0  0  0  0  0  0  0
   47.7898   12.7471   19.0559 C   0  0  0  0  0  0  0  0  0  0  0  0
   46.2630   11.0612   20.1580 C   0  0  0  0  0  0  0  0  0  0  0  0
   49.2261    4.6035   20.4988 C   0  0  0  0  0  0  0  0  0  0  0  0
   48.8035    8.0736   19.1232 C   0  0  0  0  0  0  0  0  0  0  0  0
   48.3598    5.9084   17.8589 C   0  0  0  0  0  0  0  0  0  0  0  0
   49.0746    9.1712   19.6693 C   0  0  1  0  0  0  0  0  0  0  0  0
   48.4085    7.9594   20.3525 C   0  0  2  0  0  0  0  0  0  0  0  0
   48.0849   10.2887   19.2616 C   0  0  2  0  0  0  0  0  0  0  0  0
   47.3851    7.1831   19.5132 C   0  0  1  0  0  0  0  0  0  0  0  0
   48.1023   10.4216   17.7412 C   0  0  0  0  0  0  0  0  0  0  0  0
   48.0483    6.3884   18.3905 C   0  0  0  0  0  0  0  0  0  0  0  0
   48.5753   11.3303   17.0787 O   0  0  0  0  0  0  0  0  0  0  0  0
   49.0706    6.6562   17.7857 O   0  0  0  0  0  0  0  0  0  0  0  0
   48.4379   11.5281   19.8863 O   0  0  0  0  0  0  0  0  0  0  0  0
   46.7015    6.2839   20.4135 O   0  0  0  0  0  0  0  0  0  0  0  0
   50.0413    9.7216   20.5943 O   0  0  0  0  0  0  0  0  0  0  0  0
   47.7627    8.4339   21.5563 O   0  0  0  0  0  0  0  0  0  0  0  0
   47.3277    5.2869   18.0712 O   0  0  0  0  0  0  0  0  0  0  0  0
   47.5149    9.3721   17.1232 O   0  0  0  0  0  0  0  0  0  0  0  0
   49.0326    5.6844   18.9381 C   0  0  0  0  0  0  0  0  0  0  0  0
   48.0419    6.4285   19.4682 C   0  0  0  0  0  0  0  0  0  0  0  0
   47.5476   11.2038   20.5245 N   0  0  0  0  0  0  0  0  0  0  0  0
   47.4768    7.7270   18.9564 C   0  0  0  0  0  0  0  0  0  0  0  0
   47.2329   10.2373   19.4605 C   0  0  2  0  0  0  0  0  0  0  0  0
   49.8084    6.0216   17.6948 C   0  0  0  0  0  0  0  0  0  0  0  0
   49.4613    4.4002   19.6002 C   0  0  0  0  0  0  0  0  0  0  0  0
   46.7177   12.3988   20.4862 C   0  0  0  0  0  0  0  0  0  0  0  0
   47.8688    8.8927   19.8722 C   0  0  0  0  0  0  0  0  0  0  0  0
   47.7515   10.7177   18.1010 C   0  0  0  0  0  0  0  0  0  0  0  0
   48.8074   10.6525   17.7888 H   0  0  0  0  0  0  0  0  0  0  0  0
   49.7814    6.5215   20.8275 H   0  0  0  0  0  0  0  0  0  0  0  0
   47.6330    8.5814   17.3682 H   0  0  0  0  0  0  0  0  0  0  0  0
   46.7298    8.6450   18.8661 H   0  0  0  0  0  0  0  0  0  0  0  0
   47.5383    6.4589   19.7787 H   0  0  0  0  0  0  0  0  0  0  0  0
   46.9467   13.3519   18.7052 H   0  0  0  0  0  0  0  0  0  0  0  0
   48.1160   13.1345   20.0269 H   0  0  0  0  0  0  0  0  0  0  0  0
   48.6147   12.8865   18.3491 H   0  0  0  0  0  0  0  0  0  0  0  0
   46.0663   10.0024   20.3416 H   0  0  0  0  0  0  0  0  0  0  0  0
   46.5103   11.5075   21.1270 H   0  0  0  0  0  0  0  0  0  0  0  0
   45.3376   11.5193   19.7944 H   0  0  0  0  0  0  0  0  0  0  0  0
   48.3129    4.6147   21.1026 H   0  0  0  0  0  0  0  0  0  0  0  0
   49.1092    3.8896   19.6790 H   0  0  0  0  0  0  0  0  0  0  0  0
   50.0388    4.2305   21.1307 H   0  0  0  0  0  0  0  0  0  0  0  0
   49.7549    8.2163   18.5928 H   0  0  0  0  0  0  0  0  0  0  0  0
   48.9445    8.4859   20.1323 H   0  0  0  0  0  0  0  0  0  0  0  0
   49.2834    6.0156   17.2796 H   0  0  0  0  0  0  0  0  0  0  0  0
   47.5446    6.3533   17.2804 H   0  0  0  0  0  0  0  0  0  0  0  0
   48.1308    4.8411   17.9366 H   0  0  0  0  0  0  0  0  0  0  0  0
   49.6556    8.8308   18.8074 H   0  0  0  0  0  0  0  0  0  0  0  0
   49.1932    7.2761   20.7024 H   0  0  0  0  0  0  0  0  0  0  0  0
   47.0530   10.0747   19.5565 H   0  0  0  0  0  0  0  0  0  0  0  0
   46.6175    7.8351   19.0889 H   0  0  0  0  0  0  0  0  0  0  0  0
   49.4125   11.5839   19.8276 H   0  0  0  0  0  0  0  0  0  0  0  0
   46.2694    5.6201   19.8373 H   0  0  0  0  0  0  0  0  0  0  0  0
   49.5362    9.8601   21.4246 H   0  0  0  0  0  0  0  0  0  0  0  0
   47.2163    7.6773   21.8616 H   0  0  0  0  0  0  0  0  0  0  0  0
   47.8381    4.8661   17.3447 H   0  0  0  0  0  0  0  0  0  0  0  0
   47.6129    9.5965   16.1710 H   0  0  0  0  0  0  0  0  0  0  0  0
   47.5647    6.0748   20.3831 H   0  0  0  0  0  0  0  0  0  0  0  0
   48.5325   11.4649   20.4795 H   0  0  0  0  0  0  0  0  0  0  0  0
   46.3839    7.6338   18.9255 H   0  0  0  0  0  0  0  0  0  0  0  0
   47.7942    7.9210   17.9298 H   0  0  0  0  0  0  0  0  0  0  0  0
   46.1463   10.0967   19.4046 H   0  0  0  0  0  0  0  0  0  0  0  0
   50.8703    6.1426   17.9362 H   0  0  0  0  0  0  0  0  0  0  0  0
   49.7108    5.2140   16.9605 H   0  0  0  0  0  0  0  0  0  0  0  0
   49.4810    6.9432   17.2078 H   0  0  0  0  0  0  0  0  0  0  0  0
   48.8936    4.1924   20.5132 H   0  0  0  0  0  0  0  0  0  0  0  0
   49.3154    3.5558   18.9183 H   0  0  0  0  0  0  0  0  0  0  0  0
   50.5208    4.4489   19.8725 H   0  0  0  0  0  0  0  0  0  0  0  0
   46.9008   13.0014   19.5919 H   0  0  0  0  0  0  0  0  0  0  0  0
   46.9472   13.0227   21.3555 H   0  0  0  0  0  0  0  0  0  0  0  0
   45.6536   12.1460   20.5387 H   0  0  0  0  0  0  0  0  0  0  0  0
   47.5556    8.6498   20.8982 H   0  0  0  0  0  0  0  0  0  0  0  0
   48.9639    8.9883   19.8949 H   0  0  0  0  0  0  0  0  0  0  0  0
   47.4824   10.0184   17.3036 H   0  0  0  0  0  0  0  0  0  0  0  0
   47.3217   11.6850   17.8223 H   0  0  0  0  0  0  0  0  0  0  0  0
   48.8426   10.8216   18.1046 H   0  0  0  0  0  0  0  0  0  0  0  0
  2  1  2  3
  3  5  1  0
  4  2  1  0
  5  9  1  0
  6  1  1  0
  7  1  1  0
  8  3  1  0
  9  4  1  0
 10  5  1  0
 12 11  1  0
 13 11  1  0
 14 12  1  0
 15 13  1  0
 16 14  1  0
 17 15  2  0
 18 16  2  0
 13 19  1  0
 14 20  1  0
 11 21  1  0
 12 22  1  0
 23 16  1  0
 24 15  1  0
 26 25  2  3
 27 29  1  0
 28 26  1  0
 29 33  1  0
 30 25  1  0
 31 25  1  0
 32 27  1  0
 33 28  1  0
 34 29  1  0
  2 35  1  0
  3 36  1  0
  4 37  1  0
  4 38  1  0
  5 39  1  6
  6 40  1  0
  6 41  1  0
  6 42  1  0
  7 43  1  0
  7 44  1  0
  7 45  1  0
  8 46  1  0
  8 47  1  0
  8 48  1  0
  9 49  1  0
  9 50  1  0
 10 51  1  0
 10 52  1  0
 10 53  1  0
 11 54  1  1
 12 55  1  6
 13 56  1  6
 14 57  1  1
 19 58  1  0
 20 59  1  0
 21 60  1  0
 22 61  1  0
 23 62  1  0
 24 63  1  0
 26 64  1  0
 27 65  1  0
 28 66  1  0
 28 67  1  0
 29 68  1  1
 30 69  1  0
 30 70  1  0
 30 71  1  0
 31 72  1  0
 31 73  1  0
 31 74  1  0
 32 75  1  0
 32 76  1  0
 32 77  1  0
 33 78  1  0
 33 79  1  0
 34 80  1  0
 34 81  1  0
 34 82  1  0
M  END
> <Uni-Dock RESULT> 
ENERGY=   -5.108  LOWER_BOUND=    6.259  UPPER_BOUND=    8.591
INTER + INTRA:          -5.108
INTER:                  -5.108
INTRA:                   0.000
UNBOUND:                 0.000

$$$$

     RDKit          3D

 82 79  0  0  0  0  0  0  0  0999 V2000
   47.6111   11.4658   20.0948 C   0  0  0  0  0  0  0  0  0  0  0  0
   47.0051   10.2659   20.0018 C   0  0  0  0  0  0  0  0  0  0  0  0
   48.6911    6.2184   17.7294 N   0  0  0  0  0  0  0  0  0  0  0  0
   47.6072    8.9059   20.2333 C   0  0  0  0  0  0  0  0  0  0  0  0
   48.5089    6.7933   19.0750 C   0  0  1  0  0  0  0  0  0  0  0  0
   46.8340   12.7357   19.8621 C   0  0  0  0  0  0  0  0  0  0  0  0
   49.0641   11.6827   20.4149 C   0  0  0  0  0  0  0  0  0  0  0  0
   49.6681    5.1364   17.6986 C   0  0  0  0  0  0  0  0  0  0  0  0
   47.7722    8.1425   18.9154 C   0  0  0  0  0  0  0  0  0  0  0  0
   47.7322    5.8288   19.9777 C   0  0  0  0  0  0  0  0  0  0  0  0
   47.6939    9.2827   18.3955 C   0  0  1  0  0  0  0  0  0  0  0  0
   48.9702    8.4241   18.5085 C   0  0  2  0  0  0  0  0  0  0  0  0
   47.5920   10.4046   19.4562 C   0  0  2  0  0  0  0  0  0  0  0  0
   49.1486    7.6396   19.8151 C   0  0  1  0  0  0  0  0  0  0  0  0
   46.3787   10.1283   20.3401 C   0  0  0  0  0  0  0  0  0  0  0  0
   48.1644    6.4772   19.9254 C   0  0  0  0  0  0  0  0  0  0  0  0
   45.3218   10.7372   20.3651 O   0  0  0  0  0  0  0  0  0  0  0  0
   47.0416    6.3994   19.4606 O   0  0  0  0  0  0  0  0  0  0  0  0
   47.4833   11.6862   18.8265 O   0  0  0  0  0  0  0  0  0  0  0  0
   50.5031    7.1379   19.8203 O   0  0  0  0  0  0  0  0  0  0  0  0
   47.6835    9.8848   17.0800 O   0  0  0  0  0  0  0  0  0  0  0  0
   50.1065    9.3006   18.3303 O   0  0  0  0  0  0  0  0  0  0  0  0
   48.6708    5.4691   20.6750 O   0  0  0  0  0  0  0  0  0  0  0  0
   46.5655    9.0685   21.1589 O   0  0  0  0  0  0  0  0  0  0  0  0
   48.2471    5.7857   18.7944 C   0  0  0  0  0  0  0  0  0  0  0  0
   48.9792    6.7996   19.2967 C   0  0  0  0  0  0  0  0  0  0  0  0
   48.5747   11.6968   19.1638 N   0  0  0  0  0  0  0  0  0  0  0  0
   48.5016    7.9943   20.0791 C   0  0  0  0  0  0  0  0  0  0  0  0
   48.2408   10.5524   20.0266 C   0  0  2  0  0  0  0  0  0  0  0  0
   46.7539    5.6477   18.9061 C   0  0  0  0  0  0  0  0  0  0  0  0
   48.9122    4.6673   18.0339 C   0  0  0  0  0  0  0  0  0  0  0  0
   48.6408   12.9624   19.8795 C   0  0  0  0  0  0  0  0  0  0  0  0
   48.6164    9.2757   19.2449 C   0  0  0  0  0  0  0  0  0  0  0  0
   46.7592   10.5636   20.4172 C   0  0  0  0  0  0  0  0  0  0  0  0
   45.9451   10.2407   19.7468 H   0  0  0  0  0  0  0  0  0  0  0  0
   49.0074    6.9505   17.0925 H   0  0  0  0  0  0  0  0  0  0  0  0
   46.9329    8.3620   20.9043 H   0  0  0  0  0  0  0  0  0  0  0  0
   48.5676    8.9691   20.7531 H   0  0  0  0  0  0  0  0  0  0  0  0
   49.4911    6.9955   19.5213 H   0  0  0  0  0  0  0  0  0  0  0  0
   46.8529   13.3609   20.7612 H   0  0  0  0  0  0  0  0  0  0  0  0
   47.2710   13.3036   19.0340 H   0  0  0  0  0  0  0  0  0  0  0  0
   45.7848   12.5426   19.6145 H   0  0  0  0  0  0  0  0  0  0  0  0
   49.6459   10.7586   20.4459 H   0  0  0  0  0  0  0  0  0  0  0  0
   49.5257   12.3194   19.6529 H   0  0  0  0  0  0  0  0  0  0  0  0
   49.1655   12.1790   21.3854 H   0  0  0  0  0  0  0  0  0  0  0  0
   50.6414    5.4605   18.0811 H   0  0  0  0  0  0  0  0  0  0  0  0
   49.3305    4.2626   18.2624 H   0  0  0  0  0  0  0  0  0  0  0  0
   49.8089    4.8105   16.6627 H   0  0  0  0  0  0  0  0  0  0  0  0
   46.7853    7.9774   18.4618 H   0  0  0  0  0  0  0  0  0  0  0  0
   48.3351    8.7754   18.2150 H   0  0  0  0  0  0  0  0  0  0  0  0
   46.7347    5.6218   19.5747 H   0  0  0  0  0  0  0  0  0  0  0  0
   47.6112    6.2375   20.9855 H   0  0  0  0  0  0  0  0  0  0  0  0
   48.2539    4.8743   20.0969 H   0  0  0  0  0  0  0  0  0  0  0  0
   46.8135    8.6343   18.4272 H   0  0  0  0  0  0  0  0  0  0  0  0
   49.0081    7.7341   17.6556 H   0  0  0  0  0  0  0  0  0  0  0  0
   48.4665   10.4538   20.1123 H   0  0  0  0  0  0  0  0  0  0  0  0
   49.0540    8.2773   20.6974 H   0  0  0  0  0  0  0  0  0  0  0  0
   46.8711   11.5587   18.0746 H   0  0  0  0  0  0  0  0  0  0  0  0
   50.5139    6.4292   20.4962 H   0  0  0  0  0  0  0  0  0  0  0  0
   48.5598   10.3201   17.0018 H   0  0  0  0  0  0  0  0  0  0  0  0
   50.8844    8.7547   18.5778 H   0  0  0  0  0  0  0  0  0  0  0  0
   47.9589    4.7920   20.6825 H   0  0  0  0  0  0  0  0  0  0  0  0
   45.7124    9.0149   21.6447 H   0  0  0  0  0  0  0  0  0  0  0  0
   50.0581    6.7850   19.1368 H   0  0  0  0  0  0  0  0  0  0  0  0
   47.9031   11.7661   18.3995 H   0  0  0  0  0  0  0  0  0  0  0  0
   49.1238    8.0828   20.9785 H   0  0  0  0  0  0  0  0  0  0  0  0
   47.4773    7.8549   20.4309 H   0  0  0  0  0  0  0  0  0  0  0  0
   48.8552   10.5883   20.9348 H   0  0  0  0  0  0  0  0  0  0  0  0
   46.3014    5.6462   17.9082 H   0  0  0  0  0  0  0  0  0  0  0  0
   46.4999    4.7041   19.4022 H   0  0  0  0  0  0  0  0  0  0  0  0
   46.2788    6.4506   19.4748 H   0  0  0  0  0  0  0  0  0  0  0  0
   49.9951    4.8060   17.9510 H   0  0  0  0  0  0  0  0  0  0  0  0
   48.7369    3.7107   18.5375 H   0  0  0  0  0  0  0  0  0  0  0  0
   48.5072    4.6055   17.0185 H   0  0  0  0  0  0  0  0  0  0  0  0
   47.6659   13.2687   20.2695 H   0  0  0  0  0  0  0  0  0  0  0  0
   48.9809   13.7447   19.1938 H   0  0  0  0  0  0  0  0  0  0  0  0
   49.3603   12.9165   20.7035 H   0  0  0  0  0  0  0  0  0  0  0  0
   49.6531    9.3678   18.8892 H   0  0  0  0  0  0  0  0  0  0  0  0
   47.9859    9.1870   18.3486 H   0  0  0  0  0  0  0  0  0  0  0  0
   46.5199    9.7353   21.0911 H   0  0  0  0  0  0  0  0  0  0  0  0
   46.4868   11.4819   20.9468 H   0  0  0  0  0  0  0  0  0  0  0  0
   46.1139   10.4783   19.5355 H   0  0  0  0  0  0  0  0  0  0  0  0
  2  1  2  3
  3  5  1  0
  4  2  1  0
  5  9  1  0
  6  1  1  0
  7  1  1  0
  8  3  1  0
  9  4  1  0
 10  5  1  0
 12 11  1  0
 13 11  1  0
 14 12  1  0
 15 13  1  0
 16 14  1  0
 17 15  2  0
 18 16  2  0
 13 19  1  0
 14 20  1  0
 11 21  1  0
 12 22  1  0
 23 16  1  0
 24 15  1  0
 26 25  2  3
 27 29  1  0
 28 26  1  0
 29 33  1  0
 30 25  1  0
 31 25  1  0
 32 27  1  0
 33 28  1  0
 34 29  1  0
  2 35  1  0
  3 36  1  0
  4 37  1  0
  4 38  1  0
  5 39  1  6
  6 40  1  0
  6 41  1  0
  6 42  1  0
  7 43  1  0
  7 44  1  0
  7 45  1  0
  8 46  1  0
  8 47  1  0
  8 48  1  0
  9 49  1  0
  9 50  1  0
 10 51  1  0
 10 52  1  0
 10 53  1  0
 11 54  1  1
 12 55  1  6
 13 56  1  6
 14 57  1  1
 19 58  1  0
 20 59  1  0
 21 60  1  0
 22 61  1  0
 23 62  1  0
 24 63  1  0
 26 64  1  0
 27 65  1  0
 28 66  1  0
 28 67  1  0
 29 68  1  1
 30 69  1  0
 30 70  1  0
 30 71  1  0
 31 72  1  0
 31 73  1  0
 31 74  1  0
 32 75  1  0
 32 76  1  0
 32 77  1  0
 33 78  1  0
 33 79  1  0
 34 80  1  0
 34 81  1  0
 34 82  1  0
M  END
> <Uni-Dock RESULT> 
ENERGY=   -4.963  LOWER_BOUND=    6.418  UPPER_BOUND=    8.711
INTER + INTRA:          -4.963
INTER:                  -4.963
INTRA:                   0.000
UNBOUND:                 0.000

$$$$
