
     RDKit          3D

 82 79  0  0  0  0  0  0  0  0999 V2000
   47.9204    7.5391   22.4076 C   0  0  0  0  0  0  0  0  0  0  0  0
   47.8076    7.8009   21.0905 C   0  0  0  0  0  0  0  0  0  0  0  0
   48.3342   12.1227   18.7614 N   0  0  0  0  0  0  0  0  0  0  0  0
   47.0510    8.9281   20.4406 C   0  0  0  0  0  0  0  0  0  0  0  0
   47.2997   11.1669   19.1971 C   0  0  1  0  0  0  0  0  0  0  0  0
   48.6993    6.3428   22.8891 C   0  0  0  0  0  0  0  0  0  0  0  0
   47.3298    8.3759   23.5089 C   0  0  0  0  0  0  0  0  0  0  0  0
   47.8890   12.9875   17.6750 C   0  0  0  0  0  0  0  0  0  0  0  0
   47.9935   10.0627   20.0263 C   0  0  0  0  0  0  0  0  0  0  0  0
   46.2125   11.8805   20.0068 C   0  0  0  0  0  0  0  0  0  0  0  0
   48.2114   11.1276   20.8175 C   0  0  1  0  0  0  0  0  0  0  0  0
   48.6848    9.6667   21.0271 C   0  0  2  0  0  0  0  0  0  0  0  0
   47.1380   11.3307   19.7362 C   0  0  2  0  0  0  0  0  0  0  0  0
   47.5420    8.6805   21.3188 C   0  0  1  0  0  0  0  0  0  0  0  0
   47.6459   10.8028   18.4019 C   0  0  0  0  0  0  0  0  0  0  0  0
   48.1051    7.2750   21.5332 C   0  0  0  0  0  0  0  0  0  0  0  0
   47.6134    9.6398   18.0352 O   0  0  0  0  0  0  0  0  0  0  0  0
   48.7907    6.6259   20.7627 O   0  0  0  0  0  0  0  0  0  0  0  0
   46.7829   12.7156   19.6323 O   0  0  0  0  0  0  0  0  0  0  0  0
   46.7681    9.1534   22.4326 O   0  0  0  0  0  0  0  0  0  0  0  0
   47.7485   11.6329   22.0919 O   0  0  0  0  0  0  0  0  0  0  0  0
   49.5858    9.6865   22.1561 O   0  0  0  0  0  0  0  0  0  0  0  0
   47.7251    6.7582   22.7275 O   0  0  0  0  0  0  0  0  0  0  0  0
   48.2258   11.7559   17.6413 O   0  0  0  0  0  0  0  0  0  0  0  0
   47.4758   11.9484   18.7053 C   0  0  0  0  0  0  0  0  0  0  0  0
   46.6994   11.4794   19.7016 C   0  0  0  0  0  0  0  0  0  0  0  0
   47.8065    7.5123   21.2666 N   0  0  0  0  0  0  0  0  0  0  0  0
   46.6102   10.0637   20.2076 C   0  0  0  0  0  0  0  0  0  0  0  0
   47.1869    8.5016   22.1570 C   0  0  2  0  0  0  0  0  0  0  0  0
   48.4627   11.1273   17.9218 C   0  0  0  0  0  0  0  0  0  0  0  0
   47.4127   13.3971   18.2984 C   0  0  0  0  0  0  0  0  0  0  0  0
   47.4342    6.1412   21.5812 C   0  0  0  0  0  0  0  0  0  0  0  0
   47.3437    9.9085   21.5443 C   0  0  0  0  0  0  0  0  0  0  0  0
   47.8188    8.4827   23.5531 C   0  0  0  0  0  0  0  0  0  0  0  0
   48.3004    7.1319   20.3849 H   0  0  0  0  0  0  0  0  0  0  0  0
   49.1558   11.6086   18.4428 H   0  0  0  0  0  0  0  0  0  0  0  0
   46.2607    9.2967   21.0995 H   0  0  0  0  0  0  0  0  0  0  0  0
   46.5417    8.5275   19.5551 H   0  0  0  0  0  0  0  0  0  0  0  0
   46.8449   10.6931   18.3176 H   0  0  0  0  0  0  0  0  0  0  0  0
   48.0520    5.6802   23.4730 H   0  0  0  0  0  0  0  0  0  0  0  0
   49.1150    5.7569   22.0626 H   0  0  0  0  0  0  0  0  0  0  0  0
   49.5336    6.6625   23.5220 H   0  0  0  0  0  0  0  0  0  0  0  0
   46.8485    9.2886   23.1512 H   0  0  0  0  0  0  0  0  0  0  0  0
   48.1148    8.6833   24.2080 H   0  0  0  0  0  0  0  0  0  0  0  0
   46.5835    7.7974   24.0624 H   0  0  0  0  0  0  0  0  0  0  0  0
   47.5547   12.4074   16.8089 H   0  0  0  0  0  0  0  0  0  0  0  0
   47.0883   13.6622   17.9893 H   0  0  0  0  0  0  0  0  0  0  0  0
   48.7253   13.6153   17.3510 H   0  0  0  0  0  0  0  0  0  0  0  0
   48.8148    9.6345   19.4347 H   0  0  0  0  0  0  0  0  0  0  0  0
   48.4516   10.5020   20.9230 H   0  0  0  0  0  0  0  0  0  0  0  0
   45.7242   12.6694   19.4263 H   0  0  0  0  0  0  0  0  0  0  0  0
   45.4210   11.1873   20.3068 H   0  0  0  0  0  0  0  0  0  0  0  0
   46.6252   12.3356   20.9141 H   0  0  0  0  0  0  0  0  0  0  0  0
   49.0869   11.7454   20.5815 H   0  0  0  0  0  0  0  0  0  0  0  0
   49.2672    9.3245   20.1651 H   0  0  0  0  0  0  0  0  0  0  0  0
   46.2079   10.8127   19.9875 H   0  0  0  0  0  0  0  0  0  0  0  0
   46.8517    8.6071   20.4732 H   0  0  0  0  0  0  0  0  0  0  0  0
   47.5534   13.1726   19.2456 H   0  0  0  0  0  0  0  0  0  0  0  0
   46.8167    8.4314   23.0974 H   0  0  0  0  0  0  0  0  0  0  0  0
   46.9988   11.0616   22.3676 H   0  0  0  0  0  0  0  0  0  0  0  0
   49.2165   10.3514   22.7763 H   0  0  0  0  0  0  0  0  0  0  0  0
   48.1660    5.8803   22.7473 H   0  0  0  0  0  0  0  0  0  0  0  0
   48.4881   11.2921   16.8169 H   0  0  0  0  0  0  0  0  0  0  0  0
   46.0321   12.1748   20.2106 H   0  0  0  0  0  0  0  0  0  0  0  0
   48.8214    7.6085   21.2919 H   0  0  0  0  0  0  0  0  0  0  0  0
   45.5487    9.8192   20.3397 H   0  0  0  0  0  0  0  0  0  0  0  0
   46.9896    9.3520   19.4687 H   0  0  0  0  0  0  0  0  0  0  0  0
   46.1135    8.2938   22.2523 H   0  0  0  0  0  0  0  0  0  0  0  0
   49.4416   11.6183   17.9187 H   0  0  0  0  0  0  0  0  0  0  0  0
   48.1264   11.0239   16.8854 H   0  0  0  0  0  0  0  0  0  0  0  0
   48.6142   10.1254   18.3297 H   0  0  0  0  0  0  0  0  0  0  0  0
   48.3887   13.8731   18.4381 H   0  0  0  0  0  0  0  0  0  0  0  0
   46.6800   13.9625   18.8840 H   0  0  0  0  0  0  0  0  0  0  0  0
   47.1311   13.4816   17.2435 H   0  0  0  0  0  0  0  0  0  0  0  0
   47.8587    5.4712   20.8267 H   0  0  0  0  0  0  0  0  0  0  0  0
   47.8163    5.8226   22.5554 H   0  0  0  0  0  0  0  0  0  0  0  0
   46.3476    6.0087   21.5597 H   0  0  0  0  0  0  0  0  0  0  0  0
   48.4085   10.1422   21.4090 H   0  0  0  0  0  0  0  0  0  0  0  0
   46.9520   10.6500   22.2535 H   0  0  0  0  0  0  0  0  0  0  0  0
   47.3716    9.2553   24.1884 H   0  0  0  0  0  0  0  0  0  0  0  0
   48.8975    8.6704   23.5077 H   0  0  0  0  0  0  0  0  0  0  0  0
   47.6614    7.5233   24.0555 H   0  0  0  0  0  0  0  0  0  0  0  0
  2  1  2  3
  3  5  1  0
  4  2  1  0
  5  9  1  0
  6  1  1  0
  7  1  1  0
  8  3  1  0
  9  4  1  0
 10  5  1  0
 12 11  1  0
 13 11  1  0
 14 12  1  0
 15 13  1  0
 16 14  1  0
 17 15  2  0
 18 16  2  0
 13 19  1  0
 14 20  1  0
 11 21  1  0
 12 22  1  0
 23 16  1  0
 24 15  1  0
 26 25  2  3
 27 29  1  0
 28 26  1  0
 29 33  1  0
 30 25  1  0
 31 25  1  0
 32 27  1  0
 33 28  1  0
 34 29  1  0
  2 35  1  0
  3 36  1  0
  4 37  1  0
  4 38  1  0
  5 39  1  1
  6 40  1  0
  6 41  1  0
  6 42  1  0
  7 43  1  0
  7 44  1  0
  7 45  1  0
  8 46  1  0
  8 47  1  0
  8 48  1  0
  9 49  1  0
  9 50  1  0
 10 51  1  0
 10 52  1  0
 10 53  1  0
 11 54  1  6
 12 55  1  6
 13 56  1  1
 14 57  1  1
 19 58  1  0
 20 59  1  0
 21 60  1  0
 22 61  1  0
 23 62  1  0
 24 63  1  0
 26 64  1  0
 27 65  1  0
 28 66  1  0
 28 67  1  0
 29 68  1  1
 30 69  1  0
 30 70  1  0
 30 71  1  0
 31 72  1  0
 31 73  1  0
 31 74  1  0
 32 75  1  0
 32 76  1  0
 32 77  1  0
 33 78  1  0
 33 79  1  0
 34 80  1  0
 34 81  1  0
 34 82  1  0
M  END
> <Uni-Dock RESULT> 
ENERGY=   -5.920  LOWER_BOUND=    0.000  UPPER_BOUND=    0.000
INTER + INTRA:          -5.920
INTER:                  -5.920
INTRA:                   0.000
UNBOUND:                 0.000

$$$$

     RDKit          3D

 82 79  0  0  0  0  0  0  0  0999 V2000
   44.2701    4.7507   12.1334 C   0  0  0  0  0  0  0  0  0  0  0  0
   44.0578    6.0767   12.2457 C   0  0  0  0  0  0  0  0  0  0  0  0
   47.3013    9.7623   11.7203 N   0  0  0  0  0  0  0  0  0  0  0  0
   44.8885    7.0780   13.0026 C   0  0  0  0  0  0  0  0  0  0  0  0
   46.5558    9.0219   12.7545 C   0  0  1  0  0  0  0  0  0  0  0  0
   43.3161    3.8833   11.3540 C   0  0  0  0  0  0  0  0  0  0  0  0
   45.4371    4.0089   12.7248 C   0  0  0  0  0  0  0  0  0  0  0  0
   47.7344   11.0816   12.1654 C   0  0  0  0  0  0  0  0  0  0  0  0
   45.8090    7.8605   12.0605 C   0  0  0  0  0  0  0  0  0  0  0  0
   47.5056    8.5109   13.8424 C   0  0  0  0  0  0  0  0  0  0  0  0
   47.0826    7.4886   11.8435 C   0  0  1  0  0  0  0  0  0  0  0  0
   45.7859    6.7843   11.3694 C   0  0  2  0  0  0  0  0  0  0  0  0
   46.8967    8.5733   12.9165 C   0  0  2  0  0  0  0  0  0  0  0  0
   44.9617    6.1683   12.5118 C   0  0  1  0  0  0  0  0  0  0  0  0
   45.9383    9.6409   12.4078 C   0  0  0  0  0  0  0  0  0  0  0  0
   43.7187    5.4787   11.9481 C   0  0  0  0  0  0  0  0  0  0  0  0
   44.7203    9.5806   12.4395 O   0  0  0  0  0  0  0  0  0  0  0  0
   42.8428    5.9755   11.2619 O   0  0  0  0  0  0  0  0  0  0  0  0
   48.1589    9.1520   13.2723 O   0  0  0  0  0  0  0  0  0  0  0  0
   45.7918    5.2885   13.2865 O   0  0  0  0  0  0  0  0  0  0  0  0
   47.9990    6.4693   12.3072 O   0  0  0  0  0  0  0  0  0  0  0  0
   46.1973    5.7323   10.4689 O   0  0  0  0  0  0  0  0  0  0  0  0
   43.6489    4.1793   12.3284 O   0  0  0  0  0  0  0  0  0  0  0  0
   46.5681   10.6852   11.8281 O   0  0  0  0  0  0  0  0  0  0  0  0
   47.1178    9.7546   12.5786 C   0  0  0  0  0  0  0  0  0  0  0  0
   47.0238    8.6575   13.3552 C   0  0  0  0  0  0  0  0  0  0  0  0
   43.8484    5.8113   12.2467 N   0  0  0  0  0  0  0  0  0  0  0  0
   45.8721    7.6911   13.4439 C   0  0  0  0  0  0  0  0  0  0  0  0
   45.0850    5.3203   12.8673 C   0  0  2  0  0  0  0  0  0  0  0  0
   46.0762   10.2036   11.5910 C   0  0  0  0  0  0  0  0  0  0  0  0
   48.3349   10.6395   12.6423 C   0  0  0  0  0  0  0  0  0  0  0  0
   42.6719    5.0399   12.6186 C   0  0  0  0  0  0  0  0  0  0  0  0
   46.1915    6.3837   12.7109 C   0  0  0  0  0  0  0  0  0  0  0  0
   45.5529    4.0045   12.2359 C   0  0  0  0  0  0  0  0  0  0  0  0
   43.1857    6.5057   11.7523 H   0  0  0  0  0  0  0  0  0  0  0  0
   46.7090    9.8822   10.8983 H   0  0  0  0  0  0  0  0  0  0  0  0
   45.4625    6.5883   13.7934 H   0  0  0  0  0  0  0  0  0  0  0  0
   44.2048    7.7691   13.5113 H   0  0  0  0  0  0  0  0  0  0  0  0
   45.8056    9.6820   13.2087 H   0  0  0  0  0  0  0  0  0  0  0  0
   42.8974    3.1057   12.0013 H   0  0  0  0  0  0  0  0  0  0  0  0
   42.4798    4.4546   10.9377 H   0  0  0  0  0  0  0  0  0  0  0  0
   43.8364    3.4007   10.5202 H   0  0  0  0  0  0  0  0  0  0  0  0
   46.1683    4.6615   13.2065 H   0  0  0  0  0  0  0  0  0  0  0  0
   45.9687    3.4600   11.9403 H   0  0  0  0  0  0  0  0  0  0  0  0
   45.0865    3.2891   13.4711 H   0  0  0  0  0  0  0  0  0  0  0  0
   46.8892   11.6923   12.4991 H   0  0  0  0  0  0  0  0  0  0  0  0
   48.4758   11.0215   12.9667 H   0  0  0  0  0  0  0  0  0  0  0  0
   48.2110   11.6034   11.3293 H   0  0  0  0  0  0  0  0  0  0  0  0
   45.2024    8.2662   11.2387 H   0  0  0  0  0  0  0  0  0  0  0  0
   46.5328    7.1722   11.6030 H   0  0  0  0  0  0  0  0  0  0  0  0
   48.0434    9.3294   14.3309 H   0  0  0  0  0  0  0  0  0  0  0  0
   46.9594    7.9888   14.6337 H   0  0  0  0  0  0  0  0  0  0  0  0
   48.2479    7.8182   13.4304 H   0  0  0  0  0  0  0  0  0  0  0  0
   47.5805    7.9243   10.9682 H   0  0  0  0  0  0  0  0  0  0  0  0
   45.1659    7.4735   10.7865 H   0  0  0  0  0  0  0  0  0  0  0  0
   46.4977    8.1578   13.8465 H   0  0  0  0  0  0  0  0  0  0  0  0
   44.5987    6.9359   13.2018 H   0  0  0  0  0  0  0  0  0  0  0  0
   48.4536    9.6733   12.5019 H   0  0  0  0  0  0  0  0  0  0  0  0
   45.3458    4.4142   13.2378 H   0  0  0  0  0  0  0  0  0  0  0  0
   47.5587    6.0124   13.0567 H   0  0  0  0  0  0  0  0  0  0  0  0
   47.0361    5.3818   10.8388 H   0  0  0  0  0  0  0  0  0  0  0  0
   42.8329    3.8557   11.8871 H   0  0  0  0  0  0  0  0  0  0  0  0
   45.8468   11.2969   11.5652 H   0  0  0  0  0  0  0  0  0  0  0  0
   47.8523    8.4221   14.0231 H   0  0  0  0  0  0  0  0  0  0  0  0
   43.9480    5.8208   11.2319 H   0  0  0  0  0  0  0  0  0  0  0  0
   45.6881    7.4826   14.5053 H   0  0  0  0  0  0  0  0  0  0  0  0
   44.9482    8.1366   13.0638 H   0  0  0  0  0  0  0  0  0  0  0  0
   44.9227    5.1590   13.9406 H   0  0  0  0  0  0  0  0  0  0  0  0
   46.5362   10.3770   10.6123 H   0  0  0  0  0  0  0  0  0  0  0  0
   45.6190   11.1397   11.9268 H   0  0  0  0  0  0  0  0  0  0  0  0
   45.2786    9.4730   11.4391 H   0  0  0  0  0  0  0  0  0  0  0  0
   48.8303   10.6737   11.6665 H   0  0  0  0  0  0  0  0  0  0  0  0
   49.0680   10.2871   13.3755 H   0  0  0  0  0  0  0  0  0  0  0  0
   48.0473   11.6581   12.9234 H   0  0  0  0  0  0  0  0  0  0  0  0
   41.7816    5.5145   12.1933 H   0  0  0  0  0  0  0  0  0  0  0  0
   42.7119    4.0157   12.2367 H   0  0  0  0  0  0  0  0  0  0  0  0
   42.5395    5.0143   13.7051 H   0  0  0  0  0  0  0  0  0  0  0  0
   46.3643    6.5914   11.6462 H   0  0  0  0  0  0  0  0  0  0  0  0
   47.1330    5.9764   13.1033 H   0  0  0  0  0  0  0  0  0  0  0  0
   46.4978    3.6773   12.6838 H   0  0  0  0  0  0  0  0  0  0  0  0
   45.7138    4.1120   11.1573 H   0  0  0  0  0  0  0  0  0  0  0  0
   44.8277    3.2000   12.3930 H   0  0  0  0  0  0  0  0  0  0  0  0
  2  1  2  3
  3  5  1  0
  4  2  1  0
  5  9  1  0
  6  1  1  0
  7  1  1  0
  8  3  1  0
  9  4  1  0
 10  5  1  0
 12 11  1  0
 13 11  1  0
 14 12  1  0
 15 13  1  0
 16 14  1  0
 17 15  2  0
 18 16  2  0
 13 19  1  0
 14 20  1  0
 11 21  1  0
 12 22  1  0
 23 16  1  0
 24 15  1  0
 26 25  2  3
 27 29  1  0
 28 26  1  0
 29 33  1  0
 30 25  1  0
 31 25  1  0
 32 27  1  0
 33 28  1  0
 34 29  1  0
  2 35  1  0
  3 36  1  0
  4 37  1  0
  4 38  1  0
  5 39  1  1
  6 40  1  0
  6 41  1  0
  6 42  1  0
  7 43  1  0
  7 44  1  0
  7 45  1  0
  8 46  1  0
  8 47  1  0
  8 48  1  0
  9 49  1  0
  9 50  1  0
 10 51  1  0
 10 52  1  0
 10 53  1  0
 11 54  1  6
 12 55  1  6
 13 56  1  1
 14 57  1  1
 19 58  1  0
 20 59  1  0
 21 60  1  0
 22 61  1  0
 23 62  1  0
 24 63  1  0
 26 64  1  0
 27 65  1  0
 28 66  1  0
 28 67  1  0
 29 68  1  1
 30 69  1  0
 30 70  1  0
 30 71  1  0
 31 72  1  0
 31 73  1  0
 31 74  1  0
 32 75  1  0
 32 76  1  0
 32 77  1  0
 33 78  1  0
 33 79  1  0
 34 80  1  0
 34 81  1  0
 34 82  1  0
M  END
> <Uni-Dock RESULT> 
ENERGY=   -5.649  LOWER_BOUND=    7.578  UPPER_BOUND=    9.256
INTER + INTRA:          -5.649
INTER:                  -5.649
INTRA:                   0.000
UNBOUND:                 0.000

$$$$

     RDKit          3D

 82 79  0  0  0  0  0  0  0  0999 V2000
   44.2696    3.8917   10.2263 C   0  0  0  0  0  0  0  0  0  0  0  0
   45.3083    4.7316   10.0489 C   0  0  0  0  0  0  0  0  0  0  0  0
   47.6924    7.4260   13.4307 N   0  0  0  0  0  0  0  0  0  0  0  0
   45.4665    6.1239   10.5984 C   0  0  0  0  0  0  0  0  0  0  0  0
   46.7188    7.5555   12.3312 C   0  0  1  0  0  0  0  0  0  0  0  0
   44.2609    2.5327    9.5759 C   0  0  0  0  0  0  0  0  0  0  0  0
   43.0579    4.1812   11.0688 C   0  0  0  0  0  0  0  0  0  0  0  0
   48.3766    8.6770   13.7357 C   0  0  0  0  0  0  0  0  0  0  0  0
   46.3777    6.1341   11.8301 C   0  0  0  0  0  0  0  0  0  0  0  0
   45.4672    8.3018   12.8041 C   0  0  0  0  0  0  0  0  0  0  0  0
   45.8826    6.0720   13.0785 C   0  0  1  0  0  0  0  0  0  0  0  0
   45.9190    4.9530   12.0066 C   0  0  2  0  0  0  0  0  0  0  0  0
   46.1876    7.4903   12.5705 C   0  0  2  0  0  0  0  0  0  0  0  0
   45.0033    5.2194   10.8007 C   0  0  1  0  0  0  0  0  0  0  0  0
   47.5578    7.5156   11.9079 C   0  0  0  0  0  0  0  0  0  0  0  0
   45.0879    4.0562    9.8118 C   0  0  0  0  0  0  0  0  0  0  0  0
   47.8008    7.1890   10.7579 O   0  0  0  0  0  0  0  0  0  0  0  0
   46.0852    3.6209    9.2634 O   0  0  0  0  0  0  0  0  0  0  0  0
   46.1267    8.4351   13.6468 O   0  0  0  0  0  0  0  0  0  0  0  0
   43.6655    5.4750   11.2571 O   0  0  0  0  0  0  0  0  0  0  0  0
   44.5863    6.0318   13.7203 O   0  0  0  0  0  0  0  0  0  0  0  0
   45.4864    3.7419   12.6645 O   0  0  0  0  0  0  0  0  0  0  0  0
   43.8666    3.5285    9.5509 O   0  0  0  0  0  0  0  0  0  0  0  0
   48.5470    7.8821   12.7506 O   0  0  0  0  0  0  0  0  0  0  0  0
   47.2536    8.0163   12.9519 C   0  0  0  0  0  0  0  0  0  0  0  0
   45.9771    7.9028   12.5359 C   0  0  0  0  0  0  0  0  0  0  0  0
   45.1510    4.5163    9.8411 N   0  0  0  0  0  0  0  0  0  0  0  0
   45.4556    7.0821   11.3857 C   0  0  0  0  0  0  0  0  0  0  0  0
   44.1036    4.9988   10.7496 C   0  0  2  0  0  0  0  0  0  0  0  0
   48.4234    7.2837   12.3548 C   0  0  0  0  0  0  0  0  0  0  0  0
   47.6091    8.9182   14.1047 C   0  0  0  0  0  0  0  0  0  0  0  0
   44.6319    4.0203    8.5754 C   0  0  0  0  0  0  0  0  0  0  0  0
   44.7509    5.8165   11.8861 C   0  0  0  0  0  0  0  0  0  0  0  0
   43.2980    3.8424   11.3517 C   0  0  0  0  0  0  0  0  0  0  0  0
   46.1436    4.4002    9.4319 H   0  0  0  0  0  0  0  0  0  0  0  0
   48.3960    6.7317   13.1782 H   0  0  0  0  0  0  0  0  0  0  0  0
   44.4929    6.5642   10.8281 H   0  0  0  0  0  0  0  0  0  0  0  0
   45.9017    6.7512    9.8104 H   0  0  0  0  0  0  0  0  0  0  0  0
   47.1767    8.1060   11.4993 H   0  0  0  0  0  0  0  0  0  0  0  0
   43.3912    2.4340    8.9180 H   0  0  0  0  0  0  0  0  0  0  0  0
   45.1565    2.3551    8.9713 H   0  0  0  0  0  0  0  0  0  0  0  0
   44.2134    1.7475   10.3376 H   0  0  0  0  0  0  0  0  0  0  0  0
   43.1195    5.1287   11.6081 H   0  0  0  0  0  0  0  0  0  0  0  0
   42.9276    3.3953   11.8203 H   0  0  0  0  0  0  0  0  0  0  0  0
   42.1613    4.2095   10.4416 H   0  0  0  0  0  0  0  0  0  0  0  0
   48.8868    9.0825   12.8560 H   0  0  0  0  0  0  0  0  0  0  0  0
   47.6941    9.4307   14.1374 H   0  0  0  0  0  0  0  0  0  0  0  0
   49.1350    8.4929   14.5035 H   0  0  0  0  0  0  0  0  0  0  0  0
   47.3106    5.6109   11.5772 H   0  0  0  0  0  0  0  0  0  0  0  0
   45.9061    5.5571   12.6373 H   0  0  0  0  0  0  0  0  0  0  0  0
   45.7051    9.3061   13.1681 H   0  0  0  0  0  0  0  0  0  0  0  0
   44.7513    8.4344   11.9874 H   0  0  0  0  0  0  0  0  0  0  0  0
   44.9620    7.7610   13.6120 H   0  0  0  0  0  0  0  0  0  0  0  0
   46.5894    5.8114   13.8761 H   0  0  0  0  0  0  0  0  0  0  0  0
   46.9460    4.7786   11.6687 H   0  0  0  0  0  0  0  0  0  0  0  0
   45.4412    7.8297   11.8464 H   0  0  0  0  0  0  0  0  0  0  0  0
   45.3164    6.1116   10.2503 H   0  0  0  0  0  0  0  0  0  0  0  0
   46.8940    8.2530   14.2213 H   0  0  0  0  0  0  0  0  0  0  0  0
   43.1148    4.7893   10.8185 H   0  0  0  0  0  0  0  0  0  0  0  0
   43.9184    6.2001   13.0203 H   0  0  0  0  0  0  0  0  0  0  0  0
   44.7907    4.0203   13.2982 H   0  0  0  0  0  0  0  0  0  0  0  0
   44.0638    2.7904    8.9331 H   0  0  0  0  0  0  0  0  0  0  0  0
   49.3597    7.8737   12.2002 H   0  0  0  0  0  0  0  0  0  0  0  0
   45.2084    8.4719   13.0585 H   0  0  0  0  0  0  0  0  0  0  0  0
   45.6999    3.7883   10.2977 H   0  0  0  0  0  0  0  0  0  0  0  0
   44.7449    7.7017   10.8245 H   0  0  0  0  0  0  0  0  0  0  0  0
   46.2537    6.8323   10.6807 H   0  0  0  0  0  0  0  0  0  0  0  0
   43.4181    5.6617   10.2065 H   0  0  0  0  0  0  0  0  0  0  0  0
   48.9903    6.7755   13.1422 H   0  0  0  0  0  0  0  0  0  0  0  0
   49.0913    7.9895   11.8510 H   0  0  0  0  0  0  0  0  0  0  0  0
   48.1329    6.5182   11.6318 H   0  0  0  0  0  0  0  0  0  0  0  0
   48.0554    8.3363   14.9177 H   0  0  0  0  0  0  0  0  0  0  0  0
   46.7357    9.4401   14.5097 H   0  0  0  0  0  0  0  0  0  0  0  0
   48.3297    9.6772   13.7825 H   0  0  0  0  0  0  0  0  0  0  0  0
   45.4697    3.7631    7.9192 H   0  0  0  0  0  0  0  0  0  0  0  0
   44.0257    3.1187    8.7024 H   0  0  0  0  0  0  0  0  0  0  0  0
   44.0386    4.7838    8.0616 H   0  0  0  0  0  0  0  0  0  0  0  0
   45.4657    5.1911   12.4380 H   0  0  0  0  0  0  0  0  0  0  0  0
   43.9717    6.1035   12.6050 H   0  0  0  0  0  0  0  0  0  0  0  0
   42.5502    4.2207   12.0575 H   0  0  0  0  0  0  0  0  0  0  0  0
   43.9443    3.1422   11.8928 H   0  0  0  0  0  0  0  0  0  0  0  0
   42.7583    3.2816   10.5822 H   0  0  0  0  0  0  0  0  0  0  0  0
  2  1  2  3
  3  5  1  0
  4  2  1  0
  5  9  1  0
  6  1  1  0
  7  1  1  0
  8  3  1  0
  9  4  1  0
 10  5  1  0
 12 11  1  0
 13 11  1  0
 14 12  1  0
 15 13  1  0
 16 14  1  0
 17 15  2  0
 18 16  2  0
 13 19  1  0
 14 20  1  0
 11 21  1  0
 12 22  1  0
 23 16  1  0
 24 15  1  0
 26 25  2  3
 27 29  1  0
 28 26  1  0
 29 33  1  0
 30 25  1  0
 31 25  1  0
 32 27  1  0
 33 28  1  0
 34 29  1  0
  2 35  1  0
  3 36  1  0
  4 37  1  0
  4 38  1  0
  5 39  1  1
  6 40  1  0
  6 41  1  0
  6 42  1  0
  7 43  1  0
  7 44  1  0
  7 45  1  0
  8 46  1  0
  8 47  1  0
  8 48  1  0
  9 49  1  0
  9 50  1  0
 10 51  1  0
 10 52  1  0
 10 53  1  0
 11 54  1  6
 12 55  1  6
 13 56  1  1
 14 57  1  1
 19 58  1  0
 20 59  1  0
 21 60  1  0
 22 61  1  0
 23 62  1  0
 24 63  1  0
 26 64  1  0
 27 65  1  0
 28 66  1  0
 28 67  1  0
 29 68  1  1
 30 69  1  0
 30 70  1  0
 30 71  1  0
 31 72  1  0
 31 73  1  0
 31 74  1  0
 32 75  1  0
 32 76  1  0
 32 77  1  0
 33 78  1  0
 33 79  1  0
 34 80  1  0
 34 81  1  0
 34 82  1  0
M  END
> <Uni-Dock RESULT> 
ENERGY=   -5.527  LOWER_BOUND=    8.803  UPPER_BOUND=   10.432
INTER + INTRA:          -5.527
INTER:                  -5.527
INTRA:                   0.000
UNBOUND:                 0.000

$$$$

     RDKit          3D

 82 79  0  0  0  0  0  0  0  0999 V2000
   56.2219    4.5034   10.4577 C   0  0  0  0  0  0  0  0  0  0  0  0
   56.2860    4.8357    9.1534 C   0  0  0  0  0  0  0  0  0  0  0  0
   53.9839    8.5189    6.8051 N   0  0  0  0  0  0  0  0  0  0  0  0
   55.1407    5.1575    8.2312 C   0  0  0  0  0  0  0  0  0  0  0  0
   53.9425    7.0547    6.9723 C   0  0  1  0  0  0  0  0  0  0  0  0
   57.4744    4.1824   11.2311 C   0  0  0  0  0  0  0  0  0  0  0  0
   54.9587    4.4332   11.2709 C   0  0  0  0  0  0  0  0  0  0  0  0
   53.3360    8.9705    5.5793 C   0  0  0  0  0  0  0  0  0  0  0  0
   54.9869    6.6703    8.0445 C   0  0  0  0  0  0  0  0  0  0  0  0
   52.5349    6.5964    7.3668 C   0  0  0  0  0  0  0  0  0  0  0  0
   54.1338    7.3934    8.7909 C   0  0  1  0  0  0  0  0  0  0  0  0
   55.4609    6.7246    9.2315 C   0  0  2  0  0  0  0  0  0  0  0  0
   53.5858    6.9488    7.4254 C   0  0  2  0  0  0  0  0  0  0  0  0
   55.4107    5.1879    9.2312 C   0  0  1  0  0  0  0  0  0  0  0  0
   54.6264    7.2073    6.3449 C   0  0  0  0  0  0  0  0  0  0  0  0
   56.7510    4.6201    9.6995 C   0  0  0  0  0  0  0  0  0  0  0  0
   55.5616    6.4758    6.0648 O   0  0  0  0  0  0  0  0  0  0  0  0
   57.8513    4.8238    9.2170 O   0  0  0  0  0  0  0  0  0  0  0  0
   52.3624    7.6333    7.1262 O   0  0  0  0  0  0  0  0  0  0  0  0
   54.3007    4.7406   10.0255 O   0  0  0  0  0  0  0  0  0  0  0  0
   53.1530    7.1633    9.8295 O   0  0  0  0  0  0  0  0  0  0  0  0
   55.7243    7.1841   10.5755 O   0  0  0  0  0  0  0  0  0  0  0  0
   56.6009    3.7837   10.7559 O   0  0  0  0  0  0  0  0  0  0  0  0
   54.4684    8.3999    5.7318 O   0  0  0  0  0  0  0  0  0  0  0  0
   53.5941    7.7921    6.5049 C   0  0  0  0  0  0  0  0  0  0  0  0
   53.2115    6.7369    7.2503 C   0  0  0  0  0  0  0  0  0  0  0  0
   56.4557    4.6107    9.3400 N   0  0  0  0  0  0  0  0  0  0  0  0
   54.0814    5.6373    7.8003 C   0  0  0  0  0  0  0  0  0  0  0  0
   55.1138    4.6594    9.9334 C   0  0  2  0  0  0  0  0  0  0  0  0
   55.0126    8.1015    6.1124 C   0  0  0  0  0  0  0  0  0  0  0  0
   52.5802    8.7854    6.0012 C   0  0  0  0  0  0  0  0  0  0  0  0
   57.1643    3.3708    9.6196 C   0  0  0  0  0  0  0  0  0  0  0  0
   54.3190    5.8214    9.3030 C   0  0  0  0  0  0  0  0  0  0  0  0
   55.1721    4.8501   11.4530 C   0  0  0  0  0  0  0  0  0  0  0  0
   57.2651    4.8749    8.6758 H   0  0  0  0  0  0  0  0  0  0  0  0
   54.9557    8.8287    6.7843 H   0  0  0  0  0  0  0  0  0  0  0  0
   54.2116    4.7114    8.5950 H   0  0  0  0  0  0  0  0  0  0  0  0
   55.3428    4.6832    7.2626 H   0  0  0  0  0  0  0  0  0  0  0  0
   54.2312    6.5701    6.0308 H   0  0  0  0  0  0  0  0  0  0  0  0
   57.4187    3.1666   11.6361 H   0  0  0  0  0  0  0  0  0  0  0  0
   58.3741    4.2431   10.6097 H   0  0  0  0  0  0  0  0  0  0  0  0
   57.5973    4.8837   12.0629 H   0  0  0  0  0  0  0  0  0  0  0  0
   54.0710    4.7580   10.7241 H   0  0  0  0  0  0  0  0  0  0  0  0
   55.0437    5.0787   12.1516 H   0  0  0  0  0  0  0  0  0  0  0  0
   54.7866    3.4074   11.6115 H   0  0  0  0  0  0  0  0  0  0  0  0
   53.7752    8.4998    4.6939 H   0  0  0  0  0  0  0  0  0  0  0  0
   52.2589    8.7836    5.5916 H   0  0  0  0  0  0  0  0  0  0  0  0
   53.4700   10.0526    5.4807 H   0  0  0  0  0  0  0  0  0  0  0  0
   55.9628    7.0867    7.7582 H   0  0  0  0  0  0  0  0  0  0  0  0
   54.7215    7.1312    9.0058 H   0  0  0  0  0  0  0  0  0  0  0  0
   51.7903    6.8742    6.6143 H   0  0  0  0  0  0  0  0  0  0  0  0
   52.4832    5.5075    7.4605 H   0  0  0  0  0  0  0  0  0  0  0  0
   52.2270    7.0330    8.3234 H   0  0  0  0  0  0  0  0  0  0  0  0
   54.2777    8.4811    8.7886 H   0  0  0  0  0  0  0  0  0  0  0  0
   56.2919    7.0746    8.6101 H   0  0  0  0  0  0  0  0  0  0  0  0
   53.3301    5.8853    7.4192 H   0  0  0  0  0  0  0  0  0  0  0  0
   55.2472    4.7935    8.2239 H   0  0  0  0  0  0  0  0  0  0  0  0
   52.5981    8.5654    6.9596 H   0  0  0  0  0  0  0  0  0  0  0  0
   54.7014    4.1739   10.7211 H   0  0  0  0  0  0  0  0  0  0  0  0
   53.0428    6.1903    9.9045 H   0  0  0  0  0  0  0  0  0  0  0  0
   54.8462    7.2471   11.0092 H   0  0  0  0  0  0  0  0  0  0  0  0
   57.5219    3.5143   10.9667 H   0  0  0  0  0  0  0  0  0  0  0  0
   55.1816    8.4306    5.0581 H   0  0  0  0  0  0  0  0  0  0  0  0
   52.1534    6.6248    7.4864 H   0  0  0  0  0  0  0  0  0  0  0  0
   57.0085    5.4042    9.6633 H   0  0  0  0  0  0  0  0  0  0  0  0
   53.5706    4.6827    7.6225 H   0  0  0  0  0  0  0  0  0  0  0  0
   55.0301    5.5721    7.2597 H   0  0  0  0  0  0  0  0  0  0  0  0
   54.5775    3.7273    9.7147 H   0  0  0  0  0  0  0  0  0  0  0  0
   55.2568    9.1373    6.3713 H   0  0  0  0  0  0  0  0  0  0  0  0
   55.1390    7.9779    5.0323 H   0  0  0  0  0  0  0  0  0  0  0  0
   55.7492    7.4696    6.6136 H   0  0  0  0  0  0  0  0  0  0  0  0
   52.7982    9.7831    6.3960 H   0  0  0  0  0  0  0  0  0  0  0  0
   51.5589    8.5256    6.2992 H   0  0  0  0  0  0  0  0  0  0  0  0
   52.6057    8.8299    4.9073 H   0  0  0  0  0  0  0  0  0  0  0  0
   58.1141    3.3688    9.0750 H   0  0  0  0  0  0  0  0  0  0  0  0
   57.3954    3.2578   10.6827 H   0  0  0  0  0  0  0  0  0  0  0  0
   56.5931    2.5004    9.2807 H   0  0  0  0  0  0  0  0  0  0  0  0
   54.8407    6.7719    9.4794 H   0  0  0  0  0  0  0  0  0  0  0  0
   53.3479    5.9031    9.8096 H   0  0  0  0  0  0  0  0  0  0  0  0
   54.1620    4.9256   11.8705 H   0  0  0  0  0  0  0  0  0  0  0  0
   55.7142    5.7636   11.7222 H   0  0  0  0  0  0  0  0  0  0  0  0
   55.6617    4.0058   11.9482 H   0  0  0  0  0  0  0  0  0  0  0  0
  2  1  2  3
  3  5  1  0
  4  2  1  0
  5  9  1  0
  6  1  1  0
  7  1  1  0
  8  3  1  0
  9  4  1  0
 10  5  1  0
 12 11  1  0
 13 11  1  0
 14 12  1  0
 15 13  1  0
 16 14  1  0
 17 15  2  0
 18 16  2  0
 13 19  1  0
 14 20  1  0
 11 21  1  0
 12 22  1  0
 23 16  1  0
 24 15  1  0
 26 25  2  3
 27 29  1  0
 28 26  1  0
 29 33  1  0
 30 25  1  0
 31 25  1  0
 32 27  1  0
 33 28  1  0
 34 29  1  0
  2 35  1  0
  3 36  1  0
  4 37  1  0
  4 38  1  0
  5 39  1  1
  6 40  1  0
  6 41  1  0
  6 42  1  0
  7 43  1  0
  7 44  1  0
  7 45  1  0
  8 46  1  0
  8 47  1  0
  8 48  1  0
  9 49  1  0
  9 50  1  0
 10 51  1  0
 10 52  1  0
 10 53  1  0
 11 54  1  6
 12 55  1  6
 13 56  1  1
 14 57  1  1
 19 58  1  0
 20 59  1  0
 21 60  1  0
 22 61  1  0
 23 62  1  0
 24 63  1  0
 26 64  1  0
 27 65  1  0
 28 66  1  0
 28 67  1  0
 29 68  1  1
 30 69  1  0
 30 70  1  0
 30 71  1  0
 31 72  1  0
 31 73  1  0
 31 74  1  0
 32 75  1  0
 32 76  1  0
 32 77  1  0
 33 78  1  0
 33 79  1  0
 34 80  1  0
 34 81  1  0
 34 82  1  0
M  END
> <Uni-Dock RESULT> 
ENERGY=   -5.418  LOWER_BOUND=   13.077  UPPER_BOUND=   14.587
INTER + INTRA:          -5.418
INTER:                  -5.418
INTRA:                   0.000
UNBOUND:                 0.000

$$$$

     RDKit          3D

 82 79  0  0  0  0  0  0  0  0999 V2000
   56.5246    4.2909   12.4111 C   0  0  0  0  0  0  0  0  0  0  0  0
   55.9341    3.9856   11.2389 C   0  0  0  0  0  0  0  0  0  0  0  0
   54.2752    7.0534    7.7437 N   0  0  0  0  0  0  0  0  0  0  0  0
   54.6895    4.5956   10.6522 C   0  0  0  0  0  0  0  0  0  0  0  0
   53.7973    6.1655    8.8193 C   0  0  1  0  0  0  0  0  0  0  0  0
   57.7601    3.5568   12.8631 C   0  0  0  0  0  0  0  0  0  0  0  0
   56.0606    5.3620   13.3596 C   0  0  0  0  0  0  0  0  0  0  0  0
   53.2610    7.3161    6.7295 C   0  0  0  0  0  0  0  0  0  0  0  0
   55.0332    5.6347    9.5800 C   0  0  0  0  0  0  0  0  0  0  0  0
   52.8404    6.9147    9.7520 C   0  0  0  0  0  0  0  0  0  0  0  0
   55.1220    6.9454    9.8660 C   0  0  1  0  0  0  0  0  0  0  0  0
   56.0877    5.8071   10.2834 C   0  0  2  0  0  0  0  0  0  0  0  0
   53.7645    6.4937    9.3040 C   0  0  2  0  0  0  0  0  0  0  0  0
   55.4787    4.8142   11.2869 C   0  0  1  0  0  0  0  0  0  0  0  0
   53.9820    5.5924    8.0967 C   0  0  0  0  0  0  0  0  0  0  0  0
   56.5079    3.7451   11.6560 C   0  0  0  0  0  0  0  0  0  0  0  0
   54.2213    4.3967    8.1323 O   0  0  0  0  0  0  0  0  0  0  0  0
   57.0968    2.9915   10.9009 O   0  0  0  0  0  0  0  0  0  0  0  0
   52.9619    7.6282    8.9525 O   0  0  0  0  0  0  0  0  0  0  0  0
   54.9739    5.5277   12.4268 O   0  0  0  0  0  0  0  0  0  0  0  0
   54.9337    7.8115   11.0097 O   0  0  0  0  0  0  0  0  0  0  0  0
   57.2328    6.4443   10.8914 O   0  0  0  0  0  0  0  0  0  0  0  0
   56.7039    3.6774   12.9958 O   0  0  0  0  0  0  0  0  0  0  0  0
   53.9548    6.2617    6.9243 O   0  0  0  0  0  0  0  0  0  0  0  0
   53.5480    6.7082    8.0933 C   0  0  0  0  0  0  0  0  0  0  0  0
   53.3132    6.5286    9.4079 C   0  0  0  0  0  0  0  0  0  0  0  0
   56.0816    3.7954   11.4764 N   0  0  0  0  0  0  0  0  0  0  0  0
   53.8522    5.4386   10.2966 C   0  0  0  0  0  0  0  0  0  0  0  0
   55.4770    4.9147   12.2092 C   0  0  2  0  0  0  0  0  0  0  0  0
   54.4584    5.8533    7.2554 C   0  0  0  0  0  0  0  0  0  0  0  0
   52.8924    7.8373    7.3426 C   0  0  0  0  0  0  0  0  0  0  0  0
   56.2942    2.6152   12.3006 C   0  0  0  0  0  0  0  0  0  0  0  0
   54.9686    5.9679   11.2034 C   0  0  0  0  0  0  0  0  0  0  0  0
   56.4762    5.5702   13.1688 C   0  0  0  0  0  0  0  0  0  0  0  0
   56.3771    3.2022   10.6238 H   0  0  0  0  0  0  0  0  0  0  0  0
   55.0801    6.6254    7.2856 H   0  0  0  0  0  0  0  0  0  0  0  0
   54.0646    5.0329   11.4351 H   0  0  0  0  0  0  0  0  0  0  0  0
   54.0939    3.7881   10.2082 H   0  0  0  0  0  0  0  0  0  0  0  0
   53.2761    5.3053    8.3798 H   0  0  0  0  0  0  0  0  0  0  0  0
   57.5776    3.0659   13.8247 H   0  0  0  0  0  0  0  0  0  0  0  0
   58.0699    2.7856   12.1501 H   0  0  0  0  0  0  0  0  0  0  0  0
   58.5951    4.2552   12.9805 H   0  0  0  0  0  0  0  0  0  0  0  0
   55.2219    5.9477   12.9774 H   0  0  0  0  0  0  0  0  0  0  0  0
   56.8759    6.0658   13.5578 H   0  0  0  0  0  0  0  0  0  0  0  0
   55.7527    4.9155   14.3103 H   0  0  0  0  0  0  0  0  0  0  0  0
   52.8865    6.3890    6.2840 H   0  0  0  0  0  0  0  0  0  0  0  0
   52.4208    7.8908    7.1285 H   0  0  0  0  0  0  0  0  0  0  0  0
   53.7035    7.9149    5.9268 H   0  0  0  0  0  0  0  0  0  0  0  0
   55.7260    5.1763    8.8605 H   0  0  0  0  0  0  0  0  0  0  0  0
   55.5739    6.4713   10.0432 H   0  0  0  0  0  0  0  0  0  0  0  0
   51.9676    7.3002    9.2158 H   0  0  0  0  0  0  0  0  0  0  0  0
   52.4519    6.2565   10.5349 H   0  0  0  0  0  0  0  0  0  0  0  0
   53.3385    7.7610   10.2381 H   0  0  0  0  0  0  0  0  0  0  0  0
   55.6298    7.5773    9.1267 H   0  0  0  0  0  0  0  0  0  0  0  0
   56.4557    5.2732    9.4010 H   0  0  0  0  0  0  0  0  0  0  0  0
   53.1800    5.9468   10.0495 H   0  0  0  0  0  0  0  0  0  0  0  0
   54.6264    4.2814   10.8550 H   0  0  0  0  0  0  0  0  0  0  0  0
   53.3821    8.0360    8.1720 H   0  0  0  0  0  0  0  0  0  0  0  0
   55.4576    5.1502   13.1943 H   0  0  0  0  0  0  0  0  0  0  0  0
   54.5354    7.2613   11.7190 H   0  0  0  0  0  0  0  0  0  0  0  0
   56.8752    7.2143   11.3838 H   0  0  0  0  0  0  0  0  0  0  0  0
   57.3914    2.9820   13.0913 H   0  0  0  0  0  0  0  0  0  0  0  0
   54.0883    5.5711    6.2396 H   0  0  0  0  0  0  0  0  0  0  0  0
   52.6452    7.2244    9.9155 H   0  0  0  0  0  0  0  0  0  0  0  0
   56.9648    4.0886   11.0596 H   0  0  0  0  0  0  0  0  0  0  0  0
   53.0241    5.0650   10.9118 H   0  0  0  0  0  0  0  0  0  0  0  0
   54.1976    4.5818    9.7109 H   0  0  0  0  0  0  0  0  0  0  0  0
   54.6150    4.5573   12.7868 H   0  0  0  0  0  0  0  0  0  0  0  0
   55.1716    6.4832    6.7131 H   0  0  0  0  0  0  0  0  0  0  0  0
   53.8738    5.2870    6.5236 H   0  0  0  0  0  0  0  0  0  0  0  0
   55.0470    5.1431    7.8405 H   0  0  0  0  0  0  0  0  0  0  0  0
   53.6517    8.5094    6.9295 H   0  0  0  0  0  0  0  0  0  0  0  0
   52.2321    8.4338    7.9810 H   0  0  0  0  0  0  0  0  0  0  0  0
   52.2895    7.4431    6.5178 H   0  0  0  0  0  0  0  0  0  0  0  0
   56.6616    1.7984   11.6711 H   0  0  0  0  0  0  0  0  0  0  0  0
   57.0388    2.7868   13.0833 H   0  0  0  0  0  0  0  0  0  0  0  0
   55.3599    2.2769   12.7603 H   0  0  0  0  0  0  0  0  0  0  0  0
   55.8022    6.3311   10.5871 H   0  0  0  0  0  0  0  0  0  0  0  0
   54.5933    6.8375   11.7595 H   0  0  0  0  0  0  0  0  0  0  0  0
   56.0185    6.4278   13.6742 H   0  0  0  0  0  0  0  0  0  0  0  0
   57.3648    5.9302   12.6382 H   0  0  0  0  0  0  0  0  0  0  0  0
   56.8038    4.8755   13.9484 H   0  0  0  0  0  0  0  0  0  0  0  0
  2  1  2  3
  3  5  1  0
  4  2  1  0
  5  9  1  0
  6  1  1  0
  7  1  1  0
  8  3  1  0
  9  4  1  0
 10  5  1  0
 12 11  1  0
 13 11  1  0
 14 12  1  0
 15 13  1  0
 16 14  1  0
 17 15  2  0
 18 16  2  0
 13 19  1  0
 14 20  1  0
 11 21  1  0
 12 22  1  0
 23 16  1  0
 24 15  1  0
 26 25  2  3
 27 29  1  0
 28 26  1  0
 29 33  1  0
 30 25  1  0
 31 25  1  0
 32 27  1  0
 33 28  1  0
 34 29  1  0
  2 35  1  0
  3 36  1  0
  4 37  1  0
  4 38  1  0
  5 39  1  1
  6 40  1  0
  6 41  1  0
  6 42  1  0
  7 43  1  0
  7 44  1  0
  7 45  1  0
  8 46  1  0
  8 47  1  0
  8 48  1  0
  9 49  1  0
  9 50  1  0
 10 51  1  0
 10 52  1  0
 10 53  1  0
 11 54  1  6
 12 55  1  6
 13 56  1  1
 14 57  1  1
 19 58  1  0
 20 59  1  0
 21 60  1  0
 22 61  1  0
 23 62  1  0
 24 63  1  0
 26 64  1  0
 27 65  1  0
 28 66  1  0
 28 67  1  0
 29 68  1  1
 30 69  1  0
 30 70  1  0
 30 71  1  0
 31 72  1  0
 31 73  1  0
 31 74  1  0
 32 75  1  0
 32 76  1  0
 32 77  1  0
 33 78  1  0
 33 79  1  0
 34 80  1  0
 34 81  1  0
 34 82  1  0
M  END
> <Uni-Dock RESULT> 
ENERGY=   -5.336  LOWER_BOUND=   12.153  UPPER_BOUND=   13.425
INTER + INTRA:          -5.336
INTER:                  -5.336
INTRA:                   0.000
UNBOUND:                 0.000

$$$$

     RDKit          3D

 82 79  0  0  0  0  0  0  0  0999 V2000
   49.1875    5.7450   22.1336 C   0  0  0  0  0  0  0  0  0  0  0  0
   49.8008    5.5127   20.9564 C   0  0  0  0  0  0  0  0  0  0  0  0
   47.8822    5.6690   16.4095 N   0  0  0  0  0  0  0  0  0  0  0  0
   49.3088    4.6598   19.8180 C   0  0  0  0  0  0  0  0  0  0  0  0
   48.3375    4.7137   17.4360 C   0  0  1  0  0  0  0  0  0  0  0  0
   49.8390    6.6089   23.1819 C   0  0  0  0  0  0  0  0  0  0  0  0
   47.8352    5.2146   22.5232 C   0  0  0  0  0  0  0  0  0  0  0  0
   47.8736    5.1006   15.0667 C   0  0  0  0  0  0  0  0  0  0  0  0
   48.6985    5.5181   18.7052 C   0  0  0  0  0  0  0  0  0  0  0  0
   47.2530    3.6696   17.7201 C   0  0  0  0  0  0  0  0  0  0  0  0
   47.3773    5.7577   18.6388 C   0  0  1  0  0  0  0  0  0  0  0  0
   48.3989    6.3056   19.6677 C   0  0  2  0  0  0  0  0  0  0  0  0
   47.8702    4.5909   17.7682 C   0  0  2  0  0  0  0  0  0  0  0  0
   48.9654    5.2317   20.6109 C   0  0  1  0  0  0  0  0  0  0  0  0
   49.1244    5.0072   17.0126 C   0  0  0  0  0  0  0  0  0  0  0  0
   49.9424    5.8670   21.6010 C   0  0  0  0  0  0  0  0  0  0  0  0
   50.2618    4.9913   17.4536 O   0  0  0  0  0  0  0  0  0  0  0  0
   50.9438    6.5118   21.3435 O   0  0  0  0  0  0  0  0  0  0  0  0
   46.8447    4.1727   16.8581 O   0  0  0  0  0  0  0  0  0  0  0  0
   47.8861    4.5345   21.2530 O   0  0  0  0  0  0  0  0  0  0  0  0
   46.1790    5.3822   19.3577 O   0  0  0  0  0  0  0  0  0  0  0  0
   47.6984    7.2957   20.4525 O   0  0  0  0  0  0  0  0  0  0  0  0
   49.5950    5.6086   22.8857 O   0  0  0  0  0  0  0  0  0  0  0  0
   48.8645    5.4828   15.7760 O   0  0  0  0  0  0  0  0  0  0  0  0
   48.0361    4.8167   16.5516 C   0  0  0  0  0  0  0  0  0  0  0  0
   47.7666    4.1453   17.6882 C   0  0  0  0  0  0  0  0  0  0  0  0
   49.9168    5.5379   21.2729 N   0  0  0  0  0  0  0  0  0  0  0  0
   48.5568    4.1557   18.9704 C   0  0  0  0  0  0  0  0  0  0  0  0
   48.5761    4.9549   21.4062 C   0  0  2  0  0  0  0  0  0  0  0  0
   49.1862    5.7674   16.3638 C   0  0  0  0  0  0  0  0  0  0  0  0
   47.1552    4.6615   15.3398 C   0  0  0  0  0  0  0  0  0  0  0  0
   50.7856    5.2487   22.4039 C   0  0  0  0  0  0  0  0  0  0  0  0
   47.8605    5.0033   20.0405 C   0  0  0  0  0  0  0  0  0  0  0  0
   47.7340    5.7008   22.4470 C   0  0  0  0  0  0  0  0  0  0  0  0
   50.7735    5.9718   20.7791 H   0  0  0  0  0  0  0  0  0  0  0  0
   48.4994    6.4814   16.4073 H   0  0  0  0  0  0  0  0  0  0  0  0
   48.5941    3.9127   20.1727 H   0  0  0  0  0  0  0  0  0  0  0  0
   50.1633    4.0954   19.4242 H   0  0  0  0  0  0  0  0  0  0  0  0
   49.2466    4.2069   17.0875 H   0  0  0  0  0  0  0  0  0  0  0  0
   49.9804    6.0396   24.1065 H   0  0  0  0  0  0  0  0  0  0  0  0
   50.8204    6.9779   22.8658 H   0  0  0  0  0  0  0  0  0  0  0  0
   49.2116    7.4793   23.4003 H   0  0  0  0  0  0  0  0  0  0  0  0
   47.3344    4.6687   21.7208 H   0  0  0  0  0  0  0  0  0  0  0  0
   47.1752    6.0419   22.8051 H   0  0  0  0  0  0  0  0  0  0  0  0
   47.9277    4.5408   23.3807 H   0  0  0  0  0  0  0  0  0  0  0  0
   48.8599    4.7192   14.7838 H   0  0  0  0  0  0  0  0  0  0  0  0
   47.1339    4.3021   14.9638 H   0  0  0  0  0  0  0  0  0  0  0  0
   47.6012    5.8811   14.3488 H   0  0  0  0  0  0  0  0  0  0  0  0
   49.4185    6.3040   18.4373 H   0  0  0  0  0  0  0  0  0  0  0  0
   47.8058    6.0310   19.0883 H   0  0  0  0  0  0  0  0  0  0  0  0
   46.9877    3.1033   16.8219 H   0  0  0  0  0  0  0  0  0  0  0  0
   47.5922    2.9344   18.4559 H   0  0  0  0  0  0  0  0  0  0  0  0
   46.3403    4.1375   18.1057 H   0  0  0  0  0  0  0  0  0  0  0  0
   47.0588    6.5849   17.9922 H   0  0  0  0  0  0  0  0  0  0  0  0
   49.2151    6.8276   19.1575 H   0  0  0  0  0  0  0  0  0  0  0  0
   48.1000    3.7066   18.3696 H   0  0  0  0  0  0  0  0  0  0  0  0
   49.5355    4.4770   20.0610 H   0  0  0  0  0  0  0  0  0  0  0  0
   46.7437    4.8893   16.2036 H   0  0  0  0  0  0  0  0  0  0  0  0
   48.0377    4.6673   22.2148 H   0  0  0  0  0  0  0  0  0  0  0  0
   46.4389    4.6817   19.9950 H   0  0  0  0  0  0  0  0  0  0  0  0
   46.7846    6.9526   20.5548 H   0  0  0  0  0  0  0  0  0  0  0  0
   50.2782    6.0848   23.4073 H   0  0  0  0  0  0  0  0  0  0  0  0
   49.7460    5.6943   15.3995 H   0  0  0  0  0  0  0  0  0  0  0  0
   46.8923    3.4950   17.7119 H   0  0  0  0  0  0  0  0  0  0  0  0
   49.8464    6.5466   21.1413 H   0  0  0  0  0  0  0  0  0  0  0  0
   48.6443    3.1196   19.3207 H   0  0  0  0  0  0  0  0  0  0  0  0
   49.5814    4.5008   18.8038 H   0  0  0  0  0  0  0  0  0  0  0  0
   48.6575    3.9024   21.7063 H   0  0  0  0  0  0  0  0  0  0  0  0
   48.8239    6.7221   15.9678 H   0  0  0  0  0  0  0  0  0  0  0  0
   49.9058    5.3507   15.6521 H   0  0  0  0  0  0  0  0  0  0  0  0
   49.7188    5.9927   17.2905 H   0  0  0  0  0  0  0  0  0  0  0  0
   46.7157    5.6258   15.0645 H   0  0  0  0  0  0  0  0  0  0  0  0
   46.3335    3.9577   15.5098 H   0  0  0  0  0  0  0  0  0  0  0  0
   47.7405    4.2901   14.4921 H   0  0  0  0  0  0  0  0  0  0  0  0
   51.7882    5.6358   22.1953 H   0  0  0  0  0  0  0  0  0  0  0  0
   50.4358    5.7229   23.3254 H   0  0  0  0  0  0  0  0  0  0  0  0
   50.8807    4.1703   22.5675 H   0  0  0  0  0  0  0  0  0  0  0  0
   47.7835    6.0429   19.6941 H   0  0  0  0  0  0  0  0  0  0  0  0
   46.8309    4.6423   20.1664 H   0  0  0  0  0  0  0  0  0  0  0  0
   46.7251    5.2771   22.5012 H   0  0  0  0  0  0  0  0  0  0  0  0
   47.6373    6.7636   22.1979 H   0  0  0  0  0  0  0  0  0  0  0  0
   48.1683    5.6246   23.4488 H   0  0  0  0  0  0  0  0  0  0  0  0
  2  1  2  3
  3  5  1  0
  4  2  1  0
  5  9  1  0
  6  1  1  0
  7  1  1  0
  8  3  1  0
  9  4  1  0
 10  5  1  0
 12 11  1  0
 13 11  1  0
 14 12  1  0
 15 13  1  0
 16 14  1  0
 17 15  2  0
 18 16  2  0
 13 19  1  0
 14 20  1  0
 11 21  1  0
 12 22  1  0
 23 16  1  0
 24 15  1  0
 26 25  2  3
 27 29  1  0
 28 26  1  0
 29 33  1  0
 30 25  1  0
 31 25  1  0
 32 27  1  0
 33 28  1  0
 34 29  1  0
  2 35  1  0
  3 36  1  0
  4 37  1  0
  4 38  1  0
  5 39  1  1
  6 40  1  0
  6 41  1  0
  6 42  1  0
  7 43  1  0
  7 44  1  0
  7 45  1  0
  8 46  1  0
  8 47  1  0
  8 48  1  0
  9 49  1  0
  9 50  1  0
 10 51  1  0
 10 52  1  0
 10 53  1  0
 11 54  1  6
 12 55  1  6
 13 56  1  1
 14 57  1  1
 19 58  1  0
 20 59  1  0
 21 60  1  0
 22 61  1  0
 23 62  1  0
 24 63  1  0
 26 64  1  0
 27 65  1  0
 28 66  1  0
 28 67  1  0
 29 68  1  1
 30 69  1  0
 30 70  1  0
 30 71  1  0
 31 72  1  0
 31 73  1  0
 31 74  1  0
 32 75  1  0
 32 76  1  0
 32 77  1  0
 33 78  1  0
 33 79  1  0
 34 80  1  0
 34 81  1  0
 34 82  1  0
M  END
> <Uni-Dock RESULT> 
ENERGY=   -5.334  LOWER_BOUND=    4.272  UPPER_BOUND=    5.572
INTER + INTRA:          -5.334
INTER:                  -5.334
INTRA:                   0.000
UNBOUND:                 0.000

$$$$

     RDKit          3D

 82 79  0  0  0  0  0  0  0  0999 V2000
   38.9978   11.3226   10.9992 C   0  0  0  0  0  0  0  0  0  0  0  0
   39.9838   10.4053   10.9521 C   0  0  0  0  0  0  0  0  0  0  0  0
   44.7796   10.9953   11.9684 N   0  0  0  0  0  0  0  0  0  0  0  0
   41.3459   10.5537   10.3291 C   0  0  0  0  0  0  0  0  0  0  0  0
   43.8540   10.8300   10.8327 C   0  0  1  0  0  0  0  0  0  0  0  0
   37.6752   10.9963   11.6426 C   0  0  0  0  0  0  0  0  0  0  0  0
   39.0939   12.7236   10.4607 C   0  0  0  0  0  0  0  0  0  0  0  0
   46.1521   10.6260   11.6426 C   0  0  0  0  0  0  0  0  0  0  0  0
   42.4127   10.8430   11.3901 C   0  0  0  0  0  0  0  0  0  0  0  0
   44.0677   11.9382    9.7969 C   0  0  0  0  0  0  0  0  0  0  0  0
   42.7947   12.0973   11.6874 C   0  0  1  0  0  0  0  0  0  0  0  0
   41.4452   11.4062   12.0091 C   0  0  2  0  0  0  0  0  0  0  0  0
   43.6898   11.3693   10.6718 C   0  0  2  0  0  0  0  0  0  0  0  0
   40.5890   11.1095   10.7671 C   0  0  1  0  0  0  0  0  0  0  0  0
   43.9867    9.9602   11.1653 C   0  0  0  0  0  0  0  0  0  0  0  0
   39.2728   10.4515   11.1833 C   0  0  0  0  0  0  0  0  0  0  0  0
   43.2612    8.9888   11.0302 O   0  0  0  0  0  0  0  0  0  0  0  0
   39.1277    9.4257   11.8248 O   0  0  0  0  0  0  0  0  0  0  0  0
   44.9050   12.0985   10.4572 O   0  0  0  0  0  0  0  0  0  0  0  0
   40.4013   12.3157   10.0102 O   0  0  0  0  0  0  0  0  0  0  0  0
   42.5100   13.4430   11.2382 O   0  0  0  0  0  0  0  0  0  0  0  0
   40.7195   12.3079   12.8735 O   0  0  0  0  0  0  0  0  0  0  0  0
   38.1994   11.1371   10.7190 O   0  0  0  0  0  0  0  0  0  0  0  0
   45.1424    9.8741   11.8581 O   0  0  0  0  0  0  0  0  0  0  0  0
   44.7543   10.8765   11.0991 C   0  0  0  0  0  0  0  0  0  0  0  0
   43.8727   11.4415   10.2511 C   0  0  0  0  0  0  0  0  0  0  0  0
   39.6484   10.3816   10.9174 N   0  0  0  0  0  0  0  0  0  0  0  0
   42.4426   11.0362   10.0087 C   0  0  0  0  0  0  0  0  0  0  0  0
   39.9930   11.7000   10.3712 C   0  0  2  0  0  0  0  0  0  0  0  0
   44.4481    9.7306   12.0239 C   0  0  0  0  0  0  0  0  0  0  0  0
   46.1685   11.3866   11.1902 C   0  0  0  0  0  0  0  0  0  0  0  0
   38.3927    9.8555   10.4035 C   0  0  0  0  0  0  0  0  0  0  0  0
   41.4712   12.0110   10.6832 C   0  0  0  0  0  0  0  0  0  0  0  0
   39.1073   12.8055   10.9562 C   0  0  0  0  0  0  0  0  0  0  0  0
   39.8036    9.4271   11.3979 H   0  0  0  0  0  0  0  0  0  0  0  0
   44.4685   10.4113   12.7449 H   0  0  0  0  0  0  0  0  0  0  0  0
   41.3390   11.3296    9.5593 H   0  0  0  0  0  0  0  0  0  0  0  0
   41.5843    9.6170    9.8098 H   0  0  0  0  0  0  0  0  0  0  0  0
   44.0244    9.8540   10.3602 H   0  0  0  0  0  0  0  0  0  0  0  0
   36.8634   11.1090   10.9164 H   0  0  0  0  0  0  0  0  0  0  0  0
   37.6397    9.9702   12.0235 H   0  0  0  0  0  0  0  0  0  0  0  0
   37.4861   11.6699   12.4849 H   0  0  0  0  0  0  0  0  0  0  0  0
   40.0864   12.9767   10.0819 H   0  0  0  0  0  0  0  0  0  0  0  0
   38.8614   13.4455   11.2507 H   0  0  0  0  0  0  0  0  0  0  0  0
   38.3775   12.8634    9.6451 H   0  0  0  0  0  0  0  0  0  0  0  0
   46.2170    9.5954   11.2792 H   0  0  0  0  0  0  0  0  0  0  0  0
   46.5936   11.2990   10.9027 H   0  0  0  0  0  0  0  0  0  0  0  0
   46.7667   10.6987   12.5457 H   0  0  0  0  0  0  0  0  0  0  0  0
   42.3293   10.0865   12.1829 H   0  0  0  0  0  0  0  0  0  0  0  0
   42.2040   11.8129   11.8620 H   0  0  0  0  0  0  0  0  0  0  0  0
   45.0898   11.9384    9.4056 H   0  0  0  0  0  0  0  0  0  0  0  0
   43.4097   11.8067    8.9327 H   0  0  0  0  0  0  0  0  0  0  0  0
   43.8701   12.9274   10.2248 H   0  0  0  0  0  0  0  0  0  0  0  0
   43.3464   12.2346   12.6258 H   0  0  0  0  0  0  0  0  0  0  0  0
   41.6114   10.4870   12.5807 H   0  0  0  0  0  0  0  0  0  0  0  0
   43.2152   11.3040    9.6884 H   0  0  0  0  0  0  0  0  0  0  0  0
   41.0866   10.4008   10.0985 H   0  0  0  0  0  0  0  0  0  0  0  0
   45.4243   12.0233   11.2799 H   0  0  0  0  0  0  0  0  0  0  0  0
   39.4271   12.4372    9.9680 H   0  0  0  0  0  0  0  0  0  0  0  0
   41.9606   13.3609   10.4283 H   0  0  0  0  0  0  0  0  0  0  0  0
   40.9339   13.2102   12.5527 H   0  0  0  0  0  0  0  0  0  0  0  0
   37.4348   10.6302   11.0711 H   0  0  0  0  0  0  0  0  0  0  0  0
   45.2193    8.9255   12.0983 H   0  0  0  0  0  0  0  0  0  0  0  0
   44.2052   12.2805    9.6400 H   0  0  0  0  0  0  0  0  0  0  0  0
   39.6131   10.4249   11.9356 H   0  0  0  0  0  0  0  0  0  0  0  0
   42.2712   11.0366    8.9249 H   0  0  0  0  0  0  0  0  0  0  0  0
   42.2582   10.0098   10.3386 H   0  0  0  0  0  0  0  0  0  0  0  0
   39.8737   11.6921    9.2803 H   0  0  0  0  0  0  0  0  0  0  0  0
   44.7523    9.9808   13.0458 H   0  0  0  0  0  0  0  0  0  0  0  0
   44.9978    8.8376   11.7102 H   0  0  0  0  0  0  0  0  0  0  0  0
   43.3864    9.4774   12.0644 H   0  0  0  0  0  0  0  0  0  0  0  0
   46.3780   11.7444   12.2035 H   0  0  0  0  0  0  0  0  0  0  0  0
   46.3577   12.2148   10.4992 H   0  0  0  0  0  0  0  0  0  0  0  0
   46.8754   10.5856   10.9499 H   0  0  0  0  0  0  0  0  0  0  0  0
   38.2466    8.8390   10.7828 H   0  0  0  0  0  0  0  0  0  0  0  0
   37.5333   10.4519   10.7233 H   0  0  0  0  0  0  0  0  0  0  0  0
   38.4034    9.7965    9.3103 H   0  0  0  0  0  0  0  0  0  0  0  0
   41.6354   12.0017   11.7693 H   0  0  0  0  0  0  0  0  0  0  0  0
   41.6982   13.0310   10.3449 H   0  0  0  0  0  0  0  0  0  0  0  0
   39.4076   13.7851   10.5680 H   0  0  0  0  0  0  0  0  0  0  0  0
   39.1808   12.8423   12.0490 H   0  0  0  0  0  0  0  0  0  0  0  0
   38.0550   12.6640   10.6908 H   0  0  0  0  0  0  0  0  0  0  0  0
  2  1  2  3
  3  5  1  0
  4  2  1  0
  5  9  1  0
  6  1  1  0
  7  1  1  0
  8  3  1  0
  9  4  1  0
 10  5  1  0
 12 11  1  0
 13 11  1  0
 14 12  1  0
 15 13  1  0
 16 14  1  0
 17 15  2  0
 18 16  2  0
 13 19  1  0
 14 20  1  0
 11 21  1  0
 12 22  1  0
 23 16  1  0
 24 15  1  0
 26 25  2  3
 27 29  1  0
 28 26  1  0
 29 33  1  0
 30 25  1  0
 31 25  1  0
 32 27  1  0
 33 28  1  0
 34 29  1  0
  2 35  1  0
  3 36  1  0
  4 37  1  0
  4 38  1  0
  5 39  1  1
  6 40  1  0
  6 41  1  0
  6 42  1  0
  7 43  1  0
  7 44  1  0
  7 45  1  0
  8 46  1  0
  8 47  1  0
  8 48  1  0
  9 49  1  0
  9 50  1  0
 10 51  1  0
 10 52  1  0
 10 53  1  0
 11 54  1  6
 12 55  1  6
 13 56  1  1
 14 57  1  1
 19 58  1  0
 20 59  1  0
 21 60  1  0
 22 61  1  0
 23 62  1  0
 24 63  1  0
 26 64  1  0
 27 65  1  0
 28 66  1  0
 28 67  1  0
 29 68  1  1
 30 69  1  0
 30 70  1  0
 30 71  1  0
 31 72  1  0
 31 73  1  0
 31 74  1  0
 32 75  1  0
 32 76  1  0
 32 77  1  0
 33 78  1  0
 33 79  1  0
 34 80  1  0
 34 81  1  0
 34 82  1  0
M  END
> <Uni-Dock RESULT> 
ENERGY=   -5.098  LOWER_BOUND=    9.538  UPPER_BOUND=   11.887
INTER + INTRA:          -5.098
INTER:                  -5.098
INTRA:                   0.000
UNBOUND:                 0.000

$$$$

     RDKit          3D

 82 79  0  0  0  0  0  0  0  0999 V2000
   47.9898    9.3834   22.3644 C   0  0  0  0  0  0  0  0  0  0  0  0
   48.1334    8.0458   22.4421 C   0  0  0  0  0  0  0  0  0  0  0  0
   49.1825    4.8535   18.8242 N   0  0  0  0  0  0  0  0  0  0  0  0
   47.5373    7.0047   21.5330 C   0  0  0  0  0  0  0  0  0  0  0  0
   48.0641    5.3113   19.6688 C   0  0  1  0  0  0  0  0  0  0  0  0
   48.6380   10.2860   23.3817 C   0  0  0  0  0  0  0  0  0  0  0  0
   47.2198   10.1095   21.2958 C   0  0  0  0  0  0  0  0  0  0  0  0
   48.9691    3.5219   18.2697 C   0  0  0  0  0  0  0  0  0  0  0  0
   48.5652    6.5051   20.5125 C   0  0  0  0  0  0  0  0  0  0  0  0
   46.8591    5.6978   18.8054 C   0  0  0  0  0  0  0  0  0  0  0  0
   48.6524    7.0319   19.2786 C   0  0  1  0  0  0  0  0  0  0  0  0
   49.0464    7.6848   20.6281 C   0  0  2  0  0  0  0  0  0  0  0  0
   47.8071    5.7522   19.3802 C   0  0  2  0  0  0  0  0  0  0  0  0
   47.8483    7.9931   21.5408 C   0  0  1  0  0  0  0  0  0  0  0  0
   48.5465    4.7120   20.2100 C   0  0  0  0  0  0  0  0  0  0  0  0
   48.3306    8.6535   22.8329 C   0  0  0  0  0  0  0  0  0  0  0  0
   48.5590    4.6480   21.4282 O   0  0  0  0  0  0  0  0  0  0  0  0
   49.1353    8.2127   23.6348 O   0  0  0  0  0  0  0  0  0  0  0  0
   47.5077    5.2409   18.0750 O   0  0  0  0  0  0  0  0  0  0  0  0
   46.8882    8.7873   20.8263 O   0  0  0  0  0  0  0  0  0  0  0  0
   47.9680    8.0291   18.4844 O   0  0  0  0  0  0  0  0  0  0  0  0
   49.7182    8.9218   20.3034 O   0  0  0  0  0  0  0  0  0  0  0  0
   47.7209    9.8455   23.0459 O   0  0  0  0  0  0  0  0  0  0  0  0
   49.2797    3.8607   19.4613 O   0  0  0  0  0  0  0  0  0  0  0  0
   48.3467    4.6822   19.0300 C   0  0  0  0  0  0  0  0  0  0  0  0
   47.3862    5.5996   19.2566 C   0  0  0  0  0  0  0  0  0  0  0  0
   48.0928    8.2849   22.6776 N   0  0  0  0  0  0  0  0  0  0  0  0
   47.1728    6.4170   20.5036 C   0  0  0  0  0  0  0  0  0  0  0  0
   47.3375    8.7670   21.5147 C   0  0  2  0  0  0  0  0  0  0  0  0
   49.4459    4.3287   19.9936 C   0  0  0  0  0  0  0  0  0  0  0  0
   48.3924    3.9222   17.7305 C   0  0  0  0  0  0  0  0  0  0  0  0
   47.6386    8.8560   23.9366 C   0  0  0  0  0  0  0  0  0  0  0  0
   47.6372    7.8633   20.3012 C   0  0  0  0  0  0  0  0  0  0  0  0
   47.6939   10.2168   21.1682 C   0  0  0  0  0  0  0  0  0  0  0  0
   48.7361    7.6353   23.2523 H   0  0  0  0  0  0  0  0  0  0  0  0
   50.0383    4.8338   19.3793 H   0  0  0  0  0  0  0  0  0  0  0  0
   46.6448    7.3899   21.0333 H   0  0  0  0  0  0  0  0  0  0  0  0
   47.1960    6.1678   22.1551 H   0  0  0  0  0  0  0  0  0  0  0  0
   47.7736    4.5086   20.3588 H   0  0  0  0  0  0  0  0  0  0  0  0
   47.8780   10.8842   23.8950 H   0  0  0  0  0  0  0  0  0  0  0  0
   49.1897    9.7254   24.1436 H   0  0  0  0  0  0  0  0  0  0  0  0
   49.3444   10.9643   22.8920 H   0  0  0  0  0  0  0  0  0  0  0  0
   46.8343    9.4514   20.5143 H   0  0  0  0  0  0  0  0  0  0  0  0
   47.8651   10.8445   20.8030 H   0  0  0  0  0  0  0  0  0  0  0  0
   46.3702   10.6392   21.7379 H   0  0  0  0  0  0  0  0  0  0  0  0
   48.7920    2.7811   19.0560 H   0  0  0  0  0  0  0  0  0  0  0  0
   48.1380    3.5014   17.5596 H   0  0  0  0  0  0  0  0  0  0  0  0
   49.8648    3.2147   17.7201 H   0  0  0  0  0  0  0  0  0  0  0  0
   49.4740    6.2047   21.0524 H   0  0  0  0  0  0  0  0  0  0  0  0
   48.8550    7.3335   19.8516 H   0  0  0  0  0  0  0  0  0  0  0  0
   46.5062    4.8575   18.1994 H   0  0  0  0  0  0  0  0  0  0  0  0
   46.0105    6.0069   19.4230 H   0  0  0  0  0  0  0  0  0  0  0  0
   47.1027    6.5236   18.1278 H   0  0  0  0  0  0  0  0  0  0  0  0
   49.5697    6.8182   18.7158 H   0  0  0  0  0  0  0  0  0  0  0  0
   49.7736    7.0609   21.1584 H   0  0  0  0  0  0  0  0  0  0  0  0
   46.8354    5.9452   19.8441 H   0  0  0  0  0  0  0  0  0  0  0  0
   47.3286    7.0783   21.8410 H   0  0  0  0  0  0  0  0  0  0  0  0
   48.3469    4.9044   17.7082 H   0  0  0  0  0  0  0  0  0  0  0  0
   46.7950    9.6082   21.3584 H   0  0  0  0  0  0  0  0  0  0  0  0
   47.1678    8.2927   18.9889 H   0  0  0  0  0  0  0  0  0  0  0  0
   49.2527    9.2754   19.5152 H   0  0  0  0  0  0  0  0  0  0  0  0
   48.1313   10.1664   23.8790 H   0  0  0  0  0  0  0  0  0  0  0  0
   49.6830    3.2428   20.1087 H   0  0  0  0  0  0  0  0  0  0  0  0
   46.6498    5.7839   18.4746 H   0  0  0  0  0  0  0  0  0  0  0  0
   49.0865    8.4758   22.5510 H   0  0  0  0  0  0  0  0  0  0  0  0
   46.1005    6.4037   20.7358 H   0  0  0  0  0  0  0  0  0  0  0  0
   47.6696    5.9640   21.3664 H   0  0  0  0  0  0  0  0  0  0  0  0
   46.2612    8.7075   21.7210 H   0  0  0  0  0  0  0  0  0  0  0  0
   50.4181    4.3873   19.4927 H   0  0  0  0  0  0  0  0  0  0  0  0
   49.3093    3.3067   20.3609 H   0  0  0  0  0  0  0  0  0  0  0  0
   49.4963    4.9947   20.8579 H   0  0  0  0  0  0  0  0  0  0  0  0
   49.3345    4.1196   17.2087 H   0  0  0  0  0  0  0  0  0  0  0  0
   47.5746    4.1994   17.0570 H   0  0  0  0  0  0  0  0  0  0  0  0
   48.3170    2.8461   17.9192 H   0  0  0  0  0  0  0  0  0  0  0  0
   48.1836    8.3864   24.7619 H   0  0  0  0  0  0  0  0  0  0  0  0
   47.8229    9.9327   23.9921 H   0  0  0  0  0  0  0  0  0  0  0  0
   46.5730    8.6642   24.0994 H   0  0  0  0  0  0  0  0  0  0  0  0
   48.7131    7.8769   20.0800 H   0  0  0  0  0  0  0  0  0  0  0  0
   47.1346    8.2782   19.4171 H   0  0  0  0  0  0  0  0  0  0  0  0
   47.1513   10.5433   20.2741 H   0  0  0  0  0  0  0  0  0  0  0  0
   48.7654   10.3298   20.9689 H   0  0  0  0  0  0  0  0  0  0  0  0
   47.4240   10.9040   21.9761 H   0  0  0  0  0  0  0  0  0  0  0  0
  2  1  2  3
  3  5  1  0
  4  2  1  0
  5  9  1  0
  6  1  1  0
  7  1  1  0
  8  3  1  0
  9  4  1  0
 10  5  1  0
 12 11  1  0
 13 11  1  0
 14 12  1  0
 15 13  1  0
 16 14  1  0
 17 15  2  0
 18 16  2  0
 13 19  1  0
 14 20  1  0
 11 21  1  0
 12 22  1  0
 23 16  1  0
 24 15  1  0
 26 25  2  3
 27 29  1  0
 28 26  1  0
 29 33  1  0
 30 25  1  0
 31 25  1  0
 32 27  1  0
 33 28  1  0
 34 29  1  0
  2 35  1  0
  3 36  1  0
  4 37  1  0
  4 38  1  0
  5 39  1  1
  6 40  1  0
  6 41  1  0
  6 42  1  0
  7 43  1  0
  7 44  1  0
  7 45  1  0
  8 46  1  0
  8 47  1  0
  8 48  1  0
  9 49  1  0
  9 50  1  0
 10 51  1  0
 10 52  1  0
 10 53  1  0
 11 54  1  6
 12 55  1  6
 13 56  1  1
 14 57  1  1
 19 58  1  0
 20 59  1  0
 21 60  1  0
 22 61  1  0
 23 62  1  0
 24 63  1  0
 26 64  1  0
 27 65  1  0
 28 66  1  0
 28 67  1  0
 29 68  1  1
 30 69  1  0
 30 70  1  0
 30 71  1  0
 31 72  1  0
 31 73  1  0
 31 74  1  0
 32 75  1  0
 32 76  1  0
 32 77  1  0
 33 78  1  0
 33 79  1  0
 34 80  1  0
 34 81  1  0
 34 82  1  0
M  END
> <Uni-Dock RESULT> 
ENERGY=   -5.033  LOWER_BOUND=    2.341  UPPER_BOUND=    5.029
INTER + INTRA:          -5.033
INTER:                  -5.033
INTRA:                   0.000
UNBOUND:                 0.000

$$$$

     RDKit          3D

 82 79  0  0  0  0  0  0  0  0999 V2000
   47.6575   11.5003   19.1858 C   0  0  0  0  0  0  0  0  0  0  0  0
   47.2477   10.5686   20.0689 C   0  0  0  0  0  0  0  0  0  0  0  0
   49.0149    6.0114   20.7684 N   0  0  0  0  0  0  0  0  0  0  0  0
   46.9801    9.1108   19.8066 C   0  0  0  0  0  0  0  0  0  0  0  0
   47.8637    6.7241   20.1850 C   0  0  1  0  0  0  0  0  0  0  0  0
   47.8512   12.9318   19.6139 C   0  0  0  0  0  0  0  0  0  0  0  0
   47.9763   11.2395   17.7394 C   0  0  0  0  0  0  0  0  0  0  0  0
   48.7171    4.6227   21.0984 C   0  0  0  0  0  0  0  0  0  0  0  0
   48.1537    8.2398   20.2663 C   0  0  0  0  0  0  0  0  0  0  0  0
   47.6253    6.2726   18.7406 C   0  0  0  0  0  0  0  0  0  0  0  0
   49.1255    7.8561   19.4201 C   0  0  1  0  0  0  0  0  0  0  0  0
   48.8512    9.2740   19.9828 C   0  0  2  0  0  0  0  0  0  0  0  0
   47.9997    6.8297   19.6246 C   0  0  2  0  0  0  0  0  0  0  0  0
   47.5493    9.9059   19.4638 C   0  0  1  0  0  0  0  0  0  0  0  0
   47.6885    6.6967   21.1087 C   0  0  0  0  0  0  0  0  0  0  0  0
   47.3758   11.3064   20.0527 C   0  0  0  0  0  0  0  0  0  0  0  0
   46.9611    7.4331   21.7543 O   0  0  0  0  0  0  0  0  0  0  0  0
   47.3387   11.6154   21.2308 O   0  0  0  0  0  0  0  0  0  0  0  0
   48.3669    5.5611   19.0673 O   0  0  0  0  0  0  0  0  0  0  0  0
   47.5456    9.8941   18.0274 O   0  0  0  0  0  0  0  0  0  0  0  0
   49.4410    7.9882   18.0142 O   0  0  0  0  0  0  0  0  0  0  0  0
   49.9660   10.0982   19.5767 O   0  0  0  0  0  0  0  0  0  0  0  0
   47.2237   12.2433   19.0847 O   0  0  0  0  0  0  0  0  0  0  0  0
   48.3643    5.6906   21.7036 O   0  0  0  0  0  0  0  0  0  0  0  0
   48.2238    5.8854   20.4099 C   0  0  0  0  0  0  0  0  0  0  0  0
   47.7113    6.5706   19.3690 C   0  0  0  0  0  0  0  0  0  0  0  0
   47.1639   10.8930   20.0243 N   0  0  0  0  0  0  0  0  0  0  0  0
   47.1112    7.9519   19.3849 C   0  0  0  0  0  0  0  0  0  0  0  0
   47.4630   10.3908   18.6776 C   0  0  2  0  0  0  0  0  0  0  0  0
   48.3377    6.4096   21.8149 C   0  0  0  0  0  0  0  0  0  0  0  0
   48.7524    4.4873   20.2244 C   0  0  0  0  0  0  0  0  0  0  0  0
   46.2944   12.0599   20.0238 C   0  0  0  0  0  0  0  0  0  0  0  0
   48.0763    8.9795   18.7839 C   0  0  0  0  0  0  0  0  0  0  0  0
   48.4349   11.3116   17.9317 C   0  0  0  0  0  0  0  0  0  0  0  0
   47.0690   10.8744   21.0998 H   0  0  0  0  0  0  0  0  0  0  0  0
   49.3077    6.4859   21.6228 H   0  0  0  0  0  0  0  0  0  0  0  0
   46.7563    8.9405   18.7504 H   0  0  0  0  0  0  0  0  0  0  0  0
   46.0726    8.8293   20.3553 H   0  0  0  0  0  0  0  0  0  0  0  0
   46.9655    6.5197   20.7819 H   0  0  0  0  0  0  0  0  0  0  0  0
   47.2051   13.5927   19.0267 H   0  0  0  0  0  0  0  0  0  0  0  0
   47.6108   13.0860   20.6710 H   0  0  0  0  0  0  0  0  0  0  0  0
   48.8920   13.2360   19.4621 H   0  0  0  0  0  0  0  0  0  0  0  0
   47.9220   10.1837   17.4656 H   0  0  0  0  0  0  0  0  0  0  0  0
   48.9942   11.5746   17.5137 H   0  0  0  0  0  0  0  0  0  0  0  0
   47.2824   11.7893   17.0958 H   0  0  0  0  0  0  0  0  0  0  0  0
   47.8670    4.5443   21.7837 H   0  0  0  0  0  0  0  0  0  0  0  0
   48.5192    4.0222   20.2064 H   0  0  0  0  0  0  0  0  0  0  0  0
   49.5857    4.1780   21.5949 H   0  0  0  0  0  0  0  0  0  0  0  0
   48.3956    8.5021   21.3057 H   0  0  0  0  0  0  0  0  0  0  0  0
   49.0433    8.4819   19.6689 H   0  0  0  0  0  0  0  0  0  0  0  0
   47.4280    5.1979   18.6772 H   0  0  0  0  0  0  0  0  0  0  0  0
   46.7520    6.7697   18.3079 H   0  0  0  0  0  0  0  0  0  0  0  0
   48.4901    6.4949   18.1055 H   0  0  0  0  0  0  0  0  0  0  0  0
   50.0504    7.4765   19.8721 H   0  0  0  0  0  0  0  0  0  0  0  0
   48.8526    9.2593   21.0778 H   0  0  0  0  0  0  0  0  0  0  0  0
   47.0859    7.1218   19.0991 H   0  0  0  0  0  0  0  0  0  0  0  0
   46.6729    9.3315   19.7786 H   0  0  0  0  0  0  0  0  0  0  0  0
   49.0768    5.2031   19.6329 H   0  0  0  0  0  0  0  0  0  0  0  0
   47.4535   10.8375   17.7684 H   0  0  0  0  0  0  0  0  0  0  0  0
   48.6533    8.3860   17.5833 H   0  0  0  0  0  0  0  0  0  0  0  0
   50.2122    9.7850   18.6797 H   0  0  0  0  0  0  0  0  0  0  0  0
   47.1476   13.0829   19.5893 H   0  0  0  0  0  0  0  0  0  0  0  0
   48.0626    5.7052   22.6376 H   0  0  0  0  0  0  0  0  0  0  0  0
   47.6965    6.0923   18.3898 H   0  0  0  0  0  0  0  0  0  0  0  0
   48.0307   11.1091   20.5159 H   0  0  0  0  0  0  0  0  0  0  0  0
   46.1873    7.9248   18.7937 H   0  0  0  0  0  0  0  0  0  0  0  0
   46.8094    8.2432   20.3951 H   0  0  0  0  0  0  0  0  0  0  0  0
   46.5352   10.3116   18.0968 H   0  0  0  0  0  0  0  0  0  0  0  0
   49.3620    6.2826   22.1815 H   0  0  0  0  0  0  0  0  0  0  0  0
   47.6642    5.8572   22.4777 H   0  0  0  0  0  0  0  0  0  0  0  0
   48.1015    7.4724   21.9021 H   0  0  0  0  0  0  0  0  0  0  0  0
   49.8156    4.4465   20.4829 H   0  0  0  0  0  0  0  0  0  0  0  0
   48.6472    4.1359   19.1925 H   0  0  0  0  0  0  0  0  0  0  0  0
   48.2093    3.7891   20.8700 H   0  0  0  0  0  0  0  0  0  0  0  0
   46.0440   12.3221   21.0568 H   0  0  0  0  0  0  0  0  0  0  0  0
   46.7742   12.9323   19.5709 H   0  0  0  0  0  0  0  0  0  0  0  0
   45.3535   11.8552   19.5027 H   0  0  0  0  0  0  0  0  0  0  0  0
   48.9964    9.0145   19.3829 H   0  0  0  0  0  0  0  0  0  0  0  0
   48.3730    8.6450   17.7807 H   0  0  0  0  0  0  0  0  0  0  0  0
   48.6773   10.8981   16.9464 H   0  0  0  0  0  0  0  0  0  0  0  0
   49.3740   11.4346   18.4828 H   0  0  0  0  0  0  0  0  0  0  0  0
   48.0052   12.3045   17.7661 H   0  0  0  0  0  0  0  0  0  0  0  0
  2  1  2  3
  3  5  1  0
  4  2  1  0
  5  9  1  0
  6  1  1  0
  7  1  1  0
  8  3  1  0
  9  4  1  0
 10  5  1  0
 12 11  1  0
 13 11  1  0
 14 12  1  0
 15 13  1  0
 16 14  1  0
 17 15  2  0
 18 16  2  0
 13 19  1  0
 14 20  1  0
 11 21  1  0
 12 22  1  0
 23 16  1  0
 24 15  1  0
 26 25  2  3
 27 29  1  0
 28 26  1  0
 29 33  1  0
 30 25  1  0
 31 25  1  0
 32 27  1  0
 33 28  1  0
 34 29  1  0
  2 35  1  0
  3 36  1  0
  4 37  1  0
  4 38  1  0
  5 39  1  1
  6 40  1  0
  6 41  1  0
  6 42  1  0
  7 43  1  0
  7 44  1  0
  7 45  1  0
  8 46  1  0
  8 47  1  0
  8 48  1  0
  9 49  1  0
  9 50  1  0
 10 51  1  0
 10 52  1  0
 10 53  1  0
 11 54  1  6
 12 55  1  6
 13 56  1  1
 14 57  1  1
 19 58  1  0
 20 59  1  0
 21 60  1  0
 22 61  1  0
 23 62  1  0
 24 63  1  0
 26 64  1  0
 27 65  1  0
 28 66  1  0
 28 67  1  0
 29 68  1  1
 30 69  1  0
 30 70  1  0
 30 71  1  0
 31 72  1  0
 31 73  1  0
 31 74  1  0
 32 75  1  0
 32 76  1  0
 32 77  1  0
 33 78  1  0
 33 79  1  0
 34 80  1  0
 34 81  1  0
 34 82  1  0
M  END
> <Uni-Dock RESULT> 
ENERGY=   -4.936  LOWER_BOUND=    1.525  UPPER_BOUND=    5.335
INTER + INTRA:          -4.936
INTER:                  -4.936
INTRA:                   0.000
UNBOUND:                 0.000

$$$$
