
     RDKit          3D

 82 79  0  0  0  0  0  0  0  0999 V2000
   48.1436    5.9154   21.9057 C   0  0  0  0  0  0  0  0  0  0  0  0
   47.7766    5.2174   20.8139 C   0  0  0  0  0  0  0  0  0  0  0  0
   50.6463    3.4892   17.1256 N   0  0  0  0  0  0  0  0  0  0  0  0
   48.1909    5.4439   19.3849 C   0  0  0  0  0  0  0  0  0  0  0  0
   49.6021    4.4778   17.4597 C   0  0  1  0  0  0  0  0  0  0  0  0
   47.6371    5.5214   23.2690 C   0  0  0  0  0  0  0  0  0  0  0  0
   49.0808    7.0913   21.9111 C   0  0  0  0  0  0  0  0  0  0  0  0
   50.1523    2.1167   17.1306 C   0  0  0  0  0  0  0  0  0  0  0  0
   49.2759    4.4442   18.9672 C   0  0  0  0  0  0  0  0  0  0  0  0
   50.1154    5.8570   17.0229 C   0  0  0  0  0  0  0  0  0  0  0  0
   47.9249    5.5553   19.4148 C   0  0  1  0  0  0  0  0  0  0  0  0
   49.1959    5.4475   18.5442 C   0  0  2  0  0  0  0  0  0  0  0  0
   48.0806    5.2157   20.9093 C   0  0  2  0  0  0  0  0  0  0  0  0
   49.9584    4.1155   18.5574 C   0  0  1  0  0  0  0  0  0  0  0  0
   49.2214    5.9670   21.5939 C   0  0  0  0  0  0  0  0  0  0  0  0
   49.2874    3.0052   17.7572 C   0  0  0  0  0  0  0  0  0  0  0  0
   50.1641    5.4322   22.1645 O   0  0  0  0  0  0  0  0  0  0  0  0
   49.8807    2.2385   17.0101 O   0  0  0  0  0  0  0  0  0  0  0  0
   48.2655    3.7997   21.0574 O   0  0  0  0  0  0  0  0  0  0  0  0
   51.2464    4.3863   17.9418 O   0  0  0  0  0  0  0  0  0  0  0  0
   47.3949    6.8883   19.2692 O   0  0  0  0  0  0  0  0  0  0  0  0
   50.1029    6.5078   18.9436 O   0  0  0  0  0  0  0  0  0  0  0  0
   47.9681    2.8691   17.9549 O   0  0  0  0  0  0  0  0  0  0  0  0
   49.0809    7.3062   21.5997 O   0  0  0  0  0  0  0  0  0  0  0  0
   48.4116    6.2610   21.5809 C   0  0  0  0  0  0  0  0  0  0  0  0
   47.8640    5.6589   20.5073 C   0  0  0  0  0  0  0  0  0  0  0  0
   50.7855    3.4133   17.9159 N   0  0  0  0  0  0  0  0  0  0  0  0
   48.4755    4.5783   19.6559 C   0  0  0  0  0  0  0  0  0  0  0  0
   49.6162    4.1120   17.3692 C   0  0  2  0  0  0  0  0  0  0  0  0
   49.7985    5.9956   22.1005 C   0  0  0  0  0  0  0  0  0  0  0  0
   47.6423    7.2956   22.3602 C   0  0  0  0  0  0  0  0  0  0  0  0
   51.9047    4.2971   18.2031 C   0  0  0  0  0  0  0  0  0  0  0  0
   48.9655    5.1419   18.3193 C   0  0  0  0  0  0  0  0  0  0  0  0
   48.6082    3.0504   16.9177 C   0  0  0  0  0  0  0  0  0  0  0  0
   47.1041    4.3690   20.9461 H   0  0  0  0  0  0  0  0  0  0  0  0
   51.0117    3.6897   16.1919 H   0  0  0  0  0  0  0  0  0  0  0  0
   48.5289    6.4724   19.2318 H   0  0  0  0  0  0  0  0  0  0  0  0
   47.3054    5.3178   18.7488 H   0  0  0  0  0  0  0  0  0  0  0  0
   48.6953    4.2646   16.8771 H   0  0  0  0  0  0  0  0  0  0  0  0
   48.4785    5.3111   23.9404 H   0  0  0  0  0  0  0  0  0  0  0  0
   47.0057    4.6264   23.2357 H   0  0  0  0  0  0  0  0  0  0  0  0
   47.0390    6.3304   23.6994 H   0  0  0  0  0  0  0  0  0  0  0  0
   48.6136    7.9442   22.4120 H   0  0  0  0  0  0  0  0  0  0  0  0
   49.9952    6.8342   22.4579 H   0  0  0  0  0  0  0  0  0  0  0  0
   49.3766    7.4210   20.9134 H   0  0  0  0  0  0  0  0  0  0  0  0
   49.7963    1.8076   18.1171 H   0  0  0  0  0  0  0  0  0  0  0  0
   50.9685    1.4405   16.8648 H   0  0  0  0  0  0  0  0  0  0  0  0
   49.3464    1.9773   16.4023 H   0  0  0  0  0  0  0  0  0  0  0  0
   48.9382    3.4387   19.2476 H   0  0  0  0  0  0  0  0  0  0  0  0
   50.1893    4.6388   19.5481 H   0  0  0  0  0  0  0  0  0  0  0  0
   50.9704    6.1769   17.6268 H   0  0  0  0  0  0  0  0  0  0  0  0
   50.4269    5.8503   15.9722 H   0  0  0  0  0  0  0  0  0  0  0  0
   49.3321    6.6149   17.1099 H   0  0  0  0  0  0  0  0  0  0  0  0
   47.1592    4.8906   19.0036 H   0  0  0  0  0  0  0  0  0  0  0  0
   48.9267    5.7016   17.5101 H   0  0  0  0  0  0  0  0  0  0  0  0
   47.1632    5.4744   21.4521 H   0  0  0  0  0  0  0  0  0  0  0  0
   50.1864    3.7592   19.5649 H   0  0  0  0  0  0  0  0  0  0  0  0
   48.6558    3.6652   21.9433 H   0  0  0  0  0  0  0  0  0  0  0  0
   51.6192    3.5118   17.7061 H   0  0  0  0  0  0  0  0  0  0  0  0
   48.1677    7.4869   19.3510 H   0  0  0  0  0  0  0  0  0  0  0  0
   50.9464    6.2842   18.4919 H   0  0  0  0  0  0  0  0  0  0  0  0
   47.7095    2.0941   17.4107 H   0  0  0  0  0  0  0  0  0  0  0  0
   49.8972    7.6389   22.0293 H   0  0  0  0  0  0  0  0  0  0  0  0
   46.8556    5.9458   20.2097 H   0  0  0  0  0  0  0  0  0  0  0  0
   50.5346    2.8932   18.7561 H   0  0  0  0  0  0  0  0  0  0  0  0
   49.2861    4.0746   20.1883 H   0  0  0  0  0  0  0  0  0  0  0  0
   47.7057    3.8170   19.4882 H   0  0  0  0  0  0  0  0  0  0  0  0
   49.9300    4.6518   16.4647 H   0  0  0  0  0  0  0  0  0  0  0  0
   49.7482    5.4076   23.0247 H   0  0  0  0  0  0  0  0  0  0  0  0
   50.3031    6.9407   22.3267 H   0  0  0  0  0  0  0  0  0  0  0  0
   50.4323    5.4679   21.3845 H   0  0  0  0  0  0  0  0  0  0  0  0
   47.5587    6.9949   23.4111 H   0  0  0  0  0  0  0  0  0  0  0  0
   48.1554    8.2613   22.3166 H   0  0  0  0  0  0  0  0  0  0  0  0
   46.6303    7.4435   21.9707 H   0  0  0  0  0  0  0  0  0  0  0  0
   51.6916    4.9738   19.0350 H   0  0  0  0  0  0  0  0  0  0  0  0
   52.1851    4.8855   17.3248 H   0  0  0  0  0  0  0  0  0  0  0  0
   52.7738    3.6964   18.4870 H   0  0  0  0  0  0  0  0  0  0  0  0
   49.6751    5.9581   18.5088 H   0  0  0  0  0  0  0  0  0  0  0  0
   48.1189    5.6070   17.7963 H   0  0  0  0  0  0  0  0  0  0  0  0
   47.7246    3.5218   16.4773 H   0  0  0  0  0  0  0  0  0  0  0  0
   49.0487    2.3984   16.1554 H   0  0  0  0  0  0  0  0  0  0  0  0
   48.2751    2.4140   17.7443 H   0  0  0  0  0  0  0  0  0  0  0  0
  2  1  2  3
  3  5  1  0
  4  2  1  0
  5  9  1  0
  6  1  1  0
  7  1  1  0
  8  3  1  0
  9  4  1  0
 10  5  1  0
 12 11  1  0
 13 11  1  0
 14 12  1  0
 15 13  1  0
 16 14  1  0
 17 15  2  0
 18 16  2  0
 13 19  1  0
 14 20  1  0
 11 21  1  0
 12 22  1  0
 23 16  1  0
 24 15  1  0
 26 25  2  3
 27 29  1  0
 28 26  1  0
 29 33  1  0
 30 25  1  0
 31 25  1  0
 32 27  1  0
 33 28  1  0
 34 29  1  0
  2 35  1  0
  3 36  1  0
  4 37  1  0
  4 38  1  0
  5 39  1  1
  6 40  1  0
  6 41  1  0
  6 42  1  0
  7 43  1  0
  7 44  1  0
  7 45  1  0
  8 46  1  0
  8 47  1  0
  8 48  1  0
  9 49  1  0
  9 50  1  0
 10 51  1  0
 10 52  1  0
 10 53  1  0
 11 54  1  1
 12 55  1  1
 13 56  1  1
 14 57  1  6
 19 58  1  0
 20 59  1  0
 21 60  1  0
 22 61  1  0
 23 62  1  0
 24 63  1  0
 26 64  1  0
 27 65  1  0
 28 66  1  0
 28 67  1  0
 29 68  1  6
 30 69  1  0
 30 70  1  0
 30 71  1  0
 31 72  1  0
 31 73  1  0
 31 74  1  0
 32 75  1  0
 32 76  1  0
 32 77  1  0
 33 78  1  0
 33 79  1  0
 34 80  1  0
 34 81  1  0
 34 82  1  0
M  END
> <Uni-Dock RESULT> 
ENERGY=   -5.842  LOWER_BOUND=    0.000  UPPER_BOUND=    0.000
INTER + INTRA:          -5.842
INTER:                  -5.842
INTRA:                   0.000
UNBOUND:                 0.000

$$$$

     RDKit          3D

 82 79  0  0  0  0  0  0  0  0999 V2000
   48.2784    6.5749   22.0332 C   0  0  0  0  0  0  0  0  0  0  0  0
   47.3676    7.4974   21.6679 C   0  0  0  0  0  0  0  0  0  0  0  0
   48.1366   12.1423   20.0376 N   0  0  0  0  0  0  0  0  0  0  0  0
   47.3101    8.9500   22.0574 C   0  0  0  0  0  0  0  0  0  0  0  0
   47.6154   11.3467   21.1664 C   0  0  1  0  0  0  0  0  0  0  0  0
   48.1814    5.1618   21.5194 C   0  0  0  0  0  0  0  0  0  0  0  0
   49.4634    6.8285   22.9234 C   0  0  0  0  0  0  0  0  0  0  0  0
   47.2915   12.0673   18.8509 C   0  0  0  0  0  0  0  0  0  0  0  0
   47.8355    9.8391   20.9241 C   0  0  0  0  0  0  0  0  0  0  0  0
   48.3305   11.8254   22.4377 C   0  0  0  0  0  0  0  0  0  0  0  0
   47.1166    8.8103   22.2220 C   0  0  1  0  0  0  0  0  0  0  0  0
   47.9157   10.1093   21.9788 C   0  0  2  0  0  0  0  0  0  0  0  0
   47.6707    7.5271   21.5743 C   0  0  2  0  0  0  0  0  0  0  0  0
   48.2043   10.5073   20.5248 C   0  0  1  0  0  0  0  0  0  0  0  0
   49.1457    7.2722   21.8811 C   0  0  0  0  0  0  0  0  0  0  0  0
   47.0013   11.0808   19.7851 C   0  0  0  0  0  0  0  0  0  0  0  0
   50.0235    7.1580   21.0346 O   0  0  0  0  0  0  0  0  0  0  0  0
   47.0442   12.0627   19.0556 O   0  0  0  0  0  0  0  0  0  0  0  0
   47.4666    7.5860   20.1544 O   0  0  0  0  0  0  0  0  0  0  0  0
   49.2187   11.5455   20.5886 O   0  0  0  0  0  0  0  0  0  0  0  0
   46.9897    8.6234   23.6460 O   0  0  0  0  0  0  0  0  0  0  0  0
   49.1756    9.9993   22.6908 O   0  0  0  0  0  0  0  0  0  0  0  0
   45.8545   10.4026   19.9372 O   0  0  0  0  0  0  0  0  0  0  0  0
   49.4196    7.0957   23.1876 O   0  0  0  0  0  0  0  0  0  0  0  0
   48.5073    6.9464   22.3593 C   0  0  0  0  0  0  0  0  0  0  0  0
   47.4705    7.7742   22.1255 C   0  0  0  0  0  0  0  0  0  0  0  0
   48.5110   11.4767   19.7799 N   0  0  0  0  0  0  0  0  0  0  0  0
   47.4005    8.8863   21.1132 C   0  0  0  0  0  0  0  0  0  0  0  0
   47.4882   11.4672   20.8326 C   0  0  2  0  0  0  0  0  0  0  0  0
   49.8429    7.0268   21.6712 C   0  0  0  0  0  0  0  0  0  0  0  0
   48.3982    5.8437   23.3799 C   0  0  0  0  0  0  0  0  0  0  0  0
   49.8688   11.5670   20.2942 C   0  0  0  0  0  0  0  0  0  0  0  0
   47.5423   10.2537   21.7871 C   0  0  0  0  0  0  0  0  0  0  0  0
   46.1200   11.5862   20.1538 C   0  0  0  0  0  0  0  0  0  0  0  0
   46.5629    7.1909   20.9985 H   0  0  0  0  0  0  0  0  0  0  0  0
   48.1989   13.1234   20.3190 H   0  0  0  0  0  0  0  0  0  0  0  0
   47.8632    9.1311   22.9831 H   0  0  0  0  0  0  0  0  0  0  0  0
   46.2646    9.2040   22.2741 H   0  0  0  0  0  0  0  0  0  0  0  0
   46.5435   11.5510   21.2952 H   0  0  0  0  0  0  0  0  0  0  0  0
   49.1001    4.8877   20.9866 H   0  0  0  0  0  0  0  0  0  0  0  0
   47.3423    5.0272   20.8275 H   0  0  0  0  0  0  0  0  0  0  0  0
   48.0374    4.4653   22.3510 H   0  0  0  0  0  0  0  0  0  0  0  0
   49.4732    6.1138   23.7516 H   0  0  0  0  0  0  0  0  0  0  0  0
   50.3901    6.7009   22.3525 H   0  0  0  0  0  0  0  0  0  0  0  0
   49.4799    7.8302   23.3570 H   0  0  0  0  0  0  0  0  0  0  0  0
   47.2236   11.0509   18.4537 H   0  0  0  0  0  0  0  0  0  0  0  0
   47.7260   12.6851   18.0612 H   0  0  0  0  0  0  0  0  0  0  0  0
   46.2811   12.4379   19.0534 H   0  0  0  0  0  0  0  0  0  0  0  0
   47.3336    9.5393   19.9957 H   0  0  0  0  0  0  0  0  0  0  0  0
   48.9071    9.6405   20.7764 H   0  0  0  0  0  0  0  0  0  0  0  0
   49.3952   11.5721   22.4189 H   0  0  0  0  0  0  0  0  0  0  0  0
   48.2430   12.9112   22.5576 H   0  0  0  0  0  0  0  0  0  0  0  0
   47.8877   11.3774   23.3315 H   0  0  0  0  0  0  0  0  0  0  0  0
   46.0958    8.9510   21.8542 H   0  0  0  0  0  0  0  0  0  0  0  0
   47.3942   10.9332   22.4842 H   0  0  0  0  0  0  0  0  0  0  0  0
   47.1180    6.6523   21.9383 H   0  0  0  0  0  0  0  0  0  0  0  0
   48.6496    9.7008   19.9373 H   0  0  0  0  0  0  0  0  0  0  0  0
   48.0802    6.9343   19.7619 H   0  0  0  0  0  0  0  0  0  0  0  0
   49.2101   11.9821   19.7119 H   0  0  0  0  0  0  0  0  0  0  0  0
   47.8834    8.7938   24.0124 H   0  0  0  0  0  0  0  0  0  0  0  0
   49.7044   10.7588   22.3606 H   0  0  0  0  0  0  0  0  0  0  0  0
   45.2065   10.8705   19.3672 H   0  0  0  0  0  0  0  0  0  0  0  0
   50.3934    6.9867   23.2239 H   0  0  0  0  0  0  0  0  0  0  0  0
   46.5548    7.6339   22.6997 H   0  0  0  0  0  0  0  0  0  0  0  0
   48.4236   10.6535   19.1847 H   0  0  0  0  0  0  0  0  0  0  0  0
   48.1568    8.7536   20.3356 H   0  0  0  0  0  0  0  0  0  0  0  0
   46.4314    8.8101   20.6078 H   0  0  0  0  0  0  0  0  0  0  0  0
   47.6152   12.3718   21.4436 H   0  0  0  0  0  0  0  0  0  0  0  0
   49.9430    6.2097   20.9468 H   0  0  0  0  0  0  0  0  0  0  0  0
   50.6506    6.9308   22.4044 H   0  0  0  0  0  0  0  0  0  0  0  0
   50.0036    7.9748   21.1534 H   0  0  0  0  0  0  0  0  0  0  0  0
   48.5975    4.8724   22.9124 H   0  0  0  0  0  0  0  0  0  0  0  0
   49.1263    5.9971   24.1824 H   0  0  0  0  0  0  0  0  0  0  0  0
   47.4064    5.7985   23.8405 H   0  0  0  0  0  0  0  0  0  0  0  0
   50.1669   10.6616   20.8296 H   0  0  0  0  0  0  0  0  0  0  0  0
   49.9895   12.4305   20.9545 H   0  0  0  0  0  0  0  0  0  0  0  0
   50.5625   11.6936   19.4579 H   0  0  0  0  0  0  0  0  0  0  0  0
   48.4815   10.2818   22.3552 H   0  0  0  0  0  0  0  0  0  0  0  0
   46.7457   10.3673   22.5350 H   0  0  0  0  0  0  0  0  0  0  0  0
   45.3209   11.6091   20.9006 H   0  0  0  0  0  0  0  0  0  0  0  0
   46.0556   12.5132   19.5734 H   0  0  0  0  0  0  0  0  0  0  0  0
   45.9202   10.7541   19.4704 H   0  0  0  0  0  0  0  0  0  0  0  0
  2  1  2  3
  3  5  1  0
  4  2  1  0
  5  9  1  0
  6  1  1  0
  7  1  1  0
  8  3  1  0
  9  4  1  0
 10  5  1  0
 12 11  1  0
 13 11  1  0
 14 12  1  0
 15 13  1  0
 16 14  1  0
 17 15  2  0
 18 16  2  0
 13 19  1  0
 14 20  1  0
 11 21  1  0
 12 22  1  0
 23 16  1  0
 24 15  1  0
 26 25  2  3
 27 29  1  0
 28 26  1  0
 29 33  1  0
 30 25  1  0
 31 25  1  0
 32 27  1  0
 33 28  1  0
 34 29  1  0
  2 35  1  0
  3 36  1  0
  4 37  1  0
  4 38  1  0
  5 39  1  1
  6 40  1  0
  6 41  1  0
  6 42  1  0
  7 43  1  0
  7 44  1  0
  7 45  1  0
  8 46  1  0
  8 47  1  0
  8 48  1  0
  9 49  1  0
  9 50  1  0
 10 51  1  0
 10 52  1  0
 10 53  1  0
 11 54  1  1
 12 55  1  1
 13 56  1  1
 14 57  1  6
 19 58  1  0
 20 59  1  0
 21 60  1  0
 22 61  1  0
 23 62  1  0
 24 63  1  0
 26 64  1  0
 27 65  1  0
 28 66  1  0
 28 67  1  0
 29 68  1  6
 30 69  1  0
 30 70  1  0
 30 71  1  0
 31 72  1  0
 31 73  1  0
 31 74  1  0
 32 75  1  0
 32 76  1  0
 32 77  1  0
 33 78  1  0
 33 79  1  0
 34 80  1  0
 34 81  1  0
 34 82  1  0
M  END
> <Uni-Dock RESULT> 
ENERGY=   -5.386  LOWER_BOUND=    3.789  UPPER_BOUND=    6.094
INTER + INTRA:          -5.386
INTER:                  -5.386
INTRA:                   0.000
UNBOUND:                 0.000

$$$$

     RDKit          3D

 82 79  0  0  0  0  0  0  0  0999 V2000
   47.7425    7.9470   12.8315 C   0  0  0  0  0  0  0  0  0  0  0  0
   47.5077    6.6893   12.4110 C   0  0  0  0  0  0  0  0  0  0  0  0
   43.2298    4.7004   10.8082 N   0  0  0  0  0  0  0  0  0  0  0  0
   46.3693    5.7810   12.7906 C   0  0  0  0  0  0  0  0  0  0  0  0
   44.2135    4.6828   11.9087 C   0  0  1  0  0  0  0  0  0  0  0  0
   48.9346    8.7129   12.3187 C   0  0  0  0  0  0  0  0  0  0  0  0
   46.8762    8.7201   13.7869 C   0  0  0  0  0  0  0  0  0  0  0  0
   43.7451    4.1147    9.5755 C   0  0  0  0  0  0  0  0  0  0  0  0
   45.3069    5.7480   11.6855 C   0  0  0  0  0  0  0  0  0  0  0  0
   43.4472    4.9246   13.2168 C   0  0  0  0  0  0  0  0  0  0  0  0
   46.6001    5.6967   12.9445 C   0  0  1  0  0  0  0  0  0  0  0  0
   45.0718    5.6050   12.7419 C   0  0  2  0  0  0  0  0  0  0  0  0
   47.3052    6.9232   12.3348 C   0  0  2  0  0  0  0  0  0  0  0  0
   44.5371    5.6799   11.3052 C   0  0  1  0  0  0  0  0  0  0  0  0
   46.6676    8.2554   12.7263 C   0  0  0  0  0  0  0  0  0  0  0  0
   44.7447    4.4052   10.4957 C   0  0  0  0  0  0  0  0  0  0  0  0
   46.2270    9.0768   11.9318 O   0  0  0  0  0  0  0  0  0  0  0  0
   43.8982    3.9063    9.7658 O   0  0  0  0  0  0  0  0  0  0  0  0
   47.3331    6.7925   10.9053 O   0  0  0  0  0  0  0  0  0  0  0  0
   43.1056    5.8996   11.4226 O   0  0  0  0  0  0  0  0  0  0  0  0
   46.8683    5.6322   14.3596 O   0  0  0  0  0  0  0  0  0  0  0  0
   44.4528    6.6585   13.5252 O   0  0  0  0  0  0  0  0  0  0  0  0
   45.9659    3.8586   10.5848 O   0  0  0  0  0  0  0  0  0  0  0  0
   46.6917    8.5166   14.0470 O   0  0  0  0  0  0  0  0  0  0  0  0
   47.3170    7.9018   13.1686 C   0  0  0  0  0  0  0  0  0  0  0  0
   47.2363    6.5900   12.8726 C   0  0  0  0  0  0  0  0  0  0  0  0
   43.5476    5.4035   10.5751 N   0  0  0  0  0  0  0  0  0  0  0  0
   46.3407    5.9376   11.8534 C   0  0  0  0  0  0  0  0  0  0  0  0
   44.1791    4.5258   11.5677 C   0  0  2  0  0  0  0  0  0  0  0  0
   46.4575    8.9749   12.5576 C   0  0  0  0  0  0  0  0  0  0  0  0
   48.3089    8.4027   14.1858 C   0  0  0  0  0  0  0  0  0  0  0  0
   42.7029    6.4301   11.1657 C   0  0  0  0  0  0  0  0  0  0  0  0
   45.1647    5.2270   12.5287 C   0  0  0  0  0  0  0  0  0  0  0  0
   44.8544    3.3774   10.8113 C   0  0  0  0  0  0  0  0  0  0  0  0
   48.2035    6.2454   11.6980 H   0  0  0  0  0  0  0  0  0  0  0  0
   42.4029    4.1683   11.0887 H   0  0  0  0  0  0  0  0  0  0  0  0
   45.9290    6.0805   13.7456 H   0  0  0  0  0  0  0  0  0  0  0  0
   46.7744    4.7729   12.9462 H   0  0  0  0  0  0  0  0  0  0  0  0
   44.6717    3.6864   11.9752 H   0  0  0  0  0  0  0  0  0  0  0  0
   48.6099    9.6450   11.8405 H   0  0  0  0  0  0  0  0  0  0  0  0
   49.5096    8.1425   11.5806 H   0  0  0  0  0  0  0  0  0  0  0  0
   49.6102    8.9591   13.1436 H   0  0  0  0  0  0  0  0  0  0  0  0
   47.4773    9.1021   14.6172 H   0  0  0  0  0  0  0  0  0  0  0  0
   46.4262    9.5756   13.2703 H   0  0  0  0  0  0  0  0  0  0  0  0
   46.0635    8.1314   14.2166 H   0  0  0  0  0  0  0  0  0  0  0  0
   44.6006    4.6685    9.1793 H   0  0  0  0  0  0  0  0  0  0  0  0
   42.9667    4.1484    8.8094 H   0  0  0  0  0  0  0  0  0  0  0  0
   44.0345    3.0683    9.7185 H   0  0  0  0  0  0  0  0  0  0  0  0
   45.8143    5.5592   10.7313 H   0  0  0  0  0  0  0  0  0  0  0  0
   44.8436    6.7418   11.6001 H   0  0  0  0  0  0  0  0  0  0  0  0
   43.0363    5.9382   13.2598 H   0  0  0  0  0  0  0  0  0  0  0  0
   42.6170    4.2178   13.3271 H   0  0  0  0  0  0  0  0  0  0  0  0
   44.0952    4.7806   14.0856 H   0  0  0  0  0  0  0  0  0  0  0  0
   47.0658    4.8030   12.5184 H   0  0  0  0  0  0  0  0  0  0  0  0
   44.7177    4.6784   13.2134 H   0  0  0  0  0  0  0  0  0  0  0  0
   48.3488    6.9632   12.6701 H   0  0  0  0  0  0  0  0  0  0  0  0
   44.9187    6.5385   10.7474 H   0  0  0  0  0  0  0  0  0  0  0  0
   47.4969    7.6885   10.5511 H   0  0  0  0  0  0  0  0  0  0  0  0
   42.7289    5.6822   10.5451 H   0  0  0  0  0  0  0  0  0  0  0  0
   46.2227    6.2423   14.7758 H   0  0  0  0  0  0  0  0  0  0  0  0
   43.5180    6.6641   13.2226 H   0  0  0  0  0  0  0  0  0  0  0  0
   45.9431    3.0881    9.9769 H   0  0  0  0  0  0  0  0  0  0  0  0
   46.2175    9.3700   14.1393 H   0  0  0  0  0  0  0  0  0  0  0  0
   47.8980    5.8988   13.3941 H   0  0  0  0  0  0  0  0  0  0  0  0
   44.2511    5.8389    9.9792 H   0  0  0  0  0  0  0  0  0  0  0  0
   45.9876    6.6676   11.1208 H   0  0  0  0  0  0  0  0  0  0  0  0
   46.9490    5.2185   11.2938 H   0  0  0  0  0  0  0  0  0  0  0  0
   43.3867    4.0746   12.1812 H   0  0  0  0  0  0  0  0  0  0  0  0
   47.0435    9.5656   11.8434 H   0  0  0  0  0  0  0  0  0  0  0  0
   46.0896    9.6515   13.3361 H   0  0  0  0  0  0  0  0  0  0  0  0
   45.5767    8.5811   12.0459 H   0  0  0  0  0  0  0  0  0  0  0  0
   48.9708    9.1510   13.7345 H   0  0  0  0  0  0  0  0  0  0  0  0
   47.7861    8.8666   15.0280 H   0  0  0  0  0  0  0  0  0  0  0  0
   48.9339    7.6000   14.5892 H   0  0  0  0  0  0  0  0  0  0  0  0
   43.2837    7.1715   11.7209 H   0  0  0  0  0  0  0  0  0  0  0  0
   41.9492    5.9952   11.8283 H   0  0  0  0  0  0  0  0  0  0  0  0
   42.1730    6.9617   10.3699 H   0  0  0  0  0  0  0  0  0  0  0  0
   44.6147    5.9466   13.1493 H   0  0  0  0  0  0  0  0  0  0  0  0
   45.5559    4.4768   13.2294 H   0  0  0  0  0  0  0  0  0  0  0  0
   45.3208    2.6779   11.5113 H   0  0  0  0  0  0  0  0  0  0  0  0
   44.1193    2.8158   10.2244 H   0  0  0  0  0  0  0  0  0  0  0  0
   45.6276    3.7309   10.1211 H   0  0  0  0  0  0  0  0  0  0  0  0
  2  1  2  3
  3  5  1  0
  4  2  1  0
  5  9  1  0
  6  1  1  0
  7  1  1  0
  8  3  1  0
  9  4  1  0
 10  5  1  0
 12 11  1  0
 13 11  1  0
 14 12  1  0
 15 13  1  0
 16 14  1  0
 17 15  2  0
 18 16  2  0
 13 19  1  0
 14 20  1  0
 11 21  1  0
 12 22  1  0
 23 16  1  0
 24 15  1  0
 26 25  2  3
 27 29  1  0
 28 26  1  0
 29 33  1  0
 30 25  1  0
 31 25  1  0
 32 27  1  0
 33 28  1  0
 34 29  1  0
  2 35  1  0
  3 36  1  0
  4 37  1  0
  4 38  1  0
  5 39  1  1
  6 40  1  0
  6 41  1  0
  6 42  1  0
  7 43  1  0
  7 44  1  0
  7 45  1  0
  8 46  1  0
  8 47  1  0
  8 48  1  0
  9 49  1  0
  9 50  1  0
 10 51  1  0
 10 52  1  0
 10 53  1  0
 11 54  1  1
 12 55  1  1
 13 56  1  1
 14 57  1  6
 19 58  1  0
 20 59  1  0
 21 60  1  0
 22 61  1  0
 23 62  1  0
 24 63  1  0
 26 64  1  0
 27 65  1  0
 28 66  1  0
 28 67  1  0
 29 68  1  6
 30 69  1  0
 30 70  1  0
 30 71  1  0
 31 72  1  0
 31 73  1  0
 31 74  1  0
 32 75  1  0
 32 76  1  0
 32 77  1  0
 33 78  1  0
 33 79  1  0
 34 80  1  0
 34 81  1  0
 34 82  1  0
M  END
> <Uni-Dock RESULT> 
ENERGY=   -5.286  LOWER_BOUND=    6.960  UPPER_BOUND=    8.869
INTER + INTRA:          -5.286
INTER:                  -5.286
INTRA:                   0.000
UNBOUND:                 0.000

$$$$

     RDKit          3D

 82 79  0  0  0  0  0  0  0  0999 V2000
   47.9193    7.6272   19.9566 C   0  0  0  0  0  0  0  0  0  0  0  0
   47.2259    8.7802   20.0180 C   0  0  0  0  0  0  0  0  0  0  0  0
   48.8712   13.3325   21.1989 N   0  0  0  0  0  0  0  0  0  0  0  0
   47.2518    9.8222   21.1037 C   0  0  0  0  0  0  0  0  0  0  0  0
   48.0232   12.2153   21.6593 C   0  0  1  0  0  0  0  0  0  0  0  0
   47.7762    6.7132   18.7673 C   0  0  0  0  0  0  0  0  0  0  0  0
   48.8976    7.1452   20.9919 C   0  0  0  0  0  0  0  0  0  0  0  0
   48.3086   14.0386   20.0531 C   0  0  0  0  0  0  0  0  0  0  0  0
   48.1156   11.0193   20.6894 C   0  0  0  0  0  0  0  0  0  0  0  0
   48.4878   11.8349   23.0721 C   0  0  0  0  0  0  0  0  0  0  0  0
   47.0116    9.6646   21.1431 C   0  0  1  0  0  0  0  0  0  0  0  0
   47.9897   10.7069   21.7278 C   0  0  2  0  0  0  0  0  0  0  0  0
   47.5436    8.7864   19.9945 C   0  0  2  0  0  0  0  0  0  0  0  0
   48.6389   11.7003   20.7544 C   0  0  1  0  0  0  0  0  0  0  0  0
   48.8735    8.1033   20.3094 C   0  0  0  0  0  0  0  0  0  0  0  0
   47.7055   12.8078   20.2795 C   0  0  0  0  0  0  0  0  0  0  0  0
   49.8985    8.2382   19.6526 O   0  0  0  0  0  0  0  0  0  0  0  0
   48.0232   13.9864   20.1904 O   0  0  0  0  0  0  0  0  0  0  0  0
   47.6689    9.5833   18.8069 O   0  0  0  0  0  0  0  0  0  0  0  0
   49.7269   12.3248   21.4875 O   0  0  0  0  0  0  0  0  0  0  0  0
   46.5500    8.8289   22.2236 O   0  0  0  0  0  0  0  0  0  0  0  0
   49.0381    9.9911   22.4315 O   0  0  0  0  0  0  0  0  0  0  0  0
   46.4830   12.4077   19.9004 O   0  0  0  0  0  0  0  0  0  0  0  0
   48.8273    7.2487   21.3489 O   0  0  0  0  0  0  0  0  0  0  0  0
   48.1114    7.7292   20.4561 C   0  0  0  0  0  0  0  0  0  0  0  0
   47.2556    8.7643   20.5616 C   0  0  0  0  0  0  0  0  0  0  0  0
   49.2139   12.8195   20.6802 N   0  0  0  0  0  0  0  0  0  0  0  0
   47.5421   10.2170   20.2891 C   0  0  0  0  0  0  0  0  0  0  0  0
   47.9883   12.5095   21.4261 C   0  0  2  0  0  0  0  0  0  0  0  0
   49.5667    7.8510   20.0944 C   0  0  0  0  0  0  0  0  0  0  0  0
   47.6508    6.3188   20.7173 C   0  0  0  0  0  0  0  0  0  0  0  0
   50.4242   12.3492   21.3361 C   0  0  0  0  0  0  0  0  0  0  0  0
   47.6877   11.0036   21.5945 C   0  0  0  0  0  0  0  0  0  0  0  0
   46.8288   13.2397   20.7410 C   0  0  0  0  0  0  0  0  0  0  0  0
   46.5605    9.0266   19.1898 H   0  0  0  0  0  0  0  0  0  0  0  0
   48.9825   14.0054   21.9607 H   0  0  0  0  0  0  0  0  0  0  0  0
   47.6020    9.3972   22.0483 H   0  0  0  0  0  0  0  0  0  0  0  0
   46.2209   10.1530   21.2837 H   0  0  0  0  0  0  0  0  0  0  0  0
   46.9807   12.5536   21.7359 H   0  0  0  0  0  0  0  0  0  0  0  0
   48.7523    6.5492   18.2949 H   0  0  0  0  0  0  0  0  0  0  0  0
   47.1024    7.1229   18.0063 H   0  0  0  0  0  0  0  0  0  0  0  0
   47.3710    5.7459   19.0795 H   0  0  0  0  0  0  0  0  0  0  0  0
   48.6399    6.1312   21.3116 H   0  0  0  0  0  0  0  0  0  0  0  0
   49.9070    7.1218   20.5657 H   0  0  0  0  0  0  0  0  0  0  0  0
   48.9331    7.7699   21.8864 H   0  0  0  0  0  0  0  0  0  0  0  0
   48.2136   13.3945   19.1748 H   0  0  0  0  0  0  0  0  0  0  0  0
   48.9766   14.8566   19.7724 H   0  0  0  0  0  0  0  0  0  0  0  0
   47.3285   14.4671   20.2872 H   0  0  0  0  0  0  0  0  0  0  0  0
   47.8017   11.3346   19.6865 H   0  0  0  0  0  0  0  0  0  0  0  0
   49.1628   10.6952   20.5999 H   0  0  0  0  0  0  0  0  0  0  0  0
   49.4933   11.4025   23.0612 H   0  0  0  0  0  0  0  0  0  0  0  0
   48.5022   12.7081   23.7341 H   0  0  0  0  0  0  0  0  0  0  0  0
   47.8084   11.1100   23.5287 H   0  0  0  0  0  0  0  0  0  0  0  0
   46.1216   10.1843   20.7757 H   0  0  0  0  0  0  0  0  0  0  0  0
   47.4678   11.2619   22.5190 H   0  0  0  0  0  0  0  0  0  0  0  0
   46.8262    7.9885   19.7669 H   0  0  0  0  0  0  0  0  0  0  0  0
   49.1074   11.2170   19.8937 H   0  0  0  0  0  0  0  0  0  0  0  0
   48.2748    9.0976   18.2134 H   0  0  0  0  0  0  0  0  0  0  0  0
   49.9643   13.1285   20.9806 H   0  0  0  0  0  0  0  0  0  0  0  0
   47.3534    8.5989   22.7373 H   0  0  0  0  0  0  0  0  0  0  0  0
   49.7114   10.6804   22.6235 H   0  0  0  0  0  0  0  0  0  0  0  0
   46.0368   13.2231   19.5844 H   0  0  0  0  0  0  0  0  0  0  0  0
   49.7493    6.9298   21.4484 H   0  0  0  0  0  0  0  0  0  0  0  0
   46.2252    8.5583   20.8507 H   0  0  0  0  0  0  0  0  0  0  0  0
   49.1664   12.4403   19.7349 H   0  0  0  0  0  0  0  0  0  0  0  0
   48.4319   10.3282   19.6646 H   0  0  0  0  0  0  0  0  0  0  0  0
   46.7077   10.6113   19.6986 H   0  0  0  0  0  0  0  0  0  0  0  0
   48.0801   12.9409   22.4327 H   0  0  0  0  0  0  0  0  0  0  0  0
   49.7302    7.5008   19.0683 H   0  0  0  0  0  0  0  0  0  0  0  0
   50.1742    7.2337   20.7644 H   0  0  0  0  0  0  0  0  0  0  0  0
   49.9473    8.8711   20.1805 H   0  0  0  0  0  0  0  0  0  0  0  0
   47.8353    5.6901   19.8384 H   0  0  0  0  0  0  0  0  0  0  0  0
   48.1947    5.8940   21.5666 H   0  0  0  0  0  0  0  0  0  0  0  0
   46.5830    6.2655   20.9512 H   0  0  0  0  0  0  0  0  0  0  0  0
   50.4887   11.2579   21.3469 H   0  0  0  0  0  0  0  0  0  0  0  0
   50.4941   12.7229   22.3616 H   0  0  0  0  0  0  0  0  0  0  0  0
   51.2966   12.7212   20.7909 H   0  0  0  0  0  0  0  0  0  0  0  0
   48.4736   10.5442   22.2084 H   0  0  0  0  0  0  0  0  0  0  0  0
   46.7633   10.8996   22.1788 H   0  0  0  0  0  0  0  0  0  0  0  0
   45.8917   13.0604   21.2763 H   0  0  0  0  0  0  0  0  0  0  0  0
   47.0031   14.3213   20.7342 H   0  0  0  0  0  0  0  0  0  0  0  0
   46.6912   12.9208   19.7024 H   0  0  0  0  0  0  0  0  0  0  0  0
  2  1  2  3
  3  5  1  0
  4  2  1  0
  5  9  1  0
  6  1  1  0
  7  1  1  0
  8  3  1  0
  9  4  1  0
 10  5  1  0
 12 11  1  0
 13 11  1  0
 14 12  1  0
 15 13  1  0
 16 14  1  0
 17 15  2  0
 18 16  2  0
 13 19  1  0
 14 20  1  0
 11 21  1  0
 12 22  1  0
 23 16  1  0
 24 15  1  0
 26 25  2  3
 27 29  1  0
 28 26  1  0
 29 33  1  0
 30 25  1  0
 31 25  1  0
 32 27  1  0
 33 28  1  0
 34 29  1  0
  2 35  1  0
  3 36  1  0
  4 37  1  0
  4 38  1  0
  5 39  1  1
  6 40  1  0
  6 41  1  0
  6 42  1  0
  7 43  1  0
  7 44  1  0
  7 45  1  0
  8 46  1  0
  8 47  1  0
  8 48  1  0
  9 49  1  0
  9 50  1  0
 10 51  1  0
 10 52  1  0
 10 53  1  0
 11 54  1  1
 12 55  1  1
 13 56  1  1
 14 57  1  6
 19 58  1  0
 20 59  1  0
 21 60  1  0
 22 61  1  0
 23 62  1  0
 24 63  1  0
 26 64  1  0
 27 65  1  0
 28 66  1  0
 28 67  1  0
 29 68  1  6
 30 69  1  0
 30 70  1  0
 30 71  1  0
 31 72  1  0
 31 73  1  0
 31 74  1  0
 32 75  1  0
 32 76  1  0
 32 77  1  0
 33 78  1  0
 33 79  1  0
 34 80  1  0
 34 81  1  0
 34 82  1  0
M  END
> <Uni-Dock RESULT> 
ENERGY=   -5.285  LOWER_BOUND=    4.564  UPPER_BOUND=    7.067
INTER + INTRA:          -5.285
INTER:                  -5.285
INTRA:                   0.000
UNBOUND:                 0.000

$$$$

     RDKit          3D

 82 79  0  0  0  0  0  0  0  0999 V2000
   48.8289    8.0703   13.0760 C   0  0  0  0  0  0  0  0  0  0  0  0
   47.8501    7.2828   13.5619 C   0  0  0  0  0  0  0  0  0  0  0  0
   44.4844    4.6055   11.0464 N   0  0  0  0  0  0  0  0  0  0  0  0
   46.4068    7.2283   13.1390 C   0  0  0  0  0  0  0  0  0  0  0  0
   44.6589    5.7815   11.9214 C   0  0  1  0  0  0  0  0  0  0  0  0
   50.2314    7.9657   13.6167 C   0  0  0  0  0  0  0  0  0  0  0  0
   48.6669    9.0754   11.9694 C   0  0  0  0  0  0  0  0  0  0  0  0
   44.6895    3.3415   11.7452 C   0  0  0  0  0  0  0  0  0  0  0  0
   46.1517    6.0227   12.2266 C   0  0  0  0  0  0  0  0  0  0  0  0
   44.0257    6.9849   11.2090 C   0  0  0  0  0  0  0  0  0  0  0  0
   46.4176    7.3825   13.3842 C   0  0  1  0  0  0  0  0  0  0  0  0
   45.5834    6.9522   12.1578 C   0  0  2  0  0  0  0  0  0  0  0  0
   47.9473    7.2486   13.2604 C   0  0  2  0  0  0  0  0  0  0  0  0
   45.8012    5.5356   11.6087 C   0  0  1  0  0  0  0  0  0  0  0  0
   48.5218    7.9084   12.0078 C   0  0  0  0  0  0  0  0  0  0  0  0
   45.1696    4.4356   12.4540 C   0  0  0  0  0  0  0  0  0  0  0  0
   49.1736    7.3255   11.1500 O   0  0  0  0  0  0  0  0  0  0  0  0
   44.5500    3.4844   11.9965 O   0  0  0  0  0  0  0  0  0  0  0  0
   48.3061    5.8588   13.2929 O   0  0  0  0  0  0  0  0  0  0  0  0
   45.1628    5.5105   10.3038 O   0  0  0  0  0  0  0  0  0  0  0  0
   46.0708    8.7446   13.7054 O   0  0  0  0  0  0  0  0  0  0  0  0
   45.8280    7.9076   11.0930 O   0  0  0  0  0  0  0  0  0  0  0  0
   45.3744    4.5352   13.7755 O   0  0  0  0  0  0  0  0  0  0  0  0
   48.3270    9.2391   11.9410 O   0  0  0  0  0  0  0  0  0  0  0  0
   48.4584    8.3183   12.7629 C   0  0  0  0  0  0  0  0  0  0  0  0
   47.4820    7.6552   13.4123 C   0  0  0  0  0  0  0  0  0  0  0  0
   45.2782    4.6271   10.9088 N   0  0  0  0  0  0  0  0  0  0  0  0
   46.8061    6.3791   12.9866 C   0  0  0  0  0  0  0  0  0  0  0  0
   44.6239    5.4086   11.9650 C   0  0  2  0  0  0  0  0  0  0  0  0
   49.0233    7.9226   11.4257 C   0  0  0  0  0  0  0  0  0  0  0  0
   49.0686    9.5631   13.3527 C   0  0  0  0  0  0  0  0  0  0  0  0
   45.4400    5.3607    9.6631 C   0  0  0  0  0  0  0  0  0  0  0  0
   45.4046    6.6558   12.4357 C   0  0  0  0  0  0  0  0  0  0  0  0
   44.3272    4.4598   13.1306 C   0  0  0  0  0  0  0  0  0  0  0  0
   48.1016    6.5773   14.3546 H   0  0  0  0  0  0  0  0  0  0  0  0
   43.5342    4.6065   10.6685 H   0  0  0  0  0  0  0  0  0  0  0  0
   46.1051    8.1583   12.6494 H   0  0  0  0  0  0  0  0  0  0  0  0
   45.7893    7.1471   14.0426 H   0  0  0  0  0  0  0  0  0  0  0  0
   44.1070    5.6264   12.8587 H   0  0  0  0  0  0  0  0  0  0  0  0
   50.9336    7.7303   12.8077 H   0  0  0  0  0  0  0  0  0  0  0  0
   50.3265    7.1837   14.3785 H   0  0  0  0  0  0  0  0  0  0  0  0
   50.5315    8.9119   14.0771 H   0  0  0  0  0  0  0  0  0  0  0  0
   49.0313   10.0549   12.2927 H   0  0  0  0  0  0  0  0  0  0  0  0
   49.2535    8.7646   11.0974 H   0  0  0  0  0  0  0  0  0  0  0  0
   47.6337    9.2039   11.6413 H   0  0  0  0  0  0  0  0  0  0  0  0
   45.7081    3.2408   12.1297 H   0  0  0  0  0  0  0  0  0  0  0  0
   44.5342    2.5158   11.0464 H   0  0  0  0  0  0  0  0  0  0  0  0
   43.9835    3.2213   12.5735 H   0  0  0  0  0  0  0  0  0  0  0  0
   46.5759    5.1340   12.7104 H   0  0  0  0  0  0  0  0  0  0  0  0
   46.7047    6.1583   11.2857 H   0  0  0  0  0  0  0  0  0  0  0  0
   44.5825    7.2554   10.3062 H   0  0  0  0  0  0  0  0  0  0  0  0
   42.9904    6.7745   10.9178 H   0  0  0  0  0  0  0  0  0  0  0  0
   43.9924    7.8588   11.8653 H   0  0  0  0  0  0  0  0  0  0  0  0
   46.1037    6.7900   14.2489 H   0  0  0  0  0  0  0  0  0  0  0  0
   44.5208    7.0885   12.4002 H   0  0  0  0  0  0  0  0  0  0  0  0
   48.4378    7.7231   14.1191 H   0  0  0  0  0  0  0  0  0  0  0  0
   46.8523    5.3020   11.4232 H   0  0  0  0  0  0  0  0  0  0  0  0
   49.2053    5.7988   12.9148 H   0  0  0  0  0  0  0  0  0  0  0  0
   45.0631    4.5638   10.0731 H   0  0  0  0  0  0  0  0  0  0  0  0
   46.0689    9.2225   12.8488 H   0  0  0  0  0  0  0  0  0  0  0  0
   45.4217    7.4923   10.3006 H   0  0  0  0  0  0  0  0  0  0  0  0
   44.9496    3.7371   14.1580 H   0  0  0  0  0  0  0  0  0  0  0  0
   48.7090    9.5022   11.0770 H   0  0  0  0  0  0  0  0  0  0  0  0
   47.1366    8.0466   14.3690 H   0  0  0  0  0  0  0  0  0  0  0  0
   46.1845    4.2824   11.2241 H   0  0  0  0  0  0  0  0  0  0  0  0
   47.4143    5.8413   12.2551 H   0  0  0  0  0  0  0  0  0  0  0  0
   46.7473    5.7291   13.8665 H   0  0  0  0  0  0  0  0  0  0  0  0
   43.6518    5.7534   11.5855 H   0  0  0  0  0  0  0  0  0  0  0  0
   50.0243    7.4932   11.5520 H   0  0  0  0  0  0  0  0  0  0  0  0
   49.1105    8.8018   10.7787 H   0  0  0  0  0  0  0  0  0  0  0  0
   48.3992    7.2034   10.8911 H   0  0  0  0  0  0  0  0  0  0  0  0
   50.1518    9.4383   13.4659 H   0  0  0  0  0  0  0  0  0  0  0  0
   48.8860   10.4210   12.6982 H   0  0  0  0  0  0  0  0  0  0  0  0
   48.6531    9.8057   14.3357 H   0  0  0  0  0  0  0  0  0  0  0  0
   46.1600    6.1780    9.7575 H   0  0  0  0  0  0  0  0  0  0  0  0
   44.4862    5.7620    9.3087 H   0  0  0  0  0  0  0  0  0  0  0  0
   45.8173    4.6823    8.8924 H   0  0  0  0  0  0  0  0  0  0  0  0
   45.4764    7.3720   11.6066 H   0  0  0  0  0  0  0  0  0  0  0  0
   44.8112    7.1630   13.2086 H   0  0  0  0  0  0  0  0  0  0  0  0
   43.8141    4.9910   13.9377 H   0  0  0  0  0  0  0  0  0  0  0  0
   43.6741    3.6419   12.8067 H   0  0  0  0  0  0  0  0  0  0  0  0
   45.2365    4.0120   13.5451 H   0  0  0  0  0  0  0  0  0  0  0  0
  2  1  2  3
  3  5  1  0
  4  2  1  0
  5  9  1  0
  6  1  1  0
  7  1  1  0
  8  3  1  0
  9  4  1  0
 10  5  1  0
 12 11  1  0
 13 11  1  0
 14 12  1  0
 15 13  1  0
 16 14  1  0
 17 15  2  0
 18 16  2  0
 13 19  1  0
 14 20  1  0
 11 21  1  0
 12 22  1  0
 23 16  1  0
 24 15  1  0
 26 25  2  3
 27 29  1  0
 28 26  1  0
 29 33  1  0
 30 25  1  0
 31 25  1  0
 32 27  1  0
 33 28  1  0
 34 29  1  0
  2 35  1  0
  3 36  1  0
  4 37  1  0
  4 38  1  0
  5 39  1  1
  6 40  1  0
  6 41  1  0
  6 42  1  0
  7 43  1  0
  7 44  1  0
  7 45  1  0
  8 46  1  0
  8 47  1  0
  8 48  1  0
  9 49  1  0
  9 50  1  0
 10 51  1  0
 10 52  1  0
 10 53  1  0
 11 54  1  1
 12 55  1  1
 13 56  1  1
 14 57  1  6
 19 58  1  0
 20 59  1  0
 21 60  1  0
 22 61  1  0
 23 62  1  0
 24 63  1  0
 26 64  1  0
 27 65  1  0
 28 66  1  0
 28 67  1  0
 29 68  1  6
 30 69  1  0
 30 70  1  0
 30 71  1  0
 31 72  1  0
 31 73  1  0
 31 74  1  0
 32 75  1  0
 32 76  1  0
 32 77  1  0
 33 78  1  0
 33 79  1  0
 34 80  1  0
 34 81  1  0
 34 82  1  0
M  END
> <Uni-Dock RESULT> 
ENERGY=   -5.267  LOWER_BOUND=    7.062  UPPER_BOUND=    8.409
INTER + INTRA:          -5.267
INTER:                  -5.267
INTRA:                   0.000
UNBOUND:                 0.000

$$$$

     RDKit          3D

 82 79  0  0  0  0  0  0  0  0999 V2000
   48.5252    3.8811   17.9044 C   0  0  0  0  0  0  0  0  0  0  0  0
   49.7677    3.6043   17.4644 C   0  0  0  0  0  0  0  0  0  0  0  0
   54.0732    3.8653   19.9582 N   0  0  0  0  0  0  0  0  0  0  0  0
   51.0205    4.4175   17.6496 C   0  0  0  0  0  0  0  0  0  0  0  0
   53.2857    4.4821   18.8727 C   0  0  1  0  0  0  0  0  0  0  0  0
   47.3907    2.9262   17.6369 C   0  0  0  0  0  0  0  0  0  0  0  0
   48.1365    5.0935   18.7044 C   0  0  0  0  0  0  0  0  0  0  0  0
   54.5690    2.5365   19.6167 C   0  0  0  0  0  0  0  0  0  0  0  0
   51.8925    3.8285   18.7648 C   0  0  0  0  0  0  0  0  0  0  0  0
   53.1839    5.9843   19.1723 C   0  0  0  0  0  0  0  0  0  0  0  0
   50.9259    4.4675   17.3801 C   0  0  1  0  0  0  0  0  0  0  0  0
   51.8751    4.8926   18.5218 C   0  0  2  0  0  0  0  0  0  0  0  0
   49.7076    3.6124   17.7772 C   0  0  2  0  0  0  0  0  0  0  0  0
   52.4565    3.7877   19.4145 C   0  0  1  0  0  0  0  0  0  0  0  0
   48.8836    4.2098   18.9169 C   0  0  0  0  0  0  0  0  0  0  0  0
   53.5692    2.9779   18.7590 C   0  0  0  0  0  0  0  0  0  0  0  0
   48.6557    3.6473   19.9808 O   0  0  0  0  0  0  0  0  0  0  0  0
   54.6073    2.6524   19.3198 O   0  0  0  0  0  0  0  0  0  0  0  0
   50.1488    2.2922   18.1287 O   0  0  0  0  0  0  0  0  0  0  0  0
   53.0243    4.4638   20.5684 O   0  0  0  0  0  0  0  0  0  0  0  0
   50.4853    5.6588   16.6979 O   0  0  0  0  0  0  0  0  0  0  0  0
   51.1693    5.8451   19.3590 O   0  0  0  0  0  0  0  0  0  0  0  0
   53.3275    2.5790   17.5018 O   0  0  0  0  0  0  0  0  0  0  0  0
   48.3360    5.4081   18.6385 O   0  0  0  0  0  0  0  0  0  0  0  0
   48.7087    4.3605   18.0868 C   0  0  0  0  0  0  0  0  0  0  0  0
   49.8808    4.1371   17.4614 C   0  0  0  0  0  0  0  0  0  0  0  0
   53.3929    3.5163   20.2133 N   0  0  0  0  0  0  0  0  0  0  0  0
   51.1401    3.5677   18.0586 C   0  0  0  0  0  0  0  0  0  0  0  0
   53.5144    4.1850   18.9124 C   0  0  2  0  0  0  0  0  0  0  0  0
   48.4594    4.1303   19.5526 C   0  0  0  0  0  0  0  0  0  0  0  0
   47.5198    4.8915   17.3291 C   0  0  0  0  0  0  0  0  0  0  0  0
   52.8780    4.3825   21.2625 C   0  0  0  0  0  0  0  0  0  0  0  0
   52.1816    4.6646   18.2958 C   0  0  0  0  0  0  0  0  0  0  0  0
   54.2596    3.2359   17.9686 C   0  0  0  0  0  0  0  0  0  0  0  0
   49.9241    2.6784   16.9098 H   0  0  0  0  0  0  0  0  0  0  0  0
   54.8793    4.4588   20.1669 H   0  0  0  0  0  0  0  0  0  0  0  0
   50.7828    5.4652   17.8530 H   0  0  0  0  0  0  0  0  0  0  0  0
   51.5748    4.4106   16.7023 H   0  0  0  0  0  0  0  0  0  0  0  0
   53.8237    4.3722   17.9211 H   0  0  0  0  0  0  0  0  0  0  0  0
   46.9334    2.6061   18.5810 H   0  0  0  0  0  0  0  0  0  0  0  0
   47.7205    2.0269   17.1047 H   0  0  0  0  0  0  0  0  0  0  0  0
   46.6250    3.4101   17.0229 H   0  0  0  0  0  0  0  0  0  0  0  0
   47.3003    5.6104   18.2244 H   0  0  0  0  0  0  0  0  0  0  0  0
   47.8178    4.7891   19.7079 H   0  0  0  0  0  0  0  0  0  0  0  0
   48.9438    5.8188   18.8221 H   0  0  0  0  0  0  0  0  0  0  0  0
   53.7584    1.8253   19.4361 H   0  0  0  0  0  0  0  0  0  0  0  0
   55.1506    2.1442   20.4545 H   0  0  0  0  0  0  0  0  0  0  0  0
   55.2198    2.5647   18.7365 H   0  0  0  0  0  0  0  0  0  0  0  0
   52.0047    2.7534   18.5771 H   0  0  0  0  0  0  0  0  0  0  0  0
   51.3638    3.9231   19.7246 H   0  0  0  0  0  0  0  0  0  0  0  0
   52.5795    6.1755   20.0647 H   0  0  0  0  0  0  0  0  0  0  0  0
   54.1741    6.4251   19.3335 H   0  0  0  0  0  0  0  0  0  0  0  0
   52.7362    6.5241   18.3335 H   0  0  0  0  0  0  0  0  0  0  0  0
   51.4983    3.9017   16.6388 H   0  0  0  0  0  0  0  0  0  0  0  0
   52.6964    5.4773   18.0860 H   0  0  0  0  0  0  0  0  0  0  0  0
   49.0292    3.5032   16.9223 H   0  0  0  0  0  0  0  0  0  0  0  0
   51.6964    3.1137   19.8167 H   0  0  0  0  0  0  0  0  0  0  0  0
   49.4261    1.8914   18.6505 H   0  0  0  0  0  0  0  0  0  0  0  0
   53.6183    3.8121   20.9947 H   0  0  0  0  0  0  0  0  0  0  0  0
   50.2409    6.2907   17.4073 H   0  0  0  0  0  0  0  0  0  0  0  0
   51.7440    5.9405   20.1502 H   0  0  0  0  0  0  0  0  0  0  0  0
   54.1092    2.0399   17.2528 H   0  0  0  0  0  0  0  0  0  0  0  0
   47.8827    5.6716   19.4672 H   0  0  0  0  0  0  0  0  0  0  0  0
   49.9516    4.3596   16.3969 H   0  0  0  0  0  0  0  0  0  0  0  0
   52.8088    2.6841   20.1379 H   0  0  0  0  0  0  0  0  0  0  0  0
   50.9232    3.0281   18.9838 H   0  0  0  0  0  0  0  0  0  0  0  0
   51.5277    2.8205   17.3572 H   0  0  0  0  0  0  0  0  0  0  0  0
   54.1549    5.0691   19.0387 H   0  0  0  0  0  0  0  0  0  0  0  0
   47.8428    3.2346   19.6936 H   0  0  0  0  0  0  0  0  0  0  0  0
   47.9224    4.9828   19.9817 H   0  0  0  0  0  0  0  0  0  0  0  0
   49.3780    4.0173   20.1325 H   0  0  0  0  0  0  0  0  0  0  0  0
   46.6708    4.2046   17.4246 H   0  0  0  0  0  0  0  0  0  0  0  0
   47.2221    5.8667   17.7267 H   0  0  0  0  0  0  0  0  0  0  0  0
   47.7293    5.0217   16.2628 H   0  0  0  0  0  0  0  0  0  0  0  0
   51.8311    4.6510   21.0973 H   0  0  0  0  0  0  0  0  0  0  0  0
   53.4724    5.2960   21.3544 H   0  0  0  0  0  0  0  0  0  0  0  0
   52.9318    3.8579   22.2209 H   0  0  0  0  0  0  0  0  0  0  0  0
   51.7471    5.4444   18.9350 H   0  0  0  0  0  0  0  0  0  0  0  0
   52.4019    5.1599   17.3404 H   0  0  0  0  0  0  0  0  0  0  0  0
   54.3988    3.7000   16.9877 H   0  0  0  0  0  0  0  0  0  0  0  0
   55.2529    2.9978   18.3647 H   0  0  0  0  0  0  0  0  0  0  0  0
   53.7268    2.2903   17.8226 H   0  0  0  0  0  0  0  0  0  0  0  0
  2  1  2  3
  3  5  1  0
  4  2  1  0
  5  9  1  0
  6  1  1  0
  7  1  1  0
  8  3  1  0
  9  4  1  0
 10  5  1  0
 12 11  1  0
 13 11  1  0
 14 12  1  0
 15 13  1  0
 16 14  1  0
 17 15  2  0
 18 16  2  0
 13 19  1  0
 14 20  1  0
 11 21  1  0
 12 22  1  0
 23 16  1  0
 24 15  1  0
 26 25  2  3
 27 29  1  0
 28 26  1  0
 29 33  1  0
 30 25  1  0
 31 25  1  0
 32 27  1  0
 33 28  1  0
 34 29  1  0
  2 35  1  0
  3 36  1  0
  4 37  1  0
  4 38  1  0
  5 39  1  1
  6 40  1  0
  6 41  1  0
  6 42  1  0
  7 43  1  0
  7 44  1  0
  7 45  1  0
  8 46  1  0
  8 47  1  0
  8 48  1  0
  9 49  1  0
  9 50  1  0
 10 51  1  0
 10 52  1  0
 10 53  1  0
 11 54  1  1
 12 55  1  1
 13 56  1  1
 14 57  1  6
 19 58  1  0
 20 59  1  0
 21 60  1  0
 22 61  1  0
 23 62  1  0
 24 63  1  0
 26 64  1  0
 27 65  1  0
 28 66  1  0
 28 67  1  0
 29 68  1  6
 30 69  1  0
 30 70  1  0
 30 71  1  0
 31 72  1  0
 31 73  1  0
 31 74  1  0
 32 75  1  0
 32 76  1  0
 32 77  1  0
 33 78  1  0
 33 79  1  0
 34 80  1  0
 34 81  1  0
 34 82  1  0
M  END
> <Uni-Dock RESULT> 
ENERGY=   -5.151  LOWER_BOUND=    2.275  UPPER_BOUND=    4.032
INTER + INTRA:          -5.151
INTER:                  -5.151
INTRA:                   0.000
UNBOUND:                 0.000

$$$$

     RDKit          3D

 82 79  0  0  0  0  0  0  0  0999 V2000
   48.0671    8.3671   20.4949 C   0  0  0  0  0  0  0  0  0  0  0  0
   47.5655    9.2514   19.6115 C   0  0  0  0  0  0  0  0  0  0  0  0
   48.5537   14.1165   19.1886 N   0  0  0  0  0  0  0  0  0  0  0  0
   47.0289   10.6311   19.8823 C   0  0  0  0  0  0  0  0  0  0  0  0
   47.5117   13.1404   19.5635 C   0  0  1  0  0  0  0  0  0  0  0  0
   48.5808    7.0298   20.0278 C   0  0  0  0  0  0  0  0  0  0  0  0
   48.2040    8.5989   21.9743 C   0  0  0  0  0  0  0  0  0  0  0  0
   48.8338   14.1275   17.7571 C   0  0  0  0  0  0  0  0  0  0  0  0
   48.0629   11.7005   19.5102 C   0  0  0  0  0  0  0  0  0  0  0  0
   47.0213   13.5064   20.9714 C   0  0  0  0  0  0  0  0  0  0  0  0
   46.8002   10.4557   19.8511 C   0  0  1  0  0  0  0  0  0  0  0  0
   47.3242   11.8365   20.3025 C   0  0  2  0  0  0  0  0  0  0  0  0
   47.8352    9.3177   19.7677 C   0  0  2  0  0  0  0  0  0  0  0  0
   48.4992   12.4430   19.5231 C   0  0  1  0  0  0  0  0  0  0  0  0
   48.6636    9.1471   21.0402 C   0  0  0  0  0  0  0  0  0  0  0  0
   48.1176   13.0072   18.1596 C   0  0  0  0  0  0  0  0  0  0  0  0
   49.8854    9.2166   21.0904 O   0  0  0  0  0  0  0  0  0  0  0  0
   48.5193   14.0760   17.7186 O   0  0  0  0  0  0  0  0  0  0  0  0
   48.7000    9.5442   18.6444 O   0  0  0  0  0  0  0  0  0  0  0  0
   48.9908   13.5438   20.3341 O   0  0  0  0  0  0  0  0  0  0  0  0
   45.7253   10.0750   20.7334 O   0  0  0  0  0  0  0  0  0  0  0  0
   47.6944   11.7386   21.7024 O   0  0  0  0  0  0  0  0  0  0  0  0
   47.3270   12.2232   17.4123 O   0  0  0  0  0  0  0  0  0  0  0  0
   47.9452    8.8249   22.1325 O   0  0  0  0  0  0  0  0  0  0  0  0
   47.9349    8.7104   20.8966 C   0  0  0  0  0  0  0  0  0  0  0  0
   47.2675    9.4736   20.0095 C   0  0  0  0  0  0  0  0  0  0  0  0
   49.0942   13.5231   19.2623 N   0  0  0  0  0  0  0  0  0  0  0  0
   47.7742   10.6987   19.2960 C   0  0  0  0  0  0  0  0  0  0  0  0
   47.6447   13.2925   19.2452 C   0  0  2  0  0  0  0  0  0  0  0  0
   49.3274    8.9891   21.3936 C   0  0  0  0  0  0  0  0  0  0  0  0
   47.2983    7.4789   21.4863 C   0  0  0  0  0  0  0  0  0  0  0  0
   49.6423   13.6568   20.6032 C   0  0  0  0  0  0  0  0  0  0  0  0
   47.1838   11.9736   19.9044 C   0  0  0  0  0  0  0  0  0  0  0  0
   47.1753   13.3862   17.7900 C   0  0  0  0  0  0  0  0  0  0  0  0
   47.5391    8.9697   18.5582 H   0  0  0  0  0  0  0  0  0  0  0  0
   48.2473   15.0543   19.4575 H   0  0  0  0  0  0  0  0  0  0  0  0
   46.7192   10.7348   20.9258 H   0  0  0  0  0  0  0  0  0  0  0  0
   46.1207   10.7680   19.2814 H   0  0  0  0  0  0  0  0  0  0  0  0
   46.6558   13.2375   18.8815 H   0  0  0  0  0  0  0  0  0  0  0  0
   49.6308    6.9038   20.3187 H   0  0  0  0  0  0  0  0  0  0  0  0
   48.5210    6.9181   18.9393 H   0  0  0  0  0  0  0  0  0  0  0  0
   47.9940    6.2214   20.4745 H   0  0  0  0  0  0  0  0  0  0  0  0
   47.7276    7.7856   22.5296 H   0  0  0  0  0  0  0  0  0  0  0  0
   49.2647    8.6234   22.2492 H   0  0  0  0  0  0  0  0  0  0  0  0
   47.7547    9.5335   22.3153 H   0  0  0  0  0  0  0  0  0  0  0  0
   49.2243   13.1694   17.4035 H   0  0  0  0  0  0  0  0  0  0  0  0
   49.6014   14.8765   17.5474 H   0  0  0  0  0  0  0  0  0  0  0  0
   47.9423   14.3843   17.1754 H   0  0  0  0  0  0  0  0  0  0  0  0
   48.4273   11.4839   18.4983 H   0  0  0  0  0  0  0  0  0  0  0  0
   48.9312   11.6115   20.1793 H   0  0  0  0  0  0  0  0  0  0  0  0
   47.8013   13.3460   21.7225 H   0  0  0  0  0  0  0  0  0  0  0  0
   46.7119   14.5564   21.0237 H   0  0  0  0  0  0  0  0  0  0  0  0
   46.1482   12.9109   21.2520 H   0  0  0  0  0  0  0  0  0  0  0  0
   46.3431   10.5588   18.8623 H   0  0  0  0  0  0  0  0  0  0  0  0
   46.4824   12.5419   20.2976 H   0  0  0  0  0  0  0  0  0  0  0  0
   47.3294    8.3606   19.5909 H   0  0  0  0  0  0  0  0  0  0  0  0
   49.3449   11.7592   19.4169 H   0  0  0  0  0  0  0  0  0  0  0  0
   49.4982    9.0019   18.7990 H   0  0  0  0  0  0  0  0  0  0  0  0
   49.5446   14.0887   19.7377 H   0  0  0  0  0  0  0  0  0  0  0  0
   46.0494   10.2690   21.6386 H   0  0  0  0  0  0  0  0  0  0  0  0
   48.1771   12.5754   21.8816 H   0  0  0  0  0  0  0  0  0  0  0  0
   47.2199   12.7066   16.5647 H   0  0  0  0  0  0  0  0  0  0  0  0
   48.6019    8.7924   22.8600 H   0  0  0  0  0  0  0  0  0  0  0  0
   46.2526    9.1850   19.7367 H   0  0  0  0  0  0  0  0  0  0  0  0
   49.5835   12.7801   18.7642 H   0  0  0  0  0  0  0  0  0  0  0  0
   48.8665   10.7310   19.3049 H   0  0  0  0  0  0  0  0  0  0  0  0
   47.4835   10.6097   18.2434 H   0  0  0  0  0  0  0  0  0  0  0  0
   47.1590   14.1172   19.7855 H   0  0  0  0  0  0  0  0  0  0  0  0
   50.0362    8.2845   20.9426 H   0  0  0  0  0  0  0  0  0  0  0  0
   49.3711    8.8651   22.4807 H   0  0  0  0  0  0  0  0  0  0  0  0
   49.6637   10.0065   21.1826 H   0  0  0  0  0  0  0  0  0  0  0  0
   47.9149    6.5965   21.2794 H   0  0  0  0  0  0  0  0  0  0  0  0
   47.2005    7.5857   22.5711 H   0  0  0  0  0  0  0  0  0  0  0  0
   46.2981    7.2928   21.0831 H   0  0  0  0  0  0  0  0  0  0  0  0
   49.6009   12.7169   21.1602 H   0  0  0  0  0  0  0  0  0  0  0  0
   49.1233   14.4338   21.1716 H   0  0  0  0  0  0  0  0  0  0  0  0
   50.6945   13.9478   20.5344 H   0  0  0  0  0  0  0  0  0  0  0  0
   47.4166   12.0044   20.9769 H   0  0  0  0  0  0  0  0  0  0  0  0
   46.0880   11.9229   19.8452 H   0  0  0  0  0  0  0  0  0  0  0  0
   46.0923   13.2459   17.7255 H   0  0  0  0  0  0  0  0  0  0  0  0
   47.4056   14.3725   17.3721 H   0  0  0  0  0  0  0  0  0  0  0  0
   47.6520   12.6367   17.1494 H   0  0  0  0  0  0  0  0  0  0  0  0
  2  1  2  3
  3  5  1  0
  4  2  1  0
  5  9  1  0
  6  1  1  0
  7  1  1  0
  8  3  1  0
  9  4  1  0
 10  5  1  0
 12 11  1  0
 13 11  1  0
 14 12  1  0
 15 13  1  0
 16 14  1  0
 17 15  2  0
 18 16  2  0
 13 19  1  0
 14 20  1  0
 11 21  1  0
 12 22  1  0
 23 16  1  0
 24 15  1  0
 26 25  2  3
 27 29  1  0
 28 26  1  0
 29 33  1  0
 30 25  1  0
 31 25  1  0
 32 27  1  0
 33 28  1  0
 34 29  1  0
  2 35  1  0
  3 36  1  0
  4 37  1  0
  4 38  1  0
  5 39  1  1
  6 40  1  0
  6 41  1  0
  6 42  1  0
  7 43  1  0
  7 44  1  0
  7 45  1  0
  8 46  1  0
  8 47  1  0
  8 48  1  0
  9 49  1  0
  9 50  1  0
 10 51  1  0
 10 52  1  0
 10 53  1  0
 11 54  1  1
 12 55  1  1
 13 56  1  1
 14 57  1  6
 19 58  1  0
 20 59  1  0
 21 60  1  0
 22 61  1  0
 23 62  1  0
 24 63  1  0
 26 64  1  0
 27 65  1  0
 28 66  1  0
 28 67  1  0
 29 68  1  6
 30 69  1  0
 30 70  1  0
 30 71  1  0
 31 72  1  0
 31 73  1  0
 31 74  1  0
 32 75  1  0
 32 76  1  0
 32 77  1  0
 33 78  1  0
 33 79  1  0
 34 80  1  0
 34 81  1  0
 34 82  1  0
M  END
> <Uni-Dock RESULT> 
ENERGY=   -5.114  LOWER_BOUND=    5.386  UPPER_BOUND=    7.288
INTER + INTRA:          -5.114
INTER:                  -5.114
INTRA:                   0.000
UNBOUND:                 0.000

$$$$

     RDKit          3D

 82 79  0  0  0  0  0  0  0  0999 V2000
   48.4301    3.4241   16.9041 C   0  0  0  0  0  0  0  0  0  0  0  0
   49.3503    4.1437   17.5744 C   0  0  0  0  0  0  0  0  0  0  0  0
   49.0947    5.9667   22.2043 N   0  0  0  0  0  0  0  0  0  0  0  0
   49.1414    5.3979   18.3796 C   0  0  0  0  0  0  0  0  0  0  0  0
   49.1134    6.3397   20.7761 C   0  0  1  0  0  0  0  0  0  0  0  0
   48.8296    2.1727   16.1660 C   0  0  0  0  0  0  0  0  0  0  0  0
   46.9612    3.7384   16.8369 C   0  0  0  0  0  0  0  0  0  0  0  0
   50.3787    5.4606   22.6767 C   0  0  0  0  0  0  0  0  0  0  0  0
   49.1152    5.0839   19.8802 C   0  0  0  0  0  0  0  0  0  0  0  0
   47.8839    7.2204   20.5129 C   0  0  0  0  0  0  0  0  0  0  0  0
   49.2508    5.4787   18.1236 C   0  0  1  0  0  0  0  0  0  0  0  0
   48.5625    5.9139   19.4358 C   0  0  2  0  0  0  0  0  0  0  0  0
   49.1181    3.9943   17.7334 C   0  0  2  0  0  0  0  0  0  0  0  0
   48.9196    5.1472   20.7166 C   0  0  1  0  0  0  0  0  0  0  0  0
   47.6774    3.4856   17.7355 C   0  0  0  0  0  0  0  0  0  0  0  0
   50.2878    5.4961   21.2908 C   0  0  0  0  0  0  0  0  0  0  0  0
   47.2706    2.5485   18.4113 O   0  0  0  0  0  0  0  0  0  0  0  0
   50.5103    5.6780   22.4805 O   0  0  0  0  0  0  0  0  0  0  0  0
   49.9223    3.1979   18.6166 O   0  0  0  0  0  0  0  0  0  0  0  0
   47.9192    5.5249   21.7003 O   0  0  0  0  0  0  0  0  0  0  0  0
   48.7492    6.3107   17.0582 O   0  0  0  0  0  0  0  0  0  0  0  0
   47.1272    5.8407   19.2336 O   0  0  0  0  0  0  0  0  0  0  0  0
   51.2897    5.5486   20.4010 O   0  0  0  0  0  0  0  0  0  0  0  0
   46.8677    4.1045   16.8555 O   0  0  0  0  0  0  0  0  0  0  0  0
   48.0587    3.8020   17.0307 C   0  0  0  0  0  0  0  0  0  0  0  0
   49.0398    4.5873   17.5162 C   0  0  0  0  0  0  0  0  0  0  0  0
   48.9135    5.2155   21.9752 N   0  0  0  0  0  0  0  0  0  0  0  0
   49.4799    4.7170   18.9501 C   0  0  0  0  0  0  0  0  0  0  0  0
   49.3669    6.2534   21.0415 C   0  0  2  0  0  0  0  0  0  0  0  0
   47.1602    2.9329   17.8680 C   0  0  0  0  0  0  0  0  0  0  0  0
   47.7747    3.7488   15.5521 C   0  0  0  0  0  0  0  0  0  0  0  0
   47.4652    5.1158   22.0695 C   0  0  0  0  0  0  0  0  0  0  0  0
   48.9725    6.0238   19.5656 C   0  0  0  0  0  0  0  0  0  0  0  0
   50.8841    6.3931   21.2014 C   0  0  0  0  0  0  0  0  0  0  0  0
   50.3846    3.7978   17.5623 H   0  0  0  0  0  0  0  0  0  0  0  0
   48.8549    6.7891   22.7627 H   0  0  0  0  0  0  0  0  0  0  0  0
   48.2274    5.9141   18.0735 H   0  0  0  0  0  0  0  0  0  0  0  0
   49.9671    6.0865   18.1590 H   0  0  0  0  0  0  0  0  0  0  0  0
   50.0044    6.9478   20.5675 H   0  0  0  0  0  0  0  0  0  0  0  0
   48.2579    1.3138   16.5378 H   0  0  0  0  0  0  0  0  0  0  0  0
   49.8941    1.9412   16.2851 H   0  0  0  0  0  0  0  0  0  0  0  0
   48.6353    2.2861   15.0951 H   0  0  0  0  0  0  0  0  0  0  0  0
   46.6315    3.7816   15.7947 H   0  0  0  0  0  0  0  0  0  0  0  0
   46.3901    2.9512   17.3424 H   0  0  0  0  0  0  0  0  0  0  0  0
   46.6941    4.6887   17.3030 H   0  0  0  0  0  0  0  0  0  0  0  0
   50.6765    4.5422   22.1636 H   0  0  0  0  0  0  0  0  0  0  0  0
   50.2992    5.2158   23.7387 H   0  0  0  0  0  0  0  0  0  0  0  0
   51.1719    6.2063   22.5595 H   0  0  0  0  0  0  0  0  0  0  0  0
   49.9918    4.4671   20.1141 H   0  0  0  0  0  0  0  0  0  0  0  0
   48.2324    4.4676   20.1048 H   0  0  0  0  0  0  0  0  0  0  0  0
   46.9539    6.6522   20.6146 H   0  0  0  0  0  0  0  0  0  0  0  0
   47.8430    8.0643   21.2109 H   0  0  0  0  0  0  0  0  0  0  0  0
   47.9145    7.6499   19.5077 H   0  0  0  0  0  0  0  0  0  0  0  0
   50.3186    5.7070   18.1937 H   0  0  0  0  0  0  0  0  0  0  0  0
   48.7568    6.9843   19.5871 H   0  0  0  0  0  0  0  0  0  0  0  0
   49.5066    3.8349   16.7201 H   0  0  0  0  0  0  0  0  0  0  0  0
   48.8287    4.0636   20.6100 H   0  0  0  0  0  0  0  0  0  0  0  0
   49.5854    2.2833   18.5445 H   0  0  0  0  0  0  0  0  0  0  0  0
   48.2861    5.2617   22.5695 H   0  0  0  0  0  0  0  0  0  0  0  0
   47.7768    6.3381   17.1841 H   0  0  0  0  0  0  0  0  0  0  0  0
   46.7523    5.9524   20.1350 H   0  0  0  0  0  0  0  0  0  0  0  0
   52.0924    5.7342   20.9348 H   0  0  0  0  0  0  0  0  0  0  0  0
   45.9860    3.7021   17.0048 H   0  0  0  0  0  0  0  0  0  0  0  0
   49.6158    5.1911   16.8152 H   0  0  0  0  0  0  0  0  0  0  0  0
   49.3042    4.3081   21.7233 H   0  0  0  0  0  0  0  0  0  0  0  0
   49.1529    3.8555   19.5375 H   0  0  0  0  0  0  0  0  0  0  0  0
   50.5752    4.6915   18.9611 H   0  0  0  0  0  0  0  0  0  0  0  0
   48.9287    7.2117   21.3535 H   0  0  0  0  0  0  0  0  0  0  0  0
   47.4395    1.8791   17.7504 H   0  0  0  0  0  0  0  0  0  0  0  0
   46.1198    3.0461   17.5457 H   0  0  0  0  0  0  0  0  0  0  0  0
   47.1862    3.1850   18.9303 H   0  0  0  0  0  0  0  0  0  0  0  0
   47.8614    2.7193   15.1855 H   0  0  0  0  0  0  0  0  0  0  0  0
   46.7598    4.1041   15.3485 H   0  0  0  0  0  0  0  0  0  0  0  0
   48.4632    4.3717   14.9726 H   0  0  0  0  0  0  0  0  0  0  0  0
   47.0179    4.7381   21.1462 H   0  0  0  0  0  0  0  0  0  0  0  0
   47.0135    6.0803   22.3186 H   0  0  0  0  0  0  0  0  0  0  0  0
   47.2041    4.4149   22.8677 H   0  0  0  0  0  0  0  0  0  0  0  0
   47.8794    6.0676   19.4721 H   0  0  0  0  0  0  0  0  0  0  0  0
   49.3500    6.8677   18.9723 H   0  0  0  0  0  0  0  0  0  0  0  0
   51.2697    7.1759   20.5417 H   0  0  0  0  0  0  0  0  0  0  0  0
   51.1405    6.6721   22.2294 H   0  0  0  0  0  0  0  0  0  0  0  0
   51.4148    5.4637   20.9693 H   0  0  0  0  0  0  0  0  0  0  0  0
  2  1  2  3
  3  5  1  0
  4  2  1  0
  5  9  1  0
  6  1  1  0
  7  1  1  0
  8  3  1  0
  9  4  1  0
 10  5  1  0
 12 11  1  0
 13 11  1  0
 14 12  1  0
 15 13  1  0
 16 14  1  0
 17 15  2  0
 18 16  2  0
 13 19  1  0
 14 20  1  0
 11 21  1  0
 12 22  1  0
 23 16  1  0
 24 15  1  0
 26 25  2  3
 27 29  1  0
 28 26  1  0
 29 33  1  0
 30 25  1  0
 31 25  1  0
 32 27  1  0
 33 28  1  0
 34 29  1  0
  2 35  1  0
  3 36  1  0
  4 37  1  0
  4 38  1  0
  5 39  1  1
  6 40  1  0
  6 41  1  0
  6 42  1  0
  7 43  1  0
  7 44  1  0
  7 45  1  0
  8 46  1  0
  8 47  1  0
  8 48  1  0
  9 49  1  0
  9 50  1  0
 10 51  1  0
 10 52  1  0
 10 53  1  0
 11 54  1  1
 12 55  1  1
 13 56  1  1
 14 57  1  6
 19 58  1  0
 20 59  1  0
 21 60  1  0
 22 61  1  0
 23 62  1  0
 24 63  1  0
 26 64  1  0
 27 65  1  0
 28 66  1  0
 28 67  1  0
 29 68  1  6
 30 69  1  0
 30 70  1  0
 30 71  1  0
 31 72  1  0
 31 73  1  0
 31 74  1  0
 32 75  1  0
 32 76  1  0
 32 77  1  0
 33 78  1  0
 33 79  1  0
 34 80  1  0
 34 81  1  0
 34 82  1  0
M  END
> <Uni-Dock RESULT> 
ENERGY=   -4.995  LOWER_BOUND=    1.748  UPPER_BOUND=    4.741
INTER + INTRA:          -4.995
INTER:                  -4.995
INTRA:                   0.000
UNBOUND:                 0.000

$$$$

     RDKit          3D

 82 79  0  0  0  0  0  0  0  0999 V2000
   39.8490   11.2335   11.6681 C   0  0  0  0  0  0  0  0  0  0  0  0
   41.1673   11.1340   11.9251 C   0  0  0  0  0  0  0  0  0  0  0  0
   44.9891   12.9296    9.2805 N   0  0  0  0  0  0  0  0  0  0  0  0
   42.2726   10.7605   10.9744 C   0  0  0  0  0  0  0  0  0  0  0  0
   44.3052   11.6887    9.6946 C   0  0  1  0  0  0  0  0  0  0  0  0
   38.8890   11.6455   12.7540 C   0  0  0  0  0  0  0  0  0  0  0  0
   39.2035   10.9937   10.3314 C   0  0  0  0  0  0  0  0  0  0  0  0
   45.6848   13.5894   10.3798 C   0  0  0  0  0  0  0  0  0  0  0  0
   43.0316   12.0072   10.5046 C   0  0  0  0  0  0  0  0  0  0  0  0
   43.9819   10.8931    8.4221 C   0  0  0  0  0  0  0  0  0  0  0  0
   42.2142   10.5251   11.1333 C   0  0  1  0  0  0  0  0  0  0  0  0
   42.9244   11.1095    9.8927 C   0  0  2  0  0  0  0  0  0  0  0  0
   41.0605   11.3574   11.7246 C   0  0  2  0  0  0  0  0  0  0  0  0
   43.4929   12.5312   10.0001 C   0  0  1  0  0  0  0  0  0  0  0  0
   40.0101   11.7695   10.6943 C   0  0  0  0  0  0  0  0  0  0  0  0
   44.7794   12.6283   10.8117 C   0  0  0  0  0  0  0  0  0  0  0  0
   39.6940   12.9266   10.4465 O   0  0  0  0  0  0  0  0  0  0  0  0
   45.7531   13.2934   10.4837 O   0  0  0  0  0  0  0  0  0  0  0  0
   41.5979   12.5208   12.3717 O   0  0  0  0  0  0  0  0  0  0  0  0
   43.7970   12.9436    8.6405 O   0  0  0  0  0  0  0  0  0  0  0  0
   41.7422    9.2047   10.7978 O   0  0  0  0  0  0  0  0  0  0  0  0
   41.9930   11.0627    8.7806 O   0  0  0  0  0  0  0  0  0  0  0  0
   44.7777   11.9628   11.9759 O   0  0  0  0  0  0  0  0  0  0  0  0
   39.3719   10.7390   10.1080 O   0  0  0  0  0  0  0  0  0  0  0  0
   39.9448   11.0503   11.1642 C   0  0  0  0  0  0  0  0  0  0  0  0
   41.2155   10.7758   11.5177 C   0  0  0  0  0  0  0  0  0  0  0  0
   44.3247   13.3322    9.4950 N   0  0  0  0  0  0  0  0  0  0  0  0
   42.4298   11.6391   11.3016 C   0  0  0  0  0  0  0  0  0  0  0  0
   44.5592   11.9254    9.8417 C   0  0  2  0  0  0  0  0  0  0  0  0
   39.5080   12.2789   10.4136 C   0  0  0  0  0  0  0  0  0  0  0  0
   38.8282   10.0966   11.5007 C   0  0  0  0  0  0  0  0  0  0  0  0
   43.5592   13.5058    8.2703 C   0  0  0  0  0  0  0  0  0  0  0  0
   43.2862   11.1061   10.1499 C   0  0  0  0  0  0  0  0  0  0  0  0
   45.5447   11.8925   11.0141 C   0  0  0  0  0  0  0  0  0  0  0  0
   41.5140   11.3545   12.9354 H   0  0  0  0  0  0  0  0  0  0  0  0
   45.6786   12.7079    8.5586 H   0  0  0  0  0  0  0  0  0  0  0  0
   41.8843   10.1964   10.1221 H   0  0  0  0  0  0  0  0  0  0  0  0
   42.9593   10.0836   11.4987 H   0  0  0  0  0  0  0  0  0  0  0  0
   44.9889   11.0775   10.2998 H   0  0  0  0  0  0  0  0  0  0  0  0
   38.3368   12.5437   12.4518 H   0  0  0  0  0  0  0  0  0  0  0  0
   39.3992   11.8698   13.6975 H   0  0  0  0  0  0  0  0  0  0  0  0
   38.1718   10.8427   12.9503 H   0  0  0  0  0  0  0  0  0  0  0  0
   38.3932   10.2652   10.4287 H   0  0  0  0  0  0  0  0  0  0  0  0
   38.7767   11.9293    9.9524 H   0  0  0  0  0  0  0  0  0  0  0  0
   39.8921   10.6159    9.5732 H   0  0  0  0  0  0  0  0  0  0  0  0
   45.0008   13.9111   11.1699 H   0  0  0  0  0  0  0  0  0  0  0  0
   46.1769   14.4899   10.0042 H   0  0  0  0  0  0  0  0  0  0  0  0
   46.4520   12.9413   10.8162 H   0  0  0  0  0  0  0  0  0  0  0  0
   43.2977   12.5975   11.3903 H   0  0  0  0  0  0  0  0  0  0  0  0
   42.3578   12.6350    9.9034 H   0  0  0  0  0  0  0  0  0  0  0  0
   43.2323   11.4036    7.8091 H   0  0  0  0  0  0  0  0  0  0  0  0
   44.8774   10.7450    7.8080 H   0  0  0  0  0  0  0  0  0  0  0  0
   43.6039    9.8964    8.6657 H   0  0  0  0  0  0  0  0  0  0  0  0
   42.9542   10.3777   11.9257 H   0  0  0  0  0  0  0  0  0  0  0  0
   43.7263   10.4189    9.5988 H   0  0  0  0  0  0  0  0  0  0  0  0
   40.5356   10.7797   12.4952 H   0  0  0  0  0  0  0  0  0  0  0  0
   42.7666   13.2591   10.3697 H   0  0  0  0  0  0  0  0  0  0  0  0
   40.8581   13.1538   12.4564 H   0  0  0  0  0  0  0  0  0  0  0  0
   44.3937   13.7159    8.7225 H   0  0  0  0  0  0  0  0  0  0  0  0
   41.3210    9.2941    9.9165 H   0  0  0  0  0  0  0  0  0  0  0  0
   42.4274   11.5995    8.0816 H   0  0  0  0  0  0  0  0  0  0  0  0
   45.6464   12.1669   12.3851 H   0  0  0  0  0  0  0  0  0  0  0  0
   38.7715   11.1584    9.4559 H   0  0  0  0  0  0  0  0  0  0  0  0
   41.4179    9.8428   12.0433 H   0  0  0  0  0  0  0  0  0  0  0  0
   43.8615   13.8201   10.2612 H   0  0  0  0  0  0  0  0  0  0  0  0
   42.1426   12.6788   11.1263 H   0  0  0  0  0  0  0  0  0  0  0  0
   43.0041   11.6379   12.2347 H   0  0  0  0  0  0  0  0  0  0  0  0
   45.0639   11.4418    8.9936 H   0  0  0  0  0  0  0  0  0  0  0  0
   38.9882   12.9682   11.0897 H   0  0  0  0  0  0  0  0  0  0  0  0
   38.8154   12.0037    9.6114 H   0  0  0  0  0  0  0  0  0  0  0  0
   40.3363   12.8111    9.9408 H   0  0  0  0  0  0  0  0  0  0  0  0
   38.0622   10.6044   12.0983 H   0  0  0  0  0  0  0  0  0  0  0  0
   38.3605    9.7228   10.5846 H   0  0  0  0  0  0  0  0  0  0  0  0
   39.1778    9.2289   12.0685 H   0  0  0  0  0  0  0  0  0  0  0  0
   42.5244   13.1706    8.3809 H   0  0  0  0  0  0  0  0  0  0  0  0
   44.0203   12.9756    7.4321 H   0  0  0  0  0  0  0  0  0  0  0  0
   43.5309   14.5682    8.0112 H   0  0  0  0  0  0  0  0  0  0  0  0
   42.6713   11.0381    9.2428 H   0  0  0  0  0  0  0  0  0  0  0  0
   43.5866   10.0741   10.3766 H   0  0  0  0  0  0  0  0  0  0  0  0
   45.7730   10.8603   11.2957 H   0  0  0  0  0  0  0  0  0  0  0  0
   46.4887   12.3759   10.7393 H   0  0  0  0  0  0  0  0  0  0  0  0
   45.1561   12.4064   11.8996 H   0  0  0  0  0  0  0  0  0  0  0  0
  2  1  2  3
  3  5  1  0
  4  2  1  0
  5  9  1  0
  6  1  1  0
  7  1  1  0
  8  3  1  0
  9  4  1  0
 10  5  1  0
 12 11  1  0
 13 11  1  0
 14 12  1  0
 15 13  1  0
 16 14  1  0
 17 15  2  0
 18 16  2  0
 13 19  1  0
 14 20  1  0
 11 21  1  0
 12 22  1  0
 23 16  1  0
 24 15  1  0
 26 25  2  3
 27 29  1  0
 28 26  1  0
 29 33  1  0
 30 25  1  0
 31 25  1  0
 32 27  1  0
 33 28  1  0
 34 29  1  0
  2 35  1  0
  3 36  1  0
  4 37  1  0
  4 38  1  0
  5 39  1  1
  6 40  1  0
  6 41  1  0
  6 42  1  0
  7 43  1  0
  7 44  1  0
  7 45  1  0
  8 46  1  0
  8 47  1  0
  8 48  1  0
  9 49  1  0
  9 50  1  0
 10 51  1  0
 10 52  1  0
 10 53  1  0
 11 54  1  1
 12 55  1  1
 13 56  1  1
 14 57  1  6
 19 58  1  0
 20 59  1  0
 21 60  1  0
 22 61  1  0
 23 62  1  0
 24 63  1  0
 26 64  1  0
 27 65  1  0
 28 66  1  0
 28 67  1  0
 29 68  1  6
 30 69  1  0
 30 70  1  0
 30 71  1  0
 31 72  1  0
 31 73  1  0
 31 74  1  0
 32 75  1  0
 32 76  1  0
 32 77  1  0
 33 78  1  0
 33 79  1  0
 34 80  1  0
 34 81  1  0
 34 82  1  0
M  END
> <Uni-Dock RESULT> 
ENERGY=   -4.904  LOWER_BOUND=   11.945  UPPER_BOUND=   13.547
INTER + INTRA:          -4.904
INTER:                  -4.904
INTRA:                   0.000
UNBOUND:                 0.000

$$$$
