
     RDKit          3D

116115  0  0  0  0  0  0  0  0999 V2000
    0.0029    0.3972    0.0000 O   0  0  0  0  0  0  0  0  0  0  0  0
   -5.5283   -3.3978   -0.1676 O   0  0  0  0  0  0  0  0  0  0  0  0
   -2.1851    1.8367   -1.0074 O   0  0  0  0  0  0  0  0  0  0  0  0
    5.6596   -2.3960    0.7257 O   0  0  0  0  0  0  0  0  0  0  0  0
   -6.4219    1.2990    1.3458 O   0  0  0  0  0  0  0  0  0  0  0  0
   -6.2700   -0.9792    0.8187 N   0  0  0  0  0  0  0  0  0  0  0  0
    0.6004    1.7126   -0.6612 N   0  0  0  0  0  0  0  0  0  0  0  0
   -2.6754   -0.3574   -0.1341 C   0  0  0  0  0  0  0  0  0  0  0  0
   -4.9460   -1.1401    0.3591 C   0  0  0  0  0  0  0  0  0  0  0  0
   -4.5895   -2.4012   -0.1270 C   0  0  0  0  0  0  0  0  0  0  0  0
   -3.9880   -0.1258    0.3480 C   0  0  0  0  0  0  0  0  0  0  0  0
   -1.6984    0.8077   -0.1251 C   0  0  1  0  0  0  0  0  0  0  0  0
   -2.3486   -1.6400   -0.5929 C   0  0  0  0  0  0  0  0  0  0  0  0
   -3.3025   -2.6601   -0.5943 C   0  0  0  0  0  0  0  0  0  0  0  0
   -0.2325    0.5003   -0.5341 C   0  0  0  0  0  0  0  0  0  0  0  0
    3.4239    1.1351    0.5783 C   0  0  0  0  0  0  0  0  0  0  0  0
    1.0960    2.2047    0.6366 C   0  0  1  0  0  0  0  0  0  0  0  0
    2.6255    2.4188    0.5652 C   0  0  0  0  0  0  0  0  0  0  0  0
    4.9210   -1.2531    0.5884 C   0  0  0  0  0  0  0  0  0  0  0  0
    3.7411    0.4850   -0.6197 C   0  0  0  0  0  0  0  0  0  0  0  0
    3.8592    0.5749    1.7845 C   0  0  0  0  0  0  0  0  0  0  0  0
   -6.8811    0.1703    1.2598 C   0  0  0  0  0  0  0  0  0  0  0  0
    4.4841   -0.7008   -0.6148 C   0  0  0  0  0  0  0  0  0  0  0  0
    4.5956   -0.6143    1.7857 C   0  0  0  0  0  0  0  0  0  0  0  0
    0.4215    3.5392    0.9743 C   0  0  0  0  0  0  0  0  0  0  0  0
    6.1239   -3.0019   -0.4714 C   0  0  0  0  0  0  0  0  0  0  0  0
   -2.3584    0.1376    0.6778 O   0  0  0  0  0  0  0  0  0  0  0  0
    2.3665   -0.1851   -0.6021 O   0  0  0  0  0  0  0  0  0  0  0  0
   -2.4562   -1.2355   -1.0860 O   0  0  0  0  0  0  0  0  0  0  0  0
    2.4437    1.3169    1.0510 O   0  0  0  0  0  0  0  0  0  0  0  0
   -1.7962   -0.5537   -0.3229 C   0  0  0  0  0  0  0  0  0  0  0  0
    1.7939    0.5674    0.3486 C   0  0  0  0  0  0  0  0  0  0  0  0
   -0.3423   -0.4013   -0.3968 C   0  0  0  0  0  0  0  0  0  0  0  0
    0.3438    0.3938    0.4380 C   0  0  0  0  0  0  0  0  0  0  0  0
    6.3982   -3.2024   -0.6769 O   0  0  0  0  0  0  0  0  0  0  0  0
    2.7975    2.0059   -0.0548 O   0  0  0  0  0  0  0  0  0  0  0  0
   -7.6515    0.6031    0.7169 O   0  0  0  0  0  0  0  0  0  0  0  0
    8.4245   -2.0020   -1.5165 O   0  0  0  0  0  0  0  0  0  0  0  0
    7.0942   -0.2359   -0.8035 N   0  0  0  0  0  0  0  0  0  0  0  0
    0.1434    1.5583    0.4193 N   0  0  0  0  0  0  0  0  0  0  0  0
    3.5261   -0.2929    0.1950 C   0  0  0  0  0  0  0  0  0  0  0  0
    5.8435   -0.8164   -0.4926 C   0  0  0  0  0  0  0  0  0  0  0  0
    5.5382   -2.1776   -0.4140 C   0  0  0  0  0  0  0  0  0  0  0  0
    4.8242    0.1043   -0.1818 C   0  0  0  0  0  0  0  0  0  0  0  0
    2.4846    0.7471    0.5678 C   0  0  2  0  0  0  0  0  0  0  0  0
    3.2713   -1.6643    0.2997 C   0  0  0  0  0  0  0  0  0  0  0  0
    4.2676   -2.5921   -0.0055 C   0  0  0  0  0  0  0  0  0  0  0  0
    1.0212    0.3885    0.1870 C   0  0  0  0  0  0  0  0  0  0  0  0
   -3.4802    0.3210    0.7788 C   0  0  0  0  0  0  0  0  0  0  0  0
   -1.2713    1.3601    0.0203 C   0  0  2  0  0  0  0  0  0  0  0  0
   -1.9706    0.2509    0.8430 C   0  0  0  0  0  0  0  0  0  0  0  0
   -6.2919    0.4580    0.6633 C   0  0  0  0  0  0  0  0  0  0  0  0
   -4.1872    1.1964    1.6154 C   0  0  0  0  0  0  0  0  0  0  0  0
   -4.1929   -0.4777   -0.1211 C   0  0  0  0  0  0  0  0  0  0  0  0
    8.2578   -0.8360   -1.2033 C   0  0  0  0  0  0  0  0  0  0  0  0
   -5.5811    1.2667    1.5534 C   0  0  0  0  0  0  0  0  0  0  0  0
   -5.5895   -0.4119   -0.1761 C   0  0  0  0  0  0  0  0  0  0  0  0
   -1.4151    1.1396   -1.4881 C   0  0  0  0  0  0  0  0  0  0  0  0
   -8.4263   -0.2832   -0.0739 C   0  0  0  0  0  0  0  0  0  0  0  0
    0.0105    0.3974    0.0000 O   0  0  0  0  0  0  0  0  0  0  0  0
   -0.7647   -0.1931    0.0000 H   0  0  0  0  0  0  0  0  0  0  0  0
    0.7619   -0.2041    0.0000 H   0  0  0  0  0  0  0  0  0  0  0  0
   -5.4952   -3.7696   -1.0735 H   0  0  0  0  0  0  0  0  0  0  0  0
   -2.8396    1.4304   -1.6003 H   0  0  0  0  0  0  0  0  0  0  0  0
   -6.8205   -1.8303    0.8010 H   0  0  0  0  0  0  0  0  0  0  0  0
   -0.0088    2.4224   -1.0948 H   0  0  0  0  0  0  0  0  0  0  0  0
   -4.2371    0.8683    0.7250 H   0  0  0  0  0  0  0  0  0  0  0  0
   -1.6900    1.2288    0.8872 H   0  0  0  0  0  0  0  0  0  0  0  0
   -1.3476   -1.8770   -0.9530 H   0  0  0  0  0  0  0  0  0  0  0  0
   -3.0275   -3.6489   -0.9444 H   0  0  0  0  0  0  0  0  0  0  0  0
    0.2289   -0.2322    0.1390 H   0  0  0  0  0  0  0  0  0  0  0  0
   -0.2327    0.0513   -1.5330 H   0  0  0  0  0  0  0  0  0  0  0  0
    0.8751    1.4976    1.4485 H   0  0  0  0  0  0  0  0  0  0  0  0
    2.8910    3.0107   -0.3228 H   0  0  0  0  0  0  0  0  0  0  0  0
    2.9526    3.0286    1.4175 H   0  0  0  0  0  0  0  0  0  0  0  0
    3.4066    0.9028   -1.5705 H   0  0  0  0  0  0  0  0  0  0  0  0
    3.6366    1.0563    2.7330 H   0  0  0  0  0  0  0  0  0  0  0  0
   -7.9263   -0.0397    1.5445 H   0  0  0  0  0  0  0  0  0  0  0  0
    4.6934   -1.1681   -1.5689 H   0  0  0  0  0  0  0  0  0  0  0  0
    4.9276   -1.0423    2.7283 H   0  0  0  0  0  0  0  0  0  0  0  0
    0.7660    3.9013    1.9479 H   0  0  0  0  0  0  0  0  0  0  0  0
    0.6468    4.3087    0.2290 H   0  0  0  0  0  0  0  0  0  0  0  0
   -0.6661    3.4359    1.0273 H   0  0  0  0  0  0  0  0  0  0  0  0
    6.7884   -2.3262   -1.0262 H   0  0  0  0  0  0  0  0  0  0  0  0
    5.2880   -3.3367   -1.0999 H   0  0  0  0  0  0  0  0  0  0  0  0
    6.7060   -3.8890   -0.1964 H   0  0  0  0  0  0  0  0  0  0  0  0
   -3.3134   -0.0679    0.6021 H   0  0  0  0  0  0  0  0  0  0  0  0
    3.3176    0.0370   -0.5315 H   0  0  0  0  0  0  0  0  0  0  0  0
    0.1368   -0.9833   -1.1782 H   0  0  0  0  0  0  0  0  0  0  0  0
   -0.1360    0.9740    1.2217 H   0  0  0  0  0  0  0  0  0  0  0  0
    7.1975   -2.8505   -1.1245 H   0  0  0  0  0  0  0  0  0  0  0  0
    1.9365    2.4733   -0.1012 H   0  0  0  0  0  0  0  0  0  0  0  0
    7.1329    0.7725   -0.7125 H   0  0  0  0  0  0  0  0  0  0  0  0
    0.1573    1.7926    1.4141 H   0  0  0  0  0  0  0  0  0  0  0  0
    5.0368    1.1732   -0.2321 H   0  0  0  0  0  0  0  0  0  0  0  0
    2.5470    0.9060    1.6511 H   0  0  0  0  0  0  0  0  0  0  0  0
    2.3066   -2.0405    0.6353 H   0  0  0  0  0  0  0  0  0  0  0  0
    4.0579   -3.6574    0.0845 H   0  0  0  0  0  0  0  0  0  0  0  0
    0.6751   -0.4676    0.7786 H   0  0  0  0  0  0  0  0  0  0  0  0
    0.9985    0.1181   -0.8722 H   0  0  0  0  0  0  0  0  0  0  0  0
   -1.7654    2.3157    0.2368 H   0  0  0  0  0  0  0  0  0  0  0  0
   -1.6322   -0.7366    0.5178 H   0  0  0  0  0  0  0  0  0  0  0  0
   -1.6784    0.3269    1.8973 H   0  0  0  0  0  0  0  0  0  0  0  0
   -3.6596    1.8244    2.3273 H   0  0  0  0  0  0  0  0  0  0  0  0
   -3.6656   -1.1590   -0.7892 H   0  0  0  0  0  0  0  0  0  0  0  0
    9.0864   -0.1026   -1.2420 H   0  0  0  0  0  0  0  0  0  0  0  0
   -6.1160    1.9420    2.2175 H   0  0  0  0  0  0  0  0  0  0  0  0
   -6.0975   -1.0489   -0.8910 H   0  0  0  0  0  0  0  0  0  0  0  0
   -0.8313    1.8748   -2.0546 H   0  0  0  0  0  0  0  0  0  0  0  0
   -2.4593    1.2470   -1.8026 H   0  0  0  0  0  0  0  0  0  0  0  0
   -1.0894    0.1368   -1.7769 H   0  0  0  0  0  0  0  0  0  0  0  0
   -8.2691   -0.0930   -1.1415 H   0  0  0  0  0  0  0  0  0  0  0  0
   -9.4815   -0.0899    0.1470 H   0  0  0  0  0  0  0  0  0  0  0  0
   -8.2220   -1.3318    0.1810 H   0  0  0  0  0  0  0  0  0  0  0  0
    0.7584   -0.2191    0.0000 H   0  0  0  0  0  0  0  0  0  0  0  0
   -0.7689   -0.1783    0.0000 H   0  0  0  0  0  0  0  0  0  0  0  0
  2 10  1  0
  3 12  1  0
  4 19  1  0
  4 26  1  0
  5 22  2  0
  6  9  1  0
  6 22  1  0
  7 15  1  0
  7 17  1  0
  8 11  2  0
  8 12  1  0
  8 13  1  0
  9 10  2  0
  9 11  1  0
 10 14  1  0
 12 15  1  0
 13 14  2  0
 16 18  1  0
 16 20  2  0
 16 21  1  0
 17 18  1  0
 17 25  1  0
 19 23  2  0
 19 24  1  0
 20 23  1  0
 21 24  2  0
 27 31  1  0
 28 32  1  0
 29 31  2  0
 30 32  2  0
 31 33  1  0
 32 34  1  0
 33 34  2  0
 35 43  1  0
 36 45  1  0
 37 52  1  0
 37 59  1  0
 38 55  2  0
 39 42  1  0
 39 55  1  0
 40 48  1  0
 40 50  1  0
 41 44  2  0
 41 45  1  0
 41 46  1  0
 42 43  2  0
 42 44  1  0
 43 47  1  0
 45 48  1  0
 46 47  2  0
 49 51  1  0
 49 53  2  0
 49 54  1  0
 50 51  1  0
 50 58  1  0
 52 56  2  0
 52 57  1  0
 53 56  1  0
 54 57  2  0
  1 61  1  0
  1 62  1  0
  2 63  1  0
  3 64  1  0
  6 65  1  0
  7 66  1  0
 11 67  1  0
 12 68  1  1
 13 69  1  0
 14 70  1  0
 15 71  1  0
 15 72  1  0
 17 73  1  1
 18 74  1  0
 18 75  1  0
 20 76  1  0
 21 77  1  0
 22 78  1  0
 23 79  1  0
 24 80  1  0
 25 81  1  0
 25 82  1  0
 25 83  1  0
 26 84  1  0
 26 85  1  0
 26 86  1  0
 27 87  1  0
 28 88  1  0
 33 89  1  0
 34 90  1  0
 35 91  1  0
 36 92  1  0
 39 93  1  0
 40 94  1  0
 44 95  1  0
 45 96  1  1
 46 97  1  0
 47 98  1  0
 48 99  1  0
 48100  1  0
 50101  1  1
 51102  1  0
 51103  1  0
 53104  1  0
 54105  1  0
 55106  1  0
 56107  1  0
 57108  1  0
 58109  1  0
 58110  1  0
 58111  1  0
 59112  1  0
 59113  1  0
 59114  1  0
 60115  1  0
 60116  1  0
M  END
$$$$
