
     RDKit          3D

116115  0  0  0  0  0  0  0  0999 V2000
   -0.0097    0.3982    0.0000 O   0  0  0  0  0  0  0  0  0  0  0  0
   -5.9231   -0.8541    2.7887 O   0  0  0  0  0  0  0  0  0  0  0  0
   -1.1459    2.1524    0.0888 O   0  0  0  0  0  0  0  0  0  0  0  0
    5.3635   -1.3755    2.3373 O   0  0  0  0  0  0  0  0  0  0  0  0
   -7.6990   -1.1498    1.0392 O   0  0  0  0  0  0  0  0  0  0  0  0
   -5.8292   -0.6881   -0.2695 N   0  0  0  0  0  0  0  0  0  0  0  0
    0.5931    0.0666   -1.6253 N   0  0  0  0  0  0  0  0  0  0  0  0
   -2.4289    0.2771    0.8190 C   0  0  0  0  0  0  0  0  0  0  0  0
   -4.7932   -0.4033    0.6474 C   0  0  0  0  0  0  0  0  0  0  0  0
   -4.8400   -0.4915    2.0461 C   0  0  0  0  0  0  0  0  0  0  0  0
   -3.5785   -0.0022    0.0557 C   0  0  0  0  0  0  0  0  0  0  0  0
   -1.1194    0.7263    0.1951 C   0  0  1  0  0  0  0  0  0  0  0  0
   -2.5172    0.1832    2.2127 C   0  0  0  0  0  0  0  0  0  0  0  0
   -3.7108   -0.1982    2.8185 C   0  0  0  0  0  0  0  0  0  0  0  0
   -0.8187    0.0992   -1.1967 C   0  0  0  0  0  0  0  0  0  0  0  0
    3.4972    0.5124   -0.8870 C   0  0  0  0  0  0  0  0  0  0  0  0
    1.2427    1.3856   -1.7582 C   0  0  1  0  0  0  0  0  0  0  0  0
    2.7646    1.2079   -2.0136 C   0  0  0  0  0  0  0  0  0  0  0  0
    4.7769   -0.8328    1.2267 C   0  0  0  0  0  0  0  0  0  0  0  0
    4.0121   -0.7784   -1.0693 C   0  0  0  0  0  0  0  0  0  0  0  0
    3.6488    1.1323    0.3585 C   0  0  0  0  0  0  0  0  0  0  0  0
   -7.1293   -1.0418   -0.0346 C   0  0  0  0  0  0  0  0  0  0  0  0
    4.6420   -1.4489   -0.0154 C   0  0  0  0  0  0  0  0  0  0  0  0
    4.2855    0.4607    1.4025 C   0  0  0  0  0  0  0  0  0  0  0  0
    0.6332    2.1989   -2.9069 C   0  0  0  0  0  0  0  0  0  0  0  0
    5.7611   -2.7373    2.2518 C   0  0  0  0  0  0  0  0  0  0  0  0
   -2.8415   -0.2013   -0.6018 O   0  0  0  0  0  0  0  0  0  0  0  0
    2.8412    0.1875    0.6082 O   0  0  0  0  0  0  0  0  0  0  0  0
   -2.0815    0.7256    1.2973 O   0  0  0  0  0  0  0  0  0  0  0  0
    2.0821   -0.7099   -1.3028 O   0  0  0  0  0  0  0  0  0  0  0  0
   -1.8602    0.1831    0.2297 C   0  0  0  0  0  0  0  0  0  0  0  0
    1.8600   -0.1804   -0.2314 C   0  0  0  0  0  0  0  0  0  0  0  0
   -0.5547   -0.1511   -0.3420 C   0  0  0  0  0  0  0  0  0  0  0  0
    0.5544    0.1457    0.3462 C   0  0  0  0  0  0  0  0  0  0  0  0
   -5.5751    2.3230    1.9945 O   0  0  0  0  0  0  0  0  0  0  0  0
   -2.1521   -2.1303   -1.0483 O   0  0  0  0  0  0  0  0  0  0  0  0
    6.7844   -1.5592    0.2883 O   0  0  0  0  0  0  0  0  0  0  0  0
   -6.8565    3.0601   -0.0201 O   0  0  0  0  0  0  0  0  0  0  0  0
   -5.7853    1.1529   -0.8241 N   0  0  0  0  0  0  0  0  0  0  0  0
    0.2866   -1.1968   -0.5791 N   0  0  0  0  0  0  0  0  0  0  0  0
   -2.9860   -0.7118    0.7414 C   0  0  0  0  0  0  0  0  0  0  0  0
   -4.8666    0.7964    0.1945 C   0  0  0  0  0  0  0  0  0  0  0  0
   -4.7856    1.3314    1.4863 C   0  0  0  0  0  0  0  0  0  0  0  0
   -3.9667   -0.2318   -0.1514 C   0  0  0  0  0  0  0  0  0  0  0  0
   -2.0104   -1.8016    0.3432 C   0  0  2  0  0  0  0  0  0  0  0  0
   -2.9627   -0.1759    2.0362 C   0  0  0  0  0  0  0  0  0  0  0  0
   -3.8506    0.8361    2.3991 C   0  0  0  0  0  0  0  0  0  0  0  0
   -0.5059   -1.5010    0.6373 C   0  0  0  0  0  0  0  0  0  0  0  0
    2.9875    0.1914    0.2608 C   0  0  0  0  0  0  0  0  0  0  0  0
    0.6396    0.2286   -0.7686 C   0  0  2  0  0  0  0  0  0  0  0  0
    1.6099    0.8112    0.2903 C   0  0  0  0  0  0  0  0  0  0  0  0
    5.5690   -0.9378    0.2041 C   0  0  0  0  0  0  0  0  0  0  0  0
    3.9252    0.5979   -0.6989 C   0  0  0  0  0  0  0  0  0  0  0  0
    3.3509   -0.7943    1.1860 C   0  0  0  0  0  0  0  0  0  0  0  0
   -6.6924    2.1786   -0.8547 C   0  0  0  0  0  0  0  0  0  0  0  0
    5.2088    0.0420   -0.7212 C   0  0  0  0  0  0  0  0  0  0  0  0
    4.6288   -1.3600    1.1442 C   0  0  0  0  0  0  0  0  0  0  0  0
   -0.5870    1.1295   -0.9084 C   0  0  0  0  0  0  0  0  0  0  0  0
    7.8321   -1.0205   -0.5115 C   0  0  0  0  0  0  0  0  0  0  0  0
   -0.1086    0.3827    0.0000 O   0  0  0  0  0  0  0  0  0  0  0  0
    0.7669   -0.1811    0.0000 H   0  0  0  0  0  0  0  0  0  0  0  0
   -0.7572   -0.2171    0.0000 H   0  0  0  0  0  0  0  0  0  0  0  0
   -6.6910   -1.0027    2.1932 H   0  0  0  0  0  0  0  0  0  0  0  0
   -2.0076    2.4679    0.4110 H   0  0  0  0  0  0  0  0  0  0  0  0
   -5.5777   -0.6270   -1.2471 H   0  0  0  0  0  0  0  0  0  0  0  0
    1.1183   -0.4738   -0.9341 H   0  0  0  0  0  0  0  0  0  0  0  0
   -3.5222    0.1001   -1.0258 H   0  0  0  0  0  0  0  0  0  0  0  0
   -0.2984    0.4611    0.8742 H   0  0  0  0  0  0  0  0  0  0  0  0
   -1.6516    0.4084    2.8394 H   0  0  0  0  0  0  0  0  0  0  0  0
   -3.7713   -0.2584    3.9030 H   0  0  0  0  0  0  0  0  0  0  0  0
   -1.1370   -0.9496   -1.1782 H   0  0  0  0  0  0  0  0  0  0  0  0
   -1.4223    0.5829   -1.9733 H   0  0  0  0  0  0  0  0  0  0  0  0
    1.1326    1.9522   -0.8272 H   0  0  0  0  0  0  0  0  0  0  0  0
    3.2329    2.1885   -2.1668 H   0  0  0  0  0  0  0  0  0  0  0  0
    2.9189    0.6595   -2.9519 H   0  0  0  0  0  0  0  0  0  0  0  0
    3.9078   -1.2765   -2.0307 H   0  0  0  0  0  0  0  0  0  0  0  0
    3.2732    2.1385    0.5236 H   0  0  0  0  0  0  0  0  0  0  0  0
   -7.6649   -1.2204   -0.9830 H   0  0  0  0  0  0  0  0  0  0  0  0
    5.0236   -2.4449   -0.2057 H   0  0  0  0  0  0  0  0  0  0  0  0
    4.3851    0.9455    2.3721 H   0  0  0  0  0  0  0  0  0  0  0  0
    0.6571    1.6424   -3.8504 H   0  0  0  0  0  0  0  0  0  0  0  0
   -0.4042    2.4779   -2.6956 H   0  0  0  0  0  0  0  0  0  0  0  0
    1.1924    3.1272   -3.0539 H   0  0  0  0  0  0  0  0  0  0  0  0
    6.5574   -2.8772    1.5131 H   0  0  0  0  0  0  0  0  0  0  0  0
    4.9066   -3.3846    2.0323 H   0  0  0  0  0  0  0  0  0  0  0  0
    6.1548   -3.0375    3.2273 H   0  0  0  0  0  0  0  0  0  0  0  0
   -3.6653    0.0545   -0.1396 H   0  0  0  0  0  0  0  0  0  0  0  0
    3.6651   -0.0502    0.1335 H   0  0  0  0  0  0  0  0  0  0  0  0
   -0.5363   -0.6295   -1.3154 H   0  0  0  0  0  0  0  0  0  0  0  0
    0.5369    0.6261    1.3180 H   0  0  0  0  0  0  0  0  0  0  0  0
   -6.1162    2.6995    1.2721 H   0  0  0  0  0  0  0  0  0  0  0  0
   -1.2743   -1.9102   -1.4290 H   0  0  0  0  0  0  0  0  0  0  0  0
   -5.7436    0.5896   -1.6665 H   0  0  0  0  0  0  0  0  0  0  0  0
    1.1715   -1.7105   -0.5200 H   0  0  0  0  0  0  0  0  0  0  0  0
   -4.0107   -0.6667   -1.1498 H   0  0  0  0  0  0  0  0  0  0  0  0
   -2.3065   -2.7016    0.8949 H   0  0  0  0  0  0  0  0  0  0  0  0
   -2.2581   -0.5368    2.7826 H   0  0  0  0  0  0  0  0  0  0  0  0
   -3.8246    1.2489    3.4050 H   0  0  0  0  0  0  0  0  0  0  0  0
   -0.0895   -2.4389    1.0308 H   0  0  0  0  0  0  0  0  0  0  0  0
   -0.3628   -0.7785    1.4442 H   0  0  0  0  0  0  0  0  0  0  0  0
    1.1502    0.2672   -1.7391 H   0  0  0  0  0  0  0  0  0  0  0  0
    1.7215    1.8910    0.1217 H   0  0  0  0  0  0  0  0  0  0  0  0
    1.1923    0.7242    1.2995 H   0  0  0  0  0  0  0  0  0  0  0  0
    3.6618    1.3565   -1.4372 H   0  0  0  0  0  0  0  0  0  0  0  0
    2.6463   -1.1278    1.9463 H   0  0  0  0  0  0  0  0  0  0  0  0
   -7.2898    2.1454   -1.7852 H   0  0  0  0  0  0  0  0  0  0  0  0
    5.8998    0.3928   -1.4796 H   0  0  0  0  0  0  0  0  0  0  0  0
    4.8960   -2.1324    1.8597 H   0  0  0  0  0  0  0  0  0  0  0  0
   -0.2905    2.1160   -1.2866 H   0  0  0  0  0  0  0  0  0  0  0  0
   -1.0906    1.2881    0.0527 H   0  0  0  0  0  0  0  0  0  0  0  0
   -1.3050    0.7160   -1.6259 H   0  0  0  0  0  0  0  0  0  0  0  0
    8.0042    0.0378   -0.2823 H   0  0  0  0  0  0  0  0  0  0  0  0
    7.6279   -1.1629   -1.5801 H   0  0  0  0  0  0  0  0  0  0  0  0
    8.7508   -1.5648   -0.2695 H   0  0  0  0  0  0  0  0  0  0  0  0
    0.7878    0.0162    0.0000 H   0  0  0  0  0  0  0  0  0  0  0  0
   -0.6792   -0.3989    0.0000 H   0  0  0  0  0  0  0  0  0  0  0  0
  2 10  1  0
  3 12  1  0
  4 19  1  0
  4 26  1  0
  5 22  2  0
  6  9  1  0
  6 22  1  0
  7 15  1  0
  7 17  1  0
  8 11  2  0
  8 12  1  0
  8 13  1  0
  9 10  2  0
  9 11  1  0
 10 14  1  0
 12 15  1  0
 13 14  2  0
 16 18  1  0
 16 20  2  0
 16 21  1  0
 17 18  1  0
 17 25  1  0
 19 23  2  0
 19 24  1  0
 20 23  1  0
 21 24  2  0
 27 31  1  0
 28 32  1  0
 29 31  2  0
 30 32  2  0
 31 33  1  0
 32 34  1  0
 33 34  2  0
 35 43  1  0
 36 45  1  0
 37 52  1  0
 37 59  1  0
 38 55  2  0
 39 42  1  0
 39 55  1  0
 40 48  1  0
 40 50  1  0
 41 44  2  0
 41 45  1  0
 41 46  1  0
 42 43  2  0
 42 44  1  0
 43 47  1  0
 45 48  1  0
 46 47  2  0
 49 51  1  0
 49 53  2  0
 49 54  1  0
 50 51  1  0
 50 58  1  0
 52 56  2  0
 52 57  1  0
 53 56  1  0
 54 57  2  0
  1 61  1  0
  1 62  1  0
  2 63  1  0
  3 64  1  0
  6 65  1  0
  7 66  1  0
 11 67  1  0
 12 68  1  1
 13 69  1  0
 14 70  1  0
 15 71  1  0
 15 72  1  0
 17 73  1  1
 18 74  1  0
 18 75  1  0
 20 76  1  0
 21 77  1  0
 22 78  1  0
 23 79  1  0
 24 80  1  0
 25 81  1  0
 25 82  1  0
 25 83  1  0
 26 84  1  0
 26 85  1  0
 26 86  1  0
 27 87  1  0
 28 88  1  0
 33 89  1  0
 34 90  1  0
 35 91  1  0
 36 92  1  0
 39 93  1  0
 40 94  1  0
 44 95  1  0
 45 96  1  1
 46 97  1  0
 47 98  1  0
 48 99  1  0
 48100  1  0
 50101  1  6
 51102  1  0
 51103  1  0
 53104  1  0
 54105  1  0
 55106  1  0
 56107  1  0
 57108  1  0
 58109  1  0
 58110  1  0
 58111  1  0
 59112  1  0
 59113  1  0
 59114  1  0
 60115  1  0
 60116  1  0
M  END
$$$$
