
     RDKit          2D

 60 59  0  0  0  0  0  0  0  0999 V2000
   14.8831  -29.2597    0.0000 O   0  0  0  0  0  0  0  0  0  0  0  0
    1.6421  -25.8991    0.0000 O   0  0  0  0  0  0  0  0  0  0  0  0
    4.3518  -23.6634    0.0000 O   0  0  0  0  0  0  0  0  0  0  0  0
   10.0716  -25.9689    0.0000 O   0  0  0  0  0  0  0  0  0  0  0  0
    3.6535  -27.8718    0.0000 O   0  0  0  0  0  0  0  0  0  0  0  0
    2.9330  -26.8026    0.0000 N   0  0  0  0  0  0  0  0  0  0  0  0
    5.7829  -24.3209    0.0000 N   0  0  0  0  0  0  0  0  0  0  0  0
    3.6387  -24.7371    0.0000 C   0  0  0  0  0  0  0  0  0  0  0  0
    2.9284  -25.9772    0.0000 C   0  0  0  0  0  0  0  0  0  0  0  0
    2.2126  -25.5672    0.0000 C   0  0  0  0  0  0  0  0  0  0  0  0
    3.6415  -25.5622    0.0000 C   0  0  0  0  0  0  0  0  0  0  0  0
    4.3529  -24.3234    0.0000 C   0  0  0  0  0  0  0  0  0  0  0  0
    2.9227  -24.3272    0.0000 C   0  0  0  0  0  0  0  0  0  0  0  0
    2.2097  -24.7422    0.0000 C   0  0  0  0  0  0  0  0  0  0  0  0
    5.0687  -24.7347    0.0000 C   0  0  0  0  0  0  0  0  0  0  0  0
    7.9287  -24.7297    0.0000 C   0  0  0  0  0  0  0  0  0  0  0  0
    6.4987  -24.7321    0.0000 C   0  0  0  0  0  0  0  0  0  0  0  0
    7.2129  -24.3184    0.0000 C   0  0  0  0  0  0  0  0  0  0  0  0
    9.3576  -25.5547    0.0000 C   0  0  0  0  0  0  0  0  0  0  0  0
    8.6431  -24.3172    0.0000 C   0  0  0  0  0  0  0  0  0  0  0  0
    7.9287  -25.5547    0.0000 C   0  0  0  0  0  0  0  0  0  0  0  0
    3.6499  -27.2118    0.0000 C   0  0  0  0  0  0  0  0  0  0  0  0
    9.3576  -24.7297    0.0000 C   0  0  0  0  0  0  0  0  0  0  0  0
    8.6431  -25.9672    0.0000 C   0  0  0  0  0  0  0  0  0  0  0  0
    6.4998  -25.3921    0.0000 C   0  0  0  0  0  0  0  0  0  0  0  0
   10.0707  -26.6289    0.0000 C   0  0  0  0  0  0  0  0  0  0  0  0
   12.5317  -24.3949    0.0000 O   0  0  0  0  0  0  0  0  0  0  0  0
   14.6767  -26.1274    0.0000 O   0  0  0  0  0  0  0  0  0  0  0  0
   11.9600  -25.3847    0.0000 O   0  0  0  0  0  0  0  0  0  0  0  0
   15.2483  -25.1375    0.0000 O   0  0  0  0  0  0  0  0  0  0  0  0
   12.5317  -25.0549    0.0000 C   0  0  0  0  0  0  0  0  0  0  0  0
   14.6767  -25.4674    0.0000 C   0  0  0  0  0  0  0  0  0  0  0  0
   13.2467  -25.4674    0.0000 C   0  0  0  0  0  0  0  0  0  0  0  0
   13.9617  -25.0549    0.0000 C   0  0  0  0  0  0  0  0  0  0  0  0
    3.8252  -29.9693    0.0000 O   0  0  0  0  0  0  0  0  0  0  0  0
    6.5349  -27.7336    0.0000 O   0  0  0  0  0  0  0  0  0  0  0  0
   12.2547  -30.0391    0.0000 O   0  0  0  0  0  0  0  0  0  0  0  0
    5.8366  -31.9420    0.0000 O   0  0  0  0  0  0  0  0  0  0  0  0
    5.1161  -30.8728    0.0000 N   0  0  0  0  0  0  0  0  0  0  0  0
    7.9660  -28.3911    0.0000 N   0  0  0  0  0  0  0  0  0  0  0  0
    5.8218  -28.8073    0.0000 C   0  0  0  0  0  0  0  0  0  0  0  0
    5.1115  -30.0474    0.0000 C   0  0  0  0  0  0  0  0  0  0  0  0
    4.3957  -29.6374    0.0000 C   0  0  0  0  0  0  0  0  0  0  0  0
    5.8246  -29.6324    0.0000 C   0  0  0  0  0  0  0  0  0  0  0  0
    6.5360  -28.3936    0.0000 C   0  0  0  0  0  0  0  0  0  0  0  0
    5.1058  -28.3974    0.0000 C   0  0  0  0  0  0  0  0  0  0  0  0
    4.3928  -28.8124    0.0000 C   0  0  0  0  0  0  0  0  0  0  0  0
    7.2518  -28.8049    0.0000 C   0  0  0  0  0  0  0  0  0  0  0  0
   10.1118  -28.7999    0.0000 C   0  0  0  0  0  0  0  0  0  0  0  0
    8.6818  -28.8023    0.0000 C   0  0  0  0  0  0  0  0  0  0  0  0
    9.3960  -28.3886    0.0000 C   0  0  0  0  0  0  0  0  0  0  0  0
   11.5407  -29.6249    0.0000 C   0  0  0  0  0  0  0  0  0  0  0  0
   10.8262  -28.3874    0.0000 C   0  0  0  0  0  0  0  0  0  0  0  0
   10.1118  -29.6249    0.0000 C   0  0  0  0  0  0  0  0  0  0  0  0
    5.8330  -31.2820    0.0000 C   0  0  0  0  0  0  0  0  0  0  0  0
   11.5407  -28.7999    0.0000 C   0  0  0  0  0  0  0  0  0  0  0  0
   10.8262  -30.0374    0.0000 C   0  0  0  0  0  0  0  0  0  0  0  0
    8.6829  -29.4623    0.0000 C   0  0  0  0  0  0  0  0  0  0  0  0
   12.2538  -30.6991    0.0000 C   0  0  0  0  0  0  0  0  0  0  0  0
   14.8442  -28.3442    0.0000 O   0  0  0  0  0  0  0  0  0  0  0  0
  2 10  1  0
  3 12  1  0
  4 19  1  0
  4 26  1  0
  5 22  2  0
  6  9  1  0
  6 22  1  0
  7 15  1  0
  7 17  1  0
  8 11  1  0
  8 12  1  0
  8 13  2  0
  9 10  1  0
  9 11  2  0
 10 14  2  0
 12 15  1  0
 13 14  1  0
 16 18  1  0
 16 20  2  0
 16 21  1  0
 17 18  1  0
 17 25  1  0
 19 23  2  0
 19 24  1  0
 20 23  1  0
 21 24  2  0
 27 31  1  0
 28 32  1  0
 29 31  2  0
 30 32  2  0
 31 33  1  0
 32 34  1  0
 33 34  2  0
 35 43  1  0
 36 45  1  0
 37 52  1  0
 37 59  1  0
 38 55  2  0
 39 42  1  0
 39 55  1  0
 40 48  1  0
 40 50  1  0
 41 44  1  0
 41 45  1  0
 41 46  2  0
 42 43  1  0
 42 44  2  0
 43 47  2  0
 45 48  1  0
 46 47  1  0
 49 51  1  0
 49 53  2  0
 49 54  1  0
 50 51  1  0
 50 58  1  0
 52 56  2  0
 52 57  1  0
 53 56  1  0
 54 57  2  0
M  END
> <chembl_id>
CHEMBL3989798

> <chembl_pref_name>
FORMOTEROL FUMARATE
