
     RDKit          3D

116115  0  0  0  0  0  0  0  0999 V2000
   -0.0726    0.3917    0.0000 O   0  0  0  0  0  0  0  0  0  0  0  0
   -6.2632    0.6717    3.1513 O   0  0  0  0  0  0  0  0  0  0  0  0
   -2.3116    2.0309   -1.4697 O   0  0  0  0  0  0  0  0  0  0  0  0
    7.0574    0.3985    0.2379 O   0  0  0  0  0  0  0  0  0  0  0  0
   -5.1536   -2.8471   -0.2736 O   0  0  0  0  0  0  0  0  0  0  0  0
   -5.8626   -1.4447    1.4699 N   0  0  0  0  0  0  0  0  0  0  0  0
   -0.4284    0.1041   -2.2723 N   0  0  0  0  0  0  0  0  0  0  0  0
   -3.0856    0.8778    0.4698 C   0  0  0  0  0  0  0  0  0  0  0  0
   -4.9942   -0.3374    1.3851 C   0  0  0  0  0  0  0  0  0  0  0  0
   -5.1969    0.7074    2.2915 C   0  0  0  0  0  0  0  0  0  0  0  0
   -3.9456   -0.2360    0.4672 C   0  0  0  0  0  0  0  0  0  0  0  0
   -1.9371    1.0406   -0.5065 C   0  0  1  0  0  0  0  0  0  0  0  0
   -3.3122    1.8985    1.4129 C   0  0  0  0  0  0  0  0  0  0  0  0
   -4.3622    1.8138    2.3259 C   0  0  0  0  0  0  0  0  0  0  0  0
   -1.4669   -0.2261   -1.2688 C   0  0  0  0  0  0  0  0  0  0  0  0
    2.9219    0.4567   -0.3554 C   0  0  0  0  0  0  0  0  0  0  0  0
    0.9647   -0.2102   -1.8778 C   0  0  1  0  0  0  0  0  0  0  0  0
    1.4302    0.5237   -0.5981 C   0  0  0  0  0  0  0  0  0  0  0  0
    5.6968    0.3555    0.1126 C   0  0  0  0  0  0  0  0  0  0  0  0
    3.8064    1.1723   -1.1700 C   0  0  0  0  0  0  0  0  0  0  0  0
    3.4421   -0.3123    0.6930 C   0  0  0  0  0  0  0  0  0  0  0  0
   -5.8666   -2.5710    0.6825 C   0  0  0  0  0  0  0  0  0  0  0  0
    5.1825    1.1174   -0.9377 C   0  0  0  0  0  0  0  0  0  0  0  0
    4.8206   -0.3617    0.9260 C   0  0  0  0  0  0  0  0  0  0  0  0
    1.1937   -1.7268   -1.8014 C   0  0  0  0  0  0  0  0  0  0  0  0
    7.6270   -0.3234    1.3215 C   0  0  0  0  0  0  0  0  0  0  0  0
   -2.1788    0.5863   -0.8329 O   0  0  0  0  0  0  0  0  0  0  0  0
    2.1773   -0.6055    1.1382 O   0  0  0  0  0  0  0  0  0  0  0  0
   -2.7867   -0.2835    1.1330 O   0  0  0  0  0  0  0  0  0  0  0  0
    2.7879    0.3101   -0.8055 O   0  0  0  0  0  0  0  0  0  0  0  0
   -1.9046    0.0212    0.3512 C   0  0  0  0  0  0  0  0  0  0  0  0
    1.9048   -0.0177   -0.0346 C   0  0  0  0  0  0  0  0  0  0  0  0
   -0.4733   -0.1805    0.5943 C   0  0  0  0  0  0  0  0  0  0  0  0
    0.4746    0.1829   -0.2807 C   0  0  0  0  0  0  0  0  0  0  0  0
   -6.5694   -1.9157   -0.1270 O   0  0  0  0  0  0  0  0  0  0  0  0
   -1.9457    1.4964    2.3978 O   0  0  0  0  0  0  0  0  0  0  0  0
    6.6072    1.4315   -2.0314 O   0  0  0  0  0  0  0  0  0  0  0  0
   -7.9676   -0.0846   -1.1233 O   0  0  0  0  0  0  0  0  0  0  0  0
   -6.0413    1.0768   -0.5157 N   0  0  0  0  0  0  0  0  0  0  0  0
    0.0601   -1.4942    1.3306 N   0  0  0  0  0  0  0  0  0  0  0  0
   -2.9390   -0.2120    1.0614 C   0  0  0  0  0  0  0  0  0  0  0  0
   -5.1766    0.1058    0.0434 C   0  0  0  0  0  0  0  0  0  0  0  0
   -5.4263   -1.2581    0.2215 C   0  0  0  0  0  0  0  0  0  0  0  0
   -3.9278    0.6021    0.4672 C   0  0  0  0  0  0  0  0  0  0  0  0
   -1.6299    0.4357    1.4805 C   0  0  2  0  0  0  0  0  0  0  0  0
   -3.2264   -1.5660    1.2205 C   0  0  0  0  0  0  0  0  0  0  0  0
   -4.4591   -2.0802    0.8063 C   0  0  0  0  0  0  0  0  0  0  0  0
   -0.5406   -0.4392    2.1628 C   0  0  0  0  0  0  0  0  0  0  0  0
    2.8067    0.3542   -0.6724 C   0  0  0  0  0  0  0  0  0  0  0  0
    1.4225   -1.1743    0.8493 C   0  0  2  0  0  0  0  0  0  0  0  0
    1.4251   -0.0608   -0.2212 C   0  0  0  0  0  0  0  0  0  0  0  0
    5.3789    1.1311   -1.5100 C   0  0  0  0  0  0  0  0  0  0  0  0
    3.3258   -0.1042   -1.8875 C   0  0  0  0  0  0  0  0  0  0  0  0
    3.5887    1.2051    0.1193 C   0  0  0  0  0  0  0  0  0  0  0  0
   -7.3065    0.9374   -1.0214 C   0  0  0  0  0  0  0  0  0  0  0  0
    4.6011    0.2836   -2.3017 C   0  0  0  0  0  0  0  0  0  0  0  0
    4.8689    1.5904   -0.2953 C   0  0  0  0  0  0  0  0  0  0  0  0
    2.0112   -2.4802    0.2957 C   0  0  0  0  0  0  0  0  0  0  0  0
    7.4041    2.3558   -1.3019 C   0  0  0  0  0  0  0  0  0  0  0  0
   -0.0031    0.3980    0.0000 O   0  0  0  0  0  0  0  0  0  0  0  0
    0.7861   -0.0563    0.0000 H   0  0  0  0  0  0  0  0  0  0  0  0
   -0.7134   -0.3353    0.0000 H   0  0  0  0  0  0  0  0  0  0  0  0
   -7.0382    0.8444    2.5880 H   0  0  0  0  0  0  0  0  0  0  0  0
   -1.6516    1.9264   -2.1829 H   0  0  0  0  0  0  0  0  0  0  0  0
   -6.5100   -1.4199    2.2492 H   0  0  0  0  0  0  0  0  0  0  0  0
   -0.6360   -0.4324   -3.1197 H   0  0  0  0  0  0  0  0  0  0  0  0
   -3.7907   -1.0243   -0.2609 H   0  0  0  0  0  0  0  0  0  0  0  0
   -1.0881    1.4459    0.0527 H   0  0  0  0  0  0  0  0  0  0  0  0
   -2.6721    2.7788    1.4207 H   0  0  0  0  0  0  0  0  0  0  0  0
   -4.5302    2.6105    3.0437 H   0  0  0  0  0  0  0  0  0  0  0  0
   -2.3133   -0.6207   -1.8432 H   0  0  0  0  0  0  0  0  0  0  0  0
   -1.1628   -1.0179   -0.5780 H   0  0  0  0  0  0  0  0  0  0  0  0
    1.5805    0.1535   -2.7124 H   0  0  0  0  0  0  0  0  0  0  0  0
    1.1596    1.5862   -0.6668 H   0  0  0  0  0  0  0  0  0  0  0  0
    0.9026    0.1310    0.2811 H   0  0  0  0  0  0  0  0  0  0  0  0
    3.4325    1.7841   -1.9885 H   0  0  0  0  0  0  0  0  0  0  0  0
    2.7776   -0.8784    1.3421 H   0  0  0  0  0  0  0  0  0  0  0  0
   -6.6489   -3.2712    1.0188 H   0  0  0  0  0  0  0  0  0  0  0  0
    5.8595    1.6766   -1.5778 H   0  0  0  0  0  0  0  0  0  0  0  0
    5.1753   -0.9695    1.7508 H   0  0  0  0  0  0  0  0  0  0  0  0
    0.8140   -2.2309   -2.6997 H   0  0  0  0  0  0  0  0  0  0  0  0
    2.2641   -1.9532   -1.7397 H   0  0  0  0  0  0  0  0  0  0  0  0
    0.7067   -2.1758   -0.9277 H   0  0  0  0  0  0  0  0  0  0  0  0
    7.2708    0.0589    2.2832 H   0  0  0  0  0  0  0  0  0  0  0  0
    8.7103   -0.1786    1.2867 H   0  0  0  0  0  0  0  0  0  0  0  0
    7.4317   -1.3959    1.2255 H   0  0  0  0  0  0  0  0  0  0  0  0
   -3.1568    0.6498   -0.8418 H   0  0  0  0  0  0  0  0  0  0  0  0
    3.1553   -0.6668    1.1479 H   0  0  0  0  0  0  0  0  0  0  0  0
   -0.2390   -0.6469    1.5445 H   0  0  0  0  0  0  0  0  0  0  0  0
    0.2392    0.6505   -1.2305 H   0  0  0  0  0  0  0  0  0  0  0  0
   -7.1951   -1.2822   -0.5378 H   0  0  0  0  0  0  0  0  0  0  0  0
   -2.6504    1.1628    2.9790 H   0  0  0  0  0  0  0  0  0  0  0  0
   -5.6753    2.0203   -0.5432 H   0  0  0  0  0  0  0  0  0  0  0  0
    0.1225   -2.3427    1.8979 H   0  0  0  0  0  0  0  0  0  0  0  0
   -3.6984    1.6610    0.3428 H   0  0  0  0  0  0  0  0  0  0  0  0
   -1.1996    0.9090    0.5926 H   0  0  0  0  0  0  0  0  0  0  0  0
   -2.5065   -2.2529    1.6539 H   0  0  0  0  0  0  0  0  0  0  0  0
   -4.6710   -3.1406    0.9325 H   0  0  0  0  0  0  0  0  0  0  0  0
   -0.9940   -0.9179    3.0435 H   0  0  0  0  0  0  0  0  0  0  0  0
    0.2333    0.2129    2.5902 H   0  0  0  0  0  0  0  0  0  0  0  0
    2.0446   -0.8750    1.7027 H   0  0  0  0  0  0  0  0  0  0  0  0
    0.8295   -0.3704   -1.0898 H   0  0  0  0  0  0  0  0  0  0  0  0
    0.9406    0.8414    0.1685 H   0  0  0  0  0  0  0  0  0  0  0  0
    2.7425   -0.7665   -2.5229 H   0  0  0  0  0  0  0  0  0  0  0  0
    3.2031    1.5842    1.0634 H   0  0  0  0  0  0  0  0  0  0  0  0
   -7.7027    1.9089   -1.3657 H   0  0  0  0  0  0  0  0  0  0  0  0
    4.9922   -0.0763   -3.2508 H   0  0  0  0  0  0  0  0  0  0  0  0
    5.4367    2.2551    0.3480 H   0  0  0  0  0  0  0  0  0  0  0  0
    1.9757   -3.2790    1.0466 H   0  0  0  0  0  0  0  0  0  0  0  0
    3.0624   -2.3562    0.0189 H   0  0  0  0  0  0  0  0  0  0  0  0
    1.4609   -2.8222   -0.5889 H   0  0  0  0  0  0  0  0  0  0  0  0
    8.3303    2.5126   -1.8622 H   0  0  0  0  0  0  0  0  0  0  0  0
    6.9029    3.3252   -1.2090 H   0  0  0  0  0  0  0  0  0  0  0  0
    7.6719    1.9520   -0.3196 H   0  0  0  0  0  0  0  0  0  0  0  0
   -0.7616   -0.2050    0.0000 H   0  0  0  0  0  0  0  0  0  0  0  0
    0.7647   -0.1931    0.0000 H   0  0  0  0  0  0  0  0  0  0  0  0
  2 10  1  0
  3 12  1  0
  4 19  1  0
  4 26  1  0
  5 22  2  0
  6  9  1  0
  6 22  1  0
  7 15  1  0
  7 17  1  0
  8 11  2  0
  8 12  1  0
  8 13  1  0
  9 10  2  0
  9 11  1  0
 10 14  1  0
 12 15  1  0
 13 14  2  0
 16 18  1  0
 16 20  2  0
 16 21  1  0
 17 18  1  0
 17 25  1  0
 19 23  2  0
 19 24  1  0
 20 23  1  0
 21 24  2  0
 27 31  1  0
 28 32  1  0
 29 31  2  0
 30 32  2  0
 31 33  1  0
 32 34  1  0
 33 34  2  0
 35 43  1  0
 36 45  1  0
 37 52  1  0
 37 59  1  0
 38 55  2  0
 39 42  1  0
 39 55  1  0
 40 48  1  0
 40 50  1  0
 41 44  2  0
 41 45  1  0
 41 46  1  0
 42 43  2  0
 42 44  1  0
 43 47  1  0
 45 48  1  0
 46 47  2  0
 49 51  1  0
 49 53  2  0
 49 54  1  0
 50 51  1  0
 50 58  1  0
 52 56  2  0
 52 57  1  0
 53 56  1  0
 54 57  2  0
  1 61  1  0
  1 62  1  0
  2 63  1  0
  3 64  1  0
  6 65  1  0
  7 66  1  0
 11 67  1  0
 12 68  1  1
 13 69  1  0
 14 70  1  0
 15 71  1  0
 15 72  1  0
 17 73  1  6
 18 74  1  0
 18 75  1  0
 20 76  1  0
 21 77  1  0
 22 78  1  0
 23 79  1  0
 24 80  1  0
 25 81  1  0
 25 82  1  0
 25 83  1  0
 26 84  1  0
 26 85  1  0
 26 86  1  0
 27 87  1  0
 28 88  1  0
 33 89  1  0
 34 90  1  0
 35 91  1  0
 36 92  1  0
 39 93  1  0
 40 94  1  0
 44 95  1  0
 45 96  1  6
 46 97  1  0
 47 98  1  0
 48 99  1  0
 48100  1  0
 50101  1  1
 51102  1  0
 51103  1  0
 53104  1  0
 54105  1  0
 55106  1  0
 56107  1  0
 57108  1  0
 58109  1  0
 58110  1  0
 58111  1  0
 59112  1  0
 59113  1  0
 59114  1  0
 60115  1  0
 60116  1  0
M  END
$$$$
