
     RDKit          3D

116115  0  0  0  0  0  0  0  0999 V2000
   -0.1262    0.3765    0.0000 O   0  0  0  0  0  0  0  0  0  0  0  0
   -4.6528    3.1155    2.1116 O   0  0  0  0  0  0  0  0  0  0  0  0
   -3.3412   -2.8946    0.9600 O   0  0  0  0  0  0  0  0  0  0  0  0
    6.9194    0.7002    0.0227 O   0  0  0  0  0  0  0  0  0  0  0  0
   -5.9836    1.1936   -2.3316 O   0  0  0  0  0  0  0  0  0  0  0  0
   -5.3726    2.4276   -0.4380 N   0  0  0  0  0  0  0  0  0  0  0  0
   -0.7075   -1.0055   -0.9242 N   0  0  0  0  0  0  0  0  0  0  0  0
   -3.3255   -0.5351    0.6336 C   0  0  0  0  0  0  0  0  0  0  0  0
   -4.5864    1.5285    0.3097 C   0  0  0  0  0  0  0  0  0  0  0  0
   -4.1931    1.9335    1.5912 C   0  0  0  0  0  0  0  0  0  0  0  0
   -4.1575    0.2854   -0.1576 C   0  0  0  0  0  0  0  0  0  0  0  0
   -2.8513   -1.8683    0.0926 C   0  0  1  0  0  0  0  0  0  0  0  0
   -2.9426   -0.0902    1.9108 C   0  0  0  0  0  0  0  0  0  0  0  0
   -3.3753    1.1444    2.3899 C   0  0  0  0  0  0  0  0  0  0  0  0
   -1.3067   -1.9941   -0.0233 C   0  0  0  0  0  0  0  0  0  0  0  0
    2.8959   -0.4049    0.2446 C   0  0  0  0  0  0  0  0  0  0  0  0
    0.7626   -1.0354   -1.0225 C   0  0  1  0  0  0  0  0  0  0  0  0
    1.4525   -0.8375    0.3481 C   0  0  0  0  0  0  0  0  0  0  0  0
    5.5795    0.4301    0.0792 C   0  0  0  0  0  0  0  0  0  0  0  0
    3.2146    0.9452    0.0448 C   0  0  0  0  0  0  0  0  0  0  0  0
    3.9344   -1.3343    0.3529 C   0  0  0  0  0  0  0  0  0  0  0  0
   -5.9551    2.2161   -1.6642 C   0  0  0  0  0  0  0  0  0  0  0  0
    4.5474    1.3611   -0.0370 C   0  0  0  0  0  0  0  0  0  0  0  0
    5.2651   -0.9173    0.2702 C   0  0  0  0  0  0  0  0  0  0  0  0
    1.2530   -2.2921   -1.7496 C   0  0  0  0  0  0  0  0  0  0  0  0
    7.2945    2.0685   -0.0670 C   0  0  0  0  0  0  0  0  0  0  0  0
   -2.8644    0.5049    0.2464 O   0  0  0  0  0  0  0  0  0  0  0  0
    2.8623   -0.5054    0.2576 O   0  0  0  0  0  0  0  0  0  0  0  0
   -2.0092   -1.5400   -0.0857 O   0  0  0  0  0  0  0  0  0  0  0  0
    2.0050    1.5462    0.5717 O   0  0  0  0  0  0  0  0  0  0  0  0
   -1.8429   -0.3563    0.1299 C   0  0  0  0  0  0  0  0  0  0  0  0
    1.8421    0.3577    0.3699 C   0  0  0  0  0  0  0  0  0  0  0  0
   -0.5698    0.3462    0.2938 C   0  0  0  0  0  0  0  0  0  0  0  0
    0.5706   -0.3491    0.2157 C   0  0  0  0  0  0  0  0  0  0  0  0
   -7.4414    1.6126   -0.0325 O   0  0  0  0  0  0  0  0  0  0  0  0
   -1.2436    1.0592    0.6298 O   0  0  0  0  0  0  0  0  0  0  0  0
    6.9664    1.1708    1.0812 O   0  0  0  0  0  0  0  0  0  0  0  0
   -5.1038   -2.4445    1.7148 O   0  0  0  0  0  0  0  0  0  0  0  0
   -6.4456   -0.6521    1.0374 N   0  0  0  0  0  0  0  0  0  0  0  0
   -0.1375   -0.9991   -1.5479 N   0  0  0  0  0  0  0  0  0  0  0  0
   -3.3577    0.8855   -0.4472 C   0  0  0  0  0  0  0  0  0  0  0  0
   -5.5531    0.2160    0.3762 C   0  0  0  0  0  0  0  0  0  0  0  0
   -6.0941    1.3873   -0.1718 C   0  0  0  0  0  0  0  0  0  0  0  0
   -4.1840   -0.0244    0.2408 C   0  0  0  0  0  0  0  0  0  0  0  0
   -1.8635    0.6564   -0.5927 C   0  0  2  0  0  0  0  0  0  0  0  0
   -3.9301    2.0564   -0.9731 C   0  0  0  0  0  0  0  0  0  0  0  0
   -5.2952    2.3096   -0.8403 C   0  0  0  0  0  0  0  0  0  0  0  0
   -1.4798   -0.8055   -0.9635 C   0  0  0  0  0  0  0  0  0  0  0  0
    3.5489   -0.3220   -0.8023 C   0  0  0  0  0  0  0  0  0  0  0  0
    1.0010   -0.6757   -0.6629 C   0  0  2  0  0  0  0  0  0  0  0  0
    2.3020   -0.8207   -1.4984 C   0  0  0  0  0  0  0  0  0  0  0  0
    5.8823    0.5954    0.4759 C   0  0  0  0  0  0  0  0  0  0  0  0
    4.5436   -1.2207   -0.4005 C   0  0  0  0  0  0  0  0  0  0  0  0
    3.7302    1.0447   -0.5551 C   0  0  0  0  0  0  0  0  0  0  0  0
   -6.1717   -1.8582    1.6307 C   0  0  0  0  0  0  0  0  0  0  0  0
    5.7019   -0.7647    0.2384 C   0  0  0  0  0  0  0  0  0  0  0  0
    4.8884    1.4945    0.0795 C   0  0  0  0  0  0  0  0  0  0  0  0
    1.0422   -1.5939    0.5662 C   0  0  0  0  0  0  0  0  0  0  0  0
    8.0393    0.3088    1.4353 C   0  0  0  0  0  0  0  0  0  0  0  0
   -0.0062    0.3972    0.0000 O   0  0  0  0  0  0  0  0  0  0  0  0
    0.7880    0.0545    0.0000 H   0  0  0  0  0  0  0  0  0  0  0  0
   -0.6619   -0.4311    0.0000 H   0  0  0  0  0  0  0  0  0  0  0  0
   -5.6055    2.9563    2.2740 H   0  0  0  0  0  0  0  0  0  0  0  0
   -3.3231   -3.7207    0.4524 H   0  0  0  0  0  0  0  0  0  0  0  0
   -5.4771    3.3487   -0.0279 H   0  0  0  0  0  0  0  0  0  0  0  0
   -1.1170   -1.0843   -1.8533 H   0  0  0  0  0  0  0  0  0  0  0  0
   -4.4464   -0.0585   -1.1462 H   0  0  0  0  0  0  0  0  0  0  0  0
   -3.2922   -2.0462   -0.8966 H   0  0  0  0  0  0  0  0  0  0  0  0
   -2.3124   -0.7174    2.5384 H   0  0  0  0  0  0  0  0  0  0  0  0
   -3.0818    1.4806    3.3800 H   0  0  0  0  0  0  0  0  0  0  0  0
   -0.8773   -1.9203    0.9811 H   0  0  0  0  0  0  0  0  0  0  0  0
   -1.0830   -3.0073   -0.3751 H   0  0  0  0  0  0  0  0  0  0  0  0
    1.0245   -0.1793   -1.6581 H   0  0  0  0  0  0  0  0  0  0  0  0
    1.3927   -1.7534    0.9512 H   0  0  0  0  0  0  0  0  0  0  0  0
    0.9197   -0.0681    0.9253 H   0  0  0  0  0  0  0  0  0  0  0  0
    2.4232    1.6895   -0.0386 H   0  0  0  0  0  0  0  0  0  0  0  0
    3.7186   -2.3882    0.5113 H   0  0  0  0  0  0  0  0  0  0  0  0
   -6.4579    3.1343   -2.0132 H   0  0  0  0  0  0  0  0  0  0  0  0
    4.7439    2.4176   -0.1827 H   0  0  0  0  0  0  0  0  0  0  0  0
    6.0646   -1.6490    0.3577 H   0  0  0  0  0  0  0  0  0  0  0  0
    0.7088   -2.4371   -2.6883 H   0  0  0  0  0  0  0  0  0  0  0  0
    1.1321   -3.1945   -1.1434 H   0  0  0  0  0  0  0  0  0  0  0  0
    2.3135   -2.2053   -2.0063 H   0  0  0  0  0  0  0  0  0  0  0  0
    6.9457    2.5083   -1.0073 H   0  0  0  0  0  0  0  0  0  0  0  0
    6.9313    2.6388    0.7950 H   0  0  0  0  0  0  0  0  0  0  0  0
    8.3876    2.1152   -0.0612 H   0  0  0  0  0  0  0  0  0  0  0  0
   -3.6613   -0.0502    0.1137 H   0  0  0  0  0  0  0  0  0  0  0  0
    3.6643    0.0484    0.3608 H   0  0  0  0  0  0  0  0  0  0  0  0
   -0.5985    1.4153    0.4678 H   0  0  0  0  0  0  0  0  0  0  0  0
    0.6018   -1.4177    0.0389 H   0  0  0  0  0  0  0  0  0  0  0  0
   -7.6511    2.4574   -0.4663 H   0  0  0  0  0  0  0  0  0  0  0  0
   -1.7081    0.5973    1.3482 H   0  0  0  0  0  0  0  0  0  0  0  0
   -7.4067   -0.3254    1.0445 H   0  0  0  0  0  0  0  0  0  0  0  0
   -0.0676   -0.4277   -2.3902 H   0  0  0  0  0  0  0  0  0  0  0  0
   -3.7440   -0.9158    0.6750 H   0  0  0  0  0  0  0  0  0  0  0  0
   -1.4791    1.3150   -1.3816 H   0  0  0  0  0  0  0  0  0  0  0  0
   -3.3068    2.7872   -1.4862 H   0  0  0  0  0  0  0  0  0  0  0  0
   -5.7092    3.2214   -1.2575 H   0  0  0  0  0  0  0  0  0  0  0  0
   -1.6025   -1.4723   -0.1022 H   0  0  0  0  0  0  0  0  0  0  0  0
   -2.1867   -1.1639   -1.7225 H   0  0  0  0  0  0  0  0  0  0  0  0
    0.9262    0.3659   -0.3328 H   0  0  0  0  0  0  0  0  0  0  0  0
    2.4331   -1.8691   -1.8055 H   0  0  0  0  0  0  0  0  0  0  0  0
    2.2080   -0.2524   -2.4355 H   0  0  0  0  0  0  0  0  0  0  0  0
    4.4242   -2.2885   -0.5801 H   0  0  0  0  0  0  0  0  0  0  0  0
    2.9723    1.7651   -0.8570 H   0  0  0  0  0  0  0  0  0  0  0  0
   -7.0902   -2.2971    2.0604 H   0  0  0  0  0  0  0  0  0  0  0  0
    6.4406   -1.4990    0.5360 H   0  0  0  0  0  0  0  0  0  0  0  0
    5.0166    2.5577    0.2649 H   0  0  0  0  0  0  0  0  0  0  0  0
    0.1607   -1.4596    1.2004 H   0  0  0  0  0  0  0  0  0  0  0  0
    1.0942   -2.6480    0.2719 H   0  0  0  0  0  0  0  0  0  0  0  0
    1.9125   -1.3750    1.1946 H   0  0  0  0  0  0  0  0  0  0  0  0
    8.4577   -0.1950    0.5554 H   0  0  0  0  0  0  0  0  0  0  0  0
    7.7279   -0.4184    2.1944 H   0  0  0  0  0  0  0  0  0  0  0  0
    8.8327    0.9243    1.8714 H   0  0  0  0  0  0  0  0  0  0  0  0
   -0.7612   -0.2106    0.0000 H   0  0  0  0  0  0  0  0  0  0  0  0
    0.7674   -0.1866    0.0000 H   0  0  0  0  0  0  0  0  0  0  0  0
  2 10  1  0
  3 12  1  0
  4 19  1  0
  4 26  1  0
  5 22  2  0
  6  9  1  0
  6 22  1  0
  7 15  1  0
  7 17  1  0
  8 11  2  0
  8 12  1  0
  8 13  1  0
  9 10  2  0
  9 11  1  0
 10 14  1  0
 12 15  1  0
 13 14  2  0
 16 18  1  0
 16 20  2  0
 16 21  1  0
 17 18  1  0
 17 25  1  0
 19 23  2  0
 19 24  1  0
 20 23  1  0
 21 24  2  0
 27 31  1  0
 28 32  1  0
 29 31  2  0
 30 32  2  0
 31 33  1  0
 32 34  1  0
 33 34  2  0
 35 43  1  0
 36 45  1  0
 37 52  1  0
 37 59  1  0
 38 55  2  0
 39 42  1  0
 39 55  1  0
 40 48  1  0
 40 50  1  0
 41 44  2  0
 41 45  1  0
 41 46  1  0
 42 43  2  0
 42 44  1  0
 43 47  1  0
 45 48  1  0
 46 47  2  0
 49 51  1  0
 49 53  2  0
 49 54  1  0
 50 51  1  0
 50 58  1  0
 52 56  2  0
 52 57  1  0
 53 56  1  0
 54 57  2  0
  1 61  1  0
  1 62  1  0
  2 63  1  0
  3 64  1  0
  6 65  1  0
  7 66  1  0
 11 67  1  0
 12 68  1  6
 13 69  1  0
 14 70  1  0
 15 71  1  0
 15 72  1  0
 17 73  1  6
 18 74  1  0
 18 75  1  0
 20 76  1  0
 21 77  1  0
 22 78  1  0
 23 79  1  0
 24 80  1  0
 25 81  1  0
 25 82  1  0
 25 83  1  0
 26 84  1  0
 26 85  1  0
 26 86  1  0
 27 87  1  0
 28 88  1  0
 33 89  1  0
 34 90  1  0
 35 91  1  0
 36 92  1  0
 39 93  1  0
 40 94  1  0
 44 95  1  0
 45 96  1  6
 46 97  1  0
 47 98  1  0
 48 99  1  0
 48100  1  0
 50101  1  1
 51102  1  0
 51103  1  0
 53104  1  0
 54105  1  0
 55106  1  0
 56107  1  0
 57108  1  0
 58109  1  0
 58110  1  0
 58111  1  0
 59112  1  0
 59113  1  0
 59114  1  0
 60115  1  0
 60116  1  0
M  END
$$$$
