
     RDKit          3D

116115  0  0  0  0  0  0  0  0999 V2000
    0.0149    0.3968    0.0000 O   0  0  0  0  0  0  0  0  0  0  0  0
    7.2572   -1.0319   -1.4921 O   0  0  0  0  0  0  0  0  0  0  0  0
    2.5044   -0.2975    2.5841 O   0  0  0  0  0  0  0  0  0  0  0  0
   -7.1915    0.1104   -1.6168 O   0  0  0  0  0  0  0  0  0  0  0  0
    5.0428    3.3766   -0.7648 O   0  0  0  0  0  0  0  0  0  0  0  0
    6.2839    1.4601   -1.2749 N   0  0  0  0  0  0  0  0  0  0  0  0
   -0.0972   -1.0683    1.5170 N   0  0  0  0  0  0  0  0  0  0  0  0
    3.6027   -0.5234    0.4535 C   0  0  0  0  0  0  0  0  0  0  0  0
    5.5270    0.4090   -0.7224 C   0  0  0  0  0  0  0  0  0  0  0  0
    6.0571   -0.8819   -0.8441 C   0  0  0  0  0  0  0  0  0  0  0  0
    4.3028    0.5800   -0.0724 C   0  0  0  0  0  0  0  0  0  0  0  0
    2.2842   -0.2891    1.1678 C   0  0  1  0  0  0  0  0  0  0  0  0
    4.1757   -1.8017    0.3466 C   0  0  0  0  0  0  0  0  0  0  0  0
    5.3927   -1.9849   -0.3143 C   0  0  0  0  0  0  0  0  0  0  0  0
    1.1735   -1.3179    0.8140 C   0  0  0  0  0  0  0  0  0  0  0  0
   -3.7314   -0.3277    0.6811 C   0  0  0  0  0  0  0  0  0  0  0  0
   -1.1692   -0.5101    0.6789 C   0  0  1  0  0  0  0  0  0  0  0  0
   -2.4806   -0.5421    1.5039 C   0  0  0  0  0  0  0  0  0  0  0  0
   -6.0731    0.0519   -0.8326 C   0  0  0  0  0  0  0  0  0  0  0  0
   -4.2055   -1.3404   -0.1621 C   0  0  0  0  0  0  0  0  0  0  0  0
   -4.4359    0.8801    0.7490 C   0  0  0  0  0  0  0  0  0  0  0  0
    6.0021    2.8013   -1.2603 C   0  0  0  0  0  0  0  0  0  0  0  0
   -5.3655   -1.1482   -0.9135 C   0  0  0  0  0  0  0  0  0  0  0  0
   -5.6005    1.0697   -0.0026 C   0  0  0  0  0  0  0  0  0  0  0  0
   -0.8512    0.9136    0.2111 C   0  0  0  0  0  0  0  0  0  0  0  0
   -8.0540    1.2197   -1.4102 C   0  0  0  0  0  0  0  0  0  0  0  0
   -2.3099    0.8179   -0.2969 O   0  0  0  0  0  0  0  0  0  0  0  0
    2.3080   -0.8199    0.2596 O   0  0  0  0  0  0  0  0  0  0  0  0
   -2.6206   -1.3859   -0.1111 O   0  0  0  0  0  0  0  0  0  0  0  0
    2.6218    1.3836    0.0474 O   0  0  0  0  0  0  0  0  0  0  0  0
   -1.8609   -0.4356   -0.1413 C   0  0  0  0  0  0  0  0  0  0  0  0
    1.8616    0.4336    0.0885 C   0  0  0  0  0  0  0  0  0  0  0  0
   -0.4053   -0.5322   -0.0078 C   0  0  0  0  0  0  0  0  0  0  0  0
    0.4064    0.5330   -0.0477 C   0  0  0  0  0  0  0  0  0  0  0  0
   -6.0417   -1.2868    2.8728 O   0  0  0  0  0  0  0  0  0  0  0  0
   -1.2704   -0.5701   -1.1937 O   0  0  0  0  0  0  0  0  0  0  0  0
    5.7351   -2.4421    0.5003 O   0  0  0  0  0  0  0  0  0  0  0  0
   -7.9138   -0.4399    1.4524 O   0  0  0  0  0  0  0  0  0  0  0  0
   -6.0623    0.1160    0.1472 N   0  0  0  0  0  0  0  0  0  0  0  0
    0.6318    1.6453   -0.0042 N   0  0  0  0  0  0  0  0  0  0  0  0
   -2.4768   -0.4757    0.8628 C   0  0  0  0  0  0  0  0  0  0  0  0
   -4.9393   -0.3266    0.8886 C   0  0  0  0  0  0  0  0  0  0  0  0
   -4.9383   -0.9743    2.1318 C   0  0  0  0  0  0  0  0  0  0  0  0
   -3.6932   -0.0812    0.2740 C   0  0  0  0  0  0  0  0  0  0  0  0
   -1.1529   -0.1948    0.1799 C   0  0  2  0  0  0  0  0  0  0  0  0
   -2.5112   -1.1149    2.1035 C   0  0  0  0  0  0  0  0  0  0  0  0
   -3.7343   -1.3642    2.7258 C   0  0  0  0  0  0  0  0  0  0  0  0
   -0.7669    1.3010    0.3162 C   0  0  0  0  0  0  0  0  0  0  0  0
    3.3885    0.6647   -1.0021 C   0  0  0  0  0  0  0  0  0  0  0  0
    1.0063    1.5107   -1.4252 C   0  0  2  0  0  0  0  0  0  0  0  0
    2.5281    1.7652   -1.5889 C   0  0  0  0  0  0  0  0  0  0  0  0
    4.9933   -1.3726    0.0857 C   0  0  0  0  0  0  0  0  0  0  0  0
    3.5055   -0.5680   -1.6540 C   0  0  0  0  0  0  0  0  0  0  0  0
    4.0849    0.8720    0.1969 C   0  0  0  0  0  0  0  0  0  0  0  0
   -7.3967    0.0404    0.4535 C   0  0  0  0  0  0  0  0  0  0  0  0
    4.3030   -1.5747   -1.1109 C   0  0  0  0  0  0  0  0  0  0  0  0
    4.8804   -0.1429    0.7391 C   0  0  0  0  0  0  0  0  0  0  0  0
    0.2460    2.5023   -2.3172 C   0  0  0  0  0  0  0  0  0  0  0  0
    6.5885   -2.2367    1.6140 C   0  0  0  0  0  0  0  0  0  0  0  0
   -0.0011    0.3975    0.0000 O   0  0  0  0  0  0  0  0  0  0  0  0
    0.7569   -0.2270    0.0000 H   0  0  0  0  0  0  0  0  0  0  0  0
   -0.7718   -0.1697    0.0000 H   0  0  0  0  0  0  0  0  0  0  0  0
    7.4868   -1.9754   -1.4833 H   0  0  0  0  0  0  0  0  0  0  0  0
    3.4529   -0.1499    2.7336 H   0  0  0  0  0  0  0  0  0  0  0  0
    7.1430    1.1506   -1.7234 H   0  0  0  0  0  0  0  0  0  0  0  0
    0.0926   -0.4821    2.3336 H   0  0  0  0  0  0  0  0  0  0  0  0
    3.8685    1.5719    0.0349 H   0  0  0  0  0  0  0  0  0  0  0  0
    1.9210    0.7142    0.9190 H   0  0  0  0  0  0  0  0  0  0  0  0
    3.6796   -2.6706    0.7807 H   0  0  0  0  0  0  0  0  0  0  0  0
    5.8056   -2.9857   -0.3932 H   0  0  0  0  0  0  0  0  0  0  0  0
    1.4935   -2.3123    1.1547 H   0  0  0  0  0  0  0  0  0  0  0  0
    1.0334   -1.3909   -0.2725 H   0  0  0  0  0  0  0  0  0  0  0  0
   -1.2903   -1.1552   -0.2018 H   0  0  0  0  0  0  0  0  0  0  0  0
   -2.4344    0.2005    2.3117 H   0  0  0  0  0  0  0  0  0  0  0  0
   -2.5866   -1.5145    2.0042 H   0  0  0  0  0  0  0  0  0  0  0  0
   -3.6789   -2.2887   -0.2370 H   0  0  0  0  0  0  0  0  0  0  0  0
   -4.0834    1.6841    1.3916 H   0  0  0  0  0  0  0  0  0  0  0  0
    6.7943    3.3701   -1.7778 H   0  0  0  0  0  0  0  0  0  0  0  0
   -5.7322   -1.9429   -1.5574 H   0  0  0  0  0  0  0  0  0  0  0  0
   -6.1089    2.0249    0.0802 H   0  0  0  0  0  0  0  0  0  0  0  0
    0.0320    0.9313   -0.4355 H   0  0  0  0  0  0  0  0  0  0  0  0
   -0.6639    1.5805    1.0601 H   0  0  0  0  0  0  0  0  0  0  0  0
   -1.6758    1.3311   -0.3726 H   0  0  0  0  0  0  0  0  0  0  0  0
   -7.5737    2.1514   -1.7249 H   0  0  0  0  0  0  0  0  0  0  0  0
   -8.3847    1.2746   -0.3686 H   0  0  0  0  0  0  0  0  0  0  0  0
   -8.9408    1.0757   -2.0346 H   0  0  0  0  0  0  0  0  0  0  0  0
   -3.2827    0.7150   -0.3625 H   0  0  0  0  0  0  0  0  0  0  0  0
    3.2800   -0.7102    0.3224 H   0  0  0  0  0  0  0  0  0  0  0  0
   -0.0303   -1.5407    0.1218 H   0  0  0  0  0  0  0  0  0  0  0  0
    0.0319    1.5414   -0.1791 H   0  0  0  0  0  0  0  0  0  0  0  0
   -6.8477   -0.9912    2.4000 H   0  0  0  0  0  0  0  0  0  0  0  0
   -1.5821   -1.4915   -1.1988 H   0  0  0  0  0  0  0  0  0  0  0  0
   -5.8527    0.5622   -0.7402 H   0  0  0  0  0  0  0  0  0  0  0  0
    1.2423    1.0407    0.5468 H   0  0  0  0  0  0  0  0  0  0  0  0
   -3.6510    0.4257   -0.6908 H   0  0  0  0  0  0  0  0  0  0  0  0
   -0.3649   -0.8185    0.6224 H   0  0  0  0  0  0  0  0  0  0  0  0
   -1.5935   -1.4271    2.5973 H   0  0  0  0  0  0  0  0  0  0  0  0
   -3.7562   -1.8614    3.6936 H   0  0  0  0  0  0  0  0  0  0  0  0
   -1.4530    1.9326   -0.2613 H   0  0  0  0  0  0  0  0  0  0  0  0
   -0.9078    1.5949    1.3649 H   0  0  0  0  0  0  0  0  0  0  0  0
    0.7989    0.4949   -1.7763 H   0  0  0  0  0  0  0  0  0  0  0  0
    2.7790    1.8461   -2.6582 H   0  0  0  0  0  0  0  0  0  0  0  0
    2.7975    2.7357   -1.1455 H   0  0  0  0  0  0  0  0  0  0  0  0
    2.9763   -0.7484   -2.5884 H   0  0  0  0  0  0  0  0  0  0  0  0
    4.0029    1.8219    0.7212 H   0  0  0  0  0  0  0  0  0  0  0  0
   -8.0102    0.4855   -0.3491 H   0  0  0  0  0  0  0  0  0  0  0  0
    4.3872   -2.5276   -1.6288 H   0  0  0  0  0  0  0  0  0  0  0  0
    5.3968    0.0555    1.6725 H   0  0  0  0  0  0  0  0  0  0  0  0
    0.4131    3.5348   -2.0014 H   0  0  0  0  0  0  0  0  0  0  0  0
    0.5832    2.4100   -3.3524 H   0  0  0  0  0  0  0  0  0  0  0  0
   -0.8292    2.3065   -2.3190 H   0  0  0  0  0  0  0  0  0  0  0  0
    6.0072   -2.0719    2.5271 H   0  0  0  0  0  0  0  0  0  0  0  0
    7.1798   -3.1481    1.7556 H   0  0  0  0  0  0  0  0  0  0  0  0
    7.2899   -1.4133    1.4346 H   0  0  0  0  0  0  0  0  0  0  0  0
    0.7645   -0.1965    0.0000 H   0  0  0  0  0  0  0  0  0  0  0  0
   -0.7634   -0.2010    0.0000 H   0  0  0  0  0  0  0  0  0  0  0  0
  2 10  1  0
  3 12  1  0
  4 19  1  0
  4 26  1  0
  5 22  2  0
  6  9  1  0
  6 22  1  0
  7 15  1  0
  7 17  1  0
  8 11  2  0
  8 12  1  0
  8 13  1  0
  9 10  2  0
  9 11  1  0
 10 14  1  0
 12 15  1  0
 13 14  2  0
 16 18  1  0
 16 20  2  0
 16 21  1  0
 17 18  1  0
 17 25  1  0
 19 23  2  0
 19 24  1  0
 20 23  1  0
 21 24  2  0
 27 31  1  0
 28 32  1  0
 29 31  2  0
 30 32  2  0
 31 33  1  0
 32 34  1  0
 33 34  2  0
 35 43  1  0
 36 45  1  0
 37 52  1  0
 37 59  1  0
 38 55  2  0
 39 42  1  0
 39 55  1  0
 40 48  1  0
 40 50  1  0
 41 44  2  0
 41 45  1  0
 41 46  1  0
 42 43  2  0
 42 44  1  0
 43 47  1  0
 45 48  1  0
 46 47  2  0
 49 51  1  0
 49 53  2  0
 49 54  1  0
 50 51  1  0
 50 58  1  0
 52 56  2  0
 52 57  1  0
 53 56  1  0
 54 57  2  0
  1 61  1  0
  1 62  1  0
  2 63  1  0
  3 64  1  0
  6 65  1  0
  7 66  1  0
 11 67  1  0
 12 68  1  6
 13 69  1  0
 14 70  1  0
 15 71  1  0
 15 72  1  0
 17 73  1  6
 18 74  1  0
 18 75  1  0
 20 76  1  0
 21 77  1  0
 22 78  1  0
 23 79  1  0
 24 80  1  0
 25 81  1  0
 25 82  1  0
 25 83  1  0
 26 84  1  0
 26 85  1  0
 26 86  1  0
 27 87  1  0
 28 88  1  0
 33 89  1  0
 34 90  1  0
 35 91  1  0
 36 92  1  0
 39 93  1  0
 40 94  1  0
 44 95  1  0
 45 96  1  1
 46 97  1  0
 47 98  1  0
 48 99  1  0
 48100  1  0
 50101  1  6
 51102  1  0
 51103  1  0
 53104  1  0
 54105  1  0
 55106  1  0
 56107  1  0
 57108  1  0
 58109  1  0
 58110  1  0
 58111  1  0
 59112  1  0
 59113  1  0
 59114  1  0
 60115  1  0
 60116  1  0
M  END
$$$$
