
     RDKit          3D

 60 59  0  0  0  0  0  0  0  0999 V2000
    0.0000    0.0000    0.0000 O   0  0  0  0  0  0  0  0  0  0  0  0
   -5.2342    1.2894   -2.8204 O   0  0  0  0  0  0  0  0  0  0  0  0
   -1.5608    0.5931    2.2120 O   0  0  0  0  0  0  0  0  0  0  0  0
    6.8606    0.0188   -0.0298 O   0  0  0  0  0  0  0  0  0  0  0  0
   -5.9649    2.4451    0.5577 O   0  0  0  0  0  0  0  0  0  0  0  0
   -5.8912    0.2552   -0.2872 N   0  0  0  0  0  0  0  0  0  0  0  0
    1.0917   -0.1846    1.5546 N   0  0  0  0  0  0  0  0  0  0  0  0
   -2.1971    0.4440   -0.0739 C   0  0  0  0  0  0  0  0  0  0  0  0
   -4.5419    0.4988   -0.6590 C   0  0  0  0  0  0  0  0  0  0  0  0
   -4.1962    1.0132   -1.9137 C   0  0  0  0  0  0  0  0  0  0  0  0
   -3.5249    0.2220    0.2440 C   0  0  0  0  0  0  0  0  0  0  0  0
   -1.1953    0.1130    0.9698 C   0  0  0  0  0  0  0  0  0  0  0  0
   -1.8779    0.9504   -1.3124 C   0  0  0  0  0  0  0  0  0  0  0  0
   -2.8723    1.2401   -2.2446 C   0  0  0  0  0  0  0  0  0  0  0  0
    0.2219    0.4188    0.5625 C   0  0  0  0  0  0  0  0  0  0  0  0
    2.9698   -1.4932    0.0744 C   0  0  0  0  0  0  0  0  0  0  0  0
    1.0425   -1.6364    1.4889 C   0  0  0  0  0  0  0  0  0  0  0  0
    1.5632   -2.0335    0.1075 C   0  0  0  0  0  0  0  0  0  0  0  0
    5.5985   -0.5241    0.0250 C   0  0  0  0  0  0  0  0  0  0  0  0
    4.0196   -2.2939    0.5339 C   0  0  0  0  0  0  0  0  0  0  0  0
    3.2535   -0.2296   -0.3987 C   0  0  0  0  0  0  0  0  0  0  0  0
   -6.5653    1.3392    0.3500 C   0  0  0  0  0  0  0  0  0  0  0  0
    5.3159   -1.7889    0.4988 C   0  0  0  0  0  0  0  0  0  0  0  0
    4.5499    0.2786   -0.4350 C   0  0  0  0  0  0  0  0  0  0  0  0
    2.0001   -2.2634    2.4790 C   0  0  0  0  0  0  0  0  0  0  0  0
    7.1348    1.3280   -0.5232 C   0  0  0  0  0  0  0  0  0  0  0  0
    3.0376   -0.1334   -0.4975 O   0  0  0  0  0  0  0  0  0  0  0  0
   -2.8936    0.2484    0.8489 O   0  0  0  0  0  0  0  0  0  0  0  0
    1.9846    0.8018    1.2612 O   0  0  0  0  0  0  0  0  0  0  0  0
   -2.1202   -0.8040   -1.0831 O   0  0  0  0  0  0  0  0  0  0  0  0
    1.8548    0.1684    0.1664 C   0  0  0  0  0  0  0  0  0  0  0  0
   -1.8933   -0.1800   -0.0158 C   0  0  0  0  0  0  0  0  0  0  0  0
    0.5446   -0.2164   -0.3580 C   0  0  0  0  0  0  0  0  0  0  0  0
   -0.5145    0.1152    0.3437 C   0  0  0  0  0  0  0  0  0  0  0  0
   -5.5003    1.2414    2.1479 O   0  0  0  0  0  0  0  0  0  0  0  0
   -0.1361    0.3675   -1.1553 O   0  0  0  0  0  0  0  0  0  0  0  0
    7.0086    0.7570   -0.6632 O   0  0  0  0  0  0  0  0  0  0  0  0
   -5.7233    2.6642   -1.2734 O   0  0  0  0  0  0  0  0  0  0  0  0
   -5.9871    0.4600   -0.5429 N   0  0  0  0  0  0  0  0  0  0  0  0
   -0.3010   -1.6818    0.6115 N   0  0  0  0  0  0  0  0  0  0  0  0
   -2.3141   -0.0200   -0.3121 C   0  0  0  0  0  0  0  0  0  0  0  0
   -4.6809    0.4359   -0.0009 C   0  0  0  0  0  0  0  0  0  0  0  0
   -4.4410    0.8216    1.3260 C   0  0  0  0  0  0  0  0  0  0  0  0
   -3.6134    0.0187   -0.8067 C   0  0  0  0  0  0  0  0  0  0  0  0
   -1.2258   -0.4798   -1.2263 C   0  0  0  0  0  0  0  0  0  0  0  0
   -2.0812    0.3601    0.9935 C   0  0  0  0  0  0  0  0  0  0  0  0
   -3.1303    0.7804    1.8176 C   0  0  0  0  0  0  0  0  0  0  0  0
   -0.7722   -1.8708   -0.7588 C   0  0  0  0  0  0  0  0  0  0  0  0
    3.2424   -1.0347   -0.4108 C   0  0  0  0  0  0  0  0  0  0  0  0
    0.9330   -0.8829    0.5399 C   0  0  0  0  0  0  0  0  0  0  0  0
    1.9243   -1.7069   -0.2427 C   0  0  0  0  0  0  0  0  0  0  0  0
    5.7546    0.1542   -0.5687 C   0  0  0  0  0  0  0  0  0  0  0  0
    3.5348   -0.2315   -1.4962 C   0  0  0  0  0  0  0  0  0  0  0  0
    4.1969   -1.2275    0.5632 C   0  0  0  0  0  0  0  0  0  0  0  0
   -6.4349    1.6484   -1.1764 C   0  0  0  0  0  0  0  0  0  0  0  0
    4.8063    0.3486   -1.5414 C   0  0  0  0  0  0  0  0  0  0  0  0
    5.4597   -0.6569    0.5273 C   0  0  0  0  0  0  0  0  0  0  0  0
    1.4681   -0.8620    1.9759 C   0  0  0  0  0  0  0  0  0  0  0  0
    8.0129    0.5968    0.2927 C   0  0  0  0  0  0  0  0  0  0  0  0
    0.0000    0.0000    0.0000 O   0  0  0  0  0  0  0  0  0  0  0  0
  2 10  1  0
  3 12  1  0
  4 19  1  0
  4 26  1  0
  5 22  2  0
  6  9  1  0
  6 22  1  0
  7 15  1  0
  7 17  1  0
  8 11  2  0
  8 12  1  0
  8 13  1  0
  9 10  2  0
  9 11  1  0
 10 14  1  0
 12 15  1  0
 13 14  2  0
 16 18  1  0
 16 20  2  0
 16 21  1  0
 17 18  1  0
 17 25  1  0
 19 23  2  0
 19 24  1  0
 20 23  1  0
 21 24  2  0
 27 31  1  0
 28 32  1  0
 29 31  2  0
 30 32  2  0
 31 33  1  0
 32 34  1  0
 33 34  2  0
 35 43  1  0
 36 45  1  0
 37 52  1  0
 37 59  1  0
 38 55  2  0
 39 42  1  0
 39 55  1  0
 40 48  1  0
 40 50  1  0
 41 44  2  0
 41 45  1  0
 41 46  1  0
 42 43  2  0
 42 44  1  0
 43 47  1  0
 45 48  1  0
 46 47  2  0
 49 51  1  0
 49 53  2  0
 49 54  1  0
 50 51  1  0
 50 58  1  0
 52 56  2  0
 52 57  1  0
 53 56  1  0
 54 57  2  0
M  END
