
     RDKit          3D

100105  0  0  0  0  0  0  0  0999 V2000
   32.7758   13.9560   24.3974 N   0  0  0  0  0  0  0  0  0  0  0  0
   33.7127   15.0019   24.1733 C   0  0  0  0  0  0  0  0  0  0  0  0
   31.6525    5.3624   30.3632 N   0  0  0  0  0  0  0  0  0  0  0  0
   29.7158    4.0098   29.6849 C   0  0  0  0  0  0  0  0  0  0  0  0
   30.4397    5.3484   29.5866 C   0  0  0  0  0  0  0  0  0  0  0  0
   32.3575   14.0558   25.6307 C   0  0  0  0  0  0  0  0  0  0  0  0
   32.9527   15.2385   26.3731 C   0  0  0  0  0  0  0  0  0  0  0  0
   33.8666   15.7892   25.2955 C   0  0  0  0  0  0  0  0  0  0  0  0
   30.6795    3.2368   30.5699 C   0  0  0  0  0  0  0  0  0  0  0  0
   31.7650    4.0413   30.8854 C   0  0  0  0  0  0  0  0  0  0  0  0
   28.0281    8.3656   32.3112 S   0  0  0  0  0  0  0  0  0  0  0  0
   28.0561   12.7097   22.8103 S   0  0  0  0  0  0  0  0  0  0  0  0
   34.7851   16.8652   25.3001 C   0  0  0  0  0  0  0  0  0  0  0  0
   30.6175    1.9037   31.0522 C   0  0  0  0  0  0  0  0  0  0  0  0
   34.4603   15.2176   23.0137 C   0  0  0  0  0  0  0  0  0  0  0  0
   32.8358    3.5651   31.6476 C   0  0  0  0  0  0  0  0  0  0  0  0
   27.4750    9.7512   31.5381 O   0  0  0  0  0  0  0  0  0  0  0  0
   29.0334   11.3511   22.6564 O   0  0  0  0  0  0  0  0  0  0  0  0
   30.0443    6.3281   28.7498 C   0  0  0  0  0  0  0  0  0  0  0  0
   31.4442   13.0874   26.2686 C   0  0  0  0  0  0  0  0  0  0  0  0
   27.2930    7.1729   31.7640 O   0  0  0  0  0  0  0  0  0  0  0  0
   27.7668    8.4826   33.7876 O   0  0  0  0  0  0  0  0  0  0  0  0
   26.7994   12.5088   22.0080 O   0  0  0  0  0  0  0  0  0  0  0  0
   27.6957   12.9001   24.2587 O   0  0  0  0  0  0  0  0  0  0  0  0
   30.9343    7.3899   28.2625 C   0  0  0  0  0  0  0  0  0  0  0  0
   31.8260   11.8266   26.4684 C   0  0  0  0  0  0  0  0  0  0  0  0
   30.9172   10.8292   27.0529 C   0  0  0  0  0  0  0  0  0  0  0  0
   31.3500    9.5929   27.3129 C   0  0  0  0  0  0  0  0  0  0  0  0
   30.4493    8.5588   27.8429 C   0  0  0  0  0  0  0  0  0  0  0  0
   32.3324   12.9748   23.3931 C   0  0  0  0  0  0  0  0  0  0  0  0
   31.7019    1.4208   31.8440 C   0  0  0  0  0  0  0  0  0  0  0  0
   35.5522   17.0951   24.1223 C   0  0  0  0  0  0  0  0  0  0  0  0
   32.8009    2.2536   32.1260 C   0  0  0  0  0  0  0  0  0  0  0  0
   35.3783   16.2717   22.9908 C   0  0  0  0  0  0  0  0  0  0  0  0
   32.2783    6.5341   31.0099 C   0  0  0  0  0  0  0  0  0  0  0  0
   28.3277    4.1854   30.3394 C   0  0  0  0  0  0  0  0  0  0  0  0
   29.6211    3.3634   28.2834 C   0  0  0  0  0  0  0  0  0  0  0  0
   33.7324   14.7374   27.6035 C   0  0  0  0  0  0  0  0  0  0  0  0
   31.8408   16.2322   26.7501 C   0  0  0  0  0  0  0  0  0  0  0  0
   29.7793    8.1903   32.0150 C   0  0  0  0  0  0  0  0  0  0  0  0
   28.9057   14.1633   22.2110 C   0  0  0  0  0  0  0  0  0  0  0  0
   29.5330    1.0410   30.7957 C   0  0  0  0  0  0  0  0  0  0  0  0
   34.9827   17.7050   26.4128 C   0  0  0  0  0  0  0  0  0  0  0  0
   36.4937   18.1355   24.0942 C   0  0  0  0  0  0  0  0  0  0  0  0
   31.6747    0.1095   32.3479 C   0  0  0  0  0  0  0  0  0  0  0  0
   31.4034   13.6062   22.3451 C   0  0  0  0  0  0  0  0  0  0  0  0
   31.8296    6.7248   32.4712 C   0  0  0  0  0  0  0  0  0  0  0  0
   30.3130    6.8991   32.6476 C   0  0  0  0  0  0  0  0  0  0  0  0
   30.2252   14.3916   22.9627 C   0  0  0  0  0  0  0  0  0  0  0  0
   35.9285   18.7328   26.3673 C   0  0  0  0  0  0  0  0  0  0  0  0
   29.5241   -0.2616   31.3028 C   0  0  0  0  0  0  0  0  0  0  0  0
   30.5889   -0.7244   32.0771 C   0  0  0  0  0  0  0  0  0  0  0  0
   36.6790   18.9484   25.2142 C   0  0  0  0  0  0  0  0  0  0  0  0
   34.3513   14.5808   22.1479 H   0  0  0  0  0  0  0  0  0  0  0  0
   33.6891    4.1937   31.8683 H   0  0  0  0  0  0  0  0  0  0  0  0
   29.0671    6.2583   28.2878 H   0  0  0  0  0  0  0  0  0  0  0  0
   30.4768   13.4319   26.6112 H   0  0  0  0  0  0  0  0  0  0  0  0
   32.0020    7.1956   28.2177 H   0  0  0  0  0  0  0  0  0  0  0  0
   32.8259   11.5208   26.1722 H   0  0  0  0  0  0  0  0  0  0  0  0
   29.8821   11.1005   27.2555 H   0  0  0  0  0  0  0  0  0  0  0  0
   32.3922    9.3382   27.1324 H   0  0  0  0  0  0  0  0  0  0  0  0
   29.3836    8.7570   27.9054 H   0  0  0  0  0  0  0  0  0  0  0  0
   31.7974   12.1255   23.8616 H   0  0  0  0  0  0  0  0  0  0  0  0
   33.2202   12.5405   22.8845 H   0  0  0  0  0  0  0  0  0  0  0  0
   33.6348    1.8857   32.7158 H   0  0  0  0  0  0  0  0  0  0  0  0
   35.9607   16.4391   22.0926 H   0  0  0  0  0  0  0  0  0  0  0  0
   32.0845    7.4696   30.4651 H   0  0  0  0  0  0  0  0  0  0  0  0
   33.3799    6.4052   30.9945 H   0  0  0  0  0  0  0  0  0  0  0  0
   28.4178    4.3735   31.4304 H   0  0  0  0  0  0  0  0  0  0  0  0
   27.6912    3.2903   30.1977 H   0  0  0  0  0  0  0  0  0  0  0  0
   27.7786    5.0343   29.8781 H   0  0  0  0  0  0  0  0  0  0  0  0
   28.9574    3.9589   27.6210 H   0  0  0  0  0  0  0  0  0  0  0  0
   29.2067    2.3374   28.3247 H   0  0  0  0  0  0  0  0  0  0  0  0
   30.6267    3.3066   27.8100 H   0  0  0  0  0  0  0  0  0  0  0  0
   34.1739   15.5719   28.1812 H   0  0  0  0  0  0  0  0  0  0  0  0
   34.5501   14.0537   27.2906 H   0  0  0  0  0  0  0  0  0  0  0  0
   33.0547   14.1846   28.2874 H   0  0  0  0  0  0  0  0  0  0  0  0
   31.1201   15.7566   27.4513 H   0  0  0  0  0  0  0  0  0  0  0  0
   31.2888   16.5618   25.8427 H   0  0  0  0  0  0  0  0  0  0  0  0
   32.2478   17.1322   27.2511 H   0  0  0  0  0  0  0  0  0  0  0  0
   29.9379    8.1782   30.9188 H   0  0  0  0  0  0  0  0  0  0  0  0
   30.3021    9.0704   32.4468 H   0  0  0  0  0  0  0  0  0  0  0  0
   28.2416   15.0364   22.3748 H   0  0  0  0  0  0  0  0  0  0  0  0
   29.0841   14.0759   21.1154 H   0  0  0  0  0  0  0  0  0  0  0  0
   28.6833    1.3514   30.2168 H   0  0  0  0  0  0  0  0  0  0  0  0
   34.4206   17.5883   27.3205 H   0  0  0  0  0  0  0  0  0  0  0  0
   37.0920   18.3161   23.2090 H   0  0  0  0  0  0  0  0  0  0  0  0
   32.4940   -0.2689   32.9514 H   0  0  0  0  0  0  0  0  0  0  0  0
   31.9858   14.2883   21.6882 H   0  0  0  0  0  0  0  0  0  0  0  0
   31.0363   12.7867   21.6908 H   0  0  0  0  0  0  0  0  0  0  0  0
   32.3529    7.6119   32.8912 H   0  0  0  0  0  0  0  0  0  0  0  0
   32.1590    5.8523   33.0733 H   0  0  0  0  0  0  0  0  0  0  0  0
   29.7870    6.0222   32.2263 H   0  0  0  0  0  0  0  0  0  0  0  0
   30.0949    6.9171   33.7375 H   0  0  0  0  0  0  0  0  0  0  0  0
   30.4740   15.4752   22.9142 H   0  0  0  0  0  0  0  0  0  0  0  0
   30.0787   14.1432   24.0377 H   0  0  0  0  0  0  0  0  0  0  0  0
   36.0758   19.3704   27.2303 H   0  0  0  0  0  0  0  0  0  0  0  0
   28.6837   -0.9144   31.1003 H   0  0  0  0  0  0  0  0  0  0  0  0
   30.5706   -1.7338   32.4704 H   0  0  0  0  0  0  0  0  0  0  0  0
   37.4104   19.7467   25.1892 H   0  0  0  0  0  0  0  0  0  0  0  0
  2  1  1  0
  3  5  1  0
  4  5  1  0
  5 19  2  0
  6  1  2  0
  7  6  1  0
  8  2  2  0
  9  4  1  0
 10  3  1  0
 11 40  1  0
 12 41  1  0
 13  8  1  0
 14  9  2  0
 15  2  1  0
 16 10  2  0
 17 11  1  0
 18 12  1  0
 19 25  1  0
 20  6  1  0
 21 11  2  0
 22 11  2  0
 23 12  2  0
 24 12  2  0
 25 29  2  0
 26 20  2  0
 27 26  1  0
 28 27  2  0
 29 28  1  0
 30  1  1  0
 31 14  1  0
 32 34  1  0
 33 16  1  0
 34 15  2  0
 35  3  1  0
 36  4  1  0
 37  4  1  0
 38  7  1  0
 39  7  1  0
 40 48  1  0
 41 49  1  0
 42 14  1  0
 43 13  2  0
 44 32  2  0
 45 31  1  0
 46 30  1  0
 47 35  1  0
 48 47  1  0
 49 46  1  0
 50 43  1  0
 51 42  2  0
 52 51  1  0
 53 44  1  0
  7  8  1  0
 13 32  1  0
 53 50  2  0
 10  9  1  0
 31 33  2  0
 52 45  2  0
 15 54  1  0
 16 55  1  0
 19 56  1  0
 20 57  1  0
 25 58  1  0
 26 59  1  0
 27 60  1  0
 28 61  1  0
 29 62  1  0
 30 63  1  0
 30 64  1  0
 33 65  1  0
 34 66  1  0
 35 67  1  0
 35 68  1  0
 36 69  1  0
 36 70  1  0
 36 71  1  0
 37 72  1  0
 37 73  1  0
 37 74  1  0
 38 75  1  0
 38 76  1  0
 38 77  1  0
 39 78  1  0
 39 79  1  0
 39 80  1  0
 40 81  1  0
 40 82  1  0
 41 83  1  0
 41 84  1  0
 42 85  1  0
 43 86  1  0
 44 87  1  0
 45 88  1  0
 46 89  1  0
 46 90  1  0
 47 91  1  0
 47 92  1  0
 48 93  1  0
 48 94  1  0
 49 95  1  0
 49 96  1  0
 50 97  1  0
 51 98  1  0
 52 99  1  0
 53100  1  0
M  CHG  3   1   1  17  -1  18  -1
M  END
> <Uni-Dock RESULT> 
ENERGY=   -5.668  LOWER_BOUND=    0.000  UPPER_BOUND=    0.000
INTER + INTRA:          -5.668
INTER:                  -5.668
INTRA:                   0.000
UNBOUND:                 0.000

$$$$

     RDKit          3D

100105  0  0  0  0  0  0  0  0999 V2000
   32.6117   14.0866   24.4325 N   0  0  0  0  0  0  0  0  0  0  0  0
   33.5491   15.1258   24.1809 C   0  0  0  0  0  0  0  0  0  0  0  0
   31.6902    5.3835   30.2730 N   0  0  0  0  0  0  0  0  0  0  0  0
   29.7034    4.0686   29.6698 C   0  0  0  0  0  0  0  0  0  0  0  0
   30.4384    5.4002   29.5610 C   0  0  0  0  0  0  0  0  0  0  0  0
   32.2597   14.1654   25.6879 C   0  0  0  0  0  0  0  0  0  0  0  0
   32.9082   15.3251   26.4219 C   0  0  0  0  0  0  0  0  0  0  0  0
   33.7716   15.8875   25.3093 C   0  0  0  0  0  0  0  0  0  0  0  0
   30.7019    3.2657   30.4871 C   0  0  0  0  0  0  0  0  0  0  0  0
   31.8127    4.0505   30.7615 C   0  0  0  0  0  0  0  0  0  0  0  0
   28.2117    8.3880   32.4692 S   0  0  0  0  0  0  0  0  0  0  0  0
   27.7998   12.9300   23.0702 S   0  0  0  0  0  0  0  0  0  0  0  0
   34.7029   16.9521   25.2876 C   0  0  0  0  0  0  0  0  0  0  0  0
   30.6478    1.9236   30.9448 C   0  0  0  0  0  0  0  0  0  0  0  0
   34.2379   15.3569   22.9883 C   0  0  0  0  0  0  0  0  0  0  0  0
   32.9155    3.5458   31.4566 C   0  0  0  0  0  0  0  0  0  0  0  0
   27.6370    9.7959   31.7545 O   0  0  0  0  0  0  0  0  0  0  0  0
   28.7500   11.5635   22.8377 O   0  0  0  0  0  0  0  0  0  0  0  0
   30.0126    6.4019   28.7661 C   0  0  0  0  0  0  0  0  0  0  0  0
   31.3685   13.1948   26.3530 C   0  0  0  0  0  0  0  0  0  0  0  0
   27.4336    7.2158   31.9371 O   0  0  0  0  0  0  0  0  0  0  0  0
   28.0293    8.4770   33.9593 O   0  0  0  0  0  0  0  0  0  0  0  0
   26.5004   12.7609   22.3311 O   0  0  0  0  0  0  0  0  0  0  0  0
   27.5180   13.0943   24.5392 O   0  0  0  0  0  0  0  0  0  0  0  0
   30.8896    7.4631   28.2545 C   0  0  0  0  0  0  0  0  0  0  0  0
   31.7438   11.9256   26.5068 C   0  0  0  0  0  0  0  0  0  0  0  0
   30.8539   10.9269   27.1177 C   0  0  0  0  0  0  0  0  0  0  0  0
   31.2837    9.6804   27.3294 C   0  0  0  0  0  0  0  0  0  0  0  0
   30.3986    8.6462   27.8849 C   0  0  0  0  0  0  0  0  0  0  0  0
   32.1038   13.1320   23.4332 C   0  0  0  0  0  0  0  0  0  0  0  0
   31.7658    1.4114   31.6686 C   0  0  0  0  0  0  0  0  0  0  0  0
   35.4104   17.1976   24.0761 C   0  0  0  0  0  0  0  0  0  0  0  0
   32.8887    2.2250   31.9094 C   0  0  0  0  0  0  0  0  0  0  0  0
   35.1670   16.4003   22.9388 C   0  0  0  0  0  0  0  0  0  0  0  0
   32.3641    6.5339   30.9096 C   0  0  0  0  0  0  0  0  0  0  0  0
   28.3537    4.2469   30.3997 C   0  0  0  0  0  0  0  0  0  0  0  0
   29.5272    3.4529   28.2623 C   0  0  0  0  0  0  0  0  0  0  0  0
   33.7444   14.7891   27.5993 C   0  0  0  0  0  0  0  0  0  0  0  0
   31.8304   16.3238   26.8769 C   0  0  0  0  0  0  0  0  0  0  0  0
   29.9426    8.1981   32.0780 C   0  0  0  0  0  0  0  0  0  0  0  0
   28.6357   14.3857   22.4570 C   0  0  0  0  0  0  0  0  0  0  0  0
   29.5404    1.0794   30.7280 C   0  0  0  0  0  0  0  0  0  0  0  0
   34.9692   17.7660   26.4053 C   0  0  0  0  0  0  0  0  0  0  0  0
   36.3626   18.2271   24.0198 C   0  0  0  0  0  0  0  0  0  0  0  0
   31.7479    0.0902   32.1464 C   0  0  0  0  0  0  0  0  0  0  0  0
   31.1296   13.7963   22.4484 C   0  0  0  0  0  0  0  0  0  0  0  0
   31.9947    6.6991   32.3960 C   0  0  0  0  0  0  0  0  0  0  0  0
   30.4918    6.8877   32.6553 C   0  0  0  0  0  0  0  0  0  0  0  0
   29.9955   14.5825   23.1428 C   0  0  0  0  0  0  0  0  0  0  0  0
   35.9246   18.7832   26.3311 C   0  0  0  0  0  0  0  0  0  0  0  0
   29.5411   -0.2333   31.2083 C   0  0  0  0  0  0  0  0  0  0  0  0
   30.6388   -0.7249   31.9160 C   0  0  0  0  0  0  0  0  0  0  0  0
   36.6166   19.0140   25.1449 C   0  0  0  0  0  0  0  0  0  0  0  0
   34.0755   14.7397   22.1167 H   0  0  0  0  0  0  0  0  0  0  0  0
   33.7873    4.1593   31.6450 H   0  0  0  0  0  0  0  0  0  0  0  0
   29.0118    6.3535   28.3548 H   0  0  0  0  0  0  0  0  0  0  0  0
   30.4248   13.5435   26.7528 H   0  0  0  0  0  0  0  0  0  0  0  0
   31.9509    7.2571   28.1498 H   0  0  0  0  0  0  0  0  0  0  0  0
   32.7228   11.6142   26.1523 H   0  0  0  0  0  0  0  0  0  0  0  0
   29.8344   11.2062   27.3799 H   0  0  0  0  0  0  0  0  0  0  0  0
   32.3116    9.4173   27.0894 H   0  0  0  0  0  0  0  0  0  0  0  0
   29.3403    8.8557   28.0072 H   0  0  0  0  0  0  0  0  0  0  0  0
   31.5830   12.2795   23.9116 H   0  0  0  0  0  0  0  0  0  0  0  0
   32.9581   12.6980   22.8699 H   0  0  0  0  0  0  0  0  0  0  0  0
   33.7474    1.8348   32.4471 H   0  0  0  0  0  0  0  0  0  0  0  0
   35.7038   16.5796   22.0148 H   0  0  0  0  0  0  0  0  0  0  0  0
   32.1542    7.4828   30.3949 H   0  0  0  0  0  0  0  0  0  0  0  0
   33.4616    6.3923   30.8338 H   0  0  0  0  0  0  0  0  0  0  0  0
   28.5031    4.4109   31.4880 H   0  0  0  0  0  0  0  0  0  0  0  0
   27.6991    3.3625   30.2734 H   0  0  0  0  0  0  0  0  0  0  0  0
   27.7923    5.1117   29.9852 H   0  0  0  0  0  0  0  0  0  0  0  0
   28.8376    4.0700   27.6480 H   0  0  0  0  0  0  0  0  0  0  0  0
   29.1023    2.4313   28.3044 H   0  0  0  0  0  0  0  0  0  0  0  0
   30.5059    3.3941   27.7358 H   0  0  0  0  0  0  0  0  0  0  0  0
   34.2263   15.6060   28.1699 H   0  0  0  0  0  0  0  0  0  0  0  0
   34.5357   14.1024   27.2301 H   0  0  0  0  0  0  0  0  0  0  0  0
   33.0962   14.2301   28.3064 H   0  0  0  0  0  0  0  0  0  0  0  0
   31.1412   15.8422   27.6052 H   0  0  0  0  0  0  0  0  0  0  0  0
   31.2361   16.6790   26.0066 H   0  0  0  0  0  0  0  0  0  0  0  0
   32.2747   17.2082   27.3741 H   0  0  0  0  0  0  0  0  0  0  0  0
   30.0436    8.2072   30.9749 H   0  0  0  0  0  0  0  0  0  0  0  0
   30.4986    9.0627   32.4995 H   0  0  0  0  0  0  0  0  0  0  0  0
   27.9924   15.2629   22.6731 H   0  0  0  0  0  0  0  0  0  0  0  0
   28.7555   14.3193   21.3519 H   0  0  0  0  0  0  0  0  0  0  0  0
   28.6657    1.4120   30.2010 H   0  0  0  0  0  0  0  0  0  0  0  0
   34.4538   17.6369   27.3387 H   0  0  0  0  0  0  0  0  0  0  0  0
   36.9161   18.4191   23.1083 H   0  0  0  0  0  0  0  0  0  0  0  0
   32.5927   -0.3105   32.6983 H   0  0  0  0  0  0  0  0  0  0  0  0
   31.6856   14.4851   21.7759 H   0  0  0  0  0  0  0  0  0  0  0  0
   30.7183   12.9952   21.7978 H   0  0  0  0  0  0  0  0  0  0  0  0
   32.5508    7.5710   32.8060 H   0  0  0  0  0  0  0  0  0  0  0  0
   32.3439    5.8103   32.9622 H   0  0  0  0  0  0  0  0  0  0  0  0
   29.9332    6.0262   32.2444 H   0  0  0  0  0  0  0  0  0  0  0  0
   30.3312    6.8854   33.7553 H   0  0  0  0  0  0  0  0  0  0  0  0
   30.2554   15.6639   23.1034 H   0  0  0  0  0  0  0  0  0  0  0  0
   29.9022   14.3133   24.2188 H   0  0  0  0  0  0  0  0  0  0  0  0
   36.1250   19.4008   27.1980 H   0  0  0  0  0  0  0  0  0  0  0  0
   28.6828   -0.8717   31.0369 H   0  0  0  0  0  0  0  0  0  0  0  0
   30.6279   -1.7420   32.2891 H   0  0  0  0  0  0  0  0  0  0  0  0
   37.3560   19.8040   25.0978 H   0  0  0  0  0  0  0  0  0  0  0  0
  2  1  1  0
  3  5  1  0
  4  5  1  0
  5 19  2  0
  6  1  2  0
  7  6  1  0
  8  2  2  0
  9  4  1  0
 10  3  1  0
 11 40  1  0
 12 41  1  0
 13  8  1  0
 14  9  2  0
 15  2  1  0
 16 10  2  0
 17 11  1  0
 18 12  1  0
 19 25  1  0
 20  6  1  0
 21 11  2  0
 22 11  2  0
 23 12  2  0
 24 12  2  0
 25 29  2  0
 26 20  2  0
 27 26  1  0
 28 27  2  0
 29 28  1  0
 30  1  1  0
 31 14  1  0
 32 34  1  0
 33 16  1  0
 34 15  2  0
 35  3  1  0
 36  4  1  0
 37  4  1  0
 38  7  1  0
 39  7  1  0
 40 48  1  0
 41 49  1  0
 42 14  1  0
 43 13  2  0
 44 32  2  0
 45 31  1  0
 46 30  1  0
 47 35  1  0
 48 47  1  0
 49 46  1  0
 50 43  1  0
 51 42  2  0
 52 51  1  0
 53 44  1  0
  7  8  1  0
 13 32  1  0
 53 50  2  0
 10  9  1  0
 31 33  2  0
 52 45  2  0
 15 54  1  0
 16 55  1  0
 19 56  1  0
 20 57  1  0
 25 58  1  0
 26 59  1  0
 27 60  1  0
 28 61  1  0
 29 62  1  0
 30 63  1  0
 30 64  1  0
 33 65  1  0
 34 66  1  0
 35 67  1  0
 35 68  1  0
 36 69  1  0
 36 70  1  0
 36 71  1  0
 37 72  1  0
 37 73  1  0
 37 74  1  0
 38 75  1  0
 38 76  1  0
 38 77  1  0
 39 78  1  0
 39 79  1  0
 39 80  1  0
 40 81  1  0
 40 82  1  0
 41 83  1  0
 41 84  1  0
 42 85  1  0
 43 86  1  0
 44 87  1  0
 45 88  1  0
 46 89  1  0
 46 90  1  0
 47 91  1  0
 47 92  1  0
 48 93  1  0
 48 94  1  0
 49 95  1  0
 49 96  1  0
 50 97  1  0
 51 98  1  0
 52 99  1  0
 53100  1  0
M  CHG  3   1   1  17  -1  18  -1
M  END
> <Uni-Dock RESULT> 
ENERGY=   -5.594  LOWER_BOUND=    0.215  UPPER_BOUND=    0.215
INTER + INTRA:          -5.594
INTER:                  -5.594
INTRA:                   0.000
UNBOUND:                 0.000

$$$$

     RDKit          3D

100105  0  0  0  0  0  0  0  0999 V2000
   31.5700   13.4228   24.1014 N   0  0  0  0  0  0  0  0  0  0  0  0
   32.4781   14.1485   23.2825 C   0  0  0  0  0  0  0  0  0  0  0  0
   31.4166    4.9042   30.2750 N   0  0  0  0  0  0  0  0  0  0  0  0
   29.1384    4.3133   30.9826 C   0  0  0  0  0  0  0  0  0  0  0  0
   30.0549    5.3644   30.3659 C   0  0  0  0  0  0  0  0  0  0  0  0
   32.0059   13.4878   25.3309 C   0  0  0  0  0  0  0  0  0  0  0  0
   33.2642   14.3240   25.4788 C   0  0  0  0  0  0  0  0  0  0  0  0
   33.4993   14.6994   24.0284 C   0  0  0  0  0  0  0  0  0  0  0  0
   30.1224    3.1741   31.1911 C   0  0  0  0  0  0  0  0  0  0  0  0
   31.3767    3.5574   30.7386 C   0  0  0  0  0  0  0  0  0  0  0  0
   30.8108    8.6029   33.7250 S   0  0  0  0  0  0  0  0  0  0  0  0
   26.7191   13.9065   25.7082 S   0  0  0  0  0  0  0  0  0  0  0  0
   34.5362   15.4299   23.4018 C   0  0  0  0  0  0  0  0  0  0  0  0
   29.9251    1.8748   31.7265 C   0  0  0  0  0  0  0  0  0  0  0  0
   32.4330   14.2700   21.8920 C   0  0  0  0  0  0  0  0  0  0  0  0
   32.4655    2.6807   30.7606 C   0  0  0  0  0  0  0  0  0  0  0  0
   30.3966   10.1786   33.3137 O   0  0  0  0  0  0  0  0  0  0  0  0
   26.9207   12.3443   25.1223 O   0  0  0  0  0  0  0  0  0  0  0  0
   29.5904    6.5170   29.8443 C   0  0  0  0  0  0  0  0  0  0  0  0
   31.3809   12.7749   26.4622 C   0  0  0  0  0  0  0  0  0  0  0  0
   29.5582    7.7754   33.8173 O   0  0  0  0  0  0  0  0  0  0  0  0
   31.5107    8.6046   35.0561 O   0  0  0  0  0  0  0  0  0  0  0  0
   25.2492   14.2074   25.8199 O   0  0  0  0  0  0  0  0  0  0  0  0
   27.3525   14.0115   27.0691 O   0  0  0  0  0  0  0  0  0  0  0  0
   30.3156    7.3060   28.8401 C   0  0  0  0  0  0  0  0  0  0  0  0
   31.3745   11.4430   26.5031 C   0  0  0  0  0  0  0  0  0  0  0  0
   30.7124   10.7082   27.5912 C   0  0  0  0  0  0  0  0  0  0  0  0
   30.7871    9.3761   27.6484 C   0  0  0  0  0  0  0  0  0  0  0  0
   30.0876    8.6111   28.6910 C   0  0  0  0  0  0  0  0  0  0  0  0
   30.3383   12.7633   23.6369 C   0  0  0  0  0  0  0  0  0  0  0  0
   31.0390    0.9839   31.7648 C   0  0  0  0  0  0  0  0  0  0  0  0
   34.4997   15.5610   21.9840 C   0  0  0  0  0  0  0  0  0  0  0  0
   32.2932    1.3939   31.2750 C   0  0  0  0  0  0  0  0  0  0  0  0
   33.4465   14.9835   21.2453 C   0  0  0  0  0  0  0  0  0  0  0  0
   32.6386    5.7329   30.3288 C   0  0  0  0  0  0  0  0  0  0  0  0
   28.5381    4.8229   32.3116 C   0  0  0  0  0  0  0  0  0  0  0  0
   28.0448    3.9128   29.9655 C   0  0  0  0  0  0  0  0  0  0  0  0
   34.3992   13.4536   26.0507 C   0  0  0  0  0  0  0  0  0  0  0  0
   32.9736   15.5552   26.3538 C   0  0  0  0  0  0  0  0  0  0  0  0
   31.8905    7.9357   32.4704 C   0  0  0  0  0  0  0  0  0  0  0  0
   27.4759   15.0915   24.6051 C   0  0  0  0  0  0  0  0  0  0  0  0
   28.6869    1.4288   32.2307 C   0  0  0  0  0  0  0  0  0  0  0  0
   35.6015   16.0180   24.1101 C   0  0  0  0  0  0  0  0  0  0  0  0
   35.5232   16.2551   21.3204 C   0  0  0  0  0  0  0  0  0  0  0  0
   30.8873   -0.3084   32.2951 C   0  0  0  0  0  0  0  0  0  0  0  0
   29.2398   13.7792   23.2886 C   0  0  0  0  0  0  0  0  0  0  0  0
   33.2135    5.8637   31.7520 C   0  0  0  0  0  0  0  0  0  0  0  0
   32.2392    6.4730   32.7723 C   0  0  0  0  0  0  0  0  0  0  0  0
   28.9720   14.8036   24.4135 C   0  0  0  0  0  0  0  0  0  0  0  0
   36.6140   16.7011   23.4310 C   0  0  0  0  0  0  0  0  0  0  0  0
   28.5537    0.1388   32.7521 C   0  0  0  0  0  0  0  0  0  0  0  0
   29.6492   -0.7250   32.7862 C   0  0  0  0  0  0  0  0  0  0  0  0
   36.5749   16.8206   22.0440 C   0  0  0  0  0  0  0  0  0  0  0  0
   31.6429   13.8142   21.3132 H   0  0  0  0  0  0  0  0  0  0  0  0
   33.4344    2.9818   30.3833 H   0  0  0  0  0  0  0  0  0  0  0  0
   28.5694    6.8118   30.0541 H   0  0  0  0  0  0  0  0  0  0  0  0
   30.9684   13.3540   27.2786 H   0  0  0  0  0  0  0  0  0  0  0  0
   31.0246    6.7994   28.1916 H   0  0  0  0  0  0  0  0  0  0  0  0
   31.8507   10.8845   25.7016 H   0  0  0  0  0  0  0  0  0  0  0  0
   30.1444   11.2571   28.3410 H   0  0  0  0  0  0  0  0  0  0  0  0
   31.3786    8.8378   26.9108 H   0  0  0  0  0  0  0  0  0  0  0  0
   29.3917    9.1185   29.3521 H   0  0  0  0  0  0  0  0  0  0  0  0
   29.9360   12.0677   24.3992 H   0  0  0  0  0  0  0  0  0  0  0  0
   30.5659   12.1453   22.7414 H   0  0  0  0  0  0  0  0  0  0  0  0
   33.1397    0.7144   31.2889 H   0  0  0  0  0  0  0  0  0  0  0  0
   33.4141   15.0768   20.1663 H   0  0  0  0  0  0  0  0  0  0  0  0
   32.4798    6.7443   29.9270 H   0  0  0  0  0  0  0  0  0  0  0  0
   33.4110    5.2737   29.6786 H   0  0  0  0  0  0  0  0  0  0  0  0
   29.2997    4.8327   33.1199 H   0  0  0  0  0  0  0  0  0  0  0  0
   27.6908    4.1936   32.6470 H   0  0  0  0  0  0  0  0  0  0  0  0
   28.1344    5.8514   32.1933 H   0  0  0  0  0  0  0  0  0  0  0  0
   27.3568    4.7636   29.7742 H   0  0  0  0  0  0  0  0  0  0  0  0
   27.4274    3.0681   30.3281 H   0  0  0  0  0  0  0  0  0  0  0  0
   28.5028    3.6098   28.9976 H   0  0  0  0  0  0  0  0  0  0  0  0
   35.3343   14.0301   26.1857 H   0  0  0  0  0  0  0  0  0  0  0  0
   34.6074   12.5971   25.3746 H   0  0  0  0  0  0  0  0  0  0  0  0
   34.1112   13.0539   27.0456 H   0  0  0  0  0  0  0  0  0  0  0  0
   32.6886   15.2393   27.3816 H   0  0  0  0  0  0  0  0  0  0  0  0
   32.1408   16.1524   25.9219 H   0  0  0  0  0  0  0  0  0  0  0  0
   33.8596   16.2138   26.4420 H   0  0  0  0  0  0  0  0  0  0  0  0
   31.3686    8.0159   31.4967 H   0  0  0  0  0  0  0  0  0  0  0  0
   32.8164    8.5488   32.4364 H   0  0  0  0  0  0  0  0  0  0  0  0
   27.3570   16.0983   25.0551 H   0  0  0  0  0  0  0  0  0  0  0  0
   26.9447   15.0946   23.6265 H   0  0  0  0  0  0  0  0  0  0  0  0
   27.8162    2.0576   32.2397 H   0  0  0  0  0  0  0  0  0  0  0  0
   35.6708   15.9650   25.1805 H   0  0  0  0  0  0  0  0  0  0  0  0
   35.5146   16.3542   20.2414 H   0  0  0  0  0  0  0  0  0  0  0  0
   31.7276   -0.9950   32.3294 H   0  0  0  0  0  0  0  0  0  0  0  0
   29.5140   14.3268   22.3608 H   0  0  0  0  0  0  0  0  0  0  0  0
   28.3206   13.2037   23.0470 H   0  0  0  0  0  0  0  0  0  0  0  0
   34.1353    6.4848   31.7076 H   0  0  0  0  0  0  0  0  0  0  0  0
   33.5272    4.8625   32.1148 H   0  0  0  0  0  0  0  0  0  0  0  0
   31.3180    5.8626   32.8163 H   0  0  0  0  0  0  0  0  0  0  0  0
   32.7150    6.4176   33.7754 H   0  0  0  0  0  0  0  0  0  0  0  0
   29.4801   15.7546   24.1377 H   0  0  0  0  0  0  0  0  0  0  0  0
   29.4066   14.4768   25.3847 H   0  0  0  0  0  0  0  0  0  0  0  0
   37.4314   17.1461   23.9849 H   0  0  0  0  0  0  0  0  0  0  0  0
   27.5970   -0.1915   33.1385 H   0  0  0  0  0  0  0  0  0  0  0  0
   29.5375   -1.7212   33.1972 H   0  0  0  0  0  0  0  0  0  0  0  0
   37.3649   17.3509   21.5268 H   0  0  0  0  0  0  0  0  0  0  0  0
  2  1  1  0
  3  5  1  0
  4  5  1  0
  5 19  2  0
  6  1  2  0
  7  6  1  0
  8  2  2  0
  9  4  1  0
 10  3  1  0
 11 40  1  0
 12 41  1  0
 13  8  1  0
 14  9  2  0
 15  2  1  0
 16 10  2  0
 17 11  1  0
 18 12  1  0
 19 25  1  0
 20  6  1  0
 21 11  2  0
 22 11  2  0
 23 12  2  0
 24 12  2  0
 25 29  2  0
 26 20  2  0
 27 26  1  0
 28 27  2  0
 29 28  1  0
 30  1  1  0
 31 14  1  0
 32 34  1  0
 33 16  1  0
 34 15  2  0
 35  3  1  0
 36  4  1  0
 37  4  1  0
 38  7  1  0
 39  7  1  0
 40 48  1  0
 41 49  1  0
 42 14  1  0
 43 13  2  0
 44 32  2  0
 45 31  1  0
 46 30  1  0
 47 35  1  0
 48 47  1  0
 49 46  1  0
 50 43  1  0
 51 42  2  0
 52 51  1  0
 53 44  1  0
  7  8  1  0
 13 32  1  0
 53 50  2  0
 10  9  1  0
 31 33  2  0
 52 45  2  0
 15 54  1  0
 16 55  1  0
 19 56  1  0
 20 57  1  0
 25 58  1  0
 26 59  1  0
 27 60  1  0
 28 61  1  0
 29 62  1  0
 30 63  1  0
 30 64  1  0
 33 65  1  0
 34 66  1  0
 35 67  1  0
 35 68  1  0
 36 69  1  0
 36 70  1  0
 36 71  1  0
 37 72  1  0
 37 73  1  0
 37 74  1  0
 38 75  1  0
 38 76  1  0
 38 77  1  0
 39 78  1  0
 39 79  1  0
 39 80  1  0
 40 81  1  0
 40 82  1  0
 41 83  1  0
 41 84  1  0
 42 85  1  0
 43 86  1  0
 44 87  1  0
 45 88  1  0
 46 89  1  0
 46 90  1  0
 47 91  1  0
 47 92  1  0
 48 93  1  0
 48 94  1  0
 49 95  1  0
 49 96  1  0
 50 97  1  0
 51 98  1  0
 52 99  1  0
 53100  1  0
M  CHG  3   1   1  17  -1  18  -1
M  END
> <Uni-Dock RESULT> 
ENERGY=   -4.528  LOWER_BOUND=    1.718  UPPER_BOUND=    2.214
INTER + INTRA:          -4.528
INTER:                  -4.528
INTRA:                   0.000
UNBOUND:                 0.000

$$$$

     RDKit          3D

100105  0  0  0  0  0  0  0  0999 V2000
   29.6817    3.3399   32.1351 N   0  0  0  0  0  0  0  0  0  0  0  0
   28.8142    2.2146   32.1888 C   0  0  0  0  0  0  0  0  0  0  0  0
   31.6816   11.6134   25.9501 N   0  0  0  0  0  0  0  0  0  0  0  0
   33.7125   12.8149   26.6373 C   0  0  0  0  0  0  0  0  0  0  0  0
   32.6473   11.7874   27.0044 C   0  0  0  0  0  0  0  0  0  0  0  0
   28.9425    4.4144   32.2064 C   0  0  0  0  0  0  0  0  0  0  0  0
   27.4625    4.1159   32.3639 C   0  0  0  0  0  0  0  0  0  0  0  0
   27.4961    2.6005   32.3182 C   0  0  0  0  0  0  0  0  0  0  0  0
   33.2757   13.1768   25.2274 C   0  0  0  0  0  0  0  0  0  0  0  0
   32.1505   12.4394   24.8879 C   0  0  0  0  0  0  0  0  0  0  0  0
   29.7320   13.9261   30.0490 S   0  0  0  0  0  0  0  0  0  0  0  0
   33.2543    5.4998   35.1216 S   0  0  0  0  0  0  0  0  0  0  0  0
   26.4626    1.6350   32.3498 C   0  0  0  0  0  0  0  0  0  0  0  0
   33.8420   14.0824   24.2931 C   0  0  0  0  0  0  0  0  0  0  0  0
   29.1804    0.8726   32.0660 C   0  0  0  0  0  0  0  0  0  0  0  0
   31.5643   12.5338   23.6223 C   0  0  0  0  0  0  0  0  0  0  0  0
   29.5478   13.1576   31.5318 O   0  0  0  0  0  0  0  0  0  0  0  0
   33.8883    5.3556   33.5718 O   0  0  0  0  0  0  0  0  0  0  0  0
   32.7127   11.0423   28.1256 C   0  0  0  0  0  0  0  0  0  0  0  0
   29.4743    5.7860   32.0865 C   0  0  0  0  0  0  0  0  0  0  0  0
   31.1383   14.4483   29.9393 O   0  0  0  0  0  0  0  0  0  0  0  0
   28.7624   15.0723   29.9596 O   0  0  0  0  0  0  0  0  0  0  0  0
   34.3745    5.7559   36.0927 O   0  0  0  0  0  0  0  0  0  0  0  0
   32.2913    6.6555   35.1581 O   0  0  0  0  0  0  0  0  0  0  0  0
   32.0278    9.7532   28.2867 C   0  0  0  0  0  0  0  0  0  0  0  0
   30.0227    6.2027   30.9459 C   0  0  0  0  0  0  0  0  0  0  0  0
   30.6075    7.5457   30.8168 C   0  0  0  0  0  0  0  0  0  0  0  0
   31.0813    7.9648   29.6407 C   0  0  0  0  0  0  0  0  0  0  0  0
   31.7234    9.2793   29.4951 C   0  0  0  0  0  0  0  0  0  0  0  0
   31.1512    3.2847   32.0611 C   0  0  0  0  0  0  0  0  0  0  0  0
   33.2354   14.1922   23.0062 C   0  0  0  0  0  0  0  0  0  0  0  0
   26.8248    0.2630   32.2265 C   0  0  0  0  0  0  0  0  0  0  0  0
   32.1094   13.4121   22.6832 C   0  0  0  0  0  0  0  0  0  0  0  0
   28.1797   -0.1033   32.0904 C   0  0  0  0  0  0  0  0  0  0  0  0
   30.2618   11.2339   26.1014 C   0  0  0  0  0  0  0  0  0  0  0  0
   33.6606   14.0236   27.5978 C   0  0  0  0  0  0  0  0  0  0  0  0
   35.1045   12.1417   26.6233 C   0  0  0  0  0  0  0  0  0  0  0  0
   26.6842    4.7212   31.1803 C   0  0  0  0  0  0  0  0  0  0  0  0
   26.9650    4.6415   33.7211 C   0  0  0  0  0  0  0  0  0  0  0  0
   29.4132   12.7555   28.7401 C   0  0  0  0  0  0  0  0  0  0  0  0
   32.4042    4.0001   35.5924 C   0  0  0  0  0  0  0  0  0  0  0  0
   34.9652   14.8838   24.5801 C   0  0  0  0  0  0  0  0  0  0  0  0
   25.1011    1.9676   32.4839 C   0  0  0  0  0  0  0  0  0  0  0  0
   25.8280   -0.7250   32.2263 C   0  0  0  0  0  0  0  0  0  0  0  0
   33.7606   15.0837   22.0557 C   0  0  0  0  0  0  0  0  0  0  0  0
   31.7766    2.8439   33.3933 C   0  0  0  0  0  0  0  0  0  0  0  0
   29.3219   12.4506   26.1988 C   0  0  0  0  0  0  0  0  0  0  0  0
   29.6370   13.3991   27.3661 C   0  0  0  0  0  0  0  0  0  0  0  0
   31.2775    3.6606   34.6058 C   0  0  0  0  0  0  0  0  0  0  0  0
   24.1226    0.9698   32.4767 C   0  0  0  0  0  0  0  0  0  0  0  0
   35.4758   15.7633   23.6212 C   0  0  0  0  0  0  0  0  0  0  0  0
   34.8750   15.8644   22.3657 C   0  0  0  0  0  0  0  0  0  0  0  0
   24.4835   -0.3693   32.3501 C   0  0  0  0  0  0  0  0  0  0  0  0
   30.2129    0.5809   31.9400 H   0  0  0  0  0  0  0  0  0  0  0  0
   30.7006   11.9365   23.3594 H   0  0  0  0  0  0  0  0  0  0  0  0
   33.4192   11.3209   28.8979 H   0  0  0  0  0  0  0  0  0  0  0  0
   29.3697    6.4603   32.9271 H   0  0  0  0  0  0  0  0  0  0  0  0
   31.7994    9.1697   27.3995 H   0  0  0  0  0  0  0  0  0  0  0  0
   30.0594    5.5266   30.0958 H   0  0  0  0  0  0  0  0  0  0  0  0
   30.6685    8.1904   31.6925 H   0  0  0  0  0  0  0  0  0  0  0  0
   30.9920    7.3249   28.7654 H   0  0  0  0  0  0  0  0  0  0  0  0
   31.9367    9.8725   30.3791 H   0  0  0  0  0  0  0  0  0  0  0  0
   31.5827    4.2669   31.7855 H   0  0  0  0  0  0  0  0  0  0  0  0
   31.4539    2.5763   31.2598 H   0  0  0  0  0  0  0  0  0  0  0  0
   31.6535   13.4818   21.7004 H   0  0  0  0  0  0  0  0  0  0  0  0
   28.4619   -1.1448   31.9931 H   0  0  0  0  0  0  0  0  0  0  0  0
   30.0880   10.5932   26.9782 H   0  0  0  0  0  0  0  0  0  0  0  0
   29.9589   10.6252   25.2250 H   0  0  0  0  0  0  0  0  0  0  0  0
   32.7760   14.6632   27.3928 H   0  0  0  0  0  0  0  0  0  0  0  0
   34.5667   14.6546   27.5123 H   0  0  0  0  0  0  0  0  0  0  0  0
   33.6153   13.6853   28.6553 H   0  0  0  0  0  0  0  0  0  0  0  0
   35.3996   11.8302   27.6479 H   0  0  0  0  0  0  0  0  0  0  0  0
   35.8931   12.8226   26.2486 H   0  0  0  0  0  0  0  0  0  0  0  0
   35.0958   11.2387   25.9729 H   0  0  0  0  0  0  0  0  0  0  0  0
   25.5961    4.5357   31.2630 H   0  0  0  0  0  0  0  0  0  0  0  0
   27.0433    4.2909   30.2212 H   0  0  0  0  0  0  0  0  0  0  0  0
   26.8302    5.8213   31.1483 H   0  0  0  0  0  0  0  0  0  0  0  0
   27.0646    5.7485   33.7661 H   0  0  0  0  0  0  0  0  0  0  0  0
   27.5567    4.1974   34.5515 H   0  0  0  0  0  0  0  0  0  0  0  0
   25.8981    4.3964   33.8895 H   0  0  0  0  0  0  0  0  0  0  0  0
   30.0973   11.8957   28.8806 H   0  0  0  0  0  0  0  0  0  0  0  0
   28.3638   12.4014   28.8285 H   0  0  0  0  0  0  0  0  0  0  0  0
   31.9664    4.1597   36.5989 H   0  0  0  0  0  0  0  0  0  0  0  0
   33.1297    3.1589   35.6697 H   0  0  0  0  0  0  0  0  0  0  0  0
   35.4568   14.8539   25.5345 H   0  0  0  0  0  0  0  0  0  0  0  0
   24.7722    2.9837   32.5971 H   0  0  0  0  0  0  0  0  0  0  0  0
   26.0873   -1.7720   32.1230 H   0  0  0  0  0  0  0  0  0  0  0  0
   33.3076   15.1759   21.0733 H   0  0  0  0  0  0  0  0  0  0  0  0
   31.5629    1.7676   33.5715 H   0  0  0  0  0  0  0  0  0  0  0  0
   32.8793    2.9256   33.2849 H   0  0  0  0  0  0  0  0  0  0  0  0
   28.2756   12.0851   26.2942 H   0  0  0  0  0  0  0  0  0  0  0  0
   29.3675   13.0267   25.2510 H   0  0  0  0  0  0  0  0  0  0  0  0
   30.6785   13.7611   27.2796 H   0  0  0  0  0  0  0  0  0  0  0  0
   28.9747   14.2871   27.2740 H   0  0  0  0  0  0  0  0  0  0  0  0
   30.5158    3.0493   35.1394 H   0  0  0  0  0  0  0  0  0  0  0  0
   30.7725    4.6019   34.2929 H   0  0  0  0  0  0  0  0  0  0  0  0
   23.0777    1.2367   32.5760 H   0  0  0  0  0  0  0  0  0  0  0  0
   36.3385   16.3755   23.8547 H   0  0  0  0  0  0  0  0  0  0  0  0
   35.2747   16.5530   21.6308 H   0  0  0  0  0  0  0  0  0  0  0  0
   23.7177   -1.1351   32.3443 H   0  0  0  0  0  0  0  0  0  0  0  0
  2  1  1  0
  3  5  1  0
  4  5  1  0
  5 19  2  0
  6  1  2  0
  7  6  1  0
  8  2  2  0
  9  4  1  0
 10  3  1  0
 11 40  1  0
 12 41  1  0
 13  8  1  0
 14  9  2  0
 15  2  1  0
 16 10  2  0
 17 11  1  0
 18 12  1  0
 19 25  1  0
 20  6  1  0
 21 11  2  0
 22 11  2  0
 23 12  2  0
 24 12  2  0
 25 29  2  0
 26 20  2  0
 27 26  1  0
 28 27  2  0
 29 28  1  0
 30  1  1  0
 31 14  1  0
 32 34  1  0
 33 16  1  0
 34 15  2  0
 35  3  1  0
 36  4  1  0
 37  4  1  0
 38  7  1  0
 39  7  1  0
 40 48  1  0
 41 49  1  0
 42 14  1  0
 43 13  2  0
 44 32  2  0
 45 31  1  0
 46 30  1  0
 47 35  1  0
 48 47  1  0
 49 46  1  0
 50 43  1  0
 51 42  2  0
 52 51  1  0
 53 44  1  0
  7  8  1  0
 13 32  1  0
 53 50  2  0
 10  9  1  0
 31 33  2  0
 52 45  2  0
 15 54  1  0
 16 55  1  0
 19 56  1  0
 20 57  1  0
 25 58  1  0
 26 59  1  0
 27 60  1  0
 28 61  1  0
 29 62  1  0
 30 63  1  0
 30 64  1  0
 33 65  1  0
 34 66  1  0
 35 67  1  0
 35 68  1  0
 36 69  1  0
 36 70  1  0
 36 71  1  0
 37 72  1  0
 37 73  1  0
 37 74  1  0
 38 75  1  0
 38 76  1  0
 38 77  1  0
 39 78  1  0
 39 79  1  0
 39 80  1  0
 40 81  1  0
 40 82  1  0
 41 83  1  0
 41 84  1  0
 42 85  1  0
 43 86  1  0
 44 87  1  0
 45 88  1  0
 46 89  1  0
 46 90  1  0
 47 91  1  0
 47 92  1  0
 48 93  1  0
 48 94  1  0
 49 95  1  0
 49 96  1  0
 50 97  1  0
 51 98  1  0
 52 99  1  0
 53100  1  0
M  CHG  3   1   1  17  -1  18  -1
M  END
> <Uni-Dock RESULT> 
ENERGY=   -4.469  LOWER_BOUND=    3.289  UPPER_BOUND=   13.875
INTER + INTRA:          -4.469
INTER:                  -4.469
INTRA:                   0.000
UNBOUND:                 0.000

$$$$

     RDKit          3D

100105  0  0  0  0  0  0  0  0999 V2000
   25.9187   11.1899   30.9509 N   0  0  0  0  0  0  0  0  0  0  0  0
   25.3218   10.2978   31.8834 C   0  0  0  0  0  0  0  0  0  0  0  0
   29.5714   11.1848   21.0837 N   0  0  0  0  0  0  0  0  0  0  0  0
   30.7616   13.2638   20.5349 C   0  0  0  0  0  0  0  0  0  0  0  0
   29.8225   12.5419   21.4952 C   0  0  0  0  0  0  0  0  0  0  0  0
   25.0996   11.3147   29.9412 C   0  0  0  0  0  0  0  0  0  0  0  0
   23.8103   10.5320   30.1133 C   0  0  0  0  0  0  0  0  0  0  0  0
   24.0839    9.8703   31.4501 C   0  0  0  0  0  0  0  0  0  0  0  0
   31.0619   12.1478   19.5480 C   0  0  0  0  0  0  0  0  0  0  0  0
   30.3918   10.9959   19.9341 C   0  0  0  0  0  0  0  0  0  0  0  0
   25.4824   14.1832   20.5937 S   0  0  0  0  0  0  0  0  0  0  0  0
   27.0944   16.1811   30.7204 S   0  0  0  0  0  0  0  0  0  0  0  0
   23.3345    8.9434   32.2121 C   0  0  0  0  0  0  0  0  0  0  0  0
   31.8875   12.1382   18.3939 C   0  0  0  0  0  0  0  0  0  0  0  0
   25.8908    9.8263   33.0684 C   0  0  0  0  0  0  0  0  0  0  0  0
   30.5309    9.7947   19.2325 C   0  0  0  0  0  0  0  0  0  0  0  0
   24.6788   14.8559   21.9071 O   0  0  0  0  0  0  0  0  0  0  0  0
   28.4463   15.3047   30.2423 O   0  0  0  0  0  0  0  0  0  0  0  0
   29.4120   13.0875   22.6572 C   0  0  0  0  0  0  0  0  0  0  0  0
   25.4103   12.0877   28.7228 C   0  0  0  0  0  0  0  0  0  0  0  0
   26.6520   15.0580   20.2346 O   0  0  0  0  0  0  0  0  0  0  0  0
   24.5403   14.0995   19.4244 O   0  0  0  0  0  0  0  0  0  0  0  0
   27.5068   17.5923   31.0393 O   0  0  0  0  0  0  0  0  0  0  0  0
   26.0919   16.1981   29.5983 O   0  0  0  0  0  0  0  0  0  0  0  0
   28.9385   12.3003   23.8031 C   0  0  0  0  0  0  0  0  0  0  0  0
   26.3981   11.7080   27.9132 C   0  0  0  0  0  0  0  0  0  0  0  0
   26.7626   12.4896   26.7222 C   0  0  0  0  0  0  0  0  0  0  0  0
   27.7051   12.0458   25.8867 C   0  0  0  0  0  0  0  0  0  0  0  0
   28.1308   12.8330   24.7202 C   0  0  0  0  0  0  0  0  0  0  0  0
   27.2080   11.8781   31.1299 C   0  0  0  0  0  0  0  0  0  0  0  0
   32.0179   10.9173   17.6670 C   0  0  0  0  0  0  0  0  0  0  0  0
   23.9047    8.4567   33.4231 C   0  0  0  0  0  0  0  0  0  0  0  0
   31.3450    9.7589   18.0984 C   0  0  0  0  0  0  0  0  0  0  0  0
   25.1744    8.9068   33.8401 C   0  0  0  0  0  0  0  0  0  0  0  0
   28.3481   10.3944   21.3320 C   0  0  0  0  0  0  0  0  0  0  0  0
   30.0485   14.4617   19.8695 C   0  0  0  0  0  0  0  0  0  0  0  0
   32.0449   13.6927   21.2833 C   0  0  0  0  0  0  0  0  0  0  0  0
   23.6700    9.5089   28.9703 C   0  0  0  0  0  0  0  0  0  0  0  0
   22.6167   11.4998   30.1819 C   0  0  0  0  0  0  0  0  0  0  0  0
   26.0548   12.5506   21.0322 C   0  0  0  0  0  0  0  0  0  0  0  0
   26.3531   15.4470   32.1713 C   0  0  0  0  0  0  0  0  0  0  0  0
   32.5734   13.2776   17.9275 C   0  0  0  0  0  0  0  0  0  0  0  0
   22.0651    8.4740   31.8236 C   0  0  0  0  0  0  0  0  0  0  0  0
   23.2060    7.5158   34.1953 C   0  0  0  0  0  0  0  0  0  0  0  0
   32.8192   10.8683   16.5139 C   0  0  0  0  0  0  0  0  0  0  0  0
   27.1186   13.0014   32.1741 C   0  0  0  0  0  0  0  0  0  0  0  0
   27.3250   10.4944   20.1847 C   0  0  0  0  0  0  0  0  0  0  0  0
   26.8545   11.9257   19.8823 C   0  0  0  0  0  0  0  0  0  0  0  0
   25.9552   13.9853   31.9194 C   0  0  0  0  0  0  0  0  0  0  0  0
   21.3870    7.5333   32.6034 C   0  0  0  0  0  0  0  0  0  0  0  0
   33.3684   13.2097   16.7798 C   0  0  0  0  0  0  0  0  0  0  0  0
   33.4890   12.0112   16.0750 C   0  0  0  0  0  0  0  0  0  0  0  0
   21.9530    7.0576   33.7835 C   0  0  0  0  0  0  0  0  0  0  0  0
   26.8716   10.1475   33.3877 H   0  0  0  0  0  0  0  0  0  0  0  0
   30.0223    8.8954   19.5558 H   0  0  0  0  0  0  0  0  0  0  0  0
   29.5731   14.1457   22.8236 H   0  0  0  0  0  0  0  0  0  0  0  0
   24.7923   12.9417   28.4764 H   0  0  0  0  0  0  0  0  0  0  0  0
   29.2854   11.2767   23.9114 H   0  0  0  0  0  0  0  0  0  0  0  0
   26.9638   10.8107   28.1497 H   0  0  0  0  0  0  0  0  0  0  0  0
   26.2711   13.4435   26.5357 H   0  0  0  0  0  0  0  0  0  0  0  0
   28.1719   11.0797   26.0660 H   0  0  0  0  0  0  0  0  0  0  0  0
   27.7713   13.8505   24.6002 H   0  0  0  0  0  0  0  0  0  0  0  0
   27.5706   12.3178   30.1802 H   0  0  0  0  0  0  0  0  0  0  0  0
   27.9785   11.1419   31.4459 H   0  0  0  0  0  0  0  0  0  0  0  0
   31.4529    8.8243   17.5567 H   0  0  0  0  0  0  0  0  0  0  0  0
   25.6154    8.5384   34.7587 H   0  0  0  0  0  0  0  0  0  0  0  0
   27.8453   10.6790   22.2678 H   0  0  0  0  0  0  0  0  0  0  0  0
   28.6302    9.3292   21.4595 H   0  0  0  0  0  0  0  0  0  0  0  0
   29.3116   14.1211   19.1114 H   0  0  0  0  0  0  0  0  0  0  0  0
   30.7666   15.1398   19.3686 H   0  0  0  0  0  0  0  0  0  0  0  0
   29.5175   15.0757   20.6283 H   0  0  0  0  0  0  0  0  0  0  0  0
   31.8149   14.4714   22.0413 H   0  0  0  0  0  0  0  0  0  0  0  0
   32.8047   14.1171   20.5987 H   0  0  0  0  0  0  0  0  0  0  0  0
   32.5031   12.8227   21.8046 H   0  0  0  0  0  0  0  0  0  0  0  0
   22.7342    8.9236   29.0520 H   0  0  0  0  0  0  0  0  0  0  0  0
   24.5285    8.8040   28.9753 H   0  0  0  0  0  0  0  0  0  0  0  0
   23.6491   10.0300   27.9902 H   0  0  0  0  0  0  0  0  0  0  0  0
   22.5161   12.0565   29.2241 H   0  0  0  0  0  0  0  0  0  0  0  0
   22.7566   12.2331   31.0062 H   0  0  0  0  0  0  0  0  0  0  0  0
   21.6636   10.9634   30.3566 H   0  0  0  0  0  0  0  0  0  0  0  0
   26.6873   12.6450   21.9366 H   0  0  0  0  0  0  0  0  0  0  0  0
   25.1735   11.9178   21.2713 H   0  0  0  0  0  0  0  0  0  0  0  0
   25.4433   16.0307   32.4200 H   0  0  0  0  0  0  0  0  0  0  0  0
   27.0503   15.5242   33.0361 H   0  0  0  0  0  0  0  0  0  0  0  0
   32.5045   14.2269   18.4251 H   0  0  0  0  0  0  0  0  0  0  0  0
   21.5803    8.8190   30.9295 H   0  0  0  0  0  0  0  0  0  0  0  0
   23.6315    7.1287   35.1135 H   0  0  0  0  0  0  0  0  0  0  0  0
   32.9261    9.9450   15.9527 H   0  0  0  0  0  0  0  0  0  0  0  0
   27.0038   12.5632   33.1894 H   0  0  0  0  0  0  0  0  0  0  0  0
   28.0952   13.5312   32.1754 H   0  0  0  0  0  0  0  0  0  0  0  0
   26.4443    9.8636   20.4373 H   0  0  0  0  0  0  0  0  0  0  0  0
   27.7652   10.0629   19.2614 H   0  0  0  0  0  0  0  0  0  0  0  0
   27.7270   12.5592   19.6361 H   0  0  0  0  0  0  0  0  0  0  0  0
   26.2114   11.8905   18.9762 H   0  0  0  0  0  0  0  0  0  0  0  0
   25.1267   13.7221   32.6142 H   0  0  0  0  0  0  0  0  0  0  0  0
   25.5508   13.8916   30.8867 H   0  0  0  0  0  0  0  0  0  0  0  0
   20.4129    7.1754   32.2933 H   0  0  0  0  0  0  0  0  0  0  0  0
   33.8890   14.0930   16.4302 H   0  0  0  0  0  0  0  0  0  0  0  0
   34.1031   11.9698   15.1834 H   0  0  0  0  0  0  0  0  0  0  0  0
   21.4201    6.3277   34.3803 H   0  0  0  0  0  0  0  0  0  0  0  0
  2  1  1  0
  3  5  1  0
  4  5  1  0
  5 19  2  0
  6  1  2  0
  7  6  1  0
  8  2  2  0
  9  4  1  0
 10  3  1  0
 11 40  1  0
 12 41  1  0
 13  8  1  0
 14  9  2  0
 15  2  1  0
 16 10  2  0
 17 11  1  0
 18 12  1  0
 19 25  1  0
 20  6  1  0
 21 11  2  0
 22 11  2  0
 23 12  2  0
 24 12  2  0
 25 29  2  0
 26 20  2  0
 27 26  1  0
 28 27  2  0
 29 28  1  0
 30  1  1  0
 31 14  1  0
 32 34  1  0
 33 16  1  0
 34 15  2  0
 35  3  1  0
 36  4  1  0
 37  4  1  0
 38  7  1  0
 39  7  1  0
 40 48  1  0
 41 49  1  0
 42 14  1  0
 43 13  2  0
 44 32  2  0
 45 31  1  0
 46 30  1  0
 47 35  1  0
 48 47  1  0
 49 46  1  0
 50 43  1  0
 51 42  2  0
 52 51  1  0
 53 44  1  0
  7  8  1  0
 13 32  1  0
 53 50  2  0
 10  9  1  0
 31 33  2  0
 52 45  2  0
 15 54  1  0
 16 55  1  0
 19 56  1  0
 20 57  1  0
 25 58  1  0
 26 59  1  0
 27 60  1  0
 28 61  1  0
 29 62  1  0
 30 63  1  0
 30 64  1  0
 33 65  1  0
 34 66  1  0
 35 67  1  0
 35 68  1  0
 36 69  1  0
 36 70  1  0
 36 71  1  0
 37 72  1  0
 37 73  1  0
 37 74  1  0
 38 75  1  0
 38 76  1  0
 38 77  1  0
 39 78  1  0
 39 79  1  0
 39 80  1  0
 40 81  1  0
 40 82  1  0
 41 83  1  0
 41 84  1  0
 42 85  1  0
 43 86  1  0
 44 87  1  0
 45 88  1  0
 46 89  1  0
 46 90  1  0
 47 91  1  0
 47 92  1  0
 48 93  1  0
 48 94  1  0
 49 95  1  0
 49 96  1  0
 50 97  1  0
 51 98  1  0
 52 99  1  0
 53100  1  0
M  CHG  3   1   1  17  -1  18  -1
M  END
> <Uni-Dock RESULT> 
ENERGY=   -4.326  LOWER_BOUND=    6.736  UPPER_BOUND=   13.364
INTER + INTRA:          -4.326
INTER:                  -4.326
INTRA:                   0.000
UNBOUND:                 0.000

$$$$

     RDKit          3D

100105  0  0  0  0  0  0  0  0999 V2000
   27.0447    8.5146   30.8905 N   0  0  0  0  0  0  0  0  0  0  0  0
   26.0791    7.4840   31.0553 C   0  0  0  0  0  0  0  0  0  0  0  0
   31.8281   13.8388   23.1785 N   0  0  0  0  0  0  0  0  0  0  0  0
   33.6674   15.2354   24.0190 C   0  0  0  0  0  0  0  0  0  0  0  0
   32.4288   14.4120   24.3552 C   0  0  0  0  0  0  0  0  0  0  0  0
   26.4507    9.5266   30.3169 C   0  0  0  0  0  0  0  0  0  0  0  0
   24.9715    9.2928   30.0684 C   0  0  0  0  0  0  0  0  0  0  0  0
   24.8410    7.8743   30.5885 C   0  0  0  0  0  0  0  0  0  0  0  0
   33.7389   15.0289   22.5151 C   0  0  0  0  0  0  0  0  0  0  0  0
   32.6986   14.2044   22.1112 C   0  0  0  0  0  0  0  0  0  0  0  0
   28.9774   17.5127   25.2584 S   0  0  0  0  0  0  0  0  0  0  0  0
   29.7296   11.6902   33.8997 S   0  0  0  0  0  0  0  0  0  0  0  0
   23.7445    6.9810   30.6209 C   0  0  0  0  0  0  0  0  0  0  0  0
   34.6704   15.5180   21.5629 C   0  0  0  0  0  0  0  0  0  0  0  0
   26.3064    6.2005   31.5566 C   0  0  0  0  0  0  0  0  0  0  0  0
   32.5529   13.8036   20.7799 C   0  0  0  0  0  0  0  0  0  0  0  0
   28.2504   17.3635   26.7659 O   0  0  0  0  0  0  0  0  0  0  0  0
   30.7952   10.9752   32.8145 O   0  0  0  0  0  0  0  0  0  0  0  0
   32.0530   14.1500   25.6227 C   0  0  0  0  0  0  0  0  0  0  0  0
   27.1491   10.7560   29.8933 C   0  0  0  0  0  0  0  0  0  0  0  0
   30.3981   17.9707   25.4429 O   0  0  0  0  0  0  0  0  0  0  0  0
   28.2248   18.5271   24.4420 O   0  0  0  0  0  0  0  0  0  0  0  0
   30.5115   12.3095   35.0259 O   0  0  0  0  0  0  0  0  0  0  0  0
   28.9450   12.7614   33.1917 O   0  0  0  0  0  0  0  0  0  0  0  0
   31.2069   13.0108   26.0013 C   0  0  0  0  0  0  0  0  0  0  0  0
   28.0715   10.7142   28.9326 C   0  0  0  0  0  0  0  0  0  0  0  0
   28.8195   11.9142   28.5290 C   0  0  0  0  0  0  0  0  0  0  0  0
   29.6828   11.8603   27.5117 C   0  0  0  0  0  0  0  0  0  0  0  0
   30.4867   13.0283   27.1231 C   0  0  0  0  0  0  0  0  0  0  0  0
   28.4466    8.4529   31.3363 C   0  0  0  0  0  0  0  0  0  0  0  0
   34.5140   15.1231   20.2006 C   0  0  0  0  0  0  0  0  0  0  0  0
   23.9647    5.6697   31.1312 C   0  0  0  0  0  0  0  0  0  0  0  0
   33.4628   14.2654   19.8264 C   0  0  0  0  0  0  0  0  0  0  0  0
   25.2418    5.2953   31.5973 C   0  0  0  0  0  0  0  0  0  0  0  0
   30.3982   13.5284   22.9739 C   0  0  0  0  0  0  0  0  0  0  0  0
   33.4588   16.7178   24.4001 C   0  0  0  0  0  0  0  0  0  0  0  0
   34.9056   14.6241   24.7150 C   0  0  0  0  0  0  0  0  0  0  0  0
   24.6785    9.3933   28.5594 C   0  0  0  0  0  0  0  0  0  0  0  0
   24.1391   10.2889   30.8935 C   0  0  0  0  0  0  0  0  0  0  0  0
   28.9499   15.9287   24.4366 C   0  0  0  0  0  0  0  0  0  0  0  0
   28.6062   10.4720   34.5690 C   0  0  0  0  0  0  0  0  0  0  0  0
   35.7327   16.3817   21.8971 C   0  0  0  0  0  0  0  0  0  0  0  0
   22.4578    7.3234   30.1630 C   0  0  0  0  0  0  0  0  0  0  0  0
   22.9101    4.7439   31.1562 C   0  0  0  0  0  0  0  0  0  0  0  0
   35.4102   15.5925   19.2257 C   0  0  0  0  0  0  0  0  0  0  0  0
   28.5680    8.5592   32.8641 C   0  0  0  0  0  0  0  0  0  0  0  0
   29.6234   14.6795   22.3046 C   0  0  0  0  0  0  0  0  0  0  0  0
   29.6657   16.0042   23.0823 C   0  0  0  0  0  0  0  0  0  0  0  0
   27.8133    9.7695   33.4573 C   0  0  0  0  0  0  0  0  0  0  0  0
   21.4216    6.3862   30.1916 C   0  0  0  0  0  0  0  0  0  0  0  0
   36.6165   16.8366   20.9144 C   0  0  0  0  0  0  0  0  0  0  0  0
   36.4547   16.4457   19.5845 C   0  0  0  0  0  0  0  0  0  0  0  0
   21.6454    5.1040   30.6867 C   0  0  0  0  0  0  0  0  0  0  0  0
   27.2851    5.8951   31.8970 H   0  0  0  0  0  0  0  0  0  0  0  0
   31.7515   13.1410   20.4792 H   0  0  0  0  0  0  0  0  0  0  0  0
   32.5098   14.7097   26.4298 H   0  0  0  0  0  0  0  0  0  0  0  0
   26.8661   11.6978   30.3459 H   0  0  0  0  0  0  0  0  0  0  0  0
   31.2011   12.1311   25.3641 H   0  0  0  0  0  0  0  0  0  0  0  0
   28.2932    9.7662   28.4497 H   0  0  0  0  0  0  0  0  0  0  0  0
   28.6781   12.8440   29.0781 H   0  0  0  0  0  0  0  0  0  0  0  0
   29.7980   10.9347   26.9517 H   0  0  0  0  0  0  0  0  0  0  0  0
   30.4803   13.9155   27.7490 H   0  0  0  0  0  0  0  0  0  0  0  0
   29.0539    9.2617   30.8848 H   0  0  0  0  0  0  0  0  0  0  0  0
   28.9001    7.4968   30.9964 H   0  0  0  0  0  0  0  0  0  0  0  0
   33.3486   13.9508   18.7936 H   0  0  0  0  0  0  0  0  0  0  0  0
   25.4170    4.2984   31.9840 H   0  0  0  0  0  0  0  0  0  0  0  0
   29.8855   13.2671   23.9111 H   0  0  0  0  0  0  0  0  0  0  0  0
   30.3160   12.6286   22.3304 H   0  0  0  0  0  0  0  0  0  0  0  0
   32.7635   17.2208   23.6949 H   0  0  0  0  0  0  0  0  0  0  0  0
   34.4131   17.2797   24.3994 H   0  0  0  0  0  0  0  0  0  0  0  0
   33.0458   16.8064   25.4279 H   0  0  0  0  0  0  0  0  0  0  0  0
   34.8270   14.7290   25.8180 H   0  0  0  0  0  0  0  0  0  0  0  0
   35.8455   15.1207   24.4053 H   0  0  0  0  0  0  0  0  0  0  0  0
   34.9957   13.5416   24.4729 H   0  0  0  0  0  0  0  0  0  0  0  0
   23.6054    9.2403   28.3355 H   0  0  0  0  0  0  0  0  0  0  0  0
   25.2671    8.6351   28.0002 H   0  0  0  0  0  0  0  0  0  0  0  0
   24.9543   10.4003   28.1819 H   0  0  0  0  0  0  0  0  0  0  0  0
   24.3479   11.3310   30.5650 H   0  0  0  0  0  0  0  0  0  0  0  0
   24.3854   10.2010   31.9744 H   0  0  0  0  0  0  0  0  0  0  0  0
   23.0522   10.1136   30.7728 H   0  0  0  0  0  0  0  0  0  0  0  0
   29.4507   15.1950   25.0984 H   0  0  0  0  0  0  0  0  0  0  0  0
   27.8919   15.6223   24.2917 H   0  0  0  0  0  0  0  0  0  0  0  0
   27.8973   10.9971   35.2411 H   0  0  0  0  0  0  0  0  0  0  0  0
   29.1680    9.7320   35.1828 H   0  0  0  0  0  0  0  0  0  0  0  0
   35.8942   16.7227   22.9027 H   0  0  0  0  0  0  0  0  0  0  0  0
   22.2308    8.3023   29.7838 H   0  0  0  0  0  0  0  0  0  0  0  0
   23.0649    3.7395   31.5319 H   0  0  0  0  0  0  0  0  0  0  0  0
   35.3013   15.2988   18.1861 H   0  0  0  0  0  0  0  0  0  0  0  0
   28.1855    7.6290   33.3377 H   0  0  0  0  0  0  0  0  0  0  0  0
   29.6509    8.6067   33.1080 H   0  0  0  0  0  0  0  0  0  0  0  0
   28.5647   14.3653   22.1710 H   0  0  0  0  0  0  0  0  0  0  0  0
   30.0300   14.8525   21.2862 H   0  0  0  0  0  0  0  0  0  0  0  0
   30.7167   16.3185   23.2233 H   0  0  0  0  0  0  0  0  0  0  0  0
   29.1736   16.7826   22.4597 H   0  0  0  0  0  0  0  0  0  0  0  0
   26.8572    9.3979   33.8890 H   0  0  0  0  0  0  0  0  0  0  0  0
   27.5448   10.5151   32.6756 H   0  0  0  0  0  0  0  0  0  0  0  0
   20.4366    6.6584   29.8328 H   0  0  0  0  0  0  0  0  0  0  0  0
   37.4279   17.5019   21.1837 H   0  0  0  0  0  0  0  0  0  0  0  0
   37.1415   16.8079   18.8289 H   0  0  0  0  0  0  0  0  0  0  0  0
   20.8362    4.3844   30.7035 H   0  0  0  0  0  0  0  0  0  0  0  0
  2  1  1  0
  3  5  1  0
  4  5  1  0
  5 19  2  0
  6  1  2  0
  7  6  1  0
  8  2  2  0
  9  4  1  0
 10  3  1  0
 11 40  1  0
 12 41  1  0
 13  8  1  0
 14  9  2  0
 15  2  1  0
 16 10  2  0
 17 11  1  0
 18 12  1  0
 19 25  1  0
 20  6  1  0
 21 11  2  0
 22 11  2  0
 23 12  2  0
 24 12  2  0
 25 29  2  0
 26 20  2  0
 27 26  1  0
 28 27  2  0
 29 28  1  0
 30  1  1  0
 31 14  1  0
 32 34  1  0
 33 16  1  0
 34 15  2  0
 35  3  1  0
 36  4  1  0
 37  4  1  0
 38  7  1  0
 39  7  1  0
 40 48  1  0
 41 49  1  0
 42 14  1  0
 43 13  2  0
 44 32  2  0
 45 31  1  0
 46 30  1  0
 47 35  1  0
 48 47  1  0
 49 46  1  0
 50 43  1  0
 51 42  2  0
 52 51  1  0
 53 44  1  0
  7  8  1  0
 13 32  1  0
 53 50  2  0
 10  9  1  0
 31 33  2  0
 52 45  2  0
 15 54  1  0
 16 55  1  0
 19 56  1  0
 20 57  1  0
 25 58  1  0
 26 59  1  0
 27 60  1  0
 28 61  1  0
 29 62  1  0
 30 63  1  0
 30 64  1  0
 33 65  1  0
 34 66  1  0
 35 67  1  0
 35 68  1  0
 36 69  1  0
 36 70  1  0
 36 71  1  0
 37 72  1  0
 37 73  1  0
 37 74  1  0
 38 75  1  0
 38 76  1  0
 38 77  1  0
 39 78  1  0
 39 79  1  0
 39 80  1  0
 40 81  1  0
 40 82  1  0
 41 83  1  0
 41 84  1  0
 42 85  1  0
 43 86  1  0
 44 87  1  0
 45 88  1  0
 46 89  1  0
 46 90  1  0
 47 91  1  0
 47 92  1  0
 48 93  1  0
 48 94  1  0
 49 95  1  0
 49 96  1  0
 50 97  1  0
 51 98  1  0
 52 99  1  0
 53100  1  0
M  CHG  3   1   1  17  -1  18  -1
M  END
> <Uni-Dock RESULT> 
ENERGY=   -4.154  LOWER_BOUND=    4.302  UPPER_BOUND=   13.667
INTER + INTRA:          -4.154
INTER:                  -4.154
INTRA:                   0.000
UNBOUND:                 0.000

$$$$

     RDKit          3D

100105  0  0  0  0  0  0  0  0999 V2000
   30.1042    3.8444   31.1633 N   0  0  0  0  0  0  0  0  0  0  0  0
   29.4591    2.6087   31.4439 C   0  0  0  0  0  0  0  0  0  0  0  0
   29.0646   12.1447   24.7814 N   0  0  0  0  0  0  0  0  0  0  0  0
   31.0105   13.6423   24.8842 C   0  0  0  0  0  0  0  0  0  0  0  0
   30.2519   12.4838   25.5226 C   0  0  0  0  0  0  0  0  0  0  0  0
   29.2674    4.8039   31.4553 C   0  0  0  0  0  0  0  0  0  0  0  0
   27.9508    4.3016   32.0199 C   0  0  0  0  0  0  0  0  0  0  0  0
   28.1892    2.8058   31.9454 C   0  0  0  0  0  0  0  0  0  0  0  0
   30.1473   13.8991   23.6601 C   0  0  0  0  0  0  0  0  0  0  0  0
   29.0911   12.9995   23.6416 C   0  0  0  0  0  0  0  0  0  0  0  0
   28.0330   14.2677   29.2957 S   0  0  0  0  0  0  0  0  0  0  0  0
   34.0205    6.5738   33.0499 S   0  0  0  0  0  0  0  0  0  0  0  0
   27.3574    1.7039   32.2539 C   0  0  0  0  0  0  0  0  0  0  0  0
   30.2906   14.8501   22.6167 C   0  0  0  0  0  0  0  0  0  0  0  0
   29.9662    1.3298   31.2040 C   0  0  0  0  0  0  0  0  0  0  0  0
   28.1654   12.9743   22.5944 C   0  0  0  0  0  0  0  0  0  0  0  0
   28.3865   13.5219   30.7594 O   0  0  0  0  0  0  0  0  0  0  0  0
   34.2070    6.4789   31.3824 O   0  0  0  0  0  0  0  0  0  0  0  0
   30.7371   11.7870   26.5692 C   0  0  0  0  0  0  0  0  0  0  0  0
   29.5396    6.2335   31.2094 C   0  0  0  0  0  0  0  0  0  0  0  0
   29.2606   14.9820   28.8009 O   0  0  0  0  0  0  0  0  0  0  0  0
   26.9221   15.2607   29.4996 O   0  0  0  0  0  0  0  0  0  0  0  0
   35.3193    7.0139   33.6688 O   0  0  0  0  0  0  0  0  0  0  0  0
   32.9500    7.5808   33.3728 O   0  0  0  0  0  0  0  0  0  0  0  0
   30.3193   10.4182   26.8991 C   0  0  0  0  0  0  0  0  0  0  0  0
   29.6788    6.6926   29.9662 C   0  0  0  0  0  0  0  0  0  0  0  0
   30.0029    8.1012   29.6961 C   0  0  0  0  0  0  0  0  0  0  0  0
   30.0610    8.5511   28.4401 C   0  0  0  0  0  0  0  0  0  0  0  0
   30.4389    9.9393   28.1376 C   0  0  0  0  0  0  0  0  0  0  0  0
   31.4854    3.9975   30.6768 C   0  0  0  0  0  0  0  0  0  0  0  0
   29.3374   14.8366   21.5550 C   0  0  0  0  0  0  0  0  0  0  0  0
   27.8649    0.3948   32.0143 C   0  0  0  0  0  0  0  0  0  0  0  0
   28.2913   13.8951   21.5520 C   0  0  0  0  0  0  0  0  0  0  0  0
   29.1650    0.2221   31.4962 C   0  0  0  0  0  0  0  0  0  0  0  0
   27.8151   11.5707   25.3219 C   0  0  0  0  0  0  0  0  0  0  0  0
   31.0565   14.8573   25.8371 C   0  0  0  0  0  0  0  0  0  0  0  0
   32.4245   13.1746   24.4685 C   0  0  0  0  0  0  0  0  0  0  0  0
   26.7920    4.7566   31.1127 C   0  0  0  0  0  0  0  0  0  0  0  0
   27.7845    4.7880   33.4696 C   0  0  0  0  0  0  0  0  0  0  0  0
   27.5318   13.0278   28.1139 C   0  0  0  0  0  0  0  0  0  0  0  0
   33.5635    4.9817   33.7206 C   0  0  0  0  0  0  0  0  0  0  0  0
   31.3209   15.8113   22.5861 C   0  0  0  0  0  0  0  0  0  0  0  0
   26.0553    1.8423   32.7715 C   0  0  0  0  0  0  0  0  0  0  0  0
   27.0622   -0.7250   32.2816 C   0  0  0  0  0  0  0  0  0  0  0  0
   29.4393   15.7674   20.5074 C   0  0  0  0  0  0  0  0  0  0  0  0
   32.5171    3.6874   31.7720 C   0  0  0  0  0  0  0  0  0  0  0  0
   26.7747   12.6430   25.6977 C   0  0  0  0  0  0  0  0  0  0  0  0
   27.2646   13.6586   26.7416 C   0  0  0  0  0  0  0  0  0  0  0  0
   32.2664    4.4577   33.0874 C   0  0  0  0  0  0  0  0  0  0  0  0
   25.2695    0.7152   33.0267 C   0  0  0  0  0  0  0  0  0  0  0  0
   31.4084   16.7279   21.5345 C   0  0  0  0  0  0  0  0  0  0  0  0
   30.4707   16.7075   20.5011 C   0  0  0  0  0  0  0  0  0  0  0  0
   25.7701   -0.5616   32.7848 C   0  0  0  0  0  0  0  0  0  0  0  0
   30.9525    1.1851   30.7878 H   0  0  0  0  0  0  0  0  0  0  0  0
   27.3585   12.2528   22.5776 H   0  0  0  0  0  0  0  0  0  0  0  0
   31.5843   12.1848   27.1146 H   0  0  0  0  0  0  0  0  0  0  0  0
   29.5792    6.9089   32.0546 H   0  0  0  0  0  0  0  0  0  0  0  0
   29.9375    9.7838   26.1043 H   0  0  0  0  0  0  0  0  0  0  0  0
   29.5724    6.0054   29.1310 H   0  0  0  0  0  0  0  0  0  0  0  0
   30.2138    8.7720   30.5279 H   0  0  0  0  0  0  0  0  0  0  0  0
   29.8228    7.8811   27.6168 H   0  0  0  0  0  0  0  0  0  0  0  0
   30.8041   10.5810   28.9336 H   0  0  0  0  0  0  0  0  0  0  0  0
   31.6751    5.0233   30.3044 H   0  0  0  0  0  0  0  0  0  0  0  0
   31.6497    3.3177   29.8128 H   0  0  0  0  0  0  0  0  0  0  0  0
   27.5724   13.8719   20.7389 H   0  0  0  0  0  0  0  0  0  0  0  0
   29.5561   -0.7708   31.3088 H   0  0  0  0  0  0  0  0  0  0  0  0
   27.9895   10.9362   26.2031 H   0  0  0  0  0  0  0  0  0  0  0  0
   27.3694   10.9010   24.5582 H   0  0  0  0  0  0  0  0  0  0  0  0
   30.0670   15.3581   25.8990 H   0  0  0  0  0  0  0  0  0  0  0  0
   31.8006   15.6086   25.5082 H   0  0  0  0  0  0  0  0  0  0  0  0
   31.3598   14.5453   26.8596 H   0  0  0  0  0  0  0  0  0  0  0  0
   33.0378   12.9369   25.3637 H   0  0  0  0  0  0  0  0  0  0  0  0
   32.9688   13.9505   23.8960 H   0  0  0  0  0  0  0  0  0  0  0  0
   32.3641   12.2620   23.8344 H   0  0  0  0  0  0  0  0  0  0  0  0
   25.8099    4.4201   31.4965 H   0  0  0  0  0  0  0  0  0  0  0  0
   26.9253    4.3557   30.0853 H   0  0  0  0  0  0  0  0  0  0  0  0
   26.7623    5.8650   31.0561 H   0  0  0  0  0  0  0  0  0  0  0  0
   27.7314    5.8987   33.5000 H   0  0  0  0  0  0  0  0  0  0  0  0
   28.6436    4.4561   34.0929 H   0  0  0  0  0  0  0  0  0  0  0  0
   26.8551    4.3979   33.9288 H   0  0  0  0  0  0  0  0  0  0  0  0
   28.3448   12.2787   28.0435 H   0  0  0  0  0  0  0  0  0  0  0  0
   26.6125   12.5301   28.4899 H   0  0  0  0  0  0  0  0  0  0  0  0
   33.4081    5.1049   34.8118 H   0  0  0  0  0  0  0  0  0  0  0  0
   34.3953    4.2551   33.5782 H   0  0  0  0  0  0  0  0  0  0  0  0
   32.0601   15.8783   23.3625 H   0  0  0  0  0  0  0  0  0  0  0  0
   25.6281    2.8038   32.9870 H   0  0  0  0  0  0  0  0  0  0  0  0
   27.4307   -1.7267   32.0947 H   0  0  0  0  0  0  0  0  0  0  0  0
   28.7199   15.7668   19.6941 H   0  0  0  0  0  0  0  0  0  0  0  0
   32.5202    2.5970   31.9883 H   0  0  0  0  0  0  0  0  0  0  0  0
   33.5209    3.9227   31.3580 H   0  0  0  0  0  0  0  0  0  0  0  0
   25.8619   12.1346   26.0793 H   0  0  0  0  0  0  0  0  0  0  0  0
   26.4681   13.1933   24.7836 H   0  0  0  0  0  0  0  0  0  0  0  0
   28.1759   14.1630   26.3698 H   0  0  0  0  0  0  0  0  0  0  0  0
   26.4819   14.4401   26.8527 H   0  0  0  0  0  0  0  0  0  0  0  0
   31.7823    3.7588   33.8057 H   0  0  0  0  0  0  0  0  0  0  0  0
   31.5631    5.3082   32.9429 H   0  0  0  0  0  0  0  0  0  0  0  0
   24.2675    0.8328   33.4207 H   0  0  0  0  0  0  0  0  0  0  0  0
   32.2038   17.4632   21.5235 H   0  0  0  0  0  0  0  0  0  0  0  0
   30.5436   17.4255   19.6930 H   0  0  0  0  0  0  0  0  0  0  0  0
   25.1528   -1.4287   32.9847 H   0  0  0  0  0  0  0  0  0  0  0  0
  2  1  1  0
  3  5  1  0
  4  5  1  0
  5 19  2  0
  6  1  2  0
  7  6  1  0
  8  2  2  0
  9  4  1  0
 10  3  1  0
 11 40  1  0
 12 41  1  0
 13  8  1  0
 14  9  2  0
 15  2  1  0
 16 10  2  0
 17 11  1  0
 18 12  1  0
 19 25  1  0
 20  6  1  0
 21 11  2  0
 22 11  2  0
 23 12  2  0
 24 12  2  0
 25 29  2  0
 26 20  2  0
 27 26  1  0
 28 27  2  0
 29 28  1  0
 30  1  1  0
 31 14  1  0
 32 34  1  0
 33 16  1  0
 34 15  2  0
 35  3  1  0
 36  4  1  0
 37  4  1  0
 38  7  1  0
 39  7  1  0
 40 48  1  0
 41 49  1  0
 42 14  1  0
 43 13  2  0
 44 32  2  0
 45 31  1  0
 46 30  1  0
 47 35  1  0
 48 47  1  0
 49 46  1  0
 50 43  1  0
 51 42  2  0
 52 51  1  0
 53 44  1  0
  7  8  1  0
 13 32  1  0
 53 50  2  0
 10  9  1  0
 31 33  2  0
 52 45  2  0
 15 54  1  0
 16 55  1  0
 19 56  1  0
 20 57  1  0
 25 58  1  0
 26 59  1  0
 27 60  1  0
 28 61  1  0
 29 62  1  0
 30 63  1  0
 30 64  1  0
 33 65  1  0
 34 66  1  0
 35 67  1  0
 35 68  1  0
 36 69  1  0
 36 70  1  0
 36 71  1  0
 37 72  1  0
 37 73  1  0
 37 74  1  0
 38 75  1  0
 38 76  1  0
 38 77  1  0
 39 78  1  0
 39 79  1  0
 39 80  1  0
 40 81  1  0
 40 82  1  0
 41 83  1  0
 41 84  1  0
 42 85  1  0
 43 86  1  0
 44 87  1  0
 45 88  1  0
 46 89  1  0
 46 90  1  0
 47 91  1  0
 47 92  1  0
 48 93  1  0
 48 94  1  0
 49 95  1  0
 49 96  1  0
 50 97  1  0
 51 98  1  0
 52 99  1  0
 53100  1  0
M  CHG  3   1   1  17  -1  18  -1
M  END
> <Uni-Dock RESULT> 
ENERGY=   -4.147  LOWER_BOUND=    3.470  UPPER_BOUND=   13.781
INTER + INTRA:          -4.147
INTER:                  -4.147
INTRA:                   0.000
UNBOUND:                 0.000

$$$$

     RDKit          3D

100105  0  0  0  0  0  0  0  0999 V2000
   30.9095   12.6815   18.8055 N   0  0  0  0  0  0  0  0  0  0  0  0
   32.0830   12.6925   18.0026 C   0  0  0  0  0  0  0  0  0  0  0  0
   28.0032   10.5860   28.6982 N   0  0  0  0  0  0  0  0  0  0  0  0
   25.5596   10.5518   28.9588 C   0  0  0  0  0  0  0  0  0  0  0  0
   26.7484   10.9393   28.0860 C   0  0  0  0  0  0  0  0  0  0  0  0
   31.0632   13.5760   19.7447 C   0  0  0  0  0  0  0  0  0  0  0  0
   32.3743   14.3344   19.6433 C   0  0  0  0  0  0  0  0  0  0  0  0
   32.9861   13.6374   18.4434 C   0  0  0  0  0  0  0  0  0  0  0  0
   26.2747    9.8886   30.1243 C   0  0  0  0  0  0  0  0  0  0  0  0
   27.6436    9.9074   29.8985 C   0  0  0  0  0  0  0  0  0  0  0  0
   27.2442   15.6201   28.5190 S   0  0  0  0  0  0  0  0  0  0  0  0
   25.9651   13.9579   18.2847 S   0  0  0  0  0  0  0  0  0  0  0  0
   34.2410   13.7864   17.8074 C   0  0  0  0  0  0  0  0  0  0  0  0
   25.7554    9.2882   31.3005 C   0  0  0  0  0  0  0  0  0  0  0  0
   32.3711   11.8396   16.9349 C   0  0  0  0  0  0  0  0  0  0  0  0
   28.5435    9.3148   30.7892 C   0  0  0  0  0  0  0  0  0  0  0  0
   27.1926   16.4867   27.0804 O   0  0  0  0  0  0  0  0  0  0  0  0
   26.0381   12.4191   18.9567 O   0  0  0  0  0  0  0  0  0  0  0  0
   26.6048   11.4184   26.8345 C   0  0  0  0  0  0  0  0  0  0  0  0
   30.0939   13.7954   20.8360 C   0  0  0  0  0  0  0  0  0  0  0  0
   25.8861   15.0307   28.7848 O   0  0  0  0  0  0  0  0  0  0  0  0
   27.6187   16.5458   29.6436 O   0  0  0  0  0  0  0  0  0  0  0  0
   24.5760   14.2043   17.7623 O   0  0  0  0  0  0  0  0  0  0  0  0
   26.2857   14.9775   19.3439 O   0  0  0  0  0  0  0  0  0  0  0  0
   27.6544   11.3443   25.8098 C   0  0  0  0  0  0  0  0  0  0  0  0
   29.8636   12.8431   21.7391 C   0  0  0  0  0  0  0  0  0  0  0  0
   28.8648   13.0158   22.8043 C   0  0  0  0  0  0  0  0  0  0  0  0
   28.7087   12.0771   23.7412 C   0  0  0  0  0  0  0  0  0  0  0  0
   27.6792   12.1957   24.7841 C   0  0  0  0  0  0  0  0  0  0  0  0
   29.7235   11.8398   18.5759 C   0  0  0  0  0  0  0  0  0  0  0  0
   26.6736    8.6969   32.2188 C   0  0  0  0  0  0  0  0  0  0  0  0
   34.5450   12.9225   16.7166 C   0  0  0  0  0  0  0  0  0  0  0  0
   28.0550    8.7102   31.9493 C   0  0  0  0  0  0  0  0  0  0  0  0
   33.6052   11.9618   16.2897 C   0  0  0  0  0  0  0  0  0  0  0  0
   29.2992   11.2739   28.5258 C   0  0  0  0  0  0  0  0  0  0  0  0
   24.7669   11.8051   29.3913 C   0  0  0  0  0  0  0  0  0  0  0  0
   24.6720    9.5315   28.2091 C   0  0  0  0  0  0  0  0  0  0  0  0
   33.1965   14.1199   20.9282 C   0  0  0  0  0  0  0  0  0  0  0  0
   32.0975   15.8221   19.3675 C   0  0  0  0  0  0  0  0  0  0  0  0
   28.4556   14.3175   28.3738 C   0  0  0  0  0  0  0  0  0  0  0  0
   27.1310   14.1094   16.9388 C   0  0  0  0  0  0  0  0  0  0  0  0
   24.3804    9.2587   31.6082 C   0  0  0  0  0  0  0  0  0  0  0  0
   35.2009   14.7348   18.2094 C   0  0  0  0  0  0  0  0  0  0  0  0
   35.7895   13.0193   16.0751 C   0  0  0  0  0  0  0  0  0  0  0  0
   26.2004    8.0998   33.3994 C   0  0  0  0  0  0  0  0  0  0  0  0
   28.9097   12.3138   17.3622 C   0  0  0  0  0  0  0  0  0  0  0  0
   29.5538   12.3527   29.5956 C   0  0  0  0  0  0  0  0  0  0  0  0
   28.4869   13.4577   29.6434 C   0  0  0  0  0  0  0  0  0  0  0  0
   28.5654   13.8192   17.4039 C   0  0  0  0  0  0  0  0  0  0  0  0
   36.4365   14.8126   17.5612 C   0  0  0  0  0  0  0  0  0  0  0  0
   23.9272    8.6578   32.7861 C   0  0  0  0  0  0  0  0  0  0  0  0
   24.8331    8.0830   33.6786 C   0  0  0  0  0  0  0  0  0  0  0  0
   36.7292   13.9609   16.4989 C   0  0  0  0  0  0  0  0  0  0  0  0
   31.6679   11.0857   16.6122 H   0  0  0  0  0  0  0  0  0  0  0  0
   29.6080    9.3143   30.5920 H   0  0  0  0  0  0  0  0  0  0  0  0
   25.6241   11.7421   26.5079 H   0  0  0  0  0  0  0  0  0  0  0  0
   29.6078   14.7595   20.9146 H   0  0  0  0  0  0  0  0  0  0  0  0
   28.3994   10.5573   25.8825 H   0  0  0  0  0  0  0  0  0  0  0  0
   30.4109   11.9064   21.6749 H   0  0  0  0  0  0  0  0  0  0  0  0
   28.2393   13.9074   22.8135 H   0  0  0  0  0  0  0  0  0  0  0  0
   29.3558   11.2026   23.7401 H   0  0  0  0  0  0  0  0  0  0  0  0
   26.9440   12.9924   24.7234 H   0  0  0  0  0  0  0  0  0  0  0  0
   29.0536   11.8299   19.4580 H   0  0  0  0  0  0  0  0  0  0  0  0
   30.0433   10.7872   18.4166 H   0  0  0  0  0  0  0  0  0  0  0  0
   28.7558    8.2488   32.6381 H   0  0  0  0  0  0  0  0  0  0  0  0
   33.8311   11.2994   15.4625 H   0  0  0  0  0  0  0  0  0  0  0  0
   29.4000   11.7407   27.5351 H   0  0  0  0  0  0  0  0  0  0  0  0
   30.1133   10.5228   28.5835 H   0  0  0  0  0  0  0  0  0  0  0  0
   25.3193   12.3853   30.1607 H   0  0  0  0  0  0  0  0  0  0  0  0
   23.7758   11.5400   29.8083 H   0  0  0  0  0  0  0  0  0  0  0  0
   24.5714   12.4679   28.5210 H   0  0  0  0  0  0  0  0  0  0  0  0
   24.1909   10.0044   27.3266 H   0  0  0  0  0  0  0  0  0  0  0  0
   23.8610    9.1343   28.8499 H   0  0  0  0  0  0  0  0  0  0  0  0
   25.2803    8.6696   27.8550 H   0  0  0  0  0  0  0  0  0  0  0  0
   34.1580   14.6674   20.8999 H   0  0  0  0  0  0  0  0  0  0  0  0
   33.4099   13.0396   21.0745 H   0  0  0  0  0  0  0  0  0  0  0  0
   32.6321   14.4890   21.8101 H   0  0  0  0  0  0  0  0  0  0  0  0
   31.5422   16.2752   20.2181 H   0  0  0  0  0  0  0  0  0  0  0  0
   31.4903   15.9406   18.4433 H   0  0  0  0  0  0  0  0  0  0  0  0
   33.0356   16.3966   19.2389 H   0  0  0  0  0  0  0  0  0  0  0  0
   28.1852   13.6999   27.4949 H   0  0  0  0  0  0  0  0  0  0  0  0
   29.4520   14.7773   28.2004 H   0  0  0  0  0  0  0  0  0  0  0  0
   27.0784   15.1503   16.5596 H   0  0  0  0  0  0  0  0  0  0  0  0
   26.8404   13.4313   16.1047 H   0  0  0  0  0  0  0  0  0  0  0  0
   23.6430    9.6974   30.9623 H   0  0  0  0  0  0  0  0  0  0  0  0
   35.0190   15.4223   19.0142 H   0  0  0  0  0  0  0  0  0  0  0  0
   36.0391   12.3620   15.2506 H   0  0  0  0  0  0  0  0  0  0  0  0
   26.8895    7.6467   34.1055 H   0  0  0  0  0  0  0  0  0  0  0  0
   29.4696   12.0984   16.4262 H   0  0  0  0  0  0  0  0  0  0  0  0
   27.9877   11.6955   17.3193 H   0  0  0  0  0  0  0  0  0  0  0  0
   30.5499   12.8112   29.4086 H   0  0  0  0  0  0  0  0  0  0  0  0
   29.6124   11.8723   30.5948 H   0  0  0  0  0  0  0  0  0  0  0  0
   27.4932   13.0068   29.8234 H   0  0  0  0  0  0  0  0  0  0  0  0
   28.7104   14.1119   30.5140 H   0  0  0  0  0  0  0  0  0  0  0  0
   29.2691   14.3497   16.7242 H   0  0  0  0  0  0  0  0  0  0  0  0
   28.7126   14.2508   18.4193 H   0  0  0  0  0  0  0  0  0  0  0  0
   37.1697   15.5428   17.8810 H   0  0  0  0  0  0  0  0  0  0  0  0
   22.8679    8.6434   33.0122 H   0  0  0  0  0  0  0  0  0  0  0  0
   24.4728    7.6244   34.5917 H   0  0  0  0  0  0  0  0  0  0  0  0
   37.6901   14.0282   16.0038 H   0  0  0  0  0  0  0  0  0  0  0  0
  2  1  1  0
  3  5  1  0
  4  5  1  0
  5 19  2  0
  6  1  2  0
  7  6  1  0
  8  2  2  0
  9  4  1  0
 10  3  1  0
 11 40  1  0
 12 41  1  0
 13  8  1  0
 14  9  2  0
 15  2  1  0
 16 10  2  0
 17 11  1  0
 18 12  1  0
 19 25  1  0
 20  6  1  0
 21 11  2  0
 22 11  2  0
 23 12  2  0
 24 12  2  0
 25 29  2  0
 26 20  2  0
 27 26  1  0
 28 27  2  0
 29 28  1  0
 30  1  1  0
 31 14  1  0
 32 34  1  0
 33 16  1  0
 34 15  2  0
 35  3  1  0
 36  4  1  0
 37  4  1  0
 38  7  1  0
 39  7  1  0
 40 48  1  0
 41 49  1  0
 42 14  1  0
 43 13  2  0
 44 32  2  0
 45 31  1  0
 46 30  1  0
 47 35  1  0
 48 47  1  0
 49 46  1  0
 50 43  1  0
 51 42  2  0
 52 51  1  0
 53 44  1  0
  7  8  1  0
 13 32  1  0
 53 50  2  0
 10  9  1  0
 31 33  2  0
 52 45  2  0
 15 54  1  0
 16 55  1  0
 19 56  1  0
 20 57  1  0
 25 58  1  0
 26 59  1  0
 27 60  1  0
 28 61  1  0
 29 62  1  0
 30 63  1  0
 30 64  1  0
 33 65  1  0
 34 66  1  0
 35 67  1  0
 35 68  1  0
 36 69  1  0
 36 70  1  0
 36 71  1  0
 37 72  1  0
 37 73  1  0
 37 74  1  0
 38 75  1  0
 38 76  1  0
 38 77  1  0
 39 78  1  0
 39 79  1  0
 39 80  1  0
 40 81  1  0
 40 82  1  0
 41 83  1  0
 41 84  1  0
 42 85  1  0
 43 86  1  0
 44 87  1  0
 45 88  1  0
 46 89  1  0
 46 90  1  0
 47 91  1  0
 47 92  1  0
 48 93  1  0
 48 94  1  0
 49 95  1  0
 49 96  1  0
 50 97  1  0
 51 98  1  0
 52 99  1  0
 53100  1  0
M  CHG  3   1   1  17  -1  18  -1
M  END
> <Uni-Dock RESULT> 
ENERGY=   -4.009  LOWER_BOUND=    5.674  UPPER_BOUND=    7.471
INTER + INTRA:          -4.009
INTER:                  -4.009
INTRA:                   0.000
UNBOUND:                 0.000

$$$$
