
     RDKit          3D

100105  0  0  0  0  0  0  0  0999 V2000
   30.6857   14.3984   24.7155 N   0  0  0  0  0  0  0  0  0  0  0  0
   31.5217   15.5473   24.6232 C   0  0  0  0  0  0  0  0  0  0  0  0
   31.0863    4.8560   31.2961 N   0  0  0  0  0  0  0  0  0  0  0  0
   29.3101    3.5436   30.2394 C   0  0  0  0  0  0  0  0  0  0  0  0
   30.1569    4.8140   30.1892 C   0  0  0  0  0  0  0  0  0  0  0  0
   31.1917   13.5900   25.6127 C   0  0  0  0  0  0  0  0  0  0  0  0
   32.4638   14.1624   26.2553 C   0  0  0  0  0  0  0  0  0  0  0  0
   32.5799   15.4698   25.4987 C   0  0  0  0  0  0  0  0  0  0  0  0
   29.8446    2.8749   31.4943 C   0  0  0  0  0  0  0  0  0  0  0  0
   30.8438    3.6632   32.0476 C   0  0  0  0  0  0  0  0  0  0  0  0
   28.6398    5.9527   35.2074 S   0  0  0  0  0  0  0  0  0  0  0  0
   32.2138   13.6120   19.3922 S   0  0  0  0  0  0  0  0  0  0  0  0
   33.5319   16.5164   25.5776 C   0  0  0  0  0  0  0  0  0  0  0  0
   29.4570    1.6595   32.1234 C   0  0  0  0  0  0  0  0  0  0  0  0
   31.3543   16.6434   23.7692 C   0  0  0  0  0  0  0  0  0  0  0  0
   31.4806    3.2949   33.2413 C   0  0  0  0  0  0  0  0  0  0  0  0
   27.0180    5.5338   35.0827 O   0  0  0  0  0  0  0  0  0  0  0  0
   32.4709   12.5458   18.1205 O   0  0  0  0  0  0  0  0  0  0  0  0
   29.9701    5.7394   29.2113 C   0  0  0  0  0  0  0  0  0  0  0  0
   30.5661   12.2692   25.9400 C   0  0  0  0  0  0  0  0  0  0  0  0
   29.4194    4.7686   35.7059 O   0  0  0  0  0  0  0  0  0  0  0  0
   28.7863    7.0928   36.1754 O   0  0  0  0  0  0  0  0  0  0  0  0
   31.6594   14.9004   18.8535 O   0  0  0  0  0  0  0  0  0  0  0  0
   33.5198   13.8812   20.0849 O   0  0  0  0  0  0  0  0  0  0  0  0
   30.6929    7.0063   28.9729 C   0  0  0  0  0  0  0  0  0  0  0  0
   31.0952   11.3553   26.7609 C   0  0  0  0  0  0  0  0  0  0  0  0
   30.3957   10.0849   27.0236 C   0  0  0  0  0  0  0  0  0  0  0  0
   30.9047    9.1775   27.8600 C   0  0  0  0  0  0  0  0  0  0  0  0
   30.1966    7.9133   28.1257 C   0  0  0  0  0  0  0  0  0  0  0  0
   29.4946   14.1531   23.8818 C   0  0  0  0  0  0  0  0  0  0  0  0
   30.1096    1.2901   33.3349 C   0  0  0  0  0  0  0  0  0  0  0  0
   33.3627   17.6413   24.7203 C   0  0  0  0  0  0  0  0  0  0  0  0
   31.1098    2.1118   33.8787 C   0  0  0  0  0  0  0  0  0  0  0  0
   32.2782   17.6906   23.8237 C   0  0  0  0  0  0  0  0  0  0  0  0
   32.0294    5.9117   31.6933 C   0  0  0  0  0  0  0  0  0  0  0  0
   29.5866    2.6901   28.9833 C   0  0  0  0  0  0  0  0  0  0  0  0
   27.8162    3.9112   30.3892 C   0  0  0  0  0  0  0  0  0  0  0  0
   32.2271   14.4321   27.7566 C   0  0  0  0  0  0  0  0  0  0  0  0
   33.6900   13.2583   25.9763 C   0  0  0  0  0  0  0  0  0  0  0  0
   29.2438    6.4374   33.6010 C   0  0  0  0  0  0  0  0  0  0  0  0
   31.0558   12.8871   20.5403 C   0  0  0  0  0  0  0  0  0  0  0  0
   28.4612    0.8017   31.6109 C   0  0  0  0  0  0  0  0  0  0  0  0
   34.6315   16.4930   26.4581 C   0  0  0  0  0  0  0  0  0  0  0  0
   34.2818   18.7009   24.7671 C   0  0  0  0  0  0  0  0  0  0  0  0
   29.7545    0.1023   33.9934 C   0  0  0  0  0  0  0  0  0  0  0  0
   29.8116   13.2060   22.7148 C   0  0  0  0  0  0  0  0  0  0  0  0
   31.3143    7.1424   32.2822 C   0  0  0  0  0  0  0  0  0  0  0  0
   30.7081    6.8862   33.6755 C   0  0  0  0  0  0  0  0  0  0  0  0
   30.7991   13.8278   21.7191 C   0  0  0  0  0  0  0  0  0  0  0  0
   35.5354   17.5577   26.4909 C   0  0  0  0  0  0  0  0  0  0  0  0
   28.1215   -0.3765   32.2804 C   0  0  0  0  0  0  0  0  0  0  0  0
   28.7644   -0.7250   33.4665 C   0  0  0  0  0  0  0  0  0  0  0  0
   35.3611   18.6571   25.6506 C   0  0  0  0  0  0  0  0  0  0  0  0
   30.5352   16.7024   23.0684 H   0  0  0  0  0  0  0  0  0  0  0  0
   32.2485    3.8980   33.6987 H   0  0  0  0  0  0  0  0  0  0  0  0
   29.1865    5.5341   28.4927 H   0  0  0  0  0  0  0  0  0  0  0  0
   29.6227   12.0186   25.4769 H   0  0  0  0  0  0  0  0  0  0  0  0
   31.6344    7.2241   29.4314 H   0  0  0  0  0  0  0  0  0  0  0  0
   32.0381   11.5218   27.2508 H   0  0  0  0  0  0  0  0  0  0  0  0
   29.4490    9.8893   26.5309 H   0  0  0  0  0  0  0  0  0  0  0  0
   31.8504    9.3710   28.3561 H   0  0  0  0  0  0  0  0  0  0  0  0
   29.2500    7.7277   27.6285 H   0  0  0  0  0  0  0  0  0  0  0  0
   28.6735   13.7312   24.4978 H   0  0  0  0  0  0  0  0  0  0  0  0
   29.0812   15.1034   23.4885 H   0  0  0  0  0  0  0  0  0  0  0  0
   31.6052    1.8379   34.8029 H   0  0  0  0  0  0  0  0  0  0  0  0
   32.1469   18.5404   23.1640 H   0  0  0  0  0  0  0  0  0  0  0  0
   32.7605    5.5391   32.4338 H   0  0  0  0  0  0  0  0  0  0  0  0
   32.6868    6.1720   30.8462 H   0  0  0  0  0  0  0  0  0  0  0  0
   29.2869    3.2339   28.0631 H   0  0  0  0  0  0  0  0  0  0  0  0
   30.6702    2.4530   28.9088 H   0  0  0  0  0  0  0  0  0  0  0  0
   29.0275    1.7372   28.9880 H   0  0  0  0  0  0  0  0  0  0  0  0
   27.4459    4.4467   29.4910 H   0  0  0  0  0  0  0  0  0  0  0  0
   27.6630    4.5677   31.2717 H   0  0  0  0  0  0  0  0  0  0  0  0
   27.1720    3.0232   30.5147 H   0  0  0  0  0  0  0  0  0  0  0  0
   33.1263   14.8468   28.2473 H   0  0  0  0  0  0  0  0  0  0  0  0
   31.9626   13.5058   28.3009 H   0  0  0  0  0  0  0  0  0  0  0  0
   31.3927   15.1532   27.8920 H   0  0  0  0  0  0  0  0  0  0  0  0
   34.6103   13.8452   25.7826 H   0  0  0  0  0  0  0  0  0  0  0  0
   33.9149   12.5949   26.8369 H   0  0  0  0  0  0  0  0  0  0  0  0
   33.5241   12.6267   25.0752 H   0  0  0  0  0  0  0  0  0  0  0  0
   29.1294    5.5755   32.9197 H   0  0  0  0  0  0  0  0  0  0  0  0
   28.6156    7.2684   33.2173 H   0  0  0  0  0  0  0  0  0  0  0  0
   30.1052   12.6800   20.0039 H   0  0  0  0  0  0  0  0  0  0  0  0
   31.4758   11.9261   20.9063 H   0  0  0  0  0  0  0  0  0  0  0  0
   27.9337    1.0097   30.6988 H   0  0  0  0  0  0  0  0  0  0  0  0
   34.8169   15.6607   27.1166 H   0  0  0  0  0  0  0  0  0  0  0  0
   34.1651   19.5626   24.1204 H   0  0  0  0  0  0  0  0  0  0  0  0
   30.2438   -0.1860   34.9162 H   0  0  0  0  0  0  0  0  0  0  0  0
   30.2282   12.2529   23.1056 H   0  0  0  0  0  0  0  0  0  0  0  0
   28.8612   12.9707   22.1876 H   0  0  0  0  0  0  0  0  0  0  0  0
   30.5351    7.5228   31.5905 H   0  0  0  0  0  0  0  0  0  0  0  0
   32.0746    7.9475   32.3799 H   0  0  0  0  0  0  0  0  0  0  0  0
   31.3146    6.1406   34.2324 H   0  0  0  0  0  0  0  0  0  0  0  0
   30.7463    7.8337   34.2555 H   0  0  0  0  0  0  0  0  0  0  0  0
   31.7637   14.0322   22.2314 H   0  0  0  0  0  0  0  0  0  0  0  0
   30.3851   14.7874   21.3397 H   0  0  0  0  0  0  0  0  0  0  0  0
   36.3783   17.5275   27.1692 H   0  0  0  0  0  0  0  0  0  0  0  0
   27.3537   -1.0238   31.8763 H   0  0  0  0  0  0  0  0  0  0  0  0
   28.4963   -1.6407   33.9776 H   0  0  0  0  0  0  0  0  0  0  0  0
   36.0667   19.4769   25.6818 H   0  0  0  0  0  0  0  0  0  0  0  0
  2  1  1  0
  3  5  1  0
  4  5  1  0
  5 19  2  0
  6  1  2  0
  7  6  1  0
  8  2  2  0
  9  4  1  0
 10  3  1  0
 11 40  1  0
 12 41  1  0
 13  8  1  0
 14  9  2  0
 15  2  1  0
 16 10  2  0
 17 11  1  0
 18 12  1  0
 19 25  1  0
 20  6  1  0
 21 11  2  0
 22 11  2  0
 23 12  2  0
 24 12  2  0
 25 29  2  0
 26 20  2  0
 27 26  1  0
 28 27  2  0
 29 28  1  0
 30  1  1  0
 31 14  1  0
 32 34  1  0
 33 16  1  0
 34 15  2  0
 35  3  1  0
 36  4  1  0
 37  4  1  0
 38  7  1  0
 39  7  1  0
 40 48  1  0
 41 49  1  0
 42 14  1  0
 43 13  2  0
 44 32  2  0
 45 31  1  0
 46 30  1  0
 47 35  1  0
 48 47  1  0
 49 46  1  0
 50 43  1  0
 51 42  2  0
 52 51  1  0
 53 44  1  0
  7  8  1  0
 13 32  1  0
 53 50  2  0
 10  9  1  0
 31 33  2  0
 52 45  2  0
 15 54  1  0
 16 55  1  0
 19 56  1  0
 20 57  1  0
 25 58  1  0
 26 59  1  0
 27 60  1  0
 28 61  1  0
 29 62  1  0
 30 63  1  0
 30 64  1  0
 33 65  1  0
 34 66  1  0
 35 67  1  0
 35 68  1  0
 36 69  1  0
 36 70  1  0
 36 71  1  0
 37 72  1  0
 37 73  1  0
 37 74  1  0
 38 75  1  0
 38 76  1  0
 38 77  1  0
 39 78  1  0
 39 79  1  0
 39 80  1  0
 40 81  1  0
 40 82  1  0
 41 83  1  0
 41 84  1  0
 42 85  1  0
 43 86  1  0
 44 87  1  0
 45 88  1  0
 46 89  1  0
 46 90  1  0
 47 91  1  0
 47 92  1  0
 48 93  1  0
 48 94  1  0
 49 95  1  0
 49 96  1  0
 50 97  1  0
 51 98  1  0
 52 99  1  0
 53100  1  0
M  CHG  3   1   1  17  -1  18  -1
M  END
> <Uni-Dock RESULT> 
ENERGY=   -4.356  LOWER_BOUND=    0.000  UPPER_BOUND=    0.000
INTER + INTRA:          -4.356
INTER:                  -4.356
INTRA:                   0.000
UNBOUND:                 0.000

$$$$

     RDKit          3D

100105  0  0  0  0  0  0  0  0999 V2000
   28.9904   13.7729   23.0162 N   0  0  0  0  0  0  0  0  0  0  0  0
   30.2800   14.3137   22.7479 C   0  0  0  0  0  0  0  0  0  0  0  0
   24.5282    8.1583   32.1314 N   0  0  0  0  0  0  0  0  0  0  0  0
   22.3720    7.4799   31.1910 C   0  0  0  0  0  0  0  0  0  0  0  0
   23.7284    8.1310   30.9271 C   0  0  0  0  0  0  0  0  0  0  0  0
   29.0150   13.2127   24.1995 C   0  0  0  0  0  0  0  0  0  0  0  0
   30.3851   13.3554   24.8786 C   0  0  0  0  0  0  0  0  0  0  0  0
   31.1417   14.1021   23.7991 C   0  0  0  0  0  0  0  0  0  0  0  0
   22.4782    7.1519   32.6705 C   0  0  0  0  0  0  0  0  0  0  0  0
   23.7166    7.5596   33.1459 C   0  0  0  0  0  0  0  0  0  0  0  0
   22.7990   11.5590   34.9477 S   0  0  0  0  0  0  0  0  0  0  0  0
   30.1091   10.5182   18.6064 S   0  0  0  0  0  0  0  0  0  0  0  0
   32.4781   14.5700   23.7447 C   0  0  0  0  0  0  0  0  0  0  0  0
   21.5325    6.5541   33.5488 C   0  0  0  0  0  0  0  0  0  0  0  0
   30.6893   14.9765   21.5852 C   0  0  0  0  0  0  0  0  0  0  0  0
   24.0595    7.4107   34.4974 C   0  0  0  0  0  0  0  0  0  0  0  0
   21.1815   11.8848   34.6338 O   0  0  0  0  0  0  0  0  0  0  0  0
   29.8573    9.0675   17.7988 O   0  0  0  0  0  0  0  0  0  0  0  0
   24.0420    8.6172   29.6971 C   0  0  0  0  0  0  0  0  0  0  0  0
   27.8194   12.5236   24.7811 C   0  0  0  0  0  0  0  0  0  0  0  0
   22.8936   10.4248   35.9292 O   0  0  0  0  0  0  0  0  0  0  0  0
   23.4489   12.7821   35.5310 O   0  0  0  0  0  0  0  0  0  0  0  0
   30.2631   11.6240   17.6009 O   0  0  0  0  0  0  0  0  0  0  0  0
   31.3607   10.4154   19.4315 O   0  0  0  0  0  0  0  0  0  0  0  0
   25.2941    9.2516   29.2341 C   0  0  0  0  0  0  0  0  0  0  0  0
   27.8155   11.8389   25.9301 C   0  0  0  0  0  0  0  0  0  0  0  0
   26.5815   11.2002   26.4214 C   0  0  0  0  0  0  0  0  0  0  0  0
   26.5627   10.5353   27.5788 C   0  0  0  0  0  0  0  0  0  0  0  0
   25.3240    9.9066   28.0693 C   0  0  0  0  0  0  0  0  0  0  0  0
   27.8551   13.7934   22.0757 C   0  0  0  0  0  0  0  0  0  0  0  0
   21.8880    6.4038   34.9203 C   0  0  0  0  0  0  0  0  0  0  0  0
   32.8999   15.2560   22.5698 C   0  0  0  0  0  0  0  0  0  0  0  0
   23.1438    6.8351   35.3769 C   0  0  0  0  0  0  0  0  0  0  0  0
   32.0022   15.4484   21.5022 C   0  0  0  0  0  0  0  0  0  0  0  0
   25.8515    8.7534   32.3688 C   0  0  0  0  0  0  0  0  0  0  0  0
   22.2395    6.2008   30.3371 C   0  0  0  0  0  0  0  0  0  0  0  0
   21.2382    8.4946   30.9186 C   0  0  0  0  0  0  0  0  0  0  0  0
   30.2628   14.2270   26.1467 C   0  0  0  0  0  0  0  0  0  0  0  0
   31.0294   11.9715   25.1406 C   0  0  0  0  0  0  0  0  0  0  0  0
   23.6106   11.1064   33.4256 C   0  0  0  0  0  0  0  0  0  0  0  0
   28.7106   10.8512   19.6638 C   0  0  0  0  0  0  0  0  0  0  0  0
   20.2622    6.1027   33.1331 C   0  0  0  0  0  0  0  0  0  0  0  0
   33.4020   14.3863   24.7924 C   0  0  0  0  0  0  0  0  0  0  0  0
   34.2148   15.7375   22.4750 C   0  0  0  0  0  0  0  0  0  0  0  0
   20.9832    5.8251   35.8240 C   0  0  0  0  0  0  0  0  0  0  0  0
   27.7101   12.4521   21.3414 C   0  0  0  0  0  0  0  0  0  0  0  0
   25.8030   10.2927   32.3985 C   0  0  0  0  0  0  0  0  0  0  0  0
   25.1063   10.8563   33.6522 C   0  0  0  0  0  0  0  0  0  0  0  0
   28.9049   12.1650   20.4231 C   0  0  0  0  0  0  0  0  0  0  0  0
   34.7065   14.8736   24.6799 C   0  0  0  0  0  0  0  0  0  0  0  0
   19.3751    5.5290   34.0474 C   0  0  0  0  0  0  0  0  0  0  0  0
   19.7331    5.3909   35.3869 C   0  0  0  0  0  0  0  0  0  0  0  0
   35.1110   15.5470   23.5275 C   0  0  0  0  0  0  0  0  0  0  0  0
   30.0225   15.1311   20.7503 H   0  0  0  0  0  0  0  0  0  0  0  0
   25.0089    7.7335   34.8936 H   0  0  0  0  0  0  0  0  0  0  0  0
   23.2792    8.5327   28.9333 H   0  0  0  0  0  0  0  0  0  0  0  0
   26.8869   12.5654   24.2369 H   0  0  0  0  0  0  0  0  0  0  0  0
   26.2091    9.1821   29.7837 H   0  0  0  0  0  0  0  0  0  0  0  0
   28.7061   11.7381   26.5248 H   0  0  0  0  0  0  0  0  0  0  0  0
   25.6737   11.2778   25.8323 H   0  0  0  0  0  0  0  0  0  0  0  0
   27.4686   10.4576   28.1716 H   0  0  0  0  0  0  0  0  0  0  0  0
   24.4213    9.9907   27.4730 H   0  0  0  0  0  0  0  0  0  0  0  0
   26.9140   14.0331   22.6129 H   0  0  0  0  0  0  0  0  0  0  0  0
   27.9647   14.6125   21.3369 H   0  0  0  0  0  0  0  0  0  0  0  0
   23.4167    6.7280   36.4203 H   0  0  0  0  0  0  0  0  0  0  0  0
   32.3181   15.9638   20.6028 H   0  0  0  0  0  0  0  0  0  0  0  0
   26.2886    8.3946   33.3186 H   0  0  0  0  0  0  0  0  0  0  0  0
   26.5783    8.3691   31.6328 H   0  0  0  0  0  0  0  0  0  0  0  0
   22.2682    6.4446   29.2544 H   0  0  0  0  0  0  0  0  0  0  0  0
   23.0752    5.5015   30.5576 H   0  0  0  0  0  0  0  0  0  0  0  0
   21.2897    5.6670   30.5197 H   0  0  0  0  0  0  0  0  0  0  0  0
   21.2003    8.7707   29.8448 H   0  0  0  0  0  0  0  0  0  0  0  0
   21.3946    9.4217   31.5094 H   0  0  0  0  0  0  0  0  0  0  0  0
   20.2415    8.0954   31.1768 H   0  0  0  0  0  0  0  0  0  0  0  0
   31.2350   14.3494   26.6578 H   0  0  0  0  0  0  0  0  0  0  0  0
   29.5671   13.7814   26.8827 H   0  0  0  0  0  0  0  0  0  0  0  0
   29.8773   15.2358   25.8855 H   0  0  0  0  0  0  0  0  0  0  0  0
   32.1241   11.9771   24.9660 H   0  0  0  0  0  0  0  0  0  0  0  0
   30.8793   11.6409   26.1891 H   0  0  0  0  0  0  0  0  0  0  0  0
   30.6063   11.1987   24.4607 H   0  0  0  0  0  0  0  0  0  0  0  0
   23.1146   10.2017   33.0310 H   0  0  0  0  0  0  0  0  0  0  0  0
   23.4744   11.9257   32.6890 H   0  0  0  0  0  0  0  0  0  0  0  0
   27.7951   10.9053   19.0366 H   0  0  0  0  0  0  0  0  0  0  0  0
   28.6024   10.0106   20.3817 H   0  0  0  0  0  0  0  0  0  0  0  0
   19.9290    6.1742   32.1147 H   0  0  0  0  0  0  0  0  0  0  0  0
   33.1419   13.8610   25.6963 H   0  0  0  0  0  0  0  0  0  0  0  0
   34.5488   16.2609   21.5868 H   0  0  0  0  0  0  0  0  0  0  0  0
   21.2439    5.7084   36.8693 H   0  0  0  0  0  0  0  0  0  0  0  0
   27.6020   11.6285   22.0793 H   0  0  0  0  0  0  0  0  0  0  0  0
   26.7809   12.4862   20.7315 H   0  0  0  0  0  0  0  0  0  0  0  0
   25.3261   10.6968   31.4822 H   0  0  0  0  0  0  0  0  0  0  0  0
   26.8543   10.6538   32.3968 H   0  0  0  0  0  0  0  0  0  0  0  0
   25.2596   10.1797   34.5196 H   0  0  0  0  0  0  0  0  0  0  0  0
   25.5802   11.8280   33.9111 H   0  0  0  0  0  0  0  0  0  0  0  0
   29.8320   12.0939   21.0314 H   0  0  0  0  0  0  0  0  0  0  0  0
   29.0180   12.9971   19.6943 H   0  0  0  0  0  0  0  0  0  0  0  0
   35.4087   14.7238   25.4898 H   0  0  0  0  0  0  0  0  0  0  0  0
   18.4028    5.1893   33.7142 H   0  0  0  0  0  0  0  0  0  0  0  0
   19.0404    4.9434   36.0879 H   0  0  0  0  0  0  0  0  0  0  0  0
   36.1236   15.9201   23.4483 H   0  0  0  0  0  0  0  0  0  0  0  0
  2  1  1  0
  3  5  1  0
  4  5  1  0
  5 19  2  0
  6  1  2  0
  7  6  1  0
  8  2  2  0
  9  4  1  0
 10  3  1  0
 11 40  1  0
 12 41  1  0
 13  8  1  0
 14  9  2  0
 15  2  1  0
 16 10  2  0
 17 11  1  0
 18 12  1  0
 19 25  1  0
 20  6  1  0
 21 11  2  0
 22 11  2  0
 23 12  2  0
 24 12  2  0
 25 29  2  0
 26 20  2  0
 27 26  1  0
 28 27  2  0
 29 28  1  0
 30  1  1  0
 31 14  1  0
 32 34  1  0
 33 16  1  0
 34 15  2  0
 35  3  1  0
 36  4  1  0
 37  4  1  0
 38  7  1  0
 39  7  1  0
 40 48  1  0
 41 49  1  0
 42 14  1  0
 43 13  2  0
 44 32  2  0
 45 31  1  0
 46 30  1  0
 47 35  1  0
 48 47  1  0
 49 46  1  0
 50 43  1  0
 51 42  2  0
 52 51  1  0
 53 44  1  0
  7  8  1  0
 13 32  1  0
 53 50  2  0
 10  9  1  0
 31 33  2  0
 52 45  2  0
 15 54  1  0
 16 55  1  0
 19 56  1  0
 20 57  1  0
 25 58  1  0
 26 59  1  0
 27 60  1  0
 28 61  1  0
 29 62  1  0
 30 63  1  0
 30 64  1  0
 33 65  1  0
 34 66  1  0
 35 67  1  0
 35 68  1  0
 36 69  1  0
 36 70  1  0
 36 71  1  0
 37 72  1  0
 37 73  1  0
 37 74  1  0
 38 75  1  0
 38 76  1  0
 38 77  1  0
 39 78  1  0
 39 79  1  0
 39 80  1  0
 40 81  1  0
 40 82  1  0
 41 83  1  0
 41 84  1  0
 42 85  1  0
 43 86  1  0
 44 87  1  0
 45 88  1  0
 46 89  1  0
 46 90  1  0
 47 91  1  0
 47 92  1  0
 48 93  1  0
 48 94  1  0
 49 95  1  0
 49 96  1  0
 50 97  1  0
 51 98  1  0
 52 99  1  0
 53100  1  0
M  CHG  3   1   1  17  -1  18  -1
M  END
> <Uni-Dock RESULT> 
ENERGY=   -3.826  LOWER_BOUND=    5.419  UPPER_BOUND=    6.292
INTER + INTRA:          -3.826
INTER:                  -3.826
INTRA:                   0.000
UNBOUND:                 0.000

$$$$

     RDKit          3D

100105  0  0  0  0  0  0  0  0999 V2000
   23.0742   12.2250   28.9627 N   0  0  0  0  0  0  0  0  0  0  0  0
   22.7146   11.0622   29.7017 C   0  0  0  0  0  0  0  0  0  0  0  0
   32.3767   14.9685   22.6019 N   0  0  0  0  0  0  0  0  0  0  0  0
   31.9169   17.3372   22.1874 C   0  0  0  0  0  0  0  0  0  0  0  0
   31.4889   16.0654   22.9172 C   0  0  0  0  0  0  0  0  0  0  0  0
   24.2573   12.0308   28.4363 C   0  0  0  0  0  0  0  0  0  0  0  0
   24.8175   10.6401   28.7695 C   0  0  0  0  0  0  0  0  0  0  0  0
   23.6931   10.0982   29.6282 C   0  0  0  0  0  0  0  0  0  0  0  0
   33.1305   16.8475   21.4158 C   0  0  0  0  0  0  0  0  0  0  0  0
   33.3395   15.5030   21.6888 C   0  0  0  0  0  0  0  0  0  0  0  0
   31.3522   13.4842   18.2163 S   0  0  0  0  0  0  0  0  0  0  0  0
   22.8632   14.7237   33.9630 S   0  0  0  0  0  0  0  0  0  0  0  0
   23.5331    8.8533   30.2858 C   0  0  0  0  0  0  0  0  0  0  0  0
   33.9825   17.5378   20.5098 C   0  0  0  0  0  0  0  0  0  0  0  0
   21.5410   10.8624   30.4375 C   0  0  0  0  0  0  0  0  0  0  0  0
   34.3766   14.7902   21.0706 C   0  0  0  0  0  0  0  0  0  0  0  0
   30.6348   14.6863   17.2882 O   0  0  0  0  0  0  0  0  0  0  0  0
   23.3868   15.9659   34.9645 O   0  0  0  0  0  0  0  0  0  0  0  0
   30.3880   16.0548   23.7145 C   0  0  0  0  0  0  0  0  0  0  0  0
   24.9451   13.0748   27.6117 C   0  0  0  0  0  0  0  0  0  0  0  0
   32.8466   13.6052   18.1126 O   0  0  0  0  0  0  0  0  0  0  0  0
   30.9218   12.1379   17.7058 O   0  0  0  0  0  0  0  0  0  0  0  0
   21.4165   14.4349   34.2477 O   0  0  0  0  0  0  0  0  0  0  0  0
   23.6807   13.4920   34.2323 O   0  0  0  0  0  0  0  0  0  0  0  0
   29.8270   14.9491   24.5189 C   0  0  0  0  0  0  0  0  0  0  0  0
   26.1944   12.9789   27.1439 C   0  0  0  0  0  0  0  0  0  0  0  0
   26.7799   14.0620   26.3337 C   0  0  0  0  0  0  0  0  0  0  0  0
   28.0174   13.9642   25.8427 C   0  0  0  0  0  0  0  0  0  0  0  0
   28.5941   15.0461   25.0259 C   0  0  0  0  0  0  0  0  0  0  0  0
   22.2637   13.4537   28.8767 C   0  0  0  0  0  0  0  0  0  0  0  0
   35.0358   16.8080   19.8867 C   0  0  0  0  0  0  0  0  0  0  0  0
   22.3365    8.6369   31.0276 C   0  0  0  0  0  0  0  0  0  0  0  0
   35.2179   15.4456   20.1727 C   0  0  0  0  0  0  0  0  0  0  0  0
   21.3558    9.6447   31.0979 C   0  0  0  0  0  0  0  0  0  0  0  0
   32.3070   13.5560   23.0041 C   0  0  0  0  0  0  0  0  0  0  0  0
   32.3025   18.4186   23.2193 C   0  0  0  0  0  0  0  0  0  0  0  0
   30.7925   17.8018   21.2339 C   0  0  0  0  0  0  0  0  0  0  0  0
   24.9598    9.8007   27.4819 C   0  0  0  0  0  0  0  0  0  0  0  0
   26.1289   10.7436   29.5871 C   0  0  0  0  0  0  0  0  0  0  0  0
   30.8494   13.6792   19.9161 C   0  0  0  0  0  0  0  0  0  0  0  0
   23.0582   15.2214   32.2604 C   0  0  0  0  0  0  0  0  0  0  0  0
   33.8392   18.9058   20.1964 C   0  0  0  0  0  0  0  0  0  0  0  0
   24.4990    7.8285   30.2410 C   0  0  0  0  0  0  0  0  0  0  0  0
   22.1368    7.4173   31.6929 C   0  0  0  0  0  0  0  0  0  0  0  0
   35.8967   17.4472   18.9809 C   0  0  0  0  0  0  0  0  0  0  0  0
   22.7704   14.5297   29.8485 C   0  0  0  0  0  0  0  0  0  0  0  0
   31.1669   12.8020   22.2937 C   0  0  0  0  0  0  0  0  0  0  0  0
   31.4336   12.5664   20.7944 C   0  0  0  0  0  0  0  0  0  0  0  0
   22.5963   14.1116   31.3141 C   0  0  0  0  0  0  0  0  0  0  0  0
   24.2819    6.6210   30.9091 C   0  0  0  0  0  0  0  0  0  0  0  0
   34.7062   19.5247   19.2924 C   0  0  0  0  0  0  0  0  0  0  0  0
   35.7301   18.7993   18.6867 C   0  0  0  0  0  0  0  0  0  0  0  0
   23.1062    6.4154   31.6307 C   0  0  0  0  0  0  0  0  0  0  0  0
   20.7769   11.6215   30.5125 H   0  0  0  0  0  0  0  0  0  0  0  0
   34.5496   13.7419   21.2545 H   0  0  0  0  0  0  0  0  0  0  0  0
   29.8322   16.9813   23.7859 H   0  0  0  0  0  0  0  0  0  0  0  0
   24.4073   13.9827   27.3794 H   0  0  0  0  0  0  0  0  0  0  0  0
   30.3860   14.0666   24.7487 H   0  0  0  0  0  0  0  0  0  0  0  0
   26.8016   12.1136   27.3423 H   0  0  0  0  0  0  0  0  0  0  0  0
   26.1907   14.9501   26.1310 H   0  0  0  0  0  0  0  0  0  0  0  0
   28.6087   13.0761   26.0418 H   0  0  0  0  0  0  0  0  0  0  0  0
   27.9963   15.9299   24.8283 H   0  0  0  0  0  0  0  0  0  0  0  0
   22.2712   13.8483   27.8394 H   0  0  0  0  0  0  0  0  0  0  0  0
   21.1952   13.2409   29.0808 H   0  0  0  0  0  0  0  0  0  0  0  0
   36.0142   14.8848   19.6971 H   0  0  0  0  0  0  0  0  0  0  0  0
   20.4458    9.4894   31.6656 H   0  0  0  0  0  0  0  0  0  0  0  0
   33.2589   13.0328   22.7994 H   0  0  0  0  0  0  0  0  0  0  0  0
   32.2437   13.4767   24.1029 H   0  0  0  0  0  0  0  0  0  0  0  0
   31.4296   18.6930   23.8478 H   0  0  0  0  0  0  0  0  0  0  0  0
   33.1076   18.0438   23.8882 H   0  0  0  0  0  0  0  0  0  0  0  0
   32.6591   19.3494   22.7431 H   0  0  0  0  0  0  0  0  0  0  0  0
   29.8900   18.1077   21.8018 H   0  0  0  0  0  0  0  0  0  0  0  0
   30.5052   16.9824   20.5417 H   0  0  0  0  0  0  0  0  0  0  0  0
   31.0892   18.6712   20.6212 H   0  0  0  0  0  0  0  0  0  0  0  0
   25.3602    8.7919   27.6901 H   0  0  0  0  0  0  0  0  0  0  0  0
   25.6487   10.2766   26.7586 H   0  0  0  0  0  0  0  0  0  0  0  0
   23.9729    9.6878   26.9842 H   0  0  0  0  0  0  0  0  0  0  0  0
   26.1969    9.9657   30.3739 H   0  0  0  0  0  0  0  0  0  0  0  0
   27.0244   10.6198   28.9436 H   0  0  0  0  0  0  0  0  0  0  0  0
   26.1988   11.7246   30.1078 H   0  0  0  0  0  0  0  0  0  0  0  0
   31.1889   14.6725   20.2600 H   0  0  0  0  0  0  0  0  0  0  0  0
   29.7407   13.6548   19.9673 H   0  0  0  0  0  0  0  0  0  0  0  0
   22.4608   16.1422   32.0882 H   0  0  0  0  0  0  0  0  0  0  0  0
   24.1296   15.4520   32.0802 H   0  0  0  0  0  0  0  0  0  0  0  0
   33.0755   19.5213   20.6337 H   0  0  0  0  0  0  0  0  0  0  0  0
   25.4287    7.9442   29.7090 H   0  0  0  0  0  0  0  0  0  0  0  0
   21.2312    7.2395   32.2608 H   0  0  0  0  0  0  0  0  0  0  0  0
   36.6993   16.9001   18.5006 H   0  0  0  0  0  0  0  0  0  0  0  0
   23.8421   14.7440   29.6479 H   0  0  0  0  0  0  0  0  0  0  0  0
   22.1968   15.4645   29.6650 H   0  0  0  0  0  0  0  0  0  0  0  0
   30.1959   13.3199   22.4323 H   0  0  0  0  0  0  0  0  0  0  0  0
   31.0727   11.8103   22.7870 H   0  0  0  0  0  0  0  0  0  0  0  0
   32.5225   12.4546   20.6060 H   0  0  0  0  0  0  0  0  0  0  0  0
   30.9532   11.6088   20.4978 H   0  0  0  0  0  0  0  0  0  0  0  0
   23.1963   13.1978   31.5133 H   0  0  0  0  0  0  0  0  0  0  0  0
   21.5251   13.8857   31.5083 H   0  0  0  0  0  0  0  0  0  0  0  0
   25.0323    5.8419   30.8704 H   0  0  0  0  0  0  0  0  0  0  0  0
   34.5826   20.5747   19.0599 H   0  0  0  0  0  0  0  0  0  0  0  0
   36.3985   19.2874   17.9890 H   0  0  0  0  0  0  0  0  0  0  0  0
   22.9468    5.4775   32.1461 H   0  0  0  0  0  0  0  0  0  0  0  0
  2  1  1  0
  3  5  1  0
  4  5  1  0
  5 19  2  0
  6  1  2  0
  7  6  1  0
  8  2  2  0
  9  4  1  0
 10  3  1  0
 11 40  1  0
 12 41  1  0
 13  8  1  0
 14  9  2  0
 15  2  1  0
 16 10  2  0
 17 11  1  0
 18 12  1  0
 19 25  1  0
 20  6  1  0
 21 11  2  0
 22 11  2  0
 23 12  2  0
 24 12  2  0
 25 29  2  0
 26 20  2  0
 27 26  1  0
 28 27  2  0
 29 28  1  0
 30  1  1  0
 31 14  1  0
 32 34  1  0
 33 16  1  0
 34 15  2  0
 35  3  1  0
 36  4  1  0
 37  4  1  0
 38  7  1  0
 39  7  1  0
 40 48  1  0
 41 49  1  0
 42 14  1  0
 43 13  2  0
 44 32  2  0
 45 31  1  0
 46 30  1  0
 47 35  1  0
 48 47  1  0
 49 46  1  0
 50 43  1  0
 51 42  2  0
 52 51  1  0
 53 44  1  0
  7  8  1  0
 13 32  1  0
 53 50  2  0
 10  9  1  0
 31 33  2  0
 52 45  2  0
 15 54  1  0
 16 55  1  0
 19 56  1  0
 20 57  1  0
 25 58  1  0
 26 59  1  0
 27 60  1  0
 28 61  1  0
 29 62  1  0
 30 63  1  0
 30 64  1  0
 33 65  1  0
 34 66  1  0
 35 67  1  0
 35 68  1  0
 36 69  1  0
 36 70  1  0
 36 71  1  0
 37 72  1  0
 37 73  1  0
 37 74  1  0
 38 75  1  0
 38 76  1  0
 38 77  1  0
 39 78  1  0
 39 79  1  0
 39 80  1  0
 40 81  1  0
 40 82  1  0
 41 83  1  0
 41 84  1  0
 42 85  1  0
 43 86  1  0
 44 87  1  0
 45 88  1  0
 46 89  1  0
 46 90  1  0
 47 91  1  0
 47 92  1  0
 48 93  1  0
 48 94  1  0
 49 95  1  0
 49 96  1  0
 50 97  1  0
 51 98  1  0
 52 99  1  0
 53100  1  0
M  CHG  3   1   1  17  -1  18  -1
M  END
> <Uni-Dock RESULT> 
ENERGY=   -3.620  LOWER_BOUND=    5.839  UPPER_BOUND=   15.464
INTER + INTRA:          -3.620
INTER:                  -3.620
INTRA:                   0.000
UNBOUND:                 0.000

$$$$

     RDKit          3D

100105  0  0  0  0  0  0  0  0999 V2000
   32.8915    9.4560   27.5278 N   0  0  0  0  0  0  0  0  0  0  0  0
   33.2396   10.6730   26.8756 C   0  0  0  0  0  0  0  0  0  0  0  0
   23.3245    5.9196   33.0496 N   0  0  0  0  0  0  0  0  0  0  0  0
   24.1400    3.8126   33.9928 C   0  0  0  0  0  0  0  0  0  0  0  0
   24.4922    5.0848   33.2240 C   0  0  0  0  0  0  0  0  0  0  0  0
   31.6829    9.5799   28.0162 C   0  0  0  0  0  0  0  0  0  0  0  0
   31.0685   10.9513   27.6988 C   0  0  0  0  0  0  0  0  0  0  0  0
   32.2150   11.5884   26.9407 C   0  0  0  0  0  0  0  0  0  0  0  0
   22.6511    4.0043   34.2260 C   0  0  0  0  0  0  0  0  0  0  0  0
   22.2483    5.2103   33.6699 C   0  0  0  0  0  0  0  0  0  0  0  0
   20.6190    3.9508   29.6896 S   0  0  0  0  0  0  0  0  0  0  0  0
   37.1697   10.7467   30.8926 S   0  0  0  0  0  0  0  0  0  0  0  0
   32.3480   12.8669   26.3443 C   0  0  0  0  0  0  0  0  0  0  0  0
   21.7053    3.1567   34.8664 C   0  0  0  0  0  0  0  0  0  0  0  0
   34.4507   10.9706   26.2404 C   0  0  0  0  0  0  0  0  0  0  0  0
   20.9061    5.6142   33.7084 C   0  0  0  0  0  0  0  0  0  0  0  0
   20.8830    2.2982   29.5463 O   0  0  0  0  0  0  0  0  0  0  0  0
   37.8905   10.6169   32.4038 O   0  0  0  0  0  0  0  0  0  0  0  0
   25.7574    5.3031   32.7777 C   0  0  0  0  0  0  0  0  0  0  0  0
   31.0182    8.4828   28.7890 C   0  0  0  0  0  0  0  0  0  0  0  0
   19.5850    4.1960   30.7523 O   0  0  0  0  0  0  0  0  0  0  0  0
   20.1265    4.4917   28.3769 O   0  0  0  0  0  0  0  0  0  0  0  0
   38.2362   10.7506   29.8343 O   0  0  0  0  0  0  0  0  0  0  0  0
   36.3922   12.0306   30.8229 O   0  0  0  0  0  0  0  0  0  0  0  0
   26.3032    6.4662   32.0470 C   0  0  0  0  0  0  0  0  0  0  0  0
   29.8362    8.5899   29.4059 C   0  0  0  0  0  0  0  0  0  0  0  0
   29.2627    7.4462   30.1375 C   0  0  0  0  0  0  0  0  0  0  0  0
   28.0728    7.5368   30.7357 C   0  0  0  0  0  0  0  0  0  0  0  0
   27.5004    6.3875   31.4578 C   0  0  0  0  0  0  0  0  0  0  0  0
   33.7847    8.2921   27.6739 C   0  0  0  0  0  0  0  0  0  0  0  0
   20.3435    3.5741   34.9039 C   0  0  0  0  0  0  0  0  0  0  0  0
   33.5729   13.1742   25.6855 C   0  0  0  0  0  0  0  0  0  0  0  0
   19.9614    4.7942   34.3237 C   0  0  0  0  0  0  0  0  0  0  0  0
   34.6114   12.2242   25.6439 C   0  0  0  0  0  0  0  0  0  0  0  0
   23.1723    7.1824   32.3120 C   0  0  0  0  0  0  0  0  0  0  0  0
   24.9207    3.7822   35.3241 C   0  0  0  0  0  0  0  0  0  0  0  0
   24.4178    2.5717   33.1142 C   0  0  0  0  0  0  0  0  0  0  0  0
   29.8430   10.7849   26.7751 C   0  0  0  0  0  0  0  0  0  0  0  0
   30.7621   11.7432   28.9942 C   0  0  0  0  0  0  0  0  0  0  0  0
   22.1476    4.7503   30.1418 C   0  0  0  0  0  0  0  0  0  0  0  0
   36.0746    9.3597   30.6441 C   0  0  0  0  0  0  0  0  0  0  0  0
   22.0450    1.9256   35.4658 C   0  0  0  0  0  0  0  0  0  0  0  0
   31.3308   13.8412   26.3757 C   0  0  0  0  0  0  0  0  0  0  0  0
   33.7460   14.4284   25.0800 C   0  0  0  0  0  0  0  0  0  0  0  0
   19.3750    2.7660   35.5199 C   0  0  0  0  0  0  0  0  0  0  0  0
   34.4424    8.2599   29.0616 C   0  0  0  0  0  0  0  0  0  0  0  0
   23.2200    6.9769   30.7861 C   0  0  0  0  0  0  0  0  0  0  0  0
   21.9697    6.2708   30.2270 C   0  0  0  0  0  0  0  0  0  0  0  0
   35.3926    9.4446   29.2773 C   0  0  0  0  0  0  0  0  0  0  0  0
   31.5214   15.0840   25.7665 C   0  0  0  0  0  0  0  0  0  0  0  0
   21.0670    1.1351   36.0744 C   0  0  0  0  0  0  0  0  0  0  0  0
   19.7378    1.5525   36.1013 C   0  0  0  0  0  0  0  0  0  0  0  0
   32.7225   15.3761   25.1206 C   0  0  0  0  0  0  0  0  0  0  0  0
   35.2645   10.2623   26.2002 H   0  0  0  0  0  0  0  0  0  0  0  0
   20.5661    6.5388   33.2701 H   0  0  0  0  0  0  0  0  0  0  0  0
   26.4840    4.5264   32.9807 H   0  0  0  0  0  0  0  0  0  0  0  0
   31.5253    7.5323   28.8716 H   0  0  0  0  0  0  0  0  0  0  0  0
   25.7886    7.4024   31.9934 H   0  0  0  0  0  0  0  0  0  0  0  0
   29.2740    9.5066   29.3834 H   0  0  0  0  0  0  0  0  0  0  0  0
   29.8175    6.5150   30.1845 H   0  0  0  0  0  0  0  0  0  0  0  0
   27.5142    8.4663   30.6888 H   0  0  0  0  0  0  0  0  0  0  0  0
   28.0629    5.4604   31.4983 H   0  0  0  0  0  0  0  0  0  0  0  0
   33.2225    7.3510   27.5008 H   0  0  0  0  0  0  0  0  0  0  0  0
   34.5685    8.2908   26.8902 H   0  0  0  0  0  0  0  0  0  0  0  0
   18.9258    5.1134   34.3447 H   0  0  0  0  0  0  0  0  0  0  0  0
   35.5483   12.4535   25.1500 H   0  0  0  0  0  0  0  0  0  0  0  0
   22.2240    7.6873   32.5718 H   0  0  0  0  0  0  0  0  0  0  0  0
   23.9167    7.9183   32.6613 H   0  0  0  0  0  0  0  0  0  0  0  0
   26.0148    3.7474   35.1390 H   0  0  0  0  0  0  0  0  0  0  0  0
   24.6988    4.6927   35.9224 H   0  0  0  0  0  0  0  0  0  0  0  0
   24.6723    2.8994   35.9399 H   0  0  0  0  0  0  0  0  0  0  0  0
   25.5019    2.4677   32.9032 H   0  0  0  0  0  0  0  0  0  0  0  0
   23.8824    2.6528   32.1447 H   0  0  0  0  0  0  0  0  0  0  0  0
   24.0989    1.6311   33.5968 H   0  0  0  0  0  0  0  0  0  0  0  0
   29.3791   11.7569   26.5272 H   0  0  0  0  0  0  0  0  0  0  0  0
   29.0573   10.1651   27.2470 H   0  0  0  0  0  0  0  0  0  0  0  0
   30.1399   10.2888   25.8263 H   0  0  0  0  0  0  0  0  0  0  0  0
   30.9812   12.8247   28.8880 H   0  0  0  0  0  0  0  0  0  0  0  0
   29.6927   11.6651   29.2796 H   0  0  0  0  0  0  0  0  0  0  0  0
   31.3834   11.3780   29.8422 H   0  0  0  0  0  0  0  0  0  0  0  0
   22.4745    4.3362   31.1123 H   0  0  0  0  0  0  0  0  0  0  0  0
   22.9193    4.5045   29.3824 H   0  0  0  0  0  0  0  0  0  0  0  0
   36.6659    8.4219   30.7174 H   0  0  0  0  0  0  0  0  0  0  0  0
   35.3106    9.3639   31.4503 H   0  0  0  0  0  0  0  0  0  0  0  0
   23.0513    1.5510   35.4848 H   0  0  0  0  0  0  0  0  0  0  0  0
   30.3911   13.6687   26.8736 H   0  0  0  0  0  0  0  0  0  0  0  0
   34.6728   14.6753   24.5756 H   0  0  0  0  0  0  0  0  0  0  0  0
   18.3367    3.0741   35.5516 H   0  0  0  0  0  0  0  0  0  0  0  0
   33.6592    8.2632   29.8498 H   0  0  0  0  0  0  0  0  0  0  0  0
   35.0148    7.3111   29.1551 H   0  0  0  0  0  0  0  0  0  0  0  0
   24.1357    6.4290   30.4835 H   0  0  0  0  0  0  0  0  0  0  0  0
   23.2833    7.9848   30.3216 H   0  0  0  0  0  0  0  0  0  0  0  0
   21.0755    6.5234   30.8356 H   0  0  0  0  0  0  0  0  0  0  0  0
   21.7807    6.6511   29.1997 H   0  0  0  0  0  0  0  0  0  0  0  0
   34.8198   10.3951   29.2209 H   0  0  0  0  0  0  0  0  0  0  0  0
   36.1673    9.4458   28.4798 H   0  0  0  0  0  0  0  0  0  0  0  0
   30.7342   15.8261   25.7996 H   0  0  0  0  0  0  0  0  0  0  0  0
   21.3422    0.1916   36.5283 H   0  0  0  0  0  0  0  0  0  0  0  0
   18.9870    0.9346   36.5767 H   0  0  0  0  0  0  0  0  0  0  0  0
   32.8620   16.3416   24.6523 H   0  0  0  0  0  0  0  0  0  0  0  0
  2  1  1  0
  3  5  1  0
  4  5  1  0
  5 19  2  0
  6  1  2  0
  7  6  1  0
  8  2  2  0
  9  4  1  0
 10  3  1  0
 11 40  1  0
 12 41  1  0
 13  8  1  0
 14  9  2  0
 15  2  1  0
 16 10  2  0
 17 11  1  0
 18 12  1  0
 19 25  1  0
 20  6  1  0
 21 11  2  0
 22 11  2  0
 23 12  2  0
 24 12  2  0
 25 29  2  0
 26 20  2  0
 27 26  1  0
 28 27  2  0
 29 28  1  0
 30  1  1  0
 31 14  1  0
 32 34  1  0
 33 16  1  0
 34 15  2  0
 35  3  1  0
 36  4  1  0
 37  4  1  0
 38  7  1  0
 39  7  1  0
 40 48  1  0
 41 49  1  0
 42 14  1  0
 43 13  2  0
 44 32  2  0
 45 31  1  0
 46 30  1  0
 47 35  1  0
 48 47  1  0
 49 46  1  0
 50 43  1  0
 51 42  2  0
 52 51  1  0
 53 44  1  0
  7  8  1  0
 13 32  1  0
 53 50  2  0
 10  9  1  0
 31 33  2  0
 52 45  2  0
 15 54  1  0
 16 55  1  0
 19 56  1  0
 20 57  1  0
 25 58  1  0
 26 59  1  0
 27 60  1  0
 28 61  1  0
 29 62  1  0
 30 63  1  0
 30 64  1  0
 33 65  1  0
 34 66  1  0
 35 67  1  0
 35 68  1  0
 36 69  1  0
 36 70  1  0
 36 71  1  0
 37 72  1  0
 37 73  1  0
 37 74  1  0
 38 75  1  0
 38 76  1  0
 38 77  1  0
 39 78  1  0
 39 79  1  0
 39 80  1  0
 40 81  1  0
 40 82  1  0
 41 83  1  0
 41 84  1  0
 42 85  1  0
 43 86  1  0
 44 87  1  0
 45 88  1  0
 46 89  1  0
 46 90  1  0
 47 91  1  0
 47 92  1  0
 48 93  1  0
 48 94  1  0
 49 95  1  0
 49 96  1  0
 50 97  1  0
 51 98  1  0
 52 99  1  0
 53100  1  0
M  CHG  3   1   1  17  -1  18  -1
M  END
> <Uni-Dock RESULT> 
ENERGY=   -3.501  LOWER_BOUND=    6.081  UPPER_BOUND=    8.115
INTER + INTRA:          -3.501
INTER:                  -3.501
INTRA:                   0.000
UNBOUND:                 0.000

$$$$

     RDKit          3D

100105  0  0  0  0  0  0  0  0999 V2000
   31.6307    8.8321   28.0696 N   0  0  0  0  0  0  0  0  0  0  0  0
   32.9035    8.8457   28.7078 C   0  0  0  0  0  0  0  0  0  0  0  0
   25.6488   16.8665   22.2226 N   0  0  0  0  0  0  0  0  0  0  0  0
   23.5117   15.6984   21.9730 C   0  0  0  0  0  0  0  0  0  0  0  0
   24.9082   15.6808   22.5918 C   0  0  0  0  0  0  0  0  0  0  0  0
   31.4077   10.0204   27.5668 C   0  0  0  0  0  0  0  0  0  0  0  0
   32.5802   10.9816   27.8120 C   0  0  0  0  0  0  0  0  0  0  0  0
   33.5098   10.0751   28.5924 C   0  0  0  0  0  0  0  0  0  0  0  0
   23.5395   17.0086   21.2046 C   0  0  0  0  0  0  0  0  0  0  0  0
   24.7716   17.6220   21.3823 C   0  0  0  0  0  0  0  0  0  0  0  0
   27.0167   16.3789   17.7085 S   0  0  0  0  0  0  0  0  0  0  0  0
   29.7318    7.8270   33.2343 S   0  0  0  0  0  0  0  0  0  0  0  0
   34.7923   10.3044   29.1496 C   0  0  0  0  0  0  0  0  0  0  0  0
   22.5493   17.6105   20.3797 C   0  0  0  0  0  0  0  0  0  0  0  0
   33.5141    7.7872   29.3900 C   0  0  0  0  0  0  0  0  0  0  0  0
   25.0776   18.8327   20.7447 C   0  0  0  0  0  0  0  0  0  0  0  0
   26.0233   15.3302   16.8515 O   0  0  0  0  0  0  0  0  0  0  0  0
   28.4740    7.9340   34.3419 O   0  0  0  0  0  0  0  0  0  0  0  0
   25.3220   14.6324   23.3517 C   0  0  0  0  0  0  0  0  0  0  0  0
   30.1394   10.3561   26.8445 C   0  0  0  0  0  0  0  0  0  0  0  0
   26.4331   17.7630   17.6604 O   0  0  0  0  0  0  0  0  0  0  0  0
   28.3843   16.3897   17.0854 O   0  0  0  0  0  0  0  0  0  0  0  0
   30.4744    6.5391   33.4517 O   0  0  0  0  0  0  0  0  0  0  0  0
   30.6691    8.9841   33.4356 O   0  0  0  0  0  0  0  0  0  0  0  0
   26.6081   14.4365   24.0531 C   0  0  0  0  0  0  0  0  0  0  0  0
   29.8074   11.5765   26.4096 C   0  0  0  0  0  0  0  0  0  0  0  0
   28.5348   11.8028   25.7014 C   0  0  0  0  0  0  0  0  0  0  0  0
   28.2064   13.0127   25.2429 C   0  0  0  0  0  0  0  0  0  0  0  0
   26.9371   13.2310   24.5277 C   0  0  0  0  0  0  0  0  0  0  0  0
   30.7090    7.6815   28.0510 C   0  0  0  0  0  0  0  0  0  0  0  0
   22.8660   18.8418   19.7364 C   0  0  0  0  0  0  0  0  0  0  0  0
   35.4263    9.2292   29.8357 C   0  0  0  0  0  0  0  0  0  0  0  0
   24.1245   19.4352   19.9249 C   0  0  0  0  0  0  0  0  0  0  0  0
   34.7789    7.9841   29.9511 C   0  0  0  0  0  0  0  0  0  0  0  0
   27.0417   17.2352   22.5153 C   0  0  0  0  0  0  0  0  0  0  0  0
   22.4514   15.7238   23.0945 C   0  0  0  0  0  0  0  0  0  0  0  0
   23.3408   14.4912   21.0228 C   0  0  0  0  0  0  0  0  0  0  0  0
   33.2278   11.3848   26.4700 C   0  0  0  0  0  0  0  0  0  0  0  0
   32.1440   12.1915   28.6750 C   0  0  0  0  0  0  0  0  0  0  0  0
   27.1243   15.8301   19.4019 C   0  0  0  0  0  0  0  0  0  0  0  0
   29.0622    7.8687   31.5807 C   0  0  0  0  0  0  0  0  0  0  0  0
   21.2715   17.0526   20.1655 C   0  0  0  0  0  0  0  0  0  0  0  0
   35.4624   11.5404   29.0578 C   0  0  0  0  0  0  0  0  0  0  0  0
   36.6976    9.4129   30.4012 C   0  0  0  0  0  0  0  0  0  0  0  0
   21.9215   19.4680   18.9081 C   0  0  0  0  0  0  0  0  0  0  0  0
   29.6114    7.8241   29.1160 C   0  0  0  0  0  0  0  0  0  0  0  0
   28.0503   16.3890   21.7156 C   0  0  0  0  0  0  0  0  0  0  0  0
   28.0702   16.7248   20.2118 C   0  0  0  0  0  0  0  0  0  0  0  0
   30.1800    7.7791   30.5400 C   0  0  0  0  0  0  0  0  0  0  0  0
   36.7279   11.7039   29.6265 C   0  0  0  0  0  0  0  0  0  0  0  0
   20.3444   17.6908   19.3377 C   0  0  0  0  0  0  0  0  0  0  0  0
   20.6675   18.8927   18.7111 C   0  0  0  0  0  0  0  0  0  0  0  0
   37.3435   10.6452   30.2939 C   0  0  0  0  0  0  0  0  0  0  0  0
   33.0362    6.8252   29.4981 H   0  0  0  0  0  0  0  0  0  0  0  0
   26.0329   19.3207   20.8547 H   0  0  0  0  0  0  0  0  0  0  0  0
   24.6209   13.8165   23.4752 H   0  0  0  0  0  0  0  0  0  0  0  0
   29.4257    9.5650   26.6645 H   0  0  0  0  0  0  0  0  0  0  0  0
   27.2909   15.2398   24.2333 H   0  0  0  0  0  0  0  0  0  0  0  0
   30.4566   12.4207   26.5612 H   0  0  0  0  0  0  0  0  0  0  0  0
   27.8582   10.9688   25.5478 H   0  0  0  0  0  0  0  0  0  0  0  0
   28.8821   13.8487   25.3930 H   0  0  0  0  0  0  0  0  0  0  0  0
   26.2676   12.3901   24.3786 H   0  0  0  0  0  0  0  0  0  0  0  0
   30.2487    7.5728   27.0470 H   0  0  0  0  0  0  0  0  0  0  0  0
   31.2565    6.7301   28.2055 H   0  0  0  0  0  0  0  0  0  0  0  0
   24.3721   20.3688   19.4334 H   0  0  0  0  0  0  0  0  0  0  0  0
   35.2525    7.1635   30.4772 H   0  0  0  0  0  0  0  0  0  0  0  0
   27.2277   18.3035   22.3015 H   0  0  0  0  0  0  0  0  0  0  0  0
   27.2252   17.1928   23.6026 H   0  0  0  0  0  0  0  0  0  0  0  0
   22.5111   14.8049   23.7146 H   0  0  0  0  0  0  0  0  0  0  0  0
   22.6125   16.6012   23.7579 H   0  0  0  0  0  0  0  0  0  0  0  0
   21.4206   15.7775   22.7007 H   0  0  0  0  0  0  0  0  0  0  0  0
   23.3750   13.5349   21.5839 H   0  0  0  0  0  0  0  0  0  0  0  0
   24.1501   14.4760   20.2626 H   0  0  0  0  0  0  0  0  0  0  0  0
   22.3757   14.5078   20.4864 H   0  0  0  0  0  0  0  0  0  0  0  0
   34.0775   12.0766   26.6142 H   0  0  0  0  0  0  0  0  0  0  0  0
   32.5059   11.8968   25.8060 H   0  0  0  0  0  0  0  0  0  0  0  0
   33.5987   10.4844   25.9350 H   0  0  0  0  0  0  0  0  0  0  0  0
   32.9241   12.4922   29.4030 H   0  0  0  0  0  0  0  0  0  0  0  0
   31.9333   13.0852   28.0520 H   0  0  0  0  0  0  0  0  0  0  0  0
   31.2347   11.9510   29.2697 H   0  0  0  0  0  0  0  0  0  0  0  0
   26.1060   15.8431   19.8295 H   0  0  0  0  0  0  0  0  0  0  0  0
   27.4933   14.7831   19.4169 H   0  0  0  0  0  0  0  0  0  0  0  0
   28.3596    7.0166   31.4597 H   0  0  0  0  0  0  0  0  0  0  0  0
   28.4988    8.8172   31.4515 H   0  0  0  0  0  0  0  0  0  0  0  0
   20.9588   16.1331   20.6239 H   0  0  0  0  0  0  0  0  0  0  0  0
   35.0232   12.3918   28.5649 H   0  0  0  0  0  0  0  0  0  0  0  0
   37.1912    8.6033   30.9259 H   0  0  0  0  0  0  0  0  0  0  0  0
   22.1539   20.4035   18.4131 H   0  0  0  0  0  0  0  0  0  0  0  0
   29.0619    8.7780   28.9652 H   0  0  0  0  0  0  0  0  0  0  0  0
   28.8873    6.9903   28.9855 H   0  0  0  0  0  0  0  0  0  0  0  0
   27.8698   15.3046   21.8626 H   0  0  0  0  0  0  0  0  0  0  0  0
   29.0592   16.6035   22.1299 H   0  0  0  0  0  0  0  0  0  0  0  0
   27.8253   17.7959   20.0492 H   0  0  0  0  0  0  0  0  0  0  0  0
   29.1019   16.5663   19.8295 H   0  0  0  0  0  0  0  0  0  0  0  0
   30.8774    8.6312   30.6885 H   0  0  0  0  0  0  0  0  0  0  0  0
   30.7400    6.8293   30.6835 H   0  0  0  0  0  0  0  0  0  0  0  0
   37.2320   12.6589   29.5526 H   0  0  0  0  0  0  0  0  0  0  0  0
   19.3685   17.2495   19.1809 H   0  0  0  0  0  0  0  0  0  0  0  0
   19.9424   19.3813   18.0730 H   0  0  0  0  0  0  0  0  0  0  0  0
   38.3233   10.7809   30.7324 H   0  0  0  0  0  0  0  0  0  0  0  0
  2  1  1  0
  3  5  1  0
  4  5  1  0
  5 19  2  0
  6  1  2  0
  7  6  1  0
  8  2  2  0
  9  4  1  0
 10  3  1  0
 11 40  1  0
 12 41  1  0
 13  8  1  0
 14  9  2  0
 15  2  1  0
 16 10  2  0
 17 11  1  0
 18 12  1  0
 19 25  1  0
 20  6  1  0
 21 11  2  0
 22 11  2  0
 23 12  2  0
 24 12  2  0
 25 29  2  0
 26 20  2  0
 27 26  1  0
 28 27  2  0
 29 28  1  0
 30  1  1  0
 31 14  1  0
 32 34  1  0
 33 16  1  0
 34 15  2  0
 35  3  1  0
 36  4  1  0
 37  4  1  0
 38  7  1  0
 39  7  1  0
 40 48  1  0
 41 49  1  0
 42 14  1  0
 43 13  2  0
 44 32  2  0
 45 31  1  0
 46 30  1  0
 47 35  1  0
 48 47  1  0
 49 46  1  0
 50 43  1  0
 51 42  2  0
 52 51  1  0
 53 44  1  0
  7  8  1  0
 13 32  1  0
 53 50  2  0
 10  9  1  0
 31 33  2  0
 52 45  2  0
 15 54  1  0
 16 55  1  0
 19 56  1  0
 20 57  1  0
 25 58  1  0
 26 59  1  0
 27 60  1  0
 28 61  1  0
 29 62  1  0
 30 63  1  0
 30 64  1  0
 33 65  1  0
 34 66  1  0
 35 67  1  0
 35 68  1  0
 36 69  1  0
 36 70  1  0
 36 71  1  0
 37 72  1  0
 37 73  1  0
 37 74  1  0
 38 75  1  0
 38 76  1  0
 38 77  1  0
 39 78  1  0
 39 79  1  0
 39 80  1  0
 40 81  1  0
 40 82  1  0
 41 83  1  0
 41 84  1  0
 42 85  1  0
 43 86  1  0
 44 87  1  0
 45 88  1  0
 46 89  1  0
 46 90  1  0
 47 91  1  0
 47 92  1  0
 48 93  1  0
 48 94  1  0
 49 95  1  0
 49 96  1  0
 50 97  1  0
 51 98  1  0
 52 99  1  0
 53100  1  0
M  CHG  3   1   1  17  -1  18  -1
M  END
> <Uni-Dock RESULT> 
ENERGY=   -3.470  LOWER_BOUND=    5.394  UPPER_BOUND=   14.824
INTER + INTRA:          -3.470
INTER:                  -3.470
INTRA:                   0.000
UNBOUND:                 0.000

$$$$

     RDKit          3D

100105  0  0  0  0  0  0  0  0999 V2000
   29.6547    4.2455   33.1344 N   0  0  0  0  0  0  0  0  0  0  0  0
   28.8127    3.1484   33.4732 C   0  0  0  0  0  0  0  0  0  0  0  0
   29.0639   12.3993   24.9071 N   0  0  0  0  0  0  0  0  0  0  0  0
   31.2650   13.4348   25.1847 C   0  0  0  0  0  0  0  0  0  0  0  0
   30.3275   12.3037   25.6034 C   0  0  0  0  0  0  0  0  0  0  0  0
   29.1431    4.8532   32.0934 C   0  0  0  0  0  0  0  0  0  0  0  0
   27.8315    4.2020   31.6303 C   0  0  0  0  0  0  0  0  0  0  0  0
   27.7285    3.0687   32.6304 C   0  0  0  0  0  0  0  0  0  0  0  0
   30.4004   14.1894   24.1893 C   0  0  0  0  0  0  0  0  0  0  0  0
   29.1695   13.5587   24.0757 C   0  0  0  0  0  0  0  0  0  0  0  0
   26.5926   15.9440   26.8601 S   0  0  0  0  0  0  0  0  0  0  0  0
   33.4478    0.2484   32.1720 S   0  0  0  0  0  0  0  0  0  0  0  0
   26.7555    2.0522   32.7973 C   0  0  0  0  0  0  0  0  0  0  0  0
   30.6726   15.3729   23.4487 C   0  0  0  0  0  0  0  0  0  0  0  0
   29.0074    2.2264   34.5080 C   0  0  0  0  0  0  0  0  0  0  0  0
   28.1629   14.0764   23.2482 C   0  0  0  0  0  0  0  0  0  0  0  0
   27.5840   17.0771   27.6048 O   0  0  0  0  0  0  0  0  0  0  0  0
   34.8244   -0.2487   31.3485 O   0  0  0  0  0  0  0  0  0  0  0  0
   30.7077   11.3910   26.5362 C   0  0  0  0  0  0  0  0  0  0  0  0
   29.7985    6.0424   31.4617 C   0  0  0  0  0  0  0  0  0  0  0  0
   26.4501   16.2919   25.4051 O   0  0  0  0  0  0  0  0  0  0  0  0
   25.2397   15.9601   27.5142 O   0  0  0  0  0  0  0  0  0  0  0  0
   33.4744   -0.3137   33.5650 O   0  0  0  0  0  0  0  0  0  0  0  0
   32.2298   -0.2578   31.4522 O   0  0  0  0  0  0  0  0  0  0  0  0
   29.9688   10.2205   27.0541 C   0  0  0  0  0  0  0  0  0  0  0  0
   29.3864    6.6338   30.3350 C   0  0  0  0  0  0  0  0  0  0  0  0
   30.0985    7.8064   29.7967 C   0  0  0  0  0  0  0  0  0  0  0  0
   29.6799    8.4174   28.6860 C   0  0  0  0  0  0  0  0  0  0  0  0
   30.3903    9.5948   28.1575 C   0  0  0  0  0  0  0  0  0  0  0  0
   30.9197    4.5791   33.8144 C   0  0  0  0  0  0  0  0  0  0  0  0
   29.6461   15.8925   22.6081 C   0  0  0  0  0  0  0  0  0  0  0  0
   26.9396    1.1164   33.8552 C   0  0  0  0  0  0  0  0  0  0  0  0
   28.4060   15.2402   22.5202 C   0  0  0  0  0  0  0  0  0  0  0  0
   28.0648    1.2119   34.6963 C   0  0  0  0  0  0  0  0  0  0  0  0
   27.8471   11.5865   25.0496 C   0  0  0  0  0  0  0  0  0  0  0  0
   32.5186   12.8410   24.5075 C   0  0  0  0  0  0  0  0  0  0  0  0
   31.6121   14.3124   26.4089 C   0  0  0  0  0  0  0  0  0  0  0  0
   26.6555    5.1851   31.8125 C   0  0  0  0  0  0  0  0  0  0  0  0
   27.9567    3.6497   30.1887 C   0  0  0  0  0  0  0  0  0  0  0  0
   27.3274   14.3272   27.0227 C   0  0  0  0  0  0  0  0  0  0  0  0
   33.4161    2.0315   32.2386 C   0  0  0  0  0  0  0  0  0  0  0  0
   31.9045   16.0582   23.5030 C   0  0  0  0  0  0  0  0  0  0  0  0
   25.6236    1.9255   31.9679 C   0  0  0  0  0  0  0  0  0  0  0  0
   25.9989    0.0946   34.0569 C   0  0  0  0  0  0  0  0  0  0  0  0
   29.8686   17.0618   21.8640 C   0  0  0  0  0  0  0  0  0  0  0  0
   32.1331    4.0577   33.0301 C   0  0  0  0  0  0  0  0  0  0  0  0
   27.1087   11.8671   26.3721 C   0  0  0  0  0  0  0  0  0  0  0  0
   26.4273   13.2488   26.4081 C   0  0  0  0  0  0  0  0  0  0  0  0
   32.1710    2.5250   32.9778 C   0  0  0  0  0  0  0  0  0  0  0  0
   24.6977    0.9021   32.1848 C   0  0  0  0  0  0  0  0  0  0  0  0
   32.1072   17.2206   22.7548 C   0  0  0  0  0  0  0  0  0  0  0  0
   31.0943   17.7209   21.9393 C   0  0  0  0  0  0  0  0  0  0  0  0
   24.8833   -0.0084   33.2249 C   0  0  0  0  0  0  0  0  0  0  0  0
   29.8648    2.2739   35.1623 H   0  0  0  0  0  0  0  0  0  0  0  0
   27.1936   13.6133   23.1551 H   0  0  0  0  0  0  0  0  0  0  0  0
   31.6911   11.5219   26.9701 H   0  0  0  0  0  0  0  0  0  0  0  0
   30.6770    6.4568   31.9350 H   0  0  0  0  0  0  0  0  0  0  0  0
   29.1104    9.8190   26.5579 H   0  0  0  0  0  0  0  0  0  0  0  0
   28.5282    6.2740   29.7956 H   0  0  0  0  0  0  0  0  0  0  0  0
   30.9743    8.1797   30.3169 H   0  0  0  0  0  0  0  0  0  0  0  0
   28.8028    8.0480   28.1643 H   0  0  0  0  0  0  0  0  0  0  0  0
   31.2648    9.9606   28.6857 H   0  0  0  0  0  0  0  0  0  0  0  0
   31.0041    5.6768   33.9542 H   0  0  0  0  0  0  0  0  0  0  0  0
   30.9382    4.1698   34.8444 H   0  0  0  0  0  0  0  0  0  0  0  0
   27.6201   15.6347   21.8865 H   0  0  0  0  0  0  0  0  0  0  0  0
   28.2146    0.4996   35.4991 H   0  0  0  0  0  0  0  0  0  0  0  0
   27.1485   11.7588   24.2106 H   0  0  0  0  0  0  0  0  0  0  0  0
   28.0874   10.5173   24.9202 H   0  0  0  0  0  0  0  0  0  0  0  0
   33.0872   12.2055   25.2183 H   0  0  0  0  0  0  0  0  0  0  0  0
   32.2263   12.2130   23.6379 H   0  0  0  0  0  0  0  0  0  0  0  0
   33.2143   13.6203   24.1481 H   0  0  0  0  0  0  0  0  0  0  0  0
   32.1981   13.7393   27.1564 H   0  0  0  0  0  0  0  0  0  0  0  0
   30.6864   14.6784   26.9010 H   0  0  0  0  0  0  0  0  0  0  0  0
   32.2206   15.1935   26.1394 H   0  0  0  0  0  0  0  0  0  0  0  0
   25.6956    4.7436   31.4885 H   0  0  0  0  0  0  0  0  0  0  0  0
   26.8001    6.1087   31.2207 H   0  0  0  0  0  0  0  0  0  0  0  0
   26.5608    5.4794   32.8797 H   0  0  0  0  0  0  0  0  0  0  0  0
   27.4276    2.6841   30.0605 H   0  0  0  0  0  0  0  0  0  0  0  0
   27.5233    4.3477   29.4429 H   0  0  0  0  0  0  0  0  0  0  0  0
   29.0212    3.4628   29.9234 H   0  0  0  0  0  0  0  0  0  0  0  0
   28.3131   14.3494   26.5247 H   0  0  0  0  0  0  0  0  0  0  0  0
   27.4881   14.1129   28.1001 H   0  0  0  0  0  0  0  0  0  0  0  0
   34.3327    2.3845   32.7579 H   0  0  0  0  0  0  0  0  0  0  0  0
   33.4209    2.4240   31.1995 H   0  0  0  0  0  0  0  0  0  0  0  0
   32.7265   15.7210   24.1061 H   0  0  0  0  0  0  0  0  0  0  0  0
   25.4431    2.5950   31.1434 H   0  0  0  0  0  0  0  0  0  0  0  0
   26.1268   -0.6240   34.8579 H   0  0  0  0  0  0  0  0  0  0  0  0
   29.0935   17.4656   21.2236 H   0  0  0  0  0  0  0  0  0  0  0  0
   32.1166    4.4646   31.9963 H   0  0  0  0  0  0  0  0  0  0  0  0
   33.0561    4.4290   33.5268 H   0  0  0  0  0  0  0  0  0  0  0  0
   27.7869   11.7527   27.2423 H   0  0  0  0  0  0  0  0  0  0  0  0
   26.3200   11.0910   26.4781 H   0  0  0  0  0  0  0  0  0  0  0  0
   26.1024   13.5489   25.3893 H   0  0  0  0  0  0  0  0  0  0  0  0
   25.5102   13.1726   27.0317 H   0  0  0  0  0  0  0  0  0  0  0  0
   31.2682    2.1490   32.4504 H   0  0  0  0  0  0  0  0  0  0  0  0
   32.1746    2.1208   34.0136 H   0  0  0  0  0  0  0  0  0  0  0  0
   23.8334    0.8124   31.5394 H   0  0  0  0  0  0  0  0  0  0  0  0
   33.0571   17.7370   22.8084 H   0  0  0  0  0  0  0  0  0  0  0  0
   31.2608   18.6210   21.3615 H   0  0  0  0  0  0  0  0  0  0  0  0
   24.1617   -0.7987   33.3850 H   0  0  0  0  0  0  0  0  0  0  0  0
  2  1  1  0
  3  5  1  0
  4  5  1  0
  5 19  2  0
  6  1  2  0
  7  6  1  0
  8  2  2  0
  9  4  1  0
 10  3  1  0
 11 40  1  0
 12 41  1  0
 13  8  1  0
 14  9  2  0
 15  2  1  0
 16 10  2  0
 17 11  1  0
 18 12  1  0
 19 25  1  0
 20  6  1  0
 21 11  2  0
 22 11  2  0
 23 12  2  0
 24 12  2  0
 25 29  2  0
 26 20  2  0
 27 26  1  0
 28 27  2  0
 29 28  1  0
 30  1  1  0
 31 14  1  0
 32 34  1  0
 33 16  1  0
 34 15  2  0
 35  3  1  0
 36  4  1  0
 37  4  1  0
 38  7  1  0
 39  7  1  0
 40 48  1  0
 41 49  1  0
 42 14  1  0
 43 13  2  0
 44 32  2  0
 45 31  1  0
 46 30  1  0
 47 35  1  0
 48 47  1  0
 49 46  1  0
 50 43  1  0
 51 42  2  0
 52 51  1  0
 53 44  1  0
  7  8  1  0
 13 32  1  0
 53 50  2  0
 10  9  1  0
 31 33  2  0
 52 45  2  0
 15 54  1  0
 16 55  1  0
 19 56  1  0
 20 57  1  0
 25 58  1  0
 26 59  1  0
 27 60  1  0
 28 61  1  0
 29 62  1  0
 30 63  1  0
 30 64  1  0
 33 65  1  0
 34 66  1  0
 35 67  1  0
 35 68  1  0
 36 69  1  0
 36 70  1  0
 36 71  1  0
 37 72  1  0
 37 73  1  0
 37 74  1  0
 38 75  1  0
 38 76  1  0
 38 77  1  0
 39 78  1  0
 39 79  1  0
 39 80  1  0
 40 81  1  0
 40 82  1  0
 41 83  1  0
 41 84  1  0
 42 85  1  0
 43 86  1  0
 44 87  1  0
 45 88  1  0
 46 89  1  0
 46 90  1  0
 47 91  1  0
 47 92  1  0
 48 93  1  0
 48 94  1  0
 49 95  1  0
 49 96  1  0
 50 97  1  0
 51 98  1  0
 52 99  1  0
 53100  1  0
M  CHG  3   1   1  17  -1  18  -1
M  END
> <Uni-Dock RESULT> 
ENERGY=   -3.452  LOWER_BOUND=    3.958  UPPER_BOUND=   14.929
INTER + INTRA:          -3.452
INTER:                  -3.452
INTRA:                   0.000
UNBOUND:                 0.000

$$$$

     RDKit          3D

100105  0  0  0  0  0  0  0  0999 V2000
   24.0829    5.0429   30.9916 N   0  0  0  0  0  0  0  0  0  0  0  0
   24.0767    3.6841   31.4171 C   0  0  0  0  0  0  0  0  0  0  0  0
   32.3998   13.1101   30.4679 N   0  0  0  0  0  0  0  0  0  0  0  0
   31.0460   15.0716   29.9080 C   0  0  0  0  0  0  0  0  0  0  0  0
   31.0485   13.5922   30.2886 C   0  0  0  0  0  0  0  0  0  0  0  0
   25.2898    5.5228   31.1581 C   0  0  0  0  0  0  0  0  0  0  0  0
   26.2592    4.4698   31.7151 C   0  0  0  0  0  0  0  0  0  0  0  0
   25.3204    3.2886   31.8519 C   0  0  0  0  0  0  0  0  0  0  0  0
   32.5339   15.3770   29.8773 C   0  0  0  0  0  0  0  0  0  0  0  0
   33.2471   14.2311   30.2001 C   0  0  0  0  0  0  0  0  0  0  0  0
   34.3430   12.5997   26.1726 S   0  0  0  0  0  0  0  0  0  0  0  0
   20.4400    5.7343   35.1799 S   0  0  0  0  0  0  0  0  0  0  0  0
   25.5395    1.9662   32.3114 C   0  0  0  0  0  0  0  0  0  0  0  0
   33.2173   16.5834   29.5599 C   0  0  0  0  0  0  0  0  0  0  0  0
   22.9831    2.8109   31.4285 C   0  0  0  0  0  0  0  0  0  0  0  0
   34.6493   14.2269   30.2048 C   0  0  0  0  0  0  0  0  0  0  0  0
   33.6171   13.5867   25.0237 O   0  0  0  0  0  0  0  0  0  0  0  0
   19.7535    6.7529   36.3250 O   0  0  0  0  0  0  0  0  0  0  0  0
   29.8855   12.8962   30.3930 C   0  0  0  0  0  0  0  0  0  0  0  0
   25.6367    6.9421   30.8293 C   0  0  0  0  0  0  0  0  0  0  0  0
   35.4326   13.3675   26.8667 O   0  0  0  0  0  0  0  0  0  0  0  0
   34.9328   11.3959   25.4933 O   0  0  0  0  0  0  0  0  0  0  0  0
   19.3900    4.7923   34.6626 O   0  0  0  0  0  0  0  0  0  0  0  0
   21.5477    4.9453   35.8191 O   0  0  0  0  0  0  0  0  0  0  0  0
   29.6726   11.4831   30.7698 C   0  0  0  0  0  0  0  0  0  0  0  0
   26.8168    7.5189   31.0818 C   0  0  0  0  0  0  0  0  0  0  0  0
   27.0619    8.9244   30.7125 C   0  0  0  0  0  0  0  0  0  0  0  0
   28.2445    9.5009   30.9390 C   0  0  0  0  0  0  0  0  0  0  0  0
   28.4866   10.9035   30.5593 C   0  0  0  0  0  0  0  0  0  0  0  0
   22.9005    5.7819   30.5123 C   0  0  0  0  0  0  0  0  0  0  0  0
   34.6421   16.5727   29.5685 C   0  0  0  0  0  0  0  0  0  0  0  0
   24.4346    1.0672   32.3154 C   0  0  0  0  0  0  0  0  0  0  0  0
   35.3388   15.3964   29.8882 C   0  0  0  0  0  0  0  0  0  0  0  0
   23.1686    1.5004   31.8774 C   0  0  0  0  0  0  0  0  0  0  0  0
   32.8840   11.7516   30.7542 C   0  0  0  0  0  0  0  0  0  0  0  0
   30.3253   15.8845   31.0046 C   0  0  0  0  0  0  0  0  0  0  0  0
   30.4037   15.2565   28.5144 C   0  0  0  0  0  0  0  0  0  0  0  0
   27.3615    4.1601   30.6798 C   0  0  0  0  0  0  0  0  0  0  0  0
   26.8129    4.8916   33.0987 C   0  0  0  0  0  0  0  0  0  0  0  0
   33.1170   12.0871   27.3619 C   0  0  0  0  0  0  0  0  0  0  0  0
   21.0893    6.7143   33.8373 C   0  0  0  0  0  0  0  0  0  0  0  0
   32.5587   17.7885   29.2373 C   0  0  0  0  0  0  0  0  0  0  0  0
   26.7918    1.5051   32.7631 C   0  0  0  0  0  0  0  0  0  0  0  0
   24.6081   -0.2523   32.7610 C   0  0  0  0  0  0  0  0  0  0  0  0
   35.3579   17.7388   29.2552 C   0  0  0  0  0  0  0  0  0  0  0  0
   22.2987    6.6583   31.6209 C   0  0  0  0  0  0  0  0  0  0  0  0
   32.7384   10.8121   29.5423 C   0  0  0  0  0  0  0  0  0  0  0  0
   33.7213   11.1342   28.4000 C   0  0  0  0  0  0  0  0  0  0  0  0
   21.7300    5.8209   32.7735 C   0  0  0  0  0  0  0  0  0  0  0  0
   26.9451    0.1877   33.2022 C   0  0  0  0  0  0  0  0  0  0  0  0
   33.2885   18.9392   28.9283 C   0  0  0  0  0  0  0  0  0  0  0  0
   34.6817   18.9150   28.9366 C   0  0  0  0  0  0  0  0  0  0  0  0
   25.8592   -0.6875   33.2001 C   0  0  0  0  0  0  0  0  0  0  0  0
   22.0010    3.1203   31.1040 H   0  0  0  0  0  0  0  0  0  0  0  0
   35.2256   13.3456   30.4370 H   0  0  0  0  0  0  0  0  0  0  0  0
   28.9742   13.4395   30.1766 H   0  0  0  0  0  0  0  0  0  0  0  0
   24.8832    7.5605   30.3633 H   0  0  0  0  0  0  0  0  0  0  0  0
   30.4300   10.8963   31.2453 H   0  0  0  0  0  0  0  0  0  0  0  0
   27.6152    6.9760   31.5560 H   0  0  0  0  0  0  0  0  0  0  0  0
   26.2672    9.4958   30.2445 H   0  0  0  0  0  0  0  0  0  0  0  0
   29.0423    8.9314   31.4050 H   0  0  0  0  0  0  0  0  0  0  0  0
   27.6855   11.4661   30.0911 H   0  0  0  0  0  0  0  0  0  0  0  0
   23.1676    6.4105   29.6375 H   0  0  0  0  0  0  0  0  0  0  0  0
   22.1275    5.0883   30.1250 H   0  0  0  0  0  0  0  0  0  0  0  0
   36.4225   15.3818   29.8907 H   0  0  0  0  0  0  0  0  0  0  0  0
   22.3221    0.8238   31.8837 H   0  0  0  0  0  0  0  0  0  0  0  0
   33.9433   11.7611   31.0697 H   0  0  0  0  0  0  0  0  0  0  0  0
   32.3888   11.3544   31.6568 H   0  0  0  0  0  0  0  0  0  0  0  0
   29.2617   15.5776   31.0883 H   0  0  0  0  0  0  0  0  0  0  0  0
   30.8126   15.7197   31.9902 H   0  0  0  0  0  0  0  0  0  0  0  0
   30.3297   16.9698   30.7982 H   0  0  0  0  0  0  0  0  0  0  0  0
   29.3293   14.9808   28.5313 H   0  0  0  0  0  0  0  0  0  0  0  0
   30.9135   14.6179   27.7624 H   0  0  0  0  0  0  0  0  0  0  0  0
   30.4556   16.3009   28.1593 H   0  0  0  0  0  0  0  0  0  0  0  0
   28.0752    3.4029   31.0520 H   0  0  0  0  0  0  0  0  0  0  0  0
   27.9516    5.0620   30.4298 H   0  0  0  0  0  0  0  0  0  0  0  0
   26.9103    3.7801   29.7382 H   0  0  0  0  0  0  0  0  0  0  0  0
   26.9068    4.0333   33.7939 H   0  0  0  0  0  0  0  0  0  0  0  0
   27.8235    5.3422   33.0162 H   0  0  0  0  0  0  0  0  0  0  0  0
   26.1368    5.6244   33.5931 H   0  0  0  0  0  0  0  0  0  0  0  0
   32.7126   12.9936   27.8465 H   0  0  0  0  0  0  0  0  0  0  0  0
   32.2869   11.5809   26.8259 H   0  0  0  0  0  0  0  0  0  0  0  0
   20.2585    7.3020   33.3915 H   0  0  0  0  0  0  0  0  0  0  0  0
   21.8448    7.4180   34.2468 H   0  0  0  0  0  0  0  0  0  0  0  0
   31.4884   17.8746   29.2198 H   0  0  0  0  0  0  0  0  0  0  0  0
   27.6571    2.1461   32.7970 H   0  0  0  0  0  0  0  0  0  0  0  0
   23.7761   -0.9466   32.7694 H   0  0  0  0  0  0  0  0  0  0  0  0
   36.4415   17.7399   29.2573 H   0  0  0  0  0  0  0  0  0  0  0  0
   23.0718    7.3536   32.0128 H   0  0  0  0  0  0  0  0  0  0  0  0
   21.4834    7.2712   31.1780 H   0  0  0  0  0  0  0  0  0  0  0  0
   31.6970   10.8081   29.1605 H   0  0  0  0  0  0  0  0  0  0  0  0
   32.9511    9.7811   29.8995 H   0  0  0  0  0  0  0  0  0  0  0  0
   34.6666   11.5523   28.8067 H   0  0  0  0  0  0  0  0  0  0  0  0
   33.9824   10.1856   27.8825 H   0  0  0  0  0  0  0  0  0  0  0  0
   22.5471    5.2329   33.2437 H   0  0  0  0  0  0  0  0  0  0  0  0
   20.9660    5.1175   32.3761 H   0  0  0  0  0  0  0  0  0  0  0  0
   27.9112   -0.1548   33.5501 H   0  0  0  0  0  0  0  0  0  0  0  0
   32.7693   19.8561   28.6805 H   0  0  0  0  0  0  0  0  0  0  0  0
   35.2390   19.8117   28.6979 H   0  0  0  0  0  0  0  0  0  0  0  0
   25.9866   -1.7058   33.5429 H   0  0  0  0  0  0  0  0  0  0  0  0
  2  1  1  0
  3  5  1  0
  4  5  1  0
  5 19  2  0
  6  1  2  0
  7  6  1  0
  8  2  2  0
  9  4  1  0
 10  3  1  0
 11 40  1  0
 12 41  1  0
 13  8  1  0
 14  9  2  0
 15  2  1  0
 16 10  2  0
 17 11  1  0
 18 12  1  0
 19 25  1  0
 20  6  1  0
 21 11  2  0
 22 11  2  0
 23 12  2  0
 24 12  2  0
 25 29  2  0
 26 20  2  0
 27 26  1  0
 28 27  2  0
 29 28  1  0
 30  1  1  0
 31 14  1  0
 32 34  1  0
 33 16  1  0
 34 15  2  0
 35  3  1  0
 36  4  1  0
 37  4  1  0
 38  7  1  0
 39  7  1  0
 40 48  1  0
 41 49  1  0
 42 14  1  0
 43 13  2  0
 44 32  2  0
 45 31  1  0
 46 30  1  0
 47 35  1  0
 48 47  1  0
 49 46  1  0
 50 43  1  0
 51 42  2  0
 52 51  1  0
 53 44  1  0
  7  8  1  0
 13 32  1  0
 53 50  2  0
 10  9  1  0
 31 33  2  0
 52 45  2  0
 15 54  1  0
 16 55  1  0
 19 56  1  0
 20 57  1  0
 25 58  1  0
 26 59  1  0
 27 60  1  0
 28 61  1  0
 29 62  1  0
 30 63  1  0
 30 64  1  0
 33 65  1  0
 34 66  1  0
 35 67  1  0
 35 68  1  0
 36 69  1  0
 36 70  1  0
 36 71  1  0
 37 72  1  0
 37 73  1  0
 37 74  1  0
 38 75  1  0
 38 76  1  0
 38 77  1  0
 39 78  1  0
 39 79  1  0
 39 80  1  0
 40 81  1  0
 40 82  1  0
 41 83  1  0
 41 84  1  0
 42 85  1  0
 43 86  1  0
 44 87  1  0
 45 88  1  0
 46 89  1  0
 46 90  1  0
 47 91  1  0
 47 92  1  0
 48 93  1  0
 48 94  1  0
 49 95  1  0
 49 96  1  0
 50 97  1  0
 51 98  1  0
 52 99  1  0
 53100  1  0
M  CHG  3   1   1  17  -1  18  -1
M  END
> <Uni-Dock RESULT> 
ENERGY=   -3.415  LOWER_BOUND=    4.530  UPPER_BOUND=   14.946
INTER + INTRA:          -3.415
INTER:                  -3.415
INTRA:                   0.000
UNBOUND:                 0.000

$$$$

     RDKit          3D

100105  0  0  0  0  0  0  0  0999 V2000
   27.6927   12.3045   22.2261 N   0  0  0  0  0  0  0  0  0  0  0  0
   26.5204   13.0470   21.9066 C   0  0  0  0  0  0  0  0  0  0  0  0
   34.5811   12.0621   31.5543 N   0  0  0  0  0  0  0  0  0  0  0  0
   36.3963   10.6601   30.6981 C   0  0  0  0  0  0  0  0  0  0  0  0
   35.0953   11.3944   30.3794 C   0  0  0  0  0  0  0  0  0  0  0  0
   28.1036   12.6719   23.4139 C   0  0  0  0  0  0  0  0  0  0  0  0
   27.1844   13.7295   24.0426 C   0  0  0  0  0  0  0  0  0  0  0  0
   26.1713   13.8985   22.9289 C   0  0  0  0  0  0  0  0  0  0  0  0
   36.5616   10.9685   32.1765 C   0  0  0  0  0  0  0  0  0  0  0  0
   35.5060   11.7619   32.6034 C   0  0  0  0  0  0  0  0  0  0  0  0
   32.6964    8.7638   34.3926 S   0  0  0  0  0  0  0  0  0  0  0  0
   29.8527   14.9824   17.8154 S   0  0  0  0  0  0  0  0  0  0  0  0
   25.0258   14.7258   22.8221 C   0  0  0  0  0  0  0  0  0  0  0  0
   37.5665   10.5546   33.0941 C   0  0  0  0  0  0  0  0  0  0  0  0
   25.7768   12.9773   20.7230 C   0  0  0  0  0  0  0  0  0  0  0  0
   35.3930   12.1590   33.9434 C   0  0  0  0  0  0  0  0  0  0  0  0
   33.3620    7.2438   34.1325 O   0  0  0  0  0  0  0  0  0  0  0  0
   31.2102   15.5869   17.0332 O   0  0  0  0  0  0  0  0  0  0  0  0
   34.5532   11.3457   29.1338 C   0  0  0  0  0  0  0  0  0  0  0  0
   29.3349   12.0985   24.0449 C   0  0  0  0  0  0  0  0  0  0  0  0
   33.5442    9.5121   35.3824 O   0  0  0  0  0  0  0  0  0  0  0  0
   31.3049    8.6109   34.9391 O   0  0  0  0  0  0  0  0  0  0  0  0
   28.8869   14.4537   16.7931 O   0  0  0  0  0  0  0  0  0  0  0  0
   29.1982   16.0865   18.5968 O   0  0  0  0  0  0  0  0  0  0  0  0
   33.3313   11.9993   28.6199 C   0  0  0  0  0  0  0  0  0  0  0  0
   29.8653   12.5129   25.2008 C   0  0  0  0  0  0  0  0  0  0  0  0
   31.0796   11.8772   25.7423 C   0  0  0  0  0  0  0  0  0  0  0  0
   31.6020   12.2683   26.9069 C   0  0  0  0  0  0  0  0  0  0  0  0
   32.8108   11.6229   27.4477 C   0  0  0  0  0  0  0  0  0  0  0  0
   28.3516   11.3403   21.3262 C   0  0  0  0  0  0  0  0  0  0  0  0
   37.4467   10.9633   34.4538 C   0  0  0  0  0  0  0  0  0  0  0  0
   24.2565   14.6529   21.6256 C   0  0  0  0  0  0  0  0  0  0  0  0
   36.3625   11.7570   34.8610 C   0  0  0  0  0  0  0  0  0  0  0  0
   24.6424   13.7823   20.5884 C   0  0  0  0  0  0  0  0  0  0  0  0
   33.3302   12.8127   31.7383 C   0  0  0  0  0  0  0  0  0  0  0  0
   37.5463   11.2633   29.8635 C   0  0  0  0  0  0  0  0  0  0  0  0
   36.2194    9.1440   30.4549 C   0  0  0  0  0  0  0  0  0  0  0  0
   26.5022   13.1597   25.3046 C   0  0  0  0  0  0  0  0  0  0  0  0
   27.9441   15.0550   24.2967 C   0  0  0  0  0  0  0  0  0  0  0  0
   32.6487    9.6536   32.8478 C   0  0  0  0  0  0  0  0  0  0  0  0
   30.3472   13.6692   18.9179 C   0  0  0  0  0  0  0  0  0  0  0  0
   38.6743    9.7614   32.7285 C   0  0  0  0  0  0  0  0  0  0  0  0
   24.6184   15.6124   23.8385 C   0  0  0  0  0  0  0  0  0  0  0  0
   23.1133   15.4538   21.4791 C   0  0  0  0  0  0  0  0  0  0  0  0
   38.4118   10.5727   35.3952 C   0  0  0  0  0  0  0  0  0  0  0  0
   29.5562   11.9715   20.6122 C   0  0  0  0  0  0  0  0  0  0  0  0
   32.0942   11.8934   31.7528 C   0  0  0  0  0  0  0  0  0  0  0  0
   31.9931   11.0284   33.0241 C   0  0  0  0  0  0  0  0  0  0  0  0
   29.1363   13.0947   19.6555 C   0  0  0  0  0  0  0  0  0  0  0  0
   23.4769   16.4011   23.6746 C   0  0  0  0  0  0  0  0  0  0  0  0
   39.6249    9.3826   33.6798 C   0  0  0  0  0  0  0  0  0  0  0  0
   39.4946    9.7856   35.0073 C   0  0  0  0  0  0  0  0  0  0  0  0
   22.7271   16.3217   22.5013 C   0  0  0  0  0  0  0  0  0  0  0  0
   26.0552   12.3230   19.9105 H   0  0  0  0  0  0  0  0  0  0  0  0
   34.5744   12.7621   34.3023 H   0  0  0  0  0  0  0  0  0  0  0  0
   35.0805   10.7509   28.3985 H   0  0  0  0  0  0  0  0  0  0  0  0
   29.8490   11.2975   23.5336 H   0  0  0  0  0  0  0  0  0  0  0  0
   32.8498   12.8020   29.1375 H   0  0  0  0  0  0  0  0  0  0  0  0
   29.4220   13.3145   25.7646 H   0  0  0  0  0  0  0  0  0  0  0  0
   31.5515   11.0749   25.1849 H   0  0  0  0  0  0  0  0  0  0  0  0
   31.1311   13.0691   27.4681 H   0  0  0  0  0  0  0  0  0  0  0  0
   33.2748   10.8209   26.8828 H   0  0  0  0  0  0  0  0  0  0  0  0
   28.6767   10.4437   21.8937 H   0  0  0  0  0  0  0  0  0  0  0  0
   27.6386   10.9452   20.5751 H   0  0  0  0  0  0  0  0  0  0  0  0
   36.2640   12.0659   35.8952 H   0  0  0  0  0  0  0  0  0  0  0  0
   24.0654   13.7263   19.6728 H   0  0  0  0  0  0  0  0  0  0  0  0
   33.3473   13.3978   32.6758 H   0  0  0  0  0  0  0  0  0  0  0  0
   33.2519   13.6116   30.9812 H   0  0  0  0  0  0  0  0  0  0  0  0
   37.3615   11.1229   28.7779 H   0  0  0  0  0  0  0  0  0  0  0  0
   37.6363   12.3536   30.0620 H   0  0  0  0  0  0  0  0  0  0  0  0
   38.5213   10.7937   30.0854 H   0  0  0  0  0  0  0  0  0  0  0  0
   36.0458    8.9307   29.3802 H   0  0  0  0  0  0  0  0  0  0  0  0
   35.3522    8.7557   31.0296 H   0  0  0  0  0  0  0  0  0  0  0  0
   37.1085    8.5607   30.7525 H   0  0  0  0  0  0  0  0  0  0  0  0
   25.8316   13.8987   25.7796 H   0  0  0  0  0  0  0  0  0  0  0  0
   27.2436   12.8606   26.0695 H   0  0  0  0  0  0  0  0  0  0  0  0
   25.9024   12.2608   25.0462 H   0  0  0  0  0  0  0  0  0  0  0  0
   27.3195   15.9457   24.0836 H   0  0  0  0  0  0  0  0  0  0  0  0
   28.2705   15.1448   25.3534 H   0  0  0  0  0  0  0  0  0  0  0  0
   28.8396   15.1344   23.6407 H   0  0  0  0  0  0  0  0  0  0  0  0
   33.6856    9.7550   32.4809 H   0  0  0  0  0  0  0  0  0  0  0  0
   32.0758    9.0567   32.1075 H   0  0  0  0  0  0  0  0  0  0  0  0
   30.8440   12.8732   18.3229 H   0  0  0  0  0  0  0  0  0  0  0  0
   31.0777   14.0774   19.6483 H   0  0  0  0  0  0  0  0  0  0  0  0
   38.8357    9.4241   31.7218 H   0  0  0  0  0  0  0  0  0  0  0  0
   25.1715   15.7200   24.7567 H   0  0  0  0  0  0  0  0  0  0  0  0
   22.5190   15.4083   20.5740 H   0  0  0  0  0  0  0  0  0  0  0  0
   38.3282   10.8769   36.4318 H   0  0  0  0  0  0  0  0  0  0  0  0
   30.2722   12.3705   21.3624 H   0  0  0  0  0  0  0  0  0  0  0  0
   30.0767   11.1760   20.0352 H   0  0  0  0  0  0  0  0  0  0  0  0
   32.0617   11.2505   30.8496 H   0  0  0  0  0  0  0  0  0  0  0  0
   31.1976   12.5492   31.7100 H   0  0  0  0  0  0  0  0  0  0  0  0
   32.4353   11.5607   33.8928 H   0  0  0  0  0  0  0  0  0  0  0  0
   30.9178   10.8674   33.2554 H   0  0  0  0  0  0  0  0  0  0  0  0
   28.6474   13.9096   20.2313 H   0  0  0  0  0  0  0  0  0  0  0  0
   28.4103   12.6952   18.9141 H   0  0  0  0  0  0  0  0  0  0  0  0
   23.1751   17.0811   24.4608 H   0  0  0  0  0  0  0  0  0  0  0  0
   40.4686    8.7718   33.3850 H   0  0  0  0  0  0  0  0  0  0  0  0
   40.2369    9.4893   35.7373 H   0  0  0  0  0  0  0  0  0  0  0  0
   21.8450   16.9371   22.3824 H   0  0  0  0  0  0  0  0  0  0  0  0
  2  1  1  0
  3  5  1  0
  4  5  1  0
  5 19  2  0
  6  1  2  0
  7  6  1  0
  8  2  2  0
  9  4  1  0
 10  3  1  0
 11 40  1  0
 12 41  1  0
 13  8  1  0
 14  9  2  0
 15  2  1  0
 16 10  2  0
 17 11  1  0
 18 12  1  0
 19 25  1  0
 20  6  1  0
 21 11  2  0
 22 11  2  0
 23 12  2  0
 24 12  2  0
 25 29  2  0
 26 20  2  0
 27 26  1  0
 28 27  2  0
 29 28  1  0
 30  1  1  0
 31 14  1  0
 32 34  1  0
 33 16  1  0
 34 15  2  0
 35  3  1  0
 36  4  1  0
 37  4  1  0
 38  7  1  0
 39  7  1  0
 40 48  1  0
 41 49  1  0
 42 14  1  0
 43 13  2  0
 44 32  2  0
 45 31  1  0
 46 30  1  0
 47 35  1  0
 48 47  1  0
 49 46  1  0
 50 43  1  0
 51 42  2  0
 52 51  1  0
 53 44  1  0
  7  8  1  0
 13 32  1  0
 53 50  2  0
 10  9  1  0
 31 33  2  0
 52 45  2  0
 15 54  1  0
 16 55  1  0
 19 56  1  0
 20 57  1  0
 25 58  1  0
 26 59  1  0
 27 60  1  0
 28 61  1  0
 29 62  1  0
 30 63  1  0
 30 64  1  0
 33 65  1  0
 34 66  1  0
 35 67  1  0
 35 68  1  0
 36 69  1  0
 36 70  1  0
 36 71  1  0
 37 72  1  0
 37 73  1  0
 37 74  1  0
 38 75  1  0
 38 76  1  0
 38 77  1  0
 39 78  1  0
 39 79  1  0
 39 80  1  0
 40 81  1  0
 40 82  1  0
 41 83  1  0
 41 84  1  0
 42 85  1  0
 43 86  1  0
 44 87  1  0
 45 88  1  0
 46 89  1  0
 46 90  1  0
 47 91  1  0
 47 92  1  0
 48 93  1  0
 48 94  1  0
 49 95  1  0
 49 96  1  0
 50 97  1  0
 51 98  1  0
 52 99  1  0
 53100  1  0
M  CHG  3   1   1  17  -1  18  -1
M  END
> <Uni-Dock RESULT> 
ENERGY=   -3.298  LOWER_BOUND=    5.703  UPPER_BOUND=    8.251
INTER + INTRA:          -3.298
INTER:                  -3.298
INTRA:                   0.000
UNBOUND:                 0.000

$$$$
