
     RDKit          3D

100105  0  0  0  0  0  0  0  0999 V2000
   31.2506   14.3765   26.4095 N   0  0  0  0  0  0  0  0  0  0  0  0
   31.1763   15.3238   25.3516 C   0  0  0  0  0  0  0  0  0  0  0  0
   28.1274    5.2638   30.6680 N   0  0  0  0  0  0  0  0  0  0  0  0
   29.5497    3.2694   30.4772 C   0  0  0  0  0  0  0  0  0  0  0  0
   29.3663    4.7455   30.1537 C   0  0  0  0  0  0  0  0  0  0  0  0
   31.6305   13.2382   25.9013 C   0  0  0  0  0  0  0  0  0  0  0  0
   31.8622   13.3028   24.3966 C   0  0  0  0  0  0  0  0  0  0  0  0
   31.5244   14.7598   24.1418 C   0  0  0  0  0  0  0  0  0  0  0  0
   28.2162    2.9619   31.1354 C   0  0  0  0  0  0  0  0  0  0  0  0
   27.4556    4.1210   31.1928 C   0  0  0  0  0  0  0  0  0  0  0  0
   32.2771    7.0612   34.2150 S   0  0  0  0  0  0  0  0  0  0  0  0
   26.6166   14.1593   25.8232 S   0  0  0  0  0  0  0  0  0  0  0  0
   31.5344   15.5407   22.9611 C   0  0  0  0  0  0  0  0  0  0  0  0
   27.7115    1.7484   31.6732 C   0  0  0  0  0  0  0  0  0  0  0  0
   30.8354   16.6729   25.4662 C   0  0  0  0  0  0  0  0  0  0  0  0
   26.1749    4.1290   31.7507 C   0  0  0  0  0  0  0  0  0  0  0  0
   32.7935    7.0726   35.8134 O   0  0  0  0  0  0  0  0  0  0  0  0
   24.9592   14.4284   25.7798 O   0  0  0  0  0  0  0  0  0  0  0  0
   30.2439    5.4490   29.4131 C   0  0  0  0  0  0  0  0  0  0  0  0
   31.9221   12.0466   26.7261 C   0  0  0  0  0  0  0  0  0  0  0  0
   32.8948    5.8899   33.5044 O   0  0  0  0  0  0  0  0  0  0  0  0
   32.7051    8.3360   33.5432 O   0  0  0  0  0  0  0  0  0  0  0  0
   27.3295   15.4187   25.4151 O   0  0  0  0  0  0  0  0  0  0  0  0
   26.9617   13.0613   24.8575 O   0  0  0  0  0  0  0  0  0  0  0  0
   29.9084    6.7077   28.7340 C   0  0  0  0  0  0  0  0  0  0  0  0
   31.1149   10.9865   26.7311 C   0  0  0  0  0  0  0  0  0  0  0  0
   31.4197    9.8060   27.5531 C   0  0  0  0  0  0  0  0  0  0  0  0
   30.5316    8.8171   27.6804 C   0  0  0  0  0  0  0  0  0  0  0  0
   30.8528    7.5978   28.4354 C   0  0  0  0  0  0  0  0  0  0  0  0
   30.8664   14.6285   27.8081 C   0  0  0  0  0  0  0  0  0  0  0  0
   26.4029    1.7557   32.2388 C   0  0  0  0  0  0  0  0  0  0  0  0
   31.1659   16.9147   23.0638 C   0  0  0  0  0  0  0  0  0  0  0  0
   25.6502    2.9441   32.2675 C   0  0  0  0  0  0  0  0  0  0  0  0
   30.8210   17.4651   24.3144 C   0  0  0  0  0  0  0  0  0  0  0  0
   27.9345    6.6113   31.2405 C   0  0  0  0  0  0  0  0  0  0  0  0
   29.7338    2.4675   29.1705 C   0  0  0  0  0  0  0  0  0  0  0  0
   30.7279    3.0854   31.4539 C   0  0  0  0  0  0  0  0  0  0  0  0
   30.8962   12.3533   23.6652 C   0  0  0  0  0  0  0  0  0  0  0  0
   33.3361   12.9876   24.0855 C   0  0  0  0  0  0  0  0  0  0  0  0
   30.4974    6.9245   34.1707 C   0  0  0  0  0  0  0  0  0  0  0  0
   27.0850   13.6669   27.4795 C   0  0  0  0  0  0  0  0  0  0  0  0
   28.4427    0.5436   31.6822 C   0  0  0  0  0  0  0  0  0  0  0  0
   31.8921   15.0258   21.7002 C   0  0  0  0  0  0  0  0  0  0  0  0
   31.1564   17.7237   21.9162 C   0  0  0  0  0  0  0  0  0  0  0  0
   25.8612    0.5752   32.7715 C   0  0  0  0  0  0  0  0  0  0  0  0
   29.3411   14.7592   27.9512 C   0  0  0  0  0  0  0  0  0  0  0  0
   28.4701    6.7060   32.6804 C   0  0  0  0  0  0  0  0  0  0  0  0
   29.9973    6.8514   32.7271 C   0  0  0  0  0  0  0  0  0  0  0  0
   28.6025   13.4564   27.6042 C   0  0  0  0  0  0  0  0  0  0  0  0
   31.8788   15.8480   20.5699 C   0  0  0  0  0  0  0  0  0  0  0  0
   27.8885   -0.6204   32.2187 C   0  0  0  0  0  0  0  0  0  0  0  0
   26.6034   -0.6053   32.7599 C   0  0  0  0  0  0  0  0  0  0  0  0
   31.5109   17.1894   20.6765 C   0  0  0  0  0  0  0  0  0  0  0  0
   30.5948   17.1121   26.4248 H   0  0  0  0  0  0  0  0  0  0  0  0
   25.5812    5.0323   31.7822 H   0  0  0  0  0  0  0  0  0  0  0  0
   31.2071    5.0105   29.1843 H   0  0  0  0  0  0  0  0  0  0  0  0
   32.7941   12.0730   27.3706 H   0  0  0  0  0  0  0  0  0  0  0  0
   28.8826    6.8917   28.4432 H   0  0  0  0  0  0  0  0  0  0  0  0
   30.2157   10.9922   26.1279 H   0  0  0  0  0  0  0  0  0  0  0  0
   32.3765    9.7411   28.0570 H   0  0  0  0  0  0  0  0  0  0  0  0
   29.5621    8.8998   27.2057 H   0  0  0  0  0  0  0  0  0  0  0  0
   31.8727    7.4248   28.7546 H   0  0  0  0  0  0  0  0  0  0  0  0
   31.2381   13.8275   28.4826 H   0  0  0  0  0  0  0  0  0  0  0  0
   31.3415   15.5728   28.1479 H   0  0  0  0  0  0  0  0  0  0  0  0
   24.6562    2.9570   32.6973 H   0  0  0  0  0  0  0  0  0  0  0  0
   30.5495   18.5099   24.4005 H   0  0  0  0  0  0  0  0  0  0  0  0
   28.4019    7.3997   30.6235 H   0  0  0  0  0  0  0  0  0  0  0  0
   26.8513    6.8512   31.2482 H   0  0  0  0  0  0  0  0  0  0  0  0
   30.6698    2.7660   28.6533 H   0  0  0  0  0  0  0  0  0  0  0  0
   28.8821    2.6560   28.4813 H   0  0  0  0  0  0  0  0  0  0  0  0
   29.7955    1.3784   29.3480 H   0  0  0  0  0  0  0  0  0  0  0  0
   30.5078    3.5772   32.4271 H   0  0  0  0  0  0  0  0  0  0  0  0
   30.9408    2.0161   31.6459 H   0  0  0  0  0  0  0  0  0  0  0  0
   31.6558    3.5312   31.0364 H   0  0  0  0  0  0  0  0  0  0  0  0
   30.9647   12.4599   22.5666 H   0  0  0  0  0  0  0  0  0  0  0  0
   31.1341   11.2957   23.9049 H   0  0  0  0  0  0  0  0  0  0  0  0
   29.8463   12.5592   23.9643 H   0  0  0  0  0  0  0  0  0  0  0  0
   33.5472   13.0202   22.9995 H   0  0  0  0  0  0  0  0  0  0  0  0
   33.5951   11.9674   24.4429 H   0  0  0  0  0  0  0  0  0  0  0  0
   34.0060   13.7136   24.5947 H   0  0  0  0  0  0  0  0  0  0  0  0
   30.0599    7.8116   34.6787 H   0  0  0  0  0  0  0  0  0  0  0  0
   30.1977    6.0068   34.7234 H   0  0  0  0  0  0  0  0  0  0  0  0
   26.5695   12.7076   27.7031 H   0  0  0  0  0  0  0  0  0  0  0  0
   26.7236   14.4206   28.2118 H   0  0  0  0  0  0  0  0  0  0  0  0
   29.4384    0.4748   31.2868 H   0  0  0  0  0  0  0  0  0  0  0  0
   32.1866   13.9996   21.5640 H   0  0  0  0  0  0  0  0  0  0  0  0
   30.8782   18.7687   21.9783 H   0  0  0  0  0  0  0  0  0  0  0  0
   24.8649    0.5668   33.1997 H   0  0  0  0  0  0  0  0  0  0  0  0
   29.1035   15.0358   29.0016 H   0  0  0  0  0  0  0  0  0  0  0  0
   28.9832   15.5870   27.3083 H   0  0  0  0  0  0  0  0  0  0  0  0
   28.1535    5.8151   33.2658 H   0  0  0  0  0  0  0  0  0  0  0  0
   28.0173    7.6005   33.1615 H   0  0  0  0  0  0  0  0  0  0  0  0
   30.4761    5.9838   32.2329 H   0  0  0  0  0  0  0  0  0  0  0  0
   30.2970    7.7748   32.1835 H   0  0  0  0  0  0  0  0  0  0  0  0
   28.9842   13.0279   26.6589 H   0  0  0  0  0  0  0  0  0  0  0  0
   28.8017   12.7135   28.4087 H   0  0  0  0  0  0  0  0  0  0  0  0
   32.1551   15.4416   19.6049 H   0  0  0  0  0  0  0  0  0  0  0  0
   28.4588   -1.5398   32.2132 H   0  0  0  0  0  0  0  0  0  0  0  0
   26.1819   -1.5113   33.1748 H   0  0  0  0  0  0  0  0  0  0  0  0
   31.5040   17.8176   19.7951 H   0  0  0  0  0  0  0  0  0  0  0  0
  2  1  1  0
  3  5  1  0
  4  5  1  0
  5 19  2  0
  6  1  2  0
  7  6  1  0
  8  2  2  0
  9  4  1  0
 10  3  1  0
 11 40  1  0
 12 41  1  0
 13  8  1  0
 14  9  2  0
 15  2  1  0
 16 10  2  0
 17 11  1  0
 18 12  1  0
 19 25  1  0
 20  6  1  0
 21 11  2  0
 22 11  2  0
 23 12  2  0
 24 12  2  0
 25 29  2  0
 26 20  2  0
 27 26  1  0
 28 27  2  0
 29 28  1  0
 30  1  1  0
 31 14  1  0
 32 34  1  0
 33 16  1  0
 34 15  2  0
 35  3  1  0
 36  4  1  0
 37  4  1  0
 38  7  1  0
 39  7  1  0
 40 48  1  0
 41 49  1  0
 42 14  1  0
 43 13  2  0
 44 32  2  0
 45 31  1  0
 46 30  1  0
 47 35  1  0
 48 47  1  0
 49 46  1  0
 50 43  1  0
 51 42  2  0
 52 51  1  0
 53 44  1  0
  7  8  1  0
 13 32  1  0
 53 50  2  0
 10  9  1  0
 31 33  2  0
 52 45  2  0
 15 54  1  0
 16 55  1  0
 19 56  1  0
 20 57  1  0
 25 58  1  0
 26 59  1  0
 27 60  1  0
 28 61  1  0
 29 62  1  0
 30 63  1  0
 30 64  1  0
 33 65  1  0
 34 66  1  0
 35 67  1  0
 35 68  1  0
 36 69  1  0
 36 70  1  0
 36 71  1  0
 37 72  1  0
 37 73  1  0
 37 74  1  0
 38 75  1  0
 38 76  1  0
 38 77  1  0
 39 78  1  0
 39 79  1  0
 39 80  1  0
 40 81  1  0
 40 82  1  0
 41 83  1  0
 41 84  1  0
 42 85  1  0
 43 86  1  0
 44 87  1  0
 45 88  1  0
 46 89  1  0
 46 90  1  0
 47 91  1  0
 47 92  1  0
 48 93  1  0
 48 94  1  0
 49 95  1  0
 49 96  1  0
 50 97  1  0
 51 98  1  0
 52 99  1  0
 53100  1  0
M  CHG  3   1   1  17  -1  18  -1
M  END
> <Uni-Dock RESULT> 
ENERGY=   -4.932  LOWER_BOUND=    0.000  UPPER_BOUND=    0.000
INTER + INTRA:          -4.932
INTER:                  -4.932
INTRA:                   0.000
UNBOUND:                 0.000

$$$$

     RDKit          3D

100105  0  0  0  0  0  0  0  0999 V2000
   28.9746   14.5749   22.3774 N   0  0  0  0  0  0  0  0  0  0  0  0
   29.4466   14.6441   21.0379 C   0  0  0  0  0  0  0  0  0  0  0  0
   23.0153    9.8556   29.6676 N   0  0  0  0  0  0  0  0  0  0  0  0
   24.0448    8.3242   31.2899 C   0  0  0  0  0  0  0  0  0  0  0  0
   24.2467    9.2511   30.0994 C   0  0  0  0  0  0  0  0  0  0  0  0
   29.3077   13.4108   22.8594 C   0  0  0  0  0  0  0  0  0  0  0  0
   30.0673   12.5455   21.8613 C   0  0  0  0  0  0  0  0  0  0  0  0
   30.0995   13.4857   20.6709 C   0  0  0  0  0  0  0  0  0  0  0  0
   22.5327    8.3683   31.4226 C   0  0  0  0  0  0  0  0  0  0  0  0
   22.0140    9.2313   30.4679 C   0  0  0  0  0  0  0  0  0  0  0  0
   25.8741   13.8570   32.6422 S   0  0  0  0  0  0  0  0  0  0  0  0
   24.8900   13.5987   20.3209 S   0  0  0  0  0  0  0  0  0  0  0  0
   30.6641   13.3572   19.3791 C   0  0  0  0  0  0  0  0  0  0  0  0
   21.6680    7.7131   32.3389 C   0  0  0  0  0  0  0  0  0  0  0  0
   29.3259   15.7303   20.1690 C   0  0  0  0  0  0  0  0  0  0  0  0
   20.6407    9.4628   30.3597 C   0  0  0  0  0  0  0  0  0  0  0  0
   25.7812   14.9111   33.9468 O   0  0  0  0  0  0  0  0  0  0  0  0
   23.4299   13.6224   19.4911 O   0  0  0  0  0  0  0  0  0  0  0  0
   25.4378    9.4195   29.4943 C   0  0  0  0  0  0  0  0  0  0  0  0
   29.0758   13.0275   24.2681 C   0  0  0  0  0  0  0  0  0  0  0  0
   26.4919   12.5639   33.0946 O   0  0  0  0  0  0  0  0  0  0  0  0
   26.7266   14.4690   31.5660 O   0  0  0  0  0  0  0  0  0  0  0  0
   25.9076   14.3902   19.5472 O   0  0  0  0  0  0  0  0  0  0  0  0
   25.3610   12.1775   20.4466 O   0  0  0  0  0  0  0  0  0  0  0  0
   25.5891    9.9416   28.1294 C   0  0  0  0  0  0  0  0  0  0  0  0
   28.1496   12.1306   24.6042 C   0  0  0  0  0  0  0  0  0  0  0  0
   27.9328   11.7554   26.0094 C   0  0  0  0  0  0  0  0  0  0  0  0
   26.9009   10.9822   26.3563 C   0  0  0  0  0  0  0  0  0  0  0  0
   26.7164   10.5367   27.7447 C   0  0  0  0  0  0  0  0  0  0  0  0
   28.1673   15.6052   23.0512 C   0  0  0  0  0  0  0  0  0  0  0  0
   20.2662    7.9463   32.2258 C   0  0  0  0  0  0  0  0  0  0  0  0
   30.5266   14.4527   18.4762 C   0  0  0  0  0  0  0  0  0  0  0  0
   19.7701    8.8148   31.2364 C   0  0  0  0  0  0  0  0  0  0  0  0
   29.8597   15.6263   18.8811 C   0  0  0  0  0  0  0  0  0  0  0  0
   22.8673   11.2400   29.1755 C   0  0  0  0  0  0  0  0  0  0  0  0
   24.5404    6.9050   30.9367 C   0  0  0  0  0  0  0  0  0  0  0  0
   24.7473    8.9023   32.5343 C   0  0  0  0  0  0  0  0  0  0  0  0
   29.2764   11.2605   21.5564 C   0  0  0  0  0  0  0  0  0  0  0  0
   31.4771   12.2477   22.4017 C   0  0  0  0  0  0  0  0  0  0  0  0
   24.2319   13.5534   32.0107 C   0  0  0  0  0  0  0  0  0  0  0  0
   24.6455   14.2932   21.9529 C   0  0  0  0  0  0  0  0  0  0  0  0
   22.1281    6.8532   33.3563 C   0  0  0  0  0  0  0  0  0  0  0  0
   31.3524   12.2060   18.9504 C   0  0  0  0  0  0  0  0  0  0  0  0
   31.0662   14.3648   17.1828 C   0  0  0  0  0  0  0  0  0  0  0  0
   19.3750    7.3101   33.1043 C   0  0  0  0  0  0  0  0  0  0  0  0
   26.7382   15.6503   22.4858 C   0  0  0  0  0  0  0  0  0  0  0  0
   22.8628   12.2618   30.3266 C   0  0  0  0  0  0  0  0  0  0  0  0
   24.2739   12.5495   30.8575 C   0  0  0  0  0  0  0  0  0  0  0  0
   25.9583   14.3522   22.7502 C   0  0  0  0  0  0  0  0  0  0  0  0
   31.8848   12.1388   17.6597 C   0  0  0  0  0  0  0  0  0  0  0  0
   21.2269    6.2309   34.2227 C   0  0  0  0  0  0  0  0  0  0  0  0
   19.8567    6.4572   34.0969 C   0  0  0  0  0  0  0  0  0  0  0  0
   31.7408   13.2115   16.7796 C   0  0  0  0  0  0  0  0  0  0  0  0
   28.8396   16.6455   20.4780 H   0  0  0  0  0  0  0  0  0  0  0  0
   20.2403   10.1271   29.6061 H   0  0  0  0  0  0  0  0  0  0  0  0
   26.3281    9.0285   29.9706 H   0  0  0  0  0  0  0  0  0  0  0  0
   29.6518   13.5327   25.0359 H   0  0  0  0  0  0  0  0  0  0  0  0
   24.7823    9.8053   27.4214 H   0  0  0  0  0  0  0  0  0  0  0  0
   27.5395   11.6733   23.8353 H   0  0  0  0  0  0  0  0  0  0  0  0
   28.6209   12.1103   26.7671 H   0  0  0  0  0  0  0  0  0  0  0  0
   26.1939   10.6581   25.6033 H   0  0  0  0  0  0  0  0  0  0  0  0
   27.5096   10.6986   28.4635 H   0  0  0  0  0  0  0  0  0  0  0  0
   28.1302   15.4391   24.1492 H   0  0  0  0  0  0  0  0  0  0  0  0
   28.6458   16.5954   22.8979 H   0  0  0  0  0  0  0  0  0  0  0  0
   18.7064    8.9978   31.1461 H   0  0  0  0  0  0  0  0  0  0  0  0
   29.7602   16.4651   18.2034 H   0  0  0  0  0  0  0  0  0  0  0  0
   23.6524   11.5123   28.4473 H   0  0  0  0  0  0  0  0  0  0  0  0
   21.9113   11.3277   28.6194 H   0  0  0  0  0  0  0  0  0  0  0  0
   25.6358    6.9039   30.7550 H   0  0  0  0  0  0  0  0  0  0  0  0
   24.0362    6.5407   30.0154 H   0  0  0  0  0  0  0  0  0  0  0  0
   24.3457    6.1760   31.7442 H   0  0  0  0  0  0  0  0  0  0  0  0
   24.2836    9.8695   32.8293 H   0  0  0  0  0  0  0  0  0  0  0  0
   24.6896    8.2122   33.3979 H   0  0  0  0  0  0  0  0  0  0  0  0
   25.8251    9.0769   32.3296 H   0  0  0  0  0  0  0  0  0  0  0  0
   29.7489   10.6653   20.7529 H   0  0  0  0  0  0  0  0  0  0  0  0
   29.2268   10.6115   22.4559 H   0  0  0  0  0  0  0  0  0  0  0  0
   28.2413   11.5066   21.2367 H   0  0  0  0  0  0  0  0  0  0  0  0
   32.0633   11.6165   21.7067 H   0  0  0  0  0  0  0  0  0  0  0  0
   31.4114   11.7031   23.3685 H   0  0  0  0  0  0  0  0  0  0  0  0
   32.0365   13.1925   22.5736 H   0  0  0  0  0  0  0  0  0  0  0  0
   23.8025   14.5169   31.6587 H   0  0  0  0  0  0  0  0  0  0  0  0
   23.6013   13.1568   32.8368 H   0  0  0  0  0  0  0  0  0  0  0  0
   23.9266   13.6385   22.4922 H   0  0  0  0  0  0  0  0  0  0  0  0
   24.1830   15.3000   21.8673 H   0  0  0  0  0  0  0  0  0  0  0  0
   23.1714    6.6484   33.5050 H   0  0  0  0  0  0  0  0  0  0  0  0
   31.4941   11.3526   19.5907 H   0  0  0  0  0  0  0  0  0  0  0  0
   30.9692   15.1883   16.4858 H   0  0  0  0  0  0  0  0  0  0  0  0
   18.3061    7.4752   33.0250 H   0  0  0  0  0  0  0  0  0  0  0  0
   26.1938   16.4968   22.9584 H   0  0  0  0  0  0  0  0  0  0  0  0
   26.7815   15.8582   21.3988 H   0  0  0  0  0  0  0  0  0  0  0  0
   22.2098   11.9047   31.1527 H   0  0  0  0  0  0  0  0  0  0  0  0
   22.4303   13.2127   29.9455 H   0  0  0  0  0  0  0  0  0  0  0  0
   24.7396   11.6138   31.2232 H   0  0  0  0  0  0  0  0  0  0  0  0
   24.9022   12.9563   30.0343 H   0  0  0  0  0  0  0  0  0  0  0  0
   26.5713   13.4670   22.4981 H   0  0  0  0  0  0  0  0  0  0  0  0
   25.7264   14.2958   23.8373 H   0  0  0  0  0  0  0  0  0  0  0  0
   32.4118   11.2485   17.3401 H   0  0  0  0  0  0  0  0  0  0  0  0
   21.5938    5.5681   34.9953 H   0  0  0  0  0  0  0  0  0  0  0  0
   19.1654    5.9720   34.7732 H   0  0  0  0  0  0  0  0  0  0  0  0
   32.1568   13.1494   15.7822 H   0  0  0  0  0  0  0  0  0  0  0  0
  2  1  1  0
  3  5  1  0
  4  5  1  0
  5 19  2  0
  6  1  2  0
  7  6  1  0
  8  2  2  0
  9  4  1  0
 10  3  1  0
 11 40  1  0
 12 41  1  0
 13  8  1  0
 14  9  2  0
 15  2  1  0
 16 10  2  0
 17 11  1  0
 18 12  1  0
 19 25  1  0
 20  6  1  0
 21 11  2  0
 22 11  2  0
 23 12  2  0
 24 12  2  0
 25 29  2  0
 26 20  2  0
 27 26  1  0
 28 27  2  0
 29 28  1  0
 30  1  1  0
 31 14  1  0
 32 34  1  0
 33 16  1  0
 34 15  2  0
 35  3  1  0
 36  4  1  0
 37  4  1  0
 38  7  1  0
 39  7  1  0
 40 48  1  0
 41 49  1  0
 42 14  1  0
 43 13  2  0
 44 32  2  0
 45 31  1  0
 46 30  1  0
 47 35  1  0
 48 47  1  0
 49 46  1  0
 50 43  1  0
 51 42  2  0
 52 51  1  0
 53 44  1  0
  7  8  1  0
 13 32  1  0
 53 50  2  0
 10  9  1  0
 31 33  2  0
 52 45  2  0
 15 54  1  0
 16 55  1  0
 19 56  1  0
 20 57  1  0
 25 58  1  0
 26 59  1  0
 27 60  1  0
 28 61  1  0
 29 62  1  0
 30 63  1  0
 30 64  1  0
 33 65  1  0
 34 66  1  0
 35 67  1  0
 35 68  1  0
 36 69  1  0
 36 70  1  0
 36 71  1  0
 37 72  1  0
 37 73  1  0
 37 74  1  0
 38 75  1  0
 38 76  1  0
 38 77  1  0
 39 78  1  0
 39 79  1  0
 39 80  1  0
 40 81  1  0
 40 82  1  0
 41 83  1  0
 41 84  1  0
 42 85  1  0
 43 86  1  0
 44 87  1  0
 45 88  1  0
 46 89  1  0
 46 90  1  0
 47 91  1  0
 47 92  1  0
 48 93  1  0
 48 94  1  0
 49 95  1  0
 49 96  1  0
 50 97  1  0
 51 98  1  0
 52 99  1  0
 53100  1  0
M  CHG  3   1   1  17  -1  18  -1
M  END
> <Uni-Dock RESULT> 
ENERGY=   -4.432  LOWER_BOUND=    5.272  UPPER_BOUND=    6.761
INTER + INTRA:          -4.432
INTER:                  -4.432
INTRA:                   0.000
UNBOUND:                 0.000

$$$$

     RDKit          3D

100105  0  0  0  0  0  0  0  0999 V2000
   23.4056    7.2908   32.8961 N   0  0  0  0  0  0  0  0  0  0  0  0
   22.7394    6.1380   33.3953 C   0  0  0  0  0  0  0  0  0  0  0  0
   29.6339   11.7577   25.6721 N   0  0  0  0  0  0  0  0  0  0  0  0
   28.6493   13.0995   23.8645 C   0  0  0  0  0  0  0  0  0  0  0  0
   28.4082   12.2558   25.1084 C   0  0  0  0  0  0  0  0  0  0  0  0
   22.9726    7.5110   31.6868 C   0  0  0  0  0  0  0  0  0  0  0  0
   21.9317    6.4960   31.2304 C   0  0  0  0  0  0  0  0  0  0  0  0
   21.8579    5.6218   32.4683 C   0  0  0  0  0  0  0  0  0  0  0  0
   30.1501   12.9329   23.7029 C   0  0  0  0  0  0  0  0  0  0  0  0
   30.6385   12.1508   24.7398 C   0  0  0  0  0  0  0  0  0  0  0  0
   27.9777   16.1795   28.9488 S   0  0  0  0  0  0  0  0  0  0  0  0
   26.8906    4.2753   32.1043 S   0  0  0  0  0  0  0  0  0  0  0  0
   21.0775    4.4814   32.7758 C   0  0  0  0  0  0  0  0  0  0  0  0
   31.0355   13.4550   22.7232 C   0  0  0  0  0  0  0  0  0  0  0  0
   22.8902    5.5748   34.6639 C   0  0  0  0  0  0  0  0  0  0  0  0
   31.9950   11.8331   24.8405 C   0  0  0  0  0  0  0  0  0  0  0  0
   28.4498   17.6668   29.5708 O   0  0  0  0  0  0  0  0  0  0  0  0
   28.1809    3.2046   32.2031 O   0  0  0  0  0  0  0  0  0  0  0  0
   27.1773   11.9668   25.5718 C   0  0  0  0  0  0  0  0  0  0  0  0
   23.3658    8.6958   30.8951 C   0  0  0  0  0  0  0  0  0  0  0  0
   27.2420   16.3953   27.6563 O   0  0  0  0  0  0  0  0  0  0  0  0
   27.0712   15.4926   29.9316 O   0  0  0  0  0  0  0  0  0  0  0  0
   25.9014    3.9539   33.1900 O   0  0  0  0  0  0  0  0  0  0  0  0
   26.2241    4.1197   30.7668 O   0  0  0  0  0  0  0  0  0  0  0  0
   26.8920   10.8433   26.4743 C   0  0  0  0  0  0  0  0  0  0  0  0
   24.1780    8.5948   29.8437 C   0  0  0  0  0  0  0  0  0  0  0  0
   24.5572    9.7813   29.0624 C   0  0  0  0  0  0  0  0  0  0  0  0
   25.4938    9.7015   28.1142 C   0  0  0  0  0  0  0  0  0  0  0  0
   25.8276   10.8604   27.2742 C   0  0  0  0  0  0  0  0  0  0  0  0
   24.4667    8.0327   33.5968 C   0  0  0  0  0  0  0  0  0  0  0  0
   32.4193   13.1274   22.8237 C   0  0  0  0  0  0  0  0  0  0  0  0
   21.2407    3.8850   34.0611 C   0  0  0  0  0  0  0  0  0  0  0  0
   32.8810   12.3185   23.8783 C   0  0  0  0  0  0  0  0  0  0  0  0
   22.1444    4.4383   34.9902 C   0  0  0  0  0  0  0  0  0  0  0  0
   29.9205   11.6222   27.1143 C   0  0  0  0  0  0  0  0  0  0  0  0
   27.8813   12.4971   22.6680 C   0  0  0  0  0  0  0  0  0  0  0  0
   28.2607   14.5660   24.1377 C   0  0  0  0  0  0  0  0  0  0  0  0
   22.4455    5.7158   30.0069 C   0  0  0  0  0  0  0  0  0  0  0  0
   20.5993    7.2121   30.9475 C   0  0  0  0  0  0  0  0  0  0  0  0
   29.4250   15.1747   28.6595 C   0  0  0  0  0  0  0  0  0  0  0  0
   27.5057    5.9481   32.2740 C   0  0  0  0  0  0  0  0  0  0  0  0
   30.6149   14.2854   21.6650 C   0  0  0  0  0  0  0  0  0  0  0  0
   20.1526    3.9158   31.8771 C   0  0  0  0  0  0  0  0  0  0  0  0
   20.4909    2.7487   34.4050 C   0  0  0  0  0  0  0  0  0  0  0  0
   33.3275   13.6135   21.8699 C   0  0  0  0  0  0  0  0  0  0  0  0
   25.7732    7.2235   33.6441 C   0  0  0  0  0  0  0  0  0  0  0  0
   30.2763   12.9739   27.7590 C   0  0  0  0  0  0  0  0  0  0  0  0
   29.0352   13.8332   28.0365 C   0  0  0  0  0  0  0  0  0  0  0  0
   26.3668    6.9800   32.2471 C   0  0  0  0  0  0  0  0  0  0  0  0
   19.4137    2.7860   32.2391 C   0  0  0  0  0  0  0  0  0  0  0  0
   31.5330   14.7616   20.7268 C   0  0  0  0  0  0  0  0  0  0  0  0
   32.8828   14.4265   20.8278 C   0  0  0  0  0  0  0  0  0  0  0  0
   19.5832    2.2039   33.4955 C   0  0  0  0  0  0  0  0  0  0  0  0
   23.5610    6.0066   35.3942 H   0  0  0  0  0  0  0  0  0  0  0  0
   32.3690   11.2132   25.6438 H   0  0  0  0  0  0  0  0  0  0  0  0
   26.3252   12.4940   25.1614 H   0  0  0  0  0  0  0  0  0  0  0  0
   23.0111    9.6678   31.2207 H   0  0  0  0  0  0  0  0  0  0  0  0
   27.5404    9.9772   26.4577 H   0  0  0  0  0  0  0  0  0  0  0  0
   24.5733    7.6274   29.5603 H   0  0  0  0  0  0  0  0  0  0  0  0
   24.0675   10.7273   29.2600 H   0  0  0  0  0  0  0  0  0  0  0  0
   26.0075    8.7641   27.9425 H   0  0  0  0  0  0  0  0  0  0  0  0
   25.1984   11.7406   27.3106 H   0  0  0  0  0  0  0  0  0  0  0  0
   24.6547    9.0194   33.1219 H   0  0  0  0  0  0  0  0  0  0  0  0
   24.1351    8.2407   34.6359 H   0  0  0  0  0  0  0  0  0  0  0  0
   33.9313   12.0673   23.9616 H   0  0  0  0  0  0  0  0  0  0  0  0
   22.2659    3.9958   35.9712 H   0  0  0  0  0  0  0  0  0  0  0  0
   29.0816   11.1626   27.6671 H   0  0  0  0  0  0  0  0  0  0  0  0
   30.7749   10.9278   27.2514 H   0  0  0  0  0  0  0  0  0  0  0  0
   26.7852   12.5449   22.8388 H   0  0  0  0  0  0  0  0  0  0  0  0
   28.1637   11.4310   22.5282 H   0  0  0  0  0  0  0  0  0  0  0  0
   28.0850   13.0317   21.7225 H   0  0  0  0  0  0  0  0  0  0  0  0
   28.9156   15.0026   24.9238 H   0  0  0  0  0  0  0  0  0  0  0  0
   28.3464   15.1912   23.2282 H   0  0  0  0  0  0  0  0  0  0  0  0
   27.2063   14.6342   24.4804 H   0  0  0  0  0  0  0  0  0  0  0  0
   21.7592    4.8972   29.7207 H   0  0  0  0  0  0  0  0  0  0  0  0
   22.5357    6.3873   29.1272 H   0  0  0  0  0  0  0  0  0  0  0  0
   23.4407    5.2700   30.2187 H   0  0  0  0  0  0  0  0  0  0  0  0
   19.8141    6.5094   30.6086 H   0  0  0  0  0  0  0  0  0  0  0  0
   20.7328    7.9710   30.1463 H   0  0  0  0  0  0  0  0  0  0  0  0
   20.2345    7.7318   31.8596 H   0  0  0  0  0  0  0  0  0  0  0  0
   29.9407   15.0059   29.6302 H   0  0  0  0  0  0  0  0  0  0  0  0
   30.1095   15.7256   27.9773 H   0  0  0  0  0  0  0  0  0  0  0  0
   28.1880    6.1435   31.4181 H   0  0  0  0  0  0  0  0  0  0  0  0
   28.1038    6.0357   33.2065 H   0  0  0  0  0  0  0  0  0  0  0  0
   29.5905   14.5821   21.5420 H   0  0  0  0  0  0  0  0  0  0  0  0
   19.9817    4.3277   30.8976 H   0  0  0  0  0  0  0  0  0  0  0  0
   20.6044    2.2844   35.3770 H   0  0  0  0  0  0  0  0  0  0  0  0
   34.3817   13.3669   21.9325 H   0  0  0  0  0  0  0  0  0  0  0  0
   26.5161    7.7804   34.2559 H   0  0  0  0  0  0  0  0  0  0  0  0
   25.5877    6.2593   34.1565 H   0  0  0  0  0  0  0  0  0  0  0  0
   30.9890   13.5307   27.1120 H   0  0  0  0  0  0  0  0  0  0  0  0
   30.7882   12.7738   28.7257 H   0  0  0  0  0  0  0  0  0  0  0  0
   28.4909   14.0293   27.0924 H   0  0  0  0  0  0  0  0  0  0  0  0
   28.3551   13.2871   28.7273 H   0  0  0  0  0  0  0  0  0  0  0  0
   25.5868    6.6352   31.5431 H   0  0  0  0  0  0  0  0  0  0  0  0
   26.7602    7.9458   31.8583 H   0  0  0  0  0  0  0  0  0  0  0  0
   18.7055    2.3588   31.5401 H   0  0  0  0  0  0  0  0  0  0  0  0
   31.1950   15.3931   19.9158 H   0  0  0  0  0  0  0  0  0  0  0  0
   33.5878   14.8008   20.0974 H   0  0  0  0  0  0  0  0  0  0  0  0
   19.0061    1.3290   33.7661 H   0  0  0  0  0  0  0  0  0  0  0  0
  2  1  1  0
  3  5  1  0
  4  5  1  0
  5 19  2  0
  6  1  2  0
  7  6  1  0
  8  2  2  0
  9  4  1  0
 10  3  1  0
 11 40  1  0
 12 41  1  0
 13  8  1  0
 14  9  2  0
 15  2  1  0
 16 10  2  0
 17 11  1  0
 18 12  1  0
 19 25  1  0
 20  6  1  0
 21 11  2  0
 22 11  2  0
 23 12  2  0
 24 12  2  0
 25 29  2  0
 26 20  2  0
 27 26  1  0
 28 27  2  0
 29 28  1  0
 30  1  1  0
 31 14  1  0
 32 34  1  0
 33 16  1  0
 34 15  2  0
 35  3  1  0
 36  4  1  0
 37  4  1  0
 38  7  1  0
 39  7  1  0
 40 48  1  0
 41 49  1  0
 42 14  1  0
 43 13  2  0
 44 32  2  0
 45 31  1  0
 46 30  1  0
 47 35  1  0
 48 47  1  0
 49 46  1  0
 50 43  1  0
 51 42  2  0
 52 51  1  0
 53 44  1  0
  7  8  1  0
 13 32  1  0
 53 50  2  0
 10  9  1  0
 31 33  2  0
 52 45  2  0
 15 54  1  0
 16 55  1  0
 19 56  1  0
 20 57  1  0
 25 58  1  0
 26 59  1  0
 27 60  1  0
 28 61  1  0
 29 62  1  0
 30 63  1  0
 30 64  1  0
 33 65  1  0
 34 66  1  0
 35 67  1  0
 35 68  1  0
 36 69  1  0
 36 70  1  0
 36 71  1  0
 37 72  1  0
 37 73  1  0
 37 74  1  0
 38 75  1  0
 38 76  1  0
 38 77  1  0
 39 78  1  0
 39 79  1  0
 39 80  1  0
 40 81  1  0
 40 82  1  0
 41 83  1  0
 41 84  1  0
 42 85  1  0
 43 86  1  0
 44 87  1  0
 45 88  1  0
 46 89  1  0
 46 90  1  0
 47 91  1  0
 47 92  1  0
 48 93  1  0
 48 94  1  0
 49 95  1  0
 49 96  1  0
 50 97  1  0
 51 98  1  0
 52 99  1  0
 53100  1  0
M  CHG  3   1   1  17  -1  18  -1
M  END
> <Uni-Dock RESULT> 
ENERGY=   -4.282  LOWER_BOUND=    4.047  UPPER_BOUND=   13.699
INTER + INTRA:          -4.282
INTER:                  -4.282
INTRA:                   0.000
UNBOUND:                 0.000

$$$$

     RDKit          3D

100105  0  0  0  0  0  0  0  0999 V2000
   34.0880    9.3572   27.9469 N   0  0  0  0  0  0  0  0  0  0  0  0
   34.5585    9.3518   29.2888 C   0  0  0  0  0  0  0  0  0  0  0  0
   27.3069   12.9262   20.7213 N   0  0  0  0  0  0  0  0  0  0  0  0
   28.0015   14.6814   19.1484 C   0  0  0  0  0  0  0  0  0  0  0  0
   28.3870   13.7853   20.3169 C   0  0  0  0  0  0  0  0  0  0  0  0
   34.1732   10.5776   27.4979 C   0  0  0  0  0  0  0  0  0  0  0  0
   34.7316   11.5549   28.5249 C   0  0  0  0  0  0  0  0  0  0  0  0
   34.9541   10.6105   29.6914 C   0  0  0  0  0  0  0  0  0  0  0  0
   26.5323   14.3270   18.9999 C   0  0  0  0  0  0  0  0  0  0  0  0
   26.2008   13.3496   19.9274 C   0  0  0  0  0  0  0  0  0  0  0  0
   30.9493    9.6890   17.6740 S   0  0  0  0  0  0  0  0  0  0  0  0
   29.8811    9.4060   29.9877 S   0  0  0  0  0  0  0  0  0  0  0  0
   35.4740   10.8190   30.9914 C   0  0  0  0  0  0  0  0  0  0  0  0
   25.5540   14.8121   18.0922 C   0  0  0  0  0  0  0  0  0  0  0  0
   34.6631    8.2414   30.1286 C   0  0  0  0  0  0  0  0  0  0  0  0
   24.9055   12.8344   20.0163 C   0  0  0  0  0  0  0  0  0  0  0  0
   31.0836    8.6741   16.3422 O   0  0  0  0  0  0  0  0  0  0  0  0
   28.4544    9.0566   30.8025 O   0  0  0  0  0  0  0  0  0  0  0  0
   29.5846   13.8523   20.9291 C   0  0  0  0  0  0  0  0  0  0  0  0
   33.8725   10.9419   26.0971 C   0  0  0  0  0  0  0  0  0  0  0  0
   31.2860   11.0941   17.2606 O   0  0  0  0  0  0  0  0  0  0  0  0
   31.9060    9.2393   18.7426 O   0  0  0  0  0  0  0  0  0  0  0  0
   31.0380    8.8233   30.7510 O   0  0  0  0  0  0  0  0  0  0  0  0
   30.0461   10.8969   29.9028 O   0  0  0  0  0  0  0  0  0  0  0  0
   29.8356   13.3367   22.2817 C   0  0  0  0  0  0  0  0  0  0  0  0
   32.7811   11.6350   25.7749 C   0  0  0  0  0  0  0  0  0  0  0  0
   32.4968   11.9944   24.3777 C   0  0  0  0  0  0  0  0  0  0  0  0
   31.3280   12.5448   24.0405 C   0  0  0  0  0  0  0  0  0  0  0  0
   31.0606   12.9793   22.6621 C   0  0  0  0  0  0  0  0  0  0  0  0
   33.5160    8.1998   27.2394 C   0  0  0  0  0  0  0  0  0  0  0  0
   24.2310   14.2893   18.1857 C   0  0  0  0  0  0  0  0  0  0  0  0
   35.5640    9.6951   31.8649 C   0  0  0  0  0  0  0  0  0  0  0  0
   23.9227   13.3102   19.1480 C   0  0  0  0  0  0  0  0  0  0  0  0
   35.1580    8.4196   31.4238 C   0  0  0  0  0  0  0  0  0  0  0  0
   27.4485   11.5287   21.1767 C   0  0  0  0  0  0  0  0  0  0  0  0
   28.1890   16.1626   19.5423 C   0  0  0  0  0  0  0  0  0  0  0  0
   28.8143   14.2958   17.8967 C   0  0  0  0  0  0  0  0  0  0  0  0
   33.6891   12.6385   28.8547 C   0  0  0  0  0  0  0  0  0  0  0  0
   36.0507   12.1541   28.0059 C   0  0  0  0  0  0  0  0  0  0  0  0
   29.2772    9.6270   18.2970 C   0  0  0  0  0  0  0  0  0  0  0  0
   29.7935    8.7199   28.3363 C   0  0  0  0  0  0  0  0  0  0  0  0
   25.8290   15.7760   17.1015 C   0  0  0  0  0  0  0  0  0  0  0  0
   35.9056   12.0764   31.4559 C   0  0  0  0  0  0  0  0  0  0  0  0
   36.0680    9.8586   33.1652 C   0  0  0  0  0  0  0  0  0  0  0  0
   23.2306   14.7494   17.3150 C   0  0  0  0  0  0  0  0  0  0  0  0
   32.1253    7.8430   27.7896 C   0  0  0  0  0  0  0  0  0  0  0  0
   27.6619   10.5596   20.0000 C   0  0  0  0  0  0  0  0  0  0  0  0
   29.1042   10.5863   19.4757 C   0  0  0  0  0  0  0  0  0  0  0  0
   31.0931    8.9569   27.5507 C   0  0  0  0  0  0  0  0  0  0  0  0
   36.4068   12.2183   32.7529 C   0  0  0  0  0  0  0  0  0  0  0  0
   24.8217   16.2201   16.2425 C   0  0  0  0  0  0  0  0  0  0  0  0
   23.5281   15.7102   16.3492 C   0  0  0  0  0  0  0  0  0  0  0  0
   36.4857   11.1159   33.6041 C   0  0  0  0  0  0  0  0  0  0  0  0
   34.3795    7.2536   29.7918 H   0  0  0  0  0  0  0  0  0  0  0  0
   24.6491   12.0814   20.7489 H   0  0  0  0  0  0  0  0  0  0  0  0
   30.3758   14.4327   20.4715 H   0  0  0  0  0  0  0  0  0  0  0  0
   34.5443   10.5884   25.3224 H   0  0  0  0  0  0  0  0  0  0  0  0
   29.0151   13.2830   22.9851 H   0  0  0  0  0  0  0  0  0  0  0  0
   32.0860   11.9344   26.5492 H   0  0  0  0  0  0  0  0  0  0  0  0
   33.2470   11.8111   23.6180 H   0  0  0  0  0  0  0  0  0  0  0  0
   30.5658   12.6943   24.7946 H   0  0  0  0  0  0  0  0  0  0  0  0
   31.8730   13.0054   21.9472 H   0  0  0  0  0  0  0  0  0  0  0  0
   33.4497    8.3839   26.1456 H   0  0  0  0  0  0  0  0  0  0  0  0
   34.1897    7.3272   27.3722 H   0  0  0  0  0  0  0  0  0  0  0  0
   22.9201   12.9074   19.2232 H   0  0  0  0  0  0  0  0  0  0  0  0
   35.2327    7.5606   32.0790 H   0  0  0  0  0  0  0  0  0  0  0  0
   28.2701   11.4063   21.9052 H   0  0  0  0  0  0  0  0  0  0  0  0
   26.5294   11.2290   21.7211 H   0  0  0  0  0  0  0  0  0  0  0  0
   29.2593   16.3869   19.7346 H   0  0  0  0  0  0  0  0  0  0  0  0
   27.6161   16.3892   20.4677 H   0  0  0  0  0  0  0  0  0  0  0  0
   27.8501   16.8565   18.7518 H   0  0  0  0  0  0  0  0  0  0  0  0
   28.5636   13.2616   17.5727 H   0  0  0  0  0  0  0  0  0  0  0  0
   28.6177   14.9817   17.0503 H   0  0  0  0  0  0  0  0  0  0  0  0
   29.9039   14.3440   18.1073 H   0  0  0  0  0  0  0  0  0  0  0  0
   34.0237   13.2972   29.6775 H   0  0  0  0  0  0  0  0  0  0  0  0
   33.5091   13.2868   27.9715 H   0  0  0  0  0  0  0  0  0  0  0  0
   32.7266   12.1738   29.1579 H   0  0  0  0  0  0  0  0  0  0  0  0
   36.4895   12.8747   28.7224 H   0  0  0  0  0  0  0  0  0  0  0  0
   35.8771   12.6989   27.0527 H   0  0  0  0  0  0  0  0  0  0  0  0
   36.7954   11.3514   27.8156 H   0  0  0  0  0  0  0  0  0  0  0  0
   29.0565    8.5861   18.6203 H   0  0  0  0  0  0  0  0  0  0  0  0
   28.5812    9.9056   17.4752 H   0  0  0  0  0  0  0  0  0  0  0  0
   28.9562    9.2248   27.8069 H   0  0  0  0  0  0  0  0  0  0  0  0
   29.5507    7.6369   28.3919 H   0  0  0  0  0  0  0  0  0  0  0  0
   26.8074   16.1974   16.9681 H   0  0  0  0  0  0  0  0  0  0  0  0
   35.8689   12.9574   30.8388 H   0  0  0  0  0  0  0  0  0  0  0  0
   36.1418    9.0146   33.8402 H   0  0  0  0  0  0  0  0  0  0  0  0
   22.2192   14.3632   17.3798 H   0  0  0  0  0  0  0  0  0  0  0  0
   31.7712    6.9147   27.2903 H   0  0  0  0  0  0  0  0  0  0  0  0
   32.2064    7.6195   28.8713 H   0  0  0  0  0  0  0  0  0  0  0  0
   26.9523   10.7949   19.1769 H   0  0  0  0  0  0  0  0  0  0  0  0
   27.4355    9.5296   20.3526 H   0  0  0  0  0  0  0  0  0  0  0  0
   29.3662   11.6080   19.1384 H   0  0  0  0  0  0  0  0  0  0  0  0
   29.8000   10.2973   20.2944 H   0  0  0  0  0  0  0  0  0  0  0  0
   31.5071    9.9433   27.8310 H   0  0  0  0  0  0  0  0  0  0  0  0
   30.8592    8.9930   26.4631 H   0  0  0  0  0  0  0  0  0  0  0  0
   36.7354   13.1899   33.1001 H   0  0  0  0  0  0  0  0  0  0  0  0
   25.0456   16.9652   15.4905 H   0  0  0  0  0  0  0  0  0  0  0  0
   22.7538   16.0587   15.6787 H   0  0  0  0  0  0  0  0  0  0  0  0
   36.8755   11.2364   34.6067 H   0  0  0  0  0  0  0  0  0  0  0  0
  2  1  1  0
  3  5  1  0
  4  5  1  0
  5 19  2  0
  6  1  2  0
  7  6  1  0
  8  2  2  0
  9  4  1  0
 10  3  1  0
 11 40  1  0
 12 41  1  0
 13  8  1  0
 14  9  2  0
 15  2  1  0
 16 10  2  0
 17 11  1  0
 18 12  1  0
 19 25  1  0
 20  6  1  0
 21 11  2  0
 22 11  2  0
 23 12  2  0
 24 12  2  0
 25 29  2  0
 26 20  2  0
 27 26  1  0
 28 27  2  0
 29 28  1  0
 30  1  1  0
 31 14  1  0
 32 34  1  0
 33 16  1  0
 34 15  2  0
 35  3  1  0
 36  4  1  0
 37  4  1  0
 38  7  1  0
 39  7  1  0
 40 48  1  0
 41 49  1  0
 42 14  1  0
 43 13  2  0
 44 32  2  0
 45 31  1  0
 46 30  1  0
 47 35  1  0
 48 47  1  0
 49 46  1  0
 50 43  1  0
 51 42  2  0
 52 51  1  0
 53 44  1  0
  7  8  1  0
 13 32  1  0
 53 50  2  0
 10  9  1  0
 31 33  2  0
 52 45  2  0
 15 54  1  0
 16 55  1  0
 19 56  1  0
 20 57  1  0
 25 58  1  0
 26 59  1  0
 27 60  1  0
 28 61  1  0
 29 62  1  0
 30 63  1  0
 30 64  1  0
 33 65  1  0
 34 66  1  0
 35 67  1  0
 35 68  1  0
 36 69  1  0
 36 70  1  0
 36 71  1  0
 37 72  1  0
 37 73  1  0
 37 74  1  0
 38 75  1  0
 38 76  1  0
 38 77  1  0
 39 78  1  0
 39 79  1  0
 39 80  1  0
 40 81  1  0
 40 82  1  0
 41 83  1  0
 41 84  1  0
 42 85  1  0
 43 86  1  0
 44 87  1  0
 45 88  1  0
 46 89  1  0
 46 90  1  0
 47 91  1  0
 47 92  1  0
 48 93  1  0
 48 94  1  0
 49 95  1  0
 49 96  1  0
 50 97  1  0
 51 98  1  0
 52 99  1  0
 53100  1  0
M  CHG  3   1   1  17  -1  18  -1
M  END
> <Uni-Dock RESULT> 
ENERGY=   -3.848  LOWER_BOUND=    5.697  UPPER_BOUND=   13.099
INTER + INTRA:          -3.848
INTER:                  -3.848
INTRA:                   0.000
UNBOUND:                 0.000

$$$$

     RDKit          3D

100105  0  0  0  0  0  0  0  0999 V2000
   28.1285    5.3828   31.1501 N   0  0  0  0  0  0  0  0  0  0  0  0
   28.1826    4.0893   31.7384 C   0  0  0  0  0  0  0  0  0  0  0  0
   33.0229   14.2483   28.2556 N   0  0  0  0  0  0  0  0  0  0  0  0
   33.6500   14.5918   25.9049 C   0  0  0  0  0  0  0  0  0  0  0  0
   33.0033   13.6774   26.9358 C   0  0  0  0  0  0  0  0  0  0  0  0
   28.9415    5.3935   30.1317 C   0  0  0  0  0  0  0  0  0  0  0  0
   29.6507    4.0617   29.9187 C   0  0  0  0  0  0  0  0  0  0  0  0
   29.0564    3.2625   31.0633 C   0  0  0  0  0  0  0  0  0  0  0  0
   34.1553   15.7079   26.8022 C   0  0  0  0  0  0  0  0  0  0  0  0
   33.7875   15.4433   28.1137 C   0  0  0  0  0  0  0  0  0  0  0  0
   27.6863   14.9285   26.2332 S   0  0  0  0  0  0  0  0  0  0  0  0
   31.0100    6.5107   34.6558 S   0  0  0  0  0  0  0  0  0  0  0  0
   29.2424    1.9217   31.4776 C   0  0  0  0  0  0  0  0  0  0  0  0
   34.8701   16.8934   26.4856 C   0  0  0  0  0  0  0  0  0  0  0  0
   27.4442    3.6439   32.8365 C   0  0  0  0  0  0  0  0  0  0  0  0
   34.1248   16.3087   29.1571 C   0  0  0  0  0  0  0  0  0  0  0  0
   26.4868   16.0578   25.9052 O   0  0  0  0  0  0  0  0  0  0  0  0
   31.7262    6.8828   36.1289 O   0  0  0  0  0  0  0  0  0  0  0  0
   32.5332   12.4514   26.6369 C   0  0  0  0  0  0  0  0  0  0  0  0
   29.0632    6.5443   29.2120 C   0  0  0  0  0  0  0  0  0  0  0  0
   28.5137   14.7133   24.9973 O   0  0  0  0  0  0  0  0  0  0  0  0
   27.0502   13.6293   26.6417 O   0  0  0  0  0  0  0  0  0  0  0  0
   30.0832    5.3414   34.8417 O   0  0  0  0  0  0  0  0  0  0  0  0
   32.0803    6.1407   33.6685 O   0  0  0  0  0  0  0  0  0  0  0  0
   32.3078   11.4012   27.6391 C   0  0  0  0  0  0  0  0  0  0  0  0
   30.1466    7.3200   29.2037 C   0  0  0  0  0  0  0  0  0  0  0  0
   30.2560    8.4589   28.2801 C   0  0  0  0  0  0  0  0  0  0  0  0
   31.2659    9.3261   28.3850 C   0  0  0  0  0  0  0  0  0  0  0  0
   31.4300   10.4238   27.4216 C   0  0  0  0  0  0  0  0  0  0  0  0
   27.3607    6.5253   31.6720 C   0  0  0  0  0  0  0  0  0  0  0  0
   35.2178   17.7744   27.5510 C   0  0  0  0  0  0  0  0  0  0  0  0
   28.5096    1.4635   32.6122 C   0  0  0  0  0  0  0  0  0  0  0  0
   34.8441   17.4698   28.8728 C   0  0  0  0  0  0  0  0  0  0  0  0
   27.6191    2.3292   33.2783 C   0  0  0  0  0  0  0  0  0  0  0  0
   31.9440   14.1287   29.2566 C   0  0  0  0  0  0  0  0  0  0  0  0
   34.8148   13.8537   25.2099 C   0  0  0  0  0  0  0  0  0  0  0  0
   32.5894   15.0944   24.9056 C   0  0  0  0  0  0  0  0  0  0  0  0
   31.1727    4.2357   30.0699 C   0  0  0  0  0  0  0  0  0  0  0  0
   29.2638    3.4826   28.5464 C   0  0  0  0  0  0  0  0  0  0  0  0
   28.7219   15.5347   27.5553 C   0  0  0  0  0  0  0  0  0  0  0  0
   30.1190    7.9452   34.0610 C   0  0  0  0  0  0  0  0  0  0  0  0
   35.2436   17.2436   25.1725 C   0  0  0  0  0  0  0  0  0  0  0  0
   30.1099    1.0265   30.8226 C   0  0  0  0  0  0  0  0  0  0  0  0
   28.6689    0.1425   33.0607 C   0  0  0  0  0  0  0  0  0  0  0  0
   35.9340   18.9519   27.2836 C   0  0  0  0  0  0  0  0  0  0  0  0
   27.9875    7.0730   32.9648 C   0  0  0  0  0  0  0  0  0  0  0  0
   30.7737   15.0826   28.9570 C   0  0  0  0  0  0  0  0  0  0  0  0
   29.8623   14.5559   27.8400 C   0  0  0  0  0  0  0  0  0  0  0  0
   29.3916    7.6565   32.7381 C   0  0  0  0  0  0  0  0  0  0  0  0
   30.2529   -0.2855   31.2828 C   0  0  0  0  0  0  0  0  0  0  0  0
   35.9537   18.4202   24.9253 C   0  0  0  0  0  0  0  0  0  0  0  0
   36.2984   19.2701   25.9757 C   0  0  0  0  0  0  0  0  0  0  0  0
   29.5380   -0.7250   32.3972 C   0  0  0  0  0  0  0  0  0  0  0  0
   26.7384    4.2914   33.3388 H   0  0  0  0  0  0  0  0  0  0  0  0
   33.8463   16.0921   30.1793 H   0  0  0  0  0  0  0  0  0  0  0  0
   32.4413   12.1640   25.5970 H   0  0  0  0  0  0  0  0  0  0  0  0
   28.2212    6.7742   28.5679 H   0  0  0  0  0  0  0  0  0  0  0  0
   32.8927   11.4081   28.5494 H   0  0  0  0  0  0  0  0  0  0  0  0
   30.9586    7.1172   29.8906 H   0  0  0  0  0  0  0  0  0  0  0  0
   29.5088    8.5906   27.5069 H   0  0  0  0  0  0  0  0  0  0  0  0
   31.9916    9.2136   29.1804 H   0  0  0  0  0  0  0  0  0  0  0  0
   30.8248   10.4366   26.5240 H   0  0  0  0  0  0  0  0  0  0  0  0
   27.2818    7.3397   30.9203 H   0  0  0  0  0  0  0  0  0  0  0  0
   26.3232    6.1938   31.8881 H   0  0  0  0  0  0  0  0  0  0  0  0
   35.1035   18.1357   29.6866 H   0  0  0  0  0  0  0  0  0  0  0  0
   27.0527    1.9845   34.1345 H   0  0  0  0  0  0  0  0  0  0  0  0
   31.5618   13.0954   29.3397 H   0  0  0  0  0  0  0  0  0  0  0  0
   32.3508   14.3703   30.2601 H   0  0  0  0  0  0  0  0  0  0  0  0
   34.4400   12.9856   24.6280 H   0  0  0  0  0  0  0  0  0  0  0  0
   35.5368   13.4775   25.9669 H   0  0  0  0  0  0  0  0  0  0  0  0
   35.3656   14.5023   24.5047 H   0  0  0  0  0  0  0  0  0  0  0  0
   31.8314   15.7217   25.4245 H   0  0  0  0  0  0  0  0  0  0  0  0
   33.0409   15.6964   24.0936 H   0  0  0  0  0  0  0  0  0  0  0  0
   32.0685   14.2392   24.4246 H   0  0  0  0  0  0  0  0  0  0  0  0
   31.7053    3.2673   30.0302 H   0  0  0  0  0  0  0  0  0  0  0  0
   31.5762    4.8628   29.2473 H   0  0  0  0  0  0  0  0  0  0  0  0
   31.4152    4.7204   31.0396 H   0  0  0  0  0  0  0  0  0  0  0  0
   29.7616    2.5138   28.3494 H   0  0  0  0  0  0  0  0  0  0  0  0
   29.5647    4.1807   27.7355 H   0  0  0  0  0  0  0  0  0  0  0  0
   28.1646    3.3310   28.4830 H   0  0  0  0  0  0  0  0  0  0  0  0
   28.0970   15.6634   28.4661 H   0  0  0  0  0  0  0  0  0  0  0  0
   29.1355   16.5236   27.2578 H   0  0  0  0  0  0  0  0  0  0  0  0
   30.8611    8.7559   33.8936 H   0  0  0  0  0  0  0  0  0  0  0  0
   29.4088    8.2961   34.8404 H   0  0  0  0  0  0  0  0  0  0  0  0
   34.9986   16.6321   24.3249 H   0  0  0  0  0  0  0  0  0  0  0  0
   30.6816    1.3139   29.9572 H   0  0  0  0  0  0  0  0  0  0  0  0
   28.1198   -0.2196   33.9212 H   0  0  0  0  0  0  0  0  0  0  0  0
   36.2090   19.6275   28.0862 H   0  0  0  0  0  0  0  0  0  0  0  0
   27.3295    7.8725   33.3697 H   0  0  0  0  0  0  0  0  0  0  0  0
   28.0241    6.2669   33.7234 H   0  0  0  0  0  0  0  0  0  0  0  0
   31.1602   16.0906   28.6906 H   0  0  0  0  0  0  0  0  0  0  0  0
   30.1676   15.1907   29.8830 H   0  0  0  0  0  0  0  0  0  0  0  0
   30.4455   14.4158   26.9091 H   0  0  0  0  0  0  0  0  0  0  0  0
   29.4398   13.5718   28.1414 H   0  0  0  0  0  0  0  0  0  0  0  0
   30.0098    6.9690   32.1313 H   0  0  0  0  0  0  0  0  0  0  0  0
   29.2905    8.6047   32.1641 H   0  0  0  0  0  0  0  0  0  0  0  0
   30.9232   -0.9655   30.7720 H   0  0  0  0  0  0  0  0  0  0  0  0
   36.2394   18.6735   23.9129 H   0  0  0  0  0  0  0  0  0  0  0  0
   36.8476   20.1805   25.7753 H   0  0  0  0  0  0  0  0  0  0  0  0
   29.6558   -1.7430   32.7455 H   0  0  0  0  0  0  0  0  0  0  0  0
  2  1  1  0
  3  5  1  0
  4  5  1  0
  5 19  2  0
  6  1  2  0
  7  6  1  0
  8  2  2  0
  9  4  1  0
 10  3  1  0
 11 40  1  0
 12 41  1  0
 13  8  1  0
 14  9  2  0
 15  2  1  0
 16 10  2  0
 17 11  1  0
 18 12  1  0
 19 25  1  0
 20  6  1  0
 21 11  2  0
 22 11  2  0
 23 12  2  0
 24 12  2  0
 25 29  2  0
 26 20  2  0
 27 26  1  0
 28 27  2  0
 29 28  1  0
 30  1  1  0
 31 14  1  0
 32 34  1  0
 33 16  1  0
 34 15  2  0
 35  3  1  0
 36  4  1  0
 37  4  1  0
 38  7  1  0
 39  7  1  0
 40 48  1  0
 41 49  1  0
 42 14  1  0
 43 13  2  0
 44 32  2  0
 45 31  1  0
 46 30  1  0
 47 35  1  0
 48 47  1  0
 49 46  1  0
 50 43  1  0
 51 42  2  0
 52 51  1  0
 53 44  1  0
  7  8  1  0
 13 32  1  0
 53 50  2  0
 10  9  1  0
 31 33  2  0
 52 45  2  0
 15 54  1  0
 16 55  1  0
 19 56  1  0
 20 57  1  0
 25 58  1  0
 26 59  1  0
 27 60  1  0
 28 61  1  0
 29 62  1  0
 30 63  1  0
 30 64  1  0
 33 65  1  0
 34 66  1  0
 35 67  1  0
 35 68  1  0
 36 69  1  0
 36 70  1  0
 36 71  1  0
 37 72  1  0
 37 73  1  0
 37 74  1  0
 38 75  1  0
 38 76  1  0
 38 77  1  0
 39 78  1  0
 39 79  1  0
 39 80  1  0
 40 81  1  0
 40 82  1  0
 41 83  1  0
 41 84  1  0
 42 85  1  0
 43 86  1  0
 44 87  1  0
 45 88  1  0
 46 89  1  0
 46 90  1  0
 47 91  1  0
 47 92  1  0
 48 93  1  0
 48 94  1  0
 49 95  1  0
 49 96  1  0
 50 97  1  0
 51 98  1  0
 52 99  1  0
 53100  1  0
M  CHG  3   1   1  17  -1  18  -1
M  END
> <Uni-Dock RESULT> 
ENERGY=   -3.771  LOWER_BOUND=    2.419  UPPER_BOUND=   13.760
INTER + INTRA:          -3.771
INTER:                  -3.771
INTRA:                   0.000
UNBOUND:                 0.000

$$$$

     RDKit          3D

100105  0  0  0  0  0  0  0  0999 V2000
   27.8945    4.6423   31.1866 N   0  0  0  0  0  0  0  0  0  0  0  0
   27.8762    3.5473   32.0935 C   0  0  0  0  0  0  0  0  0  0  0  0
   32.7352   13.1789   27.3623 N   0  0  0  0  0  0  0  0  0  0  0  0
   33.9731   13.0415   25.2443 C   0  0  0  0  0  0  0  0  0  0  0  0
   33.1313   12.3144   26.2835 C   0  0  0  0  0  0  0  0  0  0  0  0
   28.9588    4.5284   30.4432 C   0  0  0  0  0  0  0  0  0  0  0  0
   29.7960    3.3011   30.7818 C   0  0  0  0  0  0  0  0  0  0  0  0
   28.9638    2.7191   31.9091 C   0  0  0  0  0  0  0  0  0  0  0  0
   34.1203   14.3997   25.9075 C   0  0  0  0  0  0  0  0  0  0  0  0
   33.4179   14.4037   27.1041 C   0  0  0  0  0  0  0  0  0  0  0  0
   28.1514   12.5808   23.9472 S   0  0  0  0  0  0  0  0  0  0  0  0
   29.5774    6.9746   34.8736 S   0  0  0  0  0  0  0  0  0  0  0  0
   29.1242    1.5564   32.7005 C   0  0  0  0  0  0  0  0  0  0  0  0
   34.8054   15.5666   25.4769 C   0  0  0  0  0  0  0  0  0  0  0  0
   26.8930    3.2734   33.0463 C   0  0  0  0  0  0  0  0  0  0  0  0
   33.3818   15.5315   27.9277 C   0  0  0  0  0  0  0  0  0  0  0  0
   27.0128   13.4144   23.0358 O   0  0  0  0  0  0  0  0  0  0  0  0
   29.8190    7.7852   36.3247 O   0  0  0  0  0  0  0  0  0  0  0  0
   32.8570   10.9978   26.2148 C   0  0  0  0  0  0  0  0  0  0  0  0
   29.2495    5.4332   29.3109 C   0  0  0  0  0  0  0  0  0  0  0  0
   29.3075   12.2003   23.0659 O   0  0  0  0  0  0  0  0  0  0  0  0
   27.5240   11.3378   24.5137 O   0  0  0  0  0  0  0  0  0  0  0  0
   28.7252    5.7615   35.1246 O   0  0  0  0  0  0  0  0  0  0  0  0
   30.9072    6.5395   34.3263 O   0  0  0  0  0  0  0  0  0  0  0  0
   32.4364   10.1943   27.3706 C   0  0  0  0  0  0  0  0  0  0  0  0
   30.2304    6.3329   29.3701 C   0  0  0  0  0  0  0  0  0  0  0  0
   30.5113    7.2235   28.2343 C   0  0  0  0  0  0  0  0  0  0  0  0
   31.3833    8.2274   28.3555 C   0  0  0  0  0  0  0  0  0  0  0  0
   31.7307    9.0769   27.2076 C   0  0  0  0  0  0  0  0  0  0  0  0
   26.9281    5.7527   31.1710 C   0  0  0  0  0  0  0  0  0  0  0  0
   34.7719   16.7162   26.3193 C   0  0  0  0  0  0  0  0  0  0  0  0
   28.1371    1.2797   33.6920 C   0  0  0  0  0  0  0  0  0  0  0  0
   34.0639   16.6833   27.5348 C   0  0  0  0  0  0  0  0  0  0  0  0
   27.0331    2.1406   33.8535 C   0  0  0  0  0  0  0  0  0  0  0  0
   31.4296   13.1457   28.0512 C   0  0  0  0  0  0  0  0  0  0  0  0
   35.3380   12.3359   25.0913 C   0  0  0  0  0  0  0  0  0  0  0  0
   33.2034   13.1338   23.9119 C   0  0  0  0  0  0  0  0  0  0  0  0
   31.1962    3.7240   31.2615 C   0  0  0  0  0  0  0  0  0  0  0  0
   29.8562    2.3630   29.5633 C   0  0  0  0  0  0  0  0  0  0  0  0
   28.7237   13.6267   25.2764 C   0  0  0  0  0  0  0  0  0  0  0  0
   28.7866    8.0825   33.7105 C   0  0  0  0  0  0  0  0  0  0  0  0
   35.5072   15.6454   24.2573 C   0  0  0  0  0  0  0  0  0  0  0  0
   30.2053    0.6664   32.5513 C   0  0  0  0  0  0  0  0  0  0  0  0
   28.2609    0.1402   34.5031 C   0  0  0  0  0  0  0  0  0  0  0  0
   35.4450   17.8873   25.9370 C   0  0  0  0  0  0  0  0  0  0  0  0
   27.1220    6.6763   32.3848 C   0  0  0  0  0  0  0  0  0  0  0  0
   30.3241   13.8217   27.2205 C   0  0  0  0  0  0  0  0  0  0  0  0
   29.8067   12.9189   26.0922 C   0  0  0  0  0  0  0  0  0  0  0  0
   28.4857    7.3860   32.3738 C   0  0  0  0  0  0  0  0  0  0  0  0
   30.3094   -0.4640   33.3668 C   0  0  0  0  0  0  0  0  0  0  0  0
   36.1689   16.8196   23.8923 C   0  0  0  0  0  0  0  0  0  0  0  0
   36.1391   17.9351   24.7285 C   0  0  0  0  0  0  0  0  0  0  0  0
   29.3437   -0.7250   34.3391 C   0  0  0  0  0  0  0  0  0  0  0  0
   26.0281    3.9125   33.1608 H   0  0  0  0  0  0  0  0  0  0  0  0
   32.8430   15.5257   28.8653 H   0  0  0  0  0  0  0  0  0  0  0  0
   33.0840   10.4616   25.3020 H   0  0  0  0  0  0  0  0  0  0  0  0
   28.6088    5.3793   28.4372 H   0  0  0  0  0  0  0  0  0  0  0  0
   32.7384   10.5015   28.3631 H   0  0  0  0  0  0  0  0  0  0  0  0
   30.8283    6.4185   30.2688 H   0  0  0  0  0  0  0  0  0  0  0  0
   30.0051    7.0584   27.2909 H   0  0  0  0  0  0  0  0  0  0  0  0
   31.8613    8.4131   29.3090 H   0  0  0  0  0  0  0  0  0  0  0  0
   31.4043    8.7886   26.2165 H   0  0  0  0  0  0  0  0  0  0  0  0
   27.0044    6.3452   30.2341 H   0  0  0  0  0  0  0  0  0  0  0  0
   25.8993    5.3357   31.1976 H   0  0  0  0  0  0  0  0  0  0  0  0
   34.0329   17.5537   28.1787 H   0  0  0  0  0  0  0  0  0  0  0  0
   26.2752    1.9309   34.5981 H   0  0  0  0  0  0  0  0  0  0  0  0
   31.1172   12.1176   28.3084 H   0  0  0  0  0  0  0  0  0  0  0  0
   31.5175   13.6749   29.0224 H   0  0  0  0  0  0  0  0  0  0  0  0
   35.2082   11.3097   24.6879 H   0  0  0  0  0  0  0  0  0  0  0  0
   35.8429   12.2586   26.0787 H   0  0  0  0  0  0  0  0  0  0  0  0
   36.0158   12.8712   24.4017 H   0  0  0  0  0  0  0  0  0  0  0  0
   32.2854   13.7500   24.0341 H   0  0  0  0  0  0  0  0  0  0  0  0
   33.8197   13.5845   23.1104 H   0  0  0  0  0  0  0  0  0  0  0  0
   32.9044   12.1228   23.5618 H   0  0  0  0  0  0  0  0  0  0  0  0
   31.7886    2.8614   31.6191 H   0  0  0  0  0  0  0  0  0  0  0  0
   31.7678    4.1895   30.4312 H   0  0  0  0  0  0  0  0  0  0  0  0
   31.1185    4.4549   32.0946 H   0  0  0  0  0  0  0  0  0  0  0  0
   30.4599    1.4577   29.7658 H   0  0  0  0  0  0  0  0  0  0  0  0
   30.3212    2.8846   28.6988 H   0  0  0  0  0  0  0  0  0  0  0  0
   28.8340    2.0435   29.2662 H   0  0  0  0  0  0  0  0  0  0  0  0
   27.8593   13.8762   25.9300 H   0  0  0  0  0  0  0  0  0  0  0  0
   29.1299   14.5658   24.8398 H   0  0  0  0  0  0  0  0  0  0  0  0
   29.4836    8.9289   33.5259 H   0  0  0  0  0  0  0  0  0  0  0  0
   27.8614    8.5020   34.1609 H   0  0  0  0  0  0  0  0  0  0  0  0
   35.5576   14.8213   23.5710 H   0  0  0  0  0  0  0  0  0  0  0  0
   30.9750    0.8197   31.8149 H   0  0  0  0  0  0  0  0  0  0  0  0
   27.5195   -0.0828   35.2607 H   0  0  0  0  0  0  0  0  0  0  0  0
   35.4314   18.7665   26.5717 H   0  0  0  0  0  0  0  0  0  0  0  0
   26.3191    7.4454   32.3803 H   0  0  0  0  0  0  0  0  0  0  0  0
   27.0027    6.0874   33.3152 H   0  0  0  0  0  0  0  0  0  0  0  0
   30.6941   14.7827   26.8009 H   0  0  0  0  0  0  0  0  0  0  0  0
   29.4749   14.0578   27.8987 H   0  0  0  0  0  0  0  0  0  0  0  0
   30.6377   12.6476   25.4124 H   0  0  0  0  0  0  0  0  0  0  0  0
   29.3905   11.9840   26.5289 H   0  0  0  0  0  0  0  0  0  0  0  0
   29.2993    6.6709   32.1506 H   0  0  0  0  0  0  0  0  0  0  0  0
   28.4807    8.1460   31.5607 H   0  0  0  0  0  0  0  0  0  0  0  0
   31.1452   -1.1416   33.2441 H   0  0  0  0  0  0  0  0  0  0  0  0
   36.7092   16.8638   22.9559 H   0  0  0  0  0  0  0  0  0  0  0  0
   36.6534   18.8415   24.4375 H   0  0  0  0  0  0  0  0  0  0  0  0
   29.4336   -1.6032   34.9654 H   0  0  0  0  0  0  0  0  0  0  0  0
  2  1  1  0
  3  5  1  0
  4  5  1  0
  5 19  2  0
  6  1  2  0
  7  6  1  0
  8  2  2  0
  9  4  1  0
 10  3  1  0
 11 40  1  0
 12 41  1  0
 13  8  1  0
 14  9  2  0
 15  2  1  0
 16 10  2  0
 17 11  1  0
 18 12  1  0
 19 25  1  0
 20  6  1  0
 21 11  2  0
 22 11  2  0
 23 12  2  0
 24 12  2  0
 25 29  2  0
 26 20  2  0
 27 26  1  0
 28 27  2  0
 29 28  1  0
 30  1  1  0
 31 14  1  0
 32 34  1  0
 33 16  1  0
 34 15  2  0
 35  3  1  0
 36  4  1  0
 37  4  1  0
 38  7  1  0
 39  7  1  0
 40 48  1  0
 41 49  1  0
 42 14  1  0
 43 13  2  0
 44 32  2  0
 45 31  1  0
 46 30  1  0
 47 35  1  0
 48 47  1  0
 49 46  1  0
 50 43  1  0
 51 42  2  0
 52 51  1  0
 53 44  1  0
  7  8  1  0
 13 32  1  0
 53 50  2  0
 10  9  1  0
 31 33  2  0
 52 45  2  0
 15 54  1  0
 16 55  1  0
 19 56  1  0
 20 57  1  0
 25 58  1  0
 26 59  1  0
 27 60  1  0
 28 61  1  0
 29 62  1  0
 30 63  1  0
 30 64  1  0
 33 65  1  0
 34 66  1  0
 35 67  1  0
 35 68  1  0
 36 69  1  0
 36 70  1  0
 36 71  1  0
 37 72  1  0
 37 73  1  0
 37 74  1  0
 38 75  1  0
 38 76  1  0
 38 77  1  0
 39 78  1  0
 39 79  1  0
 39 80  1  0
 40 81  1  0
 40 82  1  0
 41 83  1  0
 41 84  1  0
 42 85  1  0
 43 86  1  0
 44 87  1  0
 45 88  1  0
 46 89  1  0
 46 90  1  0
 47 91  1  0
 47 92  1  0
 48 93  1  0
 48 94  1  0
 49 95  1  0
 49 96  1  0
 50 97  1  0
 51 98  1  0
 52 99  1  0
 53100  1  0
M  CHG  3   1   1  17  -1  18  -1
M  END
> <Uni-Dock RESULT> 
ENERGY=   -3.648  LOWER_BOUND=    2.399  UPPER_BOUND=   13.763
INTER + INTRA:          -3.648
INTER:                  -3.648
INTRA:                   0.000
UNBOUND:                 0.000

$$$$

     RDKit          3D

100105  0  0  0  0  0  0  0  0999 V2000
   29.2079    5.6154   32.9921 N   0  0  0  0  0  0  0  0  0  0  0  0
   29.2095    4.2712   33.4556 C   0  0  0  0  0  0  0  0  0  0  0  0
   32.4985   12.8286   26.0586 N   0  0  0  0  0  0  0  0  0  0  0  0
   31.0232   13.5277   24.2224 C   0  0  0  0  0  0  0  0  0  0  0  0
   31.2087   12.6460   25.4493 C   0  0  0  0  0  0  0  0  0  0  0  0
   28.7611    5.6161   31.7679 C   0  0  0  0  0  0  0  0  0  0  0  0
   28.4002    4.2246   31.2624 C   0  0  0  0  0  0  0  0  0  0  0  0
   28.7452    3.4023   32.4900 C   0  0  0  0  0  0  0  0  0  0  0  0
   32.4024   14.1551   24.1204 C   0  0  0  0  0  0  0  0  0  0  0  0
   33.1894   13.7044   25.1706 C   0  0  0  0  0  0  0  0  0  0  0  0
   28.7135   15.6950   29.2973 S   0  0  0  0  0  0  0  0  0  0  0  0
   33.7674    4.8245   32.3204 S   0  0  0  0  0  0  0  0  0  0  0  0
   28.6484    2.0156   32.7574 C   0  0  0  0  0  0  0  0  0  0  0  0
   32.9264   15.0822   23.1812 C   0  0  0  0  0  0  0  0  0  0  0  0
   29.5875    3.8300   34.7252 C   0  0  0  0  0  0  0  0  0  0  0  0
   34.5138   14.1213   25.3239 C   0  0  0  0  0  0  0  0  0  0  0  0
   28.3392   17.1975   29.9486 O   0  0  0  0  0  0  0  0  0  0  0  0
   35.4199    4.5605   32.4637 O   0  0  0  0  0  0  0  0  0  0  0  0
   30.2848   11.7568   25.8604 C   0  0  0  0  0  0  0  0  0  0  0  0
   28.5177    6.8564   31.0013 C   0  0  0  0  0  0  0  0  0  0  0  0
   28.0116   15.5396   27.9777 O   0  0  0  0  0  0  0  0  0  0  0  0
   28.2555   14.6154   30.2376 O   0  0  0  0  0  0  0  0  0  0  0  0
   33.0483    4.0140   33.3628 O   0  0  0  0  0  0  0  0  0  0  0  0
   33.3161    4.3865   30.9559 O   0  0  0  0  0  0  0  0  0  0  0  0
   30.5861   10.6213   26.7425 C   0  0  0  0  0  0  0  0  0  0  0  0
   29.2997    7.2125   29.9829 C   0  0  0  0  0  0  0  0  0  0  0  0
   29.0431    8.4469   29.2262 C   0  0  0  0  0  0  0  0  0  0  0  0
   29.9179    8.8820   28.3161 C   0  0  0  0  0  0  0  0  0  0  0  0
   29.6382   10.0710   27.4987 C   0  0  0  0  0  0  0  0  0  0  0  0
   29.7182    6.7759   33.7405 C   0  0  0  0  0  0  0  0  0  0  0  0
   34.2793   15.5045   23.3353 C   0  0  0  0  0  0  0  0  0  0  0  0
   29.0534    1.5518   34.0439 C   0  0  0  0  0  0  0  0  0  0  0  0
   35.0565   15.0167   24.4018 C   0  0  0  0  0  0  0  0  0  0  0  0
   29.5178    2.4637   35.0128 C   0  0  0  0  0  0  0  0  0  0  0  0
   32.7691   12.8197   27.5102 C   0  0  0  0  0  0  0  0  0  0  0  0
   30.7088   12.6500   22.9914 C   0  0  0  0  0  0  0  0  0  0  0  0
   29.9313   14.5822   24.4901 C   0  0  0  0  0  0  0  0  0  0  0  0
   29.2784    3.8494   30.0551 C   0  0  0  0  0  0  0  0  0  0  0  0
   26.8985    4.1674   30.9309 C   0  0  0  0  0  0  0  0  0  0  0  0
   30.4793   15.5782   29.0596 C   0  0  0  0  0  0  0  0  0  0  0  0
   33.4352    6.5717   32.5269 C   0  0  0  0  0  0  0  0  0  0  0  0
   32.1736   15.6095   22.1128 C   0  0  0  0  0  0  0  0  0  0  0  0
   28.1711    1.0815   31.8179 C   0  0  0  0  0  0  0  0  0  0  0  0
   28.9797    0.1832   34.3490 C   0  0  0  0  0  0  0  0  0  0  0  0
   34.8405   16.4116   22.4226 C   0  0  0  0  0  0  0  0  0  0  0  0
   31.2525    6.7463   33.8349 C   0  0  0  0  0  0  0  0  0  0  0  0
   32.3636   14.1457   28.1785 C   0  0  0  0  0  0  0  0  0  0  0  0
   30.8497   14.2431   28.4117 C   0  0  0  0  0  0  0  0  0  0  0  0
   31.9303    6.8777   32.4613 C   0  0  0  0  0  0  0  0  0  0  0  0
   28.1029   -0.2765   32.1415 C   0  0  0  0  0  0  0  0  0  0  0  0
   32.7479   16.5128   21.2160 C   0  0  0  0  0  0  0  0  0  0  0  0
   34.0754   16.9113   21.3692 C   0  0  0  0  0  0  0  0  0  0  0  0
   28.5069   -0.7240   33.3995 C   0  0  0  0  0  0  0  0  0  0  0  0
   29.9201    4.5239   35.4851 H   0  0  0  0  0  0  0  0  0  0  0  0
   35.1269   13.7579   26.1372 H   0  0  0  0  0  0  0  0  0  0  0  0
   29.2963   11.7858   25.4197 H   0  0  0  0  0  0  0  0  0  0  0  0
   27.7061    7.5019   31.3192 H   0  0  0  0  0  0  0  0  0  0  0  0
   31.5863   10.2084   26.7460 H   0  0  0  0  0  0  0  0  0  0  0  0
   30.1426    6.5906   29.7089 H   0  0  0  0  0  0  0  0  0  0  0  0
   28.1328    9.0045   29.4106 H   0  0  0  0  0  0  0  0  0  0  0  0
   30.8437    8.3433   28.1586 H   0  0  0  0  0  0  0  0  0  0  0  0
   28.6467   10.5052   27.5160 H   0  0  0  0  0  0  0  0  0  0  0  0
   29.3900    7.7327   33.2807 H   0  0  0  0  0  0  0  0  0  0  0  0
   29.2946    6.7575   34.7668 H   0  0  0  0  0  0  0  0  0  0  0  0
   36.0844   15.3348   24.5258 H   0  0  0  0  0  0  0  0  0  0  0  0
   29.8178    2.1191   35.9946 H   0  0  0  0  0  0  0  0  0  0  0  0
   32.2663   11.9815   28.0253 H   0  0  0  0  0  0  0  0  0  0  0  0
   33.8536   12.6555   27.6768 H   0  0  0  0  0  0  0  0  0  0  0  0
   29.7376   12.1269   23.1180 H   0  0  0  0  0  0  0  0  0  0  0  0
   31.5007   11.8817   22.8555 H   0  0  0  0  0  0  0  0  0  0  0  0
   30.6399   13.2388   22.0588 H   0  0  0  0  0  0  0  0  0  0  0  0
   30.2460   15.2707   25.3052 H   0  0  0  0  0  0  0  0  0  0  0  0
   29.7135   15.1877   23.5893 H   0  0  0  0  0  0  0  0  0  0  0  0
   28.9801   14.0932   24.7903 H   0  0  0  0  0  0  0  0  0  0  0  0
   29.1164    2.8032   29.7354 H   0  0  0  0  0  0  0  0  0  0  0  0
   29.0400    4.4961   29.1846 H   0  0  0  0  0  0  0  0  0  0  0  0
   30.3545    3.9687   30.3038 H   0  0  0  0  0  0  0  0  0  0  0  0
   26.5940    3.1717   30.5555 H   0  0  0  0  0  0  0  0  0  0  0  0
   26.6502    4.9093   30.1413 H   0  0  0  0  0  0  0  0  0  0  0  0
   26.2912    4.4033   31.8312 H   0  0  0  0  0  0  0  0  0  0  0  0
   30.9782   15.6704   30.0492 H   0  0  0  0  0  0  0  0  0  0  0  0
   30.8067   16.4195   28.4097 H   0  0  0  0  0  0  0  0  0  0  0  0
   33.9479    7.1109   31.7008 H   0  0  0  0  0  0  0  0  0  0  0  0
   33.8751    6.9272   33.4834 H   0  0  0  0  0  0  0  0  0  0  0  0
   31.1459   15.3448   21.9506 H   0  0  0  0  0  0  0  0  0  0  0  0
   27.8443    1.3745   30.8352 H   0  0  0  0  0  0  0  0  0  0  0  0
   29.2842   -0.1841   35.3214 H   0  0  0  0  0  0  0  0  0  0  0  0
   35.8700   16.7362   22.5261 H   0  0  0  0  0  0  0  0  0  0  0  0
   31.5868    7.5878   34.4802 H   0  0  0  0  0  0  0  0  0  0  0  0
   31.5702    5.8092   34.3323 H   0  0  0  0  0  0  0  0  0  0  0  0
   32.7112   15.0055   27.5650 H   0  0  0  0  0  0  0  0  0  0  0  0
   32.8754   14.2092   29.1637 H   0  0  0  0  0  0  0  0  0  0  0  0
   30.3113   14.1590   27.4477 H   0  0  0  0  0  0  0  0  0  0  0  0
   30.5231   13.4079   29.0705 H   0  0  0  0  0  0  0  0  0  0  0  0
   31.4586    6.2021   31.7239 H   0  0  0  0  0  0  0  0  0  0  0  0
   31.7866    7.9191   32.0957 H   0  0  0  0  0  0  0  0  0  0  0  0
   27.7348   -0.9865   31.4113 H   0  0  0  0  0  0  0  0  0  0  0  0
   32.1600   16.9047   20.3966 H   0  0  0  0  0  0  0  0  0  0  0  0
   34.5123   17.6126   20.6707 H   0  0  0  0  0  0  0  0  0  0  0  0
   28.4500   -1.7778   33.6402 H   0  0  0  0  0  0  0  0  0  0  0  0
  2  1  1  0
  3  5  1  0
  4  5  1  0
  5 19  2  0
  6  1  2  0
  7  6  1  0
  8  2  2  0
  9  4  1  0
 10  3  1  0
 11 40  1  0
 12 41  1  0
 13  8  1  0
 14  9  2  0
 15  2  1  0
 16 10  2  0
 17 11  1  0
 18 12  1  0
 19 25  1  0
 20  6  1  0
 21 11  2  0
 22 11  2  0
 23 12  2  0
 24 12  2  0
 25 29  2  0
 26 20  2  0
 27 26  1  0
 28 27  2  0
 29 28  1  0
 30  1  1  0
 31 14  1  0
 32 34  1  0
 33 16  1  0
 34 15  2  0
 35  3  1  0
 36  4  1  0
 37  4  1  0
 38  7  1  0
 39  7  1  0
 40 48  1  0
 41 49  1  0
 42 14  1  0
 43 13  2  0
 44 32  2  0
 45 31  1  0
 46 30  1  0
 47 35  1  0
 48 47  1  0
 49 46  1  0
 50 43  1  0
 51 42  2  0
 52 51  1  0
 53 44  1  0
  7  8  1  0
 13 32  1  0
 53 50  2  0
 10  9  1  0
 31 33  2  0
 52 45  2  0
 15 54  1  0
 16 55  1  0
 19 56  1  0
 20 57  1  0
 25 58  1  0
 26 59  1  0
 27 60  1  0
 28 61  1  0
 29 62  1  0
 30 63  1  0
 30 64  1  0
 33 65  1  0
 34 66  1  0
 35 67  1  0
 35 68  1  0
 36 69  1  0
 36 70  1  0
 36 71  1  0
 37 72  1  0
 37 73  1  0
 37 74  1  0
 38 75  1  0
 38 76  1  0
 38 77  1  0
 39 78  1  0
 39 79  1  0
 39 80  1  0
 40 81  1  0
 40 82  1  0
 41 83  1  0
 41 84  1  0
 42 85  1  0
 43 86  1  0
 44 87  1  0
 45 88  1  0
 46 89  1  0
 46 90  1  0
 47 91  1  0
 47 92  1  0
 48 93  1  0
 48 94  1  0
 49 95  1  0
 49 96  1  0
 50 97  1  0
 51 98  1  0
 52 99  1  0
 53100  1  0
M  CHG  3   1   1  17  -1  18  -1
M  END
> <Uni-Dock RESULT> 
ENERGY=   -3.542  LOWER_BOUND=    2.217  UPPER_BOUND=   13.736
INTER + INTRA:          -3.542
INTER:                  -3.542
INTRA:                   0.000
UNBOUND:                 0.000

$$$$

     RDKit          3D

100105  0  0  0  0  0  0  0  0999 V2000
   31.4683   15.2689   26.5281 N   0  0  0  0  0  0  0  0  0  0  0  0
   31.8843   16.2095   25.5462 C   0  0  0  0  0  0  0  0  0  0  0  0
   30.8954    5.3003   29.8792 N   0  0  0  0  0  0  0  0  0  0  0  0
   32.4597    4.4902   31.5921 C   0  0  0  0  0  0  0  0  0  0  0  0
   32.0004    5.6562   30.7280 C   0  0  0  0  0  0  0  0  0  0  0  0
   32.5290   14.6501   26.9642 C   0  0  0  0  0  0  0  0  0  0  0  0
   33.8150   15.1275   26.3005 C   0  0  0  0  0  0  0  0  0  0  0  0
   33.2514   16.1801   25.3643 C   0  0  0  0  0  0  0  0  0  0  0  0
   31.5696    3.3817   31.0580 C   0  0  0  0  0  0  0  0  0  0  0  0
   30.7284    3.8991   30.0833 C   0  0  0  0  0  0  0  0  0  0  0  0
   28.7188    8.3244   34.2552 S   0  0  0  0  0  0  0  0  0  0  0  0
   30.3452   12.6801   22.7995 S   0  0  0  0  0  0  0  0  0  0  0  0
   33.8728   17.0556   24.4416 C   0  0  0  0  0  0  0  0  0  0  0  0
   31.4847    2.0116   31.4215 C   0  0  0  0  0  0  0  0  0  0  0  0
   31.0658   17.0993   24.8478 C   0  0  0  0  0  0  0  0  0  0  0  0
   29.7995    3.0963   29.4171 C   0  0  0  0  0  0  0  0  0  0  0  0
   27.5967    8.2984   35.5050 O   0  0  0  0  0  0  0  0  0  0  0  0
   29.6534   12.0036   21.4267 O   0  0  0  0  0  0  0  0  0  0  0  0
   32.6146    6.8547   30.7261 C   0  0  0  0  0  0  0  0  0  0  0  0
   32.4918   13.6753   28.0749 C   0  0  0  0  0  0  0  0  0  0  0  0
   30.0468    7.8485   34.7732 O   0  0  0  0  0  0  0  0  0  0  0  0
   28.8577    9.7291   33.7385 O   0  0  0  0  0  0  0  0  0  0  0  0
   30.3800   14.1754   22.6461 O   0  0  0  0  0  0  0  0  0  0  0  0
   31.7491   12.1658   22.9468 O   0  0  0  0  0  0  0  0  0  0  0  0
   32.4868    7.8313   29.6361 C   0  0  0  0  0  0  0  0  0  0  0  0
   32.6632   12.3707   27.8649 C   0  0  0  0  0  0  0  0  0  0  0  0
   32.6281   11.4128   28.9799 C   0  0  0  0  0  0  0  0  0  0  0  0
   32.6382   10.0978   28.7485 C   0  0  0  0  0  0  0  0  0  0  0  0
   32.6812    9.1305   29.8541 C   0  0  0  0  0  0  0  0  0  0  0  0
   30.0724   14.9870   26.9013 C   0  0  0  0  0  0  0  0  0  0  0  0
   30.5396    1.1914   30.7387 C   0  0  0  0  0  0  0  0  0  0  0  0
   33.0428   17.9530   23.7067 C   0  0  0  0  0  0  0  0  0  0  0  0
   29.7117    1.7427   29.7435 C   0  0  0  0  0  0  0  0  0  0  0  0
   31.6495   17.9649   23.9182 C   0  0  0  0  0  0  0  0  0  0  0  0
   29.7577    6.1787   29.5408 C   0  0  0  0  0  0  0  0  0  0  0  0
   33.9516    4.1968   31.3230 C   0  0  0  0  0  0  0  0  0  0  0  0
   32.1752    4.7894   33.0772 C   0  0  0  0  0  0  0  0  0  0  0  0
   34.4808   13.9724   25.5309 C   0  0  0  0  0  0  0  0  0  0  0  0
   34.7496   15.7367   27.3605 C   0  0  0  0  0  0  0  0  0  0  0  0
   28.1633    7.2509   32.9410 C   0  0  0  0  0  0  0  0  0  0  0  0
   29.3823   12.2063   24.2326 C   0  0  0  0  0  0  0  0  0  0  0  0
   32.2812    1.4277   32.4270 C   0  0  0  0  0  0  0  0  0  0  0  0
   35.2633   17.0815   24.2209 C   0  0  0  0  0  0  0  0  0  0  0  0
   33.6173   18.8341   22.7766 C   0  0  0  0  0  0  0  0  0  0  0  0
   30.4305   -0.1709   31.0592 C   0  0  0  0  0  0  0  0  0  0  0  0
   29.3381   14.2330   25.7805 C   0  0  0  0  0  0  0  0  0  0  0  0
   28.7351    6.2624   30.6882 C   0  0  0  0  0  0  0  0  0  0  0  0
   29.1922    7.2048   31.8102 C   0  0  0  0  0  0  0  0  0  0  0  0
   29.9303   12.8380   25.5222 C   0  0  0  0  0  0  0  0  0  0  0  0
   35.8165   17.9679   23.2926 C   0  0  0  0  0  0  0  0  0  0  0  0
   32.1572    0.0712   32.7340 C   0  0  0  0  0  0  0  0  0  0  0  0
   31.2371   -0.7250   32.0527 C   0  0  0  0  0  0  0  0  0  0  0  0
   34.9980   18.8383   22.5725 C   0  0  0  0  0  0  0  0  0  0  0  0
   29.9989   17.1355   25.0214 H   0  0  0  0  0  0  0  0  0  0  0  0
   29.1544    3.5016   28.6496 H   0  0  0  0  0  0  0  0  0  0  0  0
   33.3496    7.0686   31.4918 H   0  0  0  0  0  0  0  0  0  0  0  0
   32.2730   14.0447   29.0710 H   0  0  0  0  0  0  0  0  0  0  0  0
   32.2665    7.4791   28.6370 H   0  0  0  0  0  0  0  0  0  0  0  0
   32.8240   12.0044   26.8587 H   0  0  0  0  0  0  0  0  0  0  0  0
   32.5959   11.7821   29.9978 H   0  0  0  0  0  0  0  0  0  0  0  0
   32.6340    9.7304   27.7301 H   0  0  0  0  0  0  0  0  0  0  0  0
   32.8712    9.4828   30.8600 H   0  0  0  0  0  0  0  0  0  0  0  0
   30.0136   14.4039   27.8453 H   0  0  0  0  0  0  0  0  0  0  0  0
   29.5489   15.9478   27.0908 H   0  0  0  0  0  0  0  0  0  0  0  0
   28.9903    1.1256   29.2221 H   0  0  0  0  0  0  0  0  0  0  0  0
   31.0150   18.6504   23.3702 H   0  0  0  0  0  0  0  0  0  0  0  0
   30.0826    7.1981   29.2650 H   0  0  0  0  0  0  0  0  0  0  0  0
   29.2476    5.7816   28.6391 H   0  0  0  0  0  0  0  0  0  0  0  0
   34.5847    5.0531   31.6371 H   0  0  0  0  0  0  0  0  0  0  0  0
   34.1188    4.0223   30.2379 H   0  0  0  0  0  0  0  0  0  0  0  0
   34.3135    3.3085   31.8719 H   0  0  0  0  0  0  0  0  0  0  0  0
   31.0805    4.8768   33.2544 H   0  0  0  0  0  0  0  0  0  0  0  0
   32.5718    3.9968   33.7405 H   0  0  0  0  0  0  0  0  0  0  0  0
   32.6583    5.7415   33.3842 H   0  0  0  0  0  0  0  0  0  0  0  0
   35.3563   14.3145   24.9483 H   0  0  0  0  0  0  0  0  0  0  0  0
   34.8424   13.1935   26.2347 H   0  0  0  0  0  0  0  0  0  0  0  0
   33.7598   13.5079   24.8248 H   0  0  0  0  0  0  0  0  0  0  0  0
   35.7001   16.0938   26.9198 H   0  0  0  0  0  0  0  0  0  0  0  0
   35.0062   14.9765   28.1298 H   0  0  0  0  0  0  0  0  0  0  0  0
   34.2562   16.5923   27.8700 H   0  0  0  0  0  0  0  0  0  0  0  0
   27.1932    7.6338   32.5551 H   0  0  0  0  0  0  0  0  0  0  0  0
   28.0098    6.2305   33.3566 H   0  0  0  0  0  0  0  0  0  0  0  0
   29.4371   11.0995   24.3231 H   0  0  0  0  0  0  0  0  0  0  0  0
   28.3161   12.4775   24.0752 H   0  0  0  0  0  0  0  0  0  0  0  0
   33.0000    1.9934   32.9891 H   0  0  0  0  0  0  0  0  0  0  0  0
   35.9389   16.4337   24.7522 H   0  0  0  0  0  0  0  0  0  0  0  0
   32.9999   19.5209   22.2106 H   0  0  0  0  0  0  0  0  0  0  0  0
   29.7191   -0.8063   30.5431 H   0  0  0  0  0  0  0  0  0  0  0  0
   28.2697   14.1202   26.0666 H   0  0  0  0  0  0  0  0  0  0  0  0
   29.3643   14.8393   24.8540 H   0  0  0  0  0  0  0  0  0  0  0  0
   28.5368    5.2483   31.0989 H   0  0  0  0  0  0  0  0  0  0  0  0
   27.7782    6.6483   30.2735 H   0  0  0  0  0  0  0  0  0  0  0  0
   30.1574    6.8576   32.2274 H   0  0  0  0  0  0  0  0  0  0  0  0
   29.3356    8.2280   31.3973 H   0  0  0  0  0  0  0  0  0  0  0  0
   31.0333   12.8848   25.4582 H   0  0  0  0  0  0  0  0  0  0  0  0
   29.6762   12.1823   26.3849 H   0  0  0  0  0  0  0  0  0  0  0  0
   36.8871   17.9792   23.1303 H   0  0  0  0  0  0  0  0  0  0  0  0
   32.7796   -0.3652   33.5040 H   0  0  0  0  0  0  0  0  0  0  0  0
   31.1465   -1.7750   32.2977 H   0  0  0  0  0  0  0  0  0  0  0  0
   35.4364   19.5209   21.8558 H   0  0  0  0  0  0  0  0  0  0  0  0
  2  1  1  0
  3  5  1  0
  4  5  1  0
  5 19  2  0
  6  1  2  0
  7  6  1  0
  8  2  2  0
  9  4  1  0
 10  3  1  0
 11 40  1  0
 12 41  1  0
 13  8  1  0
 14  9  2  0
 15  2  1  0
 16 10  2  0
 17 11  1  0
 18 12  1  0
 19 25  1  0
 20  6  1  0
 21 11  2  0
 22 11  2  0
 23 12  2  0
 24 12  2  0
 25 29  2  0
 26 20  2  0
 27 26  1  0
 28 27  2  0
 29 28  1  0
 30  1  1  0
 31 14  1  0
 32 34  1  0
 33 16  1  0
 34 15  2  0
 35  3  1  0
 36  4  1  0
 37  4  1  0
 38  7  1  0
 39  7  1  0
 40 48  1  0
 41 49  1  0
 42 14  1  0
 43 13  2  0
 44 32  2  0
 45 31  1  0
 46 30  1  0
 47 35  1  0
 48 47  1  0
 49 46  1  0
 50 43  1  0
 51 42  2  0
 52 51  1  0
 53 44  1  0
  7  8  1  0
 13 32  1  0
 53 50  2  0
 10  9  1  0
 31 33  2  0
 52 45  2  0
 15 54  1  0
 16 55  1  0
 19 56  1  0
 20 57  1  0
 25 58  1  0
 26 59  1  0
 27 60  1  0
 28 61  1  0
 29 62  1  0
 30 63  1  0
 30 64  1  0
 33 65  1  0
 34 66  1  0
 35 67  1  0
 35 68  1  0
 36 69  1  0
 36 70  1  0
 36 71  1  0
 37 72  1  0
 37 73  1  0
 37 74  1  0
 38 75  1  0
 38 76  1  0
 38 77  1  0
 39 78  1  0
 39 79  1  0
 39 80  1  0
 40 81  1  0
 40 82  1  0
 41 83  1  0
 41 84  1  0
 42 85  1  0
 43 86  1  0
 44 87  1  0
 45 88  1  0
 46 89  1  0
 46 90  1  0
 47 91  1  0
 47 92  1  0
 48 93  1  0
 48 94  1  0
 49 95  1  0
 49 96  1  0
 50 97  1  0
 51 98  1  0
 52 99  1  0
 53100  1  0
M  CHG  3   1   1  17  -1  18  -1
M  END
> <Uni-Dock RESULT> 
ENERGY=   -3.495  LOWER_BOUND=    2.792  UPPER_BOUND=    3.607
INTER + INTRA:          -3.495
INTER:                  -3.495
INTRA:                   0.000
UNBOUND:                 0.000

$$$$
