
     RDKit          3D

100105  0  0  0  0  0  0  0  0999 V2000
   27.6788    4.3463   31.4853 N   0  0  0  0  0  0  0  0  0  0  0  0
   27.4246    3.3775   32.4960 C   0  0  0  0  0  0  0  0  0  0  0  0
   32.7183   12.7051   27.8260 N   0  0  0  0  0  0  0  0  0  0  0  0
   33.7922   12.4784   25.6289 C   0  0  0  0  0  0  0  0  0  0  0  0
   32.9619   11.8163   26.7196 C   0  0  0  0  0  0  0  0  0  0  0  0
   28.7706    3.9901   30.8611 C   0  0  0  0  0  0  0  0  0  0  0  0
   29.3543    2.6845   31.3836 C   0  0  0  0  0  0  0  0  0  0  0  0
   28.3825    2.3867   32.5034 C   0  0  0  0  0  0  0  0  0  0  0  0
   33.8712   13.8976   26.1593 C   0  0  0  0  0  0  0  0  0  0  0  0
   33.2235   13.9649   27.3836 C   0  0  0  0  0  0  0  0  0  0  0  0
   34.6222    7.9266   30.0988 S   0  0  0  0  0  0  0  0  0  0  0  0
   23.7626    7.6218   32.5979 S   0  0  0  0  0  0  0  0  0  0  0  0
   28.3169    1.3275   33.4395 C   0  0  0  0  0  0  0  0  0  0  0  0
   34.4771   15.0575   25.6072 C   0  0  0  0  0  0  0  0  0  0  0  0
   26.3530    3.3706   33.3916 C   0  0  0  0  0  0  0  0  0  0  0  0
   33.1100   15.1694   28.0838 C   0  0  0  0  0  0  0  0  0  0  0  0
   34.6541    7.5738   28.4543 O   0  0  0  0  0  0  0  0  0  0  0  0
   22.5902    8.4596   33.4593 O   0  0  0  0  0  0  0  0  0  0  0  0
   32.4880   10.5571   26.6050 C   0  0  0  0  0  0  0  0  0  0  0  0
   29.3922    4.7193   29.7245 C   0  0  0  0  0  0  0  0  0  0  0  0
   33.7599    6.9198   30.8066 O   0  0  0  0  0  0  0  0  0  0  0  0
   36.0222    7.8597   30.6516 O   0  0  0  0  0  0  0  0  0  0  0  0
   23.8863    6.2358   33.1627 O   0  0  0  0  0  0  0  0  0  0  0  0
   23.3490    7.5441   31.1543 O   0  0  0  0  0  0  0  0  0  0  0  0
   31.4923    9.9461   27.4959 C   0  0  0  0  0  0  0  0  0  0  0  0
   29.6009    6.0386   29.7231 C   0  0  0  0  0  0  0  0  0  0  0  0
   30.3808    6.6730   28.6504 C   0  0  0  0  0  0  0  0  0  0  0  0
   30.5117    7.9977   28.5924 C   0  0  0  0  0  0  0  0  0  0  0  0
   31.4156    8.6207   27.6145 C   0  0  0  0  0  0  0  0  0  0  0  0
   26.8063    5.4928   31.1868 C   0  0  0  0  0  0  0  0  0  0  0  0
   34.3585   16.2864   26.3210 C   0  0  0  0  0  0  0  0  0  0  0  0
   27.2380    1.3230   34.3708 C   0  0  0  0  0  0  0  0  0  0  0  0
   33.6729   16.3287   27.5486 C   0  0  0  0  0  0  0  0  0  0  0  0
   26.2665    2.3427   34.3338 C   0  0  0  0  0  0  0  0  0  0  0  0
   32.7448   12.3287   29.2541 C   0  0  0  0  0  0  0  0  0  0  0  0
   33.0440   12.4188   24.2785 C   0  0  0  0  0  0  0  0  0  0  0  0
   35.1792   11.8116   25.5703 C   0  0  0  0  0  0  0  0  0  0  0  0
   29.3001    1.6029   30.2900 C   0  0  0  0  0  0  0  0  0  0  0  0
   30.7842    2.9312   31.8955 C   0  0  0  0  0  0  0  0  0  0  0  0
   33.9491    9.5579   30.3634 C   0  0  0  0  0  0  0  0  0  0  0  0
   25.3191    8.4921   32.7464 C   0  0  0  0  0  0  0  0  0  0  0  0
   35.1982   15.0494   24.3966 C   0  0  0  0  0  0  0  0  0  0  0  0
   29.2627    0.2870   33.4914 C   0  0  0  0  0  0  0  0  0  0  0  0
   27.1405    0.2972   35.3243 C   0  0  0  0  0  0  0  0  0  0  0  0
   34.9297   17.4593   25.8001 C   0  0  0  0  0  0  0  0  0  0  0  0
   26.9836    6.5995   32.2416 C   0  0  0  0  0  0  0  0  0  0  0  0
   34.1742   12.0353   29.7555 C   0  0  0  0  0  0  0  0  0  0  0  0
   34.6622   10.5977   29.4856 C   0  0  0  0  0  0  0  0  0  0  0  0
   26.3832    7.9477   31.7841 C   0  0  0  0  0  0  0  0  0  0  0  0
   29.1508   -0.7243   34.4492 C   0  0  0  0  0  0  0  0  0  0  0  0
   35.7616   16.2247   23.8953 C   0  0  0  0  0  0  0  0  0  0  0  0
   35.6229   17.4258   24.5898 C   0  0  0  0  0  0  0  0  0  0  0  0
   28.0954   -0.7204   35.3610 C   0  0  0  0  0  0  0  0  0  0  0  0
   25.5939    4.1373   33.3655 H   0  0  0  0  0  0  0  0  0  0  0  0
   32.5798   15.2250   29.0222 H   0  0  0  0  0  0  0  0  0  0  0  0
   32.8303    9.9531   25.7746 H   0  0  0  0  0  0  0  0  0  0  0  0
   29.8315    4.1276   28.9314 H   0  0  0  0  0  0  0  0  0  0  0  0
   30.7963   10.5700   28.0384 H   0  0  0  0  0  0  0  0  0  0  0  0
   29.2622    6.6477   30.5477 H   0  0  0  0  0  0  0  0  0  0  0  0
   30.8862    6.0485   27.9212 H   0  0  0  0  0  0  0  0  0  0  0  0
   29.9863    8.6249   29.3027 H   0  0  0  0  0  0  0  0  0  0  0  0
   32.0753    7.9893   27.0295 H   0  0  0  0  0  0  0  0  0  0  0  0
   27.0039    5.8784   30.1665 H   0  0  0  0  0  0  0  0  0  0  0  0
   25.7471    5.1570   31.1774 H   0  0  0  0  0  0  0  0  0  0  0  0
   33.5761   17.2597   28.0964 H   0  0  0  0  0  0  0  0  0  0  0  0
   25.4392    2.3420   35.0338 H   0  0  0  0  0  0  0  0  0  0  0  0
   32.3341   13.1648   29.8540 H   0  0  0  0  0  0  0  0  0  0  0  0
   32.0702   11.4926   29.4787 H   0  0  0  0  0  0  0  0  0  0  0  0
   32.9338   11.3686   23.9345 H   0  0  0  0  0  0  0  0  0  0  0  0
   33.5783   12.9611   23.4766 H   0  0  0  0  0  0  0  0  0  0  0  0
   32.0284   12.8625   24.3786 H   0  0  0  0  0  0  0  0  0  0  0  0
   35.6949   11.9070   26.5508 H   0  0  0  0  0  0  0  0  0  0  0  0
   35.8262   12.2613   24.7956 H   0  0  0  0  0  0  0  0  0  0  0  0
   35.0814   10.7320   25.3296 H   0  0  0  0  0  0  0  0  0  0  0  0
   28.2682    1.5081   29.8867 H   0  0  0  0  0  0  0  0  0  0  0  0
   29.9829    1.8592   29.4552 H   0  0  0  0  0  0  0  0  0  0  0  0
   29.6092    0.6130   30.6755 H   0  0  0  0  0  0  0  0  0  0  0  0
   31.2564    2.0035   32.2680 H   0  0  0  0  0  0  0  0  0  0  0  0
   30.7792    3.6802   32.7169 H   0  0  0  0  0  0  0  0  0  0  0  0
   31.4244    3.3189   31.0739 H   0  0  0  0  0  0  0  0  0  0  0  0
   34.0698    9.8206   31.4368 H   0  0  0  0  0  0  0  0  0  0  0  0
   32.8677    9.5184   30.1297 H   0  0  0  0  0  0  0  0  0  0  0  0
   25.6776    8.4423   33.7982 H   0  0  0  0  0  0  0  0  0  0  0  0
   25.1336    9.5591   32.5028 H   0  0  0  0  0  0  0  0  0  0  0  0
   35.3502   14.1530   23.8252 H   0  0  0  0  0  0  0  0  0  0  0  0
   30.0908    0.2330   32.8073 H   0  0  0  0  0  0  0  0  0  0  0  0
   26.3285    0.2867   36.0434 H   0  0  0  0  0  0  0  0  0  0  0  0
   34.8418   18.4014   26.3308 H   0  0  0  0  0  0  0  0  0  0  0  0
   26.5357    6.2675   33.1997 H   0  0  0  0  0  0  0  0  0  0  0  0
   28.0639    6.7408   32.4540 H   0  0  0  0  0  0  0  0  0  0  0  0
   34.8849   12.7499   29.2827 H   0  0  0  0  0  0  0  0  0  0  0  0
   34.2133   12.2264   30.8509 H   0  0  0  0  0  0  0  0  0  0  0  0
   34.5444   10.3411   28.4140 H   0  0  0  0  0  0  0  0  0  0  0  0
   35.7515   10.5623   29.7105 H   0  0  0  0  0  0  0  0  0  0  0  0
   25.9585    7.8868   30.7585 H   0  0  0  0  0  0  0  0  0  0  0  0
   27.2046    8.6949   31.7309 H   0  0  0  0  0  0  0  0  0  0  0  0
   29.8856   -1.5181   34.4799 H   0  0  0  0  0  0  0  0  0  0  0  0
   36.3099   16.2048   22.9619 H   0  0  0  0  0  0  0  0  0  0  0  0
   36.0614   18.3318   24.1918 H   0  0  0  0  0  0  0  0  0  0  0  0
   28.0181   -1.5077   36.1020 H   0  0  0  0  0  0  0  0  0  0  0  0
  2  1  1  0
  3  5  1  0
  4  5  1  0
  5 19  2  0
  6  1  2  0
  7  6  1  0
  8  2  2  0
  9  4  1  0
 10  3  1  0
 11 40  1  0
 12 41  1  0
 13  8  1  0
 14  9  2  0
 15  2  1  0
 16 10  2  0
 17 11  1  0
 18 12  1  0
 19 25  1  0
 20  6  1  0
 21 11  2  0
 22 11  2  0
 23 12  2  0
 24 12  2  0
 25 29  2  0
 26 20  2  0
 27 26  1  0
 28 27  2  0
 29 28  1  0
 30  1  1  0
 31 14  1  0
 32 34  1  0
 33 16  1  0
 34 15  2  0
 35  3  1  0
 36  4  1  0
 37  4  1  0
 38  7  1  0
 39  7  1  0
 40 48  1  0
 41 49  1  0
 42 14  1  0
 43 13  2  0
 44 32  2  0
 45 31  1  0
 46 30  1  0
 47 35  1  0
 48 47  1  0
 49 46  1  0
 50 43  1  0
 51 42  2  0
 52 51  1  0
 53 44  1  0
  7  8  1  0
 13 32  1  0
 53 50  2  0
 10  9  1  0
 31 33  2  0
 52 45  2  0
 15 54  1  0
 16 55  1  0
 19 56  1  0
 20 57  1  0
 25 58  1  0
 26 59  1  0
 27 60  1  0
 28 61  1  0
 29 62  1  0
 30 63  1  0
 30 64  1  0
 33 65  1  0
 34 66  1  0
 35 67  1  0
 35 68  1  0
 36 69  1  0
 36 70  1  0
 36 71  1  0
 37 72  1  0
 37 73  1  0
 37 74  1  0
 38 75  1  0
 38 76  1  0
 38 77  1  0
 39 78  1  0
 39 79  1  0
 39 80  1  0
 40 81  1  0
 40 82  1  0
 41 83  1  0
 41 84  1  0
 42 85  1  0
 43 86  1  0
 44 87  1  0
 45 88  1  0
 46 89  1  0
 46 90  1  0
 47 91  1  0
 47 92  1  0
 48 93  1  0
 48 94  1  0
 49 95  1  0
 49 96  1  0
 50 97  1  0
 51 98  1  0
 52 99  1  0
 53100  1  0
M  CHG  3   1   1  17  -1  18  -1
M  END
> <Uni-Dock RESULT> 
ENERGY=   -4.453  LOWER_BOUND=    0.000  UPPER_BOUND=    0.000
INTER + INTRA:          -4.453
INTER:                  -4.453
INTRA:                   0.000
UNBOUND:                 0.000

$$$$

     RDKit          3D

100105  0  0  0  0  0  0  0  0999 V2000
   27.6969    4.2085   31.4574 N   0  0  0  0  0  0  0  0  0  0  0  0
   27.4287    3.2600   32.4837 C   0  0  0  0  0  0  0  0  0  0  0  0
   32.5986   12.6468   27.7936 N   0  0  0  0  0  0  0  0  0  0  0  0
   33.7883   12.3987   25.6593 C   0  0  0  0  0  0  0  0  0  0  0  0
   32.9299   11.7366   26.7280 C   0  0  0  0  0  0  0  0  0  0  0  0
   28.8308    3.8769   30.8982 C   0  0  0  0  0  0  0  0  0  0  0  0
   29.4358    2.6103   31.4882 C   0  0  0  0  0  0  0  0  0  0  0  0
   28.4212    2.3076   32.5679 C   0  0  0  0  0  0  0  0  0  0  0  0
   33.7881   13.8345   26.1493 C   0  0  0  0  0  0  0  0  0  0  0  0
   33.0782   13.9119   27.3380 C   0  0  0  0  0  0  0  0  0  0  0  0
   34.5631    8.0125   30.3015 S   0  0  0  0  0  0  0  0  0  0  0  0
   23.6113    7.3611   32.2774 S   0  0  0  0  0  0  0  0  0  0  0  0
   28.3484    1.2739   33.5317 C   0  0  0  0  0  0  0  0  0  0  0  0
   34.3772   15.0006   25.5920 C   0  0  0  0  0  0  0  0  0  0  0  0
   26.3149    3.2376   33.3259 C   0  0  0  0  0  0  0  0  0  0  0  0
   32.8854   15.1308   27.9946 C   0  0  0  0  0  0  0  0  0  0  0  0
   34.6899    7.6141   28.6720 O   0  0  0  0  0  0  0  0  0  0  0  0
   22.3672    8.1775   33.0547 O   0  0  0  0  0  0  0  0  0  0  0  0
   32.5092   10.4573   26.6291 C   0  0  0  0  0  0  0  0  0  0  0  0
   29.4807    4.5965   29.7714 C   0  0  0  0  0  0  0  0  0  0  0  0
   33.7045    6.9940   30.9969 O   0  0  0  0  0  0  0  0  0  0  0  0
   35.9353    8.0156   30.9235 O   0  0  0  0  0  0  0  0  0  0  0  0
   23.7581    5.9978   32.8897 O   0  0  0  0  0  0  0  0  0  0  0  0
   23.2732    7.2261   30.8185 O   0  0  0  0  0  0  0  0  0  0  0  0
   31.4939    9.8343   27.4888 C   0  0  0  0  0  0  0  0  0  0  0  0
   29.6402    5.9223   29.7399 C   0  0  0  0  0  0  0  0  0  0  0  0
   30.4484    6.5552   28.6875 C   0  0  0  0  0  0  0  0  0  0  0  0
   30.5328    7.8818   28.5954 C   0  0  0  0  0  0  0  0  0  0  0  0
   31.4606    8.5108   27.6440 C   0  0  0  0  0  0  0  0  0  0  0  0
   26.7983    5.3114   31.0818 C   0  0  0  0  0  0  0  0  0  0  0  0
   34.1778   16.2439   26.2613 C   0  0  0  0  0  0  0  0  0  0  0  0
   27.2254    1.2546   34.4091 C   0  0  0  0  0  0  0  0  0  0  0  0
   33.4309   16.2951   27.4522 C   0  0  0  0  0  0  0  0  0  0  0  0
   26.2198    2.2346   34.2938 C   0  0  0  0  0  0  0  0  0  0  0  0
   32.5680   12.3129   29.2322 C   0  0  0  0  0  0  0  0  0  0  0  0
   33.1110   12.2715   24.2765 C   0  0  0  0  0  0  0  0  0  0  0  0
   35.2003   11.7844   25.6887 C   0  0  0  0  0  0  0  0  0  0  0  0
   29.4762    1.4964   30.4268 C   0  0  0  0  0  0  0  0  0  0  0  0
   30.8284    2.9265   32.0613 C   0  0  0  0  0  0  0  0  0  0  0  0
   33.8176    9.6236   30.4830 C   0  0  0  0  0  0  0  0  0  0  0  0
   25.1252    8.2947   32.4748 C   0  0  0  0  0  0  0  0  0  0  0  0
   35.1575   14.9855   24.4188 C   0  0  0  0  0  0  0  0  0  0  0  0
   29.3284    0.2725   33.6614 C   0  0  0  0  0  0  0  0  0  0  0  0
   27.1187    0.2536   35.3877 C   0  0  0  0  0  0  0  0  0  0  0  0
   34.7303   17.4226   25.7333 C   0  0  0  0  0  0  0  0  0  0  0  0
   26.8818    6.4540   32.1097 C   0  0  0  0  0  0  0  0  0  0  0  0
   33.9806   12.0893   29.8112 C   0  0  0  0  0  0  0  0  0  0  0  0
   34.5344   10.6645   29.6095 C   0  0  0  0  0  0  0  0  0  0  0  0
   26.2553    7.7643   31.5824 C   0  0  0  0  0  0  0  0  0  0  0  0
   29.2066   -0.7144   34.6431 C   0  0  0  0  0  0  0  0  0  0  0  0
   35.7012   16.1668   23.9098 C   0  0  0  0  0  0  0  0  0  0  0  0
   35.4836   17.3811   24.5596 C   0  0  0  0  0  0  0  0  0  0  0  0
   28.1077   -0.7250   35.5019 C   0  0  0  0  0  0  0  0  0  0  0  0
   25.5301    3.9733   33.2395 H   0  0  0  0  0  0  0  0  0  0  0  0
   32.3074   15.1928   28.9040 H   0  0  0  0  0  0  0  0  0  0  0  0
   32.9147    9.8433   25.8353 H   0  0  0  0  0  0  0  0  0  0  0  0
   29.9807    3.9997   29.0191 H   0  0  0  0  0  0  0  0  0  0  0  0
   30.7490   10.4461   27.9774 H   0  0  0  0  0  0  0  0  0  0  0  0
   29.2385    6.5413   30.5280 H   0  0  0  0  0  0  0  0  0  0  0  0
   31.0124    5.9300   28.0031 H   0  0  0  0  0  0  0  0  0  0  0  0
   29.9498    8.5084   29.2597 H   0  0  0  0  0  0  0  0  0  0  0  0
   32.1715    7.8888   27.1114 H   0  0  0  0  0  0  0  0  0  0  0  0
   27.0321    5.6749   30.0610 H   0  0  0  0  0  0  0  0  0  0  0  0
   25.7541    4.9349   31.0312 H   0  0  0  0  0  0  0  0  0  0  0  0
   33.2724   17.2370   27.9660 H   0  0  0  0  0  0  0  0  0  0  0  0
   25.3593    2.2220   34.9524 H   0  0  0  0  0  0  0  0  0  0  0  0
   32.0972   13.1495   29.7855 H   0  0  0  0  0  0  0  0  0  0  0  0
   31.9146   11.4582   29.4491 H   0  0  0  0  0  0  0  0  0  0  0  0
   33.0570   11.2084   23.9599 H   0  0  0  0  0  0  0  0  0  0  0  0
   33.6640   12.8107   23.4855 H   0  0  0  0  0  0  0  0  0  0  0  0
   32.0759   12.6783   24.3135 H   0  0  0  0  0  0  0  0  0  0  0  0
   35.6626   11.9278   26.6897 H   0  0  0  0  0  0  0  0  0  0  0  0
   35.8679   12.2363   24.9330 H   0  0  0  0  0  0  0  0  0  0  0  0
   35.1547   10.6954   25.4767 H   0  0  0  0  0  0  0  0  0  0  0  0
   28.4699    1.3503   29.9769 H   0  0  0  0  0  0  0  0  0  0  0  0
   30.1898    1.7547   29.6188 H   0  0  0  0  0  0  0  0  0  0  0  0
   29.8023    0.5307   30.8570 H   0  0  0  0  0  0  0  0  0  0  0  0
   31.3155    2.0288   32.4845 H   0  0  0  0  0  0  0  0  0  0  0  0
   30.7547    3.6980   32.8582 H   0  0  0  0  0  0  0  0  0  0  0  0
   31.4938    3.3149   31.2603 H   0  0  0  0  0  0  0  0  0  0  0  0
   33.8749    9.9215   31.5524 H   0  0  0  0  0  0  0  0  0  0  0  0
   32.7514    9.5357   30.1983 H   0  0  0  0  0  0  0  0  0  0  0  0
   25.4324    8.2890   33.5437 H   0  0  0  0  0  0  0  0  0  0  0  0
   24.9125    9.3463   32.1899 H   0  0  0  0  0  0  0  0  0  0  0  0
   35.3709   14.0796   23.8831 H   0  0  0  0  0  0  0  0  0  0  0  0
   30.1909    0.2309   33.0203 H   0  0  0  0  0  0  0  0  0  0  0  0
   26.2729    0.2324   36.0664 H   0  0  0  0  0  0  0  0  0  0  0  0
   34.5812   18.3754   26.2299 H   0  0  0  0  0  0  0  0  0  0  0  0
   26.3993    6.1326   33.0545 H   0  0  0  0  0  0  0  0  0  0  0  0
   27.9442    6.6429   32.3700 H   0  0  0  0  0  0  0  0  0  0  0  0
   34.6869   12.8170   29.3519 H   0  0  0  0  0  0  0  0  0  0  0  0
   33.9580   12.3132   30.9008 H   0  0  0  0  0  0  0  0  0  0  0  0
   34.4796   10.3729   28.5418 H   0  0  0  0  0  0  0  0  0  0  0  0
   35.6117   10.6776   29.8881 H   0  0  0  0  0  0  0  0  0  0  0  0
   25.8847    7.6577   30.5398 H   0  0  0  0  0  0  0  0  0  0  0  0
   27.0500    8.5408   31.5465 H   0  0  0  0  0  0  0  0  0  0  0  0
   29.9679   -1.4780   34.7338 H   0  0  0  0  0  0  0  0  0  0  0  0
   36.2957   16.1412   23.0052 H   0  0  0  0  0  0  0  0  0  0  0  0
   35.9075   18.2915   24.1559 H   0  0  0  0  0  0  0  0  0  0  0  0
   28.0229   -1.4931   36.2620 H   0  0  0  0  0  0  0  0  0  0  0  0
  2  1  1  0
  3  5  1  0
  4  5  1  0
  5 19  2  0
  6  1  2  0
  7  6  1  0
  8  2  2  0
  9  4  1  0
 10  3  1  0
 11 40  1  0
 12 41  1  0
 13  8  1  0
 14  9  2  0
 15  2  1  0
 16 10  2  0
 17 11  1  0
 18 12  1  0
 19 25  1  0
 20  6  1  0
 21 11  2  0
 22 11  2  0
 23 12  2  0
 24 12  2  0
 25 29  2  0
 26 20  2  0
 27 26  1  0
 28 27  2  0
 29 28  1  0
 30  1  1  0
 31 14  1  0
 32 34  1  0
 33 16  1  0
 34 15  2  0
 35  3  1  0
 36  4  1  0
 37  4  1  0
 38  7  1  0
 39  7  1  0
 40 48  1  0
 41 49  1  0
 42 14  1  0
 43 13  2  0
 44 32  2  0
 45 31  1  0
 46 30  1  0
 47 35  1  0
 48 47  1  0
 49 46  1  0
 50 43  1  0
 51 42  2  0
 52 51  1  0
 53 44  1  0
  7  8  1  0
 13 32  1  0
 53 50  2  0
 10  9  1  0
 31 33  2  0
 52 45  2  0
 15 54  1  0
 16 55  1  0
 19 56  1  0
 20 57  1  0
 25 58  1  0
 26 59  1  0
 27 60  1  0
 28 61  1  0
 29 62  1  0
 30 63  1  0
 30 64  1  0
 33 65  1  0
 34 66  1  0
 35 67  1  0
 35 68  1  0
 36 69  1  0
 36 70  1  0
 36 71  1  0
 37 72  1  0
 37 73  1  0
 37 74  1  0
 38 75  1  0
 38 76  1  0
 38 77  1  0
 39 78  1  0
 39 79  1  0
 39 80  1  0
 40 81  1  0
 40 82  1  0
 41 83  1  0
 41 84  1  0
 42 85  1  0
 43 86  1  0
 44 87  1  0
 45 88  1  0
 46 89  1  0
 46 90  1  0
 47 91  1  0
 47 92  1  0
 48 93  1  0
 48 94  1  0
 49 95  1  0
 49 96  1  0
 50 97  1  0
 51 98  1  0
 52 99  1  0
 53100  1  0
M  CHG  3   1   1  17  -1  18  -1
M  END
> <Uni-Dock RESULT> 
ENERGY=   -4.437  LOWER_BOUND=    0.213  UPPER_BOUND=    0.213
INTER + INTRA:          -4.437
INTER:                  -4.437
INTRA:                   0.000
UNBOUND:                 0.000

$$$$

     RDKit          3D

100105  0  0  0  0  0  0  0  0999 V2000
   25.9455    4.4907   32.0625 N   0  0  0  0  0  0  0  0  0  0  0  0
   24.8812    3.5463   32.0756 C   0  0  0  0  0  0  0  0  0  0  0  0
   31.6293   11.8682   27.3802 N   0  0  0  0  0  0  0  0  0  0  0  0
   31.8953   13.9930   28.5829 C   0  0  0  0  0  0  0  0  0  0  0  0
   31.3027   12.5908   28.5822 C   0  0  0  0  0  0  0  0  0  0  0  0
   25.4284    5.6729   32.2705 C   0  0  0  0  0  0  0  0  0  0  0  0
   23.9220    5.6321   32.4886 C   0  0  0  0  0  0  0  0  0  0  0  0
   23.6648    4.1539   32.2998 C   0  0  0  0  0  0  0  0  0  0  0  0
   32.7286   13.9458   27.3160 C   0  0  0  0  0  0  0  0  0  0  0  0
   32.5578   12.7142   26.7019 C   0  0  0  0  0  0  0  0  0  0  0  0
   26.0698   11.3205   28.0265 S   0  0  0  0  0  0  0  0  0  0  0  0
   29.8291    1.2124   30.8484 S   0  0  0  0  0  0  0  0  0  0  0  0
   22.4745    3.3897   32.3442 C   0  0  0  0  0  0  0  0  0  0  0  0
   33.5800   14.9222   26.7336 C   0  0  0  0  0  0  0  0  0  0  0  0
   24.9917    2.1653   31.8993 C   0  0  0  0  0  0  0  0  0  0  0  0
   33.2420   12.3826   25.5290 C   0  0  0  0  0  0  0  0  0  0  0  0
   26.4875   12.2748   29.3473 O   0  0  0  0  0  0  0  0  0  0  0  0
   30.6546   -0.1049   30.2145 O   0  0  0  0  0  0  0  0  0  0  0  0
   30.5991   12.1016   29.6257 C   0  0  0  0  0  0  0  0  0  0  0  0
   26.1899    6.9475   32.3442 C   0  0  0  0  0  0  0  0  0  0  0  0
   25.3898   10.0711   28.5110 O   0  0  0  0  0  0  0  0  0  0  0  0
   25.1278   12.0864   27.1344 O   0  0  0  0  0  0  0  0  0  0  0  0
   28.4570    0.7715   31.2707 O   0  0  0  0  0  0  0  0  0  0  0  0
   30.5812    1.7351   32.0408 O   0  0  0  0  0  0  0  0  0  0  0  0
   30.2089   10.6954   29.7950 C   0  0  0  0  0  0  0  0  0  0  0  0
   27.1136    7.3053   31.4480 C   0  0  0  0  0  0  0  0  0  0  0  0
   27.7005    8.6529   31.4737 C   0  0  0  0  0  0  0  0  0  0  0  0
   28.6889    8.9837   30.6438 C   0  0  0  0  0  0  0  0  0  0  0  0
   29.1686   10.3712   30.5627 C   0  0  0  0  0  0  0  0  0  0  0  0
   27.3675    4.1467   31.9057 C   0  0  0  0  0  0  0  0  0  0  0  0
   34.2796   14.5819   25.5385 C   0  0  0  0  0  0  0  0  0  0  0  0
   22.5750    1.9820   32.1451 C   0  0  0  0  0  0  0  0  0  0  0  0
   34.1056   13.3149   24.9526 C   0  0  0  0  0  0  0  0  0  0  0  0
   23.8328    1.3855   31.9285 C   0  0  0  0  0  0  0  0  0  0  0  0
   30.7132   10.9828   26.6327 C   0  0  0  0  0  0  0  0  0  0  0  0
   32.7776   14.1988   29.8344 C   0  0  0  0  0  0  0  0  0  0  0  0
   30.7575   15.0259   28.4810 C   0  0  0  0  0  0  0  0  0  0  0  0
   23.5798    6.0839   33.9196 C   0  0  0  0  0  0  0  0  0  0  0  0
   23.2260    6.4918   31.4189 C   0  0  0  0  0  0  0  0  0  0  0  0
   27.5321   10.8688   27.1090 C   0  0  0  0  0  0  0  0  0  0  0  0
   29.7122    2.4794   29.5901 C   0  0  0  0  0  0  0  0  0  0  0  0
   33.7566   16.2121   27.2726 C   0  0  0  0  0  0  0  0  0  0  0  0
   21.2061    3.9541   32.5737 C   0  0  0  0  0  0  0  0  0  0  0  0
   21.4180    1.1873   32.1697 C   0  0  0  0  0  0  0  0  0  0  0  0
   35.1438   15.5142   24.9406 C   0  0  0  0  0  0  0  0  0  0  0  0
   27.6883    3.8189   30.4365 C   0  0  0  0  0  0  0  0  0  0  0  0
   29.6042   11.7697   25.9036 C   0  0  0  0  0  0  0  0  0  0  0  0
   28.3803   12.1066   26.7789 C   0  0  0  0  0  0  0  0  0  0  0  0
   29.2075    3.8140   30.1548 C   0  0  0  0  0  0  0  0  0  0  0  0
   20.0652    3.1474   32.5922 C   0  0  0  0  0  0  0  0  0  0  0  0
   34.6178   17.1269   26.6631 C   0  0  0  0  0  0  0  0  0  0  0  0
   35.3137   16.7782   25.5063 C   0  0  0  0  0  0  0  0  0  0  0  0
   20.1695    1.7711   32.3918 C   0  0  0  0  0  0  0  0  0  0  0  0
   25.9501    1.6931   31.7467 H   0  0  0  0  0  0  0  0  0  0  0  0
   33.1298   11.4125   25.0693 H   0  0  0  0  0  0  0  0  0  0  0  0
   30.3283   12.7790   30.4253 H   0  0  0  0  0  0  0  0  0  0  0  0
   25.8675    7.6811   33.0722 H   0  0  0  0  0  0  0  0  0  0  0  0
   30.7835    9.9132   29.3195 H   0  0  0  0  0  0  0  0  0  0  0  0
   27.3890    6.6349   30.6478 H   0  0  0  0  0  0  0  0  0  0  0  0
   27.2945    9.3958   32.1523 H   0  0  0  0  0  0  0  0  0  0  0  0
   29.1146    8.2367   29.9843 H   0  0  0  0  0  0  0  0  0  0  0  0
   28.6234   11.1487   31.0861 H   0  0  0  0  0  0  0  0  0  0  0  0
   28.0112    4.9672   32.2814 H   0  0  0  0  0  0  0  0  0  0  0  0
   27.6060    3.2672   32.5415 H   0  0  0  0  0  0  0  0  0  0  0  0
   34.6359   13.0474   24.0451 H   0  0  0  0  0  0  0  0  0  0  0  0
   23.9179    0.3150   31.7837 H   0  0  0  0  0  0  0  0  0  0  0  0
   31.2942   10.4227   25.8736 H   0  0  0  0  0  0  0  0  0  0  0  0
   30.2848   10.1946   27.2650 H   0  0  0  0  0  0  0  0  0  0  0  0
   32.1643   14.1639   30.7596 H   0  0  0  0  0  0  0  0  0  0  0  0
   33.2917   15.1776   29.8310 H   0  0  0  0  0  0  0  0  0  0  0  0
   33.5517   13.4018   29.8977 H   0  0  0  0  0  0  0  0  0  0  0  0
   30.1701   14.8623   27.5512 H   0  0  0  0  0  0  0  0  0  0  0  0
   31.1358   16.0641   28.4713 H   0  0  0  0  0  0  0  0  0  0  0  0
   30.0714   14.9350   29.3493 H   0  0  0  0  0  0  0  0  0  0  0  0
   24.1610    5.4958   34.6632 H   0  0  0  0  0  0  0  0  0  0  0  0
   23.8175    7.1580   34.0557 H   0  0  0  0  0  0  0  0  0  0  0  0
   22.5046    5.9539   34.1453 H   0  0  0  0  0  0  0  0  0  0  0  0
   22.1283    6.5075   31.5501 H   0  0  0  0  0  0  0  0  0  0  0  0
   23.4553    6.1071   30.4015 H   0  0  0  0  0  0  0  0  0  0  0  0
   23.5796    7.5436   31.4821 H   0  0  0  0  0  0  0  0  0  0  0  0
   27.2186   10.3625   26.1704 H   0  0  0  0  0  0  0  0  0  0  0  0
   28.1064   10.1487   27.7231 H   0  0  0  0  0  0  0  0  0  0  0  0
   29.0553    2.1281   28.7642 H   0  0  0  0  0  0  0  0  0  0  0  0
   30.7286    2.6335   29.1712 H   0  0  0  0  0  0  0  0  0  0  0  0
   33.2374   16.5423   28.1527 H   0  0  0  0  0  0  0  0  0  0  0  0
   21.0715    5.0078   32.7411 H   0  0  0  0  0  0  0  0  0  0  0  0
   21.4802    0.1159   32.0119 H   0  0  0  0  0  0  0  0  0  0  0  0
   35.6858   15.2656   24.0345 H   0  0  0  0  0  0  0  0  0  0  0  0
   27.2295    2.8457   30.1697 H   0  0  0  0  0  0  0  0  0  0  0  0
   27.2024    4.5658   29.7745 H   0  0  0  0  0  0  0  0  0  0  0  0
   30.0282   12.7167   25.5002 H   0  0  0  0  0  0  0  0  0  0  0  0
   29.2638   11.1754   25.0268 H   0  0  0  0  0  0  0  0  0  0  0  0
   28.6965   12.6151   27.7114 H   0  0  0  0  0  0  0  0  0  0  0  0
   27.7482   12.8274   26.2139 H   0  0  0  0  0  0  0  0  0  0  0  0
   29.7985    4.0813   31.0576 H   0  0  0  0  0  0  0  0  0  0  0  0
   29.4250    4.6030   29.4024 H   0  0  0  0  0  0  0  0  0  0  0  0
   19.0952    3.5937   32.7680 H   0  0  0  0  0  0  0  0  0  0  0  0
   34.7469   18.1135   27.0903 H   0  0  0  0  0  0  0  0  0  0  0  0
   35.9806   17.4936   25.0426 H   0  0  0  0  0  0  0  0  0  0  0  0
   19.2788    1.1536   32.4054 H   0  0  0  0  0  0  0  0  0  0  0  0
  2  1  1  0
  3  5  1  0
  4  5  1  0
  5 19  2  0
  6  1  2  0
  7  6  1  0
  8  2  2  0
  9  4  1  0
 10  3  1  0
 11 40  1  0
 12 41  1  0
 13  8  1  0
 14  9  2  0
 15  2  1  0
 16 10  2  0
 17 11  1  0
 18 12  1  0
 19 25  1  0
 20  6  1  0
 21 11  2  0
 22 11  2  0
 23 12  2  0
 24 12  2  0
 25 29  2  0
 26 20  2  0
 27 26  1  0
 28 27  2  0
 29 28  1  0
 30  1  1  0
 31 14  1  0
 32 34  1  0
 33 16  1  0
 34 15  2  0
 35  3  1  0
 36  4  1  0
 37  4  1  0
 38  7  1  0
 39  7  1  0
 40 48  1  0
 41 49  1  0
 42 14  1  0
 43 13  2  0
 44 32  2  0
 45 31  1  0
 46 30  1  0
 47 35  1  0
 48 47  1  0
 49 46  1  0
 50 43  1  0
 51 42  2  0
 52 51  1  0
 53 44  1  0
  7  8  1  0
 13 32  1  0
 53 50  2  0
 10  9  1  0
 31 33  2  0
 52 45  2  0
 15 54  1  0
 16 55  1  0
 19 56  1  0
 20 57  1  0
 25 58  1  0
 26 59  1  0
 27 60  1  0
 28 61  1  0
 29 62  1  0
 30 63  1  0
 30 64  1  0
 33 65  1  0
 34 66  1  0
 35 67  1  0
 35 68  1  0
 36 69  1  0
 36 70  1  0
 36 71  1  0
 37 72  1  0
 37 73  1  0
 37 74  1  0
 38 75  1  0
 38 76  1  0
 38 77  1  0
 39 78  1  0
 39 79  1  0
 39 80  1  0
 40 81  1  0
 40 82  1  0
 41 83  1  0
 41 84  1  0
 42 85  1  0
 43 86  1  0
 44 87  1  0
 45 88  1  0
 46 89  1  0
 46 90  1  0
 47 91  1  0
 47 92  1  0
 48 93  1  0
 48 94  1  0
 49 95  1  0
 49 96  1  0
 50 97  1  0
 51 98  1  0
 52 99  1  0
 53100  1  0
M  CHG  3   1   1  17  -1  18  -1
M  END
> <Uni-Dock RESULT> 
ENERGY=   -3.916  LOWER_BOUND=    3.638  UPPER_BOUND=    6.018
INTER + INTRA:          -3.916
INTER:                  -3.916
INTRA:                   0.000
UNBOUND:                 0.000

$$$$

     RDKit          3D

100105  0  0  0  0  0  0  0  0999 V2000
   25.9455    4.4907   32.0625 N   0  0  0  0  0  0  0  0  0  0  0  0
   24.8812    3.5463   32.0756 C   0  0  0  0  0  0  0  0  0  0  0  0
   31.6293   11.8682   27.3802 N   0  0  0  0  0  0  0  0  0  0  0  0
   31.8953   13.9930   28.5829 C   0  0  0  0  0  0  0  0  0  0  0  0
   31.3027   12.5908   28.5822 C   0  0  0  0  0  0  0  0  0  0  0  0
   25.4284    5.6729   32.2705 C   0  0  0  0  0  0  0  0  0  0  0  0
   23.9220    5.6321   32.4886 C   0  0  0  0  0  0  0  0  0  0  0  0
   23.6648    4.1539   32.2998 C   0  0  0  0  0  0  0  0  0  0  0  0
   32.7286   13.9458   27.3160 C   0  0  0  0  0  0  0  0  0  0  0  0
   32.5578   12.7142   26.7019 C   0  0  0  0  0  0  0  0  0  0  0  0
   26.0698   11.3205   28.0265 S   0  0  0  0  0  0  0  0  0  0  0  0
   29.8291    1.2124   30.8484 S   0  0  0  0  0  0  0  0  0  0  0  0
   22.4745    3.3897   32.3442 C   0  0  0  0  0  0  0  0  0  0  0  0
   33.5800   14.9222   26.7336 C   0  0  0  0  0  0  0  0  0  0  0  0
   24.9917    2.1653   31.8993 C   0  0  0  0  0  0  0  0  0  0  0  0
   33.2420   12.3826   25.5290 C   0  0  0  0  0  0  0  0  0  0  0  0
   26.4875   12.2748   29.3473 O   0  0  0  0  0  0  0  0  0  0  0  0
   30.6546   -0.1049   30.2145 O   0  0  0  0  0  0  0  0  0  0  0  0
   30.5991   12.1016   29.6257 C   0  0  0  0  0  0  0  0  0  0  0  0
   26.1899    6.9475   32.3442 C   0  0  0  0  0  0  0  0  0  0  0  0
   25.3898   10.0711   28.5110 O   0  0  0  0  0  0  0  0  0  0  0  0
   25.1278   12.0864   27.1344 O   0  0  0  0  0  0  0  0  0  0  0  0
   28.4570    0.7715   31.2707 O   0  0  0  0  0  0  0  0  0  0  0  0
   30.5812    1.7351   32.0408 O   0  0  0  0  0  0  0  0  0  0  0  0
   30.2089   10.6954   29.7950 C   0  0  0  0  0  0  0  0  0  0  0  0
   27.1136    7.3052   31.4480 C   0  0  0  0  0  0  0  0  0  0  0  0
   27.7005    8.6529   31.4737 C   0  0  0  0  0  0  0  0  0  0  0  0
   28.6889    8.9837   30.6438 C   0  0  0  0  0  0  0  0  0  0  0  0
   29.1686   10.3711   30.5627 C   0  0  0  0  0  0  0  0  0  0  0  0
   27.3675    4.1467   31.9057 C   0  0  0  0  0  0  0  0  0  0  0  0
   34.2796   14.5819   25.5385 C   0  0  0  0  0  0  0  0  0  0  0  0
   22.5750    1.9820   32.1451 C   0  0  0  0  0  0  0  0  0  0  0  0
   34.1056   13.3149   24.9526 C   0  0  0  0  0  0  0  0  0  0  0  0
   23.8328    1.3855   31.9285 C   0  0  0  0  0  0  0  0  0  0  0  0
   30.7132   10.9828   26.6327 C   0  0  0  0  0  0  0  0  0  0  0  0
   32.7776   14.1988   29.8344 C   0  0  0  0  0  0  0  0  0  0  0  0
   30.7575   15.0259   28.4810 C   0  0  0  0  0  0  0  0  0  0  0  0
   23.5798    6.0839   33.9196 C   0  0  0  0  0  0  0  0  0  0  0  0
   23.2260    6.4918   31.4189 C   0  0  0  0  0  0  0  0  0  0  0  0
   27.5321   10.8688   27.1090 C   0  0  0  0  0  0  0  0  0  0  0  0
   29.7122    2.4794   29.5901 C   0  0  0  0  0  0  0  0  0  0  0  0
   33.7565   16.2121   27.2726 C   0  0  0  0  0  0  0  0  0  0  0  0
   21.2061    3.9540   32.5737 C   0  0  0  0  0  0  0  0  0  0  0  0
   21.4180    1.1873   32.1697 C   0  0  0  0  0  0  0  0  0  0  0  0
   35.1438   15.5142   24.9406 C   0  0  0  0  0  0  0  0  0  0  0  0
   27.6883    3.8189   30.4365 C   0  0  0  0  0  0  0  0  0  0  0  0
   29.6042   11.7697   25.9036 C   0  0  0  0  0  0  0  0  0  0  0  0
   28.3803   12.1066   26.7789 C   0  0  0  0  0  0  0  0  0  0  0  0
   29.2075    3.8140   30.1548 C   0  0  0  0  0  0  0  0  0  0  0  0
   20.0652    3.1474   32.5922 C   0  0  0  0  0  0  0  0  0  0  0  0
   34.6178   17.1269   26.6631 C   0  0  0  0  0  0  0  0  0  0  0  0
   35.3136   16.7782   25.5063 C   0  0  0  0  0  0  0  0  0  0  0  0
   20.1695    1.7710   32.3918 C   0  0  0  0  0  0  0  0  0  0  0  0
   25.9501    1.6931   31.7467 H   0  0  0  0  0  0  0  0  0  0  0  0
   33.1298   11.4125   25.0693 H   0  0  0  0  0  0  0  0  0  0  0  0
   30.3283   12.7790   30.4253 H   0  0  0  0  0  0  0  0  0  0  0  0
   25.8675    7.6811   33.0722 H   0  0  0  0  0  0  0  0  0  0  0  0
   30.7835    9.9132   29.3195 H   0  0  0  0  0  0  0  0  0  0  0  0
   27.3890    6.6349   30.6478 H   0  0  0  0  0  0  0  0  0  0  0  0
   27.2945    9.3958   32.1523 H   0  0  0  0  0  0  0  0  0  0  0  0
   29.1146    8.2367   29.9843 H   0  0  0  0  0  0  0  0  0  0  0  0
   28.6234   11.1487   31.0861 H   0  0  0  0  0  0  0  0  0  0  0  0
   28.0112    4.9672   32.2814 H   0  0  0  0  0  0  0  0  0  0  0  0
   27.6060    3.2672   32.5415 H   0  0  0  0  0  0  0  0  0  0  0  0
   34.6359   13.0474   24.0451 H   0  0  0  0  0  0  0  0  0  0  0  0
   23.9179    0.3150   31.7837 H   0  0  0  0  0  0  0  0  0  0  0  0
   31.2942   10.4227   25.8736 H   0  0  0  0  0  0  0  0  0  0  0  0
   30.2848   10.1946   27.2650 H   0  0  0  0  0  0  0  0  0  0  0  0
   32.1643   14.1639   30.7596 H   0  0  0  0  0  0  0  0  0  0  0  0
   33.2917   15.1776   29.8310 H   0  0  0  0  0  0  0  0  0  0  0  0
   33.5517   13.4018   29.8977 H   0  0  0  0  0  0  0  0  0  0  0  0
   30.1701   14.8623   27.5512 H   0  0  0  0  0  0  0  0  0  0  0  0
   31.1358   16.0641   28.4713 H   0  0  0  0  0  0  0  0  0  0  0  0
   30.0714   14.9350   29.3493 H   0  0  0  0  0  0  0  0  0  0  0  0
   24.1610    5.4958   34.6632 H   0  0  0  0  0  0  0  0  0  0  0  0
   23.8175    7.1580   34.0557 H   0  0  0  0  0  0  0  0  0  0  0  0
   22.5046    5.9539   34.1453 H   0  0  0  0  0  0  0  0  0  0  0  0
   22.1283    6.5075   31.5501 H   0  0  0  0  0  0  0  0  0  0  0  0
   23.4553    6.1071   30.4015 H   0  0  0  0  0  0  0  0  0  0  0  0
   23.5796    7.5436   31.4821 H   0  0  0  0  0  0  0  0  0  0  0  0
   27.2186   10.3625   26.1704 H   0  0  0  0  0  0  0  0  0  0  0  0
   28.1064   10.1487   27.7231 H   0  0  0  0  0  0  0  0  0  0  0  0
   29.0553    2.1281   28.7642 H   0  0  0  0  0  0  0  0  0  0  0  0
   30.7286    2.6335   29.1712 H   0  0  0  0  0  0  0  0  0  0  0  0
   33.2374   16.5423   28.1527 H   0  0  0  0  0  0  0  0  0  0  0  0
   21.0715    5.0078   32.7411 H   0  0  0  0  0  0  0  0  0  0  0  0
   21.4802    0.1159   32.0119 H   0  0  0  0  0  0  0  0  0  0  0  0
   35.6858   15.2656   24.0345 H   0  0  0  0  0  0  0  0  0  0  0  0
   27.2295    2.8457   30.1697 H   0  0  0  0  0  0  0  0  0  0  0  0
   27.2024    4.5658   29.7745 H   0  0  0  0  0  0  0  0  0  0  0  0
   30.0282   12.7167   25.5002 H   0  0  0  0  0  0  0  0  0  0  0  0
   29.2638   11.1754   25.0268 H   0  0  0  0  0  0  0  0  0  0  0  0
   28.6965   12.6151   27.7114 H   0  0  0  0  0  0  0  0  0  0  0  0
   27.7482   12.8274   26.2139 H   0  0  0  0  0  0  0  0  0  0  0  0
   29.7985    4.0813   31.0576 H   0  0  0  0  0  0  0  0  0  0  0  0
   29.4250    4.6030   29.4024 H   0  0  0  0  0  0  0  0  0  0  0  0
   19.0952    3.5937   32.7680 H   0  0  0  0  0  0  0  0  0  0  0  0
   34.7469   18.1135   27.0903 H   0  0  0  0  0  0  0  0  0  0  0  0
   35.9805   17.4936   25.0426 H   0  0  0  0  0  0  0  0  0  0  0  0
   19.2788    1.1536   32.4054 H   0  0  0  0  0  0  0  0  0  0  0  0
  2  1  1  0
  3  5  1  0
  4  5  1  0
  5 19  2  0
  6  1  2  0
  7  6  1  0
  8  2  2  0
  9  4  1  0
 10  3  1  0
 11 40  1  0
 12 41  1  0
 13  8  1  0
 14  9  2  0
 15  2  1  0
 16 10  2  0
 17 11  1  0
 18 12  1  0
 19 25  1  0
 20  6  1  0
 21 11  2  0
 22 11  2  0
 23 12  2  0
 24 12  2  0
 25 29  2  0
 26 20  2  0
 27 26  1  0
 28 27  2  0
 29 28  1  0
 30  1  1  0
 31 14  1  0
 32 34  1  0
 33 16  1  0
 34 15  2  0
 35  3  1  0
 36  4  1  0
 37  4  1  0
 38  7  1  0
 39  7  1  0
 40 48  1  0
 41 49  1  0
 42 14  1  0
 43 13  2  0
 44 32  2  0
 45 31  1  0
 46 30  1  0
 47 35  1  0
 48 47  1  0
 49 46  1  0
 50 43  1  0
 51 42  2  0
 52 51  1  0
 53 44  1  0
  7  8  1  0
 13 32  1  0
 53 50  2  0
 10  9  1  0
 31 33  2  0
 52 45  2  0
 15 54  1  0
 16 55  1  0
 19 56  1  0
 20 57  1  0
 25 58  1  0
 26 59  1  0
 27 60  1  0
 28 61  1  0
 29 62  1  0
 30 63  1  0
 30 64  1  0
 33 65  1  0
 34 66  1  0
 35 67  1  0
 35 68  1  0
 36 69  1  0
 36 70  1  0
 36 71  1  0
 37 72  1  0
 37 73  1  0
 37 74  1  0
 38 75  1  0
 38 76  1  0
 38 77  1  0
 39 78  1  0
 39 79  1  0
 39 80  1  0
 40 81  1  0
 40 82  1  0
 41 83  1  0
 41 84  1  0
 42 85  1  0
 43 86  1  0
 44 87  1  0
 45 88  1  0
 46 89  1  0
 46 90  1  0
 47 91  1  0
 47 92  1  0
 48 93  1  0
 48 94  1  0
 49 95  1  0
 49 96  1  0
 50 97  1  0
 51 98  1  0
 52 99  1  0
 53100  1  0
M  CHG  3   1   1  17  -1  18  -1
M  END
> <Uni-Dock RESULT> 
ENERGY=   -3.916  LOWER_BOUND=    3.638  UPPER_BOUND=    6.018
INTER + INTRA:          -3.916
INTER:                  -3.916
INTRA:                   0.000
UNBOUND:                 0.000

$$$$

     RDKit          3D

100105  0  0  0  0  0  0  0  0999 V2000
   31.5541   14.7029   21.4864 N   0  0  0  0  0  0  0  0  0  0  0  0
   32.8490   14.9882   20.9701 C   0  0  0  0  0  0  0  0  0  0  0  0
   25.2270   10.4937   28.6213 N   0  0  0  0  0  0  0  0  0  0  0  0
   23.5434   11.9754   29.6223 C   0  0  0  0  0  0  0  0  0  0  0  0
   24.6904   11.8299   28.6319 C   0  0  0  0  0  0  0  0  0  0  0  0
   31.3163   15.5525   22.4508 C   0  0  0  0  0  0  0  0  0  0  0  0
   32.4495   16.5482   22.6577 C   0  0  0  0  0  0  0  0  0  0  0  0
   33.4370   16.0467   21.6281 C   0  0  0  0  0  0  0  0  0  0  0  0
   23.3764   10.5359   30.0713 C   0  0  0  0  0  0  0  0  0  0  0  0
   24.3346    9.7491   29.4502 C   0  0  0  0  0  0  0  0  0  0  0  0
   29.6597   13.9136   29.1506 S   0  0  0  0  0  0  0  0  0  0  0  0
   30.5080   10.4918   18.5751 S   0  0  0  0  0  0  0  0  0  0  0  0
   34.7332   16.4877   21.2703 C   0  0  0  0  0  0  0  0  0  0  0  0
   22.4465    9.9514   30.9719 C   0  0  0  0  0  0  0  0  0  0  0  0
   33.4934   14.3229   19.9249 C   0  0  0  0  0  0  0  0  0  0  0  0
   24.3880    8.3672   29.6544 C   0  0  0  0  0  0  0  0  0  0  0  0
   28.3769   15.0009   29.1071 O   0  0  0  0  0  0  0  0  0  0  0  0
   30.7247    9.1018   17.6589 O   0  0  0  0  0  0  0  0  0  0  0  0
   25.0965   12.8454   27.8400 C   0  0  0  0  0  0  0  0  0  0  0  0
   30.0698   15.6149   23.2585 C   0  0  0  0  0  0  0  0  0  0  0  0
   30.6218   14.2352   28.0419 O   0  0  0  0  0  0  0  0  0  0  0  0
   30.3688   14.0297   30.4748 O   0  0  0  0  0  0  0  0  0  0  0  0
   31.6518   11.4300   18.3169 O   0  0  0  0  0  0  0  0  0  0  0  0
   29.2159   11.1476   18.1734 O   0  0  0  0  0  0  0  0  0  0  0  0
   26.0217   12.7132   26.7065 C   0  0  0  0  0  0  0  0  0  0  0  0
   29.4979   14.5424   23.8123 C   0  0  0  0  0  0  0  0  0  0  0  0
   28.3725   14.6914   24.7464 C   0  0  0  0  0  0  0  0  0  0  0  0
   27.7375   13.6233   25.2274 C   0  0  0  0  0  0  0  0  0  0  0  0
   26.7177   13.7656   26.2769 C   0  0  0  0  0  0  0  0  0  0  0  0
   30.6508   13.6698   20.9558 C   0  0  0  0  0  0  0  0  0  0  0  0
   22.5003    8.5413   31.1775 C   0  0  0  0  0  0  0  0  0  0  0  0
   35.4070   15.8018   20.2182 C   0  0  0  0  0  0  0  0  0  0  0  0
   23.4675    7.7654   30.5132 C   0  0  0  0  0  0  0  0  0  0  0  0
   34.7779   14.7295   19.5552 C   0  0  0  0  0  0  0  0  0  0  0  0
   26.6587   10.1421   28.5288 C   0  0  0  0  0  0  0  0  0  0  0  0
   22.2792   12.4949   28.9019 C   0  0  0  0  0  0  0  0  0  0  0  0
   23.9851   12.8885   30.7811 C   0  0  0  0  0  0  0  0  0  0  0  0
   31.9708   17.9738   22.3297 C   0  0  0  0  0  0  0  0  0  0  0  0
   32.9842   16.4243   24.0952 C   0  0  0  0  0  0  0  0  0  0  0  0
   29.0592   12.2471   28.9349 C   0  0  0  0  0  0  0  0  0  0  0  0
   30.4569   10.0394   20.3057 C   0  0  0  0  0  0  0  0  0  0  0  0
   21.4836   10.6983   31.6793 C   0  0  0  0  0  0  0  0  0  0  0  0
   35.3814   17.5646   21.9029 C   0  0  0  0  0  0  0  0  0  0  0  0
   36.6989   16.1987   19.8384 C   0  0  0  0  0  0  0  0  0  0  0  0
   21.5873    7.9229   32.0478 C   0  0  0  0  0  0  0  0  0  0  0  0
   31.1008   12.2696   21.4097 C   0  0  0  0  0  0  0  0  0  0  0  0
   27.4294   10.4820   29.8215 C   0  0  0  0  0  0  0  0  0  0  0  0
   27.9120   11.9438   29.9107 C   0  0  0  0  0  0  0  0  0  0  0  0
   30.0031   11.2031   21.1972 C   0  0  0  0  0  0  0  0  0  0  0  0
   36.6686   17.9439   21.5130 C   0  0  0  0  0  0  0  0  0  0  0  0
   20.5857   10.0668   32.5425 C   0  0  0  0  0  0  0  0  0  0  0  0
   20.6322    8.6848   32.7214 C   0  0  0  0  0  0  0  0  0  0  0  0
   37.3246   17.2654   20.4860 C   0  0  0  0  0  0  0  0  0  0  0  0
   33.0180   13.5094   19.3987 H   0  0  0  0  0  0  0  0  0  0  0  0
   25.1161    7.7530   29.1469 H   0  0  0  0  0  0  0  0  0  0  0  0
   24.6870   13.8313   28.0186 H   0  0  0  0  0  0  0  0  0  0  0  0
   29.7008   16.5949   23.5333 H   0  0  0  0  0  0  0  0  0  0  0  0
   26.1203   11.7657   26.1960 H   0  0  0  0  0  0  0  0  0  0  0  0
   29.9005   13.5558   23.6387 H   0  0  0  0  0  0  0  0  0  0  0  0
   28.0836   15.6842   25.0754 H   0  0  0  0  0  0  0  0  0  0  0  0
   28.0057   12.6326   24.8802 H   0  0  0  0  0  0  0  0  0  0  0  0
   26.5802   14.7312   26.7507 H   0  0  0  0  0  0  0  0  0  0  0  0
   29.6046   13.8716   21.2618 H   0  0  0  0  0  0  0  0  0  0  0  0
   30.6497   13.7161   19.8456 H   0  0  0  0  0  0  0  0  0  0  0  0
   23.5135    6.6921   30.6622 H   0  0  0  0  0  0  0  0  0  0  0  0
   35.2809   14.2080   18.7494 H   0  0  0  0  0  0  0  0  0  0  0  0
   26.7505    9.0526   28.3493 H   0  0  0  0  0  0  0  0  0  0  0  0
   27.1437   10.5911   27.6526 H   0  0  0  0  0  0  0  0  0  0  0  0
   22.4384   13.5252   28.5191 H   0  0  0  0  0  0  0  0  0  0  0  0
   21.4004   12.5372   29.5715 H   0  0  0  0  0  0  0  0  0  0  0  0
   22.0264   11.8370   28.0407 H   0  0  0  0  0  0  0  0  0  0  0  0
   24.8755   12.4608   31.2915 H   0  0  0  0  0  0  0  0  0  0  0  0
   23.1876   13.0226   31.5342 H   0  0  0  0  0  0  0  0  0  0  0  0
   24.2503   13.8977   30.4012 H   0  0  0  0  0  0  0  0  0  0  0  0
   31.5173   18.0086   21.3150 H   0  0  0  0  0  0  0  0  0  0  0  0
   31.2133   18.3089   23.0663 H   0  0  0  0  0  0  0  0  0  0  0  0
   32.8022   18.7030   22.3582 H   0  0  0  0  0  0  0  0  0  0  0  0
   33.7983   17.1444   24.2977 H   0  0  0  0  0  0  0  0  0  0  0  0
   33.3662   15.3970   24.2806 H   0  0  0  0  0  0  0  0  0  0  0  0
   32.1726   16.6317   24.8257 H   0  0  0  0  0  0  0  0  0  0  0  0
   29.9012   11.5424   29.1084 H   0  0  0  0  0  0  0  0  0  0  0  0
   28.7230   12.1431   27.8853 H   0  0  0  0  0  0  0  0  0  0  0  0
   31.4545    9.6651   20.6249 H   0  0  0  0  0  0  0  0  0  0  0  0
   29.7323    9.2056   20.4151 H   0  0  0  0  0  0  0  0  0  0  0  0
   21.4087   11.7661   31.5931 H   0  0  0  0  0  0  0  0  0  0  0  0
   34.9174   18.1253   22.6946 H   0  0  0  0  0  0  0  0  0  0  0  0
   37.2253   15.6799   19.0444 H   0  0  0  0  0  0  0  0  0  0  0  0
   21.6143    6.8504   32.2084 H   0  0  0  0  0  0  0  0  0  0  0  0
   32.0334   11.9943   20.8776 H   0  0  0  0  0  0  0  0  0  0  0  0
   31.3717   12.2970   22.4858 H   0  0  0  0  0  0  0  0  0  0  0  0
   26.7861   10.2623   30.7030 H   0  0  0  0  0  0  0  0  0  0  0  0
   28.3121    9.8089   29.8969 H   0  0  0  0  0  0  0  0  0  0  0  0
   27.0691   12.6431   29.7416 H   0  0  0  0  0  0  0  0  0  0  0  0
   28.2754   12.1175   30.9480 H   0  0  0  0  0  0  0  0  0  0  0  0
   29.0698   11.6437   20.7842 H   0  0  0  0  0  0  0  0  0  0  0  0
   29.7296   10.7820   22.1890 H   0  0  0  0  0  0  0  0  0  0  0  0
   37.1571   18.7726   22.0084 H   0  0  0  0  0  0  0  0  0  0  0  0
   19.8484   10.6526   33.0769 H   0  0  0  0  0  0  0  0  0  0  0  0
   19.9305    8.2045   33.3910 H   0  0  0  0  0  0  0  0  0  0  0  0
   38.3239   17.5652   20.1920 H   0  0  0  0  0  0  0  0  0  0  0  0
  2  1  1  0
  3  5  1  0
  4  5  1  0
  5 19  2  0
  6  1  2  0
  7  6  1  0
  8  2  2  0
  9  4  1  0
 10  3  1  0
 11 40  1  0
 12 41  1  0
 13  8  1  0
 14  9  2  0
 15  2  1  0
 16 10  2  0
 17 11  1  0
 18 12  1  0
 19 25  1  0
 20  6  1  0
 21 11  2  0
 22 11  2  0
 23 12  2  0
 24 12  2  0
 25 29  2  0
 26 20  2  0
 27 26  1  0
 28 27  2  0
 29 28  1  0
 30  1  1  0
 31 14  1  0
 32 34  1  0
 33 16  1  0
 34 15  2  0
 35  3  1  0
 36  4  1  0
 37  4  1  0
 38  7  1  0
 39  7  1  0
 40 48  1  0
 41 49  1  0
 42 14  1  0
 43 13  2  0
 44 32  2  0
 45 31  1  0
 46 30  1  0
 47 35  1  0
 48 47  1  0
 49 46  1  0
 50 43  1  0
 51 42  2  0
 52 51  1  0
 53 44  1  0
  7  8  1  0
 13 32  1  0
 53 50  2  0
 10  9  1  0
 31 33  2  0
 52 45  2  0
 15 54  1  0
 16 55  1  0
 19 56  1  0
 20 57  1  0
 25 58  1  0
 26 59  1  0
 27 60  1  0
 28 61  1  0
 29 62  1  0
 30 63  1  0
 30 64  1  0
 33 65  1  0
 34 66  1  0
 35 67  1  0
 35 68  1  0
 36 69  1  0
 36 70  1  0
 36 71  1  0
 37 72  1  0
 37 73  1  0
 37 74  1  0
 38 75  1  0
 38 76  1  0
 38 77  1  0
 39 78  1  0
 39 79  1  0
 39 80  1  0
 40 81  1  0
 40 82  1  0
 41 83  1  0
 41 84  1  0
 42 85  1  0
 43 86  1  0
 44 87  1  0
 45 88  1  0
 46 89  1  0
 46 90  1  0
 47 91  1  0
 47 92  1  0
 48 93  1  0
 48 94  1  0
 49 95  1  0
 49 96  1  0
 50 97  1  0
 51 98  1  0
 52 99  1  0
 53100  1  0
M  CHG  3   1   1  17  -1  18  -1
M  END
> <Uni-Dock RESULT> 
ENERGY=   -3.869  LOWER_BOUND=    6.473  UPPER_BOUND=   14.701
INTER + INTRA:          -3.869
INTER:                  -3.869
INTRA:                   0.000
UNBOUND:                 0.000

$$$$

     RDKit          3D

100105  0  0  0  0  0  0  0  0999 V2000
   26.9141    7.0084   31.4349 N   0  0  0  0  0  0  0  0  0  0  0  0
   25.9972    5.9203   31.4502 C   0  0  0  0  0  0  0  0  0  0  0  0
   32.6823   14.0967   26.4208 N   0  0  0  0  0  0  0  0  0  0  0  0
   32.3928   16.4402   27.0960 C   0  0  0  0  0  0  0  0  0  0  0  0
   31.9862   14.9891   27.3112 C   0  0  0  0  0  0  0  0  0  0  0  0
   26.2276    8.1019   31.2320 C   0  0  0  0  0  0  0  0  0  0  0  0
   24.7295    7.8514   31.1258 C   0  0  0  0  0  0  0  0  0  0  0  0
   24.7010    6.3448   31.2534 C   0  0  0  0  0  0  0  0  0  0  0  0
   33.5137   16.2708   26.0878 C   0  0  0  0  0  0  0  0  0  0  0  0
   33.6449   14.9271   25.7713 C   0  0  0  0  0  0  0  0  0  0  0  0
   27.2388   12.7566   25.9756 S   0  0  0  0  0  0  0  0  0  0  0  0
   31.3318    4.2600   31.9191 S   0  0  0  0  0  0  0  0  0  0  0  0
   23.6341    5.4154   31.2272 C   0  0  0  0  0  0  0  0  0  0  0  0
   34.3632   17.2337   25.4807 C   0  0  0  0  0  0  0  0  0  0  0  0
   26.3079    4.5728   31.6445 C   0  0  0  0  0  0  0  0  0  0  0  0
   34.6323   14.4782   24.8896 C   0  0  0  0  0  0  0  0  0  0  0  0
   27.2021   14.0240   27.0811 O   0  0  0  0  0  0  0  0  0  0  0  0
   32.4362    2.9996   31.8182 O   0  0  0  0  0  0  0  0  0  0  0  0
   31.1078   14.6173   28.2669 C   0  0  0  0  0  0  0  0  0  0  0  0
   26.7935    9.4744   31.1533 C   0  0  0  0  0  0  0  0  0  0  0  0
   26.6102   11.5396   26.5936 O   0  0  0  0  0  0  0  0  0  0  0  0
   26.4647   13.1458   24.7431 O   0  0  0  0  0  0  0  0  0  0  0  0
   29.9588    3.6902   32.1325 O   0  0  0  0  0  0  0  0  0  0  0  0
   31.6989    5.1421   33.0802 O   0  0  0  0  0  0  0  0  0  0  0  0
   30.8543   13.2326   28.6871 C   0  0  0  0  0  0  0  0  0  0  0  0
   27.8622    9.7881   30.4161 C   0  0  0  0  0  0  0  0  0  0  0  0
   28.2635   11.1910   30.2368 C   0  0  0  0  0  0  0  0  0  0  0  0
   29.3813   11.5037   29.5826 C   0  0  0  0  0  0  0  0  0  0  0  0
   29.7013   12.9042   29.2696 C   0  0  0  0  0  0  0  0  0  0  0  0
   28.3607    6.8869   31.6751 C   0  0  0  0  0  0  0  0  0  0  0  0
   35.3718   16.7745   24.5833 C   0  0  0  0  0  0  0  0  0  0  0  0
   23.9439    4.0356   31.4044 C   0  0  0  0  0  0  0  0  0  0  0  0
   35.4972   15.4020   24.3015 C   0  0  0  0  0  0  0  0  0  0  0  0
   25.2768    3.6305   31.6146 C   0  0  0  0  0  0  0  0  0  0  0  0
   32.0894   12.9310   25.7340 C   0  0  0  0  0  0  0  0  0  0  0  0
   32.9073   17.0518   28.4183 C   0  0  0  0  0  0  0  0  0  0  0  0
   31.2035   17.2190   26.5037 C   0  0  0  0  0  0  0  0  0  0  0  0
   23.9932    8.5286   32.2955 C   0  0  0  0  0  0  0  0  0  0  0  0
   24.2251    8.3355   29.7550 C   0  0  0  0  0  0  0  0  0  0  0  0
   28.9252   12.3785   25.5313 C   0  0  0  0  0  0  0  0  0  0  0  0
   31.3837    5.1955   30.3945 C   0  0  0  0  0  0  0  0  0  0  0  0
   34.2493   18.6188   25.7131 C   0  0  0  0  0  0  0  0  0  0  0  0
   22.2916    5.7904   31.0348 C   0  0  0  0  0  0  0  0  0  0  0  0
   22.9176    3.0782   31.3742 C   0  0  0  0  0  0  0  0  0  0  0  0
   36.2426   17.6938   23.9750 C   0  0  0  0  0  0  0  0  0  0  0  0
   29.0714    6.3175   30.4343 C   0  0  0  0  0  0  0  0  0  0  0  0
   31.1119   13.3461   24.6148 C   0  0  0  0  0  0  0  0  0  0  0  0
   29.6787   13.6455   25.0983 C   0  0  0  0  0  0  0  0  0  0  0  0
   30.6030    6.5128   30.4944 C   0  0  0  0  0  0  0  0  0  0  0  0
   21.2837    4.8231   31.0052 C   0  0  0  0  0  0  0  0  0  0  0  0
   35.1221   19.5184   25.0975 C   0  0  0  0  0  0  0  0  0  0  0  0
   36.1187   19.0585   24.2376 C   0  0  0  0  0  0  0  0  0  0  0  0
   21.5939    3.4738   31.1743 C   0  0  0  0  0  0  0  0  0  0  0  0
   27.3225    4.2497   31.8208 H   0  0  0  0  0  0  0  0  0  0  0  0
   34.7512   13.4286   24.6678 H   0  0  0  0  0  0  0  0  0  0  0  0
   30.5704   15.3912   28.7996 H   0  0  0  0  0  0  0  0  0  0  0  0
   26.2175   10.2785   31.5936 H   0  0  0  0  0  0  0  0  0  0  0  0
   31.6158   12.4778   28.5515 H   0  0  0  0  0  0  0  0  0  0  0  0
   28.4034    9.0216   29.8821 H   0  0  0  0  0  0  0  0  0  0  0  0
   27.6184   11.9795   30.6101 H   0  0  0  0  0  0  0  0  0  0  0  0
   30.0411   10.7188   29.2326 H   0  0  0  0  0  0  0  0  0  0  0  0
   28.9566   13.6698   29.4580 H   0  0  0  0  0  0  0  0  0  0  0  0
   28.7912    7.8656   31.9678 H   0  0  0  0  0  0  0  0  0  0  0  0
   28.5349    6.2145   32.5424 H   0  0  0  0  0  0  0  0  0  0  0  0
   36.2632   15.0443   23.6222 H   0  0  0  0  0  0  0  0  0  0  0  0
   25.5192    2.5840   31.7575 H   0  0  0  0  0  0  0  0  0  0  0  0
   32.9015   12.3315   25.2774 H   0  0  0  0  0  0  0  0  0  0  0  0
   31.6125   12.2320   26.4330 H   0  0  0  0  0  0  0  0  0  0  0  0
   32.0922   17.1080   29.1705 H   0  0  0  0  0  0  0  0  0  0  0  0
   33.2887   18.0811   28.2859 H   0  0  0  0  0  0  0  0  0  0  0  0
   33.7289   16.4300   28.8386 H   0  0  0  0  0  0  0  0  0  0  0  0
   30.8879   16.7660   25.5385 H   0  0  0  0  0  0  0  0  0  0  0  0
   31.4488   18.2810   26.3218 H   0  0  0  0  0  0  0  0  0  0  0  0
   30.3390   17.1968   27.2002 H   0  0  0  0  0  0  0  0  0  0  0  0
   24.4363    8.2179   33.2669 H   0  0  0  0  0  0  0  0  0  0  0  0
   24.0631    9.6318   32.2127 H   0  0  0  0  0  0  0  0  0  0  0  0
   22.9183    8.2674   32.3106 H   0  0  0  0  0  0  0  0  0  0  0  0
   23.1350    8.1909   29.6403 H   0  0  0  0  0  0  0  0  0  0  0  0
   24.7426    7.7906   28.9359 H   0  0  0  0  0  0  0  0  0  0  0  0
   24.4272    9.4217   29.6335 H   0  0  0  0  0  0  0  0  0  0  0  0
   28.9152   11.6404   24.7003 H   0  0  0  0  0  0  0  0  0  0  0  0
   29.4092   11.9123   26.4110 H   0  0  0  0  0  0  0  0  0  0  0  0
   30.9974    4.5717   29.5586 H   0  0  0  0  0  0  0  0  0  0  0  0
   32.4471    5.4293   30.1782 H   0  0  0  0  0  0  0  0  0  0  0  0
   33.4935   19.0330   26.3536 H   0  0  0  0  0  0  0  0  0  0  0  0
   21.9980    6.8171   30.9068 H   0  0  0  0  0  0  0  0  0  0  0  0
   23.1412    2.0243   31.5000 H   0  0  0  0  0  0  0  0  0  0  0  0
   37.0174   17.3566   23.2949 H   0  0  0  0  0  0  0  0  0  0  0  0
   28.8096    5.2463   30.3216 H   0  0  0  0  0  0  0  0  0  0  0  0
   28.6812    6.8145   29.5217 H   0  0  0  0  0  0  0  0  0  0  0  0
   31.5094   14.2454   24.0927 H   0  0  0  0  0  0  0  0  0  0  0  0
   31.0710   12.5317   23.8579 H   0  0  0  0  0  0  0  0  0  0  0  0
   29.6925   14.3849   25.9237 H   0  0  0  0  0  0  0  0  0  0  0  0
   29.1268   14.1128   24.2525 H   0  0  0  0  0  0  0  0  0  0  0  0
   30.9166    7.0606   31.4094 H   0  0  0  0  0  0  0  0  0  0  0  0
   30.9068    7.1513   29.6366 H   0  0  0  0  0  0  0  0  0  0  0  0
   20.2552    5.1241   30.8547 H   0  0  0  0  0  0  0  0  0  0  0  0
   35.0257   20.5799   25.2881 H   0  0  0  0  0  0  0  0  0  0  0  0
   36.7917   19.7636   23.7670 H   0  0  0  0  0  0  0  0  0  0  0  0
   20.8056    2.7304   31.1473 H   0  0  0  0  0  0  0  0  0  0  0  0
  2  1  1  0
  3  5  1  0
  4  5  1  0
  5 19  2  0
  6  1  2  0
  7  6  1  0
  8  2  2  0
  9  4  1  0
 10  3  1  0
 11 40  1  0
 12 41  1  0
 13  8  1  0
 14  9  2  0
 15  2  1  0
 16 10  2  0
 17 11  1  0
 18 12  1  0
 19 25  1  0
 20  6  1  0
 21 11  2  0
 22 11  2  0
 23 12  2  0
 24 12  2  0
 25 29  2  0
 26 20  2  0
 27 26  1  0
 28 27  2  0
 29 28  1  0
 30  1  1  0
 31 14  1  0
 32 34  1  0
 33 16  1  0
 34 15  2  0
 35  3  1  0
 36  4  1  0
 37  4  1  0
 38  7  1  0
 39  7  1  0
 40 48  1  0
 41 49  1  0
 42 14  1  0
 43 13  2  0
 44 32  2  0
 45 31  1  0
 46 30  1  0
 47 35  1  0
 48 47  1  0
 49 46  1  0
 50 43  1  0
 51 42  2  0
 52 51  1  0
 53 44  1  0
  7  8  1  0
 13 32  1  0
 53 50  2  0
 10  9  1  0
 31 33  2  0
 52 45  2  0
 15 54  1  0
 16 55  1  0
 19 56  1  0
 20 57  1  0
 25 58  1  0
 26 59  1  0
 27 60  1  0
 28 61  1  0
 29 62  1  0
 30 63  1  0
 30 64  1  0
 33 65  1  0
 34 66  1  0
 35 67  1  0
 35 68  1  0
 36 69  1  0
 36 70  1  0
 36 71  1  0
 37 72  1  0
 37 73  1  0
 37 74  1  0
 38 75  1  0
 38 76  1  0
 38 77  1  0
 39 78  1  0
 39 79  1  0
 39 80  1  0
 40 81  1  0
 40 82  1  0
 41 83  1  0
 41 84  1  0
 42 85  1  0
 43 86  1  0
 44 87  1  0
 45 88  1  0
 46 89  1  0
 46 90  1  0
 47 91  1  0
 47 92  1  0
 48 93  1  0
 48 94  1  0
 49 95  1  0
 49 96  1  0
 50 97  1  0
 51 98  1  0
 52 99  1  0
 53100  1  0
M  CHG  3   1   1  17  -1  18  -1
M  END
> <Uni-Dock RESULT> 
ENERGY=   -3.733  LOWER_BOUND=    3.733  UPPER_BOUND=    6.187
INTER + INTRA:          -3.733
INTER:                  -3.733
INTRA:                   0.000
UNBOUND:                 0.000

$$$$

     RDKit          3D

100105  0  0  0  0  0  0  0  0999 V2000
   25.1634    6.1868   31.7392 N   0  0  0  0  0  0  0  0  0  0  0  0
   23.9893    5.5753   31.2175 C   0  0  0  0  0  0  0  0  0  0  0  0
   34.2391   11.1714   30.5383 N   0  0  0  0  0  0  0  0  0  0  0  0
   34.5294   13.2633   31.7919 C   0  0  0  0  0  0  0  0  0  0  0  0
   33.6232   12.0843   31.4661 C   0  0  0  0  0  0  0  0  0  0  0  0
   24.9796    7.4806   31.7163 C   0  0  0  0  0  0  0  0  0  0  0  0
   23.6045    7.8759   31.1956 C   0  0  0  0  0  0  0  0  0  0  0  0
   23.0438    6.5121   30.8601 C   0  0  0  0  0  0  0  0  0  0  0  0
   35.7973   12.8508   31.0681 C   0  0  0  0  0  0  0  0  0  0  0  0
   35.5769   11.6520   30.4067 C   0  0  0  0  0  0  0  0  0  0  0  0
   29.1211   12.2332   28.4637 S   0  0  0  0  0  0  0  0  0  0  0  0
   28.0199    1.8613   32.3984 S   0  0  0  0  0  0  0  0  0  0  0  0
   21.8023    6.1107   30.3122 C   0  0  0  0  0  0  0  0  0  0  0  0
   37.0644   13.4877   30.9889 C   0  0  0  0  0  0  0  0  0  0  0  0
   23.7595    4.2057   31.0698 C   0  0  0  0  0  0  0  0  0  0  0  0
   36.5935   11.0186   29.6861 C   0  0  0  0  0  0  0  0  0  0  0  0
   29.1421   13.1782   29.8552 O   0  0  0  0  0  0  0  0  0  0  0  0
   28.6189    0.3072   32.1874 O   0  0  0  0  0  0  0  0  0  0  0  0
   32.4101   11.9241   32.0370 C   0  0  0  0  0  0  0  0  0  0  0  0
   25.9566    8.4997   32.1822 C   0  0  0  0  0  0  0  0  0  0  0  0
   27.9630   11.2779   28.5289 O   0  0  0  0  0  0  0  0  0  0  0  0
   28.9658   13.1228   27.2577 O   0  0  0  0  0  0  0  0  0  0  0  0
   26.5465    1.8604   32.1080 O   0  0  0  0  0  0  0  0  0  0  0  0
   28.2543    2.2885   33.8208 O   0  0  0  0  0  0  0  0  0  0  0  0
   31.5942   10.7051   31.9563 C   0  0  0  0  0  0  0  0  0  0  0  0
   27.2479    8.4908   31.8407 C   0  0  0  0  0  0  0  0  0  0  0  0
   28.1219    9.6219   32.1841 C   0  0  0  0  0  0  0  0  0  0  0  0
   29.4292    9.5769   31.9307 C   0  0  0  0  0  0  0  0  0  0  0  0
   30.2740   10.7635   32.1307 C   0  0  0  0  0  0  0  0  0  0  0  0
   26.3271    5.4535   32.2617 C   0  0  0  0  0  0  0  0  0  0  0  0
   38.1016   12.8394   30.2556 C   0  0  0  0  0  0  0  0  0  0  0  0
   21.5668    4.7158   30.1388 C   0  0  0  0  0  0  0  0  0  0  0  0
   37.8552   11.6107   29.6165 C   0  0  0  0  0  0  0  0  0  0  0  0
   22.5467    3.7791   30.5229 C   0  0  0  0  0  0  0  0  0  0  0  0
   33.5565   10.4917   29.4185 C   0  0  0  0  0  0  0  0  0  0  0  0
   34.7531   13.3587   33.3177 C   0  0  0  0  0  0  0  0  0  0  0  0
   33.9243   14.5490   31.1981 C   0  0  0  0  0  0  0  0  0  0  0  0
   22.7910    8.5596   32.3090 C   0  0  0  0  0  0  0  0  0  0  0  0
   23.7647    8.7684   29.9524 C   0  0  0  0  0  0  0  0  0  0  0  0
   30.6373   11.3016   28.3317 C   0  0  0  0  0  0  0  0  0  0  0  0
   28.8714    2.9646   31.2758 C   0  0  0  0  0  0  0  0  0  0  0  0
   37.3412   14.7323   31.5887 C   0  0  0  0  0  0  0  0  0  0  0  0
   20.7983    7.0209   29.9334 C   0  0  0  0  0  0  0  0  0  0  0  0
   20.3534    4.2738   29.5882 C   0  0  0  0  0  0  0  0  0  0  0  0
   39.3736   13.4289   30.1674 C   0  0  0  0  0  0  0  0  0  0  0  0
   27.1765    4.8899   31.1085 C   0  0  0  0  0  0  0  0  0  0  0  0
   33.1924   11.4648   28.2778 C   0  0  0  0  0  0  0  0  0  0  0  0
   31.8619   12.2171   28.4816 C   0  0  0  0  0  0  0  0  0  0  0  0
   28.5783    4.4403   31.5779 C   0  0  0  0  0  0  0  0  0  0  0  0
   19.5977    6.5625   29.3847 C   0  0  0  0  0  0  0  0  0  0  0  0
   38.6110   15.3046   31.4882 C   0  0  0  0  0  0  0  0  0  0  0  0
   39.6250   14.6535   30.7867 C   0  0  0  0  0  0  0  0  0  0  0  0
   19.3752    5.1963   29.2130 C   0  0  0  0  0  0  0  0  0  0  0  0
   24.4952    3.4766   31.3729 H   0  0  0  0  0  0  0  0  0  0  0  0
   36.4276   10.0710   29.1969 H   0  0  0  0  0  0  0  0  0  0  0  0
   32.0130   12.7340   32.6353 H   0  0  0  0  0  0  0  0  0  0  0  0
   25.5655    9.3694   32.6948 H   0  0  0  0  0  0  0  0  0  0  0  0
   32.0662    9.7483   31.7837 H   0  0  0  0  0  0  0  0  0  0  0  0
   27.6512    7.6863   31.2443 H   0  0  0  0  0  0  0  0  0  0  0  0
   27.6863   10.5178   32.6140 H   0  0  0  0  0  0  0  0  0  0  0  0
   29.8713    8.6740   31.5268 H   0  0  0  0  0  0  0  0  0  0  0  0
   29.8032   11.7133   32.3593 H   0  0  0  0  0  0  0  0  0  0  0  0
   26.9335    6.1042   32.9232 H   0  0  0  0  0  0  0  0  0  0  0  0
   25.9774    4.6184   32.9059 H   0  0  0  0  0  0  0  0  0  0  0  0
   38.6392   11.1100   29.0590 H   0  0  0  0  0  0  0  0  0  0  0  0
   22.3719    2.7167   30.4010 H   0  0  0  0  0  0  0  0  0  0  0  0
   34.2293    9.7139   29.0062 H   0  0  0  0  0  0  0  0  0  0  0  0
   32.6760    9.9251   29.7477 H   0  0  0  0  0  0  0  0  0  0  0  0
   33.8029   13.5949   33.8418 H   0  0  0  0  0  0  0  0  0  0  0  0
   35.4717   14.1539   33.5891 H   0  0  0  0  0  0  0  0  0  0  0  0
   35.1400   12.3932   33.7133 H   0  0  0  0  0  0  0  0  0  0  0  0
   33.8121   14.4495   30.0963 H   0  0  0  0  0  0  0  0  0  0  0  0
   34.5492   15.4373   31.4018 H   0  0  0  0  0  0  0  0  0  0  0  0
   32.9229   14.7453   31.6358 H   0  0  0  0  0  0  0  0  0  0  0  0
   22.7641    7.9219   33.2195 H   0  0  0  0  0  0  0  0  0  0  0  0
   23.2415    9.5367   32.5759 H   0  0  0  0  0  0  0  0  0  0  0  0
   21.7478    8.7532   31.9957 H   0  0  0  0  0  0  0  0  0  0  0  0
   22.7886    9.0968   29.5500 H   0  0  0  0  0  0  0  0  0  0  0  0
   24.3128    8.2255   29.1522 H   0  0  0  0  0  0  0  0  0  0  0  0
   24.3394    9.6845   30.2091 H   0  0  0  0  0  0  0  0  0  0  0  0
   30.6585   10.7988   27.3405 H   0  0  0  0  0  0  0  0  0  0  0  0
   30.6256   10.5250   29.1206 H   0  0  0  0  0  0  0  0  0  0  0  0
   28.5982    2.7161   30.2267 H   0  0  0  0  0  0  0  0  0  0  0  0
   29.9613    2.7887   31.3919 H   0  0  0  0  0  0  0  0  0  0  0  0
   36.5974   15.2869   32.1294 H   0  0  0  0  0  0  0  0  0  0  0  0
   20.9163    8.0833   30.0513 H   0  0  0  0  0  0  0  0  0  0  0  0
   20.1651    3.2154   29.4440 H   0  0  0  0  0  0  0  0  0  0  0  0
   40.1725   12.9431   29.6173 H   0  0  0  0  0  0  0  0  0  0  0  0
   26.6304    4.0550   30.6254 H   0  0  0  0  0  0  0  0  0  0  0  0
   27.2922    5.6626   30.3201 H   0  0  0  0  0  0  0  0  0  0  0  0
   34.0102   12.2098   28.1535 H   0  0  0  0  0  0  0  0  0  0  0  0
   33.1370   10.8921   27.3256 H   0  0  0  0  0  0  0  0  0  0  0  0
   31.8464   12.7205   29.4688 H   0  0  0  0  0  0  0  0  0  0  0  0
   31.8027   13.0154   27.7086 H   0  0  0  0  0  0  0  0  0  0  0  0
   28.7364    4.6350   32.6609 H   0  0  0  0  0  0  0  0  0  0  0  0
   29.3375    5.0517   31.0434 H   0  0  0  0  0  0  0  0  0  0  0  0
   18.8340    7.2726   29.0958 H   0  0  0  0  0  0  0  0  0  0  0  0
   38.8110   16.2598   31.9574 H   0  0  0  0  0  0  0  0  0  0  0  0
   40.6065   15.1043   30.7165 H   0  0  0  0  0  0  0  0  0  0  0  0
   18.4418    4.8502   28.7843 H   0  0  0  0  0  0  0  0  0  0  0  0
  2  1  1  0
  3  5  1  0
  4  5  1  0
  5 19  2  0
  6  1  2  0
  7  6  1  0
  8  2  2  0
  9  4  1  0
 10  3  1  0
 11 40  1  0
 12 41  1  0
 13  8  1  0
 14  9  2  0
 15  2  1  0
 16 10  2  0
 17 11  1  0
 18 12  1  0
 19 25  1  0
 20  6  1  0
 21 11  2  0
 22 11  2  0
 23 12  2  0
 24 12  2  0
 25 29  2  0
 26 20  2  0
 27 26  1  0
 28 27  2  0
 29 28  1  0
 30  1  1  0
 31 14  1  0
 32 34  1  0
 33 16  1  0
 34 15  2  0
 35  3  1  0
 36  4  1  0
 37  4  1  0
 38  7  1  0
 39  7  1  0
 40 48  1  0
 41 49  1  0
 42 14  1  0
 43 13  2  0
 44 32  2  0
 45 31  1  0
 46 30  1  0
 47 35  1  0
 48 47  1  0
 49 46  1  0
 50 43  1  0
 51 42  2  0
 52 51  1  0
 53 44  1  0
  7  8  1  0
 13 32  1  0
 53 50  2  0
 10  9  1  0
 31 33  2  0
 52 45  2  0
 15 54  1  0
 16 55  1  0
 19 56  1  0
 20 57  1  0
 25 58  1  0
 26 59  1  0
 27 60  1  0
 28 61  1  0
 29 62  1  0
 30 63  1  0
 30 64  1  0
 33 65  1  0
 34 66  1  0
 35 67  1  0
 35 68  1  0
 36 69  1  0
 36 70  1  0
 36 71  1  0
 37 72  1  0
 37 73  1  0
 37 74  1  0
 38 75  1  0
 38 76  1  0
 38 77  1  0
 39 78  1  0
 39 79  1  0
 39 80  1  0
 40 81  1  0
 40 82  1  0
 41 83  1  0
 41 84  1  0
 42 85  1  0
 43 86  1  0
 44 87  1  0
 45 88  1  0
 46 89  1  0
 46 90  1  0
 47 91  1  0
 47 92  1  0
 48 93  1  0
 48 94  1  0
 49 95  1  0
 49 96  1  0
 50 97  1  0
 51 98  1  0
 52 99  1  0
 53100  1  0
M  CHG  3   1   1  17  -1  18  -1
M  END
> <Uni-Dock RESULT> 
ENERGY=   -3.659  LOWER_BOUND=    4.335  UPPER_BOUND=    6.855
INTER + INTRA:          -3.659
INTER:                  -3.659
INTRA:                   0.000
UNBOUND:                 0.000

$$$$

     RDKit          3D

100105  0  0  0  0  0  0  0  0999 V2000
   30.2558   13.1731   19.2325 N   0  0  0  0  0  0  0  0  0  0  0  0
   31.3503   12.9751   18.3451 C   0  0  0  0  0  0  0  0  0  0  0  0
   25.1382   11.2019   28.0971 N   0  0  0  0  0  0  0  0  0  0  0  0
   24.5339   13.1377   29.4824 C   0  0  0  0  0  0  0  0  0  0  0  0
   25.1941   12.6367   28.2055 C   0  0  0  0  0  0  0  0  0  0  0  0
   30.6579   13.9728   20.1850 C   0  0  0  0  0  0  0  0  0  0  0  0
   32.0972   14.4354   20.0037 C   0  0  0  0  0  0  0  0  0  0  0  0
   32.4677   13.6715   18.7523 C   0  0  0  0  0  0  0  0  0  0  0  0
   23.9551   11.8445   30.0249 C   0  0  0  0  0  0  0  0  0  0  0  0
   24.3063   10.7985   29.1849 C   0  0  0  0  0  0  0  0  0  0  0  0
   30.5019   12.5960   27.1418 S   0  0  0  0  0  0  0  0  0  0  0  0
   26.8567    9.9259   16.9511 S   0  0  0  0  0  0  0  0  0  0  0  0
   33.6699   13.6041   18.0088 C   0  0  0  0  0  0  0  0  0  0  0  0
   23.1736   11.5974   31.1849 C   0  0  0  0  0  0  0  0  0  0  0  0
   31.3524   12.1942   17.1873 C   0  0  0  0  0  0  0  0  0  0  0  0
   23.8721    9.4919   29.4259 C   0  0  0  0  0  0  0  0  0  0  0  0
   29.7926   14.0939   27.4298 O   0  0  0  0  0  0  0  0  0  0  0  0
   26.2389    8.6339   16.0750 O   0  0  0  0  0  0  0  0  0  0  0  0
   25.7175   13.4738   27.2844 C   0  0  0  0  0  0  0  0  0  0  0  0
   29.8256   14.4497   21.3207 C   0  0  0  0  0  0  0  0  0  0  0  0
   31.1488   12.6048   25.7856 O   0  0  0  0  0  0  0  0  0  0  0  0
   31.5491   12.3287   28.1916 O   0  0  0  0  0  0  0  0  0  0  0  0
   28.1486   10.3669   16.3253 O   0  0  0  0  0  0  0  0  0  0  0  0
   25.8675   11.0579   16.9192 O   0  0  0  0  0  0  0  0  0  0  0  0
   26.1477   13.0814   25.9356 C   0  0  0  0  0  0  0  0  0  0  0  0
   29.0664   13.6421   22.0661 C   0  0  0  0  0  0  0  0  0  0  0  0
   28.4102   14.1424   23.2828 C   0  0  0  0  0  0  0  0  0  0  0  0
   27.5766   13.3687   23.9770 C   0  0  0  0  0  0  0  0  0  0  0  0
   27.0433   13.8132   25.2730 C   0  0  0  0  0  0  0  0  0  0  0  0
   28.9095   12.6120   19.0388 C   0  0  0  0  0  0  0  0  0  0  0  0
   22.7291   10.2645   31.4285 C   0  0  0  0  0  0  0  0  0  0  0  0
   33.6875   12.7934   16.8367 C   0  0  0  0  0  0  0  0  0  0  0  0
   23.0800    9.2284   30.5441 C   0  0  0  0  0  0  0  0  0  0  0  0
   32.5275   12.1006   16.4374 C   0  0  0  0  0  0  0  0  0  0  0  0
   26.2258   10.3333   27.6024 C   0  0  0  0  0  0  0  0  0  0  0  0
   23.4239   14.1578   29.1443 C   0  0  0  0  0  0  0  0  0  0  0  0
   25.6110   13.7189   30.4174 C   0  0  0  0  0  0  0  0  0  0  0  0
   32.1410   15.9557   19.7678 C   0  0  0  0  0  0  0  0  0  0  0  0
   32.9308   14.0060   21.2237 C   0  0  0  0  0  0  0  0  0  0  0  0
   29.2637   11.3118   27.1878 C   0  0  0  0  0  0  0  0  0  0  0  0
   27.1344    9.3982   18.6383 C   0  0  0  0  0  0  0  0  0  0  0  0
   22.8276   12.6019   32.1105 C   0  0  0  0  0  0  0  0  0  0  0  0
   34.8396   14.2961   18.3731 C   0  0  0  0  0  0  0  0  0  0  0  0
   34.8624   12.6888   16.0754 C   0  0  0  0  0  0  0  0  0  0  0  0
   21.9404    9.9820   32.5561 C   0  0  0  0  0  0  0  0  0  0  0  0
   28.8869   11.1165   19.4021 C   0  0  0  0  0  0  0  0  0  0  0  0
   27.4052   10.2503   28.5938 C   0  0  0  0  0  0  0  0  0  0  0  0
   28.4237   11.4014   28.4710 C   0  0  0  0  0  0  0  0  0  0  0  0
   27.4494   10.5755   19.5707 C   0  0  0  0  0  0  0  0  0  0  0  0
   36.0006   14.1779   17.6044 C   0  0  0  0  0  0  0  0  0  0  0  0
   22.0450   12.3021   33.2275 C   0  0  0  0  0  0  0  0  0  0  0  0
   21.5974   10.9999   33.4465 C   0  0  0  0  0  0  0  0  0  0  0  0
   36.0129   13.3791   16.4612 C   0  0  0  0  0  0  0  0  0  0  0  0
   30.4672   11.6695   16.8617 H   0  0  0  0  0  0  0  0  0  0  0  0
   24.1223    8.6848   28.7544 H   0  0  0  0  0  0  0  0  0  0  0  0
   25.7961   14.5247   27.5313 H   0  0  0  0  0  0  0  0  0  0  0  0
   29.9651   15.4722   21.6478 H   0  0  0  0  0  0  0  0  0  0  0  0
   25.7165   12.2110   25.4617 H   0  0  0  0  0  0  0  0  0  0  0  0
   28.9830   12.5928   21.8259 H   0  0  0  0  0  0  0  0  0  0  0  0
   28.6404   15.1416   23.6374 H   0  0  0  0  0  0  0  0  0  0  0  0
   27.3239   12.3807   23.6110 H   0  0  0  0  0  0  0  0  0  0  0  0
   27.4370   14.7181   25.7226 H   0  0  0  0  0  0  0  0  0  0  0  0
   28.1621   13.1779   19.6302 H   0  0  0  0  0  0  0  0  0  0  0  0
   28.6065   12.7393   17.9773 H   0  0  0  0  0  0  0  0  0  0  0  0
   22.7439    8.2125   30.7209 H   0  0  0  0  0  0  0  0  0  0  0  0
   32.5311   11.4883   15.5434 H   0  0  0  0  0  0  0  0  0  0  0  0
   25.8287    9.3098   27.4529 H   0  0  0  0  0  0  0  0  0  0  0  0
   26.5724   10.6256   26.6029 H   0  0  0  0  0  0  0  0  0  0  0  0
   23.8551   15.0727   28.6858 H   0  0  0  0  0  0  0  0  0  0  0  0
   22.8653   14.4849   30.0406 H   0  0  0  0  0  0  0  0  0  0  0  0
   22.6975   13.7158   28.4264 H   0  0  0  0  0  0  0  0  0  0  0  0
   26.3695   12.9433   30.6612 H   0  0  0  0  0  0  0  0  0  0  0  0
   25.1834   14.0926   31.3653 H   0  0  0  0  0  0  0  0  0  0  0  0
   26.1274   14.5733   29.9313 H   0  0  0  0  0  0  0  0  0  0  0  0
   31.4655   16.2398   18.9315 H   0  0  0  0  0  0  0  0  0  0  0  0
   31.8221   16.5001   20.6792 H   0  0  0  0  0  0  0  0  0  0  0  0
   33.1609   16.3033   19.5171 H   0  0  0  0  0  0  0  0  0  0  0  0
   33.9822   14.3387   21.1446 H   0  0  0  0  0  0  0  0  0  0  0  0
   32.9169   12.9000   21.3341 H   0  0  0  0  0  0  0  0  0  0  0  0
   32.5131   14.4543   22.1510 H   0  0  0  0  0  0  0  0  0  0  0  0
   29.7745   10.3259   27.1367 H   0  0  0  0  0  0  0  0  0  0  0  0
   28.6265   11.4256   26.2897 H   0  0  0  0  0  0  0  0  0  0  0  0
   27.9524    8.6449   18.6656 H   0  0  0  0  0  0  0  0  0  0  0  0
   26.2068    8.9028   18.9938 H   0  0  0  0  0  0  0  0  0  0  0  0
   23.1544   13.6191   32.0024 H   0  0  0  0  0  0  0  0  0  0  0  0
   34.8813   14.9305   19.2405 H   0  0  0  0  0  0  0  0  0  0  0  0
   34.8910   12.0691   15.1857 H   0  0  0  0  0  0  0  0  0  0  0  0
   21.5914    8.9733   32.7496 H   0  0  0  0  0  0  0  0  0  0  0  0
   29.4412   10.5439   18.6316 H   0  0  0  0  0  0  0  0  0  0  0  0
   29.4448   10.9554   20.3481 H   0  0  0  0  0  0  0  0  0  0  0  0
   27.0112   10.2295   29.6348 H   0  0  0  0  0  0  0  0  0  0  0  0
   27.9357    9.2852   28.4357 H   0  0  0  0  0  0  0  0  0  0  0  0
   27.9113   12.3824   28.5268 H   0  0  0  0  0  0  0  0  0  0  0  0
   29.1085   11.3421   29.3462 H   0  0  0  0  0  0  0  0  0  0  0  0
   26.6865   11.3721   19.4320 H   0  0  0  0  0  0  0  0  0  0  0  0
   27.3318   10.2185   20.6170 H   0  0  0  0  0  0  0  0  0  0  0  0
   36.8942   14.7138   17.8961 H   0  0  0  0  0  0  0  0  0  0  0  0
   21.7834   13.0846   33.9287 H   0  0  0  0  0  0  0  0  0  0  0  0
   20.9894   10.7781   34.3141 H   0  0  0  0  0  0  0  0  0  0  0  0
   36.9187   13.2915   15.8725 H   0  0  0  0  0  0  0  0  0  0  0  0
  2  1  1  0
  3  5  1  0
  4  5  1  0
  5 19  2  0
  6  1  2  0
  7  6  1  0
  8  2  2  0
  9  4  1  0
 10  3  1  0
 11 40  1  0
 12 41  1  0
 13  8  1  0
 14  9  2  0
 15  2  1  0
 16 10  2  0
 17 11  1  0
 18 12  1  0
 19 25  1  0
 20  6  1  0
 21 11  2  0
 22 11  2  0
 23 12  2  0
 24 12  2  0
 25 29  2  0
 26 20  2  0
 27 26  1  0
 28 27  2  0
 29 28  1  0
 30  1  1  0
 31 14  1  0
 32 34  1  0
 33 16  1  0
 34 15  2  0
 35  3  1  0
 36  4  1  0
 37  4  1  0
 38  7  1  0
 39  7  1  0
 40 48  1  0
 41 49  1  0
 42 14  1  0
 43 13  2  0
 44 32  2  0
 45 31  1  0
 46 30  1  0
 47 35  1  0
 48 47  1  0
 49 46  1  0
 50 43  1  0
 51 42  2  0
 52 51  1  0
 53 44  1  0
  7  8  1  0
 13 32  1  0
 53 50  2  0
 10  9  1  0
 31 33  2  0
 52 45  2  0
 15 54  1  0
 16 55  1  0
 19 56  1  0
 20 57  1  0
 25 58  1  0
 26 59  1  0
 27 60  1  0
 28 61  1  0
 29 62  1  0
 30 63  1  0
 30 64  1  0
 33 65  1  0
 34 66  1  0
 35 67  1  0
 35 68  1  0
 36 69  1  0
 36 70  1  0
 36 71  1  0
 37 72  1  0
 37 73  1  0
 37 74  1  0
 38 75  1  0
 38 76  1  0
 38 77  1  0
 39 78  1  0
 39 79  1  0
 39 80  1  0
 40 81  1  0
 40 82  1  0
 41 83  1  0
 41 84  1  0
 42 85  1  0
 43 86  1  0
 44 87  1  0
 45 88  1  0
 46 89  1  0
 46 90  1  0
 47 91  1  0
 47 92  1  0
 48 93  1  0
 48 94  1  0
 49 95  1  0
 49 96  1  0
 50 97  1  0
 51 98  1  0
 52 99  1  0
 53100  1  0
M  CHG  3   1   1  17  -1  18  -1
M  END
> <Uni-Dock RESULT> 
ENERGY=   -3.641  LOWER_BOUND=    7.113  UPPER_BOUND=   14.495
INTER + INTRA:          -3.641
INTER:                  -3.641
INTRA:                   0.000
UNBOUND:                 0.000

$$$$

     RDKit          3D

100105  0  0  0  0  0  0  0  0999 V2000
   22.9408   10.5815   29.8784 N   0  0  0  0  0  0  0  0  0  0  0  0
   22.3119   10.2750   31.1174 C   0  0  0  0  0  0  0  0  0  0  0  0
   30.6982   14.7315   24.2876 N   0  0  0  0  0  0  0  0  0  0  0  0
   31.7848   13.2678   22.6417 C   0  0  0  0  0  0  0  0  0  0  0  0
   30.7096   13.4126   23.7096 C   0  0  0  0  0  0  0  0  0  0  0  0
   23.8935    9.7066   29.6908 C   0  0  0  0  0  0  0  0  0  0  0  0
   23.9755    8.6703   30.8033 C   0  0  0  0  0  0  0  0  0  0  0  0
   22.8856    9.1769   31.7210 C   0  0  0  0  0  0  0  0  0  0  0  0
   32.2919   14.6953   22.5591 C   0  0  0  0  0  0  0  0  0  0  0  0
   31.6205   15.4737   23.4898 C   0  0  0  0  0  0  0  0  0  0  0  0
   30.7550   11.1621   28.6329 S   0  0  0  0  0  0  0  0  0  0  0  0
   20.2608   14.9208   28.7418 S   0  0  0  0  0  0  0  0  0  0  0  0
   22.4095    8.7094   32.9690 C   0  0  0  0  0  0  0  0  0  0  0  0
   33.2834   15.2763   21.7244 C   0  0  0  0  0  0  0  0  0  0  0  0
   21.2396   10.9562   31.6975 C   0  0  0  0  0  0  0  0  0  0  0  0
   31.8638   16.8454   23.6052 C   0  0  0  0  0  0  0  0  0  0  0  0
   30.7813   10.1165   27.3154 O   0  0  0  0  0  0  0  0  0  0  0  0
   19.3750   16.3344   28.9301 O   0  0  0  0  0  0  0  0  0  0  0  0
   29.8551   12.4133   24.0170 C   0  0  0  0  0  0  0  0  0  0  0  0
   24.7976    9.6542   28.5118 C   0  0  0  0  0  0  0  0  0  0  0  0
   29.5620   10.8500   29.4916 O   0  0  0  0  0  0  0  0  0  0  0  0
   32.0128   10.9786   29.4418 O   0  0  0  0  0  0  0  0  0  0  0  0
   19.8804   13.9577   29.8294 O   0  0  0  0  0  0  0  0  0  0  0  0
   19.9447   14.3188   27.4006 O   0  0  0  0  0  0  0  0  0  0  0  0
   28.6549   12.5565   24.8520 C   0  0  0  0  0  0  0  0  0  0  0  0
   25.4303   10.7238   28.0220 C   0  0  0  0  0  0  0  0  0  0  0  0
   26.4476   10.5768   26.9710 C   0  0  0  0  0  0  0  0  0  0  0  0
   27.0126   11.6464   26.4124 C   0  0  0  0  0  0  0  0  0  0  0  0
   28.1365   11.4989   25.4760 C   0  0  0  0  0  0  0  0  0  0  0  0
   22.5189   11.6594   28.9700 C   0  0  0  0  0  0  0  0  0  0  0  0
   33.5291   16.6762   21.8411 C   0  0  0  0  0  0  0  0  0  0  0  0
   21.3286    9.4106   33.5784 C   0  0  0  0  0  0  0  0  0  0  0  0
   32.8135   17.4449   22.7771 C   0  0  0  0  0  0  0  0  0  0  0  0
   20.7537   10.5237   32.9340 C   0  0  0  0  0  0  0  0  0  0  0  0
   30.5008   15.0424   25.7181 C   0  0  0  0  0  0  0  0  0  0  0  0
   31.1534   12.8123   21.3072 C   0  0  0  0  0  0  0  0  0  0  0  0
   32.8740   12.3021   23.1446 C   0  0  0  0  0  0  0  0  0  0  0  0
   23.6420    7.2722   30.2529 C   0  0  0  0  0  0  0  0  0  0  0  0
   25.3680    8.7281   31.4555 C   0  0  0  0  0  0  0  0  0  0  0  0
   30.6425   12.8525   28.0725 C   0  0  0  0  0  0  0  0  0  0  0  0
   22.0034   15.3143   28.8449 C   0  0  0  0  0  0  0  0  0  0  0  0
   34.0425   14.5350   20.7972 C   0  0  0  0  0  0  0  0  0  0  0  0
   22.9524    7.5920   33.6299 C   0  0  0  0  0  0  0  0  0  0  0  0
   20.8324    8.9879   34.8218 C   0  0  0  0  0  0  0  0  0  0  0  0
   34.4902   17.2915   21.0220 C   0  0  0  0  0  0  0  0  0  0  0  0
   22.9793   13.0287   29.5011 C   0  0  0  0  0  0  0  0  0  0  0  0
   31.7149   14.6346   26.5785 C   0  0  0  0  0  0  0  0  0  0  0  0
   31.7176   13.1566   27.0180 C   0  0  0  0  0  0  0  0  0  0  0  0
   22.8911   14.1348   28.4259 C   0  0  0  0  0  0  0  0  0  0  0  0
   22.4471    7.1875   34.8683 C   0  0  0  0  0  0  0  0  0  0  0  0
   34.9958   15.1632   19.9930 C   0  0  0  0  0  0  0  0  0  0  0  0
   35.2145   16.5361   20.0994 C   0  0  0  0  0  0  0  0  0  0  0  0
   21.3924    7.8808   35.4618 C   0  0  0  0  0  0  0  0  0  0  0  0
   20.7802   11.8015   31.2086 H   0  0  0  0  0  0  0  0  0  0  0  0
   31.3187   17.4544   24.3101 H   0  0  0  0  0  0  0  0  0  0  0  0
   30.0347   11.4347   23.5908 H   0  0  0  0  0  0  0  0  0  0  0  0
   25.0700    8.6769   28.1339 H   0  0  0  0  0  0  0  0  0  0  0  0
   28.1687   13.5177   24.9406 H   0  0  0  0  0  0  0  0  0  0  0  0
   25.2562   11.7031   28.4419 H   0  0  0  0  0  0  0  0  0  0  0  0
   26.7670    9.5824   26.6768 H   0  0  0  0  0  0  0  0  0  0  0  0
   26.6767   12.6399   26.6845 H   0  0  0  0  0  0  0  0  0  0  0  0
   28.5888   10.5221   25.3451 H   0  0  0  0  0  0  0  0  0  0  0  0
   22.9023   11.4790   27.9457 H   0  0  0  0  0  0  0  0  0  0  0  0
   21.4115   11.6515   28.8783 H   0  0  0  0  0  0  0  0  0  0  0  0
   32.9926   18.5105   22.8704 H   0  0  0  0  0  0  0  0  0  0  0  0
   19.9268   11.0573   33.3876 H   0  0  0  0  0  0  0  0  0  0  0  0
   30.3495   16.1341   25.8312 H   0  0  0  0  0  0  0  0  0  0  0  0
   29.5741   14.6095   26.1160 H   0  0  0  0  0  0  0  0  0  0  0  0
   30.7261   11.7916   21.4010 H   0  0  0  0  0  0  0  0  0  0  0  0
   31.8906   12.7736   20.4841 H   0  0  0  0  0  0  0  0  0  0  0  0
   30.3372   13.5070   21.0080 H   0  0  0  0  0  0  0  0  0  0  0  0
   33.3237   12.6846   24.0868 H   0  0  0  0  0  0  0  0  0  0  0  0
   33.6848   12.1663   22.4062 H   0  0  0  0  0  0  0  0  0  0  0  0
   32.4416   11.2992   23.3449 H   0  0  0  0  0  0  0  0  0  0  0  0
   22.6670    7.2863   29.7184 H   0  0  0  0  0  0  0  0  0  0  0  0
   24.4267    6.9349   29.5463 H   0  0  0  0  0  0  0  0  0  0  0  0
   23.5794    6.5174   31.0593 H   0  0  0  0  0  0  0  0  0  0  0  0
   25.4803    7.9769   32.2590 H   0  0  0  0  0  0  0  0  0  0  0  0
   25.5545    9.7363   31.8850 H   0  0  0  0  0  0  0  0  0  0  0  0
   26.1551    8.5202   30.6989 H   0  0  0  0  0  0  0  0  0  0  0  0
   30.7694   13.5249   28.9485 H   0  0  0  0  0  0  0  0  0  0  0  0
   29.6276   13.0030   27.6567 H   0  0  0  0  0  0  0  0  0  0  0  0
   22.2522   15.6468   29.8767 H   0  0  0  0  0  0  0  0  0  0  0  0
   22.1981   16.1654   28.1594 H   0  0  0  0  0  0  0  0  0  0  0  0
   33.9285   13.4736   20.6803 H   0  0  0  0  0  0  0  0  0  0  0  0
   23.7609    7.0186   33.2126 H   0  0  0  0  0  0  0  0  0  0  0  0
   20.0153    9.5176   35.2996 H   0  0  0  0  0  0  0  0  0  0  0  0
   34.6824   18.3565   21.0973 H   0  0  0  0  0  0  0  0  0  0  0  0
   22.3822   13.2938   30.3967 H   0  0  0  0  0  0  0  0  0  0  0  0
   24.0283   12.9558   29.8566 H   0  0  0  0  0  0  0  0  0  0  0  0
   32.6525   14.8431   26.0157 H   0  0  0  0  0  0  0  0  0  0  0  0
   31.7398   15.2775   27.4862 H   0  0  0  0  0  0  0  0  0  0  0  0
   31.5954   12.4895   26.1415 H   0  0  0  0  0  0  0  0  0  0  0  0
   32.7158   12.9361   27.4576 H   0  0  0  0  0  0  0  0  0  0  0  0
   22.5415   13.7373   27.4483 H   0  0  0  0  0  0  0  0  0  0  0  0
   23.9148   14.5294   28.2470 H   0  0  0  0  0  0  0  0  0  0  0  0
   22.8743    6.3276   35.3673 H   0  0  0  0  0  0  0  0  0  0  0  0
   35.5693   14.5819   19.2819 H   0  0  0  0  0  0  0  0  0  0  0  0
   35.9541   17.0141   19.4700 H   0  0  0  0  0  0  0  0  0  0  0  0
   21.0086    7.5612   36.4238 H   0  0  0  0  0  0  0  0  0  0  0  0
  2  1  1  0
  3  5  1  0
  4  5  1  0
  5 19  2  0
  6  1  2  0
  7  6  1  0
  8  2  2  0
  9  4  1  0
 10  3  1  0
 11 40  1  0
 12 41  1  0
 13  8  1  0
 14  9  2  0
 15  2  1  0
 16 10  2  0
 17 11  1  0
 18 12  1  0
 19 25  1  0
 20  6  1  0
 21 11  2  0
 22 11  2  0
 23 12  2  0
 24 12  2  0
 25 29  2  0
 26 20  2  0
 27 26  1  0
 28 27  2  0
 29 28  1  0
 30  1  1  0
 31 14  1  0
 32 34  1  0
 33 16  1  0
 34 15  2  0
 35  3  1  0
 36  4  1  0
 37  4  1  0
 38  7  1  0
 39  7  1  0
 40 48  1  0
 41 49  1  0
 42 14  1  0
 43 13  2  0
 44 32  2  0
 45 31  1  0
 46 30  1  0
 47 35  1  0
 48 47  1  0
 49 46  1  0
 50 43  1  0
 51 42  2  0
 52 51  1  0
 53 44  1  0
  7  8  1  0
 13 32  1  0
 53 50  2  0
 10  9  1  0
 31 33  2  0
 52 45  2  0
 15 54  1  0
 16 55  1  0
 19 56  1  0
 20 57  1  0
 25 58  1  0
 26 59  1  0
 27 60  1  0
 28 61  1  0
 29 62  1  0
 30 63  1  0
 30 64  1  0
 33 65  1  0
 34 66  1  0
 35 67  1  0
 35 68  1  0
 36 69  1  0
 36 70  1  0
 36 71  1  0
 37 72  1  0
 37 73  1  0
 37 74  1  0
 38 75  1  0
 38 76  1  0
 38 77  1  0
 39 78  1  0
 39 79  1  0
 39 80  1  0
 40 81  1  0
 40 82  1  0
 41 83  1  0
 41 84  1  0
 42 85  1  0
 43 86  1  0
 44 87  1  0
 45 88  1  0
 46 89  1  0
 46 90  1  0
 47 91  1  0
 47 92  1  0
 48 93  1  0
 48 94  1  0
 49 95  1  0
 49 96  1  0
 50 97  1  0
 51 98  1  0
 52 99  1  0
 53100  1  0
M  CHG  3   1   1  17  -1  18  -1
M  END
> <Uni-Dock RESULT> 
ENERGY=   -1.963  LOWER_BOUND=    5.559  UPPER_BOUND=    6.961
INTER + INTRA:          -1.963
INTER:                  -1.963
INTRA:                   0.000
UNBOUND:                 0.000

$$$$
