
     RDKit          3D

100105  0  0  0  0  0  0  0  0999 V2000
   26.8055    3.6347   31.4111 N   0  0  0  0  0  0  0  0  0  0  0  0
   25.4692    3.3271   31.7867 C   0  0  0  0  0  0  0  0  0  0  0  0
   31.0089   11.7497   27.1452 N   0  0  0  0  0  0  0  0  0  0  0  0
   33.4066   12.0598   26.7524 C   0  0  0  0  0  0  0  0  0  0  0  0
   32.2850   11.0817   27.0763 C   0  0  0  0  0  0  0  0  0  0  0  0
   26.9986    4.9026   31.6471 C   0  0  0  0  0  0  0  0  0  0  0  0
   25.7787    5.6007   32.2234 C   0  0  0  0  0  0  0  0  0  0  0  0
   24.8087    4.4394   32.2645 C   0  0  0  0  0  0  0  0  0  0  0  0
   32.6254   13.3585   26.6059 C   0  0  0  0  0  0  0  0  0  0  0  0
   31.2801   13.1184   26.8494 C   0  0  0  0  0  0  0  0  0  0  0  0
   25.7796   10.5335   27.8906 S   0  0  0  0  0  0  0  0  0  0  0  0
   30.8187    3.0197   35.2883 S   0  0  0  0  0  0  0  0  0  0  0  0
   23.4647    4.3495   32.6951 C   0  0  0  0  0  0  0  0  0  0  0  0
   33.0708   14.6738   26.3001 C   0  0  0  0  0  0  0  0  0  0  0  0
   24.8517    2.0774   31.7137 C   0  0  0  0  0  0  0  0  0  0  0  0
   30.3373   14.1526   26.8287 C   0  0  0  0  0  0  0  0  0  0  0  0
   26.7265    9.7751   29.0552 O   0  0  0  0  0  0  0  0  0  0  0  0
   31.9671    3.8508   34.3886 O   0  0  0  0  0  0  0  0  0  0  0  0
   32.5116    9.7677   27.3067 C   0  0  0  0  0  0  0  0  0  0  0  0
   28.2789    5.5990   31.4150 C   0  0  0  0  0  0  0  0  0  0  0  0
   24.5025   11.0030   28.5274 O   0  0  0  0  0  0  0  0  0  0  0  0
   25.4532    9.5580   26.7940 O   0  0  0  0  0  0  0  0  0  0  0  0
   31.5145    2.1858   36.3236 O   0  0  0  0  0  0  0  0  0  0  0  0
   29.9105    4.0001   35.9722 O   0  0  0  0  0  0  0  0  0  0  0  0
   31.4648    8.7542   27.4538 C   0  0  0  0  0  0  0  0  0  0  0  0
   28.7256    5.8295   30.1801 C   0  0  0  0  0  0  0  0  0  0  0  0
   29.9431    6.6249   29.9600 C   0  0  0  0  0  0  0  0  0  0  0  0
   30.2424    7.0956   28.7484 C   0  0  0  0  0  0  0  0  0  0  0  0
   31.3833    8.0048   28.5522 C   0  0  0  0  0  0  0  0  0  0  0  0
   27.8125    2.6534   30.9765 C   0  0  0  0  0  0  0  0  0  0  0  0
   32.1049   15.7229   26.2625 C   0  0  0  0  0  0  0  0  0  0  0  0
   22.8230    3.0791   32.6218 C   0  0  0  0  0  0  0  0  0  0  0  0
   30.7531   15.4505   26.5336 C   0  0  0  0  0  0  0  0  0  0  0  0
   23.5241    1.9570   32.1351 C   0  0  0  0  0  0  0  0  0  0  0  0
   29.7580   11.2603   27.7497 C   0  0  0  0  0  0  0  0  0  0  0  0
   34.4004   12.1275   27.9316 C   0  0  0  0  0  0  0  0  0  0  0  0
   34.0866   11.6479   25.4278 C   0  0  0  0  0  0  0  0  0  0  0  0
   25.3173    6.7094   31.2594 C   0  0  0  0  0  0  0  0  0  0  0  0
   26.0979    6.1351   33.6317 C   0  0  0  0  0  0  0  0  0  0  0  0
   26.6551   11.9454   27.2202 C   0  0  0  0  0  0  0  0  0  0  0  0
   29.8634    1.9576   34.2190 C   0  0  0  0  0  0  0  0  0  0  0  0
   34.4192   14.9921   26.0375 C   0  0  0  0  0  0  0  0  0  0  0  0
   22.7410    5.4505   33.1917 C   0  0  0  0  0  0  0  0  0  0  0  0
   21.4911    2.9457   33.0429 C   0  0  0  0  0  0  0  0  0  0  0  0
   32.5017   17.0362   25.9617 C   0  0  0  0  0  0  0  0  0  0  0  0
   28.3815    1.8757   32.1717 C   0  0  0  0  0  0  0  0  0  0  0  0
   28.8336   10.6315   26.6858 C   0  0  0  0  0  0  0  0  0  0  0  0
   27.7133   11.5560   26.1735 C   0  0  0  0  0  0  0  0  0  0  0  0
   29.2162    2.7700   33.0969 C   0  0  0  0  0  0  0  0  0  0  0  0
   21.4165    5.2965   33.6093 C   0  0  0  0  0  0  0  0  0  0  0  0
   34.7966   16.3048   25.7414 C   0  0  0  0  0  0  0  0  0  0  0  0
   33.8417   17.3223   25.7009 C   0  0  0  0  0  0  0  0  0  0  0  0
   20.7944    4.0499   33.5370 C   0  0  0  0  0  0  0  0  0  0  0  0
   25.3808    1.2109   31.3429 H   0  0  0  0  0  0  0  0  0  0  0  0
   29.2968   13.9741   27.0484 H   0  0  0  0  0  0  0  0  0  0  0  0
   33.5326    9.4075   27.3508 H   0  0  0  0  0  0  0  0  0  0  0  0
   28.7950    6.0254   32.2654 H   0  0  0  0  0  0  0  0  0  0  0  0
   30.7239    8.6553   26.6750 H   0  0  0  0  0  0  0  0  0  0  0  0
   28.1561    5.4734   29.3279 H   0  0  0  0  0  0  0  0  0  0  0  0
   30.5655    6.8854   30.8110 H   0  0  0  0  0  0  0  0  0  0  0  0
   29.5889    6.8767   27.9090 H   0  0  0  0  0  0  0  0  0  0  0  0
   32.1081    8.1371   29.3489 H   0  0  0  0  0  0  0  0  0  0  0  0
   27.3431    1.9343   30.2722 H   0  0  0  0  0  0  0  0  0  0  0  0
   28.6381    3.1377   30.4132 H   0  0  0  0  0  0  0  0  0  0  0  0
   30.0170   16.2454   26.5197 H   0  0  0  0  0  0  0  0  0  0  0  0
   23.0434    0.9879   32.0807 H   0  0  0  0  0  0  0  0  0  0  0  0
   29.2577   12.0771   28.3045 H   0  0  0  0  0  0  0  0  0  0  0  0
   29.9829   10.5174   28.5414 H   0  0  0  0  0  0  0  0  0  0  0  0
   33.8615   12.3575   28.8778 H   0  0  0  0  0  0  0  0  0  0  0  0
   35.1743   12.9027   27.7823 H   0  0  0  0  0  0  0  0  0  0  0  0
   34.9262   11.1567   28.0582 H   0  0  0  0  0  0  0  0  0  0  0  0
   33.3493   11.6634   24.5949 H   0  0  0  0  0  0  0  0  0  0  0  0
   34.9257   12.3156   25.1607 H   0  0  0  0  0  0  0  0  0  0  0  0
   34.5046   10.6209   25.5021 H   0  0  0  0  0  0  0  0  0  0  0  0
   26.1197    7.4665   31.1303 H   0  0  0  0  0  0  0  0  0  0  0  0
   24.4204    7.2384   31.6342 H   0  0  0  0  0  0  0  0  0  0  0  0
   25.0802    6.2808   30.2605 H   0  0  0  0  0  0  0  0  0  0  0  0
   25.2152    6.6065   34.1038 H   0  0  0  0  0  0  0  0  0  0  0  0
   26.4443    5.3082   34.2904 H   0  0  0  0  0  0  0  0  0  0  0  0
   26.8983    6.9045   33.5819 H   0  0  0  0  0  0  0  0  0  0  0  0
   27.0986   12.5310   28.0519 H   0  0  0  0  0  0  0  0  0  0  0  0
   25.9081   12.6047   26.7247 H   0  0  0  0  0  0  0  0  0  0  0  0
   30.5352    1.1865   33.7865 H   0  0  0  0  0  0  0  0  0  0  0  0
   29.0784    1.4550   34.8233 H   0  0  0  0  0  0  0  0  0  0  0  0
   35.1982   14.2513   26.0594 H   0  0  0  0  0  0  0  0  0  0  0  0
   23.1744    6.4326   33.2619 H   0  0  0  0  0  0  0  0  0  0  0  0
   20.9897    1.9870   32.9936 H   0  0  0  0  0  0  0  0  0  0  0  0
   31.7763   17.8423   25.9312 H   0  0  0  0  0  0  0  0  0  0  0  0
   27.5512    1.4115   32.7474 H   0  0  0  0  0  0  0  0  0  0  0  0
   29.0245    1.0580   31.7787 H   0  0  0  0  0  0  0  0  0  0  0  0
   29.4404   10.3305   25.8030 H   0  0  0  0  0  0  0  0  0  0  0  0
   28.3916    9.6955   27.0879 H   0  0  0  0  0  0  0  0  0  0  0  0
   28.1616   12.4761   25.7470 H   0  0  0  0  0  0  0  0  0  0  0  0
   27.1978   11.0433   25.3322 H   0  0  0  0  0  0  0  0  0  0  0  0
   30.0115    3.2707   32.5037 H   0  0  0  0  0  0  0  0  0  0  0  0
   28.5646    3.5480   33.5495 H   0  0  0  0  0  0  0  0  0  0  0  0
   20.8690    6.1488   33.9914 H   0  0  0  0  0  0  0  0  0  0  0  0
   35.8360   16.5372   25.5410 H   0  0  0  0  0  0  0  0  0  0  0  0
   34.1431   18.3362   25.4698 H   0  0  0  0  0  0  0  0  0  0  0  0
   19.7684    3.9393   33.8636 H   0  0  0  0  0  0  0  0  0  0  0  0
  2  1  1  0
  3  5  1  0
  4  5  1  0
  5 19  2  0
  6  1  2  0
  7  6  1  0
  8  2  2  0
  9  4  1  0
 10  3  1  0
 11 40  1  0
 12 41  1  0
 13  8  1  0
 14  9  2  0
 15  2  1  0
 16 10  2  0
 17 11  1  0
 18 12  1  0
 19 25  1  0
 20  6  1  0
 21 11  2  0
 22 11  2  0
 23 12  2  0
 24 12  2  0
 25 29  2  0
 26 20  2  0
 27 26  1  0
 28 27  2  0
 29 28  1  0
 30  1  1  0
 31 14  1  0
 32 34  1  0
 33 16  1  0
 34 15  2  0
 35  3  1  0
 36  4  1  0
 37  4  1  0
 38  7  1  0
 39  7  1  0
 40 48  1  0
 41 49  1  0
 42 14  1  0
 43 13  2  0
 44 32  2  0
 45 31  1  0
 46 30  1  0
 47 35  1  0
 48 47  1  0
 49 46  1  0
 50 43  1  0
 51 42  2  0
 52 51  1  0
 53 44  1  0
  7  8  1  0
 13 32  1  0
 53 50  2  0
 10  9  1  0
 31 33  2  0
 52 45  2  0
 15 54  1  0
 16 55  1  0
 19 56  1  0
 20 57  1  0
 25 58  1  0
 26 59  1  0
 27 60  1  0
 28 61  1  0
 29 62  1  0
 30 63  1  0
 30 64  1  0
 33 65  1  0
 34 66  1  0
 35 67  1  0
 35 68  1  0
 36 69  1  0
 36 70  1  0
 36 71  1  0
 37 72  1  0
 37 73  1  0
 37 74  1  0
 38 75  1  0
 38 76  1  0
 38 77  1  0
 39 78  1  0
 39 79  1  0
 39 80  1  0
 40 81  1  0
 40 82  1  0
 41 83  1  0
 41 84  1  0
 42 85  1  0
 43 86  1  0
 44 87  1  0
 45 88  1  0
 46 89  1  0
 46 90  1  0
 47 91  1  0
 47 92  1  0
 48 93  1  0
 48 94  1  0
 49 95  1  0
 49 96  1  0
 50 97  1  0
 51 98  1  0
 52 99  1  0
 53100  1  0
M  CHG  3   1   1  17  -1  18  -1
M  END
> <Uni-Dock RESULT> 
ENERGY=   -4.276  LOWER_BOUND=    0.000  UPPER_BOUND=    0.000
INTER + INTRA:          -4.276
INTER:                  -4.276
INTRA:                   0.000
UNBOUND:                 0.000

$$$$

     RDKit          3D

100105  0  0  0  0  0  0  0  0999 V2000
   29.0730   14.4470   26.7342 N   0  0  0  0  0  0  0  0  0  0  0  0
   28.4938   15.6951   27.0921 C   0  0  0  0  0  0  0  0  0  0  0  0
   28.8322    5.3216   31.0224 N   0  0  0  0  0  0  0  0  0  0  0  0
   29.8154    3.2873   30.0765 C   0  0  0  0  0  0  0  0  0  0  0  0
   29.7522    4.8086   30.0375 C   0  0  0  0  0  0  0  0  0  0  0  0
   28.2207   13.5123   27.0512 C   0  0  0  0  0  0  0  0  0  0  0  0
   26.9421   14.0483   27.6722 C   0  0  0  0  0  0  0  0  0  0  0  0
   27.2457   15.5312   27.6553 C   0  0  0  0  0  0  0  0  0  0  0  0
   28.8564    2.9865   31.2202 C   0  0  0  0  0  0  0  0  0  0  0  0
   28.3276    4.1750   31.7045 C   0  0  0  0  0  0  0  0  0  0  0  0
   27.0889   10.0938   32.9110 S   0  0  0  0  0  0  0  0  0  0  0  0
   28.1642   12.5379   21.5336 S   0  0  0  0  0  0  0  0  0  0  0  0
   26.4946   16.6513   28.0810 C   0  0  0  0  0  0  0  0  0  0  0  0
   28.4552    1.7451   31.7858 C   0  0  0  0  0  0  0  0  0  0  0  0
   29.0619   16.9574   26.9126 C   0  0  0  0  0  0  0  0  0  0  0  0
   27.3767    4.1876   32.7314 C   0  0  0  0  0  0  0  0  0  0  0  0
   27.0621   10.0870   31.2296 O   0  0  0  0  0  0  0  0  0  0  0  0
   28.7351   10.9979   21.8820 O   0  0  0  0  0  0  0  0  0  0  0  0
   30.4552    5.5418   29.1435 C   0  0  0  0  0  0  0  0  0  0  0  0
   28.4452   12.0742   26.8073 C   0  0  0  0  0  0  0  0  0  0  0  0
   25.8823   10.8319   33.4172 O   0  0  0  0  0  0  0  0  0  0  0  0
   28.3307   10.7921   33.3917 O   0  0  0  0  0  0  0  0  0  0  0  0
   28.1813   12.7441   20.0475 O   0  0  0  0  0  0  0  0  0  0  0  0
   26.7561   12.6771   22.0355 O   0  0  0  0  0  0  0  0  0  0  0  0
   30.5667    7.0017   29.1664 C   0  0  0  0  0  0  0  0  0  0  0  0
   29.3530   11.3893   27.5033 C   0  0  0  0  0  0  0  0  0  0  0  0
   29.4868    9.9345   27.3326 C   0  0  0  0  0  0  0  0  0  0  0  0
   30.1802    9.2045   28.2074 C   0  0  0  0  0  0  0  0  0  0  0  0
   30.2007    7.7354   28.1164 C   0  0  0  0  0  0  0  0  0  0  0  0
   30.3405   14.2770   26.0059 C   0  0  0  0  0  0  0  0  0  0  0  0
   27.4989    1.7621   32.8442 C   0  0  0  0  0  0  0  0  0  0  0  0
   27.0663   17.9449   27.9058 C   0  0  0  0  0  0  0  0  0  0  0  0
   26.9674    2.9812   33.2983 C   0  0  0  0  0  0  0  0  0  0  0  0
   28.3416   18.0839   27.3210 C   0  0  0  0  0  0  0  0  0  0  0  0
   28.2299    6.6640   31.0916 C   0  0  0  0  0  0  0  0  0  0  0  0
   29.3032    2.7067   28.7412 C   0  0  0  0  0  0  0  0  0  0  0  0
   31.2565    2.8371   30.4041 C   0  0  0  0  0  0  0  0  0  0  0  0
   26.7971   13.5011   29.1043 C   0  0  0  0  0  0  0  0  0  0  0  0
   25.7385   13.6963   26.7787 C   0  0  0  0  0  0  0  0  0  0  0  0
   27.0493    8.4118   33.5266 C   0  0  0  0  0  0  0  0  0  0  0  0
   29.2051   13.7607   22.3116 C   0  0  0  0  0  0  0  0  0  0  0  0
   28.9521    0.4998   31.3489 C   0  0  0  0  0  0  0  0  0  0  0  0
   25.2165   16.5445   28.6620 C   0  0  0  0  0  0  0  0  0  0  0  0
   26.3525   19.0831   28.3108 C   0  0  0  0  0  0  0  0  0  0  0  0
   27.0774    0.5587   33.4329 C   0  0  0  0  0  0  0  0  0  0  0  0
   30.1634   14.5663   24.5086 C   0  0  0  0  0  0  0  0  0  0  0  0
   29.0202    7.5807   32.0491 C   0  0  0  0  0  0  0  0  0  0  0  0
   28.4190    7.7144   33.4608 C   0  0  0  0  0  0  0  0  0  0  0  0
   29.2804   13.5184   23.8195 C   0  0  0  0  0  0  0  0  0  0  0  0
   24.5202   17.6900   29.0557 C   0  0  0  0  0  0  0  0  0  0  0  0
   28.5204   -0.6882   31.9453 C   0  0  0  0  0  0  0  0  0  0  0  0
   27.5890   -0.6591   32.9847 C   0  0  0  0  0  0  0  0  0  0  0  0
   25.0842   18.9538   28.8797 C   0  0  0  0  0  0  0  0  0  0  0  0
   30.0385   17.0746   26.4645 H   0  0  0  0  0  0  0  0  0  0  0  0
   26.9411    5.1074   33.0879 H   0  0  0  0  0  0  0  0  0  0  0  0
   31.0167    5.0334   28.3686 H   0  0  0  0  0  0  0  0  0  0  0  0
   27.7764   11.5555   26.1328 H   0  0  0  0  0  0  0  0  0  0  0  0
   30.9060    7.4830   30.0710 H   0  0  0  0  0  0  0  0  0  0  0  0
   29.9614   11.9009   28.2419 H   0  0  0  0  0  0  0  0  0  0  0  0
   28.9558    9.4465   26.5206 H   0  0  0  0  0  0  0  0  0  0  0  0
   30.6666    9.6901   29.0483 H   0  0  0  0  0  0  0  0  0  0  0  0
   29.8228    7.2470   27.2241 H   0  0  0  0  0  0  0  0  0  0  0  0
   31.0970   14.9775   26.4189 H   0  0  0  0  0  0  0  0  0  0  0  0
   30.7590   13.2580   26.1470 H   0  0  0  0  0  0  0  0  0  0  0  0
   26.2307    2.9996   34.0927 H   0  0  0  0  0  0  0  0  0  0  0  0
   28.7799   19.0645   27.1813 H   0  0  0  0  0  0  0  0  0  0  0  0
   27.1625    6.5887   31.3749 H   0  0  0  0  0  0  0  0  0  0  0  0
   28.1920    7.1169   30.0803 H   0  0  0  0  0  0  0  0  0  0  0  0
   28.2924    3.1096   28.5076 H   0  0  0  0  0  0  0  0  0  0  0  0
   29.2342    1.6035   28.7640 H   0  0  0  0  0  0  0  0  0  0  0  0
   29.9864    2.9772   27.9075 H   0  0  0  0  0  0  0  0  0  0  0  0
   31.5675    3.2318   31.3965 H   0  0  0  0  0  0  0  0  0  0  0  0
   31.3597    1.7369   30.4204 H   0  0  0  0  0  0  0  0  0  0  0  0
   31.9706    3.2152   29.6410 H   0  0  0  0  0  0  0  0  0  0  0  0
   26.7351   12.3922   29.0887 H   0  0  0  0  0  0  0  0  0  0  0  0
   25.8825   13.8767   29.6014 H   0  0  0  0  0  0  0  0  0  0  0  0
   27.6763   13.7911   29.7211 H   0  0  0  0  0  0  0  0  0  0  0  0
   24.7943   14.1154   27.1748 H   0  0  0  0  0  0  0  0  0  0  0  0
   25.8905   14.0928   25.7504 H   0  0  0  0  0  0  0  0  0  0  0  0
   25.6120   12.5941   26.7159 H   0  0  0  0  0  0  0  0  0  0  0  0
   26.2721    7.8391   32.9795 H   0  0  0  0  0  0  0  0  0  0  0  0
   26.7326    8.4473   34.5927 H   0  0  0  0  0  0  0  0  0  0  0  0
   30.2216   13.7001   21.8691 H   0  0  0  0  0  0  0  0  0  0  0  0
   28.7834   14.7687   22.1112 H   0  0  0  0  0  0  0  0  0  0  0  0
   29.6666    0.4157   30.5499 H   0  0  0  0  0  0  0  0  0  0  0  0
   24.7417   15.5928   28.8236 H   0  0  0  0  0  0  0  0  0  0  0  0
   26.7733   20.0729   28.1842 H   0  0  0  0  0  0  0  0  0  0  0  0
   26.3499    0.5591   34.2377 H   0  0  0  0  0  0  0  0  0  0  0  0
   29.7224   15.5776   24.3711 H   0  0  0  0  0  0  0  0  0  0  0  0
   31.1690   14.5639   24.0338 H   0  0  0  0  0  0  0  0  0  0  0  0
   30.0533    7.1849   32.1682 H   0  0  0  0  0  0  0  0  0  0  0  0
   29.1279    8.5868   31.5916 H   0  0  0  0  0  0  0  0  0  0  0  0
   28.3406    6.7101   33.9240 H   0  0  0  0  0  0  0  0  0  0  0  0
   29.1330    8.2908   34.0889 H   0  0  0  0  0  0  0  0  0  0  0  0
   29.6992   12.5060   24.0056 H   0  0  0  0  0  0  0  0  0  0  0  0
   28.2529   13.5630   24.2401 H   0  0  0  0  0  0  0  0  0  0  0  0
   23.5372   17.5976   29.4997 H   0  0  0  0  0  0  0  0  0  0  0  0
   28.9097   -1.6393   31.6011 H   0  0  0  0  0  0  0  0  0  0  0  0
   27.2610   -1.5843   33.4414 H   0  0  0  0  0  0  0  0  0  0  0  0
   24.5374   19.8361   29.1866 H   0  0  0  0  0  0  0  0  0  0  0  0
  2  1  1  0
  3  5  1  0
  4  5  1  0
  5 19  2  0
  6  1  2  0
  7  6  1  0
  8  2  2  0
  9  4  1  0
 10  3  1  0
 11 40  1  0
 12 41  1  0
 13  8  1  0
 14  9  2  0
 15  2  1  0
 16 10  2  0
 17 11  1  0
 18 12  1  0
 19 25  1  0
 20  6  1  0
 21 11  2  0
 22 11  2  0
 23 12  2  0
 24 12  2  0
 25 29  2  0
 26 20  2  0
 27 26  1  0
 28 27  2  0
 29 28  1  0
 30  1  1  0
 31 14  1  0
 32 34  1  0
 33 16  1  0
 34 15  2  0
 35  3  1  0
 36  4  1  0
 37  4  1  0
 38  7  1  0
 39  7  1  0
 40 48  1  0
 41 49  1  0
 42 14  1  0
 43 13  2  0
 44 32  2  0
 45 31  1  0
 46 30  1  0
 47 35  1  0
 48 47  1  0
 49 46  1  0
 50 43  1  0
 51 42  2  0
 52 51  1  0
 53 44  1  0
  7  8  1  0
 13 32  1  0
 53 50  2  0
 10  9  1  0
 31 33  2  0
 52 45  2  0
 15 54  1  0
 16 55  1  0
 19 56  1  0
 20 57  1  0
 25 58  1  0
 26 59  1  0
 27 60  1  0
 28 61  1  0
 29 62  1  0
 30 63  1  0
 30 64  1  0
 33 65  1  0
 34 66  1  0
 35 67  1  0
 35 68  1  0
 36 69  1  0
 36 70  1  0
 36 71  1  0
 37 72  1  0
 37 73  1  0
 37 74  1  0
 38 75  1  0
 38 76  1  0
 38 77  1  0
 39 78  1  0
 39 79  1  0
 39 80  1  0
 40 81  1  0
 40 82  1  0
 41 83  1  0
 41 84  1  0
 42 85  1  0
 43 86  1  0
 44 87  1  0
 45 88  1  0
 46 89  1  0
 46 90  1  0
 47 91  1  0
 47 92  1  0
 48 93  1  0
 48 94  1  0
 49 95  1  0
 49 96  1  0
 50 97  1  0
 51 98  1  0
 52 99  1  0
 53100  1  0
M  CHG  3   1   1  17  -1  18  -1
M  END
> <Uni-Dock RESULT> 
ENERGY=   -4.202  LOWER_BOUND=    3.853  UPPER_BOUND=   12.429
INTER + INTRA:          -4.202
INTER:                  -4.202
INTRA:                   0.000
UNBOUND:                 0.000

$$$$

     RDKit          3D

100105  0  0  0  0  0  0  0  0999 V2000
   29.5499   14.4427   26.2647 N   0  0  0  0  0  0  0  0  0  0  0  0
   28.9422   15.7109   26.4736 C   0  0  0  0  0  0  0  0  0  0  0  0
   28.5755    5.5486   30.9194 N   0  0  0  0  0  0  0  0  0  0  0  0
   29.6566    3.4629   30.2262 C   0  0  0  0  0  0  0  0  0  0  0  0
   29.6200    4.9805   30.1034 C   0  0  0  0  0  0  0  0  0  0  0  0
   28.6485   13.5306   26.5018 C   0  0  0  0  0  0  0  0  0  0  0  0
   27.3015   14.1054   26.9054 C   0  0  0  0  0  0  0  0  0  0  0  0
   27.6243   15.5835   26.8591 C   0  0  0  0  0  0  0  0  0  0  0  0
   28.5398    3.2265   31.2336 C   0  0  0  0  0  0  0  0  0  0  0  0
   27.9631    4.4413   31.5777 C   0  0  0  0  0  0  0  0  0  0  0  0
   26.6438   10.4212   32.2999 S   0  0  0  0  0  0  0  0  0  0  0  0
   29.3695   12.2775   21.0883 S   0  0  0  0  0  0  0  0  0  0  0  0
   26.8350   16.7284   27.1166 C   0  0  0  0  0  0  0  0  0  0  0  0
   28.0452    2.0179   31.7964 C   0  0  0  0  0  0  0  0  0  0  0  0
   29.5470   16.9589   26.3154 C   0  0  0  0  0  0  0  0  0  0  0  0
   26.8752    4.5119   32.4554 C   0  0  0  0  0  0  0  0  0  0  0  0
   26.8579   10.3292   30.6344 O   0  0  0  0  0  0  0  0  0  0  0  0
   29.8640   10.7537   21.5906 O   0  0  0  0  0  0  0  0  0  0  0  0
   30.4535    5.6630   29.2846 C   0  0  0  0  0  0  0  0  0  0  0  0
   28.8863   12.0806   26.3640 C   0  0  0  0  0  0  0  0  0  0  0  0
   25.3872   11.1916   32.5904 O   0  0  0  0  0  0  0  0  0  0  0  0
   27.8133   11.1355   32.9189 O   0  0  0  0  0  0  0  0  0  0  0  0
   29.6020   12.4078   19.6116 O   0  0  0  0  0  0  0  0  0  0  0  0
   27.9061   12.4507   21.3752 O   0  0  0  0  0  0  0  0  0  0  0  0
   30.5802    7.1215   29.2511 C   0  0  0  0  0  0  0  0  0  0  0  0
   29.6759   11.4264   27.2162 C   0  0  0  0  0  0  0  0  0  0  0  0
   29.8133    9.9640   27.1385 C   0  0  0  0  0  0  0  0  0  0  0  0
   30.3645    9.2750   28.1388 C   0  0  0  0  0  0  0  0  0  0  0  0
   30.3781    7.8032   28.1244 C   0  0  0  0  0  0  0  0  0  0  0  0
   30.9062   14.2281   25.7354 C   0  0  0  0  0  0  0  0  0  0  0  0
   26.9475    2.0945   32.7043 C   0  0  0  0  0  0  0  0  0  0  0  0
   27.4432   18.0079   26.9617 C   0  0  0  0  0  0  0  0  0  0  0  0
   26.3728    3.3384   33.0166 C   0  0  0  0  0  0  0  0  0  0  0  0
   28.7908   18.1091   26.5600 C   0  0  0  0  0  0  0  0  0  0  0  0
   27.9875    6.8964   30.8349 C   0  0  0  0  0  0  0  0  0  0  0  0
   29.3331    2.8183   28.8614 C   0  0  0  0  0  0  0  0  0  0  0  0
   31.0298    3.0210   30.7792 C   0  0  0  0  0  0  0  0  0  0  0  0
   26.9457   13.6325   28.3271 C   0  0  0  0  0  0  0  0  0  0  0  0
   26.2337   13.7158   25.8668 C   0  0  0  0  0  0  0  0  0  0  0  0
   26.4940    8.7730   32.9857 C   0  0  0  0  0  0  0  0  0  0  0  0
   30.3046   13.5318   21.9464 C   0  0  0  0  0  0  0  0  0  0  0  0
   28.5827    0.7490   31.4975 C   0  0  0  0  0  0  0  0  0  0  0  0
   25.4856   16.6591   27.5125 C   0  0  0  0  0  0  0  0  0  0  0  0
   26.6940   19.1696   27.2032 C   0  0  0  0  0  0  0  0  0  0  0  0
   26.4299    0.9252   33.2851 C   0  0  0  0  0  0  0  0  0  0  0  0
   30.9492   14.4420   24.2158 C   0  0  0  0  0  0  0  0  0  0  0  0
   28.6447    7.8557   31.8496 C   0  0  0  0  0  0  0  0  0  0  0  0
   27.8495    8.0647   33.1520 C   0  0  0  0  0  0  0  0  0  0  0  0
   30.1600   13.3660   23.4595 C   0  0  0  0  0  0  0  0  0  0  0  0
   24.7555   17.8275   27.7450 C   0  0  0  0  0  0  0  0  0  0  0  0
   28.0543   -0.4045   32.0836 C   0  0  0  0  0  0  0  0  0  0  0  0
   26.9841   -0.3168   32.9757 C   0  0  0  0  0  0  0  0  0  0  0  0
   25.3558   19.0772   27.5897 C   0  0  0  0  0  0  0  0  0  0  0  0
   30.5792   17.0472   26.0071 H   0  0  0  0  0  0  0  0  0  0  0  0
   26.4054    5.4513   32.6998 H   0  0  0  0  0  0  0  0  0  0  0  0
   31.1134    5.1125   28.6244 H   0  0  0  0  0  0  0  0  0  0  0  0
   28.3142   11.5324   25.6269 H   0  0  0  0  0  0  0  0  0  0  0  0
   30.7929    7.6461   30.1701 H   0  0  0  0  0  0  0  0  0  0  0  0
   30.1792   11.9711   28.0083 H   0  0  0  0  0  0  0  0  0  0  0  0
   29.3975    9.4386   26.2838 H   0  0  0  0  0  0  0  0  0  0  0  0
   30.7319    9.7998   29.0159 H   0  0  0  0  0  0  0  0  0  0  0  0
   30.1254    7.2724   27.2123 H   0  0  0  0  0  0  0  0  0  0  0  0
   31.6051   14.9440   26.2177 H   0  0  0  0  0  0  0  0  0  0  0  0
   31.2865   13.2150   25.9853 H   0  0  0  0  0  0  0  0  0  0  0  0
   25.5303    3.4017   33.6950 H   0  0  0  0  0  0  0  0  0  0  0  0
   29.2577   19.0786   26.4365 H   0  0  0  0  0  0  0  0  0  0  0  0
   26.8896    6.8422   30.9653 H   0  0  0  0  0  0  0  0  0  0  0  0
   28.1008    7.2977   29.8075 H   0  0  0  0  0  0  0  0  0  0  0  0
   28.3717    3.2150   28.4654 H   0  0  0  0  0  0  0  0  0  0  0  0
   29.2468    1.7181   28.9285 H   0  0  0  0  0  0  0  0  0  0  0  0
   30.1322    3.0419   28.1223 H   0  0  0  0  0  0  0  0  0  0  0  0
   31.2007    3.4636   31.7853 H   0  0  0  0  0  0  0  0  0  0  0  0
   31.1148    1.9225   30.8645 H   0  0  0  0  0  0  0  0  0  0  0  0
   31.8508    3.3554   30.1089 H   0  0  0  0  0  0  0  0  0  0  0  0
   26.8716   12.5246   28.3576 H   0  0  0  0  0  0  0  0  0  0  0  0
   25.9745   14.0385   28.6685 H   0  0  0  0  0  0  0  0  0  0  0  0
   27.7313   13.9480   29.0487 H   0  0  0  0  0  0  0  0  0  0  0  0
   25.2481   14.1603   26.1019 H   0  0  0  0  0  0  0  0  0  0  0  0
   26.5366   14.0586   24.8527 H   0  0  0  0  0  0  0  0  0  0  0  0
   26.1026   12.6126   25.8410 H   0  0  0  0  0  0  0  0  0  0  0  0
   25.7954    8.1780   32.3616 H   0  0  0  0  0  0  0  0  0  0  0  0
   26.0284    8.8646   33.9922 H   0  0  0  0  0  0  0  0  0  0  0  0
   31.3731   13.4425   21.6580 H   0  0  0  0  0  0  0  0  0  0  0  0
   29.9294   14.5309   21.6379 H   0  0  0  0  0  0  0  0  0  0  0  0
   29.4031    0.6200   30.8145 H   0  0  0  0  0  0  0  0  0  0  0  0
   24.9798   15.7199   27.6511 H   0  0  0  0  0  0  0  0  0  0  0  0
   27.1419   20.1491   27.0896 H   0  0  0  0  0  0  0  0  0  0  0  0
   25.5949    0.9710   33.9760 H   0  0  0  0  0  0  0  0  0  0  0  0
   30.5460   15.4478   23.9665 H   0  0  0  0  0  0  0  0  0  0  0  0
   32.0122   14.4093   23.8910 H   0  0  0  0  0  0  0  0  0  0  0  0
   29.6447    7.4601   32.1353 H   0  0  0  0  0  0  0  0  0  0  0  0
   28.8303    8.8366   31.3631 H   0  0  0  0  0  0  0  0  0  0  0  0
   27.6921    7.0857   33.6481 H   0  0  0  0  0  0  0  0  0  0  0  0
   28.4739    8.6678   33.8468 H   0  0  0  0  0  0  0  0  0  0  0  0
   30.5343   12.3617   23.7537 H   0  0  0  0  0  0  0  0  0  0  0  0
   29.0836   13.4382   23.7254 H   0  0  0  0  0  0  0  0  0  0  0  0
   23.7179   17.7638   28.0473 H   0  0  0  0  0  0  0  0  0  0  0  0
   28.4760   -1.3742   31.8463 H   0  0  0  0  0  0  0  0  0  0  0  0
   26.5817   -1.2157   33.4257 H   0  0  0  0  0  0  0  0  0  0  0  0
   24.7825   19.9773   27.7709 H   0  0  0  0  0  0  0  0  0  0  0  0
  2  1  1  0
  3  5  1  0
  4  5  1  0
  5 19  2  0
  6  1  2  0
  7  6  1  0
  8  2  2  0
  9  4  1  0
 10  3  1  0
 11 40  1  0
 12 41  1  0
 13  8  1  0
 14  9  2  0
 15  2  1  0
 16 10  2  0
 17 11  1  0
 18 12  1  0
 19 25  1  0
 20  6  1  0
 21 11  2  0
 22 11  2  0
 23 12  2  0
 24 12  2  0
 25 29  2  0
 26 20  2  0
 27 26  1  0
 28 27  2  0
 29 28  1  0
 30  1  1  0
 31 14  1  0
 32 34  1  0
 33 16  1  0
 34 15  2  0
 35  3  1  0
 36  4  1  0
 37  4  1  0
 38  7  1  0
 39  7  1  0
 40 48  1  0
 41 49  1  0
 42 14  1  0
 43 13  2  0
 44 32  2  0
 45 31  1  0
 46 30  1  0
 47 35  1  0
 48 47  1  0
 49 46  1  0
 50 43  1  0
 51 42  2  0
 52 51  1  0
 53 44  1  0
  7  8  1  0
 13 32  1  0
 53 50  2  0
 10  9  1  0
 31 33  2  0
 52 45  2  0
 15 54  1  0
 16 55  1  0
 19 56  1  0
 20 57  1  0
 25 58  1  0
 26 59  1  0
 27 60  1  0
 28 61  1  0
 29 62  1  0
 30 63  1  0
 30 64  1  0
 33 65  1  0
 34 66  1  0
 35 67  1  0
 35 68  1  0
 36 69  1  0
 36 70  1  0
 36 71  1  0
 37 72  1  0
 37 73  1  0
 37 74  1  0
 38 75  1  0
 38 76  1  0
 38 77  1  0
 39 78  1  0
 39 79  1  0
 39 80  1  0
 40 81  1  0
 40 82  1  0
 41 83  1  0
 41 84  1  0
 42 85  1  0
 43 86  1  0
 44 87  1  0
 45 88  1  0
 46 89  1  0
 46 90  1  0
 47 91  1  0
 47 92  1  0
 48 93  1  0
 48 94  1  0
 49 95  1  0
 49 96  1  0
 50 97  1  0
 51 98  1  0
 52 99  1  0
 53100  1  0
M  CHG  3   1   1  17  -1  18  -1
M  END
> <Uni-Dock RESULT> 
ENERGY=   -4.189  LOWER_BOUND=    3.701  UPPER_BOUND=   12.526
INTER + INTRA:          -4.189
INTER:                  -4.189
INTRA:                   0.000
UNBOUND:                 0.000

$$$$

     RDKit          3D

100105  0  0  0  0  0  0  0  0999 V2000
   28.6264   14.9571   26.6518 N   0  0  0  0  0  0  0  0  0  0  0  0
   28.0109   16.1877   27.0098 C   0  0  0  0  0  0  0  0  0  0  0  0
   28.6845    5.8380   30.9598 N   0  0  0  0  0  0  0  0  0  0  0  0
   29.7252    3.8328   30.0136 C   0  0  0  0  0  0  0  0  0  0  0  0
   29.6152    5.3513   29.9717 C   0  0  0  0  0  0  0  0  0  0  0  0
   27.8045   13.9975   26.9746 C   0  0  0  0  0  0  0  0  0  0  0  0
   26.5129   14.4956   27.6004 C   0  0  0  0  0  0  0  0  0  0  0  0
   26.7710   15.9869   27.5791 C   0  0  0  0  0  0  0  0  0  0  0  0
   28.7809    3.5053   31.1623 C   0  0  0  0  0  0  0  0  0  0  0  0
   28.2183    4.6781   31.6466 C   0  0  0  0  0  0  0  0  0  0  0  0
   26.8045   10.5588   32.8466 S   0  0  0  0  0  0  0  0  0  0  0  0
   27.7528   13.0098   21.4594 S   0  0  0  0  0  0  0  0  0  0  0  0
   25.9879   17.0845   28.0059 C   0  0  0  0  0  0  0  0  0  0  0  0
   28.4205    2.2534   31.7323 C   0  0  0  0  0  0  0  0  0  0  0  0
   28.5393   17.4664   26.8250 C   0  0  0  0  0  0  0  0  0  0  0  0
   27.2721    4.6638   32.6778 C   0  0  0  0  0  0  0  0  0  0  0  0
   26.7703   10.5476   31.1653 O   0  0  0  0  0  0  0  0  0  0  0  0
   28.3722   11.4887   21.8082 O   0  0  0  0  0  0  0  0  0  0  0  0
   30.2914    6.1037   29.0730 C   0  0  0  0  0  0  0  0  0  0  0  0
   28.0718   12.5665   26.7327 C   0  0  0  0  0  0  0  0  0  0  0  0
   25.5782   11.2608   33.3568 O   0  0  0  0  0  0  0  0  0  0  0  0
   28.0266   11.2959   33.3202 O   0  0  0  0  0  0  0  0  0  0  0  0
   27.7570   13.2131   19.9727 O   0  0  0  0  0  0  0  0  0  0  0  0
   26.3435   13.1069   21.9675 O   0  0  0  0  0  0  0  0  0  0  0  0
   30.3583    7.5664   29.0924 C   0  0  0  0  0  0  0  0  0  0  0  0
   29.0033   11.9112   27.4258 C   0  0  0  0  0  0  0  0  0  0  0  0
   29.1808   10.4608   27.2575 C   0  0  0  0  0  0  0  0  0  0  0  0
   29.9002    9.7542   28.1306 C   0  0  0  0  0  0  0  0  0  0  0  0
   29.9653    8.2863   28.0426 C   0  0  0  0  0  0  0  0  0  0  0  0
   29.8952   14.8244   25.9181 C   0  0  0  0  0  0  0  0  0  0  0  0
   27.4689    2.2434   32.7950 C   0  0  0  0  0  0  0  0  0  0  0  0
   26.5190   18.3946   27.8254 C   0  0  0  0  0  0  0  0  0  0  0  0
   26.9024    3.4467   33.2491 C   0  0  0  0  0  0  0  0  0  0  0  0
   27.7867   18.5712   27.2344 C   0  0  0  0  0  0  0  0  0  0  0  0
   28.0417    7.1615   31.0290 C   0  0  0  0  0  0  0  0  0  0  0  0
   29.2249    3.2338   28.6818 C   0  0  0  0  0  0  0  0  0  0  0  0
   31.1808    3.4276   30.3354 C   0  0  0  0  0  0  0  0  0  0  0  0
   26.3913   13.9473   29.0343 C   0  0  0  0  0  0  0  0  0  0  0  0
   25.3167   14.1049   26.7132 C   0  0  0  0  0  0  0  0  0  0  0  0
   26.8192    8.8778   33.4658 C   0  0  0  0  0  0  0  0  0  0  0  0
   28.7594   14.2655   22.2301 C   0  0  0  0  0  0  0  0  0  0  0  0
   28.9533    1.0230   31.2957 C   0  0  0  0  0  0  0  0  0  0  0  0
   24.7163   16.9399   28.5930 C   0  0  0  0  0  0  0  0  0  0  0  0
   25.7724   19.5113   28.2314 C   0  0  0  0  0  0  0  0  0  0  0  0
   27.0871    1.0290   33.3882 C   0  0  0  0  0  0  0  0  0  0  0  0
   29.7026   15.1048   24.4210 C   0  0  0  0  0  0  0  0  0  0  0  0
   28.8079    8.1041   31.9810 C   0  0  0  0  0  0  0  0  0  0  0  0
   28.2093    8.2225   33.3952 C   0  0  0  0  0  0  0  0  0  0  0  0
   28.8489   14.0290   23.7380 C   0  0  0  0  0  0  0  0  0  0  0  0
   23.9870   18.0645   28.9875 C   0  0  0  0  0  0  0  0  0  0  0  0
   28.5609   -0.1764   31.8965 C   0  0  0  0  0  0  0  0  0  0  0  0
   27.6338   -0.1735   32.9401 C   0  0  0  0  0  0  0  0  0  0  0  0
   24.5113   19.3445   28.8064 C   0  0  0  0  0  0  0  0  0  0  0  0
   29.5098   17.6125   26.3723 H   0  0  0  0  0  0  0  0  0  0  0  0
   26.8102    5.5706   33.0344 H   0  0  0  0  0  0  0  0  0  0  0  0
   30.8647    5.6110   28.2966 H   0  0  0  0  0  0  0  0  0  0  0  0
   27.4162   12.0260   26.0623 H   0  0  0  0  0  0  0  0  0  0  0  0
   30.6868    8.0599   29.9944 H   0  0  0  0  0  0  0  0  0  0  0  0
   29.5992   12.4428   28.1606 H   0  0  0  0  0  0  0  0  0  0  0  0
   28.6613    9.9549   26.4490 H   0  0  0  0  0  0  0  0  0  0  0  0
   30.3753   10.2563   28.9683 H   0  0  0  0  0  0  0  0  0  0  0  0
   29.5984    7.7845   27.1530 H   0  0  0  0  0  0  0  0  0  0  0  0
   30.6318   15.5487   26.3261 H   0  0  0  0  0  0  0  0  0  0  0  0
   30.3453   13.8190   26.0593 H   0  0  0  0  0  0  0  0  0  0  0  0
   26.1692    3.4444   34.0468 H   0  0  0  0  0  0  0  0  0  0  0  0
   28.1941   19.5645   27.0908 H   0  0  0  0  0  0  0  0  0  0  0  0
   26.9784    7.0542   31.3173 H   0  0  0  0  0  0  0  0  0  0  0  0
   27.9853    7.6109   30.0170 H   0  0  0  0  0  0  0  0  0  0  0  0
   28.2012    3.6050   28.4520 H   0  0  0  0  0  0  0  0  0  0  0  0
   29.1898    2.1291   28.7072 H   0  0  0  0  0  0  0  0  0  0  0  0
   29.8957    3.5232   27.8445 H   0  0  0  0  0  0  0  0  0  0  0  0
   31.4841    3.8337   31.3256 H   0  0  0  0  0  0  0  0  0  0  0  0
   31.3177    2.3311   30.3536 H   0  0  0  0  0  0  0  0  0  0  0  0
   31.8795    3.8256   29.5683 H   0  0  0  0  0  0  0  0  0  0  0  0
   26.3631   12.8370   29.0213 H   0  0  0  0  0  0  0  0  0  0  0  0
   25.4679   14.2958   29.5349 H   0  0  0  0  0  0  0  0  0  0  0  0
   27.2640   14.2654   29.6464 H   0  0  0  0  0  0  0  0  0  0  0  0
   24.3619   14.4958   27.1127 H   0  0  0  0  0  0  0  0  0  0  0  0
   25.4518   14.5036   25.6834 H   0  0  0  0  0  0  0  0  0  0  0  0
   25.2236   12.9992   26.6532 H   0  0  0  0  0  0  0  0  0  0  0  0
   26.0574    8.2803   32.9235 H   0  0  0  0  0  0  0  0  0  0  0  0
   26.5064    8.9059   34.5333 H   0  0  0  0  0  0  0  0  0  0  0  0
   29.7753   14.2350   21.7830 H   0  0  0  0  0  0  0  0  0  0  0  0
   28.3061   15.2597   22.0295 H   0  0  0  0  0  0  0  0  0  0  0  0
   29.6664    0.9590   30.4936 H   0  0  0  0  0  0  0  0  0  0  0  0
   24.2716   15.9745   28.7588 H   0  0  0  0  0  0  0  0  0  0  0  0
   26.1622   20.5133   28.1008 H   0  0  0  0  0  0  0  0  0  0  0  0
   26.3637    1.0089   34.1963 H   0  0  0  0  0  0  0  0  0  0  0  0
   29.2302   16.1019   24.2834 H   0  0  0  0  0  0  0  0  0  0  0  0
   30.7055   15.1322   23.9416 H   0  0  0  0  0  0  0  0  0  0  0  0
   29.8531    7.7404   32.0962 H   0  0  0  0  0  0  0  0  0  0  0  0
   28.8826    9.1121   31.5209 H   0  0  0  0  0  0  0  0  0  0  0  0
   28.1637    7.2172   33.8608 H   0  0  0  0  0  0  0  0  0  0  0  0
   28.9082    8.8218   34.0188 H   0  0  0  0  0  0  0  0  0  0  0  0
   29.2994   13.0302   23.9244 H   0  0  0  0  0  0  0  0  0  0  0  0
   27.8225   14.0430   24.1633 H   0  0  0  0  0  0  0  0  0  0  0  0
   23.0093   17.9430   29.4363 H   0  0  0  0  0  0  0  0  0  0  0  0
   28.9776   -1.1159   31.5525 H   0  0  0  0  0  0  0  0  0  0  0  0
   27.3363   -1.1074   33.4001 H   0  0  0  0  0  0  0  0  0  0  0  0
   23.9392   20.2104   29.1139 H   0  0  0  0  0  0  0  0  0  0  0  0
  2  1  1  0
  3  5  1  0
  4  5  1  0
  5 19  2  0
  6  1  2  0
  7  6  1  0
  8  2  2  0
  9  4  1  0
 10  3  1  0
 11 40  1  0
 12 41  1  0
 13  8  1  0
 14  9  2  0
 15  2  1  0
 16 10  2  0
 17 11  1  0
 18 12  1  0
 19 25  1  0
 20  6  1  0
 21 11  2  0
 22 11  2  0
 23 12  2  0
 24 12  2  0
 25 29  2  0
 26 20  2  0
 27 26  1  0
 28 27  2  0
 29 28  1  0
 30  1  1  0
 31 14  1  0
 32 34  1  0
 33 16  1  0
 34 15  2  0
 35  3  1  0
 36  4  1  0
 37  4  1  0
 38  7  1  0
 39  7  1  0
 40 48  1  0
 41 49  1  0
 42 14  1  0
 43 13  2  0
 44 32  2  0
 45 31  1  0
 46 30  1  0
 47 35  1  0
 48 47  1  0
 49 46  1  0
 50 43  1  0
 51 42  2  0
 52 51  1  0
 53 44  1  0
  7  8  1  0
 13 32  1  0
 53 50  2  0
 10  9  1  0
 31 33  2  0
 52 45  2  0
 15 54  1  0
 16 55  1  0
 19 56  1  0
 20 57  1  0
 25 58  1  0
 26 59  1  0
 27 60  1  0
 28 61  1  0
 29 62  1  0
 30 63  1  0
 30 64  1  0
 33 65  1  0
 34 66  1  0
 35 67  1  0
 35 68  1  0
 36 69  1  0
 36 70  1  0
 36 71  1  0
 37 72  1  0
 37 73  1  0
 37 74  1  0
 38 75  1  0
 38 76  1  0
 38 77  1  0
 39 78  1  0
 39 79  1  0
 39 80  1  0
 40 81  1  0
 40 82  1  0
 41 83  1  0
 41 84  1  0
 42 85  1  0
 43 86  1  0
 44 87  1  0
 45 88  1  0
 46 89  1  0
 46 90  1  0
 47 91  1  0
 47 92  1  0
 48 93  1  0
 48 94  1  0
 49 95  1  0
 49 96  1  0
 50 97  1  0
 51 98  1  0
 52 99  1  0
 53100  1  0
M  CHG  3   1   1  17  -1  18  -1
M  END
> <Uni-Dock RESULT> 
ENERGY=   -4.055  LOWER_BOUND=    3.984  UPPER_BOUND=   12.475
INTER + INTRA:          -4.055
INTER:                  -4.055
INTRA:                   0.000
UNBOUND:                 0.000

$$$$

     RDKit          3D

100105  0  0  0  0  0  0  0  0999 V2000
   28.2862   15.1255   27.7326 N   0  0  0  0  0  0  0  0  0  0  0  0
   27.5514   16.2771   27.3384 C   0  0  0  0  0  0  0  0  0  0  0  0
   25.4744    6.0836   31.2053 N   0  0  0  0  0  0  0  0  0  0  0  0
   26.9855    4.2107   31.6617 C   0  0  0  0  0  0  0  0  0  0  0  0
   26.8517    5.7062   31.4056 C   0  0  0  0  0  0  0  0  0  0  0  0
   27.6054   14.0777   27.3598 C   0  0  0  0  0  0  0  0  0  0  0  0
   26.3050   14.4237   26.6547 C   0  0  0  0  0  0  0  0  0  0  0  0
   26.3741   15.9349   26.7071 C   0  0  0  0  0  0  0  0  0  0  0  0
   25.5262    3.7783   31.6231 C   0  0  0  0  0  0  0  0  0  0  0  0
   24.7251    4.8789   31.3518 C   0  0  0  0  0  0  0  0  0  0  0  0
   22.5280   10.5582   30.3828 S   0  0  0  0  0  0  0  0  0  0  0  0
   32.0726   13.0792   24.1281 S   0  0  0  0  0  0  0  0  0  0  0  0
   25.4940   16.9350   26.2327 C   0  0  0  0  0  0  0  0  0  0  0  0
   24.9394    2.4942   31.7932 C   0  0  0  0  0  0  0  0  0  0  0  0
   27.9262   17.6080   27.5292 C   0  0  0  0  0  0  0  0  0  0  0  0
   23.3378    4.7570   31.2122 C   0  0  0  0  0  0  0  0  0  0  0  0
   23.8593   10.5396   29.3555 O   0  0  0  0  0  0  0  0  0  0  0  0
   32.2613   11.6410   24.9737 O   0  0  0  0  0  0  0  0  0  0  0  0
   27.9230    6.5301   31.3390 C   0  0  0  0  0  0  0  0  0  0  0  0
   28.0544   12.6868   27.5641 C   0  0  0  0  0  0  0  0  0  0  0  0
   21.3453   11.1142   29.6418 O   0  0  0  0  0  0  0  0  0  0  0  0
   22.8207   11.4331   31.5701 O   0  0  0  0  0  0  0  0  0  0  0  0
   33.2557   13.2786   23.2271 O   0  0  0  0  0  0  0  0  0  0  0  0
   30.8241   13.0132   23.2970 O   0  0  0  0  0  0  0  0  0  0  0  0
   27.8484    7.9907   31.2657 C   0  0  0  0  0  0  0  0  0  0  0  0
   28.0927   12.1454   28.7820 C   0  0  0  0  0  0  0  0  0  0  0  0
   28.4308   10.7251   28.9603 C   0  0  0  0  0  0  0  0  0  0  0  0
   28.2025   10.1086   30.1209 C   0  0  0  0  0  0  0  0  0  0  0  0
   28.4108    8.6579   30.2590 C   0  0  0  0  0  0  0  0  0  0  0  0
   29.6352   15.1394   28.3207 C   0  0  0  0  0  0  0  0  0  0  0  0
   23.5233    2.3760   31.6676 C   0  0  0  0  0  0  0  0  0  0  0  0
   25.8647   18.2976   26.4252 C   0  0  0  0  0  0  0  0  0  0  0  0
   22.7422    3.5064   31.3723 C   0  0  0  0  0  0  0  0  0  0  0  0
   27.0776   18.6189   27.0682 C   0  0  0  0  0  0  0  0  0  0  0  0
   24.9493    7.3237   30.6086 C   0  0  0  0  0  0  0  0  0  0  0  0
   27.8000    3.5550   30.5262 C   0  0  0  0  0  0  0  0  0  0  0  0
   27.6154    3.9779   33.0530 C   0  0  0  0  0  0  0  0  0  0  0  0
   25.1180   13.8680   27.4632 C   0  0  0  0  0  0  0  0  0  0  0  0
   26.3365   13.8951   25.2090 C   0  0  0  0  0  0  0  0  0  0  0  0
   22.1526    8.8916   30.9219 C   0  0  0  0  0  0  0  0  0  0  0  0
   31.9641   14.4449   25.2715 C   0  0  0  0  0  0  0  0  0  0  0  0
   25.6883    1.3330   32.0746 C   0  0  0  0  0  0  0  0  0  0  0  0
   24.2798   16.6450   25.5814 C   0  0  0  0  0  0  0  0  0  0  0  0
   25.0217   19.3209   25.9658 C   0  0  0  0  0  0  0  0  0  0  0  0
   22.9028    1.1267   31.8309 C   0  0  0  0  0  0  0  0  0  0  0  0
   30.7052   15.3925   27.2492 C   0  0  0  0  0  0  0  0  0  0  0  0
   24.5741    8.3508   31.6977 C   0  0  0  0  0  0  0  0  0  0  0  0
   23.0758    8.4018   32.0509 C   0  0  0  0  0  0  0  0  0  0  0  0
   30.8215   14.2234   26.2631 C   0  0  0  0  0  0  0  0  0  0  0  0
   23.4556   17.6782   25.1282 C   0  0  0  0  0  0  0  0  0  0  0  0
   25.0545    0.0974   32.2325 C   0  0  0  0  0  0  0  0  0  0  0  0
   23.6673   -0.0051   32.1138 C   0  0  0  0  0  0  0  0  0  0  0  0
   23.8249   19.0101   25.3177 C   0  0  0  0  0  0  0  0  0  0  0  0
   28.8542   17.8648   28.0203 H   0  0  0  0  0  0  0  0  0  0  0  0
   22.7169    5.6048   30.9703 H   0  0  0  0  0  0  0  0  0  0  0  0
   28.9192    6.1057   31.3806 H   0  0  0  0  0  0  0  0  0  0  0  0
   28.2416   12.0725   26.6930 H   0  0  0  0  0  0  0  0  0  0  0  0
   27.2847    8.5208   32.0182 H   0  0  0  0  0  0  0  0  0  0  0  0
   27.8190   12.7441   29.6446 H   0  0  0  0  0  0  0  0  0  0  0  0
   28.8072   10.1607   28.1123 H   0  0  0  0  0  0  0  0  0  0  0  0
   27.7767   10.6642   30.9513 H   0  0  0  0  0  0  0  0  0  0  0  0
   28.9423    8.1152   29.4841 H   0  0  0  0  0  0  0  0  0  0  0  0
   29.6942   15.9451   29.0829 H   0  0  0  0  0  0  0  0  0  0  0  0
   29.8558   14.1933   28.8589 H   0  0  0  0  0  0  0  0  0  0  0  0
   21.6677    3.4206   31.2625 H   0  0  0  0  0  0  0  0  0  0  0  0
   27.3670   19.6524   27.2139 H   0  0  0  0  0  0  0  0  0  0  0  0
   24.0959    7.0944   29.9420 H   0  0  0  0  0  0  0  0  0  0  0  0
   25.6988    7.7614   29.9186 H   0  0  0  0  0  0  0  0  0  0  0  0
   27.3540    3.8045   29.5375 H   0  0  0  0  0  0  0  0  0  0  0  0
   27.8334    2.4537   30.6176 H   0  0  0  0  0  0  0  0  0  0  0  0
   28.8500    3.9186   30.5356 H   0  0  0  0  0  0  0  0  0  0  0  0
   26.9718    4.4185   33.8461 H   0  0  0  0  0  0  0  0  0  0  0  0
   27.7557    2.9047   33.2766 H   0  0  0  0  0  0  0  0  0  0  0  0
   28.6182    4.4527   33.1162 H   0  0  0  0  0  0  0  0  0  0  0  0
   25.1866   12.7619   27.5379 H   0  0  0  0  0  0  0  0  0  0  0  0
   24.1460   14.1080   26.9916 H   0  0  0  0  0  0  0  0  0  0  0  0
   25.1209   14.2865   28.4939 H   0  0  0  0  0  0  0  0  0  0  0  0
   25.4243   14.1733   24.6481 H   0  0  0  0  0  0  0  0  0  0  0  0
   27.2169   14.3046   24.6660 H   0  0  0  0  0  0  0  0  0  0  0  0
   26.4042   12.7858   25.2035 H   0  0  0  0  0  0  0  0  0  0  0  0
   22.1779    8.2086   30.0476 H   0  0  0  0  0  0  0  0  0  0  0  0
   21.1080    8.8854   31.3052 H   0  0  0  0  0  0  0  0  0  0  0  0
   32.9263   14.5316   25.8187 H   0  0  0  0  0  0  0  0  0  0  0  0
   31.7901   15.3793   24.6965 H   0  0  0  0  0  0  0  0  0  0  0  0
   26.7590    1.3505   32.1720 H   0  0  0  0  0  0  0  0  0  0  0  0
   23.9486   15.6349   25.4165 H   0  0  0  0  0  0  0  0  0  0  0  0
   25.2896   20.3611   26.1044 H   0  0  0  0  0  0  0  0  0  0  0  0
   21.8269    1.0245   31.7367 H   0  0  0  0  0  0  0  0  0  0  0  0
   30.4690   16.3277   26.6962 H   0  0  0  0  0  0  0  0  0  0  0  0
   31.6818   15.5351   27.7614 H   0  0  0  0  0  0  0  0  0  0  0  0
   25.1244    8.1111   32.6346 H   0  0  0  0  0  0  0  0  0  0  0  0
   24.9200    9.3597   31.3882 H   0  0  0  0  0  0  0  0  0  0  0  0
   22.7426    7.3990   32.3867 H   0  0  0  0  0  0  0  0  0  0  0  0
   22.9478    9.0795   32.9232 H   0  0  0  0  0  0  0  0  0  0  0  0
   31.0056   13.2841   26.8277 H   0  0  0  0  0  0  0  0  0  0  0  0
   29.8717   14.1191   25.6960 H   0  0  0  0  0  0  0  0  0  0  0  0
   22.5248   17.4450   24.6268 H   0  0  0  0  0  0  0  0  0  0  0  0
   25.6407   -0.7880   32.4488 H   0  0  0  0  0  0  0  0  0  0  0  0
   23.1847   -0.9663   32.2386 H   0  0  0  0  0  0  0  0  0  0  0  0
   23.1809   19.8043   24.9625 H   0  0  0  0  0  0  0  0  0  0  0  0
  2  1  1  0
  3  5  1  0
  4  5  1  0
  5 19  2  0
  6  1  2  0
  7  6  1  0
  8  2  2  0
  9  4  1  0
 10  3  1  0
 11 40  1  0
 12 41  1  0
 13  8  1  0
 14  9  2  0
 15  2  1  0
 16 10  2  0
 17 11  1  0
 18 12  1  0
 19 25  1  0
 20  6  1  0
 21 11  2  0
 22 11  2  0
 23 12  2  0
 24 12  2  0
 25 29  2  0
 26 20  2  0
 27 26  1  0
 28 27  2  0
 29 28  1  0
 30  1  1  0
 31 14  1  0
 32 34  1  0
 33 16  1  0
 34 15  2  0
 35  3  1  0
 36  4  1  0
 37  4  1  0
 38  7  1  0
 39  7  1  0
 40 48  1  0
 41 49  1  0
 42 14  1  0
 43 13  2  0
 44 32  2  0
 45 31  1  0
 46 30  1  0
 47 35  1  0
 48 47  1  0
 49 46  1  0
 50 43  1  0
 51 42  2  0
 52 51  1  0
 53 44  1  0
  7  8  1  0
 13 32  1  0
 53 50  2  0
 10  9  1  0
 31 33  2  0
 52 45  2  0
 15 54  1  0
 16 55  1  0
 19 56  1  0
 20 57  1  0
 25 58  1  0
 26 59  1  0
 27 60  1  0
 28 61  1  0
 29 62  1  0
 30 63  1  0
 30 64  1  0
 33 65  1  0
 34 66  1  0
 35 67  1  0
 35 68  1  0
 36 69  1  0
 36 70  1  0
 36 71  1  0
 37 72  1  0
 37 73  1  0
 37 74  1  0
 38 75  1  0
 38 76  1  0
 38 77  1  0
 39 78  1  0
 39 79  1  0
 39 80  1  0
 40 81  1  0
 40 82  1  0
 41 83  1  0
 41 84  1  0
 42 85  1  0
 43 86  1  0
 44 87  1  0
 45 88  1  0
 46 89  1  0
 46 90  1  0
 47 91  1  0
 47 92  1  0
 48 93  1  0
 48 94  1  0
 49 95  1  0
 49 96  1  0
 50 97  1  0
 51 98  1  0
 52 99  1  0
 53100  1  0
M  CHG  3   1   1  17  -1  18  -1
M  END
> <Uni-Dock RESULT> 
ENERGY=   -4.011  LOWER_BOUND=    4.113  UPPER_BOUND=   12.701
INTER + INTRA:          -4.011
INTER:                  -4.011
INTRA:                   0.000
UNBOUND:                 0.000

$$$$

     RDKit          3D

100105  0  0  0  0  0  0  0  0999 V2000
   30.3639   14.7482   28.4451 N   0  0  0  0  0  0  0  0  0  0  0  0
   30.0234   16.0030   27.8697 C   0  0  0  0  0  0  0  0  0  0  0  0
   24.8689    6.6862   31.0003 N   0  0  0  0  0  0  0  0  0  0  0  0
   25.7689    4.5701   31.8441 C   0  0  0  0  0  0  0  0  0  0  0  0
   26.0301    6.0446   31.5655 C   0  0  0  0  0  0  0  0  0  0  0  0
   29.5991   13.8443   27.8988 C   0  0  0  0  0  0  0  0  0  0  0  0
   28.6375   14.4115   26.8685 C   0  0  0  0  0  0  0  0  0  0  0  0
   29.0111   15.8765   26.9419 C   0  0  0  0  0  0  0  0  0  0  0  0
   24.3147    4.4463   31.4102 C   0  0  0  0  0  0  0  0  0  0  0  0
   23.8684    5.6717   30.9348 C   0  0  0  0  0  0  0  0  0  0  0  0
   23.2719   11.6196   29.4222 S   0  0  0  0  0  0  0  0  0  0  0  0
   34.4440   11.7694   25.9966 S   0  0  0  0  0  0  0  0  0  0  0  0
   28.5229   17.0088   26.2494 C   0  0  0  0  0  0  0  0  0  0  0  0
   23.4439    3.3222   31.4112 C   0  0  0  0  0  0  0  0  0  0  0  0
   30.6092   17.2366   28.1587 C   0  0  0  0  0  0  0  0  0  0  0  0
   22.5752    5.8309   30.4240 C   0  0  0  0  0  0  0  0  0  0  0  0
   24.7923   11.2702   28.7943 O   0  0  0  0  0  0  0  0  0  0  0  0
   34.0901   10.3722   26.8576 O   0  0  0  0  0  0  0  0  0  0  0  0
   27.2309    6.6250   31.7941 C   0  0  0  0  0  0  0  0  0  0  0  0
   29.6703   12.4042   28.2134 C   0  0  0  0  0  0  0  0  0  0  0  0
   22.4752   12.3656   28.3898 O   0  0  0  0  0  0  0  0  0  0  0  0
   23.4185   12.4796   30.6468 O   0  0  0  0  0  0  0  0  0  0  0  0
   35.8382   11.6706   25.4506 O   0  0  0  0  0  0  0  0  0  0  0  0
   33.4767   11.9164   24.8579 O   0  0  0  0  0  0  0  0  0  0  0  0
   27.4919    8.0633   31.7074 C   0  0  0  0  0  0  0  0  0  0  0  0
   29.2675   11.9347   29.3945 C   0  0  0  0  0  0  0  0  0  0  0  0
   29.2349   10.4872   29.6539 C   0  0  0  0  0  0  0  0  0  0  0  0
   28.5807    9.9961   30.7074 C   0  0  0  0  0  0  0  0  0  0  0  0
   28.4302    8.5436   30.8928 C   0  0  0  0  0  0  0  0  0  0  0  0
   31.4791   14.5162   29.3769 C   0  0  0  0  0  0  0  0  0  0  0  0
   22.1206    3.4917   30.9061 C   0  0  0  0  0  0  0  0  0  0  0  0
   29.1112   18.2742   26.5390 C   0  0  0  0  0  0  0  0  0  0  0  0
   21.7058    4.7408   30.4132 C   0  0  0  0  0  0  0  0  0  0  0  0
   30.1494   18.3736   27.4876 C   0  0  0  0  0  0  0  0  0  0  0  0
   24.7982    7.9730   30.2870 C   0  0  0  0  0  0  0  0  0  0  0  0
   26.6961    3.6989   30.9702 C   0  0  0  0  0  0  0  0  0  0  0  0
   25.9420    4.2897   33.3534 C   0  0  0  0  0  0  0  0  0  0  0  0
   27.1883   14.1579   27.3234 C   0  0  0  0  0  0  0  0  0  0  0  0
   28.9381   13.8087   25.4840 C   0  0  0  0  0  0  0  0  0  0  0  0
   22.4201   10.0985   29.8347 C   0  0  0  0  0  0  0  0  0  0  0  0
   34.3299   13.1892   27.0714 C   0  0  0  0  0  0  0  0  0  0  0  0
   23.8255    2.0489   31.8819 C   0  0  0  0  0  0  0  0  0  0  0  0
   27.4923   16.9398   25.2925 C   0  0  0  0  0  0  0  0  0  0  0  0
   28.6588   19.4223   25.8711 C   0  0  0  0  0  0  0  0  0  0  0  0
   21.2272    2.4081   30.8915 C   0  0  0  0  0  0  0  0  0  0  0  0
   32.8235   14.4837   28.6364 C   0  0  0  0  0  0  0  0  0  0  0  0
   24.3755    9.1139   31.2365 C   0  0  0  0  0  0  0  0  0  0  0  0
   22.8839    9.4921   31.1704 C   0  0  0  0  0  0  0  0  0  0  0  0
   32.9452   13.2632   27.7155 C   0  0  0  0  0  0  0  0  0  0  0  0
   27.0581   18.0941   24.6356 C   0  0  0  0  0  0  0  0  0  0  0  0
   22.9240    0.9812   31.8586 C   0  0  0  0  0  0  0  0  0  0  0  0
   21.6294    1.1604   31.3680 C   0  0  0  0  0  0  0  0  0  0  0  0
   27.6393   19.3296   24.9219 C   0  0  0  0  0  0  0  0  0  0  0  0
   31.4062   17.3232   28.8836 H   0  0  0  0  0  0  0  0  0  0  0  0
   22.2365    6.7738   30.0252 H   0  0  0  0  0  0  0  0  0  0  0  0
   28.0659    6.0073   32.1031 H   0  0  0  0  0  0  0  0  0  0  0  0
   29.9465   11.7174   27.4239 H   0  0  0  0  0  0  0  0  0  0  0  0
   26.8752    8.7390   32.2804 H   0  0  0  0  0  0  0  0  0  0  0  0
   28.9089   12.6237   30.1522 H   0  0  0  0  0  0  0  0  0  0  0  0
   29.6935    9.8114   28.9381 H   0  0  0  0  0  0  0  0  0  0  0  0
   28.0784   10.6726   31.3927 H   0  0  0  0  0  0  0  0  0  0  0  0
   29.0199    7.8610   30.2895 H   0  0  0  0  0  0  0  0  0  0  0  0
   31.5042   15.3333   30.1289 H   0  0  0  0  0  0  0  0  0  0  0  0
   31.3418   13.5762   29.9522 H   0  0  0  0  0  0  0  0  0  0  0  0
   20.7063    4.8724   30.0159 H   0  0  0  0  0  0  0  0  0  0  0  0
   30.6034   19.3317   27.7092 H   0  0  0  0  0  0  0  0  0  0  0  0
   24.1238    7.8880   29.4134 H   0  0  0  0  0  0  0  0  0  0  0  0
   25.7794    8.2080   29.8273 H   0  0  0  0  0  0  0  0  0  0  0  0
   26.5925    3.9799   29.8983 H   0  0  0  0  0  0  0  0  0  0  0  0
   26.4682    2.6212   31.0642 H   0  0  0  0  0  0  0  0  0  0  0  0
   27.7585    3.8382   31.2649 H   0  0  0  0  0  0  0  0  0  0  0  0
   25.2204    4.8967   33.9436 H   0  0  0  0  0  0  0  0  0  0  0  0
   25.7856    3.2247   33.6037 H   0  0  0  0  0  0  0  0  0  0  0  0
   26.9694    4.5504   33.6874 H   0  0  0  0  0  0  0  0  0  0  0  0
   26.9969   13.0673   27.4108 H   0  0  0  0  0  0  0  0  0  0  0  0
   26.4508   14.5667   26.6065 H   0  0  0  0  0  0  0  0  0  0  0  0
   27.0067   14.6231   28.3174 H   0  0  0  0  0  0  0  0  0  0  0  0
   28.2887   14.2375   24.6976 H   0  0  0  0  0  0  0  0  0  0  0  0
   29.9974   13.9973   25.2012 H   0  0  0  0  0  0  0  0  0  0  0  0
   28.7665   12.7107   25.4940 H   0  0  0  0  0  0  0  0  0  0  0  0
   22.5302    9.3778   28.9982 H   0  0  0  0  0  0  0  0  0  0  0  0
   21.3349   10.3290   29.9205 H   0  0  0  0  0  0  0  0  0  0  0  0
   35.1079   13.1058   27.8593 H   0  0  0  0  0  0  0  0  0  0  0  0
   34.5184   14.1062   26.4734 H   0  0  0  0  0  0  0  0  0  0  0  0
   24.8101    1.8507   32.2660 H   0  0  0  0  0  0  0  0  0  0  0  0
   27.0092   16.0121   25.0411 H   0  0  0  0  0  0  0  0  0  0  0  0
   29.0959   20.3910   26.0800 H   0  0  0  0  0  0  0  0  0  0  0  0
   20.2189    2.5248   30.5089 H   0  0  0  0  0  0  0  0  0  0  0  0
   32.9478   15.4156   28.0426 H   0  0  0  0  0  0  0  0  0  0  0  0
   33.6362   14.4500   29.3946 H   0  0  0  0  0  0  0  0  0  0  0  0
   24.5931    8.8180   32.2868 H   0  0  0  0  0  0  0  0  0  0  0  0
   24.9982   10.0112   31.0352 H   0  0  0  0  0  0  0  0  0  0  0  0
   22.2675    8.5997   31.4005 H   0  0  0  0  0  0  0  0  0  0  0  0
   22.6767   10.2287   31.9771 H   0  0  0  0  0  0  0  0  0  0  0  0
   32.7679   12.3387   28.3063 H   0  0  0  0  0  0  0  0  0  0  0  0
   32.1804   13.3257   26.9118 H   0  0  0  0  0  0  0  0  0  0  0  0
   26.2664   18.0304   23.9000 H   0  0  0  0  0  0  0  0  0  0  0  0
   23.2288    0.0073   32.2233 H   0  0  0  0  0  0  0  0  0  0  0  0
   20.9374    0.3278   31.3546 H   0  0  0  0  0  0  0  0  0  0  0  0
   27.2976   20.2186   24.4076 H   0  0  0  0  0  0  0  0  0  0  0  0
  2  1  1  0
  3  5  1  0
  4  5  1  0
  5 19  2  0
  6  1  2  0
  7  6  1  0
  8  2  2  0
  9  4  1  0
 10  3  1  0
 11 40  1  0
 12 41  1  0
 13  8  1  0
 14  9  2  0
 15  2  1  0
 16 10  2  0
 17 11  1  0
 18 12  1  0
 19 25  1  0
 20  6  1  0
 21 11  2  0
 22 11  2  0
 23 12  2  0
 24 12  2  0
 25 29  2  0
 26 20  2  0
 27 26  1  0
 28 27  2  0
 29 28  1  0
 30  1  1  0
 31 14  1  0
 32 34  1  0
 33 16  1  0
 34 15  2  0
 35  3  1  0
 36  4  1  0
 37  4  1  0
 38  7  1  0
 39  7  1  0
 40 48  1  0
 41 49  1  0
 42 14  1  0
 43 13  2  0
 44 32  2  0
 45 31  1  0
 46 30  1  0
 47 35  1  0
 48 47  1  0
 49 46  1  0
 50 43  1  0
 51 42  2  0
 52 51  1  0
 53 44  1  0
  7  8  1  0
 13 32  1  0
 53 50  2  0
 10  9  1  0
 31 33  2  0
 52 45  2  0
 15 54  1  0
 16 55  1  0
 19 56  1  0
 20 57  1  0
 25 58  1  0
 26 59  1  0
 27 60  1  0
 28 61  1  0
 29 62  1  0
 30 63  1  0
 30 64  1  0
 33 65  1  0
 34 66  1  0
 35 67  1  0
 35 68  1  0
 36 69  1  0
 36 70  1  0
 36 71  1  0
 37 72  1  0
 37 73  1  0
 37 74  1  0
 38 75  1  0
 38 76  1  0
 38 77  1  0
 39 78  1  0
 39 79  1  0
 39 80  1  0
 40 81  1  0
 40 82  1  0
 41 83  1  0
 41 84  1  0
 42 85  1  0
 43 86  1  0
 44 87  1  0
 45 88  1  0
 46 89  1  0
 46 90  1  0
 47 91  1  0
 47 92  1  0
 48 93  1  0
 48 94  1  0
 49 95  1  0
 49 96  1  0
 50 97  1  0
 51 98  1  0
 52 99  1  0
 53100  1  0
M  CHG  3   1   1  17  -1  18  -1
M  END
> <Uni-Dock RESULT> 
ENERGY=   -3.940  LOWER_BOUND=    4.024  UPPER_BOUND=   12.659
INTER + INTRA:          -3.940
INTER:                  -3.940
INTRA:                   0.000
UNBOUND:                 0.000

$$$$

     RDKit          3D

100105  0  0  0  0  0  0  0  0999 V2000
   31.2021   15.6110   30.0283 N   0  0  0  0  0  0  0  0  0  0  0  0
   32.1217   16.6251   30.4120 C   0  0  0  0  0  0  0  0  0  0  0  0
   31.6506    5.5379   30.2569 N   0  0  0  0  0  0  0  0  0  0  0  0
   29.8170    4.0261   29.6636 C   0  0  0  0  0  0  0  0  0  0  0  0
   30.3728    5.4425   29.5955 C   0  0  0  0  0  0  0  0  0  0  0  0
   31.3149   14.6333   30.8839 C   0  0  0  0  0  0  0  0  0  0  0  0
   32.3505   14.8947   31.9642 C   0  0  0  0  0  0  0  0  0  0  0  0
   32.8332   16.2642   31.5369 C   0  0  0  0  0  0  0  0  0  0  0  0
   30.9373    3.3105   30.4060 C   0  0  0  0  0  0  0  0  0  0  0  0
   31.9373    4.2201   30.7213 C   0  0  0  0  0  0  0  0  0  0  0  0
   35.5342    9.2090   31.1628 S   0  0  0  0  0  0  0  0  0  0  0  0
   25.9904   15.8886   32.0965 S   0  0  0  0  0  0  0  0  0  0  0  0
   33.8019   17.1354   32.0869 C   0  0  0  0  0  0  0  0  0  0  0  0
   31.0611    1.9500   30.8004 C   0  0  0  0  0  0  0  0  0  0  0  0
   32.3177   17.8530   29.7778 C   0  0  0  0  0  0  0  0  0  0  0  0
   33.0696    3.8385   31.4501 C   0  0  0  0  0  0  0  0  0  0  0  0
   34.0238    9.8588   31.5154 O   0  0  0  0  0  0  0  0  0  0  0  0
   25.5975   14.3303   31.6104 O   0  0  0  0  0  0  0  0  0  0  0  0
   29.6960    6.4608   29.0157 C   0  0  0  0  0  0  0  0  0  0  0  0
   30.5016   13.4026   30.8418 C   0  0  0  0  0  0  0  0  0  0  0  0
   36.5279    9.7006   32.1767 O   0  0  0  0  0  0  0  0  0  0  0  0
   35.9667    9.6548   29.7934 O   0  0  0  0  0  0  0  0  0  0  0  0
   24.7271   16.6580   32.3491 O   0  0  0  0  0  0  0  0  0  0  0  0
   26.7958   15.8320   33.3621 O   0  0  0  0  0  0  0  0  0  0  0  0
   30.2468    7.7953   28.7705 C   0  0  0  0  0  0  0  0  0  0  0  0
   30.6742   12.4934   29.8820 C   0  0  0  0  0  0  0  0  0  0  0  0
   29.9398   11.2194   29.9159 C   0  0  0  0  0  0  0  0  0  0  0  0
   30.3021   10.2006   29.1349 C   0  0  0  0  0  0  0  0  0  0  0  0
   29.6583    8.8833   29.2652 C   0  0  0  0  0  0  0  0  0  0  0  0
   30.2112   15.7286   28.9466 C   0  0  0  0  0  0  0  0  0  0  0  0
   32.2246    1.5602   31.5280 C   0  0  0  0  0  0  0  0  0  0  0  0
   34.0130   18.3904   31.4455 C   0  0  0  0  0  0  0  0  0  0  0  0
   33.2097    2.5098   31.8491 C   0  0  0  0  0  0  0  0  0  0  0  0
   33.2668   18.7365   30.3005 C   0  0  0  0  0  0  0  0  0  0  0  0
   32.3510    6.7516   30.7106 C   0  0  0  0  0  0  0  0  0  0  0  0
   28.5041    4.0162   30.4752 C   0  0  0  0  0  0  0  0  0  0  0  0
   29.6331    3.4726   28.2330 C   0  0  0  0  0  0  0  0  0  0  0  0
   33.4629   13.8334   31.8777 C   0  0  0  0  0  0  0  0  0  0  0  0
   31.6698   14.9284   33.3449 C   0  0  0  0  0  0  0  0  0  0  0  0
   35.4585    7.4205   31.2341 C   0  0  0  0  0  0  0  0  0  0  0  0
   26.9323   16.7030   30.8184 C   0  0  0  0  0  0  0  0  0  0  0  0
   30.0891    0.9699   30.5122 C   0  0  0  0  0  0  0  0  0  0  0  0
   34.5575   16.8204   33.2325 C   0  0  0  0  0  0  0  0  0  0  0  0
   34.9620   19.2860   31.9615 C   0  0  0  0  0  0  0  0  0  0  0  0
   32.3880    0.2258   31.9344 C   0  0  0  0  0  0  0  0  0  0  0  0
   29.0109   16.5803   29.3836 C   0  0  0  0  0  0  0  0  0  0  0  0
   33.3920    7.2161   29.6702 C   0  0  0  0  0  0  0  0  0  0  0  0
   34.8420    6.7933   29.9718 C   0  0  0  0  0  0  0  0  0  0  0  0
   28.1816   15.8912   30.4744 C   0  0  0  0  0  0  0  0  0  0  0  0
   35.4954   17.7271   33.7329 C   0  0  0  0  0  0  0  0  0  0  0  0
   30.2673   -0.3532   30.9257 C   0  0  0  0  0  0  0  0  0  0  0  0
   31.4130   -0.7246   31.6315 C   0  0  0  0  0  0  0  0  0  0  0  0
   35.6961   18.9550   33.1019 C   0  0  0  0  0  0  0  0  0  0  0  0
   31.7502   18.1280   28.9000 H   0  0  0  0  0  0  0  0  0  0  0  0
   33.8327    4.5498   31.7234 H   0  0  0  0  0  0  0  0  0  0  0  0
   28.6856    6.2906   28.6633 H   0  0  0  0  0  0  0  0  0  0  0  0
   29.8404   13.1932   31.6727 H   0  0  0  0  0  0  0  0  0  0  0  0
   31.1713    7.8831   28.2202 H   0  0  0  0  0  0  0  0  0  0  0  0
   31.4032   12.6717   29.0983 H   0  0  0  0  0  0  0  0  0  0  0  0
   29.1371   11.0909   30.6360 H   0  0  0  0  0  0  0  0  0  0  0  0
   31.1394   10.3160   28.4529 H   0  0  0  0  0  0  0  0  0  0  0  0
   28.7504    8.7845   29.8514 H   0  0  0  0  0  0  0  0  0  0  0  0
   30.6871   16.2067   28.0643 H   0  0  0  0  0  0  0  0  0  0  0  0
   29.8620   14.7321   28.6026 H   0  0  0  0  0  0  0  0  0  0  0  0
   34.0892    2.2227   32.4130 H   0  0  0  0  0  0  0  0  0  0  0  0
   33.4195   19.6905   29.8108 H   0  0  0  0  0  0  0  0  0  0  0  0
   32.8055    6.5801   31.7053 H   0  0  0  0  0  0  0  0  0  0  0  0
   31.6207    7.5634   30.9027 H   0  0  0  0  0  0  0  0  0  0  0  0
   28.6627    4.4862   31.4715 H   0  0  0  0  0  0  0  0  0  0  0  0
   28.1207    2.9921   30.6379 H   0  0  0  0  0  0  0  0  0  0  0  0
   27.7103    4.5851   29.9449 H   0  0  0  0  0  0  0  0  0  0  0  0
   30.6098    3.4464   27.7013 H   0  0  0  0  0  0  0  0  0  0  0  0
   29.2083    2.4524   28.2285 H   0  0  0  0  0  0  0  0  0  0  0  0
   28.9371    4.1127   27.6492 H   0  0  0  0  0  0  0  0  0  0  0  0
   33.0414   12.8189   32.0415 H   0  0  0  0  0  0  0  0  0  0  0  0
   34.2484   13.9924   32.6409 H   0  0  0  0  0  0  0  0  0  0  0  0
   33.9404   13.8530   30.8731 H   0  0  0  0  0  0  0  0  0  0  0  0
   32.3871   15.1671   34.1527 H   0  0  0  0  0  0  0  0  0  0  0  0
   30.8621   15.6933   33.3599 H   0  0  0  0  0  0  0  0  0  0  0  0
   31.2220   13.9389   33.5803 H   0  0  0  0  0  0  0  0  0  0  0  0
   34.9148    7.1125   32.1512 H   0  0  0  0  0  0  0  0  0  0  0  0
   36.4994    7.0398   31.3337 H   0  0  0  0  0  0  0  0  0  0  0  0
   26.2937   16.8118   29.9166 H   0  0  0  0  0  0  0  0  0  0  0  0
   27.2245   17.7126   31.1781 H   0  0  0  0  0  0  0  0  0  0  0  0
   29.1852    1.1985   29.9767 H   0  0  0  0  0  0  0  0  0  0  0  0
   34.4433   15.8848   33.7510 H   0  0  0  0  0  0  0  0  0  0  0  0
   35.1338   20.2435   31.4855 H   0  0  0  0  0  0  0  0  0  0  0  0
   33.2680   -0.0820   32.4890 H   0  0  0  0  0  0  0  0  0  0  0  0
   29.3652   17.5687   29.7497 H   0  0  0  0  0  0  0  0  0  0  0  0
   28.3678   16.7555   28.4936 H   0  0  0  0  0  0  0  0  0  0  0  0
   33.1283    6.7972   28.6737 H   0  0  0  0  0  0  0  0  0  0  0  0
   33.3390    8.3201   29.5628 H   0  0  0  0  0  0  0  0  0  0  0  0
   34.8946    5.6885   30.0495 H   0  0  0  0  0  0  0  0  0  0  0  0
   35.4735    7.0735   29.1006 H   0  0  0  0  0  0  0  0  0  0  0  0
   27.8755   14.8831   30.1207 H   0  0  0  0  0  0  0  0  0  0  0  0
   28.7967   15.7762   31.3926 H   0  0  0  0  0  0  0  0  0  0  0  0
   36.0701   17.4764   34.6155 H   0  0  0  0  0  0  0  0  0  0  0  0
   29.5134   -1.0978   30.6980 H   0  0  0  0  0  0  0  0  0  0  0  0
   31.5431   -1.7521   31.9470 H   0  0  0  0  0  0  0  0  0  0  0  0
   36.4240   19.6520   33.4969 H   0  0  0  0  0  0  0  0  0  0  0  0
  2  1  1  0
  3  5  1  0
  4  5  1  0
  5 19  2  0
  6  1  2  0
  7  6  1  0
  8  2  2  0
  9  4  1  0
 10  3  1  0
 11 40  1  0
 12 41  1  0
 13  8  1  0
 14  9  2  0
 15  2  1  0
 16 10  2  0
 17 11  1  0
 18 12  1  0
 19 25  1  0
 20  6  1  0
 21 11  2  0
 22 11  2  0
 23 12  2  0
 24 12  2  0
 25 29  2  0
 26 20  2  0
 27 26  1  0
 28 27  2  0
 29 28  1  0
 30  1  1  0
 31 14  1  0
 32 34  1  0
 33 16  1  0
 34 15  2  0
 35  3  1  0
 36  4  1  0
 37  4  1  0
 38  7  1  0
 39  7  1  0
 40 48  1  0
 41 49  1  0
 42 14  1  0
 43 13  2  0
 44 32  2  0
 45 31  1  0
 46 30  1  0
 47 35  1  0
 48 47  1  0
 49 46  1  0
 50 43  1  0
 51 42  2  0
 52 51  1  0
 53 44  1  0
  7  8  1  0
 13 32  1  0
 53 50  2  0
 10  9  1  0
 31 33  2  0
 52 45  2  0
 15 54  1  0
 16 55  1  0
 19 56  1  0
 20 57  1  0
 25 58  1  0
 26 59  1  0
 27 60  1  0
 28 61  1  0
 29 62  1  0
 30 63  1  0
 30 64  1  0
 33 65  1  0
 34 66  1  0
 35 67  1  0
 35 68  1  0
 36 69  1  0
 36 70  1  0
 36 71  1  0
 37 72  1  0
 37 73  1  0
 37 74  1  0
 38 75  1  0
 38 76  1  0
 38 77  1  0
 39 78  1  0
 39 79  1  0
 39 80  1  0
 40 81  1  0
 40 82  1  0
 41 83  1  0
 41 84  1  0
 42 85  1  0
 43 86  1  0
 44 87  1  0
 45 88  1  0
 46 89  1  0
 46 90  1  0
 47 91  1  0
 47 92  1  0
 48 93  1  0
 48 94  1  0
 49 95  1  0
 49 96  1  0
 50 97  1  0
 51 98  1  0
 52 99  1  0
 53100  1  0
M  CHG  3   1   1  17  -1  18  -1
M  END
> <Uni-Dock RESULT> 
ENERGY=   -3.794  LOWER_BOUND=    4.894  UPPER_BOUND=   13.027
INTER + INTRA:          -3.794
INTER:                  -3.794
INTRA:                   0.000
UNBOUND:                 0.000

$$$$

     RDKit          3D

100105  0  0  0  0  0  0  0  0999 V2000
   28.7561   13.0869   28.3066 N   0  0  0  0  0  0  0  0  0  0  0  0
   27.4018   13.4567   28.5312 C   0  0  0  0  0  0  0  0  0  0  0  0
   34.1420    4.9647   30.9031 N   0  0  0  0  0  0  0  0  0  0  0  0
   36.4561    4.5269   30.2299 C   0  0  0  0  0  0  0  0  0  0  0  0
   35.3390    5.5545   30.3564 C   0  0  0  0  0  0  0  0  0  0  0  0
   28.7841   11.7986   28.1063 C   0  0  0  0  0  0  0  0  0  0  0  0
   27.4130   11.1481   28.1759 C   0  0  0  0  0  0  0  0  0  0  0  0
   26.5625   12.3639   28.4757 C   0  0  0  0  0  0  0  0  0  0  0  0
   35.7775    3.2893   30.8008 C   0  0  0  0  0  0  0  0  0  0  0  0
   34.4711    3.5994   31.1528 C   0  0  0  0  0  0  0  0  0  0  0  0
   29.1619    6.4633   32.4302 S   0  0  0  0  0  0  0  0  0  0  0  0
   30.6685   13.2423   23.0307 S   0  0  0  0  0  0  0  0  0  0  0  0
   25.1700   12.5144   28.6708 C   0  0  0  0  0  0  0  0  0  0  0  0
   36.2689    1.9669   30.9792 C   0  0  0  0  0  0  0  0  0  0  0  0
   26.9207   14.7447   28.7724 C   0  0  0  0  0  0  0  0  0  0  0  0
   33.6007    2.6287   31.6616 C   0  0  0  0  0  0  0  0  0  0  0  0
   29.5230    7.0979   30.9153 O   0  0  0  0  0  0  0  0  0  0  0  0
   32.0681   12.3903   23.3974 O   0  0  0  0  0  0  0  0  0  0  0  0
   35.4836    6.8376   29.9518 C   0  0  0  0  0  0  0  0  0  0  0  0
   30.0122   11.0370   27.8069 C   0  0  0  0  0  0  0  0  0  0  0  0
   27.7203    6.0411   32.4534 O   0  0  0  0  0  0  0  0  0  0  0  0
   29.3839    7.5145   33.4822 O   0  0  0  0  0  0  0  0  0  0  0  0
   30.8638   13.9746   21.7357 O   0  0  0  0  0  0  0  0  0  0  0  0
   29.5205   12.2853   22.8889 O   0  0  0  0  0  0  0  0  0  0  0  0
   34.5127    7.9051   30.2014 C   0  0  0  0  0  0  0  0  0  0  0  0
   30.9495   10.8453   28.7355 C   0  0  0  0  0  0  0  0  0  0  0  0
   32.1128    9.9884   28.4603 C   0  0  0  0  0  0  0  0  0  0  0  0
   32.8997    9.5653   29.4507 C   0  0  0  0  0  0  0  0  0  0  0  0
   33.9801    8.5984   29.1962 C   0  0  0  0  0  0  0  0  0  0  0  0
   29.8829   14.0252   28.1817 C   0  0  0  0  0  0  0  0  0  0  0  0
   35.3847    0.9836   31.5144 C   0  0  0  0  0  0  0  0  0  0  0  0
   24.6679   13.8244   28.9214 C   0  0  0  0  0  0  0  0  0  0  0  0
   34.0614    1.3250   31.8420 C   0  0  0  0  0  0  0  0  0  0  0  0
   25.5479   14.9250   28.9662 C   0  0  0  0  0  0  0  0  0  0  0  0
   32.7695    5.4982   30.8715 C   0  0  0  0  0  0  0  0  0  0  0  0
   36.8260    4.3346   28.7437 C   0  0  0  0  0  0  0  0  0  0  0  0
   37.6631    4.9658   31.0886 C   0  0  0  0  0  0  0  0  0  0  0  0
   27.3876   10.1235   29.3252 C   0  0  0  0  0  0  0  0  0  0  0  0
   27.0615   10.5205   26.8146 C   0  0  0  0  0  0  0  0  0  0  0  0
   30.1967    5.0373   32.7546 C   0  0  0  0  0  0  0  0  0  0  0  0
   30.3171   14.4175   24.3267 C   0  0  0  0  0  0  0  0  0  0  0  0
   37.5839    1.5795   30.6488 C   0  0  0  0  0  0  0  0  0  0  0  0
   24.2661   11.4357   28.6253 C   0  0  0  0  0  0  0  0  0  0  0  0
   23.2919   14.0180   29.1164 C   0  0  0  0  0  0  0  0  0  0  0  0
   35.8304   -0.3339   31.7094 C   0  0  0  0  0  0  0  0  0  0  0  0
   29.8922   14.7010   26.8032 C   0  0  0  0  0  0  0  0  0  0  0  0
   32.4293    6.2393   32.1818 C   0  0  0  0  0  0  0  0  0  0  0  0
   31.6198    5.4153   33.2004 C   0  0  0  0  0  0  0  0  0  0  0  0
   30.2043   13.7081   25.6765 C   0  0  0  0  0  0  0  0  0  0  0  0
   22.8989   11.6496   28.8187 C   0  0  0  0  0  0  0  0  0  0  0  0
   38.0102    0.2636   30.8482 C   0  0  0  0  0  0  0  0  0  0  0  0
   37.1382   -0.6888   31.3787 C   0  0  0  0  0  0  0  0  0  0  0  0
   22.4132   12.9346   29.0615 C   0  0  0  0  0  0  0  0  0  0  0  0
   27.5869   15.5950   28.8080 H   0  0  0  0  0  0  0  0  0  0  0  0
   32.5762    2.8598   31.9063 H   0  0  0  0  0  0  0  0  0  0  0  0
   36.3919    7.1305   29.4386 H   0  0  0  0  0  0  0  0  0  0  0  0
   30.0867   10.5344   26.8513 H   0  0  0  0  0  0  0  0  0  0  0  0
   34.1943    8.0915   31.2157 H   0  0  0  0  0  0  0  0  0  0  0  0
   30.8256   11.2813   29.7215 H   0  0  0  0  0  0  0  0  0  0  0  0
   32.2878    9.6445   27.4452 H   0  0  0  0  0  0  0  0  0  0  0  0
   32.6904    9.8691   30.4722 H   0  0  0  0  0  0  0  0  0  0  0  0
   34.2751    8.3789   28.1752 H   0  0  0  0  0  0  0  0  0  0  0  0
   29.7955   14.8087   28.9640 H   0  0  0  0  0  0  0  0  0  0  0  0
   30.8559   13.5211   28.3620 H   0  0  0  0  0  0  0  0  0  0  0  0
   33.3812    0.5795   32.2363 H   0  0  0  0  0  0  0  0  0  0  0  0
   25.1722   15.9237   29.1521 H   0  0  0  0  0  0  0  0  0  0  0  0
   32.0496    4.6858   30.6547 H   0  0  0  0  0  0  0  0  0  0  0  0
   32.6466    6.1823   30.0077 H   0  0  0  0  0  0  0  0  0  0  0  0
   35.9182    4.0884   28.1488 H   0  0  0  0  0  0  0  0  0  0  0  0
   37.5608    3.5216   28.5975 H   0  0  0  0  0  0  0  0  0  0  0  0
   37.2735    5.2625   28.3272 H   0  0  0  0  0  0  0  0  0  0  0  0
   37.3680    5.0408   32.1585 H   0  0  0  0  0  0  0  0  0  0  0  0
   38.5118    4.2622   31.0113 H   0  0  0  0  0  0  0  0  0  0  0  0
   38.0389    5.9593   30.7618 H   0  0  0  0  0  0  0  0  0  0  0  0
   28.1397    9.3258   29.1470 H   0  0  0  0  0  0  0  0  0  0  0  0
   26.4006    9.6322   29.4214 H   0  0  0  0  0  0  0  0  0  0  0  0
   27.6289   10.6187   30.2917 H   0  0  0  0  0  0  0  0  0  0  0  0
   26.0463   10.0805   26.8130 H   0  0  0  0  0  0  0  0  0  0  0  0
   27.1091   11.2878   26.0105 H   0  0  0  0  0  0  0  0  0  0  0  0
   27.7765    9.7064   26.5672 H   0  0  0  0  0  0  0  0  0  0  0  0
   30.2091    4.3817   31.8594 H   0  0  0  0  0  0  0  0  0  0  0  0
   29.7233    4.4533   33.5750 H   0  0  0  0  0  0  0  0  0  0  0  0
   31.1355   15.1672   24.3623 H   0  0  0  0  0  0  0  0  0  0  0  0
   29.3630   14.9352   24.0905 H   0  0  0  0  0  0  0  0  0  0  0  0
   38.2973    2.2681   30.2327 H   0  0  0  0  0  0  0  0  0  0  0  0
   24.5920   10.4262   28.4469 H   0  0  0  0  0  0  0  0  0  0  0  0
   22.8951   15.0074   29.3075 H   0  0  0  0  0  0  0  0  0  0  0  0
   35.1668   -1.0904   32.1148 H   0  0  0  0  0  0  0  0  0  0  0  0
   28.9088   15.1846   26.6154 H   0  0  0  0  0  0  0  0  0  0  0  0
   30.6688   15.4968   26.8125 H   0  0  0  0  0  0  0  0  0  0  0  0
   33.3724    6.5486   32.6849 H   0  0  0  0  0  0  0  0  0  0  0  0
   31.8861    7.1784   31.9441 H   0  0  0  0  0  0  0  0  0  0  0  0
   32.1799    4.4931   33.4559 H   0  0  0  0  0  0  0  0  0  0  0  0
   31.5447    6.0033   34.1411 H   0  0  0  0  0  0  0  0  0  0  0  0
   31.1628   13.1912   25.8980 H   0  0  0  0  0  0  0  0  0  0  0  0
   29.3951   12.9493   25.6145 H   0  0  0  0  0  0  0  0  0  0  0  0
   22.2116   10.8140   28.7798 H   0  0  0  0  0  0  0  0  0  0  0  0
   39.0234   -0.0222   30.5907 H   0  0  0  0  0  0  0  0  0  0  0  0
   37.4773   -1.7057   31.5305 H   0  0  0  0  0  0  0  0  0  0  0  0
   21.3524   13.0915   29.2091 H   0  0  0  0  0  0  0  0  0  0  0  0
  2  1  1  0
  3  5  1  0
  4  5  1  0
  5 19  2  0
  6  1  2  0
  7  6  1  0
  8  2  2  0
  9  4  1  0
 10  3  1  0
 11 40  1  0
 12 41  1  0
 13  8  1  0
 14  9  2  0
 15  2  1  0
 16 10  2  0
 17 11  1  0
 18 12  1  0
 19 25  1  0
 20  6  1  0
 21 11  2  0
 22 11  2  0
 23 12  2  0
 24 12  2  0
 25 29  2  0
 26 20  2  0
 27 26  1  0
 28 27  2  0
 29 28  1  0
 30  1  1  0
 31 14  1  0
 32 34  1  0
 33 16  1  0
 34 15  2  0
 35  3  1  0
 36  4  1  0
 37  4  1  0
 38  7  1  0
 39  7  1  0
 40 48  1  0
 41 49  1  0
 42 14  1  0
 43 13  2  0
 44 32  2  0
 45 31  1  0
 46 30  1  0
 47 35  1  0
 48 47  1  0
 49 46  1  0
 50 43  1  0
 51 42  2  0
 52 51  1  0
 53 44  1  0
  7  8  1  0
 13 32  1  0
 53 50  2  0
 10  9  1  0
 31 33  2  0
 52 45  2  0
 15 54  1  0
 16 55  1  0
 19 56  1  0
 20 57  1  0
 25 58  1  0
 26 59  1  0
 27 60  1  0
 28 61  1  0
 29 62  1  0
 30 63  1  0
 30 64  1  0
 33 65  1  0
 34 66  1  0
 35 67  1  0
 35 68  1  0
 36 69  1  0
 36 70  1  0
 36 71  1  0
 37 72  1  0
 37 73  1  0
 37 74  1  0
 38 75  1  0
 38 76  1  0
 38 77  1  0
 39 78  1  0
 39 79  1  0
 39 80  1  0
 40 81  1  0
 40 82  1  0
 41 83  1  0
 41 84  1  0
 42 85  1  0
 43 86  1  0
 44 87  1  0
 45 88  1  0
 46 89  1  0
 46 90  1  0
 47 91  1  0
 47 92  1  0
 48 93  1  0
 48 94  1  0
 49 95  1  0
 49 96  1  0
 50 97  1  0
 51 98  1  0
 52 99  1  0
 53100  1  0
M  CHG  3   1   1  17  -1  18  -1
M  END
> <Uni-Dock RESULT> 
ENERGY=   -3.780  LOWER_BOUND=    4.846  UPPER_BOUND=   11.136
INTER + INTRA:          -3.780
INTER:                  -3.780
INTRA:                   0.000
UNBOUND:                 0.000

$$$$

     RDKit          3D

100105  0  0  0  0  0  0  0  0999 V2000
   30.1998   13.9067   28.9333 N   0  0  0  0  0  0  0  0  0  0  0  0
   29.6716   15.1246   28.4243 C   0  0  0  0  0  0  0  0  0  0  0  0
   25.8997    5.1908   31.6281 N   0  0  0  0  0  0  0  0  0  0  0  0
   27.1035    3.1786   32.3363 C   0  0  0  0  0  0  0  0  0  0  0  0
   27.1680    4.6796   32.0861 C   0  0  0  0  0  0  0  0  0  0  0  0
   29.5068   12.9307   28.4161 C   0  0  0  0  0  0  0  0  0  0  0  0
   28.4093   13.4023   27.4776 C   0  0  0  0  0  0  0  0  0  0  0  0
   28.6130   14.8994   27.5697 C   0  0  0  0  0  0  0  0  0  0  0  0
   25.6450    2.8921   32.0064 C   0  0  0  0  0  0  0  0  0  0  0  0
   25.0230    4.0659   31.6040 C   0  0  0  0  0  0  0  0  0  0  0  0
   23.6192    9.9330   30.3280 S   0  0  0  0  0  0  0  0  0  0  0  0
   34.4017   11.4924   26.0994 S   0  0  0  0  0  0  0  0  0  0  0  0
   27.9439   15.9808   26.9510 C   0  0  0  0  0  0  0  0  0  0  0  0
   24.9146    1.6723   32.0357 C   0  0  0  0  0  0  0  0  0  0  0  0
   30.1290   16.4124   28.7085 C   0  0  0  0  0  0  0  0  0  0  0  0
   23.6848    4.0813   31.1946 C   0  0  0  0  0  0  0  0  0  0  0  0
   25.1176    9.7818   29.5797 O   0  0  0  0  0  0  0  0  0  0  0  0
   34.2809   10.0437   26.9394 O   0  0  0  0  0  0  0  0  0  0  0  0
   28.3064    5.3937   32.2443 C   0  0  0  0  0  0  0  0  0  0  0  0
   29.7701   11.5026   28.6790 C   0  0  0  0  0  0  0  0  0  0  0  0
   22.6639   10.6019   29.3809 O   0  0  0  0  0  0  0  0  0  0  0  0
   23.7573   10.7763   31.5652 O   0  0  0  0  0  0  0  0  0  0  0  0
   35.7519   11.5730   25.4499 O   0  0  0  0  0  0  0  0  0  0  0  0
   33.3396   11.5487   25.0399 O   0  0  0  0  0  0  0  0  0  0  0  0
   28.3895    6.8545   32.1842 C   0  0  0  0  0  0  0  0  0  0  0  0
   29.5167   10.9617   29.8710 C   0  0  0  0  0  0  0  0  0  0  0  0
   29.6740    9.5151   30.0862 C   0  0  0  0  0  0  0  0  0  0  0  0
   29.1644    8.9256   31.1687 C   0  0  0  0  0  0  0  0  0  0  0  0
   29.2000    7.4617   31.3186 C   0  0  0  0  0  0  0  0  0  0  0  0
   31.4025   13.7883   29.7731 C   0  0  0  0  0  0  0  0  0  0  0  0
   23.5458    1.6942   31.6345 C   0  0  0  0  0  0  0  0  0  0  0  0
   28.4001   17.3004   27.2366 C   0  0  0  0  0  0  0  0  0  0  0  0
   22.9509    2.8957   31.2131 C   0  0  0  0  0  0  0  0  0  0  0  0
   29.4891   17.5014   28.1092 C   0  0  0  0  0  0  0  0  0  0  0  0
   25.6243    6.4758   30.9629 C   0  0  0  0  0  0  0  0  0  0  0  0
   28.0569    2.4442   31.3697 C   0  0  0  0  0  0  0  0  0  0  0  0
   27.4233    2.8866   33.8193 C   0  0  0  0  0  0  0  0  0  0  0  0
   27.0389   12.9674   28.0292 C   0  0  0  0  0  0  0  0  0  0  0  0
   28.6717   12.8713   26.0564 C   0  0  0  0  0  0  0  0  0  0  0  0
   22.9858    8.3122   30.7535 C   0  0  0  0  0  0  0  0  0  0  0  0
   34.2045   12.8636   27.2241 C   0  0  0  0  0  0  0  0  0  0  0  0
   25.4778    0.4433   32.4366 C   0  0  0  0  0  0  0  0  0  0  0  0
   26.8584   15.8111   26.0704 C   0  0  0  0  0  0  0  0  0  0  0  0
   27.7665   18.4013   26.6402 C   0  0  0  0  0  0  0  0  0  0  0  0
   22.7872    0.5124   31.6512 C   0  0  0  0  0  0  0  0  0  0  0  0
   32.6809   13.9333   28.9353 C   0  0  0  0  0  0  0  0  0  0  0  0
   25.1446    7.5363   31.9764 C   0  0  0  0  0  0  0  0  0  0  0  0
   23.6183    7.7353   32.0318 C   0  0  0  0  0  0  0  0  0  0  0  0
   32.8740   12.7572   27.9699 C   0  0  0  0  0  0  0  0  0  0  0  0
   26.2428   16.9200   25.4840 C   0  0  0  0  0  0  0  0  0  0  0  0
   24.7086   -0.7235   32.4457 C   0  0  0  0  0  0  0  0  0  0  0  0
   23.3682   -0.6890   32.0572 C   0  0  0  0  0  0  0  0  0  0  0  0
   26.6953   18.2092   25.7659 C   0  0  0  0  0  0  0  0  0  0  0  0
   30.9634   16.5771   29.3754 H   0  0  0  0  0  0  0  0  0  0  0  0
   23.2083    4.9858   30.8517 H   0  0  0  0  0  0  0  0  0  0  0  0
   29.2292    4.8733   32.4716 H   0  0  0  0  0  0  0  0  0  0  0  0
   30.0638   10.8717   27.8501 H   0  0  0  0  0  0  0  0  0  0  0  0
   27.7435    7.4386   32.8219 H   0  0  0  0  0  0  0  0  0  0  0  0
   29.1389   11.5855   30.6744 H   0  0  0  0  0  0  0  0  0  0  0  0
   30.1526    8.9153   29.3177 H   0  0  0  0  0  0  0  0  0  0  0  0
   28.6402    9.5216   31.9101 H   0  0  0  0  0  0  0  0  0  0  0  0
   29.8177    6.8682   30.6525 H   0  0  0  0  0  0  0  0  0  0  0  0
   31.3891   14.5852   30.5466 H   0  0  0  0  0  0  0  0  0  0  0  0
   31.4208   12.8258   30.3268 H   0  0  0  0  0  0  0  0  0  0  0  0
   21.9155    2.9161   30.8945 H   0  0  0  0  0  0  0  0  0  0  0  0
   29.8432   18.5016   28.3271 H   0  0  0  0  0  0  0  0  0  0  0  0
   24.8997    6.3308   30.1388 H   0  0  0  0  0  0  0  0  0  0  0  0
   26.5331    6.8366   30.4402 H   0  0  0  0  0  0  0  0  0  0  0  0
   27.8393    2.7352   30.3177 H   0  0  0  0  0  0  0  0  0  0  0  0
   27.9648    1.3452   31.4460 H   0  0  0  0  0  0  0  0  0  0  0  0
   29.1151    2.7026   31.5900 H   0  0  0  0  0  0  0  0  0  0  0  0
   26.6828    3.3895   34.4796 H   0  0  0  0  0  0  0  0  0  0  0  0
   27.4125    1.8051   34.0465 H   0  0  0  0  0  0  0  0  0  0  0  0
   28.4356    3.2603   34.0852 H   0  0  0  0  0  0  0  0  0  0  0  0
   26.9840   11.8600   28.0958 H   0  0  0  0  0  0  0  0  0  0  0  0
   26.2059   13.3015   27.3816 H   0  0  0  0  0  0  0  0  0  0  0  0
   26.8806   13.3849   29.0481 H   0  0  0  0  0  0  0  0  0  0  0  0
   27.9182   13.2374   25.3337 H   0  0  0  0  0  0  0  0  0  0  0  0
   29.6768   13.1913   25.7029 H   0  0  0  0  0  0  0  0  0  0  0  0
   28.6313   11.7608   26.0442 H   0  0  0  0  0  0  0  0  0  0  0  0
   23.1153    7.6289   29.8888 H   0  0  0  0  0  0  0  0  0  0  0  0
   21.8907    8.4095   30.9258 H   0  0  0  0  0  0  0  0  0  0  0  0
   35.0448   12.8557   27.9498 H   0  0  0  0  0  0  0  0  0  0  0  0
   34.2378   13.8099   26.6431 H   0  0  0  0  0  0  0  0  0  0  0  0
   26.5053    0.3553   32.7411 H   0  0  0  0  0  0  0  0  0  0  0  0
   26.4695   14.8384   25.8260 H   0  0  0  0  0  0  0  0  0  0  0  0
   28.1017   19.4102   26.8471 H   0  0  0  0  0  0  0  0  0  0  0  0
   21.7458    0.5166   31.3474 H   0  0  0  0  0  0  0  0  0  0  0  0
   32.6493   14.8866   28.3639 H   0  0  0  0  0  0  0  0  0  0  0  0
   33.5475   13.9795   29.6305 H   0  0  0  0  0  0  0  0  0  0  0  0
   25.4751    7.2447   32.9981 H   0  0  0  0  0  0  0  0  0  0  0  0
   25.6405    8.5057   31.7585 H   0  0  0  0  0  0  0  0  0  0  0  0
   23.1302    6.7707   32.2781 H   0  0  0  0  0  0  0  0  0  0  0  0
   23.3884    8.4234   32.8744 H   0  0  0  0  0  0  0  0  0  0  0  0
   32.8521   11.8050   28.5426 H   0  0  0  0  0  0  0  0  0  0  0  0
   32.0480   12.7463   27.2268 H   0  0  0  0  0  0  0  0  0  0  0  0
   25.4101   16.7790   24.8067 H   0  0  0  0  0  0  0  0  0  0  0  0
   25.1524   -1.6622   32.7562 H   0  0  0  0  0  0  0  0  0  0  0  0
   22.7796   -1.5976   32.0682 H   0  0  0  0  0  0  0  0  0  0  0  0
   26.2134   19.0626   25.3064 H   0  0  0  0  0  0  0  0  0  0  0  0
  2  1  1  0
  3  5  1  0
  4  5  1  0
  5 19  2  0
  6  1  2  0
  7  6  1  0
  8  2  2  0
  9  4  1  0
 10  3  1  0
 11 40  1  0
 12 41  1  0
 13  8  1  0
 14  9  2  0
 15  2  1  0
 16 10  2  0
 17 11  1  0
 18 12  1  0
 19 25  1  0
 20  6  1  0
 21 11  2  0
 22 11  2  0
 23 12  2  0
 24 12  2  0
 25 29  2  0
 26 20  2  0
 27 26  1  0
 28 27  2  0
 29 28  1  0
 30  1  1  0
 31 14  1  0
 32 34  1  0
 33 16  1  0
 34 15  2  0
 35  3  1  0
 36  4  1  0
 37  4  1  0
 38  7  1  0
 39  7  1  0
 40 48  1  0
 41 49  1  0
 42 14  1  0
 43 13  2  0
 44 32  2  0
 45 31  1  0
 46 30  1  0
 47 35  1  0
 48 47  1  0
 49 46  1  0
 50 43  1  0
 51 42  2  0
 52 51  1  0
 53 44  1  0
  7  8  1  0
 13 32  1  0
 53 50  2  0
 10  9  1  0
 31 33  2  0
 52 45  2  0
 15 54  1  0
 16 55  1  0
 19 56  1  0
 20 57  1  0
 25 58  1  0
 26 59  1  0
 27 60  1  0
 28 61  1  0
 29 62  1  0
 30 63  1  0
 30 64  1  0
 33 65  1  0
 34 66  1  0
 35 67  1  0
 35 68  1  0
 36 69  1  0
 36 70  1  0
 36 71  1  0
 37 72  1  0
 37 73  1  0
 37 74  1  0
 38 75  1  0
 38 76  1  0
 38 77  1  0
 39 78  1  0
 39 79  1  0
 39 80  1  0
 40 81  1  0
 40 82  1  0
 41 83  1  0
 41 84  1  0
 42 85  1  0
 43 86  1  0
 44 87  1  0
 45 88  1  0
 46 89  1  0
 46 90  1  0
 47 91  1  0
 47 92  1  0
 48 93  1  0
 48 94  1  0
 49 95  1  0
 49 96  1  0
 50 97  1  0
 51 98  1  0
 52 99  1  0
 53100  1  0
M  CHG  3   1   1  17  -1  18  -1
M  END
> <Uni-Dock RESULT> 
ENERGY=   -3.741  LOWER_BOUND=    3.677  UPPER_BOUND=   12.407
INTER + INTRA:          -3.741
INTER:                  -3.741
INTRA:                   0.000
UNBOUND:                 0.000

$$$$
