
     RDKit          3D

100105  0  0  0  0  0  0  0  0999 V2000
   30.7561   14.6180   24.4510 N   0  0  0  0  0  0  0  0  0  0  0  0
   30.0147   15.8090   24.2179 C   0  0  0  0  0  0  0  0  0  0  0  0
   28.3760    5.4643   30.7026 N   0  0  0  0  0  0  0  0  0  0  0  0
   29.9738    3.7140   30.0561 C   0  0  0  0  0  0  0  0  0  0  0  0
   29.5636    5.1772   29.9422 C   0  0  0  0  0  0  0  0  0  0  0  0
   30.0729   13.8614   25.2732 C   0  0  0  0  0  0  0  0  0  0  0  0
   28.7407   14.5075   25.6819 C   0  0  0  0  0  0  0  0  0  0  0  0
   28.8304   15.8101   24.9156 C   0  0  0  0  0  0  0  0  0  0  0  0
   28.8363    3.1694   30.9032 C   0  0  0  0  0  0  0  0  0  0  0  0
   27.9587    4.1988   31.2101 C   0  0  0  0  0  0  0  0  0  0  0  0
   30.9070    6.0582   35.1911 S   0  0  0  0  0  0  0  0  0  0  0  0
   33.5769   17.0449   27.5621 S   0  0  0  0  0  0  0  0  0  0  0  0
   27.9515   16.9176   24.8450 C   0  0  0  0  0  0  0  0  0  0  0  0
   28.5917    1.8562   31.3845 C   0  0  0  0  0  0  0  0  0  0  0  0
   30.3939   16.8845   23.4094 C   0  0  0  0  0  0  0  0  0  0  0  0
   26.8082    3.9778   31.9721 C   0  0  0  0  0  0  0  0  0  0  0  0
   31.4536    4.6702   34.4162 O   0  0  0  0  0  0  0  0  0  0  0  0
   32.8357   17.9909   26.3862 O   0  0  0  0  0  0  0  0  0  0  0  0
   30.1867    6.0442   29.1185 C   0  0  0  0  0  0  0  0  0  0  0  0
   30.6102   12.5777   25.8211 C   0  0  0  0  0  0  0  0  0  0  0  0
   29.5301    5.8143   35.7436 O   0  0  0  0  0  0  0  0  0  0  0  0
   31.8381    6.3873   36.3239 O   0  0  0  0  0  0  0  0  0  0  0  0
   34.6163   17.8676   28.2711 O   0  0  0  0  0  0  0  0  0  0  0  0
   32.5446   16.5912   28.5567 O   0  0  0  0  0  0  0  0  0  0  0  0
   29.5833    7.2923   28.6246 C   0  0  0  0  0  0  0  0  0  0  0  0
   29.8644   11.6454   26.4230 C   0  0  0  0  0  0  0  0  0  0  0  0
   30.4757   10.4140   26.9534 C   0  0  0  0  0  0  0  0  0  0  0  0
   29.7285    9.4724   27.5334 C   0  0  0  0  0  0  0  0  0  0  0  0
   30.3358    8.2415   28.0654 C   0  0  0  0  0  0  0  0  0  0  0  0
   32.0922   14.3551   23.8888 C   0  0  0  0  0  0  0  0  0  0  0  0
   27.4169    1.6304   32.1600 C   0  0  0  0  0  0  0  0  0  0  0  0
   28.3353   18.0264   24.0375 C   0  0  0  0  0  0  0  0  0  0  0  0
   26.5376    2.6915   32.4401 C   0  0  0  0  0  0  0  0  0  0  0  0
   29.5497   17.9958   23.3249 C   0  0  0  0  0  0  0  0  0  0  0  0
   28.0750    6.7264   31.4059 C   0  0  0  0  0  0  0  0  0  0  0  0
   29.9881    3.0629   28.6552 C   0  0  0  0  0  0  0  0  0  0  0  0
   31.3350    3.5991   30.7700 C   0  0  0  0  0  0  0  0  0  0  0  0
   27.5283   13.6735   25.1978 C   0  0  0  0  0  0  0  0  0  0  0  0
   28.7319   14.7706   27.2025 C   0  0  0  0  0  0  0  0  0  0  0  0
   30.8753    7.4344   34.0468 C   0  0  0  0  0  0  0  0  0  0  0  0
   34.3664   15.6157   26.8269 C   0  0  0  0  0  0  0  0  0  0  0  0
   29.4553    0.7703   31.1389 C   0  0  0  0  0  0  0  0  0  0  0  0
   26.7206   16.9662   25.5274 C   0  0  0  0  0  0  0  0  0  0  0  0
   27.4976   19.1486   23.9484 C   0  0  0  0  0  0  0  0  0  0  0  0
   27.1350    0.3457   32.6499 C   0  0  0  0  0  0  0  0  0  0  0  0
   33.1761   15.1640   24.6183 C   0  0  0  0  0  0  0  0  0  0  0  0
   28.7438    6.7960   32.7884 C   0  0  0  0  0  0  0  0  0  0  0  0
   30.2544    7.0677   32.6918 C   0  0  0  0  0  0  0  0  0  0  0  0
   33.3663   14.7229   26.0774 C   0  0  0  0  0  0  0  0  0  0  0  0
   25.8982   18.0910   25.4236 C   0  0  0  0  0  0  0  0  0  0  0  0
   29.1585   -0.5011   31.6357 C   0  0  0  0  0  0  0  0  0  0  0  0
   28.0033   -0.7131   32.3863 C   0  0  0  0  0  0  0  0  0  0  0  0
   26.2861   19.1787   24.6408 C   0  0  0  0  0  0  0  0  0  0  0  0
   31.3217   16.8753   22.8550 H   0  0  0  0  0  0  0  0  0  0  0  0
   26.1260    4.7835   32.2045 H   0  0  0  0  0  0  0  0  0  0  0  0
   31.1287    5.7490   28.6715 H   0  0  0  0  0  0  0  0  0  0  0  0
   31.6693   12.3834   25.7402 H   0  0  0  0  0  0  0  0  0  0  0  0
   28.5063    7.4100   28.6505 H   0  0  0  0  0  0  0  0  0  0  0  0
   28.8011   11.7702   26.5319 H   0  0  0  0  0  0  0  0  0  0  0  0
   31.5479   10.2731   26.8690 H   0  0  0  0  0  0  0  0  0  0  0  0
   28.6561    9.6117   27.6159 H   0  0  0  0  0  0  0  0  0  0  0  0
   31.4113    8.1110   28.0060 H   0  0  0  0  0  0  0  0  0  0  0  0
   32.0950   14.6488   22.8173 H   0  0  0  0  0  0  0  0  0  0  0  0
   32.3418   13.2749   23.8873 H   0  0  0  0  0  0  0  0  0  0  0  0
   25.6424    2.5255   33.0277 H   0  0  0  0  0  0  0  0  0  0  0  0
   29.8442   18.8322   22.7029 H   0  0  0  0  0  0  0  0  0  0  0  0
   26.9761    6.8124   31.5356 H   0  0  0  0  0  0  0  0  0  0  0  0
   28.3710    7.6153   30.8245 H   0  0  0  0  0  0  0  0  0  0  0  0
   30.1792    1.9752   28.6997 H   0  0  0  0  0  0  0  0  0  0  0  0
   30.7860    3.5061   28.0227 H   0  0  0  0  0  0  0  0  0  0  0  0
   29.0113    3.2170   28.1465 H   0  0  0  0  0  0  0  0  0  0  0  0
   32.0922    4.2473   30.2807 H   0  0  0  0  0  0  0  0  0  0  0  0
   31.2448    3.9061   31.8322 H   0  0  0  0  0  0  0  0  0  0  0  0
   31.7317    2.5669   30.7426 H   0  0  0  0  0  0  0  0  0  0  0  0
   27.0834   13.0849   26.0274 H   0  0  0  0  0  0  0  0  0  0  0  0
   27.8235   12.9760   24.3832 H   0  0  0  0  0  0  0  0  0  0  0  0
   26.7164   14.3099   24.7903 H   0  0  0  0  0  0  0  0  0  0  0  0
   29.5778   15.4361   27.4850 H   0  0  0  0  0  0  0  0  0  0  0  0
   27.7895   15.2459   27.5353 H   0  0  0  0  0  0  0  0  0  0  0  0
   28.8359   13.8242   27.7713 H   0  0  0  0  0  0  0  0  0  0  0  0
   31.9226    7.7636   33.8778 H   0  0  0  0  0  0  0  0  0  0  0  0
   30.3238    8.2822   34.5071 H   0  0  0  0  0  0  0  0  0  0  0  0
   35.1856   15.9479   26.1536 H   0  0  0  0  0  0  0  0  0  0  0  0
   34.8255   15.0273   27.6496 H   0  0  0  0  0  0  0  0  0  0  0  0
   30.3632    0.8759   30.5748 H   0  0  0  0  0  0  0  0  0  0  0  0
   26.3698   16.1429   26.1284 H   0  0  0  0  0  0  0  0  0  0  0  0
   27.7787   20.0010   23.3415 H   0  0  0  0  0  0  0  0  0  0  0  0
   26.2442    0.1611   33.2391 H   0  0  0  0  0  0  0  0  0  0  0  0
   34.1372   15.0322   24.0747 H   0  0  0  0  0  0  0  0  0  0  0  0
   32.9189   16.2404   24.5754 H   0  0  0  0  0  0  0  0  0  0  0  0
   28.5592    5.8519   33.3426 H   0  0  0  0  0  0  0  0  0  0  0  0
   28.2634    7.6219   33.3594 H   0  0  0  0  0  0  0  0  0  0  0  0
   30.4278    7.9213   31.9999 H   0  0  0  0  0  0  0  0  0  0  0  0
   30.7770    6.1860   32.2694 H   0  0  0  0  0  0  0  0  0  0  0  0
   32.3948   14.7208   26.6156 H   0  0  0  0  0  0  0  0  0  0  0  0
   33.7552   13.6819   26.0786 H   0  0  0  0  0  0  0  0  0  0  0  0
   24.9542   18.1186   25.9522 H   0  0  0  0  0  0  0  0  0  0  0  0
   29.8297   -1.3269   31.4375 H   0  0  0  0  0  0  0  0  0  0  0  0
   27.7810   -1.7013   32.7664 H   0  0  0  0  0  0  0  0  0  0  0  0
   25.6428   20.0457   24.5657 H   0  0  0  0  0  0  0  0  0  0  0  0
  2  1  1  0
  3  5  1  0
  4  5  1  0
  5 19  2  0
  6  1  2  0
  7  6  1  0
  8  2  2  0
  9  4  1  0
 10  3  1  0
 11 40  1  0
 12 41  1  0
 13  8  1  0
 14  9  2  0
 15  2  1  0
 16 10  2  0
 17 11  1  0
 18 12  1  0
 19 25  1  0
 20  6  1  0
 21 11  2  0
 22 11  2  0
 23 12  2  0
 24 12  2  0
 25 29  2  0
 26 20  2  0
 27 26  1  0
 28 27  2  0
 29 28  1  0
 30  1  1  0
 31 14  1  0
 32 34  1  0
 33 16  1  0
 34 15  2  0
 35  3  1  0
 36  4  1  0
 37  4  1  0
 38  7  1  0
 39  7  1  0
 40 48  1  0
 41 49  1  0
 42 14  1  0
 43 13  2  0
 44 32  2  0
 45 31  1  0
 46 30  1  0
 47 35  1  0
 48 47  1  0
 49 46  1  0
 50 43  1  0
 51 42  2  0
 52 51  1  0
 53 44  1  0
  7  8  1  0
 13 32  1  0
 53 50  2  0
 10  9  1  0
 31 33  2  0
 52 45  2  0
 15 54  1  0
 16 55  1  0
 19 56  1  0
 20 57  1  0
 25 58  1  0
 26 59  1  0
 27 60  1  0
 28 61  1  0
 29 62  1  0
 30 63  1  0
 30 64  1  0
 33 65  1  0
 34 66  1  0
 35 67  1  0
 35 68  1  0
 36 69  1  0
 36 70  1  0
 36 71  1  0
 37 72  1  0
 37 73  1  0
 37 74  1  0
 38 75  1  0
 38 76  1  0
 38 77  1  0
 39 78  1  0
 39 79  1  0
 39 80  1  0
 40 81  1  0
 40 82  1  0
 41 83  1  0
 41 84  1  0
 42 85  1  0
 43 86  1  0
 44 87  1  0
 45 88  1  0
 46 89  1  0
 46 90  1  0
 47 91  1  0
 47 92  1  0
 48 93  1  0
 48 94  1  0
 49 95  1  0
 49 96  1  0
 50 97  1  0
 51 98  1  0
 52 99  1  0
 53100  1  0
M  CHG  3   1   1  17  -1  18  -1
M  END
> <Uni-Dock RESULT> 
ENERGY=   -4.314  LOWER_BOUND=    0.000  UPPER_BOUND=    0.000
INTER + INTRA:          -4.314
INTER:                  -4.314
INTRA:                   0.000
UNBOUND:                 0.000

$$$$

     RDKit          3D

100105  0  0  0  0  0  0  0  0999 V2000
   21.5198    7.2281   31.6460 N   0  0  0  0  0  0  0  0  0  0  0  0
   21.5684    6.3106   32.7315 C   0  0  0  0  0  0  0  0  0  0  0  0
   29.8011   11.9977   25.5460 N   0  0  0  0  0  0  0  0  0  0  0  0
   28.7531   12.9880   23.5572 C   0  0  0  0  0  0  0  0  0  0  0  0
   28.5502   12.3201   24.9118 C   0  0  0  0  0  0  0  0  0  0  0  0
   22.7480    7.5110   31.2900 C   0  0  0  0  0  0  0  0  0  0  0  0
   23.7840    6.7659   32.1448 C   0  0  0  0  0  0  0  0  0  0  0  0
   22.8637    6.0068   33.0769 C   0  0  0  0  0  0  0  0  0  0  0  0
   30.2673   12.9375   23.4441 C   0  0  0  0  0  0  0  0  0  0  0  0
   30.7933   12.3450   24.5827 C   0  0  0  0  0  0  0  0  0  0  0  0
   30.5010   16.7539   27.4939 S   0  0  0  0  0  0  0  0  0  0  0  0
   20.6223   10.8144   34.7857 S   0  0  0  0  0  0  0  0  0  0  0  0
   23.1373    5.1295   34.1537 C   0  0  0  0  0  0  0  0  0  0  0  0
   31.1309   13.3928   22.4131 C   0  0  0  0  0  0  0  0  0  0  0  0
   20.4772    5.7648   33.4138 C   0  0  0  0  0  0  0  0  0  0  0  0
   32.1690   12.1568   24.7416 C   0  0  0  0  0  0  0  0  0  0  0  0
   30.0396   16.8684   25.8815 O   0  0  0  0  0  0  0  0  0  0  0  0
   20.1688    9.2817   35.3071 O   0  0  0  0  0  0  0  0  0  0  0  0
   27.3324   11.9721   25.3748 C   0  0  0  0  0  0  0  0  0  0  0  0
   23.0688    8.5337   30.2469 C   0  0  0  0  0  0  0  0  0  0  0  0
   31.9222   16.2696   27.5752 O   0  0  0  0  0  0  0  0  0  0  0  0
   30.4097   18.1129   28.1287 O   0  0  0  0  0  0  0  0  0  0  0  0
   20.0461   11.8415   35.7201 O   0  0  0  0  0  0  0  0  0  0  0  0
   22.1220   10.9199   34.8013 O   0  0  0  0  0  0  0  0  0  0  0  0
   27.1037   10.9507   26.4094 C   0  0  0  0  0  0  0  0  0  0  0  0
   24.2609    8.6558   29.6540 C   0  0  0  0  0  0  0  0  0  0  0  0
   24.5012    9.7048   28.6474 C   0  0  0  0  0  0  0  0  0  0  0  0
   25.6837    9.8125   28.0380 C   0  0  0  0  0  0  0  0  0  0  0  0
   25.9276   10.8598   27.0327 C   0  0  0  0  0  0  0  0  0  0  0  0
   20.2735    7.7857   31.0929 C   0  0  0  0  0  0  0  0  0  0  0  0
   32.5340   13.1987   22.5744 C   0  0  0  0  0  0  0  0  0  0  0  0
   22.0334    4.5805   34.8670 C   0  0  0  0  0  0  0  0  0  0  0  0
   33.0355   12.5793   23.7330 C   0  0  0  0  0  0  0  0  0  0  0  0
   20.7157    4.9003   34.4863 C   0  0  0  0  0  0  0  0  0  0  0  0
   30.0758   12.0247   26.9958 C   0  0  0  0  0  0  0  0  0  0  0  0
   28.0821   12.1442   22.4507 C   0  0  0  0  0  0  0  0  0  0  0  0
   28.2223   14.4346   23.5946 C   0  0  0  0  0  0  0  0  0  0  0  0
   24.6277    5.7840   31.2940 C   0  0  0  0  0  0  0  0  0  0  0  0
   24.6393    7.7807   32.9324 C   0  0  0  0  0  0  0  0  0  0  0  0
   29.4177   15.6297   28.3696 C   0  0  0  0  0  0  0  0  0  0  0  0
   20.0187   11.1295   33.1295 C   0  0  0  0  0  0  0  0  0  0  0  0
   30.6693   14.0314   21.2449 C   0  0  0  0  0  0  0  0  0  0  0  0
   24.4434    4.7734   34.5418 C   0  0  0  0  0  0  0  0  0  0  0  0
   22.2611    3.7147   35.9475 C   0  0  0  0  0  0  0  0  0  0  0  0
   33.4217   13.6289   21.5759 C   0  0  0  0  0  0  0  0  0  0  0  0
   19.6813    8.8601   32.0182 C   0  0  0  0  0  0  0  0  0  0  0  0
   30.4066   13.4391   27.4993 C   0  0  0  0  0  0  0  0  0  0  0  0
   29.1569   14.3301   27.5956 C   0  0  0  0  0  0  0  0  0  0  0  0
   20.5621   10.1151   32.1122 C   0  0  0  0  0  0  0  0  0  0  0  0
   24.6500    3.9070   35.6182 C   0  0  0  0  0  0  0  0  0  0  0  0
   31.5683   14.4535   20.2626 C   0  0  0  0  0  0  0  0  0  0  0  0
   32.9377   14.2521   20.4262 C   0  0  0  0  0  0  0  0  0  0  0  0
   23.5645    3.3828   36.3203 C   0  0  0  0  0  0  0  0  0  0  0  0
   19.4602    5.9991   33.1326 H   0  0  0  0  0  0  0  0  0  0  0  0
   32.5724   11.6906   25.6296 H   0  0  0  0  0  0  0  0  0  0  0  0
   26.4555   12.3528   24.8645 H   0  0  0  0  0  0  0  0  0  0  0  0
   22.2990    9.2309   29.9516 H   0  0  0  0  0  0  0  0  0  0  0  0
   27.8759   10.2188   26.6153 H   0  0  0  0  0  0  0  0  0  0  0  0
   25.0715    7.9904   29.8950 H   0  0  0  0  0  0  0  0  0  0  0  0
   23.7037   10.3970   28.3994 H   0  0  0  0  0  0  0  0  0  0  0  0
   26.4806    9.1191   28.2838 H   0  0  0  0  0  0  0  0  0  0  0  0
   25.1400   11.5697   26.8032 H   0  0  0  0  0  0  0  0  0  0  0  0
   19.5308    6.9665   30.9841 H   0  0  0  0  0  0  0  0  0  0  0  0
   20.4102    8.1824   30.0667 H   0  0  0  0  0  0  0  0  0  0  0  0
   34.1009   12.4278   23.8602 H   0  0  0  0  0  0  0  0  0  0  0  0
   19.8714    4.4804   35.0193 H   0  0  0  0  0  0  0  0  0  0  0  0
   30.9369   11.3581   27.2110 H   0  0  0  0  0  0  0  0  0  0  0  0
   29.2397   11.6233   27.5921 H   0  0  0  0  0  0  0  0  0  0  0  0
   28.2922   12.5356   21.4387 H   0  0  0  0  0  0  0  0  0  0  0  0
   26.9784   12.1395   22.5733 H   0  0  0  0  0  0  0  0  0  0  0  0
   28.4439   11.0934   22.4918 H   0  0  0  0  0  0  0  0  0  0  0  0
   27.1749   14.4603   23.9624 H   0  0  0  0  0  0  0  0  0  0  0  0
   28.8448   15.0607   24.2663 H   0  0  0  0  0  0  0  0  0  0  0  0
   28.2209   14.9017   22.5920 H   0  0  0  0  0  0  0  0  0  0  0  0
   25.6354    6.1969   31.0778 H   0  0  0  0  0  0  0  0  0  0  0  0
   24.1216    5.5543   30.3306 H   0  0  0  0  0  0  0  0  0  0  0  0
   24.7867    4.8134   31.8068 H   0  0  0  0  0  0  0  0  0  0  0  0
   23.9921    8.4089   33.5841 H   0  0  0  0  0  0  0  0  0  0  0  0
   25.3935    7.2807   33.5696 H   0  0  0  0  0  0  0  0  0  0  0  0
   25.1910    8.4546   32.2458 H   0  0  0  0  0  0  0  0  0  0  0  0
   28.4472   16.1454   28.5312 H   0  0  0  0  0  0  0  0  0  0  0  0
   29.8515   15.4041   29.3675 H   0  0  0  0  0  0  0  0  0  0  0  0
   18.9076   11.1338   33.1326 H   0  0  0  0  0  0  0  0  0  0  0  0
   20.3578   12.1462   32.8379 H   0  0  0  0  0  0  0  0  0  0  0  0
   29.6269   14.2209   21.0688 H   0  0  0  0  0  0  0  0  0  0  0  0
   25.3123    5.1378   34.0179 H   0  0  0  0  0  0  0  0  0  0  0  0
   21.4311    3.2931   36.5020 H   0  0  0  0  0  0  0  0  0  0  0  0
   34.4904   13.4854   21.6861 H   0  0  0  0  0  0  0  0  0  0  0  0
   18.6828    9.1505   31.6240 H   0  0  0  0  0  0  0  0  0  0  0  0
   19.5241    8.4277   33.0256 H   0  0  0  0  0  0  0  0  0  0  0  0
   31.1607   13.9079   26.8329 H   0  0  0  0  0  0  0  0  0  0  0  0
   30.8621   13.3442   28.5103 H   0  0  0  0  0  0  0  0  0  0  0  0
   28.3539   13.7756   28.1296 H   0  0  0  0  0  0  0  0  0  0  0  0
   28.7774   14.5705   26.5821 H   0  0  0  0  0  0  0  0  0  0  0  0
   21.6047    9.8424   32.3806 H   0  0  0  0  0  0  0  0  0  0  0  0
   20.5865   10.5992   31.1122 H   0  0  0  0  0  0  0  0  0  0  0  0
   25.6578    3.6397   35.9087 H   0  0  0  0  0  0  0  0  0  0  0  0
   31.1997   14.9408   19.3690 H   0  0  0  0  0  0  0  0  0  0  0  0
   33.6265   14.5816   19.6598 H   0  0  0  0  0  0  0  0  0  0  0  0
   23.7337    2.7120   37.1526 H   0  0  0  0  0  0  0  0  0  0  0  0
  2  1  1  0
  3  5  1  0
  4  5  1  0
  5 19  2  0
  6  1  2  0
  7  6  1  0
  8  2  2  0
  9  4  1  0
 10  3  1  0
 11 40  1  0
 12 41  1  0
 13  8  1  0
 14  9  2  0
 15  2  1  0
 16 10  2  0
 17 11  1  0
 18 12  1  0
 19 25  1  0
 20  6  1  0
 21 11  2  0
 22 11  2  0
 23 12  2  0
 24 12  2  0
 25 29  2  0
 26 20  2  0
 27 26  1  0
 28 27  2  0
 29 28  1  0
 30  1  1  0
 31 14  1  0
 32 34  1  0
 33 16  1  0
 34 15  2  0
 35  3  1  0
 36  4  1  0
 37  4  1  0
 38  7  1  0
 39  7  1  0
 40 48  1  0
 41 49  1  0
 42 14  1  0
 43 13  2  0
 44 32  2  0
 45 31  1  0
 46 30  1  0
 47 35  1  0
 48 47  1  0
 49 46  1  0
 50 43  1  0
 51 42  2  0
 52 51  1  0
 53 44  1  0
  7  8  1  0
 13 32  1  0
 53 50  2  0
 10  9  1  0
 31 33  2  0
 52 45  2  0
 15 54  1  0
 16 55  1  0
 19 56  1  0
 20 57  1  0
 25 58  1  0
 26 59  1  0
 27 60  1  0
 28 61  1  0
 29 62  1  0
 30 63  1  0
 30 64  1  0
 33 65  1  0
 34 66  1  0
 35 67  1  0
 35 68  1  0
 36 69  1  0
 36 70  1  0
 36 71  1  0
 37 72  1  0
 37 73  1  0
 37 74  1  0
 38 75  1  0
 38 76  1  0
 38 77  1  0
 39 78  1  0
 39 79  1  0
 39 80  1  0
 40 81  1  0
 40 82  1  0
 41 83  1  0
 41 84  1  0
 42 85  1  0
 43 86  1  0
 44 87  1  0
 45 88  1  0
 46 89  1  0
 46 90  1  0
 47 91  1  0
 47 92  1  0
 48 93  1  0
 48 94  1  0
 49 95  1  0
 49 96  1  0
 50 97  1  0
 51 98  1  0
 52 99  1  0
 53100  1  0
M  CHG  3   1   1  17  -1  18  -1
M  END
> <Uni-Dock RESULT> 
ENERGY=   -3.994  LOWER_BOUND=    5.087  UPPER_BOUND=   13.891
INTER + INTRA:          -3.994
INTER:                  -3.994
INTRA:                   0.000
UNBOUND:                 0.000

$$$$

     RDKit          3D

100105  0  0  0  0  0  0  0  0999 V2000
   22.5722   11.8772   29.3613 N   0  0  0  0  0  0  0  0  0  0  0  0
   22.1899   10.6026   29.8629 C   0  0  0  0  0  0  0  0  0  0  0  0
   32.4965   15.6459   25.3808 N   0  0  0  0  0  0  0  0  0  0  0  0
   32.0542   17.7767   24.2412 C   0  0  0  0  0  0  0  0  0  0  0  0
   31.5094   16.6613   25.1252 C   0  0  0  0  0  0  0  0  0  0  0  0
   23.8426   11.8321   29.0462 C   0  0  0  0  0  0  0  0  0  0  0  0
   24.4567   10.4503   29.3164 C   0  0  0  0  0  0  0  0  0  0  0  0
   23.2485    9.7259   29.8708 C   0  0  0  0  0  0  0  0  0  0  0  0
   33.4464   17.2449   23.9457 C   0  0  0  0  0  0  0  0  0  0  0  0
   33.6217   16.0314   24.5943 C   0  0  0  0  0  0  0  0  0  0  0  0
   34.7437   18.2405   29.2698 S   0  0  0  0  0  0  0  0  0  0  0  0
   22.8114   13.5384   33.9119 S   0  0  0  0  0  0  0  0  0  0  0  0
   23.0900    8.4063   30.3584 C   0  0  0  0  0  0  0  0  0  0  0  0
   34.4978   17.7956   23.1666 C   0  0  0  0  0  0  0  0  0  0  0  0
   20.9226   10.2308   30.3211 C   0  0  0  0  0  0  0  0  0  0  0  0
   34.8126   15.3081   24.4858 C   0  0  0  0  0  0  0  0  0  0  0  0
   34.4900   19.2793   27.9727 O   0  0  0  0  0  0  0  0  0  0  0  0
   21.7827   12.2279   33.6856 O   0  0  0  0  0  0  0  0  0  0  0  0
   30.2159   16.5990   25.5014 C   0  0  0  0  0  0  0  0  0  0  0  0
   24.6024   13.0366   28.5895 C   0  0  0  0  0  0  0  0  0  0  0  0
   35.8736   17.3025   28.9470 O   0  0  0  0  0  0  0  0  0  0  0  0
   35.1097   19.0491   30.4824 O   0  0  0  0  0  0  0  0  0  0  0  0
   22.5816   14.1122   35.2823 O   0  0  0  0  0  0  0  0  0  0  0  0
   24.2373   13.0739   33.8047 O   0  0  0  0  0  0  0  0  0  0  0  0
   29.5425   15.3664   25.9407 C   0  0  0  0  0  0  0  0  0  0  0  0
   25.7992   12.9911   27.9952 C   0  0  0  0  0  0  0  0  0  0  0  0
   26.4911   14.2281   27.5921 C   0  0  0  0  0  0  0  0  0  0  0  0
   27.6750   14.1825   26.9777 C   0  0  0  0  0  0  0  0  0  0  0  0
   28.3696   15.4162   26.5745 C   0  0  0  0  0  0  0  0  0  0  0  0
   21.6696   13.0392   29.2882 C   0  0  0  0  0  0  0  0  0  0  0  0
   35.7118   17.0566   23.0541 C   0  0  0  0  0  0  0  0  0  0  0  0
   21.8072    8.0215   30.8435 C   0  0  0  0  0  0  0  0  0  0  0  0
   35.8528   15.8209   23.7101 C   0  0  0  0  0  0  0  0  0  0  0  0
   20.7366    8.9362   30.8151 C   0  0  0  0  0  0  0  0  0  0  0  0
   32.6429   14.8660   26.6252 C   0  0  0  0  0  0  0  0  0  0  0  0
   31.2113   17.8822   22.9510 C   0  0  0  0  0  0  0  0  0  0  0  0
   32.0944   19.1029   25.0255 C   0  0  0  0  0  0  0  0  0  0  0  0
   24.9440    9.7756   28.0100 C   0  0  0  0  0  0  0  0  0  0  0  0
   25.5594   10.5692   30.3896 C   0  0  0  0  0  0  0  0  0  0  0  0
   33.2542   17.3111   29.6193 C   0  0  0  0  0  0  0  0  0  0  0  0
   22.5039   14.8096   32.6887 C   0  0  0  0  0  0  0  0  0  0  0  0
   34.4016   19.0370   22.5068 C   0  0  0  0  0  0  0  0  0  0  0  0
   24.1357    7.4634   30.3772 C   0  0  0  0  0  0  0  0  0  0  0  0
   21.6101    6.7259   31.3450 C   0  0  0  0  0  0  0  0  0  0  0  0
   36.7737   17.5629   22.2885 C   0  0  0  0  0  0  0  0  0  0  0  0
   21.4432   13.6609   30.6751 C   0  0  0  0  0  0  0  0  0  0  0  0
   33.4308   15.6301   27.7017 C   0  0  0  0  0  0  0  0  0  0  0  0
   32.5954   16.7444   28.3540 C   0  0  0  0  0  0  0  0  0  0  0  0
   22.7147   14.2978   31.2559 C   0  0  0  0  0  0  0  0  0  0  0  0
   23.9193    6.1769   30.8773 C   0  0  0  0  0  0  0  0  0  0  0  0
   35.4696   19.5249   21.7501 C   0  0  0  0  0  0  0  0  0  0  0  0
   36.6495   18.7911   21.6400 C   0  0  0  0  0  0  0  0  0  0  0  0
   22.6636    5.8106   31.3624 C   0  0  0  0  0  0  0  0  0  0  0  0
   20.0907   10.9206   30.3042 H   0  0  0  0  0  0  0  0  0  0  0  0
   34.9415   14.3609   24.9905 H   0  0  0  0  0  0  0  0  0  0  0  0
   29.5863   17.4660   25.3389 H   0  0  0  0  0  0  0  0  0  0  0  0
   24.1714   14.0131   28.7532 H   0  0  0  0  0  0  0  0  0  0  0  0
   29.9701   14.4047   25.6823 H   0  0  0  0  0  0  0  0  0  0  0  0
   26.2840   12.0517   27.7946 H   0  0  0  0  0  0  0  0  0  0  0  0
   26.0289   15.1877   27.7979 H   0  0  0  0  0  0  0  0  0  0  0  0
   28.1364   13.2233   26.7696 H   0  0  0  0  0  0  0  0  0  0  0  0
   27.9216   16.3774   26.8037 H   0  0  0  0  0  0  0  0  0  0  0  0
   20.6883   12.7069   28.8869 H   0  0  0  0  0  0  0  0  0  0  0  0
   22.0262   13.8031   28.5682 H   0  0  0  0  0  0  0  0  0  0  0  0
   36.7727   15.2541   23.6269 H   0  0  0  0  0  0  0  0  0  0  0  0
   19.7566    8.6479   31.1752 H   0  0  0  0  0  0  0  0  0  0  0  0
   33.1761   13.9199   26.3959 H   0  0  0  0  0  0  0  0  0  0  0  0
   31.6721   14.5589   27.0484 H   0  0  0  0  0  0  0  0  0  0  0  0
   31.6327   18.6086   22.2324 H   0  0  0  0  0  0  0  0  0  0  0  0
   30.1780   18.2172   23.1815 H   0  0  0  0  0  0  0  0  0  0  0  0
   31.1545   16.8942   22.4435 H   0  0  0  0  0  0  0  0  0  0  0  0
   31.1045   19.3231   25.4777 H   0  0  0  0  0  0  0  0  0  0  0  0
   32.8474   19.0520   25.8386 H   0  0  0  0  0  0  0  0  0  0  0  0
   32.3473   19.9614   24.3755 H   0  0  0  0  0  0  0  0  0  0  0  0
   26.0469    9.8459   27.9038 H   0  0  0  0  0  0  0  0  0  0  0  0
   24.4690   10.2418   27.1188 H   0  0  0  0  0  0  0  0  0  0  0  0
   24.6908    8.6963   27.9748 H   0  0  0  0  0  0  0  0  0  0  0  0
   25.1394   10.9876   31.3313 H   0  0  0  0  0  0  0  0  0  0  0  0
   26.0208    9.5899   30.6196 H   0  0  0  0  0  0  0  0  0  0  0  0
   26.3749   11.2399   30.0505 H   0  0  0  0  0  0  0  0  0  0  0  0
   32.5332   17.9940   30.1171 H   0  0  0  0  0  0  0  0  0  0  0  0
   33.4912   16.4914   30.3311 H   0  0  0  0  0  0  0  0  0  0  0  0
   21.4766   15.2123   32.8203 H   0  0  0  0  0  0  0  0  0  0  0  0
   23.2172   15.6388   32.8817 H   0  0  0  0  0  0  0  0  0  0  0  0
   33.5210   19.6494   22.5629 H   0  0  0  0  0  0  0  0  0  0  0  0
   25.1173    7.6941   29.9957 H   0  0  0  0  0  0  0  0  0  0  0  0
   20.6410    6.4208   31.7213 H   0  0  0  0  0  0  0  0  0  0  0  0
   37.7009   17.0097   22.1939 H   0  0  0  0  0  0  0  0  0  0  0  0
   20.6584   14.4435   30.5845 H   0  0  0  0  0  0  0  0  0  0  0  0
   21.0560   12.8851   31.3640 H   0  0  0  0  0  0  0  0  0  0  0  0
   34.3563   16.0544   27.2591 H   0  0  0  0  0  0  0  0  0  0  0  0
   33.7352   14.9004   28.4851 H   0  0  0  0  0  0  0  0  0  0  0  0
   31.6038   16.3335   28.6459 H   0  0  0  0  0  0  0  0  0  0  0  0
   32.4155   17.5638   27.6293 H   0  0  0  0  0  0  0  0  0  0  0  0
   23.5572   13.5743   31.2404 H   0  0  0  0  0  0  0  0  0  0  0  0
   22.9976   15.1592   30.6134 H   0  0  0  0  0  0  0  0  0  0  0  0
   24.7297    5.4596   30.8875 H   0  0  0  0  0  0  0  0  0  0  0  0
   35.3812   20.4792   21.2466 H   0  0  0  0  0  0  0  0  0  0  0  0
   37.4712   19.1765   21.0512 H   0  0  0  0  0  0  0  0  0  0  0  0
   22.5047    4.8118   31.7475 H   0  0  0  0  0  0  0  0  0  0  0  0
  2  1  1  0
  3  5  1  0
  4  5  1  0
  5 19  2  0
  6  1  2  0
  7  6  1  0
  8  2  2  0
  9  4  1  0
 10  3  1  0
 11 40  1  0
 12 41  1  0
 13  8  1  0
 14  9  2  0
 15  2  1  0
 16 10  2  0
 17 11  1  0
 18 12  1  0
 19 25  1  0
 20  6  1  0
 21 11  2  0
 22 11  2  0
 23 12  2  0
 24 12  2  0
 25 29  2  0
 26 20  2  0
 27 26  1  0
 28 27  2  0
 29 28  1  0
 30  1  1  0
 31 14  1  0
 32 34  1  0
 33 16  1  0
 34 15  2  0
 35  3  1  0
 36  4  1  0
 37  4  1  0
 38  7  1  0
 39  7  1  0
 40 48  1  0
 41 49  1  0
 42 14  1  0
 43 13  2  0
 44 32  2  0
 45 31  1  0
 46 30  1  0
 47 35  1  0
 48 47  1  0
 49 46  1  0
 50 43  1  0
 51 42  2  0
 52 51  1  0
 53 44  1  0
  7  8  1  0
 13 32  1  0
 53 50  2  0
 10  9  1  0
 31 33  2  0
 52 45  2  0
 15 54  1  0
 16 55  1  0
 19 56  1  0
 20 57  1  0
 25 58  1  0
 26 59  1  0
 27 60  1  0
 28 61  1  0
 29 62  1  0
 30 63  1  0
 30 64  1  0
 33 65  1  0
 34 66  1  0
 35 67  1  0
 35 68  1  0
 36 69  1  0
 36 70  1  0
 36 71  1  0
 37 72  1  0
 37 73  1  0
 37 74  1  0
 38 75  1  0
 38 76  1  0
 38 77  1  0
 39 78  1  0
 39 79  1  0
 39 80  1  0
 40 81  1  0
 40 82  1  0
 41 83  1  0
 41 84  1  0
 42 85  1  0
 43 86  1  0
 44 87  1  0
 45 88  1  0
 46 89  1  0
 46 90  1  0
 47 91  1  0
 47 92  1  0
 48 93  1  0
 48 94  1  0
 49 95  1  0
 49 96  1  0
 50 97  1  0
 51 98  1  0
 52 99  1  0
 53100  1  0
M  CHG  3   1   1  17  -1  18  -1
M  END
> <Uni-Dock RESULT> 
ENERGY=   -3.671  LOWER_BOUND=    5.406  UPPER_BOUND=   13.711
INTER + INTRA:          -3.671
INTER:                  -3.671
INTRA:                   0.000
UNBOUND:                 0.000

$$$$

     RDKit          3D

100105  0  0  0  0  0  0  0  0999 V2000
   30.7151   13.0042   22.2177 N   0  0  0  0  0  0  0  0  0  0  0  0
   30.5873   13.6819   20.9739 C   0  0  0  0  0  0  0  0  0  0  0  0
   22.9107    9.7949   29.7894 N   0  0  0  0  0  0  0  0  0  0  0  0
   24.0019    8.2194   31.3262 C   0  0  0  0  0  0  0  0  0  0  0  0
   24.1673    9.2156   30.1850 C   0  0  0  0  0  0  0  0  0  0  0  0
   29.5227   12.8830   22.7455 C   0  0  0  0  0  0  0  0  0  0  0  0
   28.4310   13.4946   21.8547 C   0  0  0  0  0  0  0  0  0  0  0  0
   29.2778   14.0038   20.7077 C   0  0  0  0  0  0  0  0  0  0  0  0
   22.4913    8.2271   31.4878 C   0  0  0  0  0  0  0  0  0  0  0  0
   21.9364    9.1133   30.5763 C   0  0  0  0  0  0  0  0  0  0  0  0
   22.9319   13.3908   33.5277 S   0  0  0  0  0  0  0  0  0  0  0  0
   32.2089   17.1424   24.2594 S   0  0  0  0  0  0  0  0  0  0  0  0
   28.9323   14.7075   19.5289 C   0  0  0  0  0  0  0  0  0  0  0  0
   21.6561    7.5108   32.3852 C   0  0  0  0  0  0  0  0  0  0  0  0
   31.6219   14.0221   20.0976 C   0  0  0  0  0  0  0  0  0  0  0  0
   20.5553    9.3112   30.4946 C   0  0  0  0  0  0  0  0  0  0  0  0
   23.3400   11.8969   34.1815 O   0  0  0  0  0  0  0  0  0  0  0  0
   32.4735   17.0298   22.6029 O   0  0  0  0  0  0  0  0  0  0  0  0
   25.3450    9.4135   29.5585 C   0  0  0  0  0  0  0  0  0  0  0  0
   29.3003   12.3148   24.1110 C   0  0  0  0  0  0  0  0  0  0  0  0
   21.4631   13.4130   33.2070 O   0  0  0  0  0  0  0  0  0  0  0  0
   23.2296   14.4657   34.5349 O   0  0  0  0  0  0  0  0  0  0  0  0
   32.9541   18.3327   24.7961 O   0  0  0  0  0  0  0  0  0  0  0  0
   30.7386   17.3249   24.5154 O   0  0  0  0  0  0  0  0  0  0  0  0
   25.4759    9.9822   28.2075 C   0  0  0  0  0  0  0  0  0  0  0  0
   28.1127   11.9122   24.5746 C   0  0  0  0  0  0  0  0  0  0  0  0
   27.9752   11.3804   25.9420 C   0  0  0  0  0  0  0  0  0  0  0  0
   26.7944   10.9565   26.3973 C   0  0  0  0  0  0  0  0  0  0  0  0
   26.6531   10.4257   27.7631 C   0  0  0  0  0  0  0  0  0  0  0  0
   32.0019   12.5861   22.8004 C   0  0  0  0  0  0  0  0  0  0  0  0
   20.2471    7.7111   32.3003 C   0  0  0  0  0  0  0  0  0  0  0  0
   29.9803   15.0742   18.6366 C   0  0  0  0  0  0  0  0  0  0  0  0
   19.7137    8.6040   31.3540 C   0  0  0  0  0  0  0  0  0  0  0  0
   31.3127   14.7234   18.9283 C   0  0  0  0  0  0  0  0  0  0  0  0
   22.7000   11.1733   29.3059 C   0  0  0  0  0  0  0  0  0  0  0  0
   24.5093    6.8284   30.8856 C   0  0  0  0  0  0  0  0  0  0  0  0
   24.7227    8.7340   32.5877 C   0  0  0  0  0  0  0  0  0  0  0  0
   27.4303   12.4215   21.3580 C   0  0  0  0  0  0  0  0  0  0  0  0
   27.7514   14.6679   22.5916 C   0  0  0  0  0  0  0  0  0  0  0  0
   23.8890   13.7010   32.0471 C   0  0  0  0  0  0  0  0  0  0  0  0
   32.7828   15.6685   25.0989 C   0  0  0  0  0  0  0  0  0  0  0  0
   22.1521    6.6193   33.3572 C   0  0  0  0  0  0  0  0  0  0  0  0
   27.6068   15.0509   19.1998 C   0  0  0  0  0  0  0  0  0  0  0  0
   29.6819   15.7815   17.4621 C   0  0  0  0  0  0  0  0  0  0  0  0
   19.3859    7.0179   33.1652 C   0  0  0  0  0  0  0  0  0  0  0  0
   32.7689   13.7837   23.3824 C   0  0  0  0  0  0  0  0  0  0  0  0
   22.5819   12.1829   30.4592 C   0  0  0  0  0  0  0  0  0  0  0  0
   23.9425   12.4881   31.1078 C   0  0  0  0  0  0  0  0  0  0  0  0
   32.0685   14.4031   24.6011 C   0  0  0  0  0  0  0  0  0  0  0  0
   27.3290   15.7524   18.0238 C   0  0  0  0  0  0  0  0  0  0  0  0
   21.2794    5.9392   34.2099 C   0  0  0  0  0  0  0  0  0  0  0  0
   19.9029    6.1361   34.1137 C   0  0  0  0  0  0  0  0  0  0  0  0
   28.3617   16.1193   17.1606 C   0  0  0  0  0  0  0  0  0  0  0  0
   32.6491   13.7585   20.3065 H   0  0  0  0  0  0  0  0  0  0  0  0
   20.1288   10.0003   29.7793 H   0  0  0  0  0  0  0  0  0  0  0  0
   26.2440    9.0027   30.0029 H   0  0  0  0  0  0  0  0  0  0  0  0
   30.1442   12.2277   24.7790 H   0  0  0  0  0  0  0  0  0  0  0  0
   24.6215    9.9739   27.5410 H   0  0  0  0  0  0  0  0  0  0  0  0
   27.2305   11.9639   23.9606 H   0  0  0  0  0  0  0  0  0  0  0  0
   28.8477   11.3331   26.5848 H   0  0  0  0  0  0  0  0  0  0  0  0
   25.9223   11.0014   25.7542 H   0  0  0  0  0  0  0  0  0  0  0  0
   27.5189   10.4027   28.4165 H   0  0  0  0  0  0  0  0  0  0  0  0
   32.6232   12.1233   22.0041 H   0  0  0  0  0  0  0  0  0  0  0  0
   31.8787   11.7901   23.5623 H   0  0  0  0  0  0  0  0  0  0  0  0
   18.6436    8.7591   31.2839 H   0  0  0  0  0  0  0  0  0  0  0  0
   32.1137   14.9923   18.2506 H   0  0  0  0  0  0  0  0  0  0  0  0
   21.7667   11.2051   28.7059 H   0  0  0  0  0  0  0  0  0  0  0  0
   23.4979   11.5083   28.6226 H   0  0  0  0  0  0  0  0  0  0  0  0
   24.3134    6.0500   31.6454 H   0  0  0  0  0  0  0  0  0  0  0  0
   25.6064    6.8450   30.7146 H   0  0  0  0  0  0  0  0  0  0  0  0
   24.0120    6.5159   29.9412 H   0  0  0  0  0  0  0  0  0  0  0  0
   25.7779    8.9939   32.3599 H   0  0  0  0  0  0  0  0  0  0  0  0
   24.2168    9.6383   32.9837 H   0  0  0  0  0  0  0  0  0  0  0  0
   24.7467    7.9736   33.3906 H   0  0  0  0  0  0  0  0  0  0  0  0
   26.4792   12.4580   21.9296 H   0  0  0  0  0  0  0  0  0  0  0  0
   27.8624   11.4006   21.4486 H   0  0  0  0  0  0  0  0  0  0  0  0
   27.1633   12.5582   20.2902 H   0  0  0  0  0  0  0  0  0  0  0  0
   28.5022   15.4448   22.8577 H   0  0  0  0  0  0  0  0  0  0  0  0
   26.9630   15.1424   21.9767 H   0  0  0  0  0  0  0  0  0  0  0  0
   27.2680   14.3236   23.5285 H   0  0  0  0  0  0  0  0  0  0  0  0
   24.9255   13.9543   32.3560 H   0  0  0  0  0  0  0  0  0  0  0  0
   23.4690   14.5821   31.5160 H   0  0  0  0  0  0  0  0  0  0  0  0
   33.8838   15.5768   24.9797 H   0  0  0  0  0  0  0  0  0  0  0  0
   32.5716   15.7968   26.1818 H   0  0  0  0  0  0  0  0  0  0  0  0
   23.2027    6.4347   33.4829 H   0  0  0  0  0  0  0  0  0  0  0  0
   26.7744   14.7725   19.8256 H   0  0  0  0  0  0  0  0  0  0  0  0
   30.4694   16.0709   16.7763 H   0  0  0  0  0  0  0  0  0  0  0  0
   18.3130    7.1603   33.1093 H   0  0  0  0  0  0  0  0  0  0  0  0
   33.7808   13.4373   23.6869 H   0  0  0  0  0  0  0  0  0  0  0  0
   32.9068   14.5474   22.5923 H   0  0  0  0  0  0  0  0  0  0  0  0
   21.8714   11.8004   31.2217 H   0  0  0  0  0  0  0  0  0  0  0  0
   22.1583   13.1257   30.0462 H   0  0  0  0  0  0  0  0  0  0  0  0
   24.6846   12.7125   30.3102 H   0  0  0  0  0  0  0  0  0  0  0  0
   24.3101   11.6025   31.6643 H   0  0  0  0  0  0  0  0  0  0  0  0
   31.0103   14.6431   24.3644 H   0  0  0  0  0  0  0  0  0  0  0  0
   32.0693   13.6536   25.4215 H   0  0  0  0  0  0  0  0  0  0  0  0
   26.3069   16.0118   17.7800 H   0  0  0  0  0  0  0  0  0  0  0  0
   21.6740    5.2555   34.9506 H   0  0  0  0  0  0  0  0  0  0  0  0
   19.2344    5.6044   34.7777 H   0  0  0  0  0  0  0  0  0  0  0  0
   28.1374   16.6622   16.2516 H   0  0  0  0  0  0  0  0  0  0  0  0
  2  1  1  0
  3  5  1  0
  4  5  1  0
  5 19  2  0
  6  1  2  0
  7  6  1  0
  8  2  2  0
  9  4  1  0
 10  3  1  0
 11 40  1  0
 12 41  1  0
 13  8  1  0
 14  9  2  0
 15  2  1  0
 16 10  2  0
 17 11  1  0
 18 12  1  0
 19 25  1  0
 20  6  1  0
 21 11  2  0
 22 11  2  0
 23 12  2  0
 24 12  2  0
 25 29  2  0
 26 20  2  0
 27 26  1  0
 28 27  2  0
 29 28  1  0
 30  1  1  0
 31 14  1  0
 32 34  1  0
 33 16  1  0
 34 15  2  0
 35  3  1  0
 36  4  1  0
 37  4  1  0
 38  7  1  0
 39  7  1  0
 40 48  1  0
 41 49  1  0
 42 14  1  0
 43 13  2  0
 44 32  2  0
 45 31  1  0
 46 30  1  0
 47 35  1  0
 48 47  1  0
 49 46  1  0
 50 43  1  0
 51 42  2  0
 52 51  1  0
 53 44  1  0
  7  8  1  0
 13 32  1  0
 53 50  2  0
 10  9  1  0
 31 33  2  0
 52 45  2  0
 15 54  1  0
 16 55  1  0
 19 56  1  0
 20 57  1  0
 25 58  1  0
 26 59  1  0
 27 60  1  0
 28 61  1  0
 29 62  1  0
 30 63  1  0
 30 64  1  0
 33 65  1  0
 34 66  1  0
 35 67  1  0
 35 68  1  0
 36 69  1  0
 36 70  1  0
 36 71  1  0
 37 72  1  0
 37 73  1  0
 37 74  1  0
 38 75  1  0
 38 76  1  0
 38 77  1  0
 39 78  1  0
 39 79  1  0
 39 80  1  0
 40 81  1  0
 40 82  1  0
 41 83  1  0
 41 84  1  0
 42 85  1  0
 43 86  1  0
 44 87  1  0
 45 88  1  0
 46 89  1  0
 46 90  1  0
 47 91  1  0
 47 92  1  0
 48 93  1  0
 48 94  1  0
 49 95  1  0
 49 96  1  0
 50 97  1  0
 51 98  1  0
 52 99  1  0
 53100  1  0
M  CHG  3   1   1  17  -1  18  -1
M  END
> <Uni-Dock RESULT> 
ENERGY=   -3.563  LOWER_BOUND=    5.642  UPPER_BOUND=    7.012
INTER + INTRA:          -3.563
INTER:                  -3.563
INTRA:                   0.000
UNBOUND:                 0.000

$$$$

     RDKit          3D

100105  0  0  0  0  0  0  0  0999 V2000
   29.8478   14.6313   25.0256 N   0  0  0  0  0  0  0  0  0  0  0  0
   29.0836   15.0958   23.9198 C   0  0  0  0  0  0  0  0  0  0  0  0
   30.3745    4.4380   29.9609 N   0  0  0  0  0  0  0  0  0  0  0  0
   32.3554    4.4415   31.4136 C   0  0  0  0  0  0  0  0  0  0  0  0
   31.4174    5.2518   30.5272 C   0  0  0  0  0  0  0  0  0  0  0  0
   29.5422   13.3759   25.2396 C   0  0  0  0  0  0  0  0  0  0  0  0
   28.4962   12.8571   24.2415 C   0  0  0  0  0  0  0  0  0  0  0  0
   28.2669   14.1088   23.4215 C   0  0  0  0  0  0  0  0  0  0  0  0
   31.7826    3.0469   31.2261 C   0  0  0  0  0  0  0  0  0  0  0  0
   30.6874    3.1106   30.3773 C   0  0  0  0  0  0  0  0  0  0  0  0
   27.3441    4.6876   34.1633 S   0  0  0  0  0  0  0  0  0  0  0  0
   26.7567   16.8558   28.0292 S   0  0  0  0  0  0  0  0  0  0  0  0
   27.4003   14.3696   22.3329 C   0  0  0  0  0  0  0  0  0  0  0  0
   32.1888    1.8017   31.7741 C   0  0  0  0  0  0  0  0  0  0  0  0
   29.1016   16.3822   23.3731 C   0  0  0  0  0  0  0  0  0  0  0  0
   29.9711    1.9654   30.0185 C   0  0  0  0  0  0  0  0  0  0  0  0
   28.9241    4.3507   34.6281 O   0  0  0  0  0  0  0  0  0  0  0  0
   26.8402   17.5087   26.4820 O   0  0  0  0  0  0  0  0  0  0  0  0
   31.6396    6.5480   30.2284 C   0  0  0  0  0  0  0  0  0  0  0  0
   30.0805   12.6026   26.4011 C   0  0  0  0  0  0  0  0  0  0  0  0
   26.7385    3.4681   33.5254 O   0  0  0  0  0  0  0  0  0  0  0  0
   26.5416    5.0534   35.3801 O   0  0  0  0  0  0  0  0  0  0  0  0
   25.9845   17.7921   28.9164 O   0  0  0  0  0  0  0  0  0  0  0  0
   26.0452   15.5325   27.9712 O   0  0  0  0  0  0  0  0  0  0  0  0
   31.0669    7.2355   29.0600 C   0  0  0  0  0  0  0  0  0  0  0  0
   30.0312   11.2707   26.5066 C   0  0  0  0  0  0  0  0  0  0  0  0
   30.5686   10.5857   27.6955 C   0  0  0  0  0  0  0  0  0  0  0  0
   30.5410    9.2548   27.7909 C   0  0  0  0  0  0  0  0  0  0  0  0
   31.0759    8.5671   28.9775 C   0  0  0  0  0  0  0  0  0  0  0  0
   30.7676   15.4771   25.8057 C   0  0  0  0  0  0  0  0  0  0  0  0
   31.4594    0.6332   31.4064 C   0  0  0  0  0  0  0  0  0  0  0  0
   27.3978   15.6817   21.7785 C   0  0  0  0  0  0  0  0  0  0  0  0
   30.3636    0.7281   30.5302 C   0  0  0  0  0  0  0  0  0  0  0  0
   28.2518   16.6721   22.3015 C   0  0  0  0  0  0  0  0  0  0  0  0
   28.9888    4.8644   29.6847 C   0  0  0  0  0  0  0  0  0  0  0  0
   33.7984    4.5303   30.8693 C   0  0  0  0  0  0  0  0  0  0  0  0
   32.2494    4.9203   32.8749 C   0  0  0  0  0  0  0  0  0  0  0  0
   29.0656   11.7219   23.3545 C   0  0  0  0  0  0  0  0  0  0  0  0
   27.2095   12.4563   24.9936 C   0  0  0  0  0  0  0  0  0  0  0  0
   27.3159    6.0602   33.0146 C   0  0  0  0  0  0  0  0  0  0  0  0
   28.3953   16.6233   28.7130 C   0  0  0  0  0  0  0  0  0  0  0  0
   33.2707    1.6668   32.6667 C   0  0  0  0  0  0  0  0  0  0  0  0
   26.5531   13.3932   21.7744 C   0  0  0  0  0  0  0  0  0  0  0  0
   26.5463   15.9848   20.7053 C   0  0  0  0  0  0  0  0  0  0  0  0
   31.8319   -0.6182   31.9213 C   0  0  0  0  0  0  0  0  0  0  0  0
   30.0003   16.4232   26.7425 C   0  0  0  0  0  0  0  0  0  0  0  0
   28.0981    4.7949   30.9358 C   0  0  0  0  0  0  0  0  0  0  0  0
   28.3848    5.9419   31.9193 C   0  0  0  0  0  0  0  0  0  0  0  0
   29.2512   15.6777   27.8573 C   0  0  0  0  0  0  0  0  0  0  0  0
   25.7146   13.7130   20.7035 C   0  0  0  0  0  0  0  0  0  0  0  0
   33.6259    0.4129   33.1695 C   0  0  0  0  0  0  0  0  0  0  0  0
   32.9113   -0.7245   32.7977 C   0  0  0  0  0  0  0  0  0  0  0  0
   25.7082   15.0035   20.1736 C   0  0  0  0  0  0  0  0  0  0  0  0
   29.7524   17.1525   23.7621 H   0  0  0  0  0  0  0  0  0  0  0  0
   29.1209    2.0212   29.3533 H   0  0  0  0  0  0  0  0  0  0  0  0
   32.3942    7.0872   30.7888 H   0  0  0  0  0  0  0  0  0  0  0  0
   30.5323   13.1443   27.2187 H   0  0  0  0  0  0  0  0  0  0  0  0
   30.6990    6.6506   28.2252 H   0  0  0  0  0  0  0  0  0  0  0  0
   29.6013   10.6676   25.7260 H   0  0  0  0  0  0  0  0  0  0  0  0
   30.9929   11.1738   28.5022 H   0  0  0  0  0  0  0  0  0  0  0  0
   30.1190    8.6662   26.9836 H   0  0  0  0  0  0  0  0  0  0  0  0
   31.4759    9.1549   29.7970 H   0  0  0  0  0  0  0  0  0  0  0  0
   31.3731   16.0906   25.1046 H   0  0  0  0  0  0  0  0  0  0  0  0
   31.5095   14.8790   26.3723 H   0  0  0  0  0  0  0  0  0  0  0  0
   29.8065   -0.1567   30.2459 H   0  0  0  0  0  0  0  0  0  0  0  0
   28.2607   17.6698   21.8799 H   0  0  0  0  0  0  0  0  0  0  0  0
   28.5588    4.2046   28.9026 H   0  0  0  0  0  0  0  0  0  0  0  0
   28.9352    5.8840   29.2684 H   0  0  0  0  0  0  0  0  0  0  0  0
   34.4962    3.8737   31.4203 H   0  0  0  0  0  0  0  0  0  0  0  0
   34.1901    5.5656   30.9578 H   0  0  0  0  0  0  0  0  0  0  0  0
   33.8269    4.2352   29.7974 H   0  0  0  0  0  0  0  0  0  0  0  0
   32.3967    6.0189   32.9409 H   0  0  0  0  0  0  0  0  0  0  0  0
   31.2519    4.6748   33.2938 H   0  0  0  0  0  0  0  0  0  0  0  0
   33.0178    4.4551   33.5203 H   0  0  0  0  0  0  0  0  0  0  0  0
   28.7102   10.7258   23.6923 H   0  0  0  0  0  0  0  0  0  0  0  0
   30.1778   11.7268   23.3654 H   0  0  0  0  0  0  0  0  0  0  0  0
   28.7595   11.8241   22.2934 H   0  0  0  0  0  0  0  0  0  0  0  0
   26.8005   13.3275   25.5522 H   0  0  0  0  0  0  0  0  0  0  0  0
   26.4260   12.0854   24.3057 H   0  0  0  0  0  0  0  0  0  0  0  0
   27.4105   11.6455   25.7231 H   0  0  0  0  0  0  0  0  0  0  0  0
   27.5014    6.9922   33.5899 H   0  0  0  0  0  0  0  0  0  0  0  0
   26.3048    6.1383   32.5603 H   0  0  0  0  0  0  0  0  0  0  0  0
   28.8919   17.6100   28.8336 H   0  0  0  0  0  0  0  0  0  0  0  0
   28.2756   16.1814   29.7250 H   0  0  0  0  0  0  0  0  0  0  0  0
   33.8517    2.5086   32.9949 H   0  0  0  0  0  0  0  0  0  0  0  0
   26.5371   12.3782   22.1374 H   0  0  0  0  0  0  0  0  0  0  0  0
   26.5306   16.9797   20.2765 H   0  0  0  0  0  0  0  0  0  0  0  0
   31.2864   -1.5139   31.6478 H   0  0  0  0  0  0  0  0  0  0  0  0
   30.7286   17.1245   27.2056 H   0  0  0  0  0  0  0  0  0  0  0  0
   29.2917   17.0310   26.1468 H   0  0  0  0  0  0  0  0  0  0  0  0
   28.2347    3.8152   31.4398 H   0  0  0  0  0  0  0  0  0  0  0  0
   27.0375    4.8589   30.6044 H   0  0  0  0  0  0  0  0  0  0  0  0
   28.4034    6.9042   31.3618 H   0  0  0  0  0  0  0  0  0  0  0  0
   29.3818    5.8083   32.3853 H   0  0  0  0  0  0  0  0  0  0  0  0
   28.6082   14.8790   27.4305 H   0  0  0  0  0  0  0  0  0  0  0  0
   30.0020   15.1906   28.5160 H   0  0  0  0  0  0  0  0  0  0  0  0
   25.0670   12.9554   20.2815 H   0  0  0  0  0  0  0  0  0  0  0  0
   34.4609    0.3235   33.8528 H   0  0  0  0  0  0  0  0  0  0  0  0
   33.1941   -1.6917   33.1915 H   0  0  0  0  0  0  0  0  0  0  0  0
   25.0559   15.2425   19.3437 H   0  0  0  0  0  0  0  0  0  0  0  0
  2  1  1  0
  3  5  1  0
  4  5  1  0
  5 19  2  0
  6  1  2  0
  7  6  1  0
  8  2  2  0
  9  4  1  0
 10  3  1  0
 11 40  1  0
 12 41  1  0
 13  8  1  0
 14  9  2  0
 15  2  1  0
 16 10  2  0
 17 11  1  0
 18 12  1  0
 19 25  1  0
 20  6  1  0
 21 11  2  0
 22 11  2  0
 23 12  2  0
 24 12  2  0
 25 29  2  0
 26 20  2  0
 27 26  1  0
 28 27  2  0
 29 28  1  0
 30  1  1  0
 31 14  1  0
 32 34  1  0
 33 16  1  0
 34 15  2  0
 35  3  1  0
 36  4  1  0
 37  4  1  0
 38  7  1  0
 39  7  1  0
 40 48  1  0
 41 49  1  0
 42 14  1  0
 43 13  2  0
 44 32  2  0
 45 31  1  0
 46 30  1  0
 47 35  1  0
 48 47  1  0
 49 46  1  0
 50 43  1  0
 51 42  2  0
 52 51  1  0
 53 44  1  0
  7  8  1  0
 13 32  1  0
 53 50  2  0
 10  9  1  0
 31 33  2  0
 52 45  2  0
 15 54  1  0
 16 55  1  0
 19 56  1  0
 20 57  1  0
 25 58  1  0
 26 59  1  0
 27 60  1  0
 28 61  1  0
 29 62  1  0
 30 63  1  0
 30 64  1  0
 33 65  1  0
 34 66  1  0
 35 67  1  0
 35 68  1  0
 36 69  1  0
 36 70  1  0
 36 71  1  0
 37 72  1  0
 37 73  1  0
 37 74  1  0
 38 75  1  0
 38 76  1  0
 38 77  1  0
 39 78  1  0
 39 79  1  0
 39 80  1  0
 40 81  1  0
 40 82  1  0
 41 83  1  0
 41 84  1  0
 42 85  1  0
 43 86  1  0
 44 87  1  0
 45 88  1  0
 46 89  1  0
 46 90  1  0
 47 91  1  0
 47 92  1  0
 48 93  1  0
 48 94  1  0
 49 95  1  0
 49 96  1  0
 50 97  1  0
 51 98  1  0
 52 99  1  0
 53100  1  0
M  CHG  3   1   1  17  -1  18  -1
M  END
> <Uni-Dock RESULT> 
ENERGY=   -3.553  LOWER_BOUND=    2.989  UPPER_BOUND=    3.934
INTER + INTRA:          -3.553
INTER:                  -3.553
INTRA:                   0.000
UNBOUND:                 0.000

$$$$

     RDKit          3D

100105  0  0  0  0  0  0  0  0999 V2000
   23.1498   12.3272   29.1940 N   0  0  0  0  0  0  0  0  0  0  0  0
   22.8367   11.1392   29.9103 C   0  0  0  0  0  0  0  0  0  0  0  0
   31.8203   14.8200   22.3277 N   0  0  0  0  0  0  0  0  0  0  0  0
   31.2237   16.8812   21.1318 C   0  0  0  0  0  0  0  0  0  0  0  0
   30.8708   15.8979   22.2411 C   0  0  0  0  0  0  0  0  0  0  0  0
   24.2782   12.1389   28.5565 C   0  0  0  0  0  0  0  0  0  0  0  0
   24.8497   10.7333   28.7954 C   0  0  0  0  0  0  0  0  0  0  0  0
   23.7958   10.1720   29.7259 C   0  0  0  0  0  0  0  0  0  0  0  0
   32.4420   16.2004   20.5313 C   0  0  0  0  0  0  0  0  0  0  0  0
   32.7081   15.0336   21.2325 C   0  0  0  0  0  0  0  0  0  0  0  0
   35.2196   17.5077   25.1784 S   0  0  0  0  0  0  0  0  0  0  0  0
   24.7439   14.3292   33.3143 S   0  0  0  0  0  0  0  0  0  0  0  0
   23.6904    8.9175   30.3735 C   0  0  0  0  0  0  0  0  0  0  0  0
   33.2721   16.5852   19.4457 C   0  0  0  0  0  0  0  0  0  0  0  0
   21.7230   10.9254   30.7277 C   0  0  0  0  0  0  0  0  0  0  0  0
   33.7722   14.1966   20.8851 C   0  0  0  0  0  0  0  0  0  0  0  0
   34.6879   18.4549   23.8954 O   0  0  0  0  0  0  0  0  0  0  0  0
   23.6079   13.1052   33.5104 O   0  0  0  0  0  0  0  0  0  0  0  0
   29.7299   15.9868   22.9546 C   0  0  0  0  0  0  0  0  0  0  0  0
   24.9610   13.2262   27.7894 C   0  0  0  0  0  0  0  0  0  0  0  0
   36.1518   16.4458   24.6646 O   0  0  0  0  0  0  0  0  0  0  0  0
   35.9586   18.3764   26.1570 O   0  0  0  0  0  0  0  0  0  0  0  0
   24.9394   15.0329   34.6283 O   0  0  0  0  0  0  0  0  0  0  0  0
   26.0509   13.7274   32.8780 O   0  0  0  0  0  0  0  0  0  0  0  0
   29.1233   14.8622   23.6848 C   0  0  0  0  0  0  0  0  0  0  0  0
   25.9419   13.0212   26.9043 C   0  0  0  0  0  0  0  0  0  0  0  0
   26.5765   14.1514   26.2033 C   0  0  0  0  0  0  0  0  0  0  0  0
   27.5395   13.9458   25.3024 C   0  0  0  0  0  0  0  0  0  0  0  0
   28.1765   15.0725   24.6009 C   0  0  0  0  0  0  0  0  0  0  0  0
   22.3413   13.5577   29.2443 C   0  0  0  0  0  0  0  0  0  0  0  0
   34.3562   15.7303   19.0899 C   0  0  0  0  0  0  0  0  0  0  0  0
   22.5684    8.6944   31.2221 C   0  0  0  0  0  0  0  0  0  0  0  0
   34.5901   14.5452   19.8098 C   0  0  0  0  0  0  0  0  0  0  0  0
   21.5947    9.6987   31.3862 C   0  0  0  0  0  0  0  0  0  0  0  0
   32.2518   14.1353   23.5619 C   0  0  0  0  0  0  0  0  0  0  0  0
   30.0668   16.9574   20.1109 C   0  0  0  0  0  0  0  0  0  0  0  0
   31.5666   18.2583   21.7333 C   0  0  0  0  0  0  0  0  0  0  0  0
   24.9121    9.9108   27.4842 C   0  0  0  0  0  0  0  0  0  0  0  0
   26.2109   10.8378   29.5152 C   0  0  0  0  0  0  0  0  0  0  0  0
   33.8258   16.7522   26.0095 C   0  0  0  0  0  0  0  0  0  0  0  0
   24.1963   15.5179   32.0921 C   0  0  0  0  0  0  0  0  0  0  0  0
   33.0805   17.7714   18.7096 C   0  0  0  0  0  0  0  0  0  0  0  0
   24.6357    7.8867   30.2099 C   0  0  0  0  0  0  0  0  0  0  0  0
   22.4315    7.4685   31.8909 C   0  0  0  0  0  0  0  0  0  0  0  0
   35.1971   16.0713   18.0191 C   0  0  0  0  0  0  0  0  0  0  0  0
   22.5479   14.3101   30.5682 C   0  0  0  0  0  0  0  0  0  0  0  0
   33.3549   14.9095   24.3017 C   0  0  0  0  0  0  0  0  0  0  0  0
   32.8077   16.1464   25.0336 C   0  0  0  0  0  0  0  0  0  0  0  0
   23.9696   14.8724   30.7170 C   0  0  0  0  0  0  0  0  0  0  0  0
   24.4805    6.6714   30.8815 C   0  0  0  0  0  0  0  0  0  0  0  0
   33.9286   18.0943   17.6477 C   0  0  0  0  0  0  0  0  0  0  0  0
   34.9809   17.2479   17.3028 C   0  0  0  0  0  0  0  0  0  0  0  0
   23.3857    6.4642   31.7210 C   0  0  0  0  0  0  0  0  0  0  0  0
   20.9664   11.6855   30.8623 H   0  0  0  0  0  0  0  0  0  0  0  0
   33.9719   13.2865   21.4331 H   0  0  0  0  0  0  0  0  0  0  0  0
   29.1390   16.8919   22.8769 H   0  0  0  0  0  0  0  0  0  0  0  0
   24.6578   14.2485   27.9595 H   0  0  0  0  0  0  0  0  0  0  0  0
   29.3982   13.8471   23.4233 H   0  0  0  0  0  0  0  0  0  0  0  0
   26.2891   12.0276   26.6806 H   0  0  0  0  0  0  0  0  0  0  0  0
   26.2538   15.1633   26.4238 H   0  0  0  0  0  0  0  0  0  0  0  0
   27.8609   12.9342   25.0798 H   0  0  0  0  0  0  0  0  0  0  0  0
   27.8739   16.0866   24.8399 H   0  0  0  0  0  0  0  0  0  0  0  0
   21.2676   13.2856   29.1577 H   0  0  0  0  0  0  0  0  0  0  0  0
   22.5357   14.2233   28.3792 H   0  0  0  0  0  0  0  0  0  0  0  0
   35.4115   13.8909   19.5429 H   0  0  0  0  0  0  0  0  0  0  0  0
   20.7350    9.5331   32.0239 H   0  0  0  0  0  0  0  0  0  0  0  0
   32.6370   13.1283   23.2983 H   0  0  0  0  0  0  0  0  0  0  0  0
   31.4171   13.9553   24.2594 H   0  0  0  0  0  0  0  0  0  0  0  0
   30.3211   17.5798   19.2338 H   0  0  0  0  0  0  0  0  0  0  0  0
   29.1617   17.4044   20.5736 H   0  0  0  0  0  0  0  0  0  0  0  0
   29.8068   15.9404   19.7435 H   0  0  0  0  0  0  0  0  0  0  0  0
   30.7566   18.6057   22.4087 H   0  0  0  0  0  0  0  0  0  0  0  0
   32.5094   18.2051   22.3155 H   0  0  0  0  0  0  0  0  0  0  0  0
   31.6870   19.0331   20.9531 H   0  0  0  0  0  0  0  0  0  0  0  0
   25.9452    9.8698   27.0795 H   0  0  0  0  0  0  0  0  0  0  0  0
   24.2419   10.3438   26.7092 H   0  0  0  0  0  0  0  0  0  0  0  0
   24.5878    8.8604   27.6313 H   0  0  0  0  0  0  0  0  0  0  0  0
   26.0955   11.3696   30.4858 H   0  0  0  0  0  0  0  0  0  0  0  0
   26.6517    9.8423   29.7143 H   0  0  0  0  0  0  0  0  0  0  0  0
   26.9440   11.3999   28.9016 H   0  0  0  0  0  0  0  0  0  0  0  0
   33.3171   17.5376   26.6081 H   0  0  0  0  0  0  0  0  0  0  0  0
   34.1948   15.9757   26.7135 H   0  0  0  0  0  0  0  0  0  0  0  0
   23.2743   16.0235   32.4513 H   0  0  0  0  0  0  0  0  0  0  0  0
   24.9887   16.2907   31.9990 H   0  0  0  0  0  0  0  0  0  0  0  0
   32.2922   18.4652   18.9353 H   0  0  0  0  0  0  0  0  0  0  0  0
   25.4872    7.9933   29.5574 H   0  0  0  0  0  0  0  0  0  0  0  0
   21.5855    7.2864   32.5430 H   0  0  0  0  0  0  0  0  0  0  0  0
   36.0234   15.4287   17.7379 H   0  0  0  0  0  0  0  0  0  0  0  0
   21.8223   15.1517   30.6098 H   0  0  0  0  0  0  0  0  0  0  0  0
   22.3148   13.6329   31.4129 H   0  0  0  0  0  0  0  0  0  0  0  0
   34.1486   15.2084   23.5853 H   0  0  0  0  0  0  0  0  0  0  0  0
   33.8142   14.2219   25.0467 H   0  0  0  0  0  0  0  0  0  0  0  0
   31.9099   15.8545   25.6219 H   0  0  0  0  0  0  0  0  0  0  0  0
   32.4898   16.9163   24.3020 H   0  0  0  0  0  0  0  0  0  0  0  0
   24.7251   14.0753   30.5521 H   0  0  0  0  0  0  0  0  0  0  0  0
   24.1210   15.6479   29.9356 H   0  0  0  0  0  0  0  0  0  0  0  0
   25.2128    5.8855   30.7492 H   0  0  0  0  0  0  0  0  0  0  0  0
   33.7685   19.0078   17.0892 H   0  0  0  0  0  0  0  0  0  0  0  0
   35.6322   17.5057   16.4783 H   0  0  0  0  0  0  0  0  0  0  0  0
   23.2730    5.5196   32.2370 H   0  0  0  0  0  0  0  0  0  0  0  0
  2  1  1  0
  3  5  1  0
  4  5  1  0
  5 19  2  0
  6  1  2  0
  7  6  1  0
  8  2  2  0
  9  4  1  0
 10  3  1  0
 11 40  1  0
 12 41  1  0
 13  8  1  0
 14  9  2  0
 15  2  1  0
 16 10  2  0
 17 11  1  0
 18 12  1  0
 19 25  1  0
 20  6  1  0
 21 11  2  0
 22 11  2  0
 23 12  2  0
 24 12  2  0
 25 29  2  0
 26 20  2  0
 27 26  1  0
 28 27  2  0
 29 28  1  0
 30  1  1  0
 31 14  1  0
 32 34  1  0
 33 16  1  0
 34 15  2  0
 35  3  1  0
 36  4  1  0
 37  4  1  0
 38  7  1  0
 39  7  1  0
 40 48  1  0
 41 49  1  0
 42 14  1  0
 43 13  2  0
 44 32  2  0
 45 31  1  0
 46 30  1  0
 47 35  1  0
 48 47  1  0
 49 46  1  0
 50 43  1  0
 51 42  2  0
 52 51  1  0
 53 44  1  0
  7  8  1  0
 13 32  1  0
 53 50  2  0
 10  9  1  0
 31 33  2  0
 52 45  2  0
 15 54  1  0
 16 55  1  0
 19 56  1  0
 20 57  1  0
 25 58  1  0
 26 59  1  0
 27 60  1  0
 28 61  1  0
 29 62  1  0
 30 63  1  0
 30 64  1  0
 33 65  1  0
 34 66  1  0
 35 67  1  0
 35 68  1  0
 36 69  1  0
 36 70  1  0
 36 71  1  0
 37 72  1  0
 37 73  1  0
 37 74  1  0
 38 75  1  0
 38 76  1  0
 38 77  1  0
 39 78  1  0
 39 79  1  0
 39 80  1  0
 40 81  1  0
 40 82  1  0
 41 83  1  0
 41 84  1  0
 42 85  1  0
 43 86  1  0
 44 87  1  0
 45 88  1  0
 46 89  1  0
 46 90  1  0
 47 91  1  0
 47 92  1  0
 48 93  1  0
 48 94  1  0
 49 95  1  0
 49 96  1  0
 50 97  1  0
 51 98  1  0
 52 99  1  0
 53100  1  0
M  CHG  3   1   1  17  -1  18  -1
M  END
> <Uni-Dock RESULT> 
ENERGY=   -3.507  LOWER_BOUND=    5.303  UPPER_BOUND=   13.844
INTER + INTRA:          -3.507
INTER:                  -3.507
INTRA:                   0.000
UNBOUND:                 0.000

$$$$

     RDKit          3D

100105  0  0  0  0  0  0  0  0999 V2000
   28.6766    5.0593   33.7309 N   0  0  0  0  0  0  0  0  0  0  0  0
   29.0379    3.6851   33.6716 C   0  0  0  0  0  0  0  0  0  0  0  0
   27.0135   12.6869   25.5094 N   0  0  0  0  0  0  0  0  0  0  0  0
   25.8885   14.6163   26.5325 C   0  0  0  0  0  0  0  0  0  0  0  0
   26.5954   13.2839   26.7503 C   0  0  0  0  0  0  0  0  0  0  0  0
   28.6335    5.5274   32.5085 C   0  0  0  0  0  0  0  0  0  0  0  0
   28.9738    4.4525   31.4654 C   0  0  0  0  0  0  0  0  0  0  0  0
   29.2343    3.2712   32.3756 C   0  0  0  0  0  0  0  0  0  0  0  0
   25.8716   14.6794   25.0146 C   0  0  0  0  0  0  0  0  0  0  0  0
   26.4958   13.5521   24.5012 C   0  0  0  0  0  0  0  0  0  0  0  0
   31.3834   15.4621   25.1811 S   0  0  0  0  0  0  0  0  0  0  0  0
   33.2362    6.1506   34.9740 S   0  0  0  0  0  0  0  0  0  0  0  0
   29.6271    1.9406   32.0940 C   0  0  0  0  0  0  0  0  0  0  0  0
   25.3519   15.6683   24.1384 C   0  0  0  0  0  0  0  0  0  0  0  0
   29.2056    2.8177   34.7549 C   0  0  0  0  0  0  0  0  0  0  0  0
   26.6120   13.3421   23.1243 C   0  0  0  0  0  0  0  0  0  0  0  0
   30.1025   16.4745   25.5815 O   0  0  0  0  0  0  0  0  0  0  0  0
   32.7493    4.5869   35.3547 O   0  0  0  0  0  0  0  0  0  0  0  0
   26.6891   12.7012   27.9628 C   0  0  0  0  0  0  0  0  0  0  0  0
   28.3927    6.9724   32.2075 C   0  0  0  0  0  0  0  0  0  0  0  0
   31.2692   15.0566   23.7377 O   0  0  0  0  0  0  0  0  0  0  0  0
   32.6757   16.2025   25.3811 O   0  0  0  0  0  0  0  0  0  0  0  0
   34.5488    6.4345   35.6497 O   0  0  0  0  0  0  0  0  0  0  0  0
   33.4128    6.2663   33.4853 O   0  0  0  0  0  0  0  0  0  0  0  0
   26.9301   11.2645   28.1717 C   0  0  0  0  0  0  0  0  0  0  0  0
   28.0614    7.4451   31.0015 C   0  0  0  0  0  0  0  0  0  0  0  0
   27.8599    8.8886   30.7840 C   0  0  0  0  0  0  0  0  0  0  0  0
   27.5063    9.3587   29.5860 C   0  0  0  0  0  0  0  0  0  0  0  0
   27.3052   10.8001   29.3648 C   0  0  0  0  0  0  0  0  0  0  0  0
   28.4602    5.8016   34.9849 C   0  0  0  0  0  0  0  0  0  0  0  0
   25.4685   15.4530   22.7339 C   0  0  0  0  0  0  0  0  0  0  0  0
   29.8172    1.0523   33.1911 C   0  0  0  0  0  0  0  0  0  0  0  0
   26.0919   14.2916   22.2441 C   0  0  0  0  0  0  0  0  0  0  0  0
   29.5998    1.4991   34.5089 C   0  0  0  0  0  0  0  0  0  0  0  0
   28.2302   11.8790   25.2971 C   0  0  0  0  0  0  0  0  0  0  0  0
   24.4551   14.5491   27.1046 C   0  0  0  0  0  0  0  0  0  0  0  0
   26.7138   15.7615   27.1513 C   0  0  0  0  0  0  0  0  0  0  0  0
   27.7738    4.1641   30.5291 C   0  0  0  0  0  0  0  0  0  0  0  0
   30.2581    4.8481   30.7067 C   0  0  0  0  0  0  0  0  0  0  0  0
   31.3769   14.0111   26.2294 C   0  0  0  0  0  0  0  0  0  0  0  0
   32.0250    7.3483   35.5265 C   0  0  0  0  0  0  0  0  0  0  0  0
   24.7345   16.8520   24.5891 C   0  0  0  0  0  0  0  0  0  0  0  0
   29.8288    1.4596   30.7859 C   0  0  0  0  0  0  0  0  0  0  0  0
   30.2165   -0.2722   32.9562 C   0  0  0  0  0  0  0  0  0  0  0  0
   24.9626   16.4034   21.8334 C   0  0  0  0  0  0  0  0  0  0  0  0
   29.7914    6.1290   35.6791 C   0  0  0  0  0  0  0  0  0  0  0  0
   29.4763   12.7513   25.0741 C   0  0  0  0  0  0  0  0  0  0  0  0
   29.9808   13.3906   26.3785 C   0  0  0  0  0  0  0  0  0  0  0  0
   30.6499    7.1217   34.8808 C   0  0  0  0  0  0  0  0  0  0  0  0
   30.2230    0.1364   30.5717 C   0  0  0  0  0  0  0  0  0  0  0  0
   24.2379   17.7868   23.6776 C   0  0  0  0  0  0  0  0  0  0  0  0
   24.3498   17.5633   22.3064 C   0  0  0  0  0  0  0  0  0  0  0  0
   30.4195   -0.7247   31.6515 C   0  0  0  0  0  0  0  0  0  0  0  0
   29.0408    3.1450   35.7718 H   0  0  0  0  0  0  0  0  0  0  0  0
   27.0960   12.4595   22.7304 H   0  0  0  0  0  0  0  0  0  0  0  0
   26.4314   13.2839   28.8394 H   0  0  0  0  0  0  0  0  0  0  0  0
   28.4995    7.6921   33.0054 H   0  0  0  0  0  0  0  0  0  0  0  0
   26.7306   10.5682   27.3655 H   0  0  0  0  0  0  0  0  0  0  0  0
   27.9314    6.7839   30.1627 H   0  0  0  0  0  0  0  0  0  0  0  0
   28.0006    9.5761   31.6112 H   0  0  0  0  0  0  0  0  0  0  0  0
   27.3632    8.6715   28.7593 H   0  0  0  0  0  0  0  0  0  0  0  0
   27.4717   11.4917   30.1840 H   0  0  0  0  0  0  0  0  0  0  0  0
   27.8496    5.1766   35.6712 H   0  0  0  0  0  0  0  0  0  0  0  0
   27.8607    6.7213   34.8302 H   0  0  0  0  0  0  0  0  0  0  0  0
   26.1820   14.1220   21.1777 H   0  0  0  0  0  0  0  0  0  0  0  0
   29.7350    0.8269   35.3474 H   0  0  0  0  0  0  0  0  0  0  0  0
   28.0819   11.2330   24.4068 H   0  0  0  0  0  0  0  0  0  0  0  0
   28.4282   11.1857   26.1312 H   0  0  0  0  0  0  0  0  0  0  0  0
   23.8692   15.4581   26.8770 H   0  0  0  0  0  0  0  0  0  0  0  0
   24.4763   14.4460   28.2100 H   0  0  0  0  0  0  0  0  0  0  0  0
   23.9097   13.6771   26.6815 H   0  0  0  0  0  0  0  0  0  0  0  0
   26.9563   15.5432   28.2127 H   0  0  0  0  0  0  0  0  0  0  0  0
   27.6642   15.9008   26.5963 H   0  0  0  0  0  0  0  0  0  0  0  0
   26.1645   16.7216   27.1396 H   0  0  0  0  0  0  0  0  0  0  0  0
   27.9041    4.6519   29.5403 H   0  0  0  0  0  0  0  0  0  0  0  0
   26.8213    4.5197   30.9800 H   0  0  0  0  0  0  0  0  0  0  0  0
   27.6452    3.0800   30.3327 H   0  0  0  0  0  0  0  0  0  0  0  0
   31.1060    4.9679   31.4173 H   0  0  0  0  0  0  0  0  0  0  0  0
   30.5423    4.0916   29.9506 H   0  0  0  0  0  0  0  0  0  0  0  0
   30.1234    5.8087   30.1691 H   0  0  0  0  0  0  0  0  0  0  0  0
   31.7381   14.3137   27.2354 H   0  0  0  0  0  0  0  0  0  0  0  0
   32.0908   13.2621   25.8244 H   0  0  0  0  0  0  0  0  0  0  0  0
   31.9535    7.3213   36.6350 H   0  0  0  0  0  0  0  0  0  0  0  0
   32.3949    8.3551   35.2380 H   0  0  0  0  0  0  0  0  0  0  0  0
   24.6279   17.0815   25.6330 H   0  0  0  0  0  0  0  0  0  0  0  0
   29.6709    2.0818   29.9199 H   0  0  0  0  0  0  0  0  0  0  0  0
   30.3692   -0.9578   33.7812 H   0  0  0  0  0  0  0  0  0  0  0  0
   25.0436   16.2503   20.7635 H   0  0  0  0  0  0  0  0  0  0  0  0
   29.5681    6.5678   36.6762 H   0  0  0  0  0  0  0  0  0  0  0  0
   30.3536    5.1905   35.8513 H   0  0  0  0  0  0  0  0  0  0  0  0
   29.2543   13.5379   24.3229 H   0  0  0  0  0  0  0  0  0  0  0  0
   30.2777   12.1019   24.6558 H   0  0  0  0  0  0  0  0  0  0  0  0
   30.0423   12.6091   27.1677 H   0  0  0  0  0  0  0  0  0  0  0  0
   29.2664   14.1621   26.7296 H   0  0  0  0  0  0  0  0  0  0  0  0
   30.7839    6.7710   33.8356 H   0  0  0  0  0  0  0  0  0  0  0  0
   30.1143    8.0946   34.8444 H   0  0  0  0  0  0  0  0  0  0  0  0
   30.3757   -0.2234   29.5625 H   0  0  0  0  0  0  0  0  0  0  0  0
   23.7638   18.6909   24.0378 H   0  0  0  0  0  0  0  0  0  0  0  0
   23.9616   18.2924   21.6077 H   0  0  0  0  0  0  0  0  0  0  0  0
   30.7244   -1.7483   31.4764 H   0  0  0  0  0  0  0  0  0  0  0  0
  2  1  1  0
  3  5  1  0
  4  5  1  0
  5 19  2  0
  6  1  2  0
  7  6  1  0
  8  2  2  0
  9  4  1  0
 10  3  1  0
 11 40  1  0
 12 41  1  0
 13  8  1  0
 14  9  2  0
 15  2  1  0
 16 10  2  0
 17 11  1  0
 18 12  1  0
 19 25  1  0
 20  6  1  0
 21 11  2  0
 22 11  2  0
 23 12  2  0
 24 12  2  0
 25 29  2  0
 26 20  2  0
 27 26  1  0
 28 27  2  0
 29 28  1  0
 30  1  1  0
 31 14  1  0
 32 34  1  0
 33 16  1  0
 34 15  2  0
 35  3  1  0
 36  4  1  0
 37  4  1  0
 38  7  1  0
 39  7  1  0
 40 48  1  0
 41 49  1  0
 42 14  1  0
 43 13  2  0
 44 32  2  0
 45 31  1  0
 46 30  1  0
 47 35  1  0
 48 47  1  0
 49 46  1  0
 50 43  1  0
 51 42  2  0
 52 51  1  0
 53 44  1  0
  7  8  1  0
 13 32  1  0
 53 50  2  0
 10  9  1  0
 31 33  2  0
 52 45  2  0
 15 54  1  0
 16 55  1  0
 19 56  1  0
 20 57  1  0
 25 58  1  0
 26 59  1  0
 27 60  1  0
 28 61  1  0
 29 62  1  0
 30 63  1  0
 30 64  1  0
 33 65  1  0
 34 66  1  0
 35 67  1  0
 35 68  1  0
 36 69  1  0
 36 70  1  0
 36 71  1  0
 37 72  1  0
 37 73  1  0
 37 74  1  0
 38 75  1  0
 38 76  1  0
 38 77  1  0
 39 78  1  0
 39 79  1  0
 39 80  1  0
 40 81  1  0
 40 82  1  0
 41 83  1  0
 41 84  1  0
 42 85  1  0
 43 86  1  0
 44 87  1  0
 45 88  1  0
 46 89  1  0
 46 90  1  0
 47 91  1  0
 47 92  1  0
 48 93  1  0
 48 94  1  0
 49 95  1  0
 49 96  1  0
 50 97  1  0
 51 98  1  0
 52 99  1  0
 53100  1  0
M  CHG  3   1   1  17  -1  18  -1
M  END
> <Uni-Dock RESULT> 
ENERGY=   -3.456  LOWER_BOUND=    2.552  UPPER_BOUND=   14.064
INTER + INTRA:          -3.456
INTER:                  -3.456
INTRA:                   0.000
UNBOUND:                 0.000

$$$$

     RDKit          3D

100105  0  0  0  0  0  0  0  0999 V2000
   32.0592   12.7070   23.4698 N   0  0  0  0  0  0  0  0  0  0  0  0
   32.1026   13.3233   22.1889 C   0  0  0  0  0  0  0  0  0  0  0  0
   23.2896    9.5532   29.9264 N   0  0  0  0  0  0  0  0  0  0  0  0
   24.1798    8.0892   31.6867 C   0  0  0  0  0  0  0  0  0  0  0  0
   24.4877    9.0389   30.5355 C   0  0  0  0  0  0  0  0  0  0  0  0
   30.8043   12.5656   23.8169 C   0  0  0  0  0  0  0  0  0  0  0  0
   29.8437   13.0962   22.7422 C   0  0  0  0  0  0  0  0  0  0  0  0
   30.8400   13.5846   21.7123 C   0  0  0  0  0  0  0  0  0  0  0  0
   22.6626    8.0483   31.6177 C   0  0  0  0  0  0  0  0  0  0  0  0
   22.2273    8.8719   30.5901 C   0  0  0  0  0  0  0  0  0  0  0  0
   22.6335   13.3107   33.4416 S   0  0  0  0  0  0  0  0  0  0  0  0
   33.1006   16.9845   25.5055 S   0  0  0  0  0  0  0  0  0  0  0  0
   30.6577   14.2217   20.4614 C   0  0  0  0  0  0  0  0  0  0  0  0
   21.7219    7.3425   32.4132 C   0  0  0  0  0  0  0  0  0  0  0  0
   33.2482   13.6621   21.4630 C   0  0  0  0  0  0  0  0  0  0  0  0
   20.8696    9.0149   30.2910 C   0  0  0  0  0  0  0  0  0  0  0  0
   22.9812   11.8635   34.2230 O   0  0  0  0  0  0  0  0  0  0  0  0
   33.6180   16.8079   23.9155 O   0  0  0  0  0  0  0  0  0  0  0  0
   25.7408    9.2519   30.0850 C   0  0  0  0  0  0  0  0  0  0  0  0
   30.3932   12.0511   25.1597 C   0  0  0  0  0  0  0  0  0  0  0  0
   21.2308   13.2644   32.9021 O   0  0  0  0  0  0  0  0  0  0  0  0
   22.7420   14.4396   34.4275 O   0  0  0  0  0  0  0  0  0  0  0  0
   33.7195   18.2242   26.0887 O   0  0  0  0  0  0  0  0  0  0  0  0
   31.6037   17.1239   25.5272 O   0  0  0  0  0  0  0  0  0  0  0  0
   26.0594    9.7642   28.7426 C   0  0  0  0  0  0  0  0  0  0  0  0
   29.1612   11.6260   25.4581 C   0  0  0  0  0  0  0  0  0  0  0  0
   28.8325   11.1512   26.8138 C   0  0  0  0  0  0  0  0  0  0  0  0
   27.6092   10.7047   27.1061 C   0  0  0  0  0  0  0  0  0  0  0  0
   27.2769   10.2305   28.4596 C   0  0  0  0  0  0  0  0  0  0  0  0
   33.2538   12.3630   24.2603 C   0  0  0  0  0  0  0  0  0  0  0  0
   20.3371    7.4867   32.1068 C   0  0  0  0  0  0  0  0  0  0  0  0
   31.8182   14.5867   19.7205 C   0  0  0  0  0  0  0  0  0  0  0  0
   19.9281    8.3163   31.0475 C   0  0  0  0  0  0  0  0  0  0  0  0
   33.1004   14.2986   20.2270 C   0  0  0  0  0  0  0  0  0  0  0  0
   23.1143   10.9000   29.3487 C   0  0  0  0  0  0  0  0  0  0  0  0
   24.7895    6.6995   31.3974 C   0  0  0  0  0  0  0  0  0  0  0  0
   24.6841    8.6857   33.0154 C   0  0  0  0  0  0  0  0  0  0  0  0
   28.9627   11.9658   22.1541 C   0  0  0  0  0  0  0  0  0  0  0  0
   29.0250   14.2753   23.3088 C   0  0  0  0  0  0  0  0  0  0  0  0
   23.7957   13.5895   32.1089 C   0  0  0  0  0  0  0  0  0  0  0  0
   33.5831   15.5716   26.4942 C   0  0  0  0  0  0  0  0  0  0  0  0
   22.0901    6.5142   33.4921 C   0  0  0  0  0  0  0  0  0  0  0  0
   29.3884   14.5010   19.9192 C   0  0  0  0  0  0  0  0  0  0  0  0
   31.6817   15.2294   18.4806 C   0  0  0  0  0  0  0  0  0  0  0  0
   19.3750    6.8016   32.8651 C   0  0  0  0  0  0  0  0  0  0  0  0
   33.8872   13.6129   24.8911 C   0  0  0  0  0  0  0  0  0  0  0  0
   22.7918   11.9550   30.4193 C   0  0  0  0  0  0  0  0  0  0  0  0
   24.0278   12.3388   31.2500 C   0  0  0  0  0  0  0  0  0  0  0  0
   32.9910   14.2598   25.9578 C   0  0  0  0  0  0  0  0  0  0  0  0
   29.2726   15.1386   18.6814 C   0  0  0  0  0  0  0  0  0  0  0  0
   21.1180    5.8411   34.2360 C   0  0  0  0  0  0  0  0  0  0  0  0
   19.7671    5.9826   33.9234 C   0  0  0  0  0  0  0  0  0  0  0  0
   30.4135   15.5045   17.9669 C   0  0  0  0  0  0  0  0  0  0  0  0
   34.2389   13.4461   21.8374 H   0  0  0  0  0  0  0  0  0  0  0  0
   20.5370    9.6553   29.4862 H   0  0  0  0  0  0  0  0  0  0  0  0
   26.5733    8.8948   30.6798 H   0  0  0  0  0  0  0  0  0  0  0  0
   31.1275   12.0251   25.9510 H   0  0  0  0  0  0  0  0  0  0  0  0
   25.3173    9.6947   27.9560 H   0  0  0  0  0  0  0  0  0  0  0  0
   28.3819   11.6178   24.7161 H   0  0  0  0  0  0  0  0  0  0  0  0
   29.5977   11.1647   27.5825 H   0  0  0  0  0  0  0  0  0  0  0  0
   26.8444   10.6887   26.3373 H   0  0  0  0  0  0  0  0  0  0  0  0
   28.0332   10.2686   29.2365 H   0  0  0  0  0  0  0  0  0  0  0  0
   34.0028   11.8884   23.5908 H   0  0  0  0  0  0  0  0  0  0  0  0
   33.0395   11.5979   25.0334 H   0  0  0  0  0  0  0  0  0  0  0  0
   18.8771    8.4285   30.8091 H   0  0  0  0  0  0  0  0  0  0  0  0
   33.9871   14.5663   19.6655 H   0  0  0  0  0  0  0  0  0  0  0  0
   22.2830   10.8705   28.6139 H   0  0  0  0  0  0  0  0  0  0  0  0
   23.9969   11.2334   28.7780 H   0  0  0  0  0  0  0  0  0  0  0  0
   24.5032    5.9491   32.1567 H   0  0  0  0  0  0  0  0  0  0  0  0
   25.8989    6.7489   31.3935 H   0  0  0  0  0  0  0  0  0  0  0  0
   24.4516    6.3271   30.4055 H   0  0  0  0  0  0  0  0  0  0  0  0
   25.7535    8.9740   32.9369 H   0  0  0  0  0  0  0  0  0  0  0  0
   24.0971    9.5876   33.2851 H   0  0  0  0  0  0  0  0  0  0  0  0
   24.6079    7.9633   33.8496 H   0  0  0  0  0  0  0  0  0  0  0  0
   27.9349   11.9927   22.5730 H   0  0  0  0  0  0  0  0  0  0  0  0
   29.4060   10.9666   22.3595 H   0  0  0  0  0  0  0  0  0  0  0  0
   28.8579   12.0448   21.0527 H   0  0  0  0  0  0  0  0  0  0  0  0
   29.7031   15.0905   23.6463 H   0  0  0  0  0  0  0  0  0  0  0  0
   28.3260   14.6926   22.5591 H   0  0  0  0  0  0  0  0  0  0  0  0
   28.4148   13.9556   24.1779 H   0  0  0  0  0  0  0  0  0  0  0  0
   24.7649   13.8945   32.5578 H   0  0  0  0  0  0  0  0  0  0  0  0
   23.4356   14.4300   31.4774 H   0  0  0  0  0  0  0  0  0  0  0  0
   34.6916   15.5154   26.5473 H   0  0  0  0  0  0  0  0  0  0  0  0
   33.2054   15.7402   27.5250 H   0  0  0  0  0  0  0  0  0  0  0  0
   23.1142    6.3742   33.7841 H   0  0  0  0  0  0  0  0  0  0  0  0
   28.4788   14.2203   20.4252 H   0  0  0  0  0  0  0  0  0  0  0  0
   32.5556   15.5167   17.9082 H   0  0  0  0  0  0  0  0  0  0  0  0
   18.3194    6.9017   32.6408 H   0  0  0  0  0  0  0  0  0  0  0  0
   34.8506   13.3180   25.3618 H   0  0  0  0  0  0  0  0  0  0  0  0
   34.1213   14.3452   24.0939 H   0  0  0  0  0  0  0  0  0  0  0  0
   21.9849   11.5809   31.0838 H   0  0  0  0  0  0  0  0  0  0  0  0
   22.4084   12.8622   29.9008 H   0  0  0  0  0  0  0  0  0  0  0  0
   24.8759   12.5545   30.5633 H   0  0  0  0  0  0  0  0  0  0  0  0
   24.3323   11.4931   31.8988 H   0  0  0  0  0  0  0  0  0  0  0  0
   31.9746   14.4499   25.5524 H   0  0  0  0  0  0  0  0  0  0  0  0
   32.8888   13.5482   26.8051 H   0  0  0  0  0  0  0  0  0  0  0  0
   28.2924   15.3490   18.2735 H   0  0  0  0  0  0  0  0  0  0  0  0
   21.4151    5.2061   35.0609 H   0  0  0  0  0  0  0  0  0  0  0  0
   19.0212    5.4568   34.5045 H   0  0  0  0  0  0  0  0  0  0  0  0
   30.3146   15.9976   17.0086 H   0  0  0  0  0  0  0  0  0  0  0  0
  2  1  1  0
  3  5  1  0
  4  5  1  0
  5 19  2  0
  6  1  2  0
  7  6  1  0
  8  2  2  0
  9  4  1  0
 10  3  1  0
 11 40  1  0
 12 41  1  0
 13  8  1  0
 14  9  2  0
 15  2  1  0
 16 10  2  0
 17 11  1  0
 18 12  1  0
 19 25  1  0
 20  6  1  0
 21 11  2  0
 22 11  2  0
 23 12  2  0
 24 12  2  0
 25 29  2  0
 26 20  2  0
 27 26  1  0
 28 27  2  0
 29 28  1  0
 30  1  1  0
 31 14  1  0
 32 34  1  0
 33 16  1  0
 34 15  2  0
 35  3  1  0
 36  4  1  0
 37  4  1  0
 38  7  1  0
 39  7  1  0
 40 48  1  0
 41 49  1  0
 42 14  1  0
 43 13  2  0
 44 32  2  0
 45 31  1  0
 46 30  1  0
 47 35  1  0
 48 47  1  0
 49 46  1  0
 50 43  1  0
 51 42  2  0
 52 51  1  0
 53 44  1  0
  7  8  1  0
 13 32  1  0
 53 50  2  0
 10  9  1  0
 31 33  2  0
 52 45  2  0
 15 54  1  0
 16 55  1  0
 19 56  1  0
 20 57  1  0
 25 58  1  0
 26 59  1  0
 27 60  1  0
 28 61  1  0
 29 62  1  0
 30 63  1  0
 30 64  1  0
 33 65  1  0
 34 66  1  0
 35 67  1  0
 35 68  1  0
 36 69  1  0
 36 70  1  0
 36 71  1  0
 37 72  1  0
 37 73  1  0
 37 74  1  0
 38 75  1  0
 38 76  1  0
 38 77  1  0
 39 78  1  0
 39 79  1  0
 39 80  1  0
 40 81  1  0
 40 82  1  0
 41 83  1  0
 41 84  1  0
 42 85  1  0
 43 86  1  0
 44 87  1  0
 45 88  1  0
 46 89  1  0
 46 90  1  0
 47 91  1  0
 47 92  1  0
 48 93  1  0
 48 94  1  0
 49 95  1  0
 49 96  1  0
 50 97  1  0
 51 98  1  0
 52 99  1  0
 53100  1  0
M  CHG  3   1   1  17  -1  18  -1
M  END
> <Uni-Dock RESULT> 
ENERGY=   -3.435  LOWER_BOUND=    5.353  UPPER_BOUND=    6.857
INTER + INTRA:          -3.435
INTER:                  -3.435
INTRA:                   0.000
UNBOUND:                 0.000

$$$$
