
     RDKit          3D

100105  0  0  0  0  0  0  0  0999 V2000
   29.8475   12.9372   22.7938 N   0  0  0  0  0  0  0  0  0  0  0  0
   31.0617   13.6707   22.6688 C   0  0  0  0  0  0  0  0  0  0  0  0
   24.0368    9.4418   31.9711 N   0  0  0  0  0  0  0  0  0  0  0  0
   22.3098    7.9269   31.1149 C   0  0  0  0  0  0  0  0  0  0  0  0
   23.4971    8.8246   30.7874 C   0  0  0  0  0  0  0  0  0  0  0  0
   29.6463   12.6889   24.0633 C   0  0  0  0  0  0  0  0  0  0  0  0
   30.7656   13.2511   24.9506 C   0  0  0  0  0  0  0  0  0  0  0  0
   31.6520   13.8762   23.8942 C   0  0  0  0  0  0  0  0  0  0  0  0
   22.1773    8.1595   32.6105 C   0  0  0  0  0  0  0  0  0  0  0  0
   23.1703    9.0334   33.0271 C   0  0  0  0  0  0  0  0  0  0  0  0
   27.8105   11.5907   34.8643 S   0  0  0  0  0  0  0  0  0  0  0  0
   29.6443   10.3512   17.9797 S   0  0  0  0  0  0  0  0  0  0  0  0
   32.8852   14.5643   23.9973 C   0  0  0  0  0  0  0  0  0  0  0  0
   21.2641    7.6144   33.5536 C   0  0  0  0  0  0  0  0  0  0  0  0
   31.6458   14.1381   21.4870 C   0  0  0  0  0  0  0  0  0  0  0  0
   23.2963    9.4118   34.3667 C   0  0  0  0  0  0  0  0  0  0  0  0
   29.2365   11.3348   35.7130 O   0  0  0  0  0  0  0  0  0  0  0  0
   30.1767   10.5826   16.4027 O   0  0  0  0  0  0  0  0  0  0  0  0
   23.9318    9.0151   29.5203 C   0  0  0  0  0  0  0  0  0  0  0  0
   28.4931   11.8665   24.5435 C   0  0  0  0  0  0  0  0  0  0  0  0
   27.4076   13.0318   35.0007 O   0  0  0  0  0  0  0  0  0  0  0  0
   26.7375   10.7125   35.4416 O   0  0  0  0  0  0  0  0  0  0  0  0
   28.2006   10.7603   18.0707 O   0  0  0  0  0  0  0  0  0  0  0  0
   29.7771    8.8966   18.3323 O   0  0  0  0  0  0  0  0  0  0  0  0
   24.9356   10.0068   29.0923 C   0  0  0  0  0  0  0  0  0  0  0  0
   28.0962   11.7925   25.8179 C   0  0  0  0  0  0  0  0  0  0  0  0
   26.9907   10.9017   26.2115 C   0  0  0  0  0  0  0  0  0  0  0  0
   26.5153   10.9030   27.4581 C   0  0  0  0  0  0  0  0  0  0  0  0
   25.4731    9.9491   27.8720 C   0  0  0  0  0  0  0  0  0  0  0  0
   28.9939   12.5071   21.6715 C   0  0  0  0  0  0  0  0  0  0  0  0
   21.3894    8.0075   34.9184 C   0  0  0  0  0  0  0  0  0  0  0  0
   33.4986   15.0244   22.7971 C   0  0  0  0  0  0  0  0  0  0  0  0
   22.4005    8.9032   35.3075 C   0  0  0  0  0  0  0  0  0  0  0  0
   32.8698   14.8101   21.5553 C   0  0  0  0  0  0  0  0  0  0  0  0
   25.4445    9.7953   32.2067 C   0  0  0  0  0  0  0  0  0  0  0  0
   21.0555    8.4092   30.3542 C   0  0  0  0  0  0  0  0  0  0  0  0
   22.6718    6.4632   30.7939 C   0  0  0  0  0  0  0  0  0  0  0  0
   31.4980   12.0947   25.6623 C   0  0  0  0  0  0  0  0  0  0  0  0
   30.2348   14.3304   25.9276 C   0  0  0  0  0  0  0  0  0  0  0  0
   28.0764   11.1788   33.1432 C   0  0  0  0  0  0  0  0  0  0  0  0
   30.6360   11.3563   19.0807 C   0  0  0  0  0  0  0  0  0  0  0  0
   20.2498    6.6973   33.2095 C   0  0  0  0  0  0  0  0  0  0  0  0
   33.5237   14.8142   25.2273 C   0  0  0  0  0  0  0  0  0  0  0  0
   34.7307   15.6947   22.8549 C   0  0  0  0  0  0  0  0  0  0  0  0
   20.5085    7.4916   35.8825 C   0  0  0  0  0  0  0  0  0  0  0  0
   29.2796   11.0489   21.2611 C   0  0  0  0  0  0  0  0  0  0  0  0
   25.5925   11.3106   32.4300 C   0  0  0  0  0  0  0  0  0  0  0  0
   27.0315   11.8067   32.2065 C   0  0  0  0  0  0  0  0  0  0  0  0
   30.6223   10.8511   20.5340 C   0  0  0  0  0  0  0  0  0  0  0  0
   34.7495   15.4831   25.2644 C   0  0  0  0  0  0  0  0  0  0  0  0
   19.3827    6.1949   34.1836 C   0  0  0  0  0  0  0  0  0  0  0  0
   19.5104    6.5910   35.5139 C   0  0  0  0  0  0  0  0  0  0  0  0
   35.3524   15.9182   24.0839 C   0  0  0  0  0  0  0  0  0  0  0  0
   31.1821   13.9865   20.5254 H   0  0  0  0  0  0  0  0  0  0  0  0
   24.0759   10.0840   34.6898 H   0  0  0  0  0  0  0  0  0  0  0  0
   23.4738    8.4273   28.7342 H   0  0  0  0  0  0  0  0  0  0  0  0
   27.9317   11.2929   23.8189 H   0  0  0  0  0  0  0  0  0  0  0  0
   25.2248   10.8107   29.7475 H   0  0  0  0  0  0  0  0  0  0  0  0
   28.5842   12.3679   26.5864 H   0  0  0  0  0  0  0  0  0  0  0  0
   26.5753   10.2169   25.4793 H   0  0  0  0  0  0  0  0  0  0  0  0
   26.9136   11.6011   28.1870 H   0  0  0  0  0  0  0  0  0  0  0  0
   25.1650    9.1709   27.1812 H   0  0  0  0  0  0  0  0  0  0  0  0
   29.1088   13.1882   20.8071 H   0  0  0  0  0  0  0  0  0  0  0  0
   27.9249   12.6024   21.9582 H   0  0  0  0  0  0  0  0  0  0  0  0
   22.5038    9.2009   36.3444 H   0  0  0  0  0  0  0  0  0  0  0  0
   33.3259   15.1634   20.6380 H   0  0  0  0  0  0  0  0  0  0  0  0
   25.8194    9.2509   33.1006 H   0  0  0  0  0  0  0  0  0  0  0  0
   26.0804    9.4465   31.3688 H   0  0  0  0  0  0  0  0  0  0  0  0
   20.8520    9.4776   30.5851 H   0  0  0  0  0  0  0  0  0  0  0  0
   20.1538    7.8262   30.6164 H   0  0  0  0  0  0  0  0  0  0  0  0
   21.1963    8.3086   29.2573 H   0  0  0  0  0  0  0  0  0  0  0  0
   21.8511    5.7645   31.0376 H   0  0  0  0  0  0  0  0  0  0  0  0
   22.8896    6.3421   29.7118 H   0  0  0  0  0  0  0  0  0  0  0  0
   23.5721    6.1543   31.3684 H   0  0  0  0  0  0  0  0  0  0  0  0
   32.3402   12.4562   26.2812 H   0  0  0  0  0  0  0  0  0  0  0  0
   30.8107   11.5432   26.3357 H   0  0  0  0  0  0  0  0  0  0  0  0
   31.9001   11.3748   24.9171 H   0  0  0  0  0  0  0  0  0  0  0  0
   29.2375   14.7052   25.6118 H   0  0  0  0  0  0  0  0  0  0  0  0
   30.1519   13.9374   26.9617 H   0  0  0  0  0  0  0  0  0  0  0  0
   30.8994   15.2154   25.9777 H   0  0  0  0  0  0  0  0  0  0  0  0
   28.0978   10.0758   33.0258 H   0  0  0  0  0  0  0  0  0  0  0  0
   29.0785   11.5598   32.8526 H   0  0  0  0  0  0  0  0  0  0  0  0
   31.6830   11.3274   18.7124 H   0  0  0  0  0  0  0  0  0  0  0  0
   30.2909   12.4064   19.0147 H   0  0  0  0  0  0  0  0  0  0  0  0
   20.1074    6.3489   32.2035 H   0  0  0  0  0  0  0  0  0  0  0  0
   33.0881   14.5131   26.1663 H   0  0  0  0  0  0  0  0  0  0  0  0
   35.2134   16.0448   21.9505 H   0  0  0  0  0  0  0  0  0  0  0  0
   20.5950    7.7805   36.9232 H   0  0  0  0  0  0  0  0  0  0  0  0
   29.2858   10.4073   22.1682 H   0  0  0  0  0  0  0  0  0  0  0  0
   28.4465   10.6807   20.6270 H   0  0  0  0  0  0  0  0  0  0  0  0
   25.2517   11.5878   33.4476 H   0  0  0  0  0  0  0  0  0  0  0  0
   24.9276   11.8576   31.7276 H   0  0  0  0  0  0  0  0  0  0  0  0
   27.0517   12.9113   32.3270 H   0  0  0  0  0  0  0  0  0  0  0  0
   27.3255   11.5922   31.1555 H   0  0  0  0  0  0  0  0  0  0  0  0
   31.4311   11.3549   21.1033 H   0  0  0  0  0  0  0  0  0  0  0  0
   30.8751    9.7686   20.5405 H   0  0  0  0  0  0  0  0  0  0  0  0
   35.2342   15.6667   26.2147 H   0  0  0  0  0  0  0  0  0  0  0  0
   18.6072    5.4926   33.9047 H   0  0  0  0  0  0  0  0  0  0  0  0
   18.8357    6.1966   36.2630 H   0  0  0  0  0  0  0  0  0  0  0  0
   36.3013   16.4372   24.1224 H   0  0  0  0  0  0  0  0  0  0  0  0
  2  1  1  0
  3  5  1  0
  4  5  1  0
  5 19  2  0
  6  1  2  0
  7  6  1  0
  8  2  2  0
  9  4  1  0
 10  3  1  0
 11 40  1  0
 12 41  1  0
 13  8  1  0
 14  9  2  0
 15  2  1  0
 16 10  2  0
 17 11  1  0
 18 12  1  0
 19 25  1  0
 20  6  1  0
 21 11  2  0
 22 11  2  0
 23 12  2  0
 24 12  2  0
 25 29  2  0
 26 20  2  0
 27 26  1  0
 28 27  2  0
 29 28  1  0
 30  1  1  0
 31 14  1  0
 32 34  1  0
 33 16  1  0
 34 15  2  0
 35  3  1  0
 36  4  1  0
 37  4  1  0
 38  7  1  0
 39  7  1  0
 40 48  1  0
 41 49  1  0
 42 14  1  0
 43 13  2  0
 44 32  2  0
 45 31  1  0
 46 30  1  0
 47 35  1  0
 48 47  1  0
 49 46  1  0
 50 43  1  0
 51 42  2  0
 52 51  1  0
 53 44  1  0
  7  8  1  0
 13 32  1  0
 53 50  2  0
 10  9  1  0
 31 33  2  0
 52 45  2  0
 15 54  1  0
 16 55  1  0
 19 56  1  0
 20 57  1  0
 25 58  1  0
 26 59  1  0
 27 60  1  0
 28 61  1  0
 29 62  1  0
 30 63  1  0
 30 64  1  0
 33 65  1  0
 34 66  1  0
 35 67  1  0
 35 68  1  0
 36 69  1  0
 36 70  1  0
 36 71  1  0
 37 72  1  0
 37 73  1  0
 37 74  1  0
 38 75  1  0
 38 76  1  0
 38 77  1  0
 39 78  1  0
 39 79  1  0
 39 80  1  0
 40 81  1  0
 40 82  1  0
 41 83  1  0
 41 84  1  0
 42 85  1  0
 43 86  1  0
 44 87  1  0
 45 88  1  0
 46 89  1  0
 46 90  1  0
 47 91  1  0
 47 92  1  0
 48 93  1  0
 48 94  1  0
 49 95  1  0
 49 96  1  0
 50 97  1  0
 51 98  1  0
 52 99  1  0
 53100  1  0
M  CHG  3   1   1  17  -1  18  -1
M  END
> <Uni-Dock RESULT> 
ENERGY=   -4.332  LOWER_BOUND=    0.000  UPPER_BOUND=    0.000
INTER + INTRA:          -4.332
INTER:                  -4.332
INTRA:                   0.000
UNBOUND:                 0.000

$$$$

     RDKit          3D

100105  0  0  0  0  0  0  0  0999 V2000
   29.8717   13.0066   22.6927 N   0  0  0  0  0  0  0  0  0  0  0  0
   31.1171   13.6844   22.5595 C   0  0  0  0  0  0  0  0  0  0  0  0
   24.1268    9.4868   31.9019 N   0  0  0  0  0  0  0  0  0  0  0  0
   22.3065    8.0871   31.0428 C   0  0  0  0  0  0  0  0  0  0  0  0
   23.5280    8.9369   30.7134 C   0  0  0  0  0  0  0  0  0  0  0  0
   29.6903   12.7253   23.9582 C   0  0  0  0  0  0  0  0  0  0  0  0
   30.8577   13.2023   24.8334 C   0  0  0  0  0  0  0  0  0  0  0  0
   31.7472   13.8194   23.7748 C   0  0  0  0  0  0  0  0  0  0  0  0
   22.2230    8.2749   32.5482 C   0  0  0  0  0  0  0  0  0  0  0  0
   23.2678    9.0851   32.9666 C   0  0  0  0  0  0  0  0  0  0  0  0
   28.0727   11.3512   34.7625 S   0  0  0  0  0  0  0  0  0  0  0  0
   29.4215   10.5984   17.8037 S   0  0  0  0  0  0  0  0  0  0  0  0
   33.0149   14.4431   23.8675 C   0  0  0  0  0  0  0  0  0  0  0  0
   21.3078    7.7429   33.4969 C   0  0  0  0  0  0  0  0  0  0  0  0
   31.6938   14.1628   21.3784 C   0  0  0  0  0  0  0  0  0  0  0  0
   23.4457    9.4112   34.3140 C   0  0  0  0  0  0  0  0  0  0  0  0
   29.5051   10.9979   35.5641 O   0  0  0  0  0  0  0  0  0  0  0  0
   29.9251   10.8572   16.2214 O   0  0  0  0  0  0  0  0  0  0  0  0
   23.9399    9.1490   29.4421 C   0  0  0  0  0  0  0  0  0  0  0  0
   28.5104   11.9439   24.4417 C   0  0  0  0  0  0  0  0  0  0  0  0
   27.7447   12.8046   34.9566 O   0  0  0  0  0  0  0  0  0  0  0  0
   26.9725   10.5067   35.3391 O   0  0  0  0  0  0  0  0  0  0  0  0
   28.0024   11.0735   17.9463 O   0  0  0  0  0  0  0  0  0  0  0  0
   29.4913    9.1279   18.1049 O   0  0  0  0  0  0  0  0  0  0  0  0
   24.9802   10.1050   29.0202 C   0  0  0  0  0  0  0  0  0  0  0  0
   28.1422   11.8460   25.7232 C   0  0  0  0  0  0  0  0  0  0  0  0
   27.0043   10.9967   26.1167 C   0  0  0  0  0  0  0  0  0  0  0  0
   26.5609   10.9788   27.3749 C   0  0  0  0  0  0  0  0  0  0  0  0
   25.4836   10.0629   27.7849 C   0  0  0  0  0  0  0  0  0  0  0  0
   28.9703   12.6566   21.5799 C   0  0  0  0  0  0  0  0  0  0  0  0
   21.4863    8.0829   34.8700 C   0  0  0  0  0  0  0  0  0  0  0  0
   33.6201   14.9135   22.6671 C   0  0  0  0  0  0  0  0  0  0  0  0
   22.5497    8.9149   35.2612 C   0  0  0  0  0  0  0  0  0  0  0  0
   32.9508   14.7721   21.4361 C   0  0  0  0  0  0  0  0  0  0  0  0
   25.5556    9.7636   32.1115 C   0  0  0  0  0  0  0  0  0  0  0  0
   21.0589    8.6550   30.3319 C   0  0  0  0  0  0  0  0  0  0  0  0
   22.5879    6.6193   30.6646 C   0  0  0  0  0  0  0  0  0  0  0  0
   31.5498   11.9884   25.4871 C   0  0  0  0  0  0  0  0  0  0  0  0
   30.4052   14.2723   25.8589 C   0  0  0  0  0  0  0  0  0  0  0  0
   28.2750   10.9856   33.0224 C   0  0  0  0  0  0  0  0  0  0  0  0
   30.4886   11.5164   18.9102 C   0  0  0  0  0  0  0  0  0  0  0  0
   20.2414    6.8881   33.1501 C   0  0  0  0  0  0  0  0  0  0  0  0
   33.6954   14.6199   25.0876 C   0  0  0  0  0  0  0  0  0  0  0  0
   34.8847   15.5210   22.7140 C   0  0  0  0  0  0  0  0  0  0  0  0
   20.6055    7.5778   35.8398 C   0  0  0  0  0  0  0  0  0  0  0  0
   29.1735   11.2011   21.1147 C   0  0  0  0  0  0  0  0  0  0  0  0
   25.7835   11.2614   32.3802 C   0  0  0  0  0  0  0  0  0  0  0  0
   27.2393   11.6946   32.1348 C   0  0  0  0  0  0  0  0  0  0  0  0
   30.4863   10.9634   20.3460 C   0  0  0  0  0  0  0  0  0  0  0  0
   34.9532   15.2271   25.1140 C   0  0  0  0  0  0  0  0  0  0  0  0
   19.3752    6.3955   34.1299 C   0  0  0  0  0  0  0  0  0  0  0  0
   19.5554    6.7396   35.4687 C   0  0  0  0  0  0  0  0  0  0  0  0
   35.5471   15.6723   23.9328 C   0  0  0  0  0  0  0  0  0  0  0  0
   31.1994   14.0665   20.4251 H   0  0  0  0  0  0  0  0  0  0  0  0
   24.2653   10.0336   34.6381 H   0  0  0  0  0  0  0  0  0  0  0  0
   23.4340    8.6111   28.6497 H   0  0  0  0  0  0  0  0  0  0  0  0
   27.9035   11.4230   23.7140 H   0  0  0  0  0  0  0  0  0  0  0  0
   25.3249   10.8713   29.6935 H   0  0  0  0  0  0  0  0  0  0  0  0
   28.6770   12.3706   26.4968 H   0  0  0  0  0  0  0  0  0  0  0  0
   26.5377   10.3582   25.3737 H   0  0  0  0  0  0  0  0  0  0  0  0
   27.0111   11.6316   28.1153 H   0  0  0  0  0  0  0  0  0  0  0  0
   25.1204    9.3243   27.0774 H   0  0  0  0  0  0  0  0  0  0  0  0
   29.0970   13.3604   20.7355 H   0  0  0  0  0  0  0  0  0  0  0  0
   27.9148   12.7937   21.8979 H   0  0  0  0  0  0  0  0  0  0  0  0
   22.6934    9.1719   36.3041 H   0  0  0  0  0  0  0  0  0  0  0  0
   33.4006   15.1339   20.5190 H   0  0  0  0  0  0  0  0  0  0  0  0
   25.9255    9.1716   32.9767 H   0  0  0  0  0  0  0  0  0  0  0  0
   26.1525    9.4130   31.2459 H   0  0  0  0  0  0  0  0  0  0  0  0
   20.9141    9.7235   30.6029 H   0  0  0  0  0  0  0  0  0  0  0  0
   20.1365    8.1077   30.5987 H   0  0  0  0  0  0  0  0  0  0  0  0
   21.1671    8.5851   29.2289 H   0  0  0  0  0  0  0  0  0  0  0  0
   21.7402    5.9532   30.9071 H   0  0  0  0  0  0  0  0  0  0  0  0
   22.7724    6.5246   29.5737 H   0  0  0  0  0  0  0  0  0  0  0  0
   23.4860    6.2479   31.2046 H   0  0  0  0  0  0  0  0  0  0  0  0
   32.4239   12.2875   26.0949 H   0  0  0  0  0  0  0  0  0  0  0  0
   30.8532   11.4482   26.1602 H   0  0  0  0  0  0  0  0  0  0  0  0
   31.8973   11.2755   24.7084 H   0  0  0  0  0  0  0  0  0  0  0  0
   29.4200   14.7054   25.5821 H   0  0  0  0  0  0  0  0  0  0  0  0
   30.3289   13.8488   26.8815 H   0  0  0  0  0  0  0  0  0  0  0  0
   31.1136   15.1218   25.9202 H   0  0  0  0  0  0  0  0  0  0  0  0
   28.2391    9.8874   32.8685 H   0  0  0  0  0  0  0  0  0  0  0  0
   29.2870   11.3273   32.7179 H   0  0  0  0  0  0  0  0  0  0  0  0
   31.5234   11.4495   18.5135 H   0  0  0  0  0  0  0  0  0  0  0  0
   30.1940   12.5836   18.8877 H   0  0  0  0  0  0  0  0  0  0  0  0
   20.0570    6.5813   32.1374 H   0  0  0  0  0  0  0  0  0  0  0  0
   33.2691   14.3085   26.0275 H   0  0  0  0  0  0  0  0  0  0  0  0
   35.3614   15.8779   21.8091 H   0  0  0  0  0  0  0  0  0  0  0  0
   20.7320    7.8267   36.8867 H   0  0  0  0  0  0  0  0  0  0  0  0
   29.1708   10.5295   21.9998 H   0  0  0  0  0  0  0  0  0  0  0  0
   28.3078   10.8954   20.4912 H   0  0  0  0  0  0  0  0  0  0  0  0
   25.4823   11.5201   33.4149 H   0  0  0  0  0  0  0  0  0  0  0  0
   25.1290   11.8635   31.7139 H   0  0  0  0  0  0  0  0  0  0  0  0
   27.3167   12.7922   32.2908 H   0  0  0  0  0  0  0  0  0  0  0  0
   27.4959   11.5020   31.0699 H   0  0  0  0  0  0  0  0  0  0  0  0
   31.3328   11.4079   20.9098 H   0  0  0  0  0  0  0  0  0  0  0  0
   30.6856    9.8704   20.3105 H   0  0  0  0  0  0  0  0  0  0  0  0
   35.4699   15.3546   26.0565 H   0  0  0  0  0  0  0  0  0  0  0  0
   18.5593    5.7413   33.8489 H   0  0  0  0  0  0  0  0  0  0  0  0
   18.8810    6.3530   36.2221 H   0  0  0  0  0  0  0  0  0  0  0  0
   36.5211   16.1433   23.9630 H   0  0  0  0  0  0  0  0  0  0  0  0
  2  1  1  0
  3  5  1  0
  4  5  1  0
  5 19  2  0
  6  1  2  0
  7  6  1  0
  8  2  2  0
  9  4  1  0
 10  3  1  0
 11 40  1  0
 12 41  1  0
 13  8  1  0
 14  9  2  0
 15  2  1  0
 16 10  2  0
 17 11  1  0
 18 12  1  0
 19 25  1  0
 20  6  1  0
 21 11  2  0
 22 11  2  0
 23 12  2  0
 24 12  2  0
 25 29  2  0
 26 20  2  0
 27 26  1  0
 28 27  2  0
 29 28  1  0
 30  1  1  0
 31 14  1  0
 32 34  1  0
 33 16  1  0
 34 15  2  0
 35  3  1  0
 36  4  1  0
 37  4  1  0
 38  7  1  0
 39  7  1  0
 40 48  1  0
 41 49  1  0
 42 14  1  0
 43 13  2  0
 44 32  2  0
 45 31  1  0
 46 30  1  0
 47 35  1  0
 48 47  1  0
 49 46  1  0
 50 43  1  0
 51 42  2  0
 52 51  1  0
 53 44  1  0
  7  8  1  0
 13 32  1  0
 53 50  2  0
 10  9  1  0
 31 33  2  0
 52 45  2  0
 15 54  1  0
 16 55  1  0
 19 56  1  0
 20 57  1  0
 25 58  1  0
 26 59  1  0
 27 60  1  0
 28 61  1  0
 29 62  1  0
 30 63  1  0
 30 64  1  0
 33 65  1  0
 34 66  1  0
 35 67  1  0
 35 68  1  0
 36 69  1  0
 36 70  1  0
 36 71  1  0
 37 72  1  0
 37 73  1  0
 37 74  1  0
 38 75  1  0
 38 76  1  0
 38 77  1  0
 39 78  1  0
 39 79  1  0
 39 80  1  0
 40 81  1  0
 40 82  1  0
 41 83  1  0
 41 84  1  0
 42 85  1  0
 43 86  1  0
 44 87  1  0
 45 88  1  0
 46 89  1  0
 46 90  1  0
 47 91  1  0
 47 92  1  0
 48 93  1  0
 48 94  1  0
 49 95  1  0
 49 96  1  0
 50 97  1  0
 51 98  1  0
 52 99  1  0
 53100  1  0
M  CHG  3   1   1  17  -1  18  -1
M  END
> <Uni-Dock RESULT> 
ENERGY=   -4.243  LOWER_BOUND=    0.237  UPPER_BOUND=    0.237
INTER + INTRA:          -4.243
INTER:                  -4.243
INTRA:                   0.000
UNBOUND:                 0.000

$$$$

     RDKit          3D

100105  0  0  0  0  0  0  0  0999 V2000
   24.3690    2.6339   32.0916 N   0  0  0  0  0  0  0  0  0  0  0  0
   25.4083    1.6977   32.3586 C   0  0  0  0  0  0  0  0  0  0  0  0
   24.6662   13.3455   28.1701 N   0  0  0  0  0  0  0  0  0  0  0  0
   22.3880   14.2077   28.4470 C   0  0  0  0  0  0  0  0  0  0  0  0
   23.3415   13.0347   28.6413 C   0  0  0  0  0  0  0  0  0  0  0  0
   24.9188    3.7733   31.7554 C   0  0  0  0  0  0  0  0  0  0  0  0
   26.4523    3.7078   31.7757 C   0  0  0  0  0  0  0  0  0  0  0  0
   26.6500    2.2686   32.2024 C   0  0  0  0  0  0  0  0  0  0  0  0
   23.2938   15.2003   27.7380 C   0  0  0  0  0  0  0  0  0  0  0  0
   24.5583   14.6479   27.6000 C   0  0  0  0  0  0  0  0  0  0  0  0
   29.8648   12.9012   28.0868 S   0  0  0  0  0  0  0  0  0  0  0  0
   20.3637    0.7503   35.3032 S   0  0  0  0  0  0  0  0  0  0  0  0
   27.8269    1.5192   32.4439 C   0  0  0  0  0  0  0  0  0  0  0  0
   23.0356   16.5181   27.2719 C   0  0  0  0  0  0  0  0  0  0  0  0
   25.2599    0.3627   32.7489 C   0  0  0  0  0  0  0  0  0  0  0  0
   25.6023   15.3533   26.9951 C   0  0  0  0  0  0  0  0  0  0  0  0
   31.3046   13.1956   28.8989 O   0  0  0  0  0  0  0  0  0  0  0  0
   19.8535   -0.7133   35.9524 O   0  0  0  0  0  0  0  0  0  0  0  0
   22.9381   11.8537   29.1639 C   0  0  0  0  0  0  0  0  0  0  0  0
   24.1095    5.0008   31.4812 C   0  0  0  0  0  0  0  0  0  0  0  0
   30.1688   12.2711   26.7571 O   0  0  0  0  0  0  0  0  0  0  0  0
   29.1522   14.2060   27.8732 O   0  0  0  0  0  0  0  0  0  0  0  0
   19.5419    1.0535   34.0816 O   0  0  0  0  0  0  0  0  0  0  0  0
   20.1641    1.8345   36.3244 O   0  0  0  0  0  0  0  0  0  0  0  0
   23.7331   10.6126   29.2070 C   0  0  0  0  0  0  0  0  0  0  0  0
   24.5851    6.1047   30.8961 C   0  0  0  0  0  0  0  0  0  0  0  0
   23.7323    7.2943   30.7276 C   0  0  0  0  0  0  0  0  0  0  0  0
   24.1617    8.3590   30.0479 C   0  0  0  0  0  0  0  0  0  0  0  0
   23.3441    9.5801   29.9579 C   0  0  0  0  0  0  0  0  0  0  0  0
   22.9256    2.3605   32.2138 C   0  0  0  0  0  0  0  0  0  0  0  0
   24.0998   17.2333   26.6482 C   0  0  0  0  0  0  0  0  0  0  0  0
   27.6854    0.1655   32.8634 C   0  0  0  0  0  0  0  0  0  0  0  0
   25.3678   16.6417   26.5143 C   0  0  0  0  0  0  0  0  0  0  0  0
   26.4033   -0.3992   33.0070 C   0  0  0  0  0  0  0  0  0  0  0  0
   25.9306   12.8347   28.7204 C   0  0  0  0  0  0  0  0  0  0  0  0
   21.2030   13.7842   27.5521 C   0  0  0  0  0  0  0  0  0  0  0  0
   21.9338   14.7307   29.8242 C   0  0  0  0  0  0  0  0  0  0  0  0
   27.0017    4.6740   32.8456 C   0  0  0  0  0  0  0  0  0  0  0  0
   27.0549    3.9488   30.3686 C   0  0  0  0  0  0  0  0  0  0  0  0
   28.8521   11.8074   29.0771 C   0  0  0  0  0  0  0  0  0  0  0  0
   22.0934    0.6174   34.8599 C   0  0  0  0  0  0  0  0  0  0  0  0
   21.7854   17.1564   27.4055 C   0  0  0  0  0  0  0  0  0  0  0  0
   29.1210    2.0508   32.2844 C   0  0  0  0  0  0  0  0  0  0  0  0
   28.8274   -0.6058   33.1309 C   0  0  0  0  0  0  0  0  0  0  0  0
   23.8875   18.5381   26.1748 C   0  0  0  0  0  0  0  0  0  0  0  0
   22.3645    2.8408   33.5669 C   0  0  0  0  0  0  0  0  0  0  0  0
   26.7035   12.0394   27.6538 C   0  0  0  0  0  0  0  0  0  0  0  0
   27.7582   11.0987   28.2619 C   0  0  0  0  0  0  0  0  0  0  0  0
   22.7986    1.9819   34.7689 C   0  0  0  0  0  0  0  0  0  0  0  0
   30.2454    1.2674   32.5553 C   0  0  0  0  0  0  0  0  0  0  0  0
   21.5938   18.4557   26.9279 C   0  0  0  0  0  0  0  0  0  0  0  0
   22.6396   19.1433   26.3141 C   0  0  0  0  0  0  0  0  0  0  0  0
   30.0998   -0.0535   32.9802 C   0  0  0  0  0  0  0  0  0  0  0  0
   24.2886   -0.0909   32.8643 H   0  0  0  0  0  0  0  0  0  0  0  0
   26.5878   14.9249   26.8980 H   0  0  0  0  0  0  0  0  0  0  0  0
   21.9255   11.7873   29.5427 H   0  0  0  0  0  0  0  0  0  0  0  0
   23.0665    5.0051   31.7666 H   0  0  0  0  0  0  0  0  0  0  0  0
   24.6217   10.5106   28.6077 H   0  0  0  0  0  0  0  0  0  0  0  0
   25.6037    6.1557   30.5503 H   0  0  0  0  0  0  0  0  0  0  0  0
   22.7490    7.3109   31.1862 H   0  0  0  0  0  0  0  0  0  0  0  0
   25.1355    8.3377   29.5700 H   0  0  0  0  0  0  0  0  0  0  0  0
   22.4293    9.6470   30.5379 H   0  0  0  0  0  0  0  0  0  0  0  0
   22.7151    1.2851   32.0606 H   0  0  0  0  0  0  0  0  0  0  0  0
   22.3788    2.8690   31.3913 H   0  0  0  0  0  0  0  0  0  0  0  0
   26.1817   17.1830   26.0462 H   0  0  0  0  0  0  0  0  0  0  0  0
   26.2867   -1.4306   33.3184 H   0  0  0  0  0  0  0  0  0  0  0  0
   26.5534   13.6860   29.0713 H   0  0  0  0  0  0  0  0  0  0  0  0
   25.7437   12.2219   29.6247 H   0  0  0  0  0  0  0  0  0  0  0  0
   21.5753   13.3797   26.5857 H   0  0  0  0  0  0  0  0  0  0  0  0
   20.5217   14.6256   27.3294 H   0  0  0  0  0  0  0  0  0  0  0  0
   20.5940   12.9996   28.0488 H   0  0  0  0  0  0  0  0  0  0  0  0
   21.2579   15.6010   29.7409 H   0  0  0  0  0  0  0  0  0  0  0  0
   21.3812   13.9435   30.3791 H   0  0  0  0  0  0  0  0  0  0  0  0
   22.8150   15.0331   30.4310 H   0  0  0  0  0  0  0  0  0  0  0  0
   28.1040    4.6262   32.9202 H   0  0  0  0  0  0  0  0  0  0  0  0
   26.7355    5.7240   32.6076 H   0  0  0  0  0  0  0  0  0  0  0  0
   26.5763    4.4293   33.8429 H   0  0  0  0  0  0  0  0  0  0  0  0
   26.2871    3.8275   29.5746 H   0  0  0  0  0  0  0  0  0  0  0  0
   27.4932    4.9643   30.2824 H   0  0  0  0  0  0  0  0  0  0  0  0
   27.8660    3.2327   30.1306 H   0  0  0  0  0  0  0  0  0  0  0  0
   28.4084   12.3761   29.9202 H   0  0  0  0  0  0  0  0  0  0  0  0
   29.5161   11.0329   29.5164 H   0  0  0  0  0  0  0  0  0  0  0  0
   22.5978    0.0171   35.6460 H   0  0  0  0  0  0  0  0  0  0  0  0
   22.1769    0.0552   33.9096 H   0  0  0  0  0  0  0  0  0  0  0  0
   20.9450   16.6811   27.8763 H   0  0  0  0  0  0  0  0  0  0  0  0
   29.2837    3.0598   31.9415 H   0  0  0  0  0  0  0  0  0  0  0  0
   28.7365   -1.6348   33.4573 H   0  0  0  0  0  0  0  0  0  0  0  0
   24.6888   19.0930   25.7014 H   0  0  0  0  0  0  0  0  0  0  0  0
   22.7007    3.8831   33.7540 H   0  0  0  0  0  0  0  0  0  0  0  0
   21.2569    2.8785   33.5075 H   0  0  0  0  0  0  0  0  0  0  0  0
   27.1842   12.7272   26.9297 H   0  0  0  0  0  0  0  0  0  0  0  0
   25.9939   11.4226   27.0616 H   0  0  0  0  0  0  0  0  0  0  0  0
   28.2337   10.5174   27.4427 H   0  0  0  0  0  0  0  0  0  0  0  0
   27.2458   10.3647   28.9219 H   0  0  0  0  0  0  0  0  0  0  0  0
   23.8967    1.8238   34.7355 H   0  0  0  0  0  0  0  0  0  0  0  0
   22.6019    2.5512   35.7032 H   0  0  0  0  0  0  0  0  0  0  0  0
   31.2359    1.6866   32.4336 H   0  0  0  0  0  0  0  0  0  0  0  0
   20.6278   18.9330   27.0357 H   0  0  0  0  0  0  0  0  0  0  0  0
   22.4838   20.1499   25.9477 H   0  0  0  0  0  0  0  0  0  0  0  0
   30.9767   -0.6536   33.1861 H   0  0  0  0  0  0  0  0  0  0  0  0
  2  1  1  0
  3  5  1  0
  4  5  1  0
  5 19  2  0
  6  1  2  0
  7  6  1  0
  8  2  2  0
  9  4  1  0
 10  3  1  0
 11 40  1  0
 12 41  1  0
 13  8  1  0
 14  9  2  0
 15  2  1  0
 16 10  2  0
 17 11  1  0
 18 12  1  0
 19 25  1  0
 20  6  1  0
 21 11  2  0
 22 11  2  0
 23 12  2  0
 24 12  2  0
 25 29  2  0
 26 20  2  0
 27 26  1  0
 28 27  2  0
 29 28  1  0
 30  1  1  0
 31 14  1  0
 32 34  1  0
 33 16  1  0
 34 15  2  0
 35  3  1  0
 36  4  1  0
 37  4  1  0
 38  7  1  0
 39  7  1  0
 40 48  1  0
 41 49  1  0
 42 14  1  0
 43 13  2  0
 44 32  2  0
 45 31  1  0
 46 30  1  0
 47 35  1  0
 48 47  1  0
 49 46  1  0
 50 43  1  0
 51 42  2  0
 52 51  1  0
 53 44  1  0
  7  8  1  0
 13 32  1  0
 53 50  2  0
 10  9  1  0
 31 33  2  0
 52 45  2  0
 15 54  1  0
 16 55  1  0
 19 56  1  0
 20 57  1  0
 25 58  1  0
 26 59  1  0
 27 60  1  0
 28 61  1  0
 29 62  1  0
 30 63  1  0
 30 64  1  0
 33 65  1  0
 34 66  1  0
 35 67  1  0
 35 68  1  0
 36 69  1  0
 36 70  1  0
 36 71  1  0
 37 72  1  0
 37 73  1  0
 37 74  1  0
 38 75  1  0
 38 76  1  0
 38 77  1  0
 39 78  1  0
 39 79  1  0
 39 80  1  0
 40 81  1  0
 40 82  1  0
 41 83  1  0
 41 84  1  0
 42 85  1  0
 43 86  1  0
 44 87  1  0
 45 88  1  0
 46 89  1  0
 46 90  1  0
 47 91  1  0
 47 92  1  0
 48 93  1  0
 48 94  1  0
 49 95  1  0
 49 96  1  0
 50 97  1  0
 51 98  1  0
 52 99  1  0
 53100  1  0
M  CHG  3   1   1  17  -1  18  -1
M  END
> <Uni-Dock RESULT> 
ENERGY=   -3.923  LOWER_BOUND=    6.710  UPPER_BOUND=   13.425
INTER + INTRA:          -3.923
INTER:                  -3.923
INTRA:                   0.000
UNBOUND:                 0.000

$$$$

     RDKit          3D

100105  0  0  0  0  0  0  0  0999 V2000
   30.3371   15.0639   25.0604 N   0  0  0  0  0  0  0  0  0  0  0  0
   31.2154   16.1763   24.9226 C   0  0  0  0  0  0  0  0  0  0  0  0
   31.4955    5.1573   30.6030 N   0  0  0  0  0  0  0  0  0  0  0  0
   29.5944    3.7825   29.8913 C   0  0  0  0  0  0  0  0  0  0  0  0
   30.3271    5.1127   29.7625 C   0  0  0  0  0  0  0  0  0  0  0  0
   30.9705   14.1178   25.7064 C   0  0  0  0  0  0  0  0  0  0  0  0
   32.4053   14.5228   26.0715 C   0  0  0  0  0  0  0  0  0  0  0  0
   32.4444   15.9175   25.4836 C   0  0  0  0  0  0  0  0  0  0  0  0
   30.4285    3.0971   30.9605 C   0  0  0  0  0  0  0  0  0  0  0  0
   31.4743    3.9301   31.3286 C   0  0  0  0  0  0  0  0  0  0  0  0
   36.2748    6.7613   31.9501 S   0  0  0  0  0  0  0  0  0  0  0  0
   27.1391   15.6586   20.6645 S   0  0  0  0  0  0  0  0  0  0  0  0
   33.4796   16.8824   25.4357 C   0  0  0  0  0  0  0  0  0  0  0  0
   30.2986    1.8106   31.5508 C   0  0  0  0  0  0  0  0  0  0  0  0
   30.9382   17.3962   24.2969 C   0  0  0  0  0  0  0  0  0  0  0  0
   32.4143    3.5432   32.2878 C   0  0  0  0  0  0  0  0  0  0  0  0
   37.9152    6.7145   31.5951 O   0  0  0  0  0  0  0  0  0  0  0  0
   26.5717   16.8953   19.6782 O   0  0  0  0  0  0  0  0  0  0  0  0
   29.8768    6.1125   28.9699 C   0  0  0  0  0  0  0  0  0  0  0  0
   30.3607   12.7754   25.9573 C   0  0  0  0  0  0  0  0  0  0  0  0
   36.0626    7.5779   33.1934 O   0  0  0  0  0  0  0  0  0  0  0  0
   35.7876    5.3594   32.1808 O   0  0  0  0  0  0  0  0  0  0  0  0
   26.0739   15.3073   21.6654 O   0  0  0  0  0  0  0  0  0  0  0  0
   27.4459   14.4574   19.8153 O   0  0  0  0  0  0  0  0  0  0  0  0
   30.4046    7.4888   28.9332 C   0  0  0  0  0  0  0  0  0  0  0  0
   30.8465   11.8729   26.8156 C   0  0  0  0  0  0  0  0  0  0  0  0
   30.2189   10.5465   26.9485 C   0  0  0  0  0  0  0  0  0  0  0  0
   30.6270    9.6815   27.8786 C   0  0  0  0  0  0  0  0  0  0  0  0
   30.0608    8.3244   27.9509 C   0  0  0  0  0  0  0  0  0  0  0  0
   28.9643   14.9927   24.5278 C   0  0  0  0  0  0  0  0  0  0  0  0
   31.2540    1.4206   32.5348 C   0  0  0  0  0  0  0  0  0  0  0  0
   33.2138   18.1190   24.7810 C   0  0  0  0  0  0  0  0  0  0  0  0
   32.2971    2.2920   32.8936 C   0  0  0  0  0  0  0  0  0  0  0  0
   31.9444   18.3640   24.2226 C   0  0  0  0  0  0  0  0  0  0  0  0
   32.7458    5.8784   30.3220 C   0  0  0  0  0  0  0  0  0  0  0  0
   28.1457    4.0201   30.3701 C   0  0  0  0  0  0  0  0  0  0  0  0
   29.6589    3.0311   28.5468 C   0  0  0  0  0  0  0  0  0  0  0  0
   33.4080   13.5987   25.3500 C   0  0  0  0  0  0  0  0  0  0  0  0
   32.6144   14.5703   27.6062 C   0  0  0  0  0  0  0  0  0  0  0  0
   35.4019    7.4916   30.5691 C   0  0  0  0  0  0  0  0  0  0  0  0
   28.6132   16.2209   21.5110 C   0  0  0  0  0  0  0  0  0  0  0  0
   29.2810    0.8980   31.2045 C   0  0  0  0  0  0  0  0  0  0  0  0
   34.7496   16.6738   26.0070 C   0  0  0  0  0  0  0  0  0  0  0  0
   34.2196   19.0945   24.6958 C   0  0  0  0  0  0  0  0  0  0  0  0
   31.1628    0.1578   33.1418 C   0  0  0  0  0  0  0  0  0  0  0  0
   28.9135   14.2613   23.1718 C   0  0  0  0  0  0  0  0  0  0  0  0
   33.0188    6.9330   31.4088 C   0  0  0  0  0  0  0  0  0  0  0  0
   34.0083    8.0178   30.9493 C   0  0  0  0  0  0  0  0  0  0  0  0
   29.5047   15.0661   21.9999 C   0  0  0  0  0  0  0  0  0  0  0  0
   35.7376   17.6568   25.9122 C   0  0  0  0  0  0  0  0  0  0  0  0
   29.2070   -0.3544   31.8200 C   0  0  0  0  0  0  0  0  0  0  0  0
   30.1427   -0.7227   32.7853 C   0  0  0  0  0  0  0  0  0  0  0  0
   35.4756   18.8601   25.2565 C   0  0  0  0  0  0  0  0  0  0  0  0
   29.9735   17.6062   23.8634 H   0  0  0  0  0  0  0  0  0  0  0  0
   33.2328    4.1892   32.5651 H   0  0  0  0  0  0  0  0  0  0  0  0
   29.0211    5.9107   28.3374 H   0  0  0  0  0  0  0  0  0  0  0  0
   29.4628   12.5079   25.4173 H   0  0  0  0  0  0  0  0  0  0  0  0
   31.0494    7.8490   29.7167 H   0  0  0  0  0  0  0  0  0  0  0  0
   31.7145   12.0876   27.4157 H   0  0  0  0  0  0  0  0  0  0  0  0
   29.4290   10.2626   26.2608 H   0  0  0  0  0  0  0  0  0  0  0  0
   31.4017    9.9700   28.5813 H   0  0  0  0  0  0  0  0  0  0  0  0
   29.3794    7.9944   27.1734 H   0  0  0  0  0  0  0  0  0  0  0  0
   28.5218   16.0036   24.4458 H   0  0  0  0  0  0  0  0  0  0  0  0
   28.3102   14.4628   25.2526 H   0  0  0  0  0  0  0  0  0  0  0  0
   33.0292    1.9984   33.6366 H   0  0  0  0  0  0  0  0  0  0  0  0
   31.7312   19.3051   23.7292 H   0  0  0  0  0  0  0  0  0  0  0  0
   33.5905    5.1567   30.2857 H   0  0  0  0  0  0  0  0  0  0  0  0
   32.7143    6.3366   29.3134 H   0  0  0  0  0  0  0  0  0  0  0  0
   28.1438    4.5958   31.3213 H   0  0  0  0  0  0  0  0  0  0  0  0
   27.5988    3.0753   30.5426 H   0  0  0  0  0  0  0  0  0  0  0  0
   27.5688    4.5925   29.6133 H   0  0  0  0  0  0  0  0  0  0  0  0
   29.1624    2.0450   28.5926 H   0  0  0  0  0  0  0  0  0  0  0  0
   29.1512    3.6126   27.7486 H   0  0  0  0  0  0  0  0  0  0  0  0
   30.7171    2.8726   28.2447 H   0  0  0  0  0  0  0  0  0  0  0  0
   34.4565   13.8843   25.5553 H   0  0  0  0  0  0  0  0  0  0  0  0
   33.2859   12.5462   25.6778 H   0  0  0  0  0  0  0  0  0  0  0  0
   33.2477   13.6371   24.2509 H   0  0  0  0  0  0  0  0  0  0  0  0
   31.6431   14.5981   28.1452 H   0  0  0  0  0  0  0  0  0  0  0  0
   33.1914   13.6934   27.9653 H   0  0  0  0  0  0  0  0  0  0  0  0
   33.1750   15.4706   27.9264 H   0  0  0  0  0  0  0  0  0  0  0  0
   35.3321    6.7537   29.7435 H   0  0  0  0  0  0  0  0  0  0  0  0
   36.0069    8.3453   30.1966 H   0  0  0  0  0  0  0  0  0  0  0  0
   29.1999   16.8342   20.7952 H   0  0  0  0  0  0  0  0  0  0  0  0
   28.3150   16.8830   22.3470 H   0  0  0  0  0  0  0  0  0  0  0  0
   28.5369    1.1215   30.4627 H   0  0  0  0  0  0  0  0  0  0  0  0
   34.9929   15.7680   26.5386 H   0  0  0  0  0  0  0  0  0  0  0  0
   34.0353   20.0374   24.1953 H   0  0  0  0  0  0  0  0  0  0  0  0
   31.8842   -0.1513   33.8889 H   0  0  0  0  0  0  0  0  0  0  0  0
   29.4776   13.3072   23.2485 H   0  0  0  0  0  0  0  0  0  0  0  0
   27.8625   13.9827   22.9491 H   0  0  0  0  0  0  0  0  0  0  0  0
   33.3920    6.4493   32.3335 H   0  0  0  0  0  0  0  0  0  0  0  0
   32.0673    7.4330   31.6905 H   0  0  0  0  0  0  0  0  0  0  0  0
   34.1124    8.7725   31.7583 H   0  0  0  0  0  0  0  0  0  0  0  0
   33.5783    8.5458   30.0700 H   0  0  0  0  0  0  0  0  0  0  0  0
   30.4978   15.4689   22.2891 H   0  0  0  0  0  0  0  0  0  0  0  0
   29.6933   14.3736   21.1511 H   0  0  0  0  0  0  0  0  0  0  0  0
   36.7120   17.4851   26.3511 H   0  0  0  0  0  0  0  0  0  0  0  0
   28.4190   -1.0445   31.5455 H   0  0  0  0  0  0  0  0  0  0  0  0
   30.0796   -1.6951   33.2568 H   0  0  0  0  0  0  0  0  0  0  0  0
   36.2465   19.6168   25.1894 H   0  0  0  0  0  0  0  0  0  0  0  0
  2  1  1  0
  3  5  1  0
  4  5  1  0
  5 19  2  0
  6  1  2  0
  7  6  1  0
  8  2  2  0
  9  4  1  0
 10  3  1  0
 11 40  1  0
 12 41  1  0
 13  8  1  0
 14  9  2  0
 15  2  1  0
 16 10  2  0
 17 11  1  0
 18 12  1  0
 19 25  1  0
 20  6  1  0
 21 11  2  0
 22 11  2  0
 23 12  2  0
 24 12  2  0
 25 29  2  0
 26 20  2  0
 27 26  1  0
 28 27  2  0
 29 28  1  0
 30  1  1  0
 31 14  1  0
 32 34  1  0
 33 16  1  0
 34 15  2  0
 35  3  1  0
 36  4  1  0
 37  4  1  0
 38  7  1  0
 39  7  1  0
 40 48  1  0
 41 49  1  0
 42 14  1  0
 43 13  2  0
 44 32  2  0
 45 31  1  0
 46 30  1  0
 47 35  1  0
 48 47  1  0
 49 46  1  0
 50 43  1  0
 51 42  2  0
 52 51  1  0
 53 44  1  0
  7  8  1  0
 13 32  1  0
 53 50  2  0
 10  9  1  0
 31 33  2  0
 52 45  2  0
 15 54  1  0
 16 55  1  0
 19 56  1  0
 20 57  1  0
 25 58  1  0
 26 59  1  0
 27 60  1  0
 28 61  1  0
 29 62  1  0
 30 63  1  0
 30 64  1  0
 33 65  1  0
 34 66  1  0
 35 67  1  0
 35 68  1  0
 36 69  1  0
 36 70  1  0
 36 71  1  0
 37 72  1  0
 37 73  1  0
 37 74  1  0
 38 75  1  0
 38 76  1  0
 38 77  1  0
 39 78  1  0
 39 79  1  0
 39 80  1  0
 40 81  1  0
 40 82  1  0
 41 83  1  0
 41 84  1  0
 42 85  1  0
 43 86  1  0
 44 87  1  0
 45 88  1  0
 46 89  1  0
 46 90  1  0
 47 91  1  0
 47 92  1  0
 48 93  1  0
 48 94  1  0
 49 95  1  0
 49 96  1  0
 50 97  1  0
 51 98  1  0
 52 99  1  0
 53100  1  0
M  CHG  3   1   1  17  -1  18  -1
M  END
> <Uni-Dock RESULT> 
ENERGY=   -3.865  LOWER_BOUND=    6.342  UPPER_BOUND=    7.506
INTER + INTRA:          -3.865
INTER:                  -3.865
INTRA:                   0.000
UNBOUND:                 0.000

$$$$

     RDKit          3D

100105  0  0  0  0  0  0  0  0999 V2000
   28.9061   13.3212   22.7895 N   0  0  0  0  0  0  0  0  0  0  0  0
   29.6981   14.4868   22.5844 C   0  0  0  0  0  0  0  0  0  0  0  0
   23.5891    9.3293   32.0631 N   0  0  0  0  0  0  0  0  0  0  0  0
   22.8451    7.0699   31.4697 C   0  0  0  0  0  0  0  0  0  0  0  0
   23.5797    8.3296   31.0267 C   0  0  0  0  0  0  0  0  0  0  0  0
   28.6071   13.2463   24.0618 C   0  0  0  0  0  0  0  0  0  0  0  0
   29.2075   14.4051   24.8697 C   0  0  0  0  0  0  0  0  0  0  0  0
   29.9189   15.1574   23.7649 C   0  0  0  0  0  0  0  0  0  0  0  0
   22.3639    7.4876   32.8491 C   0  0  0  0  0  0  0  0  0  0  0  0
   22.8040    8.7752   33.1164 C   0  0  0  0  0  0  0  0  0  0  0  0
   25.5240   13.4395   34.6304 S   0  0  0  0  0  0  0  0  0  0  0  0
   30.6705   10.0882   18.7474 S   0  0  0  0  0  0  0  0  0  0  0  0
   30.7065   16.3337   23.7928 C   0  0  0  0  0  0  0  0  0  0  0  0
   21.6150    6.7723   33.8227 C   0  0  0  0  0  0  0  0  0  0  0  0
   30.2296   14.9418   21.3732 C   0  0  0  0  0  0  0  0  0  0  0  0
   22.5188    9.4082   34.3294 C   0  0  0  0  0  0  0  0  0  0  0  0
   26.7494   14.0151   35.6235 O   0  0  0  0  0  0  0  0  0  0  0  0
   31.3256   10.2413   17.2074 O   0  0  0  0  0  0  0  0  0  0  0  0
   24.1104    8.4598   29.7889 C   0  0  0  0  0  0  0  0  0  0  0  0
   27.8439   12.0958   24.6367 C   0  0  0  0  0  0  0  0  0  0  0  0
   24.5334   14.5413   34.3808 O   0  0  0  0  0  0  0  0  0  0  0  0
   24.8386   12.2942   35.3190 O   0  0  0  0  0  0  0  0  0  0  0  0
   29.1982    9.8106   18.6242 O   0  0  0  0  0  0  0  0  0  0  0  0
   31.3402    8.9424   19.4521 O   0  0  0  0  0  0  0  0  0  0  0  0
   24.6599    9.7003   29.2117 C   0  0  0  0  0  0  0  0  0  0  0  0
   27.2963   12.0857   25.8563 C   0  0  0  0  0  0  0  0  0  0  0  0
   26.6198   10.8810   26.3678 C   0  0  0  0  0  0  0  0  0  0  0  0
   25.9757   10.8963   27.5361 C   0  0  0  0  0  0  0  0  0  0  0  0
   25.3784    9.6688   28.0874 C   0  0  0  0  0  0  0  0  0  0  0  0
   28.5278   12.3545   21.7428 C   0  0  0  0  0  0  0  0  0  0  0  0
   21.3185    7.4225   35.0566 C   0  0  0  0  0  0  0  0  0  0  0  0
   31.2704   16.7922   22.5680 C   0  0  0  0  0  0  0  0  0  0  0  0
   21.7704    8.7323   35.2934 C   0  0  0  0  0  0  0  0  0  0  0  0
   31.0220   16.0936   21.3707 C   0  0  0  0  0  0  0  0  0  0  0  0
   24.6496   10.3165   32.3139 C   0  0  0  0  0  0  0  0  0  0  0  0
   21.6612    6.7856   30.5199 C   0  0  0  0  0  0  0  0  0  0  0  0
   23.8417    5.8960   31.5430 C   0  0  0  0  0  0  0  0  0  0  0  0
   30.2207   13.8562   25.8955 C   0  0  0  0  0  0  0  0  0  0  0  0
   28.1068   15.2873   25.5110 C   0  0  0  0  0  0  0  0  0  0  0  0
   26.2394   12.8842   33.0869 C   0  0  0  0  0  0  0  0  0  0  0  0
   30.9327   11.6153   19.6444 C   0  0  0  0  0  0  0  0  0  0  0  0
   21.1615    5.4506   33.6345 C   0  0  0  0  0  0  0  0  0  0  0  0
   30.9506   17.0656   24.9708 C   0  0  0  0  0  0  0  0  0  0  0  0
   32.0725   17.9442   22.5563 C   0  0  0  0  0  0  0  0  0  0  0  0
   20.5823    6.7512   36.0460 C   0  0  0  0  0  0  0  0  0  0  0  0
   29.4701   11.1346   21.7225 C   0  0  0  0  0  0  0  0  0  0  0  0
   24.1019   11.7475   32.1730 C   0  0  0  0  0  0  0  0  0  0  0  0
   25.2115   12.7892   31.9477 C   0  0  0  0  0  0  0  0  0  0  0  0
   30.8761   11.4345   21.1714 C   0  0  0  0  0  0  0  0  0  0  0  0
   31.7514   18.2097   24.9390 C   0  0  0  0  0  0  0  0  0  0  0  0
   20.4300    4.7991   34.6313 C   0  0  0  0  0  0  0  0  0  0  0  0
   20.1405    5.4467   35.8312 C   0  0  0  0  0  0  0  0  0  0  0  0
   32.3130   18.6453   23.7385 C   0  0  0  0  0  0  0  0  0  0  0  0
   30.0518   14.4238   20.4444 H   0  0  0  0  0  0  0  0  0  0  0  0
   22.8709   10.4064   34.5388 H   0  0  0  0  0  0  0  0  0  0  0  0
   24.0906    7.5956   29.1362 H   0  0  0  0  0  0  0  0  0  0  0  0
   27.7153   11.2085   24.0320 H   0  0  0  0  0  0  0  0  0  0  0  0
   24.4616   10.6532   29.6723 H   0  0  0  0  0  0  0  0  0  0  0  0
   27.3511   12.9494   26.4972 H   0  0  0  0  0  0  0  0  0  0  0  0
   26.6694    9.9613   25.7940 H   0  0  0  0  0  0  0  0  0  0  0  0
   25.9059   11.8193   28.1020 H   0  0  0  0  0  0  0  0  0  0  0  0
   25.5555    8.7234   27.5848 H   0  0  0  0  0  0  0  0  0  0  0  0
   28.4956   12.8427   20.7503 H   0  0  0  0  0  0  0  0  0  0  0  0
   27.4864   12.0079   21.9141 H   0  0  0  0  0  0  0  0  0  0  0  0
   21.5528    9.2291   36.2316 H   0  0  0  0  0  0  0  0  0  0  0  0
   31.4409   16.4397   20.4331 H   0  0  0  0  0  0  0  0  0  0  0  0
   25.0543   10.1741   33.3395 H   0  0  0  0  0  0  0  0  0  0  0  0
   25.5107   10.1451   31.6376 H   0  0  0  0  0  0  0  0  0  0  0  0
   20.9884    7.6691   30.4677 H   0  0  0  0  0  0  0  0  0  0  0  0
   21.0592    5.9176   30.8453 H   0  0  0  0  0  0  0  0  0  0  0  0
   22.0232    6.5601   29.4946 H   0  0  0  0  0  0  0  0  0  0  0  0
   23.3639    4.9602   31.8850 H   0  0  0  0  0  0  0  0  0  0  0  0
   24.2782    5.6901   30.5430 H   0  0  0  0  0  0  0  0  0  0  0  0
   24.6707    6.1379   32.2433 H   0  0  0  0  0  0  0  0  0  0  0  0
   30.7071   14.6655   26.4713 H   0  0  0  0  0  0  0  0  0  0  0  0
   29.7231   13.1879   26.6275 H   0  0  0  0  0  0  0  0  0  0  0  0
   31.0142   13.2722   25.3811 H   0  0  0  0  0  0  0  0  0  0  0  0
   27.1180   15.1067   25.0374 H   0  0  0  0  0  0  0  0  0  0  0  0
   28.0158   15.0963   26.6001 H   0  0  0  0  0  0  0  0  0  0  0  0
   28.3152   16.3693   25.3958 H   0  0  0  0  0  0  0  0  0  0  0  0
   26.7449   11.9090   33.2431 H   0  0  0  0  0  0  0  0  0  0  0  0
   27.0209   13.6158   32.7908 H   0  0  0  0  0  0  0  0  0  0  0  0
   31.9410   11.9951   19.3764 H   0  0  0  0  0  0  0  0  0  0  0  0
   30.1942   12.3646   19.2987 H   0  0  0  0  0  0  0  0  0  0  0  0
   21.3603    4.8975   32.7353 H   0  0  0  0  0  0  0  0  0  0  0  0
   30.5241   16.7782   25.9182 H   0  0  0  0  0  0  0  0  0  0  0  0
   32.5142   18.3019   21.6341 H   0  0  0  0  0  0  0  0  0  0  0  0
   20.3528    7.2334   36.9888 H   0  0  0  0  0  0  0  0  0  0  0  0
   29.5857   10.7435   22.7559 H   0  0  0  0  0  0  0  0  0  0  0  0
   28.9973   10.3209   21.1343 H   0  0  0  0  0  0  0  0  0  0  0  0
   23.5016   12.0224   33.0632 H   0  0  0  0  0  0  0  0  0  0  0  0
   23.4044   11.7964   31.3095 H   0  0  0  0  0  0  0  0  0  0  0  0
   24.7417   13.7851   31.7973 H   0  0  0  0  0  0  0  0  0  0  0  0
   25.7496   12.5418   31.0064 H   0  0  0  0  0  0  0  0  0  0  0  0
   31.2816   12.3438   21.6619 H   0  0  0  0  0  0  0  0  0  0  0  0
   31.5567   10.6044   21.4603 H   0  0  0  0  0  0  0  0  0  0  0  0
   31.9364   18.7631   25.8508 H   0  0  0  0  0  0  0  0  0  0  0  0
   20.0865    3.7846   34.4723 H   0  0  0  0  0  0  0  0  0  0  0  0
   19.5744    4.9352   36.5992 H   0  0  0  0  0  0  0  0  0  0  0  0
   32.9307   19.5339   23.7230 H   0  0  0  0  0  0  0  0  0  0  0  0
  2  1  1  0
  3  5  1  0
  4  5  1  0
  5 19  2  0
  6  1  2  0
  7  6  1  0
  8  2  2  0
  9  4  1  0
 10  3  1  0
 11 40  1  0
 12 41  1  0
 13  8  1  0
 14  9  2  0
 15  2  1  0
 16 10  2  0
 17 11  1  0
 18 12  1  0
 19 25  1  0
 20  6  1  0
 21 11  2  0
 22 11  2  0
 23 12  2  0
 24 12  2  0
 25 29  2  0
 26 20  2  0
 27 26  1  0
 28 27  2  0
 29 28  1  0
 30  1  1  0
 31 14  1  0
 32 34  1  0
 33 16  1  0
 34 15  2  0
 35  3  1  0
 36  4  1  0
 37  4  1  0
 38  7  1  0
 39  7  1  0
 40 48  1  0
 41 49  1  0
 42 14  1  0
 43 13  2  0
 44 32  2  0
 45 31  1  0
 46 30  1  0
 47 35  1  0
 48 47  1  0
 49 46  1  0
 50 43  1  0
 51 42  2  0
 52 51  1  0
 53 44  1  0
  7  8  1  0
 13 32  1  0
 53 50  2  0
 10  9  1  0
 31 33  2  0
 52 45  2  0
 15 54  1  0
 16 55  1  0
 19 56  1  0
 20 57  1  0
 25 58  1  0
 26 59  1  0
 27 60  1  0
 28 61  1  0
 29 62  1  0
 30 63  1  0
 30 64  1  0
 33 65  1  0
 34 66  1  0
 35 67  1  0
 35 68  1  0
 36 69  1  0
 36 70  1  0
 36 71  1  0
 37 72  1  0
 37 73  1  0
 37 74  1  0
 38 75  1  0
 38 76  1  0
 38 77  1  0
 39 78  1  0
 39 79  1  0
 39 80  1  0
 40 81  1  0
 40 82  1  0
 41 83  1  0
 41 84  1  0
 42 85  1  0
 43 86  1  0
 44 87  1  0
 45 88  1  0
 46 89  1  0
 46 90  1  0
 47 91  1  0
 47 92  1  0
 48 93  1  0
 48 94  1  0
 49 95  1  0
 49 96  1  0
 50 97  1  0
 51 98  1  0
 52 99  1  0
 53100  1  0
M  CHG  3   1   1  17  -1  18  -1
M  END
> <Uni-Dock RESULT> 
ENERGY=   -3.799  LOWER_BOUND=    1.773  UPPER_BOUND=    1.894
INTER + INTRA:          -3.799
INTER:                  -3.799
INTRA:                   0.000
UNBOUND:                 0.000

$$$$

     RDKit          3D

100105  0  0  0  0  0  0  0  0999 V2000
   30.8843   13.6133   19.6631 N   0  0  0  0  0  0  0  0  0  0  0  0
   29.6904   13.2442   18.9803 C   0  0  0  0  0  0  0  0  0  0  0  0
   35.2618   10.1878   29.6284 N   0  0  0  0  0  0  0  0  0  0  0  0
   37.1300   11.7095   30.0807 C   0  0  0  0  0  0  0  0  0  0  0  0
   35.9911   11.3301   29.1418 C   0  0  0  0  0  0  0  0  0  0  0  0
   30.8901   13.0206   20.8302 C   0  0  0  0  0  0  0  0  0  0  0  0
   29.6357   12.1648   21.0544 C   0  0  0  0  0  0  0  0  0  0  0  0
   28.9127   12.4074   19.7464 C   0  0  0  0  0  0  0  0  0  0  0  0
   37.0235   10.6081   31.1219 C   0  0  0  0  0  0  0  0  0  0  0  0
   35.9611    9.7766   30.8009 C   0  0  0  0  0  0  0  0  0  0  0  0
   31.0428    7.1620   30.1518 S   0  0  0  0  0  0  0  0  0  0  0  0
   31.8846   18.5392   17.5091 S   0  0  0  0  0  0  0  0  0  0  0  0
   27.6654   11.9384   19.2677 C   0  0  0  0  0  0  0  0  0  0  0  0
   37.7892   10.3679   32.2952 C   0  0  0  0  0  0  0  0  0  0  0  0
   29.2885   13.6536   17.7046 C   0  0  0  0  0  0  0  0  0  0  0  0
   35.6208    8.6830   31.6019 C   0  0  0  0  0  0  0  0  0  0  0  0
   29.5073    7.0094   30.8137 O   0  0  0  0  0  0  0  0  0  0  0  0
   31.5999   19.3678   16.0750 O   0  0  0  0  0  0  0  0  0  0  0  0
   35.7553   11.9930   27.9860 C   0  0  0  0  0  0  0  0  0  0  0  0
   31.9702   13.2521   21.8385 C   0  0  0  0  0  0  0  0  0  0  0  0
   31.3916    5.8976   29.4190 O   0  0  0  0  0  0  0  0  0  0  0  0
   32.0296    7.3880   31.2614 O   0  0  0  0  0  0  0  0  0  0  0  0
   33.2883   18.0016   17.4898 O   0  0  0  0  0  0  0  0  0  0  0  0
   31.7266   19.4893   18.6625 O   0  0  0  0  0  0  0  0  0  0  0  0
   34.8115   11.5797   26.9313 C   0  0  0  0  0  0  0  0  0  0  0  0
   32.1652   12.4970   22.9243 C   0  0  0  0  0  0  0  0  0  0  0  0
   33.2130   12.8403   23.9016 C   0  0  0  0  0  0  0  0  0  0  0  0
   33.4884   12.0338   24.9282 C   0  0  0  0  0  0  0  0  0  0  0  0
   34.4717   12.4215   25.9530 C   0  0  0  0  0  0  0  0  0  0  0  0
   31.9104   14.5362   19.1446 C   0  0  0  0  0  0  0  0  0  0  0  0
   37.4453    9.2473   33.1069 C   0  0  0  0  0  0  0  0  0  0  0  0
   27.2375   12.3678   17.9789 C   0  0  0  0  0  0  0  0  0  0  0  0
   36.3688    8.4172   32.7491 C   0  0  0  0  0  0  0  0  0  0  0  0
   28.0560   13.2173   17.2095 C   0  0  0  0  0  0  0  0  0  0  0  0
   33.8280    9.9222   29.4391 C   0  0  0  0  0  0  0  0  0  0  0  0
   38.4779   11.6494   29.3296 C   0  0  0  0  0  0  0  0  0  0  0  0
   36.8509   13.0989   30.6876 C   0  0  0  0  0  0  0  0  0  0  0  0
   28.8240   12.7289   22.2388 C   0  0  0  0  0  0  0  0  0  0  0  0
   29.9870   10.6641   21.2149 C   0  0  0  0  0  0  0  0  0  0  0  0
   31.0561    8.5559   29.0296 C   0  0  0  0  0  0  0  0  0  0  0  0
   30.7143   17.1908   17.6428 C   0  0  0  0  0  0  0  0  0  0  0  0
   38.8622   11.1873   32.7017 C   0  0  0  0  0  0  0  0  0  0  0  0
   26.8385   11.0691   20.0048 C   0  0  0  0  0  0  0  0  0  0  0  0
   25.9988   11.9402   17.4757 C   0  0  0  0  0  0  0  0  0  0  0  0
   38.1752    8.9749   34.2751 C   0  0  0  0  0  0  0  0  0  0  0  0
   31.7204   15.9666   19.6868 C   0  0  0  0  0  0  0  0  0  0  0  0
   33.6178    8.6077   28.6674 C   0  0  0  0  0  0  0  0  0  0  0  0
   32.2218    8.5103   28.0283 C   0  0  0  0  0  0  0  0  0  0  0  0
   30.5113   16.7105   19.0904 C   0  0  0  0  0  0  0  0  0  0  0  0
   25.6092   10.6543   19.4871 C   0  0  0  0  0  0  0  0  0  0  0  0
   39.5766   10.8998   33.8679 C   0  0  0  0  0  0  0  0  0  0  0  0
   39.2357    9.7979   34.6506 C   0  0  0  0  0  0  0  0  0  0  0  0
   25.1891   11.0904   18.2302 C   0  0  0  0  0  0  0  0  0  0  0  0
   29.8991   14.3026   17.0975 H   0  0  0  0  0  0  0  0  0  0  0  0
   34.7875    8.0435   31.3553 H   0  0  0  0  0  0  0  0  0  0  0  0
   36.3415   12.8809   27.7831 H   0  0  0  0  0  0  0  0  0  0  0  0
   32.6486   14.0803   21.6865 H   0  0  0  0  0  0  0  0  0  0  0  0
   34.4082   10.5814   26.9180 H   0  0  0  0  0  0  0  0  0  0  0  0
   31.5525   11.6328   23.1177 H   0  0  0  0  0  0  0  0  0  0  0  0
   33.7505   13.7770   23.7955 H   0  0  0  0  0  0  0  0  0  0  0  0
   32.9680   11.0867   25.0253 H   0  0  0  0  0  0  0  0  0  0  0  0
   34.8986   13.4189   25.9247 H   0  0  0  0  0  0  0  0  0  0  0  0
   31.9183   14.5332   18.0381 H   0  0  0  0  0  0  0  0  0  0  0  0
   32.9197   14.1695   19.4291 H   0  0  0  0  0  0  0  0  0  0  0  0
   36.0996    7.5675   33.3655 H   0  0  0  0  0  0  0  0  0  0  0  0
   27.7416   13.5428   16.2249 H   0  0  0  0  0  0  0  0  0  0  0  0
   33.3292    9.8537   30.4302 H   0  0  0  0  0  0  0  0  0  0  0  0
   33.3372   10.7740   28.9274 H   0  0  0  0  0  0  0  0  0  0  0  0
   38.6223   10.6441   28.8771 H   0  0  0  0  0  0  0  0  0  0  0  0
   39.3389   11.8515   29.9925 H   0  0  0  0  0  0  0  0  0  0  0  0
   38.5116   12.4067   28.5181 H   0  0  0  0  0  0  0  0  0  0  0  0
   37.6369   13.4125   31.3982 H   0  0  0  0  0  0  0  0  0  0  0  0
   36.8066   13.8720   29.8918 H   0  0  0  0  0  0  0  0  0  0  0  0
   35.8782   13.0954   31.2262 H   0  0  0  0  0  0  0  0  0  0  0  0
   27.8889   12.1630   22.4072 H   0  0  0  0  0  0  0  0  0  0  0  0
   29.4086   12.6816   23.1801 H   0  0  0  0  0  0  0  0  0  0  0  0
   28.5568   13.7917   22.0534 H   0  0  0  0  0  0  0  0  0  0  0  0
   31.0138   10.4486   20.8490 H   0  0  0  0  0  0  0  0  0  0  0  0
   29.9154   10.3408   22.2737 H   0  0  0  0  0  0  0  0  0  0  0  0
   29.3057   10.0089   20.6372 H   0  0  0  0  0  0  0  0  0  0  0  0
   31.0746    9.4999   29.6123 H   0  0  0  0  0  0  0  0  0  0  0  0
   30.1044    8.5415   28.4571 H   0  0  0  0  0  0  0  0  0  0  0  0
   29.7381   17.5518   17.2561 H   0  0  0  0  0  0  0  0  0  0  0  0
   31.0451   16.3635   16.9852 H   0  0  0  0  0  0  0  0  0  0  0  0
   39.1662   12.0542   32.1449 H   0  0  0  0  0  0  0  0  0  0  0  0
   27.1283   10.6916   20.9721 H   0  0  0  0  0  0  0  0  0  0  0  0
   25.6561   12.2634   16.5002 H   0  0  0  0  0  0  0  0  0  0  0  0
   37.9221    8.1280   34.9018 H   0  0  0  0  0  0  0  0  0  0  0  0
   31.5854   15.9261   20.7889 H   0  0  0  0  0  0  0  0  0  0  0  0
   32.6490   16.5480   19.5096 H   0  0  0  0  0  0  0  0  0  0  0  0
   33.7906    7.7367   29.3307 H   0  0  0  0  0  0  0  0  0  0  0  0
   34.3733    8.5265   27.8566 H   0  0  0  0  0  0  0  0  0  0  0  0
   32.1617    7.5678   27.4424 H   0  0  0  0  0  0  0  0  0  0  0  0
   32.0993    9.3468   27.3056 H   0  0  0  0  0  0  0  0  0  0  0  0
   29.6142   16.0585   19.1363 H   0  0  0  0  0  0  0  0  0  0  0  0
   30.2816   17.5889   19.7316 H   0  0  0  0  0  0  0  0  0  0  0  0
   24.9789    9.9892   20.0634 H   0  0  0  0  0  0  0  0  0  0  0  0
   40.3996   11.5368   34.1671 H   0  0  0  0  0  0  0  0  0  0  0  0
   39.7930    9.5822   35.5533 H   0  0  0  0  0  0  0  0  0  0  0  0
   24.2359   10.7624   17.8363 H   0  0  0  0  0  0  0  0  0  0  0  0
  2  1  1  0
  3  5  1  0
  4  5  1  0
  5 19  2  0
  6  1  2  0
  7  6  1  0
  8  2  2  0
  9  4  1  0
 10  3  1  0
 11 40  1  0
 12 41  1  0
 13  8  1  0
 14  9  2  0
 15  2  1  0
 16 10  2  0
 17 11  1  0
 18 12  1  0
 19 25  1  0
 20  6  1  0
 21 11  2  0
 22 11  2  0
 23 12  2  0
 24 12  2  0
 25 29  2  0
 26 20  2  0
 27 26  1  0
 28 27  2  0
 29 28  1  0
 30  1  1  0
 31 14  1  0
 32 34  1  0
 33 16  1  0
 34 15  2  0
 35  3  1  0
 36  4  1  0
 37  4  1  0
 38  7  1  0
 39  7  1  0
 40 48  1  0
 41 49  1  0
 42 14  1  0
 43 13  2  0
 44 32  2  0
 45 31  1  0
 46 30  1  0
 47 35  1  0
 48 47  1  0
 49 46  1  0
 50 43  1  0
 51 42  2  0
 52 51  1  0
 53 44  1  0
  7  8  1  0
 13 32  1  0
 53 50  2  0
 10  9  1  0
 31 33  2  0
 52 45  2  0
 15 54  1  0
 16 55  1  0
 19 56  1  0
 20 57  1  0
 25 58  1  0
 26 59  1  0
 27 60  1  0
 28 61  1  0
 29 62  1  0
 30 63  1  0
 30 64  1  0
 33 65  1  0
 34 66  1  0
 35 67  1  0
 35 68  1  0
 36 69  1  0
 36 70  1  0
 36 71  1  0
 37 72  1  0
 37 73  1  0
 37 74  1  0
 38 75  1  0
 38 76  1  0
 38 77  1  0
 39 78  1  0
 39 79  1  0
 39 80  1  0
 40 81  1  0
 40 82  1  0
 41 83  1  0
 41 84  1  0
 42 85  1  0
 43 86  1  0
 44 87  1  0
 45 88  1  0
 46 89  1  0
 46 90  1  0
 47 91  1  0
 47 92  1  0
 48 93  1  0
 48 94  1  0
 49 95  1  0
 49 96  1  0
 50 97  1  0
 51 98  1  0
 52 99  1  0
 53100  1  0
M  CHG  3   1   1  17  -1  18  -1
M  END
> <Uni-Dock RESULT> 
ENERGY=   -3.621  LOWER_BOUND=    7.128  UPPER_BOUND=   10.829
INTER + INTRA:          -3.621
INTER:                  -3.621
INTRA:                   0.000
UNBOUND:                 0.000

$$$$

     RDKit          3D

100105  0  0  0  0  0  0  0  0999 V2000
   29.3120   13.8592   22.7491 N   0  0  0  0  0  0  0  0  0  0  0  0
   30.5776   14.4752   22.5326 C   0  0  0  0  0  0  0  0  0  0  0  0
   24.9559    8.5294   31.8498 N   0  0  0  0  0  0  0  0  0  0  0  0
   22.8771    7.4914   31.0679 C   0  0  0  0  0  0  0  0  0  0  0  0
   24.1023    8.3235   30.7085 C   0  0  0  0  0  0  0  0  0  0  0  0
   29.3295   13.2873   23.9265 C   0  0  0  0  0  0  0  0  0  0  0  0
   30.6765   13.4664   24.6404 C   0  0  0  0  0  0  0  0  0  0  0  0
   31.4235   14.2713   23.5979 C   0  0  0  0  0  0  0  0  0  0  0  0
   23.0815    7.3090   32.5624 C   0  0  0  0  0  0  0  0  0  0  0  0
   24.2622    7.9297   32.9415 C   0  0  0  0  0  0  0  0  0  0  0  0
   29.5179    9.4029   34.2276 S   0  0  0  0  0  0  0  0  0  0  0  0
   27.7554   12.7534   17.6248 S   0  0  0  0  0  0  0  0  0  0  0  0
   32.7454   14.7784   23.5800 C   0  0  0  0  0  0  0  0  0  0  0  0
   22.2987    6.6148   33.5246 C   0  0  0  0  0  0  0  0  0  0  0  0
   30.9824   15.1942   21.4032 C   0  0  0  0  0  0  0  0  0  0  0  0
   24.7088    7.9046   34.2657 C   0  0  0  0  0  0  0  0  0  0  0  0
   31.0252    8.7811   34.6286 O   0  0  0  0  0  0  0  0  0  0  0  0
   27.9949   13.3624   16.0769 O   0  0  0  0  0  0  0  0  0  0  0  0
   24.3022    8.8165   29.4644 C   0  0  0  0  0  0  0  0  0  0  0  0
   28.1793   12.4811   24.4402 C   0  0  0  0  0  0  0  0  0  0  0  0
   29.3821   10.7809   34.8109 O   0  0  0  0  0  0  0  0  0  0  0  0
   28.4558    8.5083   34.7999 O   0  0  0  0  0  0  0  0  0  0  0  0
   26.4412   13.2607   18.1492 O   0  0  0  0  0  0  0  0  0  0  0  0
   27.7247   11.2524   17.5605 O   0  0  0  0  0  0  0  0  0  0  0  0
   25.3447    9.7845   29.0770 C   0  0  0  0  0  0  0  0  0  0  0  0
   28.0359   12.0936   25.7117 C   0  0  0  0  0  0  0  0  0  0  0  0
   26.9039   11.2415   26.1157 C   0  0  0  0  0  0  0  0  0  0  0  0
   26.6909   10.9415   27.3982 C   0  0  0  0  0  0  0  0  0  0  0  0
   25.6142   10.0173   27.7908 C   0  0  0  0  0  0  0  0  0  0  0  0
   28.1964   13.8456   21.7856 C   0  0  0  0  0  0  0  0  0  0  0  0
   22.7520    6.5969   34.8764 C   0  0  0  0  0  0  0  0  0  0  0  0
   33.1738   15.4927   22.4247 C   0  0  0  0  0  0  0  0  0  0  0  0
   23.9483    7.2442   35.2309 C   0  0  0  0  0  0  0  0  0  0  0  0
   32.2860   15.6966   21.3506 C   0  0  0  0  0  0  0  0  0  0  0  0
   26.4202    8.6628   31.8318 C   0  0  0  0  0  0  0  0  0  0  0  0
   21.5890    8.2879   30.7663 C   0  0  0  0  0  0  0  0  0  0  0  0
   22.9332    6.1473   30.3149 C   0  0  0  0  0  0  0  0  0  0  0  0
   31.3438   12.0911   24.8485 C   0  0  0  0  0  0  0  0  0  0  0  0
   30.5263   14.2767   25.9526 C   0  0  0  0  0  0  0  0  0  0  0  0
   29.3698    9.4639   32.4453 C   0  0  0  0  0  0  0  0  0  0  0  0
   29.0911   13.3084   18.6801 C   0  0  0  0  0  0  0  0  0  0  0  0
   21.1049    5.9347   33.2078 C   0  0  0  0  0  0  0  0  0  0  0  0
   33.6459   14.6108   24.6495 C   0  0  0  0  0  0  0  0  0  0  0  0
   34.4828   15.9955   22.3599 C   0  0  0  0  0  0  0  0  0  0  0  0
   22.0093    5.9215   35.8581 C   0  0  0  0  0  0  0  0  0  0  0  0
   28.1619   12.5393   20.9679 C   0  0  0  0  0  0  0  0  0  0  0  0
   26.8462   10.0332   32.3870 C   0  0  0  0  0  0  0  0  0  0  0  0
   28.2724   10.4279   31.9660 C   0  0  0  0  0  0  0  0  0  0  0  0
   29.2859   12.4213   19.9222 C   0  0  0  0  0  0  0  0  0  0  0  0
   34.9445   15.1188   24.5665 C   0  0  0  0  0  0  0  0  0  0  0  0
   20.3797    5.2681   34.1991 C   0  0  0  0  0  0  0  0  0  0  0  0
   20.8289    5.2624   35.5186 C   0  0  0  0  0  0  0  0  0  0  0  0
   35.3627   15.8047   23.4258 C   0  0  0  0  0  0  0  0  0  0  0  0
   30.3196   15.3635   20.5697 H   0  0  0  0  0  0  0  0  0  0  0  0
   25.6330    8.3798   34.5561 H   0  0  0  0  0  0  0  0  0  0  0  0
   23.6109    8.5196   28.6852 H   0  0  0  0  0  0  0  0  0  0  0  0
   27.4024   12.1908   23.7464 H   0  0  0  0  0  0  0  0  0  0  0  0
   25.8809   10.3410   29.8268 H   0  0  0  0  0  0  0  0  0  0  0  0
   28.7507   12.3806   26.4642 H   0  0  0  0  0  0  0  0  0  0  0  0
   26.2493   10.8328   25.3528 H   0  0  0  0  0  0  0  0  0  0  0  0
   27.3304   11.3656   28.1652 H   0  0  0  0  0  0  0  0  0  0  0  0
   25.0568    9.4972   27.0184 H   0  0  0  0  0  0  0  0  0  0  0  0
   28.2437   14.7264   21.1174 H   0  0  0  0  0  0  0  0  0  0  0  0
   27.2339   13.9618   22.3279 H   0  0  0  0  0  0  0  0  0  0  0  0
   24.3003    7.2289   36.2557 H   0  0  0  0  0  0  0  0  0  0  0  0
   32.6013   16.2453   20.4710 H   0  0  0  0  0  0  0  0  0  0  0  0
   26.8740    7.8563   32.4478 H   0  0  0  0  0  0  0  0  0  0  0  0
   26.8146    8.5010   30.8088 H   0  0  0  0  0  0  0  0  0  0  0  0
   21.6060    9.2639   31.2985 H   0  0  0  0  0  0  0  0  0  0  0  0
   20.6767    7.7465   31.0766 H   0  0  0  0  0  0  0  0  0  0  0  0
   21.4922    8.4843   29.6776 H   0  0  0  0  0  0  0  0  0  0  0  0
   22.0774    5.4926   30.5600 H   0  0  0  0  0  0  0  0  0  0  0  0
   22.9107    6.3124   29.2171 H   0  0  0  0  0  0  0  0  0  0  0  0
   23.8693    5.6033   30.5676 H   0  0  0  0  0  0  0  0  0  0  0  0
   32.3380   12.1807   25.3244 H   0  0  0  0  0  0  0  0  0  0  0  0
   30.7253   11.4439   25.5031 H   0  0  0  0  0  0  0  0  0  0  0  0
   31.4720   11.5719   23.8742 H   0  0  0  0  0  0  0  0  0  0  0  0
   29.5580   14.8210   25.9822 H   0  0  0  0  0  0  0  0  0  0  0  0
   30.5889   13.6207   26.8450 H   0  0  0  0  0  0  0  0  0  0  0  0
   31.3186   15.0426   26.0666 H   0  0  0  0  0  0  0  0  0  0  0  0
   29.1935    8.4409   32.0534 H   0  0  0  0  0  0  0  0  0  0  0  0
   30.3417    9.8103   32.0342 H   0  0  0  0  0  0  0  0  0  0  0  0
   30.0266   13.2806   18.0829 H   0  0  0  0  0  0  0  0  0  0  0  0
   28.9095   14.3638   18.9618 H   0  0  0  0  0  0  0  0  0  0  0  0
   20.7132    5.8968   32.2083 H   0  0  0  0  0  0  0  0  0  0  0  0
   33.3629   14.1038   25.5578 H   0  0  0  0  0  0  0  0  0  0  0  0
   34.8260   16.5350   21.4854 H   0  0  0  0  0  0  0  0  0  0  0  0
   22.3444    5.8984   36.8883 H   0  0  0  0  0  0  0  0  0  0  0  0
   28.2464   11.6726   21.6579 H   0  0  0  0  0  0  0  0  0  0  0  0
   27.1724   12.4467   20.4738 H   0  0  0  0  0  0  0  0  0  0  0  0
   26.7615   10.0474   33.4920 H   0  0  0  0  0  0  0  0  0  0  0  0
   26.1500   10.8172   32.0190 H   0  0  0  0  0  0  0  0  0  0  0  0
   28.4897   11.4474   32.3514 H   0  0  0  0  0  0  0  0  0  0  0  0
   28.3149   10.4876   30.8562 H   0  0  0  0  0  0  0  0  0  0  0  0
   30.2603   12.6641   20.3950 H   0  0  0  0  0  0  0  0  0  0  0  0
   29.3612   11.3607   19.5981 H   0  0  0  0  0  0  0  0  0  0  0  0
   35.6304   14.9811   25.3924 H   0  0  0  0  0  0  0  0  0  0  0  0
   19.4635    4.7514   33.9417 H   0  0  0  0  0  0  0  0  0  0  0  0
   20.2622    4.7429   36.2808 H   0  0  0  0  0  0  0  0  0  0  0  0
   36.3702   16.1964   23.3711 H   0  0  0  0  0  0  0  0  0  0  0  0
  2  1  1  0
  3  5  1  0
  4  5  1  0
  5 19  2  0
  6  1  2  0
  7  6  1  0
  8  2  2  0
  9  4  1  0
 10  3  1  0
 11 40  1  0
 12 41  1  0
 13  8  1  0
 14  9  2  0
 15  2  1  0
 16 10  2  0
 17 11  1  0
 18 12  1  0
 19 25  1  0
 20  6  1  0
 21 11  2  0
 22 11  2  0
 23 12  2  0
 24 12  2  0
 25 29  2  0
 26 20  2  0
 27 26  1  0
 28 27  2  0
 29 28  1  0
 30  1  1  0
 31 14  1  0
 32 34  1  0
 33 16  1  0
 34 15  2  0
 35  3  1  0
 36  4  1  0
 37  4  1  0
 38  7  1  0
 39  7  1  0
 40 48  1  0
 41 49  1  0
 42 14  1  0
 43 13  2  0
 44 32  2  0
 45 31  1  0
 46 30  1  0
 47 35  1  0
 48 47  1  0
 49 46  1  0
 50 43  1  0
 51 42  2  0
 52 51  1  0
 53 44  1  0
  7  8  1  0
 13 32  1  0
 53 50  2  0
 10  9  1  0
 31 33  2  0
 52 45  2  0
 15 54  1  0
 16 55  1  0
 19 56  1  0
 20 57  1  0
 25 58  1  0
 26 59  1  0
 27 60  1  0
 28 61  1  0
 29 62  1  0
 30 63  1  0
 30 64  1  0
 33 65  1  0
 34 66  1  0
 35 67  1  0
 35 68  1  0
 36 69  1  0
 36 70  1  0
 36 71  1  0
 37 72  1  0
 37 73  1  0
 37 74  1  0
 38 75  1  0
 38 76  1  0
 38 77  1  0
 39 78  1  0
 39 79  1  0
 39 80  1  0
 40 81  1  0
 40 82  1  0
 41 83  1  0
 41 84  1  0
 42 85  1  0
 43 86  1  0
 44 87  1  0
 45 88  1  0
 46 89  1  0
 46 90  1  0
 47 91  1  0
 47 92  1  0
 48 93  1  0
 48 94  1  0
 49 95  1  0
 49 96  1  0
 50 97  1  0
 51 98  1  0
 52 99  1  0
 53100  1  0
M  CHG  3   1   1  17  -1  18  -1
M  END
> <Uni-Dock RESULT> 
ENERGY=   -3.619  LOWER_BOUND=    1.554  UPPER_BOUND=    1.704
INTER + INTRA:          -3.619
INTER:                  -3.619
INTRA:                   0.000
UNBOUND:                 0.000

$$$$

     RDKit          3D

100105  0  0  0  0  0  0  0  0999 V2000
   25.5257   11.9068   29.2377 N   0  0  0  0  0  0  0  0  0  0  0  0
   24.1154   12.0561   29.3670 C   0  0  0  0  0  0  0  0  0  0  0  0
   32.4334    3.1059   31.4812 N   0  0  0  0  0  0  0  0  0  0  0  0
   34.7100    3.9972   31.2989 C   0  0  0  0  0  0  0  0  0  0  0  0
   33.2156    4.2871   31.2235 C   0  0  0  0  0  0  0  0  0  0  0  0
   25.8620   10.7405   29.7280 C   0  0  0  0  0  0  0  0  0  0  0  0
   24.6519    9.9651   30.2669 C   0  0  0  0  0  0  0  0  0  0  0  0
   23.5481   10.9587   29.9720 C   0  0  0  0  0  0  0  0  0  0  0  0
   34.7000    2.4989   31.5505 C   0  0  0  0  0  0  0  0  0  0  0  0
   33.3879    2.0569   31.6279 C   0  0  0  0  0  0  0  0  0  0  0  0
   28.1952    0.5146   33.0784 S   0  0  0  0  0  0  0  0  0  0  0  0
   27.1866   17.1140   29.4136 S   0  0  0  0  0  0  0  0  0  0  0  0
   22.1554   10.9093   30.2222 C   0  0  0  0  0  0  0  0  0  0  0  0
   35.7733    1.5849   31.7328 C   0  0  0  0  0  0  0  0  0  0  0  0
   23.3444   13.1532   28.9691 C   0  0  0  0  0  0  0  0  0  0  0  0
   33.0815    0.7151   31.8713 C   0  0  0  0  0  0  0  0  0  0  0  0
   27.2476    0.0595   34.3876 O   0  0  0  0  0  0  0  0  0  0  0  0
   26.5941   18.6383   29.0270 O   0  0  0  0  0  0  0  0  0  0  0  0
   32.7313    5.5119   30.9136 C   0  0  0  0  0  0  0  0  0  0  0  0
   27.2861   10.2927   29.8190 C   0  0  0  0  0  0  0  0  0  0  0  0
   27.6259   -0.0875   31.8250 O   0  0  0  0  0  0  0  0  0  0  0  0
   29.5925    0.0061   33.2902 O   0  0  0  0  0  0  0  0  0  0  0  0
   28.0720   16.6384   28.2957 O   0  0  0  0  0  0  0  0  0  0  0  0
   27.9862   17.2073   30.6824 O   0  0  0  0  0  0  0  0  0  0  0  0
   31.3215    5.8353   30.6276 C   0  0  0  0  0  0  0  0  0  0  0  0
   27.6690    9.0362   30.0676 C   0  0  0  0  0  0  0  0  0  0  0  0
   29.0961    8.6979   30.2081 C   0  0  0  0  0  0  0  0  0  0  0  0
   29.4936    7.4318   30.3458 C   0  0  0  0  0  0  0  0  0  0  0  0
   30.9102    7.1040   30.5767 C   0  0  0  0  0  0  0  0  0  0  0  0
   26.4407   12.9183   28.6785 C   0  0  0  0  0  0  0  0  0  0  0  0
   35.4589    0.2151   31.9734 C   0  0  0  0  0  0  0  0  0  0  0  0
   21.3654   12.0313   29.8408 C   0  0  0  0  0  0  0  0  0  0  0  0
   34.1185   -0.2034   32.0362 C   0  0  0  0  0  0  0  0  0  0  0  0
   21.9681   13.1393   29.2142 C   0  0  0  0  0  0  0  0  0  0  0  0
   31.1123    3.0572   32.1250 C   0  0  0  0  0  0  0  0  0  0  0  0
   35.3846    4.3403   29.9529 C   0  0  0  0  0  0  0  0  0  0  0  0
   35.3218    4.7718   32.4832 C   0  0  0  0  0  0  0  0  0  0  0  0
   24.8028    9.7534   31.7876 C   0  0  0  0  0  0  0  0  0  0  0  0
   24.4229    8.6459   29.4868 C   0  0  0  0  0  0  0  0  0  0  0  0
   28.2063    2.3003   32.9618 C   0  0  0  0  0  0  0  0  0  0  0  0
   25.8078   15.9910   29.6226 C   0  0  0  0  0  0  0  0  0  0  0  0
   37.1303    1.9663   31.6991 C   0  0  0  0  0  0  0  0  0  0  0  0
   21.5229    9.8046   30.8243 C   0  0  0  0  0  0  0  0  0  0  0  0
   19.9837   12.0293   30.0883 C   0  0  0  0  0  0  0  0  0  0  0  0
   36.4891   -0.7205   32.1602 C   0  0  0  0  0  0  0  0  0  0  0  0
   27.1074   13.7608   29.7840 C   0  0  0  0  0  0  0  0  0  0  0  0
   30.0656    2.4587   31.1690 C   0  0  0  0  0  0  0  0  0  0  0  0
   28.6229    2.8093   31.5723 C   0  0  0  0  0  0  0  0  0  0  0  0
   26.1587   14.7582   30.4739 C   0  0  0  0  0  0  0  0  0  0  0  0
   20.1465    9.8212   31.0623 C   0  0  0  0  0  0  0  0  0  0  0  0
   38.1416    1.0202   31.8873 C   0  0  0  0  0  0  0  0  0  0  0  0
   37.8228   -0.3174   32.1156 C   0  0  0  0  0  0  0  0  0  0  0  0
   19.3807   10.9295   30.6997 C   0  0  0  0  0  0  0  0  0  0  0  0
   23.7840   14.0117   28.4869 H   0  0  0  0  0  0  0  0  0  0  0  0
   32.0597    0.3758   31.9410 H   0  0  0  0  0  0  0  0  0  0  0  0
   33.4389    6.3260   30.8152 H   0  0  0  0  0  0  0  0  0  0  0  0
   28.0675   11.0251   29.6701 H   0  0  0  0  0  0  0  0  0  0  0  0
   30.6108    5.0526   30.4237 H   0  0  0  0  0  0  0  0  0  0  0  0
   26.9451    8.2478   30.1868 H   0  0  0  0  0  0  0  0  0  0  0  0
   29.8309    9.4962   30.2243 H   0  0  0  0  0  0  0  0  0  0  0  0
   28.7639    6.6298   30.3086 H   0  0  0  0  0  0  0  0  0  0  0  0
   31.6192    7.9095   30.7386 H   0  0  0  0  0  0  0  0  0  0  0  0
   25.9133   13.5674   27.9540 H   0  0  0  0  0  0  0  0  0  0  0  0
   27.2287   12.4167   28.0773 H   0  0  0  0  0  0  0  0  0  0  0  0
   33.8738   -1.2422   32.2244 H   0  0  0  0  0  0  0  0  0  0  0  0
   21.3734   13.9939   28.9139 H   0  0  0  0  0  0  0  0  0  0  0  0
   31.1706    2.4370   33.0457 H   0  0  0  0  0  0  0  0  0  0  0  0
   30.8108    4.0648   32.4745 H   0  0  0  0  0  0  0  0  0  0  0  0
   34.8903    3.7899   29.1229 H   0  0  0  0  0  0  0  0  0  0  0  0
   36.4588    4.0804   29.9418 H   0  0  0  0  0  0  0  0  0  0  0  0
   35.3144    5.4283   29.7422 H   0  0  0  0  0  0  0  0  0  0  0  0
   36.4033    4.5766   32.5989 H   0  0  0  0  0  0  0  0  0  0  0  0
   35.2039    5.8663   32.3379 H   0  0  0  0  0  0  0  0  0  0  0  0
   34.8151    4.4884   33.4314 H   0  0  0  0  0  0  0  0  0  0  0  0
   23.9292    9.2327   32.2222 H   0  0  0  0  0  0  0  0  0  0  0  0
   25.6969    9.1386   32.0168 H   0  0  0  0  0  0  0  0  0  0  0  0
   24.9159   10.7306   32.3049 H   0  0  0  0  0  0  0  0  0  0  0  0
   24.9703    8.6487   28.5198 H   0  0  0  0  0  0  0  0  0  0  0  0
   24.7508    7.7639   30.0744 H   0  0  0  0  0  0  0  0  0  0  0  0
   23.3551    8.4831   29.2407 H   0  0  0  0  0  0  0  0  0  0  0  0
   28.8676    2.7183   33.7485 H   0  0  0  0  0  0  0  0  0  0  0  0
   27.1772    2.6619   33.1711 H   0  0  0  0  0  0  0  0  0  0  0  0
   24.9946   16.5470   30.1346 H   0  0  0  0  0  0  0  0  0  0  0  0
   25.4304   15.6981   28.6237 H   0  0  0  0  0  0  0  0  0  0  0  0
   37.4376    2.9825   31.5357 H   0  0  0  0  0  0  0  0  0  0  0  0
   22.0698    8.9191   31.1054 H   0  0  0  0  0  0  0  0  0  0  0  0
   19.3702   12.8778   29.8103 H   0  0  0  0  0  0  0  0  0  0  0  0
   36.2632   -1.7637   32.3463 H   0  0  0  0  0  0  0  0  0  0  0  0
   27.5160   13.0839   30.5646 H   0  0  0  0  0  0  0  0  0  0  0  0
   27.9776   14.2994   29.3547 H   0  0  0  0  0  0  0  0  0  0  0  0
   30.1827    1.3584   31.1055 H   0  0  0  0  0  0  0  0  0  0  0  0
   30.2377    2.8422   30.1404 H   0  0  0  0  0  0  0  0  0  0  0  0
   27.9281    2.3960   30.8098 H   0  0  0  0  0  0  0  0  0  0  0  0
   28.5034    3.9149   31.5508 H   0  0  0  0  0  0  0  0  0  0  0  0
   25.2226   14.2387   30.7672 H   0  0  0  0  0  0  0  0  0  0  0  0
   26.6276   15.0982   31.4226 H   0  0  0  0  0  0  0  0  0  0  0  0
   19.6705    8.9686   31.5294 H   0  0  0  0  0  0  0  0  0  0  0  0
   39.1796    1.3271   31.8571 H   0  0  0  0  0  0  0  0  0  0  0  0
   38.6116   -1.0443   32.2616 H   0  0  0  0  0  0  0  0  0  0  0  0
   18.3146   10.9328   30.8863 H   0  0  0  0  0  0  0  0  0  0  0  0
  2  1  1  0
  3  5  1  0
  4  5  1  0
  5 19  2  0
  6  1  2  0
  7  6  1  0
  8  2  2  0
  9  4  1  0
 10  3  1  0
 11 40  1  0
 12 41  1  0
 13  8  1  0
 14  9  2  0
 15  2  1  0
 16 10  2  0
 17 11  1  0
 18 12  1  0
 19 25  1  0
 20  6  1  0
 21 11  2  0
 22 11  2  0
 23 12  2  0
 24 12  2  0
 25 29  2  0
 26 20  2  0
 27 26  1  0
 28 27  2  0
 29 28  1  0
 30  1  1  0
 31 14  1  0
 32 34  1  0
 33 16  1  0
 34 15  2  0
 35  3  1  0
 36  4  1  0
 37  4  1  0
 38  7  1  0
 39  7  1  0
 40 48  1  0
 41 49  1  0
 42 14  1  0
 43 13  2  0
 44 32  2  0
 45 31  1  0
 46 30  1  0
 47 35  1  0
 48 47  1  0
 49 46  1  0
 50 43  1  0
 51 42  2  0
 52 51  1  0
 53 44  1  0
  7  8  1  0
 13 32  1  0
 53 50  2  0
 10  9  1  0
 31 33  2  0
 52 45  2  0
 15 54  1  0
 16 55  1  0
 19 56  1  0
 20 57  1  0
 25 58  1  0
 26 59  1  0
 27 60  1  0
 28 61  1  0
 29 62  1  0
 30 63  1  0
 30 64  1  0
 33 65  1  0
 34 66  1  0
 35 67  1  0
 35 68  1  0
 36 69  1  0
 36 70  1  0
 36 71  1  0
 37 72  1  0
 37 73  1  0
 37 74  1  0
 38 75  1  0
 38 76  1  0
 38 77  1  0
 39 78  1  0
 39 79  1  0
 39 80  1  0
 40 81  1  0
 40 82  1  0
 41 83  1  0
 41 84  1  0
 42 85  1  0
 43 86  1  0
 44 87  1  0
 45 88  1  0
 46 89  1  0
 46 90  1  0
 47 91  1  0
 47 92  1  0
 48 93  1  0
 48 94  1  0
 49 95  1  0
 49 96  1  0
 50 97  1  0
 51 98  1  0
 52 99  1  0
 53100  1  0
M  CHG  3   1   1  17  -1  18  -1
M  END
> <Uni-Dock RESULT> 
ENERGY=   -3.596  LOWER_BOUND=    8.107  UPPER_BOUND=   12.467
INTER + INTRA:          -3.596
INTER:                  -3.596
INTRA:                   0.000
UNBOUND:                 0.000

$$$$

     RDKit          3D

100105  0  0  0  0  0  0  0  0999 V2000
   31.5114   13.9506   24.9966 N   0  0  0  0  0  0  0  0  0  0  0  0
   32.2510   15.1604   25.1287 C   0  0  0  0  0  0  0  0  0  0  0  0
   30.3266    5.0116   31.9891 N   0  0  0  0  0  0  0  0  0  0  0  0
   29.1767    3.2954   30.6689 C   0  0  0  0  0  0  0  0  0  0  0  0
   29.7721    4.6981   30.6977 C   0  0  0  0  0  0  0  0  0  0  0  0
   31.7826   13.1888   26.0260 C   0  0  0  0  0  0  0  0  0  0  0  0
   32.7852   13.8435   26.9863 C   0  0  0  0  0  0  0  0  0  0  0  0
   33.0242   15.1539   26.2664 C   0  0  0  0  0  0  0  0  0  0  0  0
   29.3801    2.8669   32.1124 C   0  0  0  0  0  0  0  0  0  0  0  0
   30.0194    3.8838   32.8055 C   0  0  0  0  0  0  0  0  0  0  0  0
   33.5799    7.4577   35.2543 S   0  0  0  0  0  0  0  0  0  0  0  0
   31.0314   13.5630   19.5630 S   0  0  0  0  0  0  0  0  0  0  0  0
   33.8611   16.2524   26.5790 C   0  0  0  0  0  0  0  0  0  0  0  0
   29.0549    1.6494   32.7699 C   0  0  0  0  0  0  0  0  0  0  0  0
   32.2529   16.2472   24.2481 C   0  0  0  0  0  0  0  0  0  0  0  0
   30.3487    3.7523   34.1574 C   0  0  0  0  0  0  0  0  0  0  0  0
   35.1642    7.6194   35.7862 O   0  0  0  0  0  0  0  0  0  0  0  0
   30.9725   14.5824   18.2283 O   0  0  0  0  0  0  0  0  0  0  0  0
   29.7291    5.5240   29.6268 C   0  0  0  0  0  0  0  0  0  0  0  0
   31.2293   11.8062   26.1644 C   0  0  0  0  0  0  0  0  0  0  0  0
   32.6945    8.3664   36.0593 O   0  0  0  0  0  0  0  0  0  0  0  0
   33.1458    6.0329   35.4477 O   0  0  0  0  0  0  0  0  0  0  0  0
   29.6296   13.1689   19.9363 O   0  0  0  0  0  0  0  0  0  0  0  0
   31.8200   12.3348   19.2060 O   0  0  0  0  0  0  0  0  0  0  0  0
   30.0988    6.9514   29.6227 C   0  0  0  0  0  0  0  0  0  0  0  0
   31.2614   11.0885   27.2919 C   0  0  0  0  0  0  0  0  0  0  0  0
   30.7532    9.7059   27.3188 C   0  0  0  0  0  0  0  0  0  0  0  0
   30.6791    9.0213   28.4615 C   0  0  0  0  0  0  0  0  0  0  0  0
   30.2568    7.6109   28.4732 C   0  0  0  0  0  0  0  0  0  0  0  0
   30.6247   13.6144   23.8679 C   0  0  0  0  0  0  0  0  0  0  0  0
   29.3848    1.5200   34.1510 C   0  0  0  0  0  0  0  0  0  0  0  0
   33.8865   17.3540   25.6767 C   0  0  0  0  0  0  0  0  0  0  0  0
   30.0237    2.5731   34.8282 C   0  0  0  0  0  0  0  0  0  0  0  0
   33.0786   17.3412   24.5233 C   0  0  0  0  0  0  0  0  0  0  0  0
   31.4853    5.8772   32.2546 C   0  0  0  0  0  0  0  0  0  0  0  0
   27.6776    3.3638   30.3051 C   0  0  0  0  0  0  0  0  0  0  0  0
   29.9844    2.4172   29.6926 C   0  0  0  0  0  0  0  0  0  0  0  0
   34.0801   13.0065   27.0391 C   0  0  0  0  0  0  0  0  0  0  0  0
   32.1621   14.0926   28.3830 C   0  0  0  0  0  0  0  0  0  0  0  0
   33.5023    7.8896   33.5194 C   0  0  0  0  0  0  0  0  0  0  0  0
   31.8059   14.4319   20.9235 C   0  0  0  0  0  0  0  0  0  0  0  0
   28.4341    0.5611   32.1232 C   0  0  0  0  0  0  0  0  0  0  0  0
   34.6602   16.3026   27.7374 C   0  0  0  0  0  0  0  0  0  0  0  0
   34.7171   18.4544   25.9411 C   0  0  0  0  0  0  0  0  0  0  0  0
   29.0821    0.3335   34.8381 C   0  0  0  0  0  0  0  0  0  0  0  0
   31.3387   12.7372   22.8205 C   0  0  0  0  0  0  0  0  0  0  0  0
   31.0772    7.0752   33.1297 C   0  0  0  0  0  0  0  0  0  0  0  0
   32.0806    8.2388   33.0499 C   0  0  0  0  0  0  0  0  0  0  0  0
   32.3935   13.4864   21.9857 C   0  0  0  0  0  0  0  0  0  0  0  0
   35.4801   17.4065   27.9833 C   0  0  0  0  0  0  0  0  0  0  0  0
   28.1409   -0.6118   32.8242 C   0  0  0  0  0  0  0  0  0  0  0  0
   28.4622   -0.7250   34.1759 C   0  0  0  0  0  0  0  0  0  0  0  0
   35.5117   18.4759   27.0879 C   0  0  0  0  0  0  0  0  0  0  0  0
   31.6419   16.2597   23.3598 H   0  0  0  0  0  0  0  0  0  0  0  0
   30.8550    4.5412   34.6917 H   0  0  0  0  0  0  0  0  0  0  0  0
   29.3438    5.1263   28.6959 H   0  0  0  0  0  0  0  0  0  0  0  0
   30.7648   11.3479   25.3022 H   0  0  0  0  0  0  0  0  0  0  0  0
   30.2146    7.4896   30.5480 H   0  0  0  0  0  0  0  0  0  0  0  0
   31.6730   11.4971   28.1993 H   0  0  0  0  0  0  0  0  0  0  0  0
   30.4585    9.2313   26.3885 H   0  0  0  0  0  0  0  0  0  0  0  0
   30.9526    9.4997   29.3961 H   0  0  0  0  0  0  0  0  0  0  0  0
   30.1045    7.0974   27.5293 H   0  0  0  0  0  0  0  0  0  0  0  0
   30.2182   14.5316   23.4010 H   0  0  0  0  0  0  0  0  0  0  0  0
   29.7291   13.0760   24.2448 H   0  0  0  0  0  0  0  0  0  0  0  0
   30.2818    2.4779   35.8764 H   0  0  0  0  0  0  0  0  0  0  0  0
   33.0861   18.1785   23.8353 H   0  0  0  0  0  0  0  0  0  0  0  0
   32.2750    5.2915   32.7734 H   0  0  0  0  0  0  0  0  0  0  0  0
   31.9499    6.2101   31.3051 H   0  0  0  0  0  0  0  0  0  0  0  0
   27.1403    4.0349   31.0101 H   0  0  0  0  0  0  0  0  0  0  0  0
   27.1901    2.3724   30.3400 H   0  0  0  0  0  0  0  0  0  0  0  0
   27.5388    3.7547   29.2750 H   0  0  0  0  0  0  0  0  0  0  0  0
   29.6086    1.3788   29.6526 H   0  0  0  0  0  0  0  0  0  0  0  0
   29.9254    2.8230   28.6607 H   0  0  0  0  0  0  0  0  0  0  0  0
   31.0536    2.3874   29.9960 H   0  0  0  0  0  0  0  0  0  0  0  0
   34.8455   13.4680   27.6905 H   0  0  0  0  0  0  0  0  0  0  0  0
   33.8812   11.9908   27.4376 H   0  0  0  0  0  0  0  0  0  0  0  0
   34.5122   12.8976   26.0209 H   0  0  0  0  0  0  0  0  0  0  0  0
   31.0531   14.0335   28.3465 H   0  0  0  0  0  0  0  0  0  0  0  0
   32.5295   13.3582   29.1290 H   0  0  0  0  0  0  0  0  0  0  0  0
   32.4084   15.0972   28.7800 H   0  0  0  0  0  0  0  0  0  0  0  0
   33.9249    7.0623   32.9129 H   0  0  0  0  0  0  0  0  0  0  0  0
   34.1498    8.7779   33.3601 H   0  0  0  0  0  0  0  0  0  0  0  0
   32.6335   15.0430   20.5059 H   0  0  0  0  0  0  0  0  0  0  0  0
   31.0701   15.1304   21.3670 H   0  0  0  0  0  0  0  0  0  0  0  0
   28.1703    0.5858   31.0822 H   0  0  0  0  0  0  0  0  0  0  0  0
   34.6560   15.5087   28.4667 H   0  0  0  0  0  0  0  0  0  0  0  0
   34.7528   19.2971   25.2613 H   0  0  0  0  0  0  0  0  0  0  0  0
   29.3300    0.2218   35.8869 H   0  0  0  0  0  0  0  0  0  0  0  0
   31.8475   11.8936   23.3342 H   0  0  0  0  0  0  0  0  0  0  0  0
   30.5798   12.2804   22.1519 H   0  0  0  0  0  0  0  0  0  0  0  0
   30.9490    6.7594   34.1843 H   0  0  0  0  0  0  0  0  0  0  0  0
   30.0850    7.4544   32.8034 H   0  0  0  0  0  0  0  0  0  0  0  0
   31.6946    9.0860   33.6568 H   0  0  0  0  0  0  0  0  0  0  0  0
   32.1338    8.5947   31.9976 H   0  0  0  0  0  0  0  0  0  0  0  0
   33.0597   14.0639   22.6600 H   0  0  0  0  0  0  0  0  0  0  0  0
   33.0449   12.7400   21.4814 H   0  0  0  0  0  0  0  0  0  0  0  0
   36.0938   17.4336   28.8746 H   0  0  0  0  0  0  0  0  0  0  0  0
   27.6622   -1.4390   32.3151 H   0  0  0  0  0  0  0  0  0  0  0  0
   28.2330   -1.6371   34.7119 H   0  0  0  0  0  0  0  0  0  0  0  0
   36.1486   19.3279   27.2875 H   0  0  0  0  0  0  0  0  0  0  0  0
  2  1  1  0
  3  5  1  0
  4  5  1  0
  5 19  2  0
  6  1  2  0
  7  6  1  0
  8  2  2  0
  9  4  1  0
 10  3  1  0
 11 40  1  0
 12 41  1  0
 13  8  1  0
 14  9  2  0
 15  2  1  0
 16 10  2  0
 17 11  1  0
 18 12  1  0
 19 25  1  0
 20  6  1  0
 21 11  2  0
 22 11  2  0
 23 12  2  0
 24 12  2  0
 25 29  2  0
 26 20  2  0
 27 26  1  0
 28 27  2  0
 29 28  1  0
 30  1  1  0
 31 14  1  0
 32 34  1  0
 33 16  1  0
 34 15  2  0
 35  3  1  0
 36  4  1  0
 37  4  1  0
 38  7  1  0
 39  7  1  0
 40 48  1  0
 41 49  1  0
 42 14  1  0
 43 13  2  0
 44 32  2  0
 45 31  1  0
 46 30  1  0
 47 35  1  0
 48 47  1  0
 49 46  1  0
 50 43  1  0
 51 42  2  0
 52 51  1  0
 53 44  1  0
  7  8  1  0
 13 32  1  0
 53 50  2  0
 10  9  1  0
 31 33  2  0
 52 45  2  0
 15 54  1  0
 16 55  1  0
 19 56  1  0
 20 57  1  0
 25 58  1  0
 26 59  1  0
 27 60  1  0
 28 61  1  0
 29 62  1  0
 30 63  1  0
 30 64  1  0
 33 65  1  0
 34 66  1  0
 35 67  1  0
 35 68  1  0
 36 69  1  0
 36 70  1  0
 36 71  1  0
 37 72  1  0
 37 73  1  0
 37 74  1  0
 38 75  1  0
 38 76  1  0
 38 77  1  0
 39 78  1  0
 39 79  1  0
 39 80  1  0
 40 81  1  0
 40 82  1  0
 41 83  1  0
 41 84  1  0
 42 85  1  0
 43 86  1  0
 44 87  1  0
 45 88  1  0
 46 89  1  0
 46 90  1  0
 47 91  1  0
 47 92  1  0
 48 93  1  0
 48 94  1  0
 49 95  1  0
 49 96  1  0
 50 97  1  0
 51 98  1  0
 52 99  1  0
 53100  1  0
M  CHG  3   1   1  17  -1  18  -1
M  END
> <Uni-Dock RESULT> 
ENERGY=   -3.480  LOWER_BOUND=    5.599  UPPER_BOUND=    6.438
INTER + INTRA:          -3.480
INTER:                  -3.480
INTRA:                   0.000
UNBOUND:                 0.000

$$$$
