
     RDKit          3D

104110  0  0  0  0  0  0  0  0999 V2000
   -7.1235   -1.6635    1.3922 C   0  0  0  0  0  0  0  0  0  0  0  0
   -6.9783   -2.3638    2.7436 C   0  0  0  0  0  0  0  0  0  0  0  0
   -5.7498   -3.2420    2.5856 C   0  0  0  0  0  0  0  0  0  0  0  0
   -4.7971   -2.3405    1.8102 C   0  0  2  0  0  0  0  0  0  0  0  0
   -5.7208   -1.6793    0.7706 C   0  0  2  0  0  0  0  0  0  0  0  0
   -3.8080   -3.1422    1.1552 O   0  0  0  0  0  0  0  0  0  0  0  0
   -2.5540   -2.6379    1.1097 C   0  0  0  0  0  0  0  0  0  0  0  0
   -1.8004   -3.4297    0.2998 N   0  0  0  0  0  0  0  0  0  0  0  0
   -2.1750   -1.6233    1.6723 O   0  0  0  0  0  0  0  0  0  0  0  0
   -0.4579   -3.0577   -0.1413 C   0  0  2  0  0  0  0  0  0  0  0  0
   -0.6281   -2.1784   -1.4074 C   0  0  0  0  0  0  0  0  0  0  0  0
    0.4503   -4.3099   -0.3610 C   0  0  0  0  0  0  0  0  0  0  0  0
    1.7982   -3.8984   -0.9832 C   0  0  0  0  0  0  0  0  0  0  0  0
   -0.1843   -5.3946   -1.2549 C   0  0  0  0  0  0  0  0  0  0  0  0
    0.7443   -4.9526    1.0135 C   0  0  0  0  0  0  0  0  0  0  0  0
   -0.9833   -2.6125   -2.5031 O   0  0  0  0  0  0  0  0  0  0  0  0
   -0.5510   -0.8130   -1.1575 N   0  0  0  0  0  0  0  0  0  0  0  0
   -1.2974    1.3998   -1.3644 C   0  0  1  0  0  0  0  0  0  0  0  0
   -1.7674   -0.0483   -1.3556 C   0  0  0  0  0  0  0  0  0  0  0  0
    0.5726   -0.0633   -1.7377 C   0  0  1  0  0  0  0  0  0  0  0  0
   -0.0240    1.2728   -2.1961 C   0  0  0  0  0  0  0  0  0  0  0  0
   -2.2676    2.2259   -1.9972 O   0  0  0  0  0  0  0  0  0  0  0  0
   -2.3119    3.4906   -1.4623 C   0  0  0  0  0  0  0  0  0  0  0  0
   -1.1326    4.0890   -1.1714 N   0  0  0  0  0  0  0  0  0  0  0  0
   -1.2001    5.3424   -0.6847 C   0  0  0  0  0  0  0  0  0  0  0  0
   -2.4412    5.9944   -0.4847 C   0  0  0  0  0  0  0  0  0  0  0  0
   -3.6047    5.3813   -0.7701 N   0  0  0  0  0  0  0  0  0  0  0  0
   -3.5409    4.1147   -1.2834 C   0  0  0  0  0  0  0  0  0  0  0  0
   -2.4519    7.2900    0.0151 C   0  0  0  0  0  0  0  0  0  0  0  0
   -1.2658    7.9571    0.3249 C   0  0  0  0  0  0  0  0  0  0  0  0
   -0.0477    7.3186    0.1317 C   0  0  0  0  0  0  0  0  0  0  0  0
   -0.0248    6.0158   -0.3688 C   0  0  0  0  0  0  0  0  0  0  0  0
   -4.8274    3.3837   -1.6453 C   0  0  0  0  0  0  0  0  0  0  0  0
   -5.0510    2.1102   -0.8548 C   0  0  0  0  0  0  0  0  0  0  0  0
   -4.9080    1.9285    0.4737 C   0  0  0  0  0  0  0  0  0  0  0  0
   -5.0607    0.6179    1.1994 C   0  0  0  0  0  0  0  0  0  0  0  0
   -5.2933   -0.4217    0.2595 O   0  0  0  0  0  0  0  0  0  0  0  0
   -4.8449    3.0644   -2.9786 F   0  0  0  0  0  0  0  0  0  0  0  0
   -5.9359    4.1722   -1.4794 F   0  0  0  0  0  0  0  0  0  0  0  0
    1.6899    0.0770   -0.6830 C   0  0  0  0  0  0  0  0  0  0  0  0
    2.6526    1.0366   -0.9239 N   0  0  0  0  0  0  0  0  0  0  0  0
    1.8107   -0.6847    0.2774 O   0  0  0  0  0  0  0  0  0  0  0  0
    3.6580    1.3908    0.0838 C   0  0  2  0  0  0  0  0  0  0  0  0
    3.1685    2.0846    1.3566 C   0  0  0  0  0  0  0  0  0  0  0  0
    3.8558    2.8957    0.3018 C   0  0  1  0  0  0  0  0  0  0  0  0
    4.8332    0.4226    0.2709 C   0  0  0  0  0  0  0  0  0  0  0  0
    4.5434   -0.9210    0.0303 N   0  0  0  0  0  0  0  0  0  0  0  0
    5.9316    0.8218    0.6297 O   0  0  0  0  0  0  0  0  0  0  0  0
    5.5442   -2.1889    0.4111 S   0  0  0  0  0  0  0  0  0  0  0  0
    7.2551   -1.8141   -0.0632 C   0  0  0  0  0  0  0  0  0  0  0  0
    5.4846   -2.3458    1.8480 O   0  0  0  0  0  0  0  0  0  0  0  0
    5.1388   -3.2729   -0.4563 O   0  0  0  0  0  0  0  0  0  0  0  0
    7.4002   -1.3999   -1.4823 C   0  0  0  0  0  0  0  0  0  0  0  0
    8.1497   -1.2887    1.0297 C   0  0  0  0  0  0  0  0  0  0  0  0
    8.2745   -2.7235    0.5805 C   0  0  0  0  0  0  0  0  0  0  0  0
    5.1851    3.5131    0.5328 C   0  0  0  0  0  0  0  0  0  0  0  0
    5.8814    3.4636   -0.6335 F   0  0  0  0  0  0  0  0  0  0  0  0
    4.9904    4.8329    0.8011 F   0  0  0  0  0  0  0  0  0  0  0  0
   -7.8065   -2.2510    0.7607 H   0  0  0  0  0  0  0  0  0  0  0  0
   -7.5647   -0.6682    1.4912 H   0  0  0  0  0  0  0  0  0  0  0  0
   -7.8694   -2.9403    3.0053 H   0  0  0  0  0  0  0  0  0  0  0  0
   -6.8107   -1.6216    3.5338 H   0  0  0  0  0  0  0  0  0  0  0  0
   -5.3323   -3.5545    3.5478 H   0  0  0  0  0  0  0  0  0  0  0  0
   -5.9853   -4.1484    2.0167 H   0  0  0  0  0  0  0  0  0  0  0  0
   -4.3521   -1.6140    2.4964 H   0  0  0  0  0  0  0  0  0  0  0  0
   -5.7620   -2.3301   -0.1113 H   0  0  0  0  0  0  0  0  0  0  0  0
   -2.3388   -4.0563   -0.2828 H   0  0  0  0  0  0  0  0  0  0  0  0
   -0.0125   -2.4374    0.6437 H   0  0  0  0  0  0  0  0  0  0  0  0
    1.6693   -3.4717   -1.9818 H   0  0  0  0  0  0  0  0  0  0  0  0
    2.3032   -3.1564   -0.3593 H   0  0  0  0  0  0  0  0  0  0  0  0
    2.4717   -4.7575   -1.0789 H   0  0  0  0  0  0  0  0  0  0  0  0
    0.5102   -6.2319   -1.4032 H   0  0  0  0  0  0  0  0  0  0  0  0
   -1.0927   -5.8125   -0.8064 H   0  0  0  0  0  0  0  0  0  0  0  0
   -0.4402   -5.0159   -2.2487 H   0  0  0  0  0  0  0  0  0  0  0  0
    1.2363   -4.2410    1.6854 H   0  0  0  0  0  0  0  0  0  0  0  0
    1.3995   -5.8251    0.9087 H   0  0  0  0  0  0  0  0  0  0  0  0
   -0.1760   -5.2899    1.5005 H   0  0  0  0  0  0  0  0  0  0  0  0
   -1.0734    1.7071   -0.3333 H   0  0  0  0  0  0  0  0  0  0  0  0
   -2.4860   -0.2495   -0.5574 H   0  0  0  0  0  0  0  0  0  0  0  0
   -2.2445   -0.3240   -2.3037 H   0  0  0  0  0  0  0  0  0  0  0  0
    0.9992   -0.6107   -2.5865 H   0  0  0  0  0  0  0  0  0  0  0  0
   -0.2755    1.2186   -3.2615 H   0  0  0  0  0  0  0  0  0  0  0  0
    0.6242    2.1436   -2.0753 H   0  0  0  0  0  0  0  0  0  0  0  0
   -3.4077    7.7913    0.1554 H   0  0  0  0  0  0  0  0  0  0  0  0
   -1.3008    8.9725    0.7096 H   0  0  0  0  0  0  0  0  0  0  0  0
    0.8825    7.8297    0.3679 H   0  0  0  0  0  0  0  0  0  0  0  0
    0.9292    5.5202   -0.5262 H   0  0  0  0  0  0  0  0  0  0  0  0
   -5.3257    1.2636   -1.4806 H   0  0  0  0  0  0  0  0  0  0  0  0
   -4.6500    2.7798    1.1040 H   0  0  0  0  0  0  0  0  0  0  0  0
   -4.1308    0.4229    1.7402 H   0  0  0  0  0  0  0  0  0  0  0  0
   -5.8823    0.6998    1.9167 H   0  0  0  0  0  0  0  0  0  0  0  0
    2.6507    1.5630   -1.7910 H   0  0  0  0  0  0  0  0  0  0  0  0
    3.6897    1.8768    2.2836 H   0  0  0  0  0  0  0  0  0  0  0  0
    2.1021    2.2199    1.4941 H   0  0  0  0  0  0  0  0  0  0  0  0
    3.2466    3.5660   -0.2912 H   0  0  0  0  0  0  0  0  0  0  0  0
    3.5586   -1.1881    0.0998 H   0  0  0  0  0  0  0  0  0  0  0  0
    6.8409   -0.4855   -1.6964 H   0  0  0  0  0  0  0  0  0  0  0  0
    8.4471   -1.2022   -1.7306 H   0  0  0  0  0  0  0  0  0  0  0  0
    7.0449   -2.1825   -2.1575 H   0  0  0  0  0  0  0  0  0  0  0  0
    8.9275   -0.5875    0.7575 H   0  0  0  0  0  0  0  0  0  0  0  0
    7.7255   -1.0963    2.0120 H   0  0  0  0  0  0  0  0  0  0  0  0
    7.9312   -3.4949    1.2630 H   0  0  0  0  0  0  0  0  0  0  0  0
    9.1489   -3.0099    0.0051 H   0  0  0  0  0  0  0  0  0  0  0  0
    5.7783    3.0843    1.3439 H   0  0  0  0  0  0  0  0  0  0  0  0
  1  2  1  0
  2  3  1  0
  4  3  1  0
  4  5  1  0
  5  1  1  0
  4  6  1  0
  6  7  1  0
  7  8  1  0
  7  9  2  0
  8 10  1  0
 10 11  1  0
 10 12  1  0
 12 13  1  0
 12 14  1  0
 12 15  1  0
 11 16  2  0
 11 17  1  0
 19 17  1  0
 17 20  1  0
 18 19  1  0
 20 21  1  0
 18 21  1  0
 18 22  1  0
 22 23  1  0
 23 24  2  0
 28 23  1  0
 24 25  1  0
 26 27  1  0
 27 28  2  0
 26 29  1  0
 25 26  2  0
 32 25  1  0
 29 30  2  0
 30 31  1  0
 31 32  2  0
 28 33  1  0
 33 34  1  0
 34 35  2  0
 35 36  1  0
 36 37  1  0
  5 37  1  0
 33 38  1  0
 33 39  1  0
 20 40  1  0
 40 41  1  0
 40 42  2  0
 43 41  1  6
 43 44  1  0
 45 43  1  0
 44 45  1  0
 43 46  1  0
 46 47  1  0
 46 48  2  0
 47 49  1  0
 49 50  1  0
 49 51  2  0
 49 52  2  0
 50 53  1  0
 50 54  1  0
 55 50  1  0
 54 55  1  0
 45 56  1  0
 56 57  1  0
 56 58  1  0
  1 59  1  0
  1 60  1  0
  2 61  1  0
  2 62  1  0
  3 63  1  0
  3 64  1  0
  4 65  1  1
  5 66  1  6
  8 67  1  0
 10 68  1  1
 13 69  1  0
 13 70  1  0
 13 71  1  0
 14 72  1  0
 14 73  1  0
 14 74  1  0
 15 75  1  0
 15 76  1  0
 15 77  1  0
 18 78  1  1
 19 79  1  0
 19 80  1  0
 20 81  1  6
 21 82  1  0
 21 83  1  0
 29 84  1  0
 30 85  1  0
 31 86  1  0
 32 87  1  0
 34 88  1  0
 35 89  1  0
 36 90  1  0
 36 91  1  0
 41 92  1  0
 44 93  1  0
 44 94  1  0
 45 95  1  6
 47 96  1  0
 53 97  1  0
 53 98  1  0
 53 99  1  0
 54100  1  0
 54101  1  0
 55102  1  0
 55103  1  0
 56104  1  0
M  END
$$$$
