
     RDKit          3D

104110  0  0  0  0  0  0  0  0999 V2000
   -7.2392   -1.2323   -0.6221 C   0  0  0  0  0  0  0  0  0  0  0  0
   -7.5677   -2.7158   -0.5228 C   0  0  0  0  0  0  0  0  0  0  0  0
   -6.6159   -3.2135    0.5598 C   0  0  0  0  0  0  0  0  0  0  0  0
   -5.3199   -2.4150    0.3563 C   0  0  2  0  0  0  0  0  0  0  0  0
   -5.7068   -1.2303   -0.5650 C   0  0  2  0  0  0  0  0  0  0  0  0
   -4.3750   -3.2062   -0.3842 O   0  0  0  0  0  0  0  0  0  0  0  0
   -3.0937   -3.1440    0.0278 C   0  0  0  0  0  0  0  0  0  0  0  0
   -2.3102   -3.5341   -1.0117 N   0  0  0  0  0  0  0  0  0  0  0  0
   -2.7046   -2.7785    1.1214 O   0  0  0  0  0  0  0  0  0  0  0  0
   -0.8612   -3.3603   -1.0002 C   0  0  2  0  0  0  0  0  0  0  0  0
   -0.5312   -2.0183   -1.7162 C   0  0  0  0  0  0  0  0  0  0  0  0
   -0.1121   -4.5931   -1.6331 C   0  0  0  0  0  0  0  0  0  0  0  0
   -0.7195   -5.0471   -2.9799 C   0  0  0  0  0  0  0  0  0  0  0  0
   -0.1867   -5.7868   -0.6473 C   0  0  0  0  0  0  0  0  0  0  0  0
    1.3838   -4.2719   -1.8641 C   0  0  0  0  0  0  0  0  0  0  0  0
   -0.6038   -1.8633   -2.9336 O   0  0  0  0  0  0  0  0  0  0  0  0
   -0.2132   -0.9668   -0.8521 N   0  0  0  0  0  0  0  0  0  0  0  0
   -0.8413    1.2945   -0.2664 C   0  0  1  0  0  0  0  0  0  0  0  0
   -1.3369   -0.1635   -0.3799 C   0  0  0  0  0  0  0  0  0  0  0  0
    0.8505   -0.0567   -1.2817 C   0  0  1  0  0  0  0  0  0  0  0  0
    0.2063    1.3161   -1.3906 C   0  0  0  0  0  0  0  0  0  0  0  0
   -1.9506    2.1817   -0.4560 O   0  0  0  0  0  0  0  0  0  0  0  0
   -1.6278    3.4876   -0.2180 C   0  0  0  0  0  0  0  0  0  0  0  0
   -0.8085    4.0583   -1.1234 N   0  0  0  0  0  0  0  0  0  0  0  0
   -0.5135    5.3542   -0.9587 C   0  0  0  0  0  0  0  0  0  0  0  0
   -1.0794    6.0997    0.0962 C   0  0  0  0  0  0  0  0  0  0  0  0
   -1.9373    5.5345    0.9711 N   0  0  0  0  0  0  0  0  0  0  0  0
   -2.2092    4.2036    0.8184 C   0  0  0  0  0  0  0  0  0  0  0  0
   -0.7354    7.4409    0.2237 C   0  0  0  0  0  0  0  0  0  0  0  0
    0.1432    8.0612   -0.6690 C   0  0  0  0  0  0  0  0  0  0  0  0
    0.6990    7.3233   -1.7050 C   0  0  0  0  0  0  0  0  0  0  0  0
    0.3564    5.9785   -1.8460 C   0  0  0  0  0  0  0  0  0  0  0  0
   -3.0596    3.5004    1.8685 C   0  0  0  0  0  0  0  0  0  0  0  0
   -4.2564    2.7549    1.3126 C   0  0  0  0  0  0  0  0  0  0  0  0
   -4.5004    1.4506    1.5147 C   0  0  0  0  0  0  0  0  0  0  0  0
   -5.6405    0.6888    0.9103 C   0  0  0  0  0  0  0  0  0  0  0  0
   -5.0977   -0.0037   -0.2053 O   0  0  0  0  0  0  0  0  0  0  0  0
   -3.5522    4.3768    2.7983 F   0  0  0  0  0  0  0  0  0  0  0  0
   -2.2881    2.6356    2.6030 F   0  0  0  0  0  0  0  0  0  0  0  0
    1.9011   -0.1208   -0.1617 C   0  0  0  0  0  0  0  0  0  0  0  0
    2.7201   -1.2307   -0.1917 N   0  0  0  0  0  0  0  0  0  0  0  0
    1.9702    0.6875    0.7656 O   0  0  0  0  0  0  0  0  0  0  0  0
    3.6518   -1.4999    0.8928 C   0  0  2  0  0  0  0  0  0  0  0  0
    3.8019   -2.9404    1.3700 C   0  0  0  0  0  0  0  0  0  0  0  0
    3.0502   -1.9664    2.2229 C   0  0  1  0  0  0  0  0  0  0  0  0
    4.8696   -0.5985    0.9374 C   0  0  0  0  0  0  0  0  0  0  0  0
    4.5866    0.7558    1.1799 N   0  0  0  0  0  0  0  0  0  0  0  0
    5.9992   -1.0327    0.7803 O   0  0  0  0  0  0  0  0  0  0  0  0
    5.3341    1.9222    0.2615 S   0  0  0  0  0  0  0  0  0  0  0  0
    7.0607    2.0454    0.7706 C   0  0  0  0  0  0  0  0  0  0  0  0
    4.7070    3.1716    0.6352 O   0  0  0  0  0  0  0  0  0  0  0  0
    5.2687    1.4644   -1.1146 O   0  0  0  0  0  0  0  0  0  0  0  0
    7.2261    2.3115    2.2241 C   0  0  0  0  0  0  0  0  0  0  0  0
    8.0467    1.2119    0.0030 C   0  0  0  0  0  0  0  0  0  0  0  0
    7.9614    2.6907   -0.2472 C   0  0  0  0  0  0  0  0  0  0  0  0
    3.5956   -1.5542    3.5420 C   0  0  0  0  0  0  0  0  0  0  0  0
    2.9632   -2.2708    4.5108 F   0  0  0  0  0  0  0  0  0  0  0  0
    4.9137   -1.8634    3.6318 F   0  0  0  0  0  0  0  0  0  0  0  0
   -7.6079   -0.7794   -1.5527 H   0  0  0  0  0  0  0  0  0  0  0  0
   -7.6843   -0.6935    0.2217 H   0  0  0  0  0  0  0  0  0  0  0  0
   -7.3398   -3.2107   -1.4722 H   0  0  0  0  0  0  0  0  0  0  0  0
   -8.6133   -2.9128   -0.2733 H   0  0  0  0  0  0  0  0  0  0  0  0
   -6.4616   -4.2928    0.5073 H   0  0  0  0  0  0  0  0  0  0  0  0
   -7.0271   -2.9732    1.5455 H   0  0  0  0  0  0  0  0  0  0  0  0
   -4.9189   -2.1144    1.3333 H   0  0  0  0  0  0  0  0  0  0  0  0
   -5.3239   -1.4336   -1.5779 H   0  0  0  0  0  0  0  0  0  0  0  0
   -2.7964   -3.5685   -1.8961 H   0  0  0  0  0  0  0  0  0  0  0  0
   -0.5254   -3.2661    0.0428 H   0  0  0  0  0  0  0  0  0  0  0  0
   -1.7522   -5.4059   -2.8664 H   0  0  0  0  0  0  0  0  0  0  0  0
   -0.1295   -5.8722   -3.4029 H   0  0  0  0  0  0  0  0  0  0  0  0
   -0.7265   -4.2442   -3.7250 H   0  0  0  0  0  0  0  0  0  0  0  0
    0.2981   -5.5477    0.3053 H   0  0  0  0  0  0  0  0  0  0  0  0
   -1.2267   -6.0483   -0.4243 H   0  0  0  0  0  0  0  0  0  0  0  0
    0.3092   -6.6757   -1.0559 H   0  0  0  0  0  0  0  0  0  0  0  0
    1.5231   -3.4978   -2.6290 H   0  0  0  0  0  0  0  0  0  0  0  0
    1.9248   -5.1644   -2.2058 H   0  0  0  0  0  0  0  0  0  0  0  0
    1.8633   -3.9320   -0.9385 H   0  0  0  0  0  0  0  0  0  0  0  0
   -0.3915    1.4647    0.7264 H   0  0  0  0  0  0  0  0  0  0  0  0
   -1.6942   -0.5449    0.5788 H   0  0  0  0  0  0  0  0  0  0  0  0
   -2.1639   -0.2187   -1.0952 H   0  0  0  0  0  0  0  0  0  0  0  0
    1.3109   -0.3613   -2.2261 H   0  0  0  0  0  0  0  0  0  0  0  0
    0.9420    2.1252   -1.2906 H   0  0  0  0  0  0  0  0  0  0  0  0
   -0.2831    1.4354   -2.3657 H   0  0  0  0  0  0  0  0  0  0  0  0
   -1.1419    8.0133    1.0490 H   0  0  0  0  0  0  0  0  0  0  0  0
    0.3961    9.1186   -0.5648 H   0  0  0  0  0  0  0  0  0  0  0  0
    1.3923    7.7849   -2.4072 H   0  0  0  0  0  0  0  0  0  0  0  0
    0.7813    5.3940   -2.6575 H   0  0  0  0  0  0  0  0  0  0  0  0
   -4.9184    3.3175    0.6609 H   0  0  0  0  0  0  0  0  0  0  0  0
   -3.8498    0.8625    2.1535 H   0  0  0  0  0  0  0  0  0  0  0  0
   -6.4354    1.3693    0.5735 H   0  0  0  0  0  0  0  0  0  0  0  0
   -6.0282   -0.0002    1.6653 H   0  0  0  0  0  0  0  0  0  0  0  0
    2.8485   -1.7275   -1.0711 H   0  0  0  0  0  0  0  0  0  0  0  0
    4.7790   -3.2837    1.7018 H   0  0  0  0  0  0  0  0  0  0  0  0
    3.2301   -3.7116    0.8847 H   0  0  0  0  0  0  0  0  0  0  0  0
    1.9696   -2.0367    2.2599 H   0  0  0  0  0  0  0  0  0  0  0  0
    3.5912    0.9890    1.2886 H   0  0  0  0  0  0  0  0  0  0  0  0
    6.7075    3.2195    2.5319 H   0  0  0  0  0  0  0  0  0  0  0  0
    6.8522    1.4757    2.8243 H   0  0  0  0  0  0  0  0  0  0  0  0
    8.2881    2.4314    2.4702 H   0  0  0  0  0  0  0  0  0  0  0  0
    8.9180    0.8230    0.5152 H   0  0  0  0  0  0  0  0  0  0  0  0
    7.6634    0.5218   -0.7421 H   0  0  0  0  0  0  0  0  0  0  0  0
    8.7832    3.3073    0.0993 H   0  0  0  0  0  0  0  0  0  0  0  0
    7.5443    3.0282   -1.1949 H   0  0  0  0  0  0  0  0  0  0  0  0
    3.4523   -0.4864    3.7332 H   0  0  0  0  0  0  0  0  0  0  0  0
  1  2  1  0
  2  3  1  0
  4  3  1  0
  4  5  1  0
  5  1  1  0
  4  6  1  0
  6  7  1  0
  7  8  1  0
  7  9  2  0
  8 10  1  0
 10 11  1  0
 10 12  1  0
 12 13  1  0
 12 14  1  0
 12 15  1  0
 11 16  2  0
 11 17  1  0
 19 17  1  0
 17 20  1  0
 18 19  1  0
 20 21  1  0
 18 21  1  0
 18 22  1  0
 22 23  1  0
 23 24  2  0
 28 23  1  0
 24 25  1  0
 26 27  1  0
 27 28  2  0
 26 29  1  0
 25 26  2  0
 32 25  1  0
 29 30  2  0
 30 31  1  0
 31 32  2  0
 28 33  1  0
 33 34  1  0
 34 35  2  0
 35 36  1  0
 36 37  1  0
  5 37  1  0
 33 38  1  0
 33 39  1  0
 20 40  1  0
 40 41  1  0
 40 42  2  0
 43 41  1  6
 43 44  1  0
 45 43  1  0
 44 45  1  0
 43 46  1  0
 46 47  1  0
 46 48  2  0
 47 49  1  0
 49 50  1  0
 49 51  2  0
 49 52  2  0
 50 53  1  0
 50 54  1  0
 55 50  1  0
 54 55  1  0
 45 56  1  0
 56 57  1  0
 56 58  1  0
  1 59  1  0
  1 60  1  0
  2 61  1  0
  2 62  1  0
  3 63  1  0
  3 64  1  0
  4 65  1  1
  5 66  1  6
  8 67  1  0
 10 68  1  1
 13 69  1  0
 13 70  1  0
 13 71  1  0
 14 72  1  0
 14 73  1  0
 14 74  1  0
 15 75  1  0
 15 76  1  0
 15 77  1  0
 18 78  1  1
 19 79  1  0
 19 80  1  0
 20 81  1  6
 21 82  1  0
 21 83  1  0
 29 84  1  0
 30 85  1  0
 31 86  1  0
 32 87  1  0
 34 88  1  0
 35 89  1  0
 36 90  1  0
 36 91  1  0
 41 92  1  0
 44 93  1  0
 44 94  1  0
 45 95  1  1
 47 96  1  0
 53 97  1  0
 53 98  1  0
 53 99  1  0
 54100  1  0
 54101  1  0
 55102  1  0
 55103  1  0
 56104  1  0
M  END
$$$$
