
     RDKit          3D

 58 64  0  0  0  0  0  0  0  0999 V2000
   -4.9328   -4.2791   -2.1389 C   0  0  0  0  0  0  0  0  0  0  0  0
   -3.8543   -4.6478   -3.1429 C   0  0  0  0  0  0  0  0  0  0  0  0
   -2.5266   -4.2410   -2.5110 C   0  0  0  0  0  0  0  0  0  0  0  0
   -2.8906   -3.7178   -1.1634 C   0  0  2  0  0  0  0  0  0  0  0  0
   -4.2803   -3.1371   -1.4104 C   0  0  2  0  0  0  0  0  0  0  0  0
   -2.0201   -2.6645   -0.7149 O   0  0  0  0  0  0  0  0  0  0  0  0
   -2.0070   -2.4433    0.6721 C   0  0  0  0  0  0  0  0  0  0  0  0
   -1.2068   -1.4221    1.1816 N   0  0  0  0  0  0  0  0  0  0  0  0
   -2.7440   -3.2085    1.3415 O   0  0  0  0  0  0  0  0  0  0  0  0
   -1.1168   -1.1023    2.5852 C   0  0  2  0  0  0  0  0  0  0  0  0
   -0.4320    0.2103    2.6922 C   0  0  0  0  0  0  0  0  0  0  0  0
   -0.4273   -2.1567    3.4164 C   0  0  0  0  0  0  0  0  0  0  0  0
    0.9818   -2.3550    2.9034 C   0  0  0  0  0  0  0  0  0  0  0  0
   -0.2558   -1.6563    4.8628 C   0  0  0  0  0  0  0  0  0  0  0  0
   -1.2019   -3.4420    3.5420 C   0  0  0  0  0  0  0  0  0  0  0  0
   -0.2856    0.7883    3.7796 O   0  0  0  0  0  0  0  0  0  0  0  0
    0.1132    0.9100    1.5729 N   0  0  0  0  0  0  0  0  0  0  0  0
   -0.2157    2.8409    0.4901 C   0  0  1  0  0  0  0  0  0  0  0  0
    0.6010    2.3070    1.7308 C   0  0  0  0  0  0  0  0  0  0  0  0
    0.2188    0.4916    0.2248 C   0  0  1  0  0  0  0  0  0  0  0  0
    0.2927    1.8090   -0.5662 C   0  0  0  0  0  0  0  0  0  0  0  0
   -1.5512    2.3942    0.8297 O   0  0  0  0  0  0  0  0  0  0  0  0
   -2.6612    3.1835    0.6180 C   0  0  0  0  0  0  0  0  0  0  0  0
   -2.6641    4.3893    1.2373 N   0  0  0  0  0  0  0  0  0  0  0  0
   -3.6876    5.2486    1.1111 C   0  0  0  0  0  0  0  0  0  0  0  0
   -4.7638    4.8948    0.3316 C   0  0  0  0  0  0  0  0  0  0  0  0
   -4.7715    3.7061   -0.2849 N   0  0  0  0  0  0  0  0  0  0  0  0
   -3.7367    2.8233   -0.1650 C   0  0  0  0  0  0  0  0  0  0  0  0
   -5.8598    5.7247    0.1496 C   0  0  0  0  0  0  0  0  0  0  0  0
   -5.8624    6.9567    0.7816 C   0  0  0  0  0  0  0  0  0  0  0  0
   -4.7946    7.3267    1.5648 C   0  0  0  0  0  0  0  0  0  0  0  0
   -3.7223    6.4863    1.7284 C   0  0  0  0  0  0  0  0  0  0  0  0
   -3.8680    1.5631   -0.9010 C   0  0  0  0  0  0  0  0  0  0  0  0
   -4.8057    0.5790   -0.2506 C   0  0  0  0  0  0  0  0  0  0  0  0
   -4.9058   -0.5850   -0.9040 C   0  0  0  0  0  0  0  0  0  0  0  0
   -5.7522   -1.7097   -0.4803 C   0  0  0  0  0  0  0  0  0  0  0  0
   -4.9445   -2.8208   -0.2585 O   0  0  0  0  0  0  0  0  0  0  0  0
   -2.6738    0.9180   -1.0555 F   0  0  0  0  0  0  0  0  0  0  0  0
   -4.3885    1.7988   -2.1861 F   0  0  0  0  0  0  0  0  0  0  0  0
    1.5812   -0.1137    0.0251 C   0  0  0  0  0  0  0  0  0  0  0  0
    2.0139   -0.6545   -1.1901 N   0  0  0  0  0  0  0  0  0  0  0  0
    2.3721   -0.1288    1.0186 O   0  0  0  0  0  0  0  0  0  0  0  0
    3.3267   -1.2428   -1.4028 C   0  0  2  0  0  0  0  0  0  0  0  0
    3.4499   -1.7306   -2.8783 C   0  0  0  0  0  0  0  0  0  0  0  0
    3.3978   -2.6682   -1.7133 C   0  0  1  0  0  0  0  0  0  0  0  0
    4.5072   -0.4303   -1.0115 C   0  0  0  0  0  0  0  0  0  0  0  0
    5.7967   -0.9451   -0.8206 N   0  0  0  0  0  0  0  0  0  0  0  0
    4.3282    0.8020   -0.8427 O   0  0  0  0  0  0  0  0  0  0  0  0
    7.1739   -0.0099   -0.3664 S   0  0  0  0  0  0  0  0  0  0  0  0
    8.5663   -1.1368   -0.2703 C   0  0  0  0  0  0  0  0  0  0  0  0
    7.0279    0.5969    0.9855 O   0  0  0  0  0  0  0  0  0  0  0  0
    7.4142    1.0031   -1.4482 O   0  0  0  0  0  0  0  0  0  0  0  0
    8.4378   -2.2669    0.7207 C   0  0  0  0  0  0  0  0  0  0  0  0
    9.1818   -1.5443   -1.5961 C   0  0  0  0  0  0  0  0  0  0  0  0
    9.9036   -0.6053   -0.6223 C   0  0  0  0  0  0  0  0  0  0  0  0
    4.6017   -3.5280   -1.5377 C   0  0  0  0  0  0  0  0  0  0  0  0
    5.7047   -3.1632   -2.2424 F   0  0  0  0  0  0  0  0  0  0  0  0
    4.8184   -3.9950   -0.2801 F   0  0  0  0  0  0  0  0  0  0  0  0
  1  2  1  0
  2  3  1  0
  4  3  1  6
  4  5  1  0
  5  1  1  1
  4  6  1  0
  6  7  1  0
  7  8  1  0
  7  9  2  0
  8 10  1  0
 10 11  1  0
 10 12  1  1
 12 13  1  0
 12 14  1  0
 12 15  1  0
 11 16  2  0
 11 17  1  0
 19 17  1  0
 17 20  1  0
 18 19  1  0
 20 21  1  0
 18 21  1  6
 18 22  1  0
 22 23  1  0
 23 24  2  0
 28 23  1  0
 24 25  1  0
 26 27  1  0
 27 28  2  0
 26 29  1  0
 25 26  2  0
 32 25  1  0
 29 30  2  0
 30 31  1  0
 31 32  2  0
 28 33  1  0
 33 34  1  0
 34 35  2  0
 35 36  1  0
 36 37  1  0
  5 37  1  0
 33 38  1  0
 33 39  1  0
 20 40  1  1
 40 41  1  0
 40 42  2  0
 43 41  1  6
 43 44  1  0
 45 43  1  0
 44 45  1  0
 43 46  1  0
 46 47  1  0
 46 48  2  0
 47 49  1  0
 49 50  1  0
 49 51  2  0
 49 52  2  0
 50 53  1  0
 50 54  1  0
 55 50  1  0
 54 55  1  0
 45 56  1  1
 56 57  1  0
 56 58  1  0
M  END
