
     RDKit          3D

104110  0  0  0  0  0  0  0  0999 V2000
   -3.7913   -2.6225   -3.7159 C   0  0  0  0  0  0  0  0  0  0  0  0
   -3.6468   -4.1231   -3.4376 C   0  0  0  0  0  0  0  0  0  0  0  0
   -2.7760   -4.2250   -2.1972 C   0  0  0  0  0  0  0  0  0  0  0  0
   -3.1671   -2.9879   -1.4043 C   0  0  2  0  0  0  0  0  0  0  0  0
   -3.2280   -1.8947   -2.4821 C   0  0  2  0  0  0  0  0  0  0  0  0
   -2.1644   -2.7286   -0.4142 O   0  0  0  0  0  0  0  0  0  0  0  0
   -2.6339   -2.1883    0.7403 C   0  0  0  0  0  0  0  0  0  0  0  0
   -1.6223   -2.0938    1.6506 N   0  0  0  0  0  0  0  0  0  0  0  0
   -3.7867   -1.8475    0.9476 O   0  0  0  0  0  0  0  0  0  0  0  0
   -1.8410   -1.6059    3.0038 C   0  0  2  0  0  0  0  0  0  0  0  0
   -1.3041   -0.1643    3.3135 C   0  0  0  0  0  0  0  0  0  0  0  0
   -1.5225   -2.7084    4.0876 C   0  0  0  0  0  0  0  0  0  0  0  0
   -0.0125   -2.9636    4.2339 C   0  0  0  0  0  0  0  0  0  0  0  0
   -2.2053   -4.0433    3.6997 C   0  0  0  0  0  0  0  0  0  0  0  0
   -2.0794   -2.3212    5.4767 C   0  0  0  0  0  0  0  0  0  0  0  0
   -1.5336    0.3215    4.4316 O   0  0  0  0  0  0  0  0  0  0  0  0
   -0.6655    0.6382    2.3851 N   0  0  0  0  0  0  0  0  0  0  0  0
   -0.5176    2.7334    1.2606 C   0  0  1  0  0  0  0  0  0  0  0  0
   -0.7458    2.0842    2.6181 C   0  0  0  0  0  0  0  0  0  0  0  0
   -0.0790    0.3649    1.0526 C   0  0  1  0  0  0  0  0  0  0  0  0
    0.4309    1.7508    0.6060 C   0  0  0  0  0  0  0  0  0  0  0  0
   -1.7077    2.7368    0.4603 O   0  0  0  0  0  0  0  0  0  0  0  0
   -2.2194    3.9991    0.3233 C   0  0  0  0  0  0  0  0  0  0  0  0
   -2.4178    4.7015    1.4615 N   0  0  0  0  0  0  0  0  0  0  0  0
   -2.9734    5.9178    1.3247 C   0  0  0  0  0  0  0  0  0  0  0  0
   -3.3450    6.4208    0.0533 C   0  0  0  0  0  0  0  0  0  0  0  0
   -3.1532    5.7009   -1.0670 N   0  0  0  0  0  0  0  0  0  0  0  0
   -2.5697    4.4746   -0.9309 C   0  0  0  0  0  0  0  0  0  0  0  0
   -3.8977    7.6887   -0.0405 C   0  0  0  0  0  0  0  0  0  0  0  0
   -4.0985    8.4729    1.0981 C   0  0  0  0  0  0  0  0  0  0  0  0
   -3.7298    7.9800    2.3432 C   0  0  0  0  0  0  0  0  0  0  0  0
   -3.1691    6.7090    2.4460 C   0  0  0  0  0  0  0  0  0  0  0  0
   -2.2475    3.6744   -2.1766 C   0  0  0  0  0  0  0  0  0  0  0  0
   -3.2979    2.6331   -2.4904 C   0  0  0  0  0  0  0  0  0  0  0  0
   -3.0738    1.3077   -2.5303 C   0  0  0  0  0  0  0  0  0  0  0  0
   -4.0921    0.2922   -2.9500 C   0  0  0  0  0  0  0  0  0  0  0  0
   -4.0640   -0.8175   -2.0574 O   0  0  0  0  0  0  0  0  0  0  0  0
   -1.0150    3.0749   -2.0927 F   0  0  0  0  0  0  0  0  0  0  0  0
   -2.1373    4.4825   -3.2844 F   0  0  0  0  0  0  0  0  0  0  0  0
    1.1025   -0.6407    1.0776 C   0  0  0  0  0  0  0  0  0  0  0  0
    2.0704   -0.4755    0.0971 N   0  0  0  0  0  0  0  0  0  0  0  0
    1.1365   -1.5840    1.8644 O   0  0  0  0  0  0  0  0  0  0  0  0
    3.4758   -0.8800    0.2373 C   0  0  2  0  0  0  0  0  0  0  0  0
    3.8345   -2.3120    0.6017 C   0  0  0  0  0  0  0  0  0  0  0  0
    4.0604   -1.2163    1.6108 C   0  0  1  0  0  0  0  0  0  0  0  0
    4.3905   -0.1126   -0.7076 C   0  0  0  0  0  0  0  0  0  0  0  0
    4.9193   -0.8581   -1.7667 N   0  0  0  0  0  0  0  0  0  0  0  0
    4.5612    1.0796   -0.5202 O   0  0  0  0  0  0  0  0  0  0  0  0
    5.6688   -0.1335   -3.0759 S   0  0  0  0  0  0  0  0  0  0  0  0
    6.8613   -1.3095   -3.7667 C   0  0  0  0  0  0  0  0  0  0  0  0
    6.4646    0.9801   -2.6181 O   0  0  0  0  0  0  0  0  0  0  0  0
    4.6352    0.0108   -4.0768 O   0  0  0  0  0  0  0  0  0  0  0  0
    7.6481   -0.7121   -4.8764 C   0  0  0  0  0  0  0  0  0  0  0  0
    6.4745   -2.7657   -3.7559 C   0  0  0  0  0  0  0  0  0  0  0  0
    7.4979   -2.2447   -2.7713 C   0  0  0  0  0  0  0  0  0  0  0  0
    5.4346   -0.8097    2.0105 C   0  0  0  0  0  0  0  0  0  0  0  0
    5.3604    0.3401    2.7209 F   0  0  0  0  0  0  0  0  0  0  0  0
    5.9382   -1.7540    2.8454 F   0  0  0  0  0  0  0  0  0  0  0  0
   -4.8405   -2.3676   -3.9196 H   0  0  0  0  0  0  0  0  0  0  0  0
   -3.2156   -2.3535   -4.6089 H   0  0  0  0  0  0  0  0  0  0  0  0
   -4.6384   -4.5501   -3.2373 H   0  0  0  0  0  0  0  0  0  0  0  0
   -3.2181   -4.6688   -4.2859 H   0  0  0  0  0  0  0  0  0  0  0  0
   -1.7114   -4.2081   -2.4589 H   0  0  0  0  0  0  0  0  0  0  0  0
   -2.9566   -5.1449   -1.6308 H   0  0  0  0  0  0  0  0  0  0  0  0
   -4.1523   -3.1459   -0.9485 H   0  0  0  0  0  0  0  0  0  0  0  0
   -2.2180   -1.5163   -2.6817 H   0  0  0  0  0  0  0  0  0  0  0  0
   -0.6997   -2.4391    1.4013 H   0  0  0  0  0  0  0  0  0  0  0  0
   -2.9272   -1.4435    3.0846 H   0  0  0  0  0  0  0  0  0  0  0  0
    0.5353   -2.0385    4.4399 H   0  0  0  0  0  0  0  0  0  0  0  0
    0.1941   -3.6531    5.0598 H   0  0  0  0  0  0  0  0  0  0  0  0
    0.4036   -3.4196    3.3324 H   0  0  0  0  0  0  0  0  0  0  0  0
   -2.0285   -4.8134    4.4628 H   0  0  0  0  0  0  0  0  0  0  0  0
   -3.2874   -3.9060    3.5989 H   0  0  0  0  0  0  0  0  0  0  0  0
   -1.8208   -4.4446    2.7539 H   0  0  0  0  0  0  0  0  0  0  0  0
   -3.1342   -2.0231    5.4047 H   0  0  0  0  0  0  0  0  0  0  0  0
   -1.5123   -1.5015    5.9328 H   0  0  0  0  0  0  0  0  0  0  0  0
   -2.0213   -3.1661    6.1760 H   0  0  0  0  0  0  0  0  0  0  0  0
   -0.0618    3.7259    1.3500 H   0  0  0  0  0  0  0  0  0  0  0  0
    0.0537    2.3406    3.3198 H   0  0  0  0  0  0  0  0  0  0  0  0
   -1.7150    2.3515    3.0471 H   0  0  0  0  0  0  0  0  0  0  0  0
   -0.8662    0.0067    0.3819 H   0  0  0  0  0  0  0  0  0  0  0  0
    1.4475    1.9381    0.9693 H   0  0  0  0  0  0  0  0  0  0  0  0
    0.4349    1.8339   -0.4833 H   0  0  0  0  0  0  0  0  0  0  0  0
   -4.1743    8.0726   -1.0177 H   0  0  0  0  0  0  0  0  0  0  0  0
   -4.5319    9.4643    1.0043 H   0  0  0  0  0  0  0  0  0  0  0  0
   -3.8694    8.5855    3.2365 H   0  0  0  0  0  0  0  0  0  0  0  0
   -2.8793    6.3278    3.4219 H   0  0  0  0  0  0  0  0  0  0  0  0
   -4.2632    3.0348   -2.7779 H   0  0  0  0  0  0  0  0  0  0  0  0
   -2.0930    0.9248   -2.2678 H   0  0  0  0  0  0  0  0  0  0  0  0
   -3.9086   -0.0166   -3.9850 H   0  0  0  0  0  0  0  0  0  0  0  0
   -5.1041    0.7135   -2.9037 H   0  0  0  0  0  0  0  0  0  0  0  0
    1.9330    0.2934   -0.5554 H   0  0  0  0  0  0  0  0  0  0  0  0
    3.0321   -3.0152    0.8035 H   0  0  0  0  0  0  0  0  0  0  0  0
    4.7131   -2.7762    0.1716 H   0  0  0  0  0  0  0  0  0  0  0  0
    3.4217   -1.2071    2.4835 H   0  0  0  0  0  0  0  0  0  0  0  0
    4.4366   -1.7162   -2.0124 H   0  0  0  0  0  0  0  0  0  0  0  0
    8.2879   -1.4580   -5.3515 H   0  0  0  0  0  0  0  0  0  0  0  0
    8.2892    0.0946   -4.5109 H   0  0  0  0  0  0  0  0  0  0  0  0
    6.9927   -0.3051   -5.6529 H   0  0  0  0  0  0  0  0  0  0  0  0
    6.8324   -3.3951   -4.5671 H   0  0  0  0  0  0  0  0  0  0  0  0
    5.5030   -3.0684   -3.3860 H   0  0  0  0  0  0  0  0  0  0  0  0
    7.2306   -2.1816   -1.7247 H   0  0  0  0  0  0  0  0  0  0  0  0
    8.5388   -2.5098   -2.9298 H   0  0  0  0  0  0  0  0  0  0  0  0
    6.1349   -0.6815    1.1847 H   0  0  0  0  0  0  0  0  0  0  0  0
  1  2  1  0
  2  3  1  0
  4  3  1  0
  4  5  1  0
  5  1  1  0
  4  6  1  0
  6  7  1  0
  7  8  1  0
  7  9  2  0
  8 10  1  0
 10 11  1  0
 10 12  1  0
 12 13  1  0
 12 14  1  0
 12 15  1  0
 11 16  2  0
 11 17  1  0
 19 17  1  0
 17 20  1  0
 18 19  1  0
 20 21  1  0
 18 21  1  0
 18 22  1  0
 22 23  1  0
 23 24  2  0
 28 23  1  0
 24 25  1  0
 26 27  1  0
 27 28  2  0
 26 29  1  0
 25 26  2  0
 32 25  1  0
 29 30  2  0
 30 31  1  0
 31 32  2  0
 28 33  1  0
 33 34  1  0
 34 35  2  0
 35 36  1  0
 36 37  1  0
  5 37  1  0
 33 38  1  0
 33 39  1  0
 20 40  1  0
 40 41  1  0
 40 42  2  0
 43 41  1  1
 43 44  1  0
 45 43  1  0
 44 45  1  0
 43 46  1  0
 46 47  1  0
 46 48  2  0
 47 49  1  0
 49 50  1  0
 49 51  2  0
 49 52  2  0
 50 53  1  0
 50 54  1  0
 55 50  1  0
 54 55  1  0
 45 56  1  0
 56 57  1  0
 56 58  1  0
  1 59  1  0
  1 60  1  0
  2 61  1  0
  2 62  1  0
  3 63  1  0
  3 64  1  0
  4 65  1  1
  5 66  1  6
  8 67  1  0
 10 68  1  6
 13 69  1  0
 13 70  1  0
 13 71  1  0
 14 72  1  0
 14 73  1  0
 14 74  1  0
 15 75  1  0
 15 76  1  0
 15 77  1  0
 18 78  1  1
 19 79  1  0
 19 80  1  0
 20 81  1  6
 21 82  1  0
 21 83  1  0
 29 84  1  0
 30 85  1  0
 31 86  1  0
 32 87  1  0
 34 88  1  0
 35 89  1  0
 36 90  1  0
 36 91  1  0
 41 92  1  0
 44 93  1  0
 44 94  1  0
 45 95  1  1
 47 96  1  0
 53 97  1  0
 53 98  1  0
 53 99  1  0
 54100  1  0
 54101  1  0
 55102  1  0
 55103  1  0
 56104  1  0
M  END
$$$$
