
     RDKit          3D

104110  0  0  0  0  0  0  0  0999 V2000
   -7.0905   -2.7450    0.3121 C   0  0  0  0  0  0  0  0  0  0  0  0
   -6.8025   -4.2295    0.0915 C   0  0  0  0  0  0  0  0  0  0  0  0
   -5.6456   -4.5852    1.0277 C   0  0  0  0  0  0  0  0  0  0  0  0
   -5.2833   -3.2833    1.7428 C   0  0  2  0  0  0  0  0  0  0  0  0
   -5.7608   -2.1692    0.7941 C   0  0  2  0  0  0  0  0  0  0  0  0
   -3.9200   -3.2155    2.1862 O   0  0  0  0  0  0  0  0  0  0  0  0
   -2.9241   -3.1388    1.2783 C   0  0  0  0  0  0  0  0  0  0  0  0
   -1.7490   -3.0527    1.9441 N   0  0  0  0  0  0  0  0  0  0  0  0
   -3.0792   -3.1182    0.0698 O   0  0  0  0  0  0  0  0  0  0  0  0
   -0.4249   -2.7624    1.3861 C   0  0  2  0  0  0  0  0  0  0  0  0
   -0.2734   -1.2244    1.1655 C   0  0  0  0  0  0  0  0  0  0  0  0
    0.1788   -3.8015    0.3764 C   0  0  0  0  0  0  0  0  0  0  0  0
    0.1498   -5.2061    1.0299 C   0  0  0  0  0  0  0  0  0  0  0  0
    1.6624   -3.4721    0.1106 C   0  0  0  0  0  0  0  0  0  0  0  0
   -0.5227   -3.9172   -0.9845 C   0  0  0  0  0  0  0  0  0  0  0  0
   -0.2410   -0.4403    2.1166 O   0  0  0  0  0  0  0  0  0  0  0  0
   -0.3124   -0.7537   -0.1487 N   0  0  0  0  0  0  0  0  0  0  0  0
   -1.6991    1.2190   -0.1631 C   0  0  1  0  0  0  0  0  0  0  0  0
   -1.6459   -0.2874   -0.5057 C   0  0  0  0  0  0  0  0  0  0  0  0
    0.5602    0.3802   -0.4609 C   0  0  1  0  0  0  0  0  0  0  0  0
   -0.2246    1.6441   -0.1133 C   0  0  0  0  0  0  0  0  0  0  0  0
   -2.5241    1.8540   -1.1432 O   0  0  0  0  0  0  0  0  0  0  0  0
   -2.4817    3.2158   -1.1250 C   0  0  0  0  0  0  0  0  0  0  0  0
   -1.6602    3.7322   -2.0719 N   0  0  0  0  0  0  0  0  0  0  0  0
   -1.6214    5.0719   -2.1901 C   0  0  0  0  0  0  0  0  0  0  0  0
   -2.4161    5.9007   -1.3713 C   0  0  0  0  0  0  0  0  0  0  0  0
   -3.2490    5.3729   -0.4577 N   0  0  0  0  0  0  0  0  0  0  0  0
   -3.3063    4.0092   -0.3393 C   0  0  0  0  0  0  0  0  0  0  0  0
   -2.3353    7.2797   -1.5198 C   0  0  0  0  0  0  0  0  0  0  0  0
   -1.4901    7.8591   -2.4678 C   0  0  0  0  0  0  0  0  0  0  0  0
   -0.7174    7.0446   -3.2858 C   0  0  0  0  0  0  0  0  0  0  0  0
   -0.7865    5.6587   -3.1351 C   0  0  0  0  0  0  0  0  0  0  0  0
   -4.2226    3.4413    0.7349 C   0  0  0  0  0  0  0  0  0  0  0  0
   -5.0995    2.2905    0.2892 C   0  0  0  0  0  0  0  0  0  0  0  0
   -5.5437    1.3302    1.1200 C   0  0  0  0  0  0  0  0  0  0  0  0
   -6.3516    0.1436    0.7127 C   0  0  0  0  0  0  0  0  0  0  0  0
   -5.8998   -0.9472    1.5074 O   0  0  0  0  0  0  0  0  0  0  0  0
   -5.0647    4.4001    1.2406 F   0  0  0  0  0  0  0  0  0  0  0  0
   -3.4805    3.0519    1.8212 F   0  0  0  0  0  0  0  0  0  0  0  0
    1.9971    0.3707    0.1053 C   0  0  0  0  0  0  0  0  0  0  0  0
    2.7732    1.4542   -0.2748 N   0  0  0  0  0  0  0  0  0  0  0  0
    2.4691   -0.5365    0.7837 O   0  0  0  0  0  0  0  0  0  0  0  0
    4.0468    1.7174    0.3999 C   0  0  2  0  0  0  0  0  0  0  0  0
    3.9692    2.4953    1.7182 C   0  0  0  0  0  0  0  0  0  0  0  0
    4.4866    3.1827    0.4842 C   0  0  1  0  0  0  0  0  0  0  0  0
    5.1324    0.6408    0.2828 C   0  0  0  0  0  0  0  0  0  0  0  0
    5.0633   -0.1481   -0.8695 N   0  0  0  0  0  0  0  0  0  0  0  0
    6.0397    0.5764    1.0970 O   0  0  0  0  0  0  0  0  0  0  0  0
    5.8640   -1.5899   -1.0590 S   0  0  0  0  0  0  0  0  0  0  0  0
    7.5960   -1.4293   -0.5486 C   0  0  0  0  0  0  0  0  0  0  0  0
    5.8921   -1.8047   -2.4928 O   0  0  0  0  0  0  0  0  0  0  0  0
    5.2145   -2.5590   -0.2042 O   0  0  0  0  0  0  0  0  0  0  0  0
    8.3107   -0.3306   -1.2452 C   0  0  0  0  0  0  0  0  0  0  0  0
    7.9106   -1.8124    0.8741 C   0  0  0  0  0  0  0  0  0  0  0  0
    8.2809   -2.7422   -0.2539 C   0  0  0  0  0  0  0  0  0  0  0  0
    5.9122    3.5913    0.3724 C   0  0  0  0  0  0  0  0  0  0  0  0
    6.1868    3.7871   -0.9456 F   0  0  0  0  0  0  0  0  0  0  0  0
    6.0562    4.8044    0.9763 F   0  0  0  0  0  0  0  0  0  0  0  0
   -7.8676   -2.6093    1.0764 H   0  0  0  0  0  0  0  0  0  0  0  0
   -7.4521   -2.2570   -0.6003 H   0  0  0  0  0  0  0  0  0  0  0  0
   -6.5015   -4.4112   -0.9470 H   0  0  0  0  0  0  0  0  0  0  0  0
   -7.6947   -4.8344    0.2897 H   0  0  0  0  0  0  0  0  0  0  0  0
   -4.8054   -5.0016    0.4648 H   0  0  0  0  0  0  0  0  0  0  0  0
   -5.9432   -5.3565    1.7473 H   0  0  0  0  0  0  0  0  0  0  0  0
   -5.8727   -3.2163    2.6686 H   0  0  0  0  0  0  0  0  0  0  0  0
   -5.0827   -2.0122   -0.0482 H   0  0  0  0  0  0  0  0  0  0  0  0
   -1.8630   -2.9058    2.9389 H   0  0  0  0  0  0  0  0  0  0  0  0
    0.2155   -2.8974    2.2761 H   0  0  0  0  0  0  0  0  0  0  0  0
   -0.8712   -5.5401    1.2367 H   0  0  0  0  0  0  0  0  0  0  0  0
    0.6141   -5.9568    0.3799 H   0  0  0  0  0  0  0  0  0  0  0  0
    0.6978   -5.2171    1.9774 H   0  0  0  0  0  0  0  0  0  0  0  0
    2.2047   -3.3070    1.0477 H   0  0  0  0  0  0  0  0  0  0  0  0
    2.1631   -4.2931   -0.4150 H   0  0  0  0  0  0  0  0  0  0  0  0
    1.7686   -2.5843   -0.5152 H   0  0  0  0  0  0  0  0  0  0  0  0
   -1.4689   -4.4606   -0.9142 H   0  0  0  0  0  0  0  0  0  0  0  0
    0.0939   -4.4894   -1.6892 H   0  0  0  0  0  0  0  0  0  0  0  0
   -0.7067   -2.9438   -1.4444 H   0  0  0  0  0  0  0  0  0  0  0  0
   -2.1496    1.3439    0.8275 H   0  0  0  0  0  0  0  0  0  0  0  0
   -1.7899   -0.4632   -1.5775 H   0  0  0  0  0  0  0  0  0  0  0  0
   -2.4384   -0.8075    0.0330 H   0  0  0  0  0  0  0  0  0  0  0  0
    0.6790    0.3405   -1.5544 H   0  0  0  0  0  0  0  0  0  0  0  0
    0.0250    1.9838    0.9026 H   0  0  0  0  0  0  0  0  0  0  0  0
    0.0435    2.4518   -0.7959 H   0  0  0  0  0  0  0  0  0  0  0  0
   -2.9446    7.9169   -0.8811 H   0  0  0  0  0  0  0  0  0  0  0  0
   -1.4441    8.9409   -2.5677 H   0  0  0  0  0  0  0  0  0  0  0  0
   -0.0610    7.4820   -4.0367 H   0  0  0  0  0  0  0  0  0  0  0  0
   -0.1761    5.0193   -3.7676 H   0  0  0  0  0  0  0  0  0  0  0  0
   -5.3626    2.2594   -0.7629 H   0  0  0  0  0  0  0  0  0  0  0  0
   -5.2907    1.3882    2.1792 H   0  0  0  0  0  0  0  0  0  0  0  0
   -6.2378   -0.0527   -0.3574 H   0  0  0  0  0  0  0  0  0  0  0  0
   -7.4062    0.3081    0.9382 H   0  0  0  0  0  0  0  0  0  0  0  0
    2.3140    2.2411   -0.7192 H   0  0  0  0  0  0  0  0  0  0  0  0
    4.6662    2.2449    2.5128 H   0  0  0  0  0  0  0  0  0  0  0  0
    2.9890    2.7789    2.0899 H   0  0  0  0  0  0  0  0  0  0  0  0
    3.8506    3.9409    0.0346 H   0  0  0  0  0  0  0  0  0  0  0  0
    4.1832   -0.1410   -1.3711 H   0  0  0  0  0  0  0  0  0  0  0  0
    9.3789   -0.3343   -1.0077 H   0  0  0  0  0  0  0  0  0  0  0  0
    7.9138    0.6457   -0.9531 H   0  0  0  0  0  0  0  0  0  0  0  0
    8.2179   -0.4249   -2.3297 H   0  0  0  0  0  0  0  0  0  0  0  0
    8.7057   -1.2747    1.3776 H   0  0  0  0  0  0  0  0  0  0  0  0
    7.1009   -2.1014    1.5337 H   0  0  0  0  0  0  0  0  0  0  0  0
    9.3295   -2.8493   -0.5021 H   0  0  0  0  0  0  0  0  0  0  0  0
    7.7213   -3.6677   -0.3482 H   0  0  0  0  0  0  0  0  0  0  0  0
    6.6517    2.9062    0.7987 H   0  0  0  0  0  0  0  0  0  0  0  0
  1  2  1  0
  2  3  1  0
  4  3  1  0
  4  5  1  0
  5  1  1  0
  4  6  1  0
  6  7  1  0
  7  8  1  0
  7  9  2  0
  8 10  1  0
 10 11  1  0
 10 12  1  0
 12 13  1  0
 12 14  1  0
 12 15  1  0
 11 16  2  0
 11 17  1  0
 19 17  1  0
 17 20  1  0
 18 19  1  0
 20 21  1  0
 18 21  1  0
 18 22  1  0
 22 23  1  0
 23 24  2  0
 28 23  1  0
 24 25  1  0
 26 27  1  0
 27 28  2  0
 26 29  1  0
 25 26  2  0
 32 25  1  0
 29 30  2  0
 30 31  1  0
 31 32  2  0
 28 33  1  0
 33 34  1  0
 34 35  2  0
 35 36  1  0
 36 37  1  0
  5 37  1  0
 33 38  1  0
 33 39  1  0
 20 40  1  0
 40 41  1  0
 40 42  2  0
 43 41  1  6
 43 44  1  0
 45 43  1  0
 44 45  1  0
 43 46  1  0
 46 47  1  0
 46 48  2  0
 47 49  1  0
 49 50  1  0
 49 51  2  0
 49 52  2  0
 50 53  1  0
 50 54  1  0
 55 50  1  0
 54 55  1  0
 45 56  1  0
 56 57  1  0
 56 58  1  0
  1 59  1  0
  1 60  1  0
  2 61  1  0
  2 62  1  0
  3 63  1  0
  3 64  1  0
  4 65  1  1
  5 66  1  6
  8 67  1  0
 10 68  1  1
 13 69  1  0
 13 70  1  0
 13 71  1  0
 14 72  1  0
 14 73  1  0
 14 74  1  0
 15 75  1  0
 15 76  1  0
 15 77  1  0
 18 78  1  1
 19 79  1  0
 19 80  1  0
 20 81  1  6
 21 82  1  0
 21 83  1  0
 29 84  1  0
 30 85  1  0
 31 86  1  0
 32 87  1  0
 34 88  1  0
 35 89  1  0
 36 90  1  0
 36 91  1  0
 41 92  1  0
 44 93  1  0
 44 94  1  0
 45 95  1  6
 47 96  1  0
 53 97  1  0
 53 98  1  0
 53 99  1  0
 54100  1  0
 54101  1  0
 55102  1  0
 55103  1  0
 56104  1  0
M  END
$$$$
