
     RDKit          3D

104110  0  0  0  0  0  0  0  0999 V2000
   -5.7659   -2.2524   -3.4007 C   0  0  0  0  0  0  0  0  0  0  0  0
   -5.8560   -3.6611   -2.8214 C   0  0  0  0  0  0  0  0  0  0  0  0
   -4.8833   -3.7015   -1.6391 C   0  0  0  0  0  0  0  0  0  0  0  0
   -4.2588   -2.3028   -1.5534 C   0  0  2  0  0  0  0  0  0  0  0  0
   -4.3724   -1.7818   -2.9910 C   0  0  2  0  0  0  0  0  0  0  0  0
   -2.8939   -2.4084   -1.1231 O   0  0  0  0  0  0  0  0  0  0  0  0
   -2.5264   -1.5409   -0.1490 C   0  0  0  0  0  0  0  0  0  0  0  0
   -1.3238   -1.9513    0.3689 N   0  0  0  0  0  0  0  0  0  0  0  0
   -3.1940   -0.6084    0.2717 O   0  0  0  0  0  0  0  0  0  0  0  0
   -1.1490   -1.8211    1.8202 C   0  0  2  0  0  0  0  0  0  0  0  0
   -0.6206   -0.4457    2.3443 C   0  0  0  0  0  0  0  0  0  0  0  0
   -0.5365   -3.1184    2.4786 C   0  0  0  0  0  0  0  0  0  0  0  0
   -1.4401   -4.3373    2.1444 C   0  0  0  0  0  0  0  0  0  0  0  0
    0.8829   -3.4332    1.9870 C   0  0  0  0  0  0  0  0  0  0  0  0
   -0.4826   -3.0176    4.0194 C   0  0  0  0  0  0  0  0  0  0  0  0
   -0.8377   -0.1648    3.5334 O   0  0  0  0  0  0  0  0  0  0  0  0
    0.0730    0.4518    1.5608 N   0  0  0  0  0  0  0  0  0  0  0  0
    0.3222    2.6836    0.7739 C   0  0  1  0  0  0  0  0  0  0  0  0
    0.1622    1.8357    2.0389 C   0  0  0  0  0  0  0  0  0  0  0  0
    0.5755    0.3557    0.1840 C   0  0  1  0  0  0  0  0  0  0  0  0
    1.1550    1.7600   -0.1078 C   0  0  0  0  0  0  0  0  0  0  0  0
   -0.9095    2.8589    0.0603 O   0  0  0  0  0  0  0  0  0  0  0  0
   -1.6722    3.9330    0.4446 C   0  0  0  0  0  0  0  0  0  0  0  0
   -1.4933    4.4534    1.6793 N   0  0  0  0  0  0  0  0  0  0  0  0
   -2.3502    5.4251    2.0582 C   0  0  0  0  0  0  0  0  0  0  0  0
   -3.3726    5.8841    1.1926 C   0  0  0  0  0  0  0  0  0  0  0  0
   -3.5289    5.3725   -0.0430 N   0  0  0  0  0  0  0  0  0  0  0  0
   -2.6701    4.3759   -0.4203 C   0  0  0  0  0  0  0  0  0  0  0  0
   -4.2444    6.8757    1.6312 C   0  0  0  0  0  0  0  0  0  0  0  0
   -4.1430    7.4162    2.9110 C   0  0  0  0  0  0  0  0  0  0  0  0
   -3.1469    6.9632    3.7662 C   0  0  0  0  0  0  0  0  0  0  0  0
   -2.2510    5.9792    3.3281 C   0  0  0  0  0  0  0  0  0  0  0  0
   -2.8184    3.7259   -1.7895 C   0  0  0  0  0  0  0  0  0  0  0  0
   -3.5318    2.3928   -1.7056 C   0  0  0  0  0  0  0  0  0  0  0  0
   -4.3173    1.8653   -2.6676 C   0  0  0  0  0  0  0  0  0  0  0  0
   -4.9764    0.5298   -2.5472 C   0  0  0  0  0  0  0  0  0  0  0  0
   -4.1141   -0.3989   -3.1891 O   0  0  0  0  0  0  0  0  0  0  0  0
   -1.6048    3.5191   -2.4012 F   0  0  0  0  0  0  0  0  0  0  0  0
   -3.4999    4.5459   -2.6612 F   0  0  0  0  0  0  0  0  0  0  0  0
    1.7413   -0.6258   -0.0114 C   0  0  0  0  0  0  0  0  0  0  0  0
    2.0654   -0.8756   -1.3377 N   0  0  0  0  0  0  0  0  0  0  0  0
    2.4228   -1.0731    0.9071 O   0  0  0  0  0  0  0  0  0  0  0  0
    3.3006   -1.5703   -1.6881 C   0  0  2  0  0  0  0  0  0  0  0  0
    3.2808   -2.3583   -2.9992 C   0  0  0  0  0  0  0  0  0  0  0  0
    3.3085   -3.0969   -1.6936 C   0  0  1  0  0  0  0  0  0  0  0  0
    4.5916   -0.8440   -1.3338 C   0  0  0  0  0  0  0  0  0  0  0  0
    4.8971   -0.8137    0.0282 N   0  0  0  0  0  0  0  0  0  0  0  0
    5.2857   -0.3477   -2.2075 O   0  0  0  0  0  0  0  0  0  0  0  0
    5.7554    0.4452    0.7040 S   0  0  0  0  0  0  0  0  0  0  0  0
    7.4136    0.5001   -0.0132 C   0  0  0  0  0  0  0  0  0  0  0  0
    5.9431    0.0904    2.0965 O   0  0  0  0  0  0  0  0  0  0  0  0
    5.0505    1.6617    0.3579 O   0  0  0  0  0  0  0  0  0  0  0  0
    8.1284   -0.8023    0.0376 C   0  0  0  0  0  0  0  0  0  0  0  0
    7.6236    1.4703   -1.1399 C   0  0  0  0  0  0  0  0  0  0  0  0
    8.1428    1.8013    0.2415 C   0  0  0  0  0  0  0  0  0  0  0  0
    4.5109   -3.8804   -1.3029 C   0  0  0  0  0  0  0  0  0  0  0  0
    4.3886   -5.1380   -1.8002 F   0  0  0  0  0  0  0  0  0  0  0  0
    4.5215   -3.9982    0.0464 F   0  0  0  0  0  0  0  0  0  0  0  0
   -5.9082   -2.2340   -4.4862 H   0  0  0  0  0  0  0  0  0  0  0  0
   -6.5509   -1.6213   -2.9690 H   0  0  0  0  0  0  0  0  0  0  0  0
   -5.5544   -4.3950   -3.5738 H   0  0  0  0  0  0  0  0  0  0  0  0
   -6.8813   -3.9108   -2.5253 H   0  0  0  0  0  0  0  0  0  0  0  0
   -4.1295   -4.4831   -1.7999 H   0  0  0  0  0  0  0  0  0  0  0  0
   -5.4081   -3.9490   -0.7049 H   0  0  0  0  0  0  0  0  0  0  0  0
   -4.8655   -1.7127   -0.8608 H   0  0  0  0  0  0  0  0  0  0  0  0
   -3.6297   -2.3009   -3.6081 H   0  0  0  0  0  0  0  0  0  0  0  0
   -1.0236   -2.8200   -0.0507 H   0  0  0  0  0  0  0  0  0  0  0  0
   -2.1812   -1.8058    2.2094 H   0  0  0  0  0  0  0  0  0  0  0  0
   -1.4841   -4.5548    1.0697 H   0  0  0  0  0  0  0  0  0  0  0  0
   -1.0831   -5.2546    2.6463 H   0  0  0  0  0  0  0  0  0  0  0  0
   -2.4742   -4.1542    2.4801 H   0  0  0  0  0  0  0  0  0  0  0  0
    1.5954   -2.7024    2.3807 H   0  0  0  0  0  0  0  0  0  0  0  0
    0.9482   -3.4330    0.8950 H   0  0  0  0  0  0  0  0  0  0  0  0
    1.2180   -4.4226    2.3264 H   0  0  0  0  0  0  0  0  0  0  0  0
   -0.1560   -3.9691    4.4595 H   0  0  0  0  0  0  0  0  0  0  0  0
   -1.4660   -2.7842    4.4433 H   0  0  0  0  0  0  0  0  0  0  0  0
    0.2372   -2.2604    4.3509 H   0  0  0  0  0  0  0  0  0  0  0  0
    0.8320    3.6422    0.9335 H   0  0  0  0  0  0  0  0  0  0  0  0
    1.0633    1.8852    2.6679 H   0  0  0  0  0  0  0  0  0  0  0  0
   -0.7249    2.0994    2.6260 H   0  0  0  0  0  0  0  0  0  0  0  0
   -0.2460    0.1319   -0.5035 H   0  0  0  0  0  0  0  0  0  0  0  0
    2.2128    1.8212    0.1805 H   0  0  0  0  0  0  0  0  0  0  0  0
    1.0737    1.9985   -1.1732 H   0  0  0  0  0  0  0  0  0  0  0  0
   -5.0289    7.2219    0.9593 H   0  0  0  0  0  0  0  0  0  0  0  0
   -4.8309    8.1875    3.2316 H   0  0  0  0  0  0  0  0  0  0  0  0
   -3.0584    7.3707    4.7689 H   0  0  0  0  0  0  0  0  0  0  0  0
   -1.4754    5.6167    3.9995 H   0  0  0  0  0  0  0  0  0  0  0  0
   -3.3915    1.8307   -0.7839 H   0  0  0  0  0  0  0  0  0  0  0  0
   -4.4464    2.3995   -3.6069 H   0  0  0  0  0  0  0  0  0  0  0  0
   -5.9333    0.5565   -3.0700 H   0  0  0  0  0  0  0  0  0  0  0  0
   -5.1465    0.2751   -1.5001 H   0  0  0  0  0  0  0  0  0  0  0  0
    1.6452   -0.2964   -2.0536 H   0  0  0  0  0  0  0  0  0  0  0  0
    2.3629   -2.3933   -3.5756 H   0  0  0  0  0  0  0  0  0  0  0  0
    4.1673   -2.3467   -3.6166 H   0  0  0  0  0  0  0  0  0  0  0  0
    2.4074   -3.6050   -1.4097 H   0  0  0  0  0  0  0  0  0  0  0  0
    4.1554   -1.1248    0.6763 H   0  0  0  0  0  0  0  0  0  0  0  0
    9.1515   -0.7217   -0.3643 H   0  0  0  0  0  0  0  0  0  0  0  0
    8.2079   -1.1773    1.0663 H   0  0  0  0  0  0  0  0  0  0  0  0
    7.6021   -1.5593   -0.5583 H   0  0  0  0  0  0  0  0  0  0  0  0
    6.7768    2.0361   -1.5139 H   0  0  0  0  0  0  0  0  0  0  0  0
    8.3415    1.2081   -1.9072 H   0  0  0  0  0  0  0  0  0  0  0  0
    9.2117    1.7630    0.4029 H   0  0  0  0  0  0  0  0  0  0  0  0
    7.6513    2.5974    0.7974 H   0  0  0  0  0  0  0  0  0  0  0  0
    5.4587   -3.4510   -1.6345 H   0  0  0  0  0  0  0  0  0  0  0  0
  1  2  1  0
  2  3  1  0
  4  3  1  0
  4  5  1  0
  5  1  1  0
  4  6  1  0
  6  7  1  0
  7  8  1  0
  7  9  2  0
  8 10  1  0
 10 11  1  0
 10 12  1  0
 12 13  1  0
 12 14  1  0
 12 15  1  0
 11 16  2  0
 11 17  1  0
 19 17  1  0
 17 20  1  0
 18 19  1  0
 20 21  1  0
 18 21  1  0
 18 22  1  0
 22 23  1  0
 23 24  2  0
 28 23  1  0
 24 25  1  0
 26 27  1  0
 27 28  2  0
 26 29  1  0
 25 26  2  0
 32 25  1  0
 29 30  2  0
 30 31  1  0
 31 32  2  0
 28 33  1  0
 33 34  1  0
 34 35  2  0
 35 36  1  0
 36 37  1  0
  5 37  1  0
 33 38  1  0
 33 39  1  0
 20 40  1  0
 40 41  1  0
 40 42  2  0
 43 41  1  1
 43 44  1  0
 45 43  1  0
 44 45  1  0
 43 46  1  0
 46 47  1  0
 46 48  2  0
 47 49  1  0
 49 50  1  0
 49 51  2  0
 49 52  2  0
 50 53  1  0
 50 54  1  0
 55 50  1  0
 54 55  1  0
 45 56  1  0
 56 57  1  0
 56 58  1  0
  1 59  1  0
  1 60  1  0
  2 61  1  0
  2 62  1  0
  3 63  1  0
  3 64  1  0
  4 65  1  1
  5 66  1  6
  8 67  1  0
 10 68  1  1
 13 69  1  0
 13 70  1  0
 13 71  1  0
 14 72  1  0
 14 73  1  0
 14 74  1  0
 15 75  1  0
 15 76  1  0
 15 77  1  0
 18 78  1  1
 19 79  1  0
 19 80  1  0
 20 81  1  6
 21 82  1  0
 21 83  1  0
 29 84  1  0
 30 85  1  0
 31 86  1  0
 32 87  1  0
 34 88  1  0
 35 89  1  0
 36 90  1  0
 36 91  1  0
 41 92  1  0
 44 93  1  0
 44 94  1  0
 45 95  1  1
 47 96  1  0
 53 97  1  0
 53 98  1  0
 53 99  1  0
 54100  1  0
 54101  1  0
 55102  1  0
 55103  1  0
 56104  1  0
M  END
$$$$
