
     RDKit          2D

 58 64  0  0  0  0  0  0  0  0999 V2000
    1.6844    6.5053    0.0000 C   0  0  0  0  0  0  0  0  0  0  0  0
    1.1653    5.8641    0.0000 C   0  0  0  0  0  0  0  0  0  0  0  0
    1.6146    5.1722    0.0000 C   0  0  0  0  0  0  0  0  0  0  0  0
    2.4115    5.3858    0.0000 C   0  0  0  0  0  0  0  0  0  0  0  0
    2.4546    6.2096    0.0000 C   0  0  0  0  0  0  0  0  0  0  0  0
    3.0526    4.8666    0.0000 O   0  0  0  0  0  0  0  0  0  0  0  0
    3.0526    4.0416    0.0000 C   0  0  0  0  0  0  0  0  0  0  0  0
    3.7671    3.6291    0.0000 N   0  0  0  0  0  0  0  0  0  0  0  0
    2.3381    3.6291    0.0000 O   0  0  0  0  0  0  0  0  0  0  0  0
    3.7671    2.8041    0.0000 C   0  0  0  0  0  0  0  0  0  0  0  0
    4.4815    2.3916    0.0000 C   0  0  0  0  0  0  0  0  0  0  0  0
    3.0526    2.3916    0.0000 C   0  0  0  0  0  0  0  0  0  0  0  0
    3.0526    1.5666    0.0000 C   0  0  0  0  0  0  0  0  0  0  0  0
    2.3381    2.8041    0.0000 C   0  0  0  0  0  0  0  0  0  0  0  0
    2.3381    1.9791    0.0000 C   0  0  0  0  0  0  0  0  0  0  0  0
    4.4815    1.5666    0.0000 O   0  0  0  0  0  0  0  0  0  0  0  0
    5.1960    2.8041    0.0000 N   0  0  0  0  0  0  0  0  0  0  0  0
    6.1880    3.6972    0.0000 C   0  0  0  0  0  0  0  0  0  0  0  0
    5.3675    3.6110    0.0000 C   0  0  0  0  0  0  0  0  0  0  0  0
    5.9105    2.3916    0.0000 C   0  0  0  0  0  0  0  0  0  0  0  0
    6.5236    2.9436    0.0000 C   0  0  0  0  0  0  0  0  0  0  0  0
    6.1880    4.5222    0.0000 O   0  0  0  0  0  0  0  0  0  0  0  0
    6.9025    4.9347    0.0000 C   0  0  0  0  0  0  0  0  0  0  0  0
    7.6170    4.5223    0.0000 N   0  0  0  0  0  0  0  0  0  0  0  0
    8.3314    4.9348    0.0000 C   0  0  0  0  0  0  0  0  0  0  0  0
    8.3315    5.7598    0.0000 C   0  0  0  0  0  0  0  0  0  0  0  0
    7.6170    6.1723    0.0000 N   0  0  0  0  0  0  0  0  0  0  0  0
    6.9025    5.7597    0.0000 C   0  0  0  0  0  0  0  0  0  0  0  0
    9.0459    6.1723    0.0000 C   0  0  0  0  0  0  0  0  0  0  0  0
    9.7604    5.7598    0.0000 C   0  0  0  0  0  0  0  0  0  0  0  0
    9.7604    4.9348    0.0000 C   0  0  0  0  0  0  0  0  0  0  0  0
    9.0459    4.5223    0.0000 C   0  0  0  0  0  0  0  0  0  0  0  0
    6.1880    6.1723    0.0000 C   0  0  0  0  0  0  0  0  0  0  0  0
    5.4736    5.7598    0.0000 C   0  0  0  0  0  0  0  0  0  0  0  0
    4.7591    6.1723    0.0000 C   0  0  0  0  0  0  0  0  0  0  0  0
    4.0446    5.7598    0.0000 C   0  0  0  0  0  0  0  0  0  0  0  0
    3.3301    6.4669    0.0000 O   0  0  0  0  0  0  0  0  0  0  0  0
    5.7755    6.8867    0.0000 F   0  0  0  0  0  0  0  0  0  0  0  0
    6.6005    6.8867    0.0000 F   0  0  0  0  0  0  0  0  0  0  0  0
    5.9967    1.5711    0.0000 C   0  0  0  0  0  0  0  0  0  0  0  0
    6.7504    1.2355    0.0000 N   0  0  0  0  0  0  0  0  0  0  0  0
    5.3293    1.0862    0.0000 O   0  0  0  0  0  0  0  0  0  0  0  0
    6.9639    0.4386    0.0000 C   0  0  0  0  0  0  0  0  0  0  0  0
    6.1670    0.2251    0.0000 C   0  0  0  0  0  0  0  0  0  0  0  0
    6.7504   -0.3582    0.0000 C   0  0  0  0  0  0  0  0  0  0  0  0
    7.7889    0.4386    0.0000 C   0  0  0  0  0  0  0  0  0  0  0  0
    8.2014   -0.2759    0.0000 N   0  0  0  0  0  0  0  0  0  0  0  0
    8.2014    1.1531    0.0000 O   0  0  0  0  0  0  0  0  0  0  0  0
    9.0264   -0.2759    0.0000 S   0  0  0  0  0  0  0  0  0  0  0  0
    9.4389   -0.9904    0.0000 C   0  0  0  0  0  0  0  0  0  0  0  0
    9.0264    0.5491    0.0000 O   0  0  0  0  0  0  0  0  0  0  0  0
    9.8233   -0.0623    0.0000 O   0  0  0  0  0  0  0  0  0  0  0  0
   10.2639   -0.9904    0.0000 C   0  0  0  0  0  0  0  0  0  0  0  0
    8.7244   -1.4029    0.0000 C   0  0  0  0  0  0  0  0  0  0  0  0
    9.4389   -1.8154    0.0000 C   0  0  0  0  0  0  0  0  0  0  0  0
    6.9639   -1.1551    0.0000 C   0  0  0  0  0  0  0  0  0  0  0  0
    7.7608   -1.3687    0.0000 F   0  0  0  0  0  0  0  0  0  0  0  0
    6.3805   -1.7385    0.0000 F   0  0  0  0  0  0  0  0  0  0  0  0
  1  2  1  0
  2  3  1  0
  3  4  1  0
  4  5  1  0
  1  5  1  0
  4  6  1  6
  6  7  1  0
  7  8  1  0
  7  9  2  0
  8 10  1  0
 10 11  1  0
 10 12  1  6
 12 13  1  0
 12 14  1  0
 12 15  1  0
 11 16  2  0
 11 17  1  0
 19 17  1  0
 17 20  1  0
 18 19  1  0
 20 21  1  0
 18 21  1  0
 18 22  1  6
 22 23  1  0
 23 24  2  0
 28 23  1  0
 24 25  1  0
 26 27  1  0
 27 28  2  0
 26 29  1  0
 25 26  2  0
 32 25  1  0
 29 30  2  0
 30 31  1  0
 31 32  2  0
 28 33  1  0
 33 34  1  0
 34 35  2  0
 35 36  1  0
 36 37  1  0
  5 37  1  1
 33 38  1  0
 33 39  1  0
 20 40  1  1
 40 41  1  0
 40 42  2  0
 43 41  1  1
 43 44  1  0
 45 43  1  0
 44 45  1  0
 43 46  1  0
 46 47  1  0
 46 48  2  0
 47 49  1  0
 49 50  1  0
 49 51  2  0
 49 52  2  0
 50 53  1  0
 50 54  1  0
 55 50  1  0
 54 55  1  0
 45 56  1  6
 56 57  1  0
 56 58  1  0
M  END
> <chembl_id>
CHEMBL3545363

> <chembl_pref_name>
GLECAPREVIR
