
     RDKit          3D

104110  0  0  0  0  0  0  0  0999 V2000
   -7.6068   -1.0504    1.3180 C   0  0  0  0  0  0  0  0  0  0  0  0
   -7.9413   -2.4862    0.9165 C   0  0  0  0  0  0  0  0  0  0  0  0
   -6.6510   -3.2853    1.0835 C   0  0  0  0  0  0  0  0  0  0  0  0
   -5.6466   -2.3121    1.6966 C   0  0  2  0  0  0  0  0  0  0  0  0
   -6.0853   -0.9427    1.1470 C   0  0  2  0  0  0  0  0  0  0  0  0
   -4.2947   -2.7589    1.5236 O   0  0  0  0  0  0  0  0  0  0  0  0
   -3.6387   -2.5897    0.3552 C   0  0  0  0  0  0  0  0  0  0  0  0
   -2.4079   -3.1563    0.4876 N   0  0  0  0  0  0  0  0  0  0  0  0
   -4.0744   -2.0243   -0.6275 O   0  0  0  0  0  0  0  0  0  0  0  0
   -1.1936   -2.6959   -0.2028 C   0  0  2  0  0  0  0  0  0  0  0  0
   -0.8330   -1.3500    0.4993 C   0  0  0  0  0  0  0  0  0  0  0  0
   -1.1297   -2.8715   -1.7602 C   0  0  0  0  0  0  0  0  0  0  0  0
   -1.7147   -4.2508   -2.1499 C   0  0  0  0  0  0  0  0  0  0  0  0
    0.3565   -2.8857   -2.2051 C   0  0  0  0  0  0  0  0  0  0  0  0
   -1.8513   -1.7979   -2.5964 C   0  0  0  0  0  0  0  0  0  0  0  0
   -1.1609   -1.1331    1.6724 O   0  0  0  0  0  0  0  0  0  0  0  0
   -0.0789   -0.4108   -0.2154 N   0  0  0  0  0  0  0  0  0  0  0  0
   -0.3276    1.5793    1.0975 C   0  0  1  0  0  0  0  0  0  0  0  0
   -0.7404    0.8873   -0.2230 C   0  0  0  0  0  0  0  0  0  0  0  0
    1.2391   -0.0973    0.3377 C   0  0  1  0  0  0  0  0  0  0  0  0
    1.0062    0.9061    1.4679 C   0  0  0  0  0  0  0  0  0  0  0  0
   -0.1185    2.9893    1.0762 O   0  0  0  0  0  0  0  0  0  0  0  0
   -1.0366    3.6732    0.3397 C   0  0  0  0  0  0  0  0  0  0  0  0
   -0.5710    4.0275   -0.8807 N   0  0  0  0  0  0  0  0  0  0  0  0
   -1.3909    4.7466   -1.6662 C   0  0  0  0  0  0  0  0  0  0  0  0
   -2.6847    5.1137   -1.2358 C   0  0  0  0  0  0  0  0  0  0  0  0
   -3.1396    4.7499   -0.0234 N   0  0  0  0  0  0  0  0  0  0  0  0
   -2.3009    4.0290    0.7882 C   0  0  0  0  0  0  0  0  0  0  0  0
   -3.4935    5.8548   -2.0887 C   0  0  0  0  0  0  0  0  0  0  0  0
   -3.0473    6.2450   -3.3523 C   0  0  0  0  0  0  0  0  0  0  0  0
   -1.7671    5.8930   -3.7670 C   0  0  0  0  0  0  0  0  0  0  0  0
   -0.9527    5.1411   -2.9246 C   0  0  0  0  0  0  0  0  0  0  0  0
   -2.8397    3.6231    2.1524 C   0  0  0  0  0  0  0  0  0  0  0  0
   -3.7722    2.4330    2.0270 C   0  0  0  0  0  0  0  0  0  0  0  0
   -5.0715    2.5238    1.6840 C   0  0  0  0  0  0  0  0  0  0  0  0
   -6.0524    1.4038    1.5035 C   0  0  0  0  0  0  0  0  0  0  0  0
   -5.5031    0.1398    1.8754 O   0  0  0  0  0  0  0  0  0  0  0  0
   -1.8565    3.3174    3.0509 F   0  0  0  0  0  0  0  0  0  0  0  0
   -3.5146    4.6604    2.7487 F   0  0  0  0  0  0  0  0  0  0  0  0
    2.1785   -1.2631    0.7006 C   0  0  0  0  0  0  0  0  0  0  0  0
    3.4834   -0.8494    0.9205 N   0  0  0  0  0  0  0  0  0  0  0  0
    1.8089   -2.4318    0.7629 O   0  0  0  0  0  0  0  0  0  0  0  0
    4.6660   -1.7062    1.0678 C   0  0  2  0  0  0  0  0  0  0  0  0
    4.6371   -3.1960    0.7111 C   0  0  0  0  0  0  0  0  0  0  0  0
    4.6604   -2.7725    2.1544 C   0  0  1  0  0  0  0  0  0  0  0  0
    5.9517   -0.9969    0.6642 C   0  0  0  0  0  0  0  0  0  0  0  0
    5.9620   -0.6358   -0.6881 N   0  0  0  0  0  0  0  0  0  0  0  0
    6.8238   -0.7047    1.4646 O   0  0  0  0  0  0  0  0  0  0  0  0
    7.3007   -0.1273   -1.5200 S   0  0  0  0  0  0  0  0  0  0  0  0
    8.2253    1.0923   -0.5624 C   0  0  0  0  0  0  0  0  0  0  0  0
    8.1237   -1.3015   -1.7213 O   0  0  0  0  0  0  0  0  0  0  0  0
    6.7666    0.5865   -2.6651 O   0  0  0  0  0  0  0  0  0  0  0  0
    7.4080    2.2461   -0.1090 C   0  0  0  0  0  0  0  0  0  0  0  0
    9.6433    1.2947   -1.0376 C   0  0  0  0  0  0  0  0  0  0  0  0
    9.3780    0.5608    0.2532 C   0  0  0  0  0  0  0  0  0  0  0  0
    5.8312   -3.0773    3.0165 C   0  0  0  0  0  0  0  0  0  0  0  0
    6.0656   -2.0253    3.8350 F   0  0  0  0  0  0  0  0  0  0  0  0
    6.9453   -3.2750    2.2710 F   0  0  0  0  0  0  0  0  0  0  0  0
   -7.8910   -0.8690    2.3621 H   0  0  0  0  0  0  0  0  0  0  0  0
   -8.1514   -0.3212    0.7107 H   0  0  0  0  0  0  0  0  0  0  0  0
   -8.2766   -2.5283   -0.1258 H   0  0  0  0  0  0  0  0  0  0  0  0
   -8.7488   -2.8926    1.5350 H   0  0  0  0  0  0  0  0  0  0  0  0
   -6.7948   -4.1633    1.7225 H   0  0  0  0  0  0  0  0  0  0  0  0
   -6.3032   -3.6581    0.1141 H   0  0  0  0  0  0  0  0  0  0  0  0
   -5.7844   -2.2983    2.7863 H   0  0  0  0  0  0  0  0  0  0  0  0
   -5.8420   -0.8223    0.0881 H   0  0  0  0  0  0  0  0  0  0  0  0
   -2.2547   -3.4105    1.4570 H   0  0  0  0  0  0  0  0  0  0  0  0
   -0.4411   -3.3916    0.1977 H   0  0  0  0  0  0  0  0  0  0  0  0
   -1.5832   -4.4490   -3.2205 H   0  0  0  0  0  0  0  0  0  0  0  0
   -1.2212   -5.0616   -1.6010 H   0  0  0  0  0  0  0  0  0  0  0  0
   -2.7891   -4.3135   -1.9485 H   0  0  0  0  0  0  0  0  0  0  0  0
    0.8308   -1.9113   -2.0680 H   0  0  0  0  0  0  0  0  0  0  0  0
    0.9349   -3.6306   -1.6471 H   0  0  0  0  0  0  0  0  0  0  0  0
    0.4485   -3.1355   -3.2686 H   0  0  0  0  0  0  0  0  0  0  0  0
   -1.6441   -0.7852   -2.2484 H   0  0  0  0  0  0  0  0  0  0  0  0
   -1.5311   -1.8452   -3.6451 H   0  0  0  0  0  0  0  0  0  0  0  0
   -2.9340   -1.9347   -2.6171 H   0  0  0  0  0  0  0  0  0  0  0  0
   -1.0453    1.3561    1.8904 H   0  0  0  0  0  0  0  0  0  0  0  0
   -1.8301    0.7819   -0.3011 H   0  0  0  0  0  0  0  0  0  0  0  0
   -0.3804    1.4224   -1.1081 H   0  0  0  0  0  0  0  0  0  0  0  0
    1.7564    0.4263   -0.4814 H   0  0  0  0  0  0  0  0  0  0  0  0
    1.8427    1.6058    1.5649 H   0  0  0  0  0  0  0  0  0  0  0  0
    0.9111    0.3835    2.4264 H   0  0  0  0  0  0  0  0  0  0  0  0
   -4.4919    6.1292   -1.7577 H   0  0  0  0  0  0  0  0  0  0  0  0
   -3.6965    6.8287   -3.9973 H   0  0  0  0  0  0  0  0  0  0  0  0
   -1.4082    6.2000   -4.7453 H   0  0  0  0  0  0  0  0  0  0  0  0
    0.0470    4.8611   -3.2502 H   0  0  0  0  0  0  0  0  0  0  0  0
   -3.3435    1.4593    2.2496 H   0  0  0  0  0  0  0  0  0  0  0  0
   -5.4849    3.5145    1.4792 H   0  0  0  0  0  0  0  0  0  0  0  0
   -6.3629    1.4033    0.4503 H   0  0  0  0  0  0  0  0  0  0  0  0
   -6.9327    1.5963    2.1306 H   0  0  0  0  0  0  0  0  0  0  0  0
    3.6754    0.1484    0.8852 H   0  0  0  0  0  0  0  0  0  0  0  0
    5.5357   -3.6443    0.2907 H   0  0  0  0  0  0  0  0  0  0  0  0
    3.7343   -3.6519    0.3246 H   0  0  0  0  0  0  0  0  0  0  0  0
    3.7455   -2.8898    2.7259 H   0  0  0  0  0  0  0  0  0  0  0  0
    5.2489   -1.0128   -1.3074 H   0  0  0  0  0  0  0  0  0  0  0  0
    6.6911    1.9446    0.6576 H   0  0  0  0  0  0  0  0  0  0  0  0
    8.0348    3.0298    0.3285 H   0  0  0  0  0  0  0  0  0  0  0  0
    6.8574    2.6935   -0.9406 H   0  0  0  0  0  0  0  0  0  0  0  0
    9.9975    0.7153   -1.8854 H   0  0  0  0  0  0  0  0  0  0  0  0
   10.0681    2.2893   -0.9781 H   0  0  0  0  0  0  0  0  0  0  0  0
    9.6160    1.0544    1.1888 H   0  0  0  0  0  0  0  0  0  0  0  0
    9.5541   -0.5111    0.2800 H   0  0  0  0  0  0  0  0  0  0  0  0
    5.6653   -3.9678    3.6307 H   0  0  0  0  0  0  0  0  0  0  0  0
  1  2  1  0
  2  3  1  0
  4  3  1  0
  4  5  1  0
  5  1  1  0
  4  6  1  0
  6  7  1  0
  7  8  1  0
  7  9  2  0
  8 10  1  0
 10 11  1  0
 10 12  1  0
 12 13  1  0
 12 14  1  0
 12 15  1  0
 11 16  2  0
 11 17  1  0
 19 17  1  0
 17 20  1  0
 18 19  1  0
 20 21  1  0
 18 21  1  0
 18 22  1  0
 22 23  1  0
 23 24  2  0
 28 23  1  0
 24 25  1  0
 26 27  1  0
 27 28  2  0
 26 29  1  0
 25 26  2  0
 32 25  1  0
 29 30  2  0
 30 31  1  0
 31 32  2  0
 28 33  1  0
 33 34  1  0
 34 35  2  0
 35 36  1  0
 36 37  1  0
  5 37  1  0
 33 38  1  0
 33 39  1  0
 20 40  1  0
 40 41  1  0
 40 42  2  0
 43 41  1  1
 43 44  1  0
 45 43  1  0
 44 45  1  0
 43 46  1  0
 46 47  1  0
 46 48  2  0
 47 49  1  0
 49 50  1  0
 49 51  2  0
 49 52  2  0
 50 53  1  0
 50 54  1  0
 55 50  1  0
 54 55  1  0
 45 56  1  0
 56 57  1  0
 56 58  1  0
  1 59  1  0
  1 60  1  0
  2 61  1  0
  2 62  1  0
  3 63  1  0
  3 64  1  0
  4 65  1  1
  5 66  1  6
  8 67  1  0
 10 68  1  1
 13 69  1  0
 13 70  1  0
 13 71  1  0
 14 72  1  0
 14 73  1  0
 14 74  1  0
 15 75  1  0
 15 76  1  0
 15 77  1  0
 18 78  1  1
 19 79  1  0
 19 80  1  0
 20 81  1  6
 21 82  1  0
 21 83  1  0
 29 84  1  0
 30 85  1  0
 31 86  1  0
 32 87  1  0
 34 88  1  0
 35 89  1  0
 36 90  1  0
 36 91  1  0
 41 92  1  0
 44 93  1  0
 44 94  1  0
 45 95  1  1
 47 96  1  0
 53 97  1  0
 53 98  1  0
 53 99  1  0
 54100  1  0
 54101  1  0
 55102  1  0
 55103  1  0
 56104  1  0
M  END
$$$$
