
     RDKit          3D

104110  0  0  0  0  0  0  0  0999 V2000
   -6.2658   -2.1365   -1.0842 C   0  0  0  0  0  0  0  0  0  0  0  0
   -5.9856   -3.2540   -2.0941 C   0  0  0  0  0  0  0  0  0  0  0  0
   -4.4719   -3.4382   -2.1157 C   0  0  0  0  0  0  0  0  0  0  0  0
   -4.0050   -2.8424   -0.7931 C   0  0  2  0  0  0  0  0  0  0  0  0
   -4.8937   -1.5986   -0.6695 C   0  0  2  0  0  0  0  0  0  0  0  0
   -2.6136   -2.5060   -0.8614 O   0  0  0  0  0  0  0  0  0  0  0  0
   -1.9448   -2.5771    0.3151 C   0  0  0  0  0  0  0  0  0  0  0  0
   -0.6339   -2.2679    0.1018 N   0  0  0  0  0  0  0  0  0  0  0  0
   -2.4227   -2.8977    1.3919 O   0  0  0  0  0  0  0  0  0  0  0  0
    0.3621   -2.3682    1.1628 C   0  0  2  0  0  0  0  0  0  0  0  0
    0.7680   -1.0260    1.8656 C   0  0  0  0  0  0  0  0  0  0  0  0
    1.5584   -3.2972    0.7400 C   0  0  0  0  0  0  0  0  0  0  0  0
    1.0088   -4.6386    0.1950 C   0  0  0  0  0  0  0  0  0  0  0  0
    2.4655   -3.6532    1.9422 C   0  0  0  0  0  0  0  0  0  0  0  0
    2.4248   -2.6457   -0.3441 C   0  0  0  0  0  0  0  0  0  0  0  0
    1.3900   -1.0826    2.9353 O   0  0  0  0  0  0  0  0  0  0  0  0
    0.5115    0.2255    1.3382 N   0  0  0  0  0  0  0  0  0  0  0  0
   -0.2968    2.4574    1.6207 C   0  0  1  0  0  0  0  0  0  0  0  0
    0.6059    1.3798    2.2238 C   0  0  0  0  0  0  0  0  0  0  0  0
   -0.0943    0.5972    0.0598 C   0  0  1  0  0  0  0  0  0  0  0  0
   -0.3223    2.1208    0.1328 C   0  0  0  0  0  0  0  0  0  0  0  0
   -1.6076    2.3529    2.1846 O   0  0  0  0  0  0  0  0  0  0  0  0
   -2.3463    3.5155    2.1252 C   0  0  0  0  0  0  0  0  0  0  0  0
   -1.8921    4.5255    1.3464 N   0  0  0  0  0  0  0  0  0  0  0  0
   -2.6526    5.6319    1.2699 C   0  0  0  0  0  0  0  0  0  0  0  0
   -3.8828    5.7297    1.9577 C   0  0  0  0  0  0  0  0  0  0  0  0
   -4.3401    4.7140    2.7086 N   0  0  0  0  0  0  0  0  0  0  0  0
   -3.5604    3.5910    2.7966 C   0  0  0  0  0  0  0  0  0  0  0  0
   -4.6251    6.8976    1.8473 C   0  0  0  0  0  0  0  0  0  0  0  0
   -4.1803    7.9684    1.0687 C   0  0  0  0  0  0  0  0  0  0  0  0
   -2.9745    7.8700    0.3891 C   0  0  0  0  0  0  0  0  0  0  0  0
   -2.2213    6.7005    0.4953 C   0  0  0  0  0  0  0  0  0  0  0  0
   -4.0743    2.4230    3.6210 C   0  0  0  0  0  0  0  0  0  0  0  0
   -4.9035    1.4273    2.8361 C   0  0  0  0  0  0  0  0  0  0  0  0
   -4.7793    1.0654    1.5468 C   0  0  0  0  0  0  0  0  0  0  0  0
   -5.6525    0.0611    0.8691 C   0  0  0  0  0  0  0  0  0  0  0  0
   -4.8602   -1.0971    0.6599 O   0  0  0  0  0  0  0  0  0  0  0  0
   -4.8652    2.8708    4.6527 F   0  0  0  0  0  0  0  0  0  0  0  0
   -3.0715    1.7499    4.2654 F   0  0  0  0  0  0  0  0  0  0  0  0
    0.8823    0.3152   -1.0982 C   0  0  0  0  0  0  0  0  0  0  0  0
    2.1569    0.8134   -0.8881 N   0  0  0  0  0  0  0  0  0  0  0  0
    0.5269   -0.2111   -2.1460 O   0  0  0  0  0  0  0  0  0  0  0  0
    3.1552    0.9602   -1.9356 C   0  0  2  0  0  0  0  0  0  0  0  0
    3.5673    2.4031   -2.2365 C   0  0  0  0  0  0  0  0  0  0  0  0
    2.7682    1.6383   -3.2512 C   0  0  1  0  0  0  0  0  0  0  0  0
    4.2765   -0.0623   -1.9310 C   0  0  0  0  0  0  0  0  0  0  0  0
    5.0402   -0.0593   -0.7631 N   0  0  0  0  0  0  0  0  0  0  0  0
    4.4668   -0.8010   -2.8835 O   0  0  0  0  0  0  0  0  0  0  0  0
    6.5827   -0.6560   -0.6292 S   0  0  0  0  0  0  0  0  0  0  0  0
    6.5704   -2.4652   -0.7589 C   0  0  0  0  0  0  0  0  0  0  0  0
    6.9372   -0.3231    0.7393 O   0  0  0  0  0  0  0  0  0  0  0  0
    7.3629   -0.1244   -1.7227 O   0  0  0  0  0  0  0  0  0  0  0  0
    6.4293   -2.9900   -2.1406 C   0  0  0  0  0  0  0  0  0  0  0  0
    7.4304   -3.1862    0.2477 C   0  0  0  0  0  0  0  0  0  0  0  0
    5.9353   -3.1677    0.4151 C   0  0  0  0  0  0  0  0  0  0  0  0
    3.3601    1.2465   -4.5634 C   0  0  0  0  0  0  0  0  0  0  0  0
    2.8490    2.0740   -5.5145 F   0  0  0  0  0  0  0  0  0  0  0  0
    4.7010    1.4622   -4.5497 F   0  0  0  0  0  0  0  0  0  0  0  0
   -6.8873   -1.3458   -1.5175 H   0  0  0  0  0  0  0  0  0  0  0  0
   -6.8107   -2.5375   -0.2200 H   0  0  0  0  0  0  0  0  0  0  0  0
   -6.4786   -4.1778   -1.7734 H   0  0  0  0  0  0  0  0  0  0  0  0
   -6.3709   -3.0023   -3.0861 H   0  0  0  0  0  0  0  0  0  0  0  0
   -4.1835   -4.4869   -2.2177 H   0  0  0  0  0  0  0  0  0  0  0  0
   -4.0282   -2.8994   -2.9611 H   0  0  0  0  0  0  0  0  0  0  0  0
   -4.2011   -3.5540    0.0199 H   0  0  0  0  0  0  0  0  0  0  0  0
   -4.5397   -0.8168   -1.3568 H   0  0  0  0  0  0  0  0  0  0  0  0
   -0.3749   -2.0914   -0.8600 H   0  0  0  0  0  0  0  0  0  0  0  0
   -0.1376   -2.9037    1.9839 H   0  0  0  0  0  0  0  0  0  0  0  0
    1.8221   -5.3401   -0.0293 H   0  0  0  0  0  0  0  0  0  0  0  0
    0.4340   -4.5080   -0.7298 H   0  0  0  0  0  0  0  0  0  0  0  0
    0.3577   -5.1231    0.9332 H   0  0  0  0  0  0  0  0  0  0  0  0
    3.2148   -4.4032    1.6633 H   0  0  0  0  0  0  0  0  0  0  0  0
    3.0176   -2.7829    2.3034 H   0  0  0  0  0  0  0  0  0  0  0  0
    1.8788   -4.0601    2.7735 H   0  0  0  0  0  0  0  0  0  0  0  0
    2.8866   -1.7316    0.0393 H   0  0  0  0  0  0  0  0  0  0  0  0
    1.8407   -2.3993   -1.2346 H   0  0  0  0  0  0  0  0  0  0  0  0
    3.2279   -3.3181   -0.6653 H   0  0  0  0  0  0  0  0  0  0  0  0
    0.1499    3.4356    1.8329 H   0  0  0  0  0  0  0  0  0  0  0  0
    0.3181    1.1219    3.2484 H   0  0  0  0  0  0  0  0  0  0  0  0
    1.6534    1.6972    2.2132 H   0  0  0  0  0  0  0  0  0  0  0  0
   -1.0446    0.0825   -0.0825 H   0  0  0  0  0  0  0  0  0  0  0  0
   -1.2689    2.3807   -0.3544 H   0  0  0  0  0  0  0  0  0  0  0  0
    0.4691    2.6845   -0.3794 H   0  0  0  0  0  0  0  0  0  0  0  0
   -5.5698    6.9757    2.3787 H   0  0  0  0  0  0  0  0  0  0  0  0
   -4.7807    8.8706    0.9911 H   0  0  0  0  0  0  0  0  0  0  0  0
   -2.6158    8.6957   -0.2225 H   0  0  0  0  0  0  0  0  0  0  0  0
   -1.2821    6.6157   -0.0428 H   0  0  0  0  0  0  0  0  0  0  0  0
   -5.6836    0.9664    3.4373 H   0  0  0  0  0  0  0  0  0  0  0  0
   -3.9919    1.4796    0.9259 H   0  0  0  0  0  0  0  0  0  0  0  0
   -6.5114   -0.2197    1.4859 H   0  0  0  0  0  0  0  0  0  0  0  0
   -6.0242    0.4898   -0.0694 H   0  0  0  0  0  0  0  0  0  0  0  0
    2.4051    1.0603    0.0637 H   0  0  0  0  0  0  0  0  0  0  0  0
    4.6090    2.6152   -2.4561 H   0  0  0  0  0  0  0  0  0  0  0  0
    3.0684    3.2131   -1.7164 H   0  0  0  0  0  0  0  0  0  0  0  0
    1.7293    1.9140   -3.3848 H   0  0  0  0  0  0  0  0  0  0  0  0
    4.8677    0.6507   -0.0526 H   0  0  0  0  0  0  0  0  0  0  0  0
    6.7931   -4.0208   -2.2092 H   0  0  0  0  0  0  0  0  0  0  0  0
    5.3837   -3.0090   -2.4483 H   0  0  0  0  0  0  0  0  0  0  0  0
    7.0039   -2.4110   -2.8679 H   0  0  0  0  0  0  0  0  0  0  0  0
    7.8889   -4.1307   -0.0362 H   0  0  0  0  0  0  0  0  0  0  0  0
    8.0268   -2.6194    0.9547 H   0  0  0  0  0  0  0  0  0  0  0  0
    5.4061   -4.0983    0.2417 H   0  0  0  0  0  0  0  0  0  0  0  0
    5.5319   -2.5844    1.2365 H   0  0  0  0  0  0  0  0  0  0  0  0
    3.1471    0.2113   -4.8460 H   0  0  0  0  0  0  0  0  0  0  0  0
  1  2  1  0
  2  3  1  0
  4  3  1  0
  4  5  1  0
  5  1  1  0
  4  6  1  0
  6  7  1  0
  7  8  1  0
  7  9  2  0
  8 10  1  0
 10 11  1  0
 10 12  1  0
 12 13  1  0
 12 14  1  0
 12 15  1  0
 11 16  2  0
 11 17  1  0
 19 17  1  0
 17 20  1  0
 18 19  1  0
 20 21  1  0
 18 21  1  0
 18 22  1  0
 22 23  1  0
 23 24  2  0
 28 23  1  0
 24 25  1  0
 26 27  1  0
 27 28  2  0
 26 29  1  0
 25 26  2  0
 32 25  1  0
 29 30  2  0
 30 31  1  0
 31 32  2  0
 28 33  1  0
 33 34  1  0
 34 35  2  0
 35 36  1  0
 36 37  1  0
  5 37  1  0
 33 38  1  0
 33 39  1  0
 20 40  1  0
 40 41  1  0
 40 42  2  0
 43 41  1  1
 43 44  1  0
 45 43  1  0
 44 45  1  0
 43 46  1  0
 46 47  1  0
 46 48  2  0
 47 49  1  0
 49 50  1  0
 49 51  2  0
 49 52  2  0
 50 53  1  0
 50 54  1  0
 55 50  1  0
 54 55  1  0
 45 56  1  0
 56 57  1  0
 56 58  1  0
  1 59  1  0
  1 60  1  0
  2 61  1  0
  2 62  1  0
  3 63  1  0
  3 64  1  0
  4 65  1  1
  5 66  1  6
  8 67  1  0
 10 68  1  1
 13 69  1  0
 13 70  1  0
 13 71  1  0
 14 72  1  0
 14 73  1  0
 14 74  1  0
 15 75  1  0
 15 76  1  0
 15 77  1  0
 18 78  1  6
 19 79  1  0
 19 80  1  0
 20 81  1  6
 21 82  1  0
 21 83  1  0
 29 84  1  0
 30 85  1  0
 31 86  1  0
 32 87  1  0
 34 88  1  0
 35 89  1  0
 36 90  1  0
 36 91  1  0
 41 92  1  0
 44 93  1  0
 44 94  1  0
 45 95  1  6
 47 96  1  0
 53 97  1  0
 53 98  1  0
 53 99  1  0
 54100  1  0
 54101  1  0
 55102  1  0
 55103  1  0
 56104  1  0
M  END
$$$$
