
     RDKit          3D

104110  0  0  0  0  0  0  0  0999 V2000
   -6.4508   -3.0231    1.7839 C   0  0  0  0  0  0  0  0  0  0  0  0
   -5.9818   -4.4572    1.5647 C   0  0  0  0  0  0  0  0  0  0  0  0
   -4.7731   -4.6496    2.4810 C   0  0  0  0  0  0  0  0  0  0  0  0
   -4.4106   -3.2454    2.9781 C   0  0  2  0  0  0  0  0  0  0  0  0
   -5.1594   -2.2628    2.0555 C   0  0  2  0  0  0  0  0  0  0  0  0
   -2.9956   -3.0302    3.1281 O   0  0  0  0  0  0  0  0  0  0  0  0
   -2.2079   -3.0058    2.0292 C   0  0  0  0  0  0  0  0  0  0  0  0
   -0.9307   -2.6926    2.4109 N   0  0  0  0  0  0  0  0  0  0  0  0
   -2.5855   -3.2007    0.8873 O   0  0  0  0  0  0  0  0  0  0  0  0
    0.0481   -2.1067    1.4613 C   0  0  2  0  0  0  0  0  0  0  0  0
   -0.5295   -0.6591    1.2033 C   0  0  0  0  0  0  0  0  0  0  0  0
    0.5360   -3.1381    0.3798 C   0  0  0  0  0  0  0  0  0  0  0  0
    0.4404   -4.5986    0.9112 C   0  0  0  0  0  0  0  0  0  0  0  0
   -0.2462   -3.0825   -0.9495 C   0  0  0  0  0  0  0  0  0  0  0  0
    2.0555   -2.9528    0.1392 C   0  0  0  0  0  0  0  0  0  0  0  0
   -1.3044   -0.1999    2.0683 O   0  0  0  0  0  0  0  0  0  0  0  0
   -0.2011    0.1841    0.1723 N   0  0  0  0  0  0  0  0  0  0  0  0
   -0.6347    2.0635   -1.2540 C   0  0  1  0  0  0  0  0  0  0  0  0
   -0.8485    1.4900    0.1486 C   0  0  0  0  0  0  0  0  0  0  0  0
    0.8578    0.1690   -0.8302 C   0  0  1  0  0  0  0  0  0  0  0  0
    0.2730    1.0363   -1.9464 C   0  0  0  0  0  0  0  0  0  0  0  0
   -1.8536    2.1015   -2.0068 O   0  0  0  0  0  0  0  0  0  0  0  0
   -2.7293    3.0603   -1.5683 C   0  0  0  0  0  0  0  0  0  0  0  0
   -2.2318    4.3131   -1.4339 N   0  0  0  0  0  0  0  0  0  0  0  0
   -3.1078    5.2791   -1.1002 C   0  0  0  0  0  0  0  0  0  0  0  0
   -4.4804    4.9937   -0.9021 C   0  0  0  0  0  0  0  0  0  0  0  0
   -4.9602    3.7409   -1.0298 N   0  0  0  0  0  0  0  0  0  0  0  0
   -4.0679    2.7526   -1.3628 C   0  0  0  0  0  0  0  0  0  0  0  0
   -5.3442    6.0304   -0.5695 C   0  0  0  0  0  0  0  0  0  0  0  0
   -4.8875    7.3405   -0.4205 C   0  0  0  0  0  0  0  0  0  0  0  0
   -3.5380    7.6172   -0.5992 C   0  0  0  0  0  0  0  0  0  0  0  0
   -2.6632    6.5874   -0.9432 C   0  0  0  0  0  0  0  0  0  0  0  0
   -4.5731    1.3168   -1.4912 C   0  0  0  0  0  0  0  0  0  0  0  0
   -5.4740    0.9248   -0.3368 C   0  0  0  0  0  0  0  0  0  0  0  0
   -5.0543    0.4688    0.8599 C   0  0  0  0  0  0  0  0  0  0  0  0
   -5.9724    0.0033    1.9481 C   0  0  0  0  0  0  0  0  0  0  0  0
   -5.3715   -1.0246    2.7315 O   0  0  0  0  0  0  0  0  0  0  0  0
   -3.5764    0.3817   -1.5774 F   0  0  0  0  0  0  0  0  0  0  0  0
   -5.2802    1.1527   -2.6525 F   0  0  0  0  0  0  0  0  0  0  0  0
    2.1687    0.7062   -0.2008 C   0  0  0  0  0  0  0  0  0  0  0  0
    3.0899    1.2609   -1.0638 N   0  0  0  0  0  0  0  0  0  0  0  0
    2.4427    0.5400    0.9868 O   0  0  0  0  0  0  0  0  0  0  0  0
    4.3161    1.9133   -0.5916 C   0  0  2  0  0  0  0  0  0  0  0  0
    4.2022    3.0643    0.4033 C   0  0  0  0  0  0  0  0  0  0  0  0
    4.4730    3.3722   -1.0409 C   0  0  1  0  0  0  0  0  0  0  0  0
    5.5539    1.0260   -0.4694 C   0  0  0  0  0  0  0  0  0  0  0  0
    5.2943   -0.3528   -0.4488 N   0  0  0  0  0  0  0  0  0  0  0  0
    6.6848    1.4854   -0.3954 O   0  0  0  0  0  0  0  0  0  0  0  0
    5.9711   -1.2885   -1.6549 S   0  0  0  0  0  0  0  0  0  0  0  0
    7.6411   -1.8176   -1.1946 C   0  0  0  0  0  0  0  0  0  0  0  0
    6.0722   -0.4423   -2.8274 O   0  0  0  0  0  0  0  0  0  0  0  0
    5.1479   -2.4796   -1.7090 O   0  0  0  0  0  0  0  0  0  0  0  0
    8.5556   -1.9185   -2.3637 C   0  0  0  0  0  0  0  0  0  0  0  0
    8.1339   -1.4300    0.1748 C   0  0  0  0  0  0  0  0  0  0  0  0
    7.6805   -2.8444   -0.0833 C   0  0  0  0  0  0  0  0  0  0  0  0
    5.7771    3.9466   -1.4802 C   0  0  0  0  0  0  0  0  0  0  0  0
    5.5982    5.2764   -1.6955 F   0  0  0  0  0  0  0  0  0  0  0  0
    6.1012    3.4090   -2.6825 F   0  0  0  0  0  0  0  0  0  0  0  0
   -7.1291   -2.9558    2.6408 H   0  0  0  0  0  0  0  0  0  0  0  0
   -6.9861   -2.6290    0.9162 H   0  0  0  0  0  0  0  0  0  0  0  0
   -5.6778   -4.5848    0.5174 H   0  0  0  0  0  0  0  0  0  0  0  0
   -6.7732   -5.1828    1.7710 H   0  0  0  0  0  0  0  0  0  0  0  0
   -5.0365   -5.2840    3.3340 H   0  0  0  0  0  0  0  0  0  0  0  0
   -3.9583   -5.1558    1.9571 H   0  0  0  0  0  0  0  0  0  0  0  0
   -4.8189   -3.1264    3.9919 H   0  0  0  0  0  0  0  0  0  0  0  0
   -4.6178   -2.0869    1.1249 H   0  0  0  0  0  0  0  0  0  0  0  0
   -0.9387   -2.2776    3.3342 H   0  0  0  0  0  0  0  0  0  0  0  0
    0.9141   -1.9102    2.1116 H   0  0  0  0  0  0  0  0  0  0  0  0
    0.9330   -4.7055    1.8847 H   0  0  0  0  0  0  0  0  0  0  0  0
   -0.5955   -4.9348    1.0207 H   0  0  0  0  0  0  0  0  0  0  0  0
    0.9274   -5.2960    0.2225 H   0  0  0  0  0  0  0  0  0  0  0  0
    0.3947   -3.3228   -1.8024 H   0  0  0  0  0  0  0  0  0  0  0  0
   -0.7020   -2.1098   -1.1420 H   0  0  0  0  0  0  0  0  0  0  0  0
   -1.0625   -3.8123   -0.9729 H   0  0  0  0  0  0  0  0  0  0  0  0
    2.6224   -3.1169    1.0646 H   0  0  0  0  0  0  0  0  0  0  0  0
    2.4267   -3.6670   -0.5959 H   0  0  0  0  0  0  0  0  0  0  0  0
    2.3256   -1.9666   -0.2160 H   0  0  0  0  0  0  0  0  0  0  0  0
   -0.1387    3.0435   -1.2254 H   0  0  0  0  0  0  0  0  0  0  0  0
   -0.3326    2.1132    0.8897 H   0  0  0  0  0  0  0  0  0  0  0  0
   -1.9032    1.4105    0.4311 H   0  0  0  0  0  0  0  0  0  0  0  0
    1.0518   -0.8294   -1.2082 H   0  0  0  0  0  0  0  0  0  0  0  0
   -0.3286    0.4017   -2.6110 H   0  0  0  0  0  0  0  0  0  0  0  0
    1.0140    1.5213   -2.5841 H   0  0  0  0  0  0  0  0  0  0  0  0
   -6.3968    5.8086   -0.4135 H   0  0  0  0  0  0  0  0  0  0  0  0
   -5.5801    8.1337   -0.1524 H   0  0  0  0  0  0  0  0  0  0  0  0
   -3.1631    8.6289   -0.4705 H   0  0  0  0  0  0  0  0  0  0  0  0
   -1.6091    6.8108   -1.0943 H   0  0  0  0  0  0  0  0  0  0  0  0
   -6.5354    0.9886   -0.5558 H   0  0  0  0  0  0  0  0  0  0  0  0
   -3.9878    0.3921    1.0741 H   0  0  0  0  0  0  0  0  0  0  0  0
   -6.9436   -0.3246    1.5595 H   0  0  0  0  0  0  0  0  0  0  0  0
   -6.1573    0.8427    2.6280 H   0  0  0  0  0  0  0  0  0  0  0  0
    2.9503    1.2373   -2.0672 H   0  0  0  0  0  0  0  0  0  0  0  0
    5.0002    3.2147    1.1222 H   0  0  0  0  0  0  0  0  0  0  0  0
    3.2230    3.3053    0.8041 H   0  0  0  0  0  0  0  0  0  0  0  0
    3.6679    3.8108   -1.6202 H   0  0  0  0  0  0  0  0  0  0  0  0
    4.3236   -0.6204   -0.3174 H   0  0  0  0  0  0  0  0  0  0  0  0
    8.1350   -2.5762   -3.1331 H   0  0  0  0  0  0  0  0  0  0  0  0
    8.7344   -0.9296   -2.8024 H   0  0  0  0  0  0  0  0  0  0  0  0
    9.5306   -2.3294   -2.0754 H   0  0  0  0  0  0  0  0  0  0  0  0
    9.1948   -1.2367    0.3051 H   0  0  0  0  0  0  0  0  0  0  0  0
    7.5196   -0.8261    0.8264 H   0  0  0  0  0  0  0  0  0  0  0  0
    8.4369   -3.6215   -0.1372 H   0  0  0  0  0  0  0  0  0  0  0  0
    6.7499   -3.1746    0.3680 H   0  0  0  0  0  0  0  0  0  0  0  0
    6.6073    3.8249   -0.7827 H   0  0  0  0  0  0  0  0  0  0  0  0
  1  2  1  0
  2  3  1  0
  4  3  1  0
  4  5  1  0
  5  1  1  0
  4  6  1  0
  6  7  1  0
  7  8  1  0
  7  9  2  0
  8 10  1  0
 10 11  1  0
 10 12  1  0
 12 13  1  0
 12 14  1  0
 12 15  1  0
 11 16  2  0
 11 17  1  0
 19 17  1  0
 17 20  1  0
 18 19  1  0
 20 21  1  0
 18 21  1  0
 18 22  1  0
 22 23  1  0
 23 24  2  0
 28 23  1  0
 24 25  1  0
 26 27  1  0
 27 28  2  0
 26 29  1  0
 25 26  2  0
 32 25  1  0
 29 30  2  0
 30 31  1  0
 31 32  2  0
 28 33  1  0
 33 34  1  0
 34 35  2  0
 35 36  1  0
 36 37  1  0
  5 37  1  0
 33 38  1  0
 33 39  1  0
 20 40  1  0
 40 41  1  0
 40 42  2  0
 43 41  1  6
 43 44  1  0
 45 43  1  0
 44 45  1  0
 43 46  1  0
 46 47  1  0
 46 48  2  0
 47 49  1  0
 49 50  1  0
 49 51  2  0
 49 52  2  0
 50 53  1  0
 50 54  1  0
 55 50  1  0
 54 55  1  0
 45 56  1  0
 56 57  1  0
 56 58  1  0
  1 59  1  0
  1 60  1  0
  2 61  1  0
  2 62  1  0
  3 63  1  0
  3 64  1  0
  4 65  1  1
  5 66  1  6
  8 67  1  0
 10 68  1  1
 13 69  1  0
 13 70  1  0
 13 71  1  0
 14 72  1  0
 14 73  1  0
 14 74  1  0
 15 75  1  0
 15 76  1  0
 15 77  1  0
 18 78  1  1
 19 79  1  0
 19 80  1  0
 20 81  1  6
 21 82  1  0
 21 83  1  0
 29 84  1  0
 30 85  1  0
 31 86  1  0
 32 87  1  0
 34 88  1  0
 35 89  1  0
 36 90  1  0
 36 91  1  0
 41 92  1  0
 44 93  1  0
 44 94  1  0
 45 95  1  6
 47 96  1  0
 53 97  1  0
 53 98  1  0
 53 99  1  0
 54100  1  0
 54101  1  0
 55102  1  0
 55103  1  0
 56104  1  0
M  END
$$$$
