
     RDKit          3D

104110  0  0  0  0  0  0  0  0999 V2000
   -3.3014    0.3260   -3.2465 C   0  0  0  0  0  0  0  0  0  0  0  0
   -2.9197   -0.6385   -4.3593 C   0  0  0  0  0  0  0  0  0  0  0  0
   -1.8011   -1.4474   -3.7318 C   0  0  0  0  0  0  0  0  0  0  0  0
   -2.2769   -1.6924   -2.2960 C   0  0  2  0  0  0  0  0  0  0  0  0
   -3.2435   -0.5202   -1.9701 C   0  0  2  0  0  0  0  0  0  0  0  0
   -1.1216   -1.7312   -1.4419 O   0  0  0  0  0  0  0  0  0  0  0  0
   -1.3689   -2.1599   -0.1819 C   0  0  0  0  0  0  0  0  0  0  0  0
   -0.1923   -2.3599    0.4735 N   0  0  0  0  0  0  0  0  0  0  0  0
   -2.4742   -2.3163    0.3087 O   0  0  0  0  0  0  0  0  0  0  0  0
   -0.1882   -2.9802    1.7904 C   0  0  2  0  0  0  0  0  0  0  0  0
   -0.3149   -1.9929    2.9977 C   0  0  0  0  0  0  0  0  0  0  0  0
    0.9215   -4.0832    1.9431 C   0  0  0  0  0  0  0  0  0  0  0  0
    0.7226   -4.9122    3.2318 C   0  0  0  0  0  0  0  0  0  0  0  0
    0.8370   -5.0810    0.7572 C   0  0  0  0  0  0  0  0  0  0  0  0
    2.3341   -3.4885    1.9680 C   0  0  0  0  0  0  0  0  0  0  0  0
   -0.6033   -2.4694    4.1044 O   0  0  0  0  0  0  0  0  0  0  0  0
   -0.1041   -0.6272    2.9158 N   0  0  0  0  0  0  0  0  0  0  0  0
   -0.9060    1.5477    3.5055 C   0  0  1  0  0  0  0  0  0  0  0  0
   -0.5516    0.1669    4.0635 C   0  0  0  0  0  0  0  0  0  0  0  0
    0.1201    0.2537    1.7602 C   0  0  1  0  0  0  0  0  0  0  0  0
    0.0892    1.6736    2.3663 C   0  0  0  0  0  0  0  0  0  0  0  0
   -2.2446    1.5187    2.9887 O   0  0  0  0  0  0  0  0  0  0  0  0
   -2.8151    2.7450    2.7634 C   0  0  0  0  0  0  0  0  0  0  0  0
   -2.0008    3.8308    2.7864 N   0  0  0  0  0  0  0  0  0  0  0  0
   -2.5571    5.0254    2.5123 C   0  0  0  0  0  0  0  0  0  0  0  0
   -3.9300    5.1368    2.1990 C   0  0  0  0  0  0  0  0  0  0  0  0
   -4.7290    4.0565    2.1683 N   0  0  0  0  0  0  0  0  0  0  0  0
   -4.1678    2.8382    2.4554 C   0  0  0  0  0  0  0  0  0  0  0  0
   -4.4642    6.3884    1.9134 C   0  0  0  0  0  0  0  0  0  0  0  0
   -3.6703    7.5364    1.9291 C   0  0  0  0  0  0  0  0  0  0  0  0
   -2.3222    7.4315    2.2374 C   0  0  0  0  0  0  0  0  0  0  0  0
   -1.7775    6.1774    2.5334 C   0  0  0  0  0  0  0  0  0  0  0  0
   -5.0592    1.6086    2.3571 C   0  0  0  0  0  0  0  0  0  0  0  0
   -5.3191    1.2550    0.9081 C   0  0  0  0  0  0  0  0  0  0  0  0
   -5.1789    0.0426    0.3373 C   0  0  0  0  0  0  0  0  0  0  0  0
   -5.4876   -0.2298   -1.1053 C   0  0  0  0  0  0  0  0  0  0  0  0
   -4.5263   -1.0964   -1.6975 O   0  0  0  0  0  0  0  0  0  0  0  0
   -6.2725    1.8450    2.9421 F   0  0  0  0  0  0  0  0  0  0  0  0
   -4.5825    0.5205    3.0300 F   0  0  0  0  0  0  0  0  0  0  0  0
    1.4574    0.1656    1.0042 C   0  0  0  0  0  0  0  0  0  0  0  0
    1.5820    1.0771   -0.0360 N   0  0  0  0  0  0  0  0  0  0  0  0
    2.3675   -0.6137    1.2650 O   0  0  0  0  0  0  0  0  0  0  0  0
    2.8373    1.2681   -0.7403 C   0  0  2  0  0  0  0  0  0  0  0  0
    4.0115    1.8612    0.0415 C   0  0  0  0  0  0  0  0  0  0  0  0
    3.2986    2.7042   -0.9794 C   0  0  1  0  0  0  0  0  0  0  0  0
    3.1675    0.2034   -1.7616 C   0  0  0  0  0  0  0  0  0  0  0  0
    3.7119   -0.9580   -1.2144 N   0  0  0  0  0  0  0  0  0  0  0  0
    2.9902    0.4134   -2.9445 O   0  0  0  0  0  0  0  0  0  0  0  0
    3.8598   -2.4060   -2.0268 S   0  0  0  0  0  0  0  0  0  0  0  0
    5.2851   -2.3977   -3.1537 C   0  0  0  0  0  0  0  0  0  0  0  0
    2.6730   -2.5869   -2.8316 O   0  0  0  0  0  0  0  0  0  0  0  0
    4.1939   -3.3761   -0.9998 O   0  0  0  0  0  0  0  0  0  0  0  0
    5.3805   -3.6551   -3.9387 C   0  0  0  0  0  0  0  0  0  0  0  0
    6.5225   -1.7420   -2.5885 C   0  0  0  0  0  0  0  0  0  0  0  0
    5.7497   -1.0821   -3.7084 C   0  0  0  0  0  0  0  0  0  0  0  0
    3.9885    3.1442   -2.2244 C   0  0  0  0  0  0  0  0  0  0  0  0
    3.0663    3.7197   -3.0399 F   0  0  0  0  0  0  0  0  0  0  0  0
    4.8776    4.1141   -1.8849 F   0  0  0  0  0  0  0  0  0  0  0  0
   -2.5534    1.1252   -3.2006 H   0  0  0  0  0  0  0  0  0  0  0  0
   -4.2751    0.7778   -3.4478 H   0  0  0  0  0  0  0  0  0  0  0  0
   -3.7666   -1.2877   -4.6079 H   0  0  0  0  0  0  0  0  0  0  0  0
   -2.5958   -0.1286   -5.2714 H   0  0  0  0  0  0  0  0  0  0  0  0
   -0.8591   -0.8837   -3.7372 H   0  0  0  0  0  0  0  0  0  0  0  0
   -1.6232   -2.3899   -4.2600 H   0  0  0  0  0  0  0  0  0  0  0  0
   -2.7884   -2.6650   -2.2441 H   0  0  0  0  0  0  0  0  0  0  0  0
   -2.9060    0.0794   -1.1180 H   0  0  0  0  0  0  0  0  0  0  0  0
    0.6391   -2.3905   -0.1037 H   0  0  0  0  0  0  0  0  0  0  0  0
   -1.1355   -3.5344    1.8412 H   0  0  0  0  0  0  0  0  0  0  0  0
    0.9203   -4.3317    4.1334 H   0  0  0  0  0  0  0  0  0  0  0  0
    1.4122   -5.7557    3.2575 H   0  0  0  0  0  0  0  0  0  0  0  0
   -0.2915   -5.3155    3.2931 H   0  0  0  0  0  0  0  0  0  0  0  0
    1.0398   -4.5890   -0.2019 H   0  0  0  0  0  0  0  0  0  0  0  0
   -0.1557   -5.5424    0.6995 H   0  0  0  0  0  0  0  0  0  0  0  0
    1.5766   -5.8834    0.8633 H   0  0  0  0  0  0  0  0  0  0  0  0
    2.4224   -2.7137    2.7331 H   0  0  0  0  0  0  0  0  0  0  0  0
    3.0954   -4.2456    2.1869 H   0  0  0  0  0  0  0  0  0  0  0  0
    2.5846   -3.0507    1.0002 H   0  0  0  0  0  0  0  0  0  0  0  0
   -0.8048    2.3043    4.2918 H   0  0  0  0  0  0  0  0  0  0  0  0
    0.2943    0.2291    4.7593 H   0  0  0  0  0  0  0  0  0  0  0  0
   -1.4168   -0.2917    4.5612 H   0  0  0  0  0  0  0  0  0  0  0  0
   -0.7168    0.1338    1.0665 H   0  0  0  0  0  0  0  0  0  0  0  0
    1.0715    1.9446    2.7771 H   0  0  0  0  0  0  0  0  0  0  0  0
   -0.1822    2.4234    1.6133 H   0  0  0  0  0  0  0  0  0  0  0  0
   -5.5186    6.4728    1.6742 H   0  0  0  0  0  0  0  0  0  0  0  0
   -4.1058    8.5075    1.6977 H   0  0  0  0  0  0  0  0  0  0  0  0
   -1.6867    8.3143    2.2585 H   0  0  0  0  0  0  0  0  0  0  0  0
   -0.7207    6.1021    2.7780 H   0  0  0  0  0  0  0  0  0  0  0  0
   -5.6904    2.0804    0.3082 H   0  0  0  0  0  0  0  0  0  0  0  0
   -4.8561   -0.8093    0.9331 H   0  0  0  0  0  0  0  0  0  0  0  0
   -5.5876    0.6938   -1.6843 H   0  0  0  0  0  0  0  0  0  0  0  0
   -6.4512   -0.7489   -1.1451 H   0  0  0  0  0  0  0  0  0  0  0  0
    0.8053    1.6913   -0.2622 H   0  0  0  0  0  0  0  0  0  0  0  0
    5.0150    1.5078   -0.1838 H   0  0  0  0  0  0  0  0  0  0  0  0
    3.8614    2.1003    1.0915 H   0  0  0  0  0  0  0  0  0  0  0  0
    2.6830    3.5101   -0.5931 H   0  0  0  0  0  0  0  0  0  0  0  0
    3.5550   -1.0969   -0.2059 H   0  0  0  0  0  0  0  0  0  0  0  0
    6.2412   -3.6320   -4.6135 H   0  0  0  0  0  0  0  0  0  0  0  0
    5.4872   -4.5210   -3.2741 H   0  0  0  0  0  0  0  0  0  0  0  0
    4.4863   -3.8019   -4.5577 H   0  0  0  0  0  0  0  0  0  0  0  0
    7.4906   -2.1667   -2.8214 H   0  0  0  0  0  0  0  0  0  0  0  0
    6.4707   -1.2917   -1.6017 H   0  0  0  0  0  0  0  0  0  0  0  0
    6.2044   -1.0782   -4.6954 H   0  0  0  0  0  0  0  0  0  0  0  0
    5.2319   -0.1644   -3.4812 H   0  0  0  0  0  0  0  0  0  0  0  0
    4.5268    2.3609   -2.7574 H   0  0  0  0  0  0  0  0  0  0  0  0
  1  2  1  0
  2  3  1  0
  4  3  1  0
  4  5  1  0
  5  1  1  0
  4  6  1  0
  6  7  1  0
  7  8  1  0
  7  9  2  0
  8 10  1  0
 10 11  1  0
 10 12  1  0
 12 13  1  0
 12 14  1  0
 12 15  1  0
 11 16  2  0
 11 17  1  0
 19 17  1  0
 17 20  1  0
 18 19  1  0
 20 21  1  0
 18 21  1  0
 18 22  1  0
 22 23  1  0
 23 24  2  0
 28 23  1  0
 24 25  1  0
 26 27  1  0
 27 28  2  0
 26 29  1  0
 25 26  2  0
 32 25  1  0
 29 30  2  0
 30 31  1  0
 31 32  2  0
 28 33  1  0
 33 34  1  0
 34 35  2  0
 35 36  1  0
 36 37  1  0
  5 37  1  0
 33 38  1  0
 33 39  1  0
 20 40  1  0
 40 41  1  0
 40 42  2  0
 43 41  1  1
 43 44  1  0
 45 43  1  0
 44 45  1  0
 43 46  1  0
 46 47  1  0
 46 48  2  0
 47 49  1  0
 49 50  1  0
 49 51  2  0
 49 52  2  0
 50 53  1  0
 50 54  1  0
 55 50  1  0
 54 55  1  0
 45 56  1  0
 56 57  1  0
 56 58  1  0
  1 59  1  0
  1 60  1  0
  2 61  1  0
  2 62  1  0
  3 63  1  0
  3 64  1  0
  4 65  1  6
  5 66  1  1
  8 67  1  0
 10 68  1  6
 13 69  1  0
 13 70  1  0
 13 71  1  0
 14 72  1  0
 14 73  1  0
 14 74  1  0
 15 75  1  0
 15 76  1  0
 15 77  1  0
 18 78  1  1
 19 79  1  0
 19 80  1  0
 20 81  1  6
 21 82  1  0
 21 83  1  0
 29 84  1  0
 30 85  1  0
 31 86  1  0
 32 87  1  0
 34 88  1  0
 35 89  1  0
 36 90  1  0
 36 91  1  0
 41 92  1  0
 44 93  1  0
 44 94  1  0
 45 95  1  1
 47 96  1  0
 53 97  1  0
 53 98  1  0
 53 99  1  0
 54100  1  0
 54101  1  0
 55102  1  0
 55103  1  0
 56104  1  0
M  END
$$$$
