
     RDKit          3D

 42 44  0  0  0  0  0  0  0  0999 V2000
   50.1510  -17.7424   -7.6575 C   0  0  0  0  0  0  0  0  0  0  0  0
   48.6693  -17.8341   -7.1694 C   0  0  0  0  0  0  0  0  0  0  0  0
   51.0464  -16.8228   -6.7738 C   0  0  0  0  0  0  0  0  0  0  0  0
   48.3876  -15.3072   -7.7288 C   0  0  0  0  0  0  0  0  0  0  0  0
   49.6092  -14.7893   -7.5298 C   0  0  0  0  0  0  0  0  0  0  0  0
   47.8779  -16.6750   -7.1515 C   0  0  0  0  0  0  0  0  0  0  0  0
   50.7461  -15.4555   -6.6782 C   0  0  0  0  0  0  0  0  0  0  0  0
   50.5374  -18.3204   -8.8038 C   0  0  0  0  0  0  0  0  0  0  0  0
   53.1589  -17.2915  -11.4123 N   0  0  0  0  0  0  0  0  0  0  0  0
   51.8982  -18.2407   -9.4444 C   0  0  0  0  0  0  0  0  0  0  0  0
   52.0720  -17.3740   -5.9992 C   0  0  0  0  0  0  0  0  0  0  0  0
   48.1667  -19.0404   -6.6724 C   0  0  0  0  0  0  0  0  0  0  0  0
   51.8434  -17.4424  -10.7594 C   0  0  0  0  0  0  0  0  0  0  0  0
   51.4977  -14.6452   -5.8213 C   0  0  0  0  0  0  0  0  0  0  0  0
   46.5770  -16.7408   -6.6431 C   0  0  0  0  0  0  0  0  0  0  0  0
   53.6582  -18.5618  -11.9413 C   0  0  0  0  0  0  0  0  0  0  0  0
   53.0673  -16.3078  -12.4945 C   0  0  0  0  0  0  0  0  0  0  0  0
   52.8199  -16.5573   -5.1512 C   0  0  0  0  0  0  0  0  0  0  0  0
   46.8661  -19.0971   -6.1716 C   0  0  0  0  0  0  0  0  0  0  0  0
   46.0733  -17.9492   -6.1558 C   0  0  0  0  0  0  0  0  0  0  0  0
   52.5332  -15.1952   -5.0625 C   0  0  0  0  0  0  0  0  0  0  0  0
   47.7000  -14.7534   -8.3639 H   0  0  0  0  0  0  0  0  0  0  0  0
   49.8456  -13.8444   -8.0138 H   0  0  0  0  0  0  0  0  0  0  0  0
   49.8018  -18.8991   -9.3602 H   0  0  0  0  0  0  0  0  0  0  0  0
   52.6370  -17.7863   -8.7765 H   0  0  0  0  0  0  0  0  0  0  0  0
   52.2316  -19.2682   -9.6276 H   0  0  0  0  0  0  0  0  0  0  0  0
   52.2858  -18.4379   -6.0515 H   0  0  0  0  0  0  0  0  0  0  0  0
   48.7891  -19.9309   -6.6627 H   0  0  0  0  0  0  0  0  0  0  0  0
   51.1224  -17.9009  -11.4500 H   0  0  0  0  0  0  0  0  0  0  0  0
   51.4542  -16.4437  -10.5176 H   0  0  0  0  0  0  0  0  0  0  0  0
   51.2812  -13.5836   -5.7384 H   0  0  0  0  0  0  0  0  0  0  0  0
   45.9494  -15.8539   -6.6228 H   0  0  0  0  0  0  0  0  0  0  0  0
   54.6188  -18.4152  -12.4489 H   0  0  0  0  0  0  0  0  0  0  0  0
   52.9609  -19.0156  -12.6546 H   0  0  0  0  0  0  0  0  0  0  0  0
   53.8507  -19.2790  -11.1377 H   0  0  0  0  0  0  0  0  0  0  0  0
   52.7530  -15.3331  -12.1050 H   0  0  0  0  0  0  0  0  0  0  0  0
   54.0474  -16.1541  -12.9602 H   0  0  0  0  0  0  0  0  0  0  0  0
   52.3590  -16.6143  -13.2729 H   0  0  0  0  0  0  0  0  0  0  0  0
   53.6208  -16.9847   -4.5537 H   0  0  0  0  0  0  0  0  0  0  0  0
   46.4743  -20.0338   -5.7838 H   0  0  0  0  0  0  0  0  0  0  0  0
   45.0620  -17.9937   -5.7597 H   0  0  0  0  0  0  0  0  0  0  0  0
   53.1139  -14.5606   -4.3980 H   0  0  0  0  0  0  0  0  0  0  0  0
  2  1  1  0
  3  1  1  0
  4  6  1  0
  5  7  1  0
  6  2  2  0
  7  3  2  0
  8  1  2  3
  9 13  1  0
 10  8  1  0
 11  3  1  0
 12  2  1  0
 13 10  1  0
 14  7  1  0
 15  6  1  0
 16  9  1  0
 17  9  1  0
 18 11  2  0
 19 12  2  0
 20 19  1  0
 21 18  1  0
  5  4  2  0
 21 14  2  0
 20 15  2  0
  4 22  1  0
  5 23  1  0
  8 24  1  0
 10 25  1  0
 10 26  1  0
 11 27  1  0
 12 28  1  0
 13 29  1  0
 13 30  1  0
 14 31  1  0
 15 32  1  0
 16 33  1  0
 16 34  1  0
 16 35  1  0
 17 36  1  0
 17 37  1  0
 17 38  1  0
 18 39  1  0
 19 40  1  0
 20 41  1  0
 21 42  1  0
M  END
> <Uni-Dock RESULT> 
ENERGY=   -6.065  LOWER_BOUND=    0.000  UPPER_BOUND=    0.000
INTER + INTRA:          -6.065
INTER:                  -6.065
INTRA:                   0.000
UNBOUND:                 0.000

$$$$

     RDKit          3D

 42 44  0  0  0  0  0  0  0  0999 V2000
   50.1485  -17.7411   -7.6608 C   0  0  0  0  0  0  0  0  0  0  0  0
   48.6675  -17.8350   -7.1706 C   0  0  0  0  0  0  0  0  0  0  0  0
   51.0439  -16.8208   -6.7777 C   0  0  0  0  0  0  0  0  0  0  0  0
   48.3818  -15.3081   -7.7279 C   0  0  0  0  0  0  0  0  0  0  0  0
   49.6029  -14.7888   -7.5303 C   0  0  0  0  0  0  0  0  0  0  0  0
   47.8747  -16.6769   -7.1508 C   0  0  0  0  0  0  0  0  0  0  0  0
   50.7419  -15.4540   -6.6808 C   0  0  0  0  0  0  0  0  0  0  0  0
   50.5340  -18.3177   -8.8080 C   0  0  0  0  0  0  0  0  0  0  0  0
   53.1503  -17.2837  -11.4195 N   0  0  0  0  0  0  0  0  0  0  0  0
   51.8937  -18.2359   -9.4505 C   0  0  0  0  0  0  0  0  0  0  0  0
   52.0713  -17.3712   -6.0050 C   0  0  0  0  0  0  0  0  0  0  0  0
   48.1673  -19.0422   -6.6737 C   0  0  0  0  0  0  0  0  0  0  0  0
   51.8360  -17.4368  -10.7648 C   0  0  0  0  0  0  0  0  0  0  0  0
   51.4937  -14.6433   -5.8244 C   0  0  0  0  0  0  0  0  0  0  0  0
   46.5746  -16.7448   -6.6406 C   0  0  0  0  0  0  0  0  0  0  0  0
   53.6506  -18.5529  -11.9501 C   0  0  0  0  0  0  0  0  0  0  0  0
   53.0559  -16.2994  -12.5010 C   0  0  0  0  0  0  0  0  0  0  0  0
   52.8194  -16.5541   -5.1575 C   0  0  0  0  0  0  0  0  0  0  0  0
   46.8675  -19.1010   -6.1710 C   0  0  0  0  0  0  0  0  0  0  0  0
   46.0732  -17.9542   -6.1534 C   0  0  0  0  0  0  0  0  0  0  0  0
   52.5310  -15.1924   -5.0674 C   0  0  0  0  0  0  0  0  0  0  0  0
   47.6925  -14.7548   -8.3616 H   0  0  0  0  0  0  0  0  0  0  0  0
   49.8375  -13.8432   -8.0140 H   0  0  0  0  0  0  0  0  0  0  0  0
   49.7983  -18.8971   -9.3638 H   0  0  0  0  0  0  0  0  0  0  0  0
   52.6329  -17.7809   -8.7834 H   0  0  0  0  0  0  0  0  0  0  0  0
   52.2282  -19.2627   -9.6349 H   0  0  0  0  0  0  0  0  0  0  0  0
   52.2864  -18.4348   -6.0582 H   0  0  0  0  0  0  0  0  0  0  0  0
   48.7908  -19.9320   -6.6654 H   0  0  0  0  0  0  0  0  0  0  0  0
   51.1146  -17.8958  -11.4547 H   0  0  0  0  0  0  0  0  0  0  0  0
   51.4458  -16.4387  -10.5219 H   0  0  0  0  0  0  0  0  0  0  0  0
   51.2759  -13.5820   -5.7405 H   0  0  0  0  0  0  0  0  0  0  0  0
   45.9458  -15.8587   -6.6188 H   0  0  0  0  0  0  0  0  0  0  0  0
   54.6102  -18.4048  -12.4590 H   0  0  0  0  0  0  0  0  0  0  0  0
   52.9529  -19.0072  -12.6627 H   0  0  0  0  0  0  0  0  0  0  0  0
   53.8452  -19.2705  -11.1473 H   0  0  0  0  0  0  0  0  0  0  0  0
   52.7409  -15.3253  -12.1104 H   0  0  0  0  0  0  0  0  0  0  0  0
   54.0351  -16.1441  -12.9679 H   0  0  0  0  0  0  0  0  0  0  0  0
   52.3469  -16.6063  -13.2785 H   0  0  0  0  0  0  0  0  0  0  0  0
   53.6217  -16.9808   -4.5614 H   0  0  0  0  0  0  0  0  0  0  0  0
   46.4775  -20.0384   -5.7834 H   0  0  0  0  0  0  0  0  0  0  0  0
   45.0625  -18.0003   -5.7558 H   0  0  0  0  0  0  0  0  0  0  0  0
   53.1119  -14.5575   -4.4034 H   0  0  0  0  0  0  0  0  0  0  0  0
  2  1  1  0
  3  1  1  0
  4  6  1  0
  5  7  1  0
  6  2  2  0
  7  3  2  0
  8  1  2  3
  9 13  1  0
 10  8  1  0
 11  3  1  0
 12  2  1  0
 13 10  1  0
 14  7  1  0
 15  6  1  0
 16  9  1  0
 17  9  1  0
 18 11  2  0
 19 12  2  0
 20 19  1  0
 21 18  1  0
  5  4  2  0
 21 14  2  0
 20 15  2  0
  4 22  1  0
  5 23  1  0
  8 24  1  0
 10 25  1  0
 10 26  1  0
 11 27  1  0
 12 28  1  0
 13 29  1  0
 13 30  1  0
 14 31  1  0
 15 32  1  0
 16 33  1  0
 16 34  1  0
 16 35  1  0
 17 36  1  0
 17 37  1  0
 17 38  1  0
 18 39  1  0
 19 40  1  0
 20 41  1  0
 21 42  1  0
M  END
> <Uni-Dock RESULT> 
ENERGY=   -6.064  LOWER_BOUND=    0.008  UPPER_BOUND=    0.008
INTER + INTRA:          -6.064
INTER:                  -6.064
INTRA:                   0.000
UNBOUND:                 0.000

$$$$

     RDKit          3D

 42 44  0  0  0  0  0  0  0  0999 V2000
   49.6114  -16.3821   -7.7981 C   0  0  0  0  0  0  0  0  0  0  0  0
   50.7908  -16.2182   -6.7859 C   0  0  0  0  0  0  0  0  0  0  0  0
   48.4095  -17.1976   -7.2335 C   0  0  0  0  0  0  0  0  0  0  0  0
   51.1712  -18.7912   -6.8986 C   0  0  0  0  0  0  0  0  0  0  0  0
   49.9493  -19.2931   -7.1328 C   0  0  0  0  0  0  0  0  0  0  0  0
   51.4690  -17.3590   -6.3291 C   0  0  0  0  0  0  0  0  0  0  0  0
   48.5974  -18.5406   -6.8729 C   0  0  0  0  0  0  0  0  0  0  0  0
   49.7214  -15.9498   -9.0624 C   0  0  0  0  0  0  0  0  0  0  0  0
   48.2780  -17.3098  -12.3489 N   0  0  0  0  0  0  0  0  0  0  0  0
   48.7130  -16.1190  -10.1682 C   0  0  0  0  0  0  0  0  0  0  0  0
   47.1856  -16.5673   -6.9875 C   0  0  0  0  0  0  0  0  0  0  0  0
   51.1069  -14.9562   -6.2740 C   0  0  0  0  0  0  0  0  0  0  0  0
   49.2426  -17.0689  -11.2575 C   0  0  0  0  0  0  0  0  0  0  0  0
   47.5424  -19.2493   -6.2893 C   0  0  0  0  0  0  0  0  0  0  0  0
   52.4728  -17.2200   -5.3658 C   0  0  0  0  0  0  0  0  0  0  0  0
   48.0710  -16.1172  -13.1721 C   0  0  0  0  0  0  0  0  0  0  0  0
   48.7443  -18.4154  -13.1900 C   0  0  0  0  0  0  0  0  0  0  0  0
   46.1373  -17.2835   -6.4099 C   0  0  0  0  0  0  0  0  0  0  0  0
   52.1131  -14.8271   -5.3167 C   0  0  0  0  0  0  0  0  0  0  0  0
   52.7938  -15.9571   -4.8626 C   0  0  0  0  0  0  0  0  0  0  0  0
   46.3154  -18.6223   -6.0615 C   0  0  0  0  0  0  0  0  0  0  0  0
   52.0296  -19.4105   -7.1483 H   0  0  0  0  0  0  0  0  0  0  0  0
   49.8831  -20.2916   -7.5591 H   0  0  0  0  0  0  0  0  0  0  0  0
   50.6365  -15.4350   -9.3510 H   0  0  0  0  0  0  0  0  0  0  0  0
   47.7566  -16.4970   -9.7932 H   0  0  0  0  0  0  0  0  0  0  0  0
   48.5158  -15.1243  -10.5829 H   0  0  0  0  0  0  0  0  0  0  0  0
   47.0493  -15.5195   -7.2401 H   0  0  0  0  0  0  0  0  0  0  0  0
   50.5636  -14.0770   -6.6091 H   0  0  0  0  0  0  0  0  0  0  0  0
   50.1916  -16.6897  -11.6608 H   0  0  0  0  0  0  0  0  0  0  0  0
   49.4697  -18.0275  -10.7709 H   0  0  0  0  0  0  0  0  0  0  0  0
   47.6695  -20.2911   -6.0078 H   0  0  0  0  0  0  0  0  0  0  0  0
   53.0095  -18.0920   -5.0016 H   0  0  0  0  0  0  0  0  0  0  0  0
   47.3773  -16.3329  -13.9930 H   0  0  0  0  0  0  0  0  0  0  0  0
   49.0069  -15.7456  -13.6047 H   0  0  0  0  0  0  0  0  0  0  0  0
   47.6096  -15.3105  -12.5944 H   0  0  0  0  0  0  0  0  0  0  0  0
   48.8460  -19.3333  -12.6003 H   0  0  0  0  0  0  0  0  0  0  0  0
   48.0160  -18.6335  -13.9794 H   0  0  0  0  0  0  0  0  0  0  0  0
   49.7099  -18.1978  -13.6610 H   0  0  0  0  0  0  0  0  0  0  0  0
   45.1843  -16.7952   -6.2242 H   0  0  0  0  0  0  0  0  0  0  0  0
   52.3593  -13.8469   -4.9170 H   0  0  0  0  0  0  0  0  0  0  0  0
   53.5736  -15.8555   -4.1121 H   0  0  0  0  0  0  0  0  0  0  0  0
   45.4991  -19.1780   -5.6074 H   0  0  0  0  0  0  0  0  0  0  0  0
  2  1  1  0
  3  1  1  0
  4  6  1  0
  5  7  1  0
  6  2  2  0
  7  3  2  0
  8  1  2  3
  9 13  1  0
 10  8  1  0
 11  3  1  0
 12  2  1  0
 13 10  1  0
 14  7  1  0
 15  6  1  0
 16  9  1  0
 17  9  1  0
 18 11  2  0
 19 12  2  0
 20 19  1  0
 21 18  1  0
  5  4  2  0
 21 14  2  0
 20 15  2  0
  4 22  1  0
  5 23  1  0
  8 24  1  0
 10 25  1  0
 10 26  1  0
 11 27  1  0
 12 28  1  0
 13 29  1  0
 13 30  1  0
 14 31  1  0
 15 32  1  0
 16 33  1  0
 16 34  1  0
 16 35  1  0
 17 36  1  0
 17 37  1  0
 17 38  1  0
 18 39  1  0
 19 40  1  0
 20 41  1  0
 21 42  1  0
M  END
> <Uni-Dock RESULT> 
ENERGY=   -5.489  LOWER_BOUND=    2.131  UPPER_BOUND=    4.985
INTER + INTRA:          -5.489
INTER:                  -5.489
INTRA:                   0.000
UNBOUND:                 0.000

$$$$

     RDKit          3D

 42 44  0  0  0  0  0  0  0  0999 V2000
   49.6011  -16.3673   -7.7976 C   0  0  0  0  0  0  0  0  0  0  0  0
   50.7816  -16.2036   -6.7867 C   0  0  0  0  0  0  0  0  0  0  0  0
   48.4020  -17.1876   -7.2338 C   0  0  0  0  0  0  0  0  0  0  0  0
   51.1682  -18.7753   -6.9081 C   0  0  0  0  0  0  0  0  0  0  0  0
   49.9472  -19.2796   -7.1420 C   0  0  0  0  0  0  0  0  0  0  0  0
   51.4633  -17.3442   -6.3345 C   0  0  0  0  0  0  0  0  0  0  0  0
   48.5938  -18.5312   -6.8778 C   0  0  0  0  0  0  0  0  0  0  0  0
   49.7081  -15.9308   -9.0607 C   0  0  0  0  0  0  0  0  0  0  0  0
   48.2631  -17.2840  -12.3493 N   0  0  0  0  0  0  0  0  0  0  0  0
   48.6985  -16.0989  -10.1655 C   0  0  0  0  0  0  0  0  0  0  0  0
   47.1770  -16.5612   -6.9840 C   0  0  0  0  0  0  0  0  0  0  0  0
   51.0952  -14.9424   -6.2713 C   0  0  0  0  0  0  0  0  0  0  0  0
   49.2288  -17.0440  -11.2587 C   0  0  0  0  0  0  0  0  0  0  0  0
   47.5415  -19.2444   -6.2949 C   0  0  0  0  0  0  0  0  0  0  0  0
   52.4682  -17.2058   -5.3723 C   0  0  0  0  0  0  0  0  0  0  0  0
   48.0520  -16.0893  -13.1684 C   0  0  0  0  0  0  0  0  0  0  0  0
   48.7309  -18.3857  -13.1947 C   0  0  0  0  0  0  0  0  0  0  0  0
   46.1313  -17.2818   -6.4071 C   0  0  0  0  0  0  0  0  0  0  0  0
   52.1026  -14.8139   -5.3150 C   0  0  0  0  0  0  0  0  0  0  0  0
   52.7868  -15.9436   -4.8655 C   0  0  0  0  0  0  0  0  0  0  0  0
   46.3133  -18.6212   -6.0632 C   0  0  0  0  0  0  0  0  0  0  0  0
   52.0278  -19.3917   -7.1610 H   0  0  0  0  0  0  0  0  0  0  0  0
   49.8829  -20.2768   -7.5714 H   0  0  0  0  0  0  0  0  0  0  0  0
   50.6214  -15.4127   -9.3490 H   0  0  0  0  0  0  0  0  0  0  0  0
   47.7435  -16.4806   -9.7903 H   0  0  0  0  0  0  0  0  0  0  0  0
   48.4981  -15.1034  -10.5768 H   0  0  0  0  0  0  0  0  0  0  0  0
   47.0376  -15.5129   -7.2331 H   0  0  0  0  0  0  0  0  0  0  0  0
   50.5492  -14.0635   -6.6028 H   0  0  0  0  0  0  0  0  0  0  0  0
   50.1762  -16.6612  -11.6621 H   0  0  0  0  0  0  0  0  0  0  0  0
   49.4590  -18.0037  -10.7754 H   0  0  0  0  0  0  0  0  0  0  0  0
   47.6716  -20.2868   -6.0169 H   0  0  0  0  0  0  0  0  0  0  0  0
   53.0076  -18.0776   -5.0116 H   0  0  0  0  0  0  0  0  0  0  0  0
   47.3575  -16.3041  -13.9890 H   0  0  0  0  0  0  0  0  0  0  0  0
   48.9862  -15.7140  -13.6013 H   0  0  0  0  0  0  0  0  0  0  0  0
   47.5894  -15.2855  -12.5876 H   0  0  0  0  0  0  0  0  0  0  0  0
   48.8358  -19.3052  -12.6080 H   0  0  0  0  0  0  0  0  0  0  0  0
   48.0020  -18.6031  -13.9836 H   0  0  0  0  0  0  0  0  0  0  0  0
   49.6952  -18.1642  -13.6664 H   0  0  0  0  0  0  0  0  0  0  0  0
   45.1774  -16.7964   -6.2185 H   0  0  0  0  0  0  0  0  0  0  0  0
   52.3469  -13.8344   -4.9126 H   0  0  0  0  0  0  0  0  0  0  0  0
   53.5675  -15.8424   -4.1159 H   0  0  0  0  0  0  0  0  0  0  0  0
   45.4990  -19.1804   -5.6097 H   0  0  0  0  0  0  0  0  0  0  0  0
  2  1  1  0
  3  1  1  0
  4  6  1  0
  5  7  1  0
  6  2  2  0
  7  3  2  0
  8  1  2  3
  9 13  1  0
 10  8  1  0
 11  3  1  0
 12  2  1  0
 13 10  1  0
 14  7  1  0
 15  6  1  0
 16  9  1  0
 17  9  1  0
 18 11  2  0
 19 12  2  0
 20 19  1  0
 21 18  1  0
  5  4  2  0
 21 14  2  0
 20 15  2  0
  4 22  1  0
  5 23  1  0
  8 24  1  0
 10 25  1  0
 10 26  1  0
 11 27  1  0
 12 28  1  0
 13 29  1  0
 13 30  1  0
 14 31  1  0
 15 32  1  0
 16 33  1  0
 16 34  1  0
 16 35  1  0
 17 36  1  0
 17 37  1  0
 17 38  1  0
 18 39  1  0
 19 40  1  0
 20 41  1  0
 21 42  1  0
M  END
> <Uni-Dock RESULT> 
ENERGY=   -5.489  LOWER_BOUND=    2.135  UPPER_BOUND=    4.988
INTER + INTRA:          -5.489
INTER:                  -5.489
INTRA:                   0.000
UNBOUND:                 0.000

$$$$

     RDKit          3D

 42 44  0  0  0  0  0  0  0  0999 V2000
   50.1605  -16.7980   -7.6994 C   0  0  0  0  0  0  0  0  0  0  0  0
   51.1460  -17.0686   -6.5171 C   0  0  0  0  0  0  0  0  0  0  0  0
   48.6580  -16.9093   -7.3011 C   0  0  0  0  0  0  0  0  0  0  0  0
   50.2971  -19.5287   -6.4465 C   0  0  0  0  0  0  0  0  0  0  0  0
   49.0213  -19.4469   -6.8533 C   0  0  0  0  0  0  0  0  0  0  0  0
   51.1539  -18.3309   -5.9033 C   0  0  0  0  0  0  0  0  0  0  0  0
   48.1539  -18.1396   -6.8527 C   0  0  0  0  0  0  0  0  0  0  0  0
   50.6136  -16.6129   -8.9475 C   0  0  0  0  0  0  0  0  0  0  0  0
   49.1207  -17.5454  -12.3586 N   0  0  0  0  0  0  0  0  0  0  0  0
   49.7871  -16.4351  -10.1939 C   0  0  0  0  0  0  0  0  0  0  0  0
   47.8478  -15.7696   -7.2876 C   0  0  0  0  0  0  0  0  0  0  0  0
   51.9469  -16.0362   -6.0198 C   0  0  0  0  0  0  0  0  0  0  0  0
   49.9440  -17.6416  -11.1369 C   0  0  0  0  0  0  0  0  0  0  0  0
   46.8276  -18.2208   -6.4167 C   0  0  0  0  0  0  0  0  0  0  0  0
   51.9800  -18.5499   -4.7966 C   0  0  0  0  0  0  0  0  0  0  0  0
   49.5951  -16.4933  -13.2591 C   0  0  0  0  0  0  0  0  0  0  0  0
   49.1191  -18.8320  -13.0601 C   0  0  0  0  0  0  0  0  0  0  0  0
   46.5245  -15.8611   -6.8561 C   0  0  0  0  0  0  0  0  0  0  0  0
   52.7711  -16.2658   -4.9182 C   0  0  0  0  0  0  0  0  0  0  0  0
   52.7866  -17.5198   -4.3070 C   0  0  0  0  0  0  0  0  0  0  0  0
   46.0153  -17.0847   -6.4214 C   0  0  0  0  0  0  0  0  0  0  0  0
   50.7926  -20.4938   -6.5238 H   0  0  0  0  0  0  0  0  0  0  0  0
   48.5516  -20.3495   -7.2378 H   0  0  0  0  0  0  0  0  0  0  0  0
   51.6908  -16.6055   -9.1066 H   0  0  0  0  0  0  0  0  0  0  0  0
   48.7266  -16.2929   -9.9628 H   0  0  0  0  0  0  0  0  0  0  0  0
   50.1278  -15.5148  -10.6811 H   0  0  0  0  0  0  0  0  0  0  0  0
   48.2465  -14.8109   -7.6075 H   0  0  0  0  0  0  0  0  0  0  0  0
   51.9206  -15.0521   -6.4795 H   0  0  0  0  0  0  0  0  0  0  0  0
   51.0020  -17.7827  -11.3972 H   0  0  0  0  0  0  0  0  0  0  0  0
   49.6374  -18.5352  -10.5758 H   0  0  0  0  0  0  0  0  0  0  0  0
   46.4200  -19.1666   -6.0701 H   0  0  0  0  0  0  0  0  0  0  0  0
   52.0002  -19.5212   -4.3096 H   0  0  0  0  0  0  0  0  0  0  0  0
   48.9877  -16.4659  -14.1712 H   0  0  0  0  0  0  0  0  0  0  0  0
   50.6416  -16.6387  -13.5501 H   0  0  0  0  0  0  0  0  0  0  0  0
   49.4945  -15.5040  -12.8026 H   0  0  0  0  0  0  0  0  0  0  0  0
   48.7088  -19.6207  -12.4196 H   0  0  0  0  0  0  0  0  0  0  0  0
   48.4764  -18.7872  -13.9467 H   0  0  0  0  0  0  0  0  0  0  0  0
   50.1248  -19.1314  -13.3769 H   0  0  0  0  0  0  0  0  0  0  0  0
   45.8932  -14.9765   -6.8512 H   0  0  0  0  0  0  0  0  0  0  0  0
   53.3935  -15.4640   -4.5297 H   0  0  0  0  0  0  0  0  0  0  0  0
   53.4251  -17.6954   -3.4450 H   0  0  0  0  0  0  0  0  0  0  0  0
   44.9853  -17.1537   -6.0813 H   0  0  0  0  0  0  0  0  0  0  0  0
  2  1  1  0
  3  1  1  0
  4  6  1  0
  5  7  1  0
  6  2  2  0
  7  3  2  0
  8  1  2  3
  9 13  1  0
 10  8  1  0
 11  3  1  0
 12  2  1  0
 13 10  1  0
 14  7  1  0
 15  6  1  0
 16  9  1  0
 17  9  1  0
 18 11  2  0
 19 12  2  0
 20 19  1  0
 21 18  1  0
  5  4  2  0
 21 14  2  0
 20 15  2  0
  4 22  1  0
  5 23  1  0
  8 24  1  0
 10 25  1  0
 10 26  1  0
 11 27  1  0
 12 28  1  0
 13 29  1  0
 13 30  1  0
 14 31  1  0
 15 32  1  0
 16 33  1  0
 16 34  1  0
 16 35  1  0
 17 36  1  0
 17 37  1  0
 17 38  1  0
 18 39  1  0
 19 40  1  0
 20 41  1  0
 21 42  1  0
M  END
> <Uni-Dock RESULT> 
ENERGY=   -5.302  LOWER_BOUND=    1.891  UPPER_BOUND=    4.713
INTER + INTRA:          -5.302
INTER:                  -5.302
INTRA:                   0.000
UNBOUND:                 0.000

$$$$

     RDKit          3D

 42 44  0  0  0  0  0  0  0  0999 V2000
   47.0641  -15.9976  -10.7027 C   0  0  0  0  0  0  0  0  0  0  0  0
   46.8457  -16.3295   -9.1913 C   0  0  0  0  0  0  0  0  0  0  0  0
   45.7468  -15.6758  -11.4706 C   0  0  0  0  0  0  0  0  0  0  0  0
   45.5430  -18.4670   -9.9067 C   0  0  0  0  0  0  0  0  0  0  0  0
   44.9828  -18.1324  -11.0789 C   0  0  0  0  0  0  0  0  0  0  0  0
   46.0816  -17.4523   -8.8369 C   0  0  0  0  0  0  0  0  0  0  0  0
   44.7591  -16.6654  -11.5882 C   0  0  0  0  0  0  0  0  0  0  0  0
   48.2748  -16.1125  -11.2670 C   0  0  0  0  0  0  0  0  0  0  0  0
   49.3418  -17.1301  -14.8110 N   0  0  0  0  0  0  0  0  0  0  0  0
   48.6187  -15.9181  -12.7204 C   0  0  0  0  0  0  0  0  0  0  0  0
   45.5065  -14.3817  -11.9430 C   0  0  0  0  0  0  0  0  0  0  0  0
   47.3321  -15.4661   -8.2051 C   0  0  0  0  0  0  0  0  0  0  0  0
   49.0353  -17.2491  -13.3717 C   0  0  0  0  0  0  0  0  0  0  0  0
   43.5433  -16.3528  -12.2045 C   0  0  0  0  0  0  0  0  0  0  0  0
   45.8216  -17.7063   -7.4868 C   0  0  0  0  0  0  0  0  0  0  0  0
   50.5693  -16.3692  -15.0499 C   0  0  0  0  0  0  0  0  0  0  0  0
   49.4641  -18.4638  -15.4056 C   0  0  0  0  0  0  0  0  0  0  0  0
   44.2929  -14.0803  -12.5611 C   0  0  0  0  0  0  0  0  0  0  0  0
   47.0714  -15.7305   -6.8605 C   0  0  0  0  0  0  0  0  0  0  0  0
   46.3165  -16.8477   -6.5022 C   0  0  0  0  0  0  0  0  0  0  0  0
   43.3130  -15.0643  -12.6916 C   0  0  0  0  0  0  0  0  0  0  0  0
   45.6629  -19.5253   -9.6863 H   0  0  0  0  0  0  0  0  0  0  0  0
   44.6788  -18.9368  -11.7449 H   0  0  0  0  0  0  0  0  0  0  0  0
   49.1127  -16.3943  -10.6312 H   0  0  0  0  0  0  0  0  0  0  0  0
   47.7842  -15.4866  -13.2823 H   0  0  0  0  0  0  0  0  0  0  0  0
   49.4367  -15.1907  -12.7662 H   0  0  0  0  0  0  0  0  0  0  0  0
   46.2599  -13.6078  -11.8261 H   0  0  0  0  0  0  0  0  0  0  0  0
   47.9014  -14.5831   -8.4819 H   0  0  0  0  0  0  0  0  0  0  0  0
   49.8882  -17.6831  -12.8322 H   0  0  0  0  0  0  0  0  0  0  0  0
   48.1970  -17.9486  -13.2474 H   0  0  0  0  0  0  0  0  0  0  0  0
   42.7691  -17.1084  -12.3076 H   0  0  0  0  0  0  0  0  0  0  0  0
   45.2332  -18.5717   -7.1937 H   0  0  0  0  0  0  0  0  0  0  0  0
   50.7908  -16.3247  -16.1226 H   0  0  0  0  0  0  0  0  0  0  0  0
   51.4344  -16.8089  -14.5407 H   0  0  0  0  0  0  0  0  0  0  0  0
   50.4632  -15.3304  -14.7229 H   0  0  0  0  0  0  0  0  0  0  0  0
   48.5307  -19.0258  -15.2891 H   0  0  0  0  0  0  0  0  0  0  0  0
   49.6491  -18.3904  -16.4833 H   0  0  0  0  0  0  0  0  0  0  0  0
   50.2766  -19.0448  -14.9542 H   0  0  0  0  0  0  0  0  0  0  0  0
   44.1085  -13.0761  -12.9335 H   0  0  0  0  0  0  0  0  0  0  0  0
   47.4479  -15.0597   -6.0927 H   0  0  0  0  0  0  0  0  0  0  0  0
   46.1093  -17.0490   -5.4543 H   0  0  0  0  0  0  0  0  0  0  0  0
   42.3660  -14.8270  -13.1695 H   0  0  0  0  0  0  0  0  0  0  0  0
  2  1  1  0
  3  1  1  0
  4  6  1  0
  5  7  1  0
  6  2  2  0
  7  3  2  0
  8  1  2  3
  9 13  1  0
 10  8  1  0
 11  3  1  0
 12  2  1  0
 13 10  1  0
 14  7  1  0
 15  6  1  0
 16  9  1  0
 17  9  1  0
 18 11  2  0
 19 12  2  0
 20 19  1  0
 21 18  1  0
  5  4  2  0
 21 14  2  0
 20 15  2  0
  4 22  1  0
  5 23  1  0
  8 24  1  0
 10 25  1  0
 10 26  1  0
 11 27  1  0
 12 28  1  0
 13 29  1  0
 13 30  1  0
 14 31  1  0
 15 32  1  0
 16 33  1  0
 16 34  1  0
 16 35  1  0
 17 36  1  0
 17 37  1  0
 17 38  1  0
 18 39  1  0
 19 40  1  0
 20 41  1  0
 21 42  1  0
M  END
> <Uni-Dock RESULT> 
ENERGY=   -4.648  LOWER_BOUND=    4.269  UPPER_BOUND=    6.383
INTER + INTRA:          -4.648
INTER:                  -4.648
INTRA:                   0.000
UNBOUND:                 0.000

$$$$

     RDKit          3D

 42 44  0  0  0  0  0  0  0  0999 V2000
   48.8900  -17.5621   -8.6970 C   0  0  0  0  0  0  0  0  0  0  0  0
   48.0804  -16.9757   -9.8982 C   0  0  0  0  0  0  0  0  0  0  0  0
   47.9983  -18.2214   -7.6022 C   0  0  0  0  0  0  0  0  0  0  0  0
   47.0280  -15.2393   -8.2687 C   0  0  0  0  0  0  0  0  0  0  0  0
   46.9902  -15.8777   -7.0893 C   0  0  0  0  0  0  0  0  0  0  0  0
   47.1700  -15.9320   -9.6702 C   0  0  0  0  0  0  0  0  0  0  0  0
   47.0746  -17.4328   -6.8996 C   0  0  0  0  0  0  0  0  0  0  0  0
   50.2151  -17.3811   -8.6035 C   0  0  0  0  0  0  0  0  0  0  0  0
   52.5115  -16.9328   -5.5605 N   0  0  0  0  0  0  0  0  0  0  0  0
   51.1089  -17.8041   -7.4675 C   0  0  0  0  0  0  0  0  0  0  0  0
   48.0421  -19.6042   -7.3983 C   0  0  0  0  0  0  0  0  0  0  0  0
   48.1974  -17.5460  -11.1694 C   0  0  0  0  0  0  0  0  0  0  0  0
   51.6622  -16.5802   -6.7155 C   0  0  0  0  0  0  0  0  0  0  0  0
   46.2165  -18.0383   -5.9761 C   0  0  0  0  0  0  0  0  0  0  0  0
   46.3898  -15.4591  -10.7298 C   0  0  0  0  0  0  0  0  0  0  0  0
   53.7801  -17.5342   -5.9750 C   0  0  0  0  0  0  0  0  0  0  0  0
   52.7719  -15.7391   -4.7515 C   0  0  0  0  0  0  0  0  0  0  0  0
   47.1862  -20.1988   -6.4713 C   0  0  0  0  0  0  0  0  0  0  0  0
   47.4181  -17.0642  -12.2211 C   0  0  0  0  0  0  0  0  0  0  0  0
   46.5151  -16.0237  -12.0014 C   0  0  0  0  0  0  0  0  0  0  0  0
   46.2749  -19.4171   -5.7614 C   0  0  0  0  0  0  0  0  0  0  0  0
   46.9863  -14.1526   -8.2581 H   0  0  0  0  0  0  0  0  0  0  0  0
   46.9198  -15.2745   -6.1870 H   0  0  0  0  0  0  0  0  0  0  0  0
   50.7201  -16.8581   -9.4141 H   0  0  0  0  0  0  0  0  0  0  0  0
   50.5877  -18.4572   -6.7603 H   0  0  0  0  0  0  0  0  0  0  0  0
   51.9240  -18.3959   -7.8984 H   0  0  0  0  0  0  0  0  0  0  0  0
   48.7374  -20.2188   -7.9633 H   0  0  0  0  0  0  0  0  0  0  0  0
   48.8835  -18.3712  -11.3388 H   0  0  0  0  0  0  0  0  0  0  0  0
   52.2090  -15.9263   -7.4085 H   0  0  0  0  0  0  0  0  0  0  0  0
   50.7997  -16.0030   -6.3545 H   0  0  0  0  0  0  0  0  0  0  0  0
   45.4980  -17.4418   -5.4204 H   0  0  0  0  0  0  0  0  0  0  0  0
   45.6809  -14.6506  -10.5721 H   0  0  0  0  0  0  0  0  0  0  0  0
   54.4039  -17.7552   -5.1011 H   0  0  0  0  0  0  0  0  0  0  0  0
   54.3495  -16.8789   -6.6439 H   0  0  0  0  0  0  0  0  0  0  0  0
   53.6202  -18.4923   -6.4787 H   0  0  0  0  0  0  0  0  0  0  0  0
   51.8337  -15.3108   -4.3816 H   0  0  0  0  0  0  0  0  0  0  0  0
   53.3660  -15.9946   -3.8667 H   0  0  0  0  0  0  0  0  0  0  0  0
   53.3067  -14.9661   -5.3155 H   0  0  0  0  0  0  0  0  0  0  0  0
   47.2244  -21.2727   -6.3087 H   0  0  0  0  0  0  0  0  0  0  0  0
   47.5072  -17.5071  -13.2096 H   0  0  0  0  0  0  0  0  0  0  0  0
   45.9042  -15.6534  -12.8207 H   0  0  0  0  0  0  0  0  0  0  0  0
   45.6055  -19.8823   -5.0424 H   0  0  0  0  0  0  0  0  0  0  0  0
  2  1  1  0
  3  1  1  0
  4  6  1  0
  5  7  1  0
  6  2  2  0
  7  3  2  0
  8  1  2  3
  9 13  1  0
 10  8  1  0
 11  3  1  0
 12  2  1  0
 13 10  1  0
 14  7  1  0
 15  6  1  0
 16  9  1  0
 17  9  1  0
 18 11  2  0
 19 12  2  0
 20 19  1  0
 21 18  1  0
  5  4  2  0
 21 14  2  0
 20 15  2  0
  4 22  1  0
  5 23  1  0
  8 24  1  0
 10 25  1  0
 10 26  1  0
 11 27  1  0
 12 28  1  0
 13 29  1  0
 13 30  1  0
 14 31  1  0
 15 32  1  0
 16 33  1  0
 16 34  1  0
 16 35  1  0
 17 36  1  0
 17 37  1  0
 17 38  1  0
 18 39  1  0
 19 40  1  0
 20 41  1  0
 21 42  1  0
M  END
> <Uni-Dock RESULT> 
ENERGY=   -4.193  LOWER_BOUND=    2.512  UPPER_BOUND=    4.879
INTER + INTRA:          -4.193
INTER:                  -4.193
INTRA:                   0.000
UNBOUND:                 0.000

$$$$

     RDKit          3D

 42 44  0  0  0  0  0  0  0  0999 V2000
   47.8248  -16.3619  -10.4896 C   0  0  0  0  0  0  0  0  0  0  0  0
   49.0767  -17.2581  -10.7578 C   0  0  0  0  0  0  0  0  0  0  0  0
   47.2354  -16.5211   -9.0558 C   0  0  0  0  0  0  0  0  0  0  0  0
   47.5561  -19.3573  -10.5158 C   0  0  0  0  0  0  0  0  0  0  0  0
   46.6086  -18.9770   -9.6455 C   0  0  0  0  0  0  0  0  0  0  0  0
   48.9468  -18.6547  -10.7060 C   0  0  0  0  0  0  0  0  0  0  0  0
   46.7234  -17.7648   -8.6561 C   0  0  0  0  0  0  0  0  0  0  0  0
   47.2738  -15.6339  -11.4713 C   0  0  0  0  0  0  0  0  0  0  0  0
   43.6286  -14.6560  -12.1719 N   0  0  0  0  0  0  0  0  0  0  0  0
   46.0216  -14.8011  -11.3875 C   0  0  0  0  0  0  0  0  0  0  0  0
   47.3150  -15.4659   -8.1416 C   0  0  0  0  0  0  0  0  0  0  0  0
   50.3301  -16.6721  -10.9587 C   0  0  0  0  0  0  0  0  0  0  0  0
   44.8983  -15.4054  -12.2491 C   0  0  0  0  0  0  0  0  0  0  0  0
   46.2703  -17.9315   -7.3436 C   0  0  0  0  0  0  0  0  0  0  0  0
   50.0814  -19.4553  -10.8697 C   0  0  0  0  0  0  0  0  0  0  0  0
   43.7250  -13.3449  -12.8158 C   0  0  0  0  0  0  0  0  0  0  0  0
   42.5533  -15.4334  -12.7936 C   0  0  0  0  0  0  0  0  0  0  0  0
   46.8559  -15.6396   -6.8360 C   0  0  0  0  0  0  0  0  0  0  0  0
   51.4554  -17.4793  -11.1256 C   0  0  0  0  0  0  0  0  0  0  0  0
   51.3314  -18.8681  -11.0799 C   0  0  0  0  0  0  0  0  0  0  0  0
   46.3344  -16.8704   -6.4377 C   0  0  0  0  0  0  0  0  0  0  0  0
   47.3380  -20.2022  -11.1650 H   0  0  0  0  0  0  0  0  0  0  0  0
   45.6742  -19.5338   -9.6359 H   0  0  0  0  0  0  0  0  0  0  0  0
   47.7532  -15.6441  -12.4489 H   0  0  0  0  0  0  0  0  0  0  0  0
   45.6696  -14.6972  -10.3562 H   0  0  0  0  0  0  0  0  0  0  0  0
   46.2776  -13.7938  -11.7342 H   0  0  0  0  0  0  0  0  0  0  0  0
   47.7381  -14.5116   -8.4429 H   0  0  0  0  0  0  0  0  0  0  0  0
   50.4336  -15.5906  -10.9726 H   0  0  0  0  0  0  0  0  0  0  0  0
   45.2289  -15.4940  -13.2930 H   0  0  0  0  0  0  0  0  0  0  0  0
   44.7252  -16.4284  -11.8872 H   0  0  0  0  0  0  0  0  0  0  0  0
   45.8670  -18.8868   -7.0186 H   0  0  0  0  0  0  0  0  0  0  0  0
   49.9996  -20.5384  -10.8341 H   0  0  0  0  0  0  0  0  0  0  0  0
   42.7610  -12.8245  -12.7733 H   0  0  0  0  0  0  0  0  0  0  0  0
   44.0256  -13.4212  -13.8669 H   0  0  0  0  0  0  0  0  0  0  0  0
   44.4376  -12.6977  -12.2955 H   0  0  0  0  0  0  0  0  0  0  0  0
   42.4269  -16.3948  -12.2833 H   0  0  0  0  0  0  0  0  0  0  0  0
   41.5960  -14.9074  -12.7051 H   0  0  0  0  0  0  0  0  0  0  0  0
   42.7442  -15.6277  -13.8554 H   0  0  0  0  0  0  0  0  0  0  0  0
   46.9125  -14.8177   -6.1273 H   0  0  0  0  0  0  0  0  0  0  0  0
   52.4306  -17.0253  -11.2808 H   0  0  0  0  0  0  0  0  0  0  0  0
   52.2103  -19.4956  -11.2042 H   0  0  0  0  0  0  0  0  0  0  0  0
   45.9810  -17.0058   -5.4188 H   0  0  0  0  0  0  0  0  0  0  0  0
  2  1  1  0
  3  1  1  0
  4  6  1  0
  5  7  1  0
  6  2  2  0
  7  3  2  0
  8  1  2  3
  9 13  1  0
 10  8  1  0
 11  3  1  0
 12  2  1  0
 13 10  1  0
 14  7  1  0
 15  6  1  0
 16  9  1  0
 17  9  1  0
 18 11  2  0
 19 12  2  0
 20 19  1  0
 21 18  1  0
  5  4  2  0
 21 14  2  0
 20 15  2  0
  4 22  1  0
  5 23  1  0
  8 24  1  0
 10 25  1  0
 10 26  1  0
 11 27  1  0
 12 28  1  0
 13 29  1  0
 13 30  1  0
 14 31  1  0
 15 32  1  0
 16 33  1  0
 16 34  1  0
 16 35  1  0
 17 36  1  0
 17 37  1  0
 17 38  1  0
 18 39  1  0
 19 40  1  0
 20 41  1  0
 21 42  1  0
M  END
> <Uni-Dock RESULT> 
ENERGY=   -3.998  LOWER_BOUND=    4.046  UPPER_BOUND=    6.671
INTER + INTRA:          -3.998
INTER:                  -3.998
INTRA:                   0.000
UNBOUND:                 0.000

$$$$

     RDKit          3D

 42 44  0  0  0  0  0  0  0  0999 V2000
   46.3716  -17.0945   -9.9580 C   0  0  0  0  0  0  0  0  0  0  0  0
   45.9623  -17.8053   -8.6278 C   0  0  0  0  0  0  0  0  0  0  0  0
   47.9114  -17.0401  -10.1916 C   0  0  0  0  0  0  0  0  0  0  0  0
   47.1187  -15.8812   -7.3094 C   0  0  0  0  0  0  0  0  0  0  0  0
   48.1164  -15.4858   -8.1145 C   0  0  0  0  0  0  0  0  0  0  0  0
   46.3713  -17.2585   -7.4015 C   0  0  0  0  0  0  0  0  0  0  0  0
   48.7201  -16.3326   -9.2893 C   0  0  0  0  0  0  0  0  0  0  0  0
   45.4548  -16.4958  -10.7315 C   0  0  0  0  0  0  0  0  0  0  0  0
   45.6498  -13.3683  -12.9484 N   0  0  0  0  0  0  0  0  0  0  0  0
   45.7078  -15.6983  -11.9838 C   0  0  0  0  0  0  0  0  0  0  0  0
   48.4921  -17.7784  -11.2277 C   0  0  0  0  0  0  0  0  0  0  0  0
   45.2723  -19.0207   -8.6643 C   0  0  0  0  0  0  0  0  0  0  0  0
   45.3784  -14.2104  -11.7665 C   0  0  0  0  0  0  0  0  0  0  0  0
   50.1091  -16.3518   -9.4507 C   0  0  0  0  0  0  0  0  0  0  0  0
   46.0712  -17.9348   -6.2151 C   0  0  0  0  0  0  0  0  0  0  0  0
   44.7213  -13.6461  -14.0454 C   0  0  0  0  0  0  0  0  0  0  0  0
   45.5688  -11.9524  -12.5797 C   0  0  0  0  0  0  0  0  0  0  0  0
   49.8781  -17.7875  -11.3842 C   0  0  0  0  0  0  0  0  0  0  0  0
   44.9734  -19.6856   -7.4751 C   0  0  0  0  0  0  0  0  0  0  0  0
   45.3733  -19.1443   -6.2530 C   0  0  0  0  0  0  0  0  0  0  0  0
   50.6852  -17.0754  -10.4972 C   0  0  0  0  0  0  0  0  0  0  0  0
   46.7760  -15.1845   -6.5479 H   0  0  0  0  0  0  0  0  0  0  0  0
   48.5285  -14.4908   -7.9622 H   0  0  0  0  0  0  0  0  0  0  0  0
   44.4095  -16.5624  -10.4336 H   0  0  0  0  0  0  0  0  0  0  0  0
   46.7438  -15.7928  -12.3247 H   0  0  0  0  0  0  0  0  0  0  0  0
   45.0782  -16.1240  -12.7728 H   0  0  0  0  0  0  0  0  0  0  0  0
   47.8677  -18.3497  -11.9090 H   0  0  0  0  0  0  0  0  0  0  0  0
   44.9789  -19.4561   -9.6155 H   0  0  0  0  0  0  0  0  0  0  0  0
   44.3335  -14.0975  -11.4465 H   0  0  0  0  0  0  0  0  0  0  0  0
   46.0014  -13.8576  -10.9330 H   0  0  0  0  0  0  0  0  0  0  0  0
   50.7499  -15.8060   -8.7634 H   0  0  0  0  0  0  0  0  0  0  0  0
   46.3786  -17.5256   -5.2564 H   0  0  0  0  0  0  0  0  0  0  0  0
   44.9236  -12.9852  -14.8964 H   0  0  0  0  0  0  0  0  0  0  0  0
   43.6757  -13.5084  -13.7474 H   0  0  0  0  0  0  0  0  0  0  0  0
   44.8448  -14.6658  -14.4224 H   0  0  0  0  0  0  0  0  0  0  0  0
   46.3015  -11.7135  -11.8007 H   0  0  0  0  0  0  0  0  0  0  0  0
   45.8106  -11.3156  -13.4382 H   0  0  0  0  0  0  0  0  0  0  0  0
   44.5728  -11.6766  -12.2143 H   0  0  0  0  0  0  0  0  0  0  0  0
   50.3288  -18.3566  -12.1930 H   0  0  0  0  0  0  0  0  0  0  0  0
   44.4380  -20.6310   -7.5018 H   0  0  0  0  0  0  0  0  0  0  0  0
   45.1448  -19.6667   -5.3275 H   0  0  0  0  0  0  0  0  0  0  0  0
   51.7654  -17.0868  -10.6177 H   0  0  0  0  0  0  0  0  0  0  0  0
  2  1  1  0
  3  1  1  0
  4  6  1  0
  5  7  1  0
  6  2  2  0
  7  3  2  0
  8  1  2  3
  9 13  1  0
 10  8  1  0
 11  3  1  0
 12  2  1  0
 13 10  1  0
 14  7  1  0
 15  6  1  0
 16  9  1  0
 17  9  1  0
 18 11  2  0
 19 12  2  0
 20 19  1  0
 21 18  1  0
  5  4  2  0
 21 14  2  0
 20 15  2  0
  4 22  1  0
  5 23  1  0
  8 24  1  0
 10 25  1  0
 10 26  1  0
 11 27  1  0
 12 28  1  0
 13 29  1  0
 13 30  1  0
 14 31  1  0
 15 32  1  0
 16 33  1  0
 16 34  1  0
 16 35  1  0
 17 36  1  0
 17 37  1  0
 17 38  1  0
 18 39  1  0
 19 40  1  0
 20 41  1  0
 21 42  1  0
M  END
> <Uni-Dock RESULT> 
ENERGY=   -3.962  LOWER_BOUND=    3.845  UPPER_BOUND=    5.483
INTER + INTRA:          -3.962
INTER:                  -3.962
INTRA:                   0.000
UNBOUND:                 0.000

$$$$
