
     RDKit          3D

 42 44  0  0  0  0  0  0  0  0999 V2000
   50.2652  -17.0852   -7.8639 C   0  0  0  0  0  0  0  0  0  0  0  0
   48.7751  -17.0792   -7.4067 C   0  0  0  0  0  0  0  0  0  0  0  0
   51.2559  -16.5426   -6.7850 C   0  0  0  0  0  0  0  0  0  0  0  0
   48.8645  -14.4792   -7.3461 C   0  0  0  0  0  0  0  0  0  0  0  0
   50.1362  -14.2038   -7.0194 C   0  0  0  0  0  0  0  0  0  0  0  0
   48.1498  -15.8570   -7.1168 C   0  0  0  0  0  0  0  0  0  0  0  0
   51.1418  -15.2108   -6.3563 C   0  0  0  0  0  0  0  0  0  0  0  0
   50.6858  -17.3862   -9.1010 C   0  0  0  0  0  0  0  0  0  0  0  0
   48.9313  -16.9769  -12.5208 N   0  0  0  0  0  0  0  0  0  0  0  0
   49.8289  -17.8133  -10.2628 C   0  0  0  0  0  0  0  0  0  0  0  0
   52.1869  -17.3994   -6.1906 C   0  0  0  0  0  0  0  0  0  0  0  0
   48.1009  -18.2847   -7.1882 C   0  0  0  0  0  0  0  0  0  0  0  0
   49.7561  -16.7060  -11.3312 C   0  0  0  0  0  0  0  0  0  0  0  0
   51.9769  -14.7454   -5.3362 C   0  0  0  0  0  0  0  0  0  0  0  0
   46.8377  -15.8548   -6.6336 C   0  0  0  0  0  0  0  0  0  0  0  0
   47.5125  -17.1063  -12.1991 C   0  0  0  0  0  0  0  0  0  0  0  0
   49.4029  -18.1255  -13.2876 C   0  0  0  0  0  0  0  0  0  0  0  0
   53.0187  -16.9242   -5.1767 C   0  0  0  0  0  0  0  0  0  0  0  0
   46.7905  -18.2726   -6.7106 C   0  0  0  0  0  0  0  0  0  0  0  0
   46.1598  -17.0597   -6.4344 C   0  0  0  0  0  0  0  0  0  0  0  0
   52.9129  -15.6004   -4.7493 C   0  0  0  0  0  0  0  0  0  0  0  0
   48.2843  -13.6971   -7.8308 H   0  0  0  0  0  0  0  0  0  0  0  0
   50.5172  -13.2133   -7.2582 H   0  0  0  0  0  0  0  0  0  0  0  0
   51.7483  -17.2943   -9.3208 H   0  0  0  0  0  0  0  0  0  0  0  0
   48.8224  -18.0828   -9.9321 H   0  0  0  0  0  0  0  0  0  0  0  0
   50.2717  -18.7226  -10.6851 H   0  0  0  0  0  0  0  0  0  0  0  0
   52.2575  -18.4366   -6.5062 H   0  0  0  0  0  0  0  0  0  0  0  0
   48.5969  -19.2318   -7.3820 H   0  0  0  0  0  0  0  0  0  0  0  0
   49.3932  -15.7792  -10.8658 H   0  0  0  0  0  0  0  0  0  0  0  0
   50.7739  -16.4699  -11.6705 H   0  0  0  0  0  0  0  0  0  0  0  0
   51.9045  -13.7167   -4.9930 H   0  0  0  0  0  0  0  0  0  0  0  0
   46.3374  -14.9170   -6.4066 H   0  0  0  0  0  0  0  0  0  0  0  0
   46.9182  -17.1489  -13.1189 H   0  0  0  0  0  0  0  0  0  0  0  0
   47.2913  -18.0055  -11.6144 H   0  0  0  0  0  0  0  0  0  0  0  0
   47.1590  -16.2332  -11.6397 H   0  0  0  0  0  0  0  0  0  0  0  0
   49.2701  -19.0728  -12.7541 H   0  0  0  0  0  0  0  0  0  0  0  0
   48.8612  -18.1957  -14.2377 H   0  0  0  0  0  0  0  0  0  0  0  0
   50.4632  -18.0150  -13.5403 H   0  0  0  0  0  0  0  0  0  0  0  0
   53.7429  -17.5888   -4.7129 H   0  0  0  0  0  0  0  0  0  0  0  0
   46.2651  -19.2091   -6.5434 H   0  0  0  0  0  0  0  0  0  0  0  0
   45.1409  -17.0515   -6.0560 H   0  0  0  0  0  0  0  0  0  0  0  0
   53.5582  -15.2333   -3.9554 H   0  0  0  0  0  0  0  0  0  0  0  0
  2  1  1  0
  3  1  1  0
  4  6  1  0
  5  7  1  0
  6  2  2  0
  7  3  2  0
  8  1  2  3
  9 13  1  0
 10  8  1  0
 11  3  1  0
 12  2  1  0
 13 10  1  0
 14  7  1  0
 15  6  1  0
 16  9  1  0
 17  9  1  0
 18 11  2  0
 19 12  2  0
 20 19  1  0
 21 18  1  0
  5  4  2  0
 21 14  2  0
 20 15  2  0
  4 22  1  0
  5 23  1  0
  8 24  1  0
 10 25  1  0
 10 26  1  0
 11 27  1  0
 12 28  1  0
 13 29  1  0
 13 30  1  0
 14 31  1  0
 15 32  1  0
 16 33  1  0
 16 34  1  0
 16 35  1  0
 17 36  1  0
 17 37  1  0
 17 38  1  0
 18 39  1  0
 19 40  1  0
 20 41  1  0
 21 42  1  0
M  END
> <Uni-Dock RESULT> 
ENERGY=   -6.237  LOWER_BOUND=    0.000  UPPER_BOUND=    0.000
INTER + INTRA:          -6.237
INTER:                  -6.237
INTRA:                   0.000
UNBOUND:                 0.000

$$$$

     RDKit          3D

 42 44  0  0  0  0  0  0  0  0999 V2000
   50.2664  -17.0923   -7.8683 C   0  0  0  0  0  0  0  0  0  0  0  0
   48.7761  -17.0836   -7.4119 C   0  0  0  0  0  0  0  0  0  0  0  0
   51.2579  -16.5553   -6.7875 C   0  0  0  0  0  0  0  0  0  0  0  0
   48.8723  -14.4840   -7.3441 C   0  0  0  0  0  0  0  0  0  0  0  0
   50.1446  -14.2129   -7.0160 C   0  0  0  0  0  0  0  0  0  0  0  0
   48.1539  -15.8606   -7.1189 C   0  0  0  0  0  0  0  0  0  0  0  0
   51.1472  -15.2244   -6.3552 C   0  0  0  0  0  0  0  0  0  0  0  0
   50.6868  -17.3909   -9.1060 C   0  0  0  0  0  0  0  0  0  0  0  0
   48.9352  -16.9676  -12.5257 N   0  0  0  0  0  0  0  0  0  0  0  0
   49.8293  -17.8126  -10.2695 C   0  0  0  0  0  0  0  0  0  0  0  0
   52.1864  -17.4162   -6.1950 C   0  0  0  0  0  0  0  0  0  0  0  0
   48.0986  -18.2879   -7.1971 C   0  0  0  0  0  0  0  0  0  0  0  0
   49.7600  -16.7021  -11.3349 C   0  0  0  0  0  0  0  0  0  0  0  0
   51.9830  -14.7640   -5.3334 C   0  0  0  0  0  0  0  0  0  0  0  0
   46.8415  -15.8561   -6.6364 C   0  0  0  0  0  0  0  0  0  0  0  0
   47.5158  -17.0942  -12.2050 C   0  0  0  0  0  0  0  0  0  0  0  0
   49.4041  -18.1153  -13.2953 C   0  0  0  0  0  0  0  0  0  0  0  0
   53.0190  -16.9460   -5.1794 C   0  0  0  0  0  0  0  0  0  0  0  0
   46.7880  -18.2736   -6.7201 C   0  0  0  0  0  0  0  0  0  0  0  0
   46.1603  -17.0598   -6.4408 C   0  0  0  0  0  0  0  0  0  0  0  0
   52.9164  -15.6230   -4.7484 C   0  0  0  0  0  0  0  0  0  0  0  0
   48.2945  -13.6990   -7.8269 H   0  0  0  0  0  0  0  0  0  0  0  0
   50.5284  -13.2228   -7.2519 H   0  0  0  0  0  0  0  0  0  0  0  0
   51.7497  -17.3012   -9.3251 H   0  0  0  0  0  0  0  0  0  0  0  0
   48.8220  -18.0804   -9.9400 H   0  0  0  0  0  0  0  0  0  0  0  0
   50.2700  -18.7219  -10.6941 H   0  0  0  0  0  0  0  0  0  0  0  0
   52.2544  -18.4526   -6.5134 H   0  0  0  0  0  0  0  0  0  0  0  0
   48.5922  -19.2358   -7.3932 H   0  0  0  0  0  0  0  0  0  0  0  0
   49.3993  -15.7757  -10.8671 H   0  0  0  0  0  0  0  0  0  0  0  0
   50.7787  -16.4678  -11.6730 H   0  0  0  0  0  0  0  0  0  0  0  0
   51.9131  -13.7361   -4.9874 H   0  0  0  0  0  0  0  0  0  0  0  0
   46.3436  -14.9177   -6.4071 H   0  0  0  0  0  0  0  0  0  0  0  0
   46.9219  -17.1326  -13.1252 H   0  0  0  0  0  0  0  0  0  0  0  0
   47.2920  -17.9944  -11.6229 H   0  0  0  0  0  0  0  0  0  0  0  0
   47.1644  -16.2216  -11.6434 H   0  0  0  0  0  0  0  0  0  0  0  0
   49.2685  -19.0638  -12.7646 H   0  0  0  0  0  0  0  0  0  0  0  0
   48.8627  -18.1815  -14.2459 H   0  0  0  0  0  0  0  0  0  0  0  0
   50.4647  -18.0069  -13.5472 H   0  0  0  0  0  0  0  0  0  0  0  0
   53.7411  -17.6137   -4.7170 H   0  0  0  0  0  0  0  0  0  0  0  0
   46.2600  -19.2092   -6.5558 H   0  0  0  0  0  0  0  0  0  0  0  0
   45.1412  -17.0499   -6.0629 H   0  0  0  0  0  0  0  0  0  0  0  0
   53.5623  -15.2599   -3.9531 H   0  0  0  0  0  0  0  0  0  0  0  0
  2  1  1  0
  3  1  1  0
  4  6  1  0
  5  7  1  0
  6  2  2  0
  7  3  2  0
  8  1  2  3
  9 13  1  0
 10  8  1  0
 11  3  1  0
 12  2  1  0
 13 10  1  0
 14  7  1  0
 15  6  1  0
 16  9  1  0
 17  9  1  0
 18 11  2  0
 19 12  2  0
 20 19  1  0
 21 18  1  0
  5  4  2  0
 21 14  2  0
 20 15  2  0
  4 22  1  0
  5 23  1  0
  8 24  1  0
 10 25  1  0
 10 26  1  0
 11 27  1  0
 12 28  1  0
 13 29  1  0
 13 30  1  0
 14 31  1  0
 15 32  1  0
 16 33  1  0
 16 34  1  0
 16 35  1  0
 17 36  1  0
 17 37  1  0
 17 38  1  0
 18 39  1  0
 19 40  1  0
 20 41  1  0
 21 42  1  0
M  END
> <Uni-Dock RESULT> 
ENERGY=   -6.234  LOWER_BOUND=    0.013  UPPER_BOUND=    0.013
INTER + INTRA:          -6.234
INTER:                  -6.234
INTRA:                   0.000
UNBOUND:                 0.000

$$$$

     RDKit          3D

 42 44  0  0  0  0  0  0  0  0999 V2000
   50.2690  -17.0913   -7.8662 C   0  0  0  0  0  0  0  0  0  0  0  0
   48.7787  -17.0827   -7.4099 C   0  0  0  0  0  0  0  0  0  0  0  0
   51.2602  -16.5525   -6.7859 C   0  0  0  0  0  0  0  0  0  0  0  0
   48.8737  -14.4830   -7.3452 C   0  0  0  0  0  0  0  0  0  0  0  0
   50.1458  -14.2109   -7.0175 C   0  0  0  0  0  0  0  0  0  0  0  0
   48.1559  -15.8596   -7.1184 C   0  0  0  0  0  0  0  0  0  0  0  0
   51.1489  -15.2211   -6.3553 C   0  0  0  0  0  0  0  0  0  0  0  0
   50.6896  -17.3913   -9.1035 C   0  0  0  0  0  0  0  0  0  0  0  0
   48.9380  -16.9730  -12.5238 N   0  0  0  0  0  0  0  0  0  0  0  0
   49.8324  -17.8148  -10.2665 C   0  0  0  0  0  0  0  0  0  0  0  0
   52.1891  -17.4122   -6.1924 C   0  0  0  0  0  0  0  0  0  0  0  0
   48.1017  -18.2871   -7.1936 C   0  0  0  0  0  0  0  0  0  0  0  0
   49.7627  -16.7057  -11.3333 C   0  0  0  0  0  0  0  0  0  0  0  0
   51.9844  -14.7591   -5.3340 C   0  0  0  0  0  0  0  0  0  0  0  0
   46.8435  -15.8552   -6.6360 C   0  0  0  0  0  0  0  0  0  0  0  0
   47.5187  -17.0998  -12.2030 C   0  0  0  0  0  0  0  0  0  0  0  0
   49.4075  -18.1214  -13.2920 C   0  0  0  0  0  0  0  0  0  0  0  0
   53.0214  -16.9404   -5.1773 C   0  0  0  0  0  0  0  0  0  0  0  0
   46.7911  -18.2728   -6.7167 C   0  0  0  0  0  0  0  0  0  0  0  0
   46.1629  -17.0589   -6.4390 C   0  0  0  0  0  0  0  0  0  0  0  0
   52.9182  -15.6170   -4.7479 C   0  0  0  0  0  0  0  0  0  0  0  0
   48.2955  -13.6989   -7.8291 H   0  0  0  0  0  0  0  0  0  0  0  0
   50.5292  -13.2209   -7.2545 H   0  0  0  0  0  0  0  0  0  0  0  0
   51.7525  -17.3014   -9.3226 H   0  0  0  0  0  0  0  0  0  0  0  0
   48.8252  -18.0826   -9.9367 H   0  0  0  0  0  0  0  0  0  0  0  0
   50.2735  -18.7244  -10.6899 H   0  0  0  0  0  0  0  0  0  0  0  0
   52.2576  -18.4490   -6.5095 H   0  0  0  0  0  0  0  0  0  0  0  0
   48.5958  -19.2349   -7.3885 H   0  0  0  0  0  0  0  0  0  0  0  0
   49.4015  -15.7788  -10.8667 H   0  0  0  0  0  0  0  0  0  0  0  0
   50.7812  -16.4713  -11.6716 H   0  0  0  0  0  0  0  0  0  0  0  0
   51.9141  -13.7308   -4.9893 H   0  0  0  0  0  0  0  0  0  0  0  0
   46.3452  -14.9167   -6.4079 H   0  0  0  0  0  0  0  0  0  0  0  0
   46.9248  -17.1397  -13.1231 H   0  0  0  0  0  0  0  0  0  0  0  0
   47.2952  -17.9994  -11.6198 H   0  0  0  0  0  0  0  0  0  0  0  0
   47.1668  -16.2267  -11.6425 H   0  0  0  0  0  0  0  0  0  0  0  0
   49.2723  -19.0693  -12.7600 H   0  0  0  0  0  0  0  0  0  0  0  0
   48.8662  -18.1890  -14.2425 H   0  0  0  0  0  0  0  0  0  0  0  0
   50.4681  -18.0128  -13.5439 H   0  0  0  0  0  0  0  0  0  0  0  0
   53.7438  -17.6072   -4.7141 H   0  0  0  0  0  0  0  0  0  0  0  0
   46.2636  -19.2085   -6.5512 H   0  0  0  0  0  0  0  0  0  0  0  0
   45.1438  -17.0491   -6.0611 H   0  0  0  0  0  0  0  0  0  0  0  0
   53.5639  -15.2525   -3.9531 H   0  0  0  0  0  0  0  0  0  0  0  0
  2  1  1  0
  3  1  1  0
  4  6  1  0
  5  7  1  0
  6  2  2  0
  7  3  2  0
  8  1  2  3
  9 13  1  0
 10  8  1  0
 11  3  1  0
 12  2  1  0
 13 10  1  0
 14  7  1  0
 15  6  1  0
 16  9  1  0
 17  9  1  0
 18 11  2  0
 19 12  2  0
 20 19  1  0
 21 18  1  0
  5  4  2  0
 21 14  2  0
 20 15  2  0
  4 22  1  0
  5 23  1  0
  8 24  1  0
 10 25  1  0
 10 26  1  0
 11 27  1  0
 12 28  1  0
 13 29  1  0
 13 30  1  0
 14 31  1  0
 15 32  1  0
 16 33  1  0
 16 34  1  0
 16 35  1  0
 17 36  1  0
 17 37  1  0
 17 38  1  0
 18 39  1  0
 19 40  1  0
 20 41  1  0
 21 42  1  0
M  END
> <Uni-Dock RESULT> 
ENERGY=   -6.233  LOWER_BOUND=    0.010  UPPER_BOUND=    0.010
INTER + INTRA:          -6.233
INTER:                  -6.233
INTRA:                   0.000
UNBOUND:                 0.000

$$$$

     RDKit          3D

 42 44  0  0  0  0  0  0  0  0999 V2000
   50.4475  -17.3856   -7.5754 C   0  0  0  0  0  0  0  0  0  0  0  0
   51.2414  -17.7171   -6.2757 C   0  0  0  0  0  0  0  0  0  0  0  0
   48.9440  -17.0450   -7.3239 C   0  0  0  0  0  0  0  0  0  0  0  0
   49.7677  -19.8423   -5.9866 C   0  0  0  0  0  0  0  0  0  0  0  0
   48.5858  -19.4947   -6.5179 C   0  0  0  0  0  0  0  0  0  0  0  0
   50.8775  -18.8385   -5.5149 C   0  0  0  0  0  0  0  0  0  0  0  0
   48.1019  -18.0228   -6.7712 C   0  0  0  0  0  0  0  0  0  0  0  0
   50.9315  -17.5047   -8.8201 C   0  0  0  0  0  0  0  0  0  0  0  0
   53.6135  -19.8892  -10.2562 N   0  0  0  0  0  0  0  0  0  0  0  0
   52.3229  -17.9304   -9.2068 C   0  0  0  0  0  0  0  0  0  0  0  0
   48.4654  -15.7538   -7.5645 C   0  0  0  0  0  0  0  0  0  0  0  0
   52.2372  -16.8485   -5.8181 C   0  0  0  0  0  0  0  0  0  0  0  0
   52.3135  -19.3321   -9.8458 C   0  0  0  0  0  0  0  0  0  0  0  0
   46.7754  -17.6960   -6.4740 C   0  0  0  0  0  0  0  0  0  0  0  0
   51.5383  -19.0942   -4.3094 C   0  0  0  0  0  0  0  0  0  0  0  0
   54.4975  -20.1391   -9.1206 C   0  0  0  0  0  0  0  0  0  0  0  0
   54.2801  -19.0826  -11.2732 C   0  0  0  0  0  0  0  0  0  0  0  0
   47.1391  -15.4390   -7.2689 C   0  0  0  0  0  0  0  0  0  0  0  0
   52.8943  -17.1141   -4.6168 C   0  0  0  0  0  0  0  0  0  0  0  0
   52.5458  -18.2354   -3.8641 C   0  0  0  0  0  0  0  0  0  0  0  0
   46.2962  -16.4078   -6.7233 C   0  0  0  0  0  0  0  0  0  0  0  0
   49.9905  -20.9030   -5.8951 H   0  0  0  0  0  0  0  0  0  0  0  0
   47.9158  -20.2933   -6.8286 H   0  0  0  0  0  0  0  0  0  0  0  0
   50.2617  -17.3046   -9.6550 H   0  0  0  0  0  0  0  0  0  0  0  0
   52.9937  -17.9156   -8.3438 H   0  0  0  0  0  0  0  0  0  0  0  0
   52.7113  -17.1903   -9.9157 H   0  0  0  0  0  0  0  0  0  0  0  0
   49.1247  -14.9911   -7.9694 H   0  0  0  0  0  0  0  0  0  0  0  0
   52.4960  -15.9625   -6.3914 H   0  0  0  0  0  0  0  0  0  0  0  0
   51.8395  -20.0410   -9.1531 H   0  0  0  0  0  0  0  0  0  0  0  0
   51.6569  -19.3185  -10.7265 H   0  0  0  0  0  0  0  0  0  0  0  0
   46.1082  -18.4407   -6.0479 H   0  0  0  0  0  0  0  0  0  0  0  0
   51.2709  -19.9599   -3.7092 H   0  0  0  0  0  0  0  0  0  0  0  0
   55.3841  -20.6948   -9.4463 H   0  0  0  0  0  0  0  0  0  0  0  0
   54.8379  -19.2167   -8.6382 H   0  0  0  0  0  0  0  0  0  0  0  0
   53.9990  -20.7604   -8.3685 H   0  0  0  0  0  0  0  0  0  0  0  0
   54.6107  -18.1105  -10.8917 H   0  0  0  0  0  0  0  0  0  0  0  0
   55.1603  -19.6096  -11.6588 H   0  0  0  0  0  0  0  0  0  0  0  0
   53.6182  -18.9126  -12.1295 H   0  0  0  0  0  0  0  0  0  0  0  0
   46.7651  -14.4357   -7.4548 H   0  0  0  0  0  0  0  0  0  0  0  0
   53.6703  -16.4409   -4.2623 H   0  0  0  0  0  0  0  0  0  0  0  0
   53.0539  -18.4380   -2.9248 H   0  0  0  0  0  0  0  0  0  0  0  0
   45.2644  -16.1592   -6.4886 H   0  0  0  0  0  0  0  0  0  0  0  0
  2  1  1  0
  3  1  1  0
  4  6  1  0
  5  7  1  0
  6  2  2  0
  7  3  2  0
  8  1  2  3
  9 13  1  0
 10  8  1  0
 11  3  1  0
 12  2  1  0
 13 10  1  0
 14  7  1  0
 15  6  1  0
 16  9  1  0
 17  9  1  0
 18 11  2  0
 19 12  2  0
 20 19  1  0
 21 18  1  0
  5  4  2  0
 21 14  2  0
 20 15  2  0
  4 22  1  0
  5 23  1  0
  8 24  1  0
 10 25  1  0
 10 26  1  0
 11 27  1  0
 12 28  1  0
 13 29  1  0
 13 30  1  0
 14 31  1  0
 15 32  1  0
 16 33  1  0
 16 34  1  0
 16 35  1  0
 17 36  1  0
 17 37  1  0
 17 38  1  0
 18 39  1  0
 19 40  1  0
 20 41  1  0
 21 42  1  0
M  END
> <Uni-Dock RESULT> 
ENERGY=   -5.045  LOWER_BOUND=    2.348  UPPER_BOUND=    5.177
INTER + INTRA:          -5.045
INTER:                  -5.045
INTRA:                   0.000
UNBOUND:                 0.000

$$$$

     RDKit          3D

 42 44  0  0  0  0  0  0  0  0999 V2000
   48.2673  -17.5939   -8.1617 C   0  0  0  0  0  0  0  0  0  0  0  0
   49.2643  -16.5462   -7.5805 C   0  0  0  0  0  0  0  0  0  0  0  0
   47.5954  -18.4924   -7.0750 C   0  0  0  0  0  0  0  0  0  0  0  0
   50.7931  -18.5092   -6.8183 C   0  0  0  0  0  0  0  0  0  0  0  0
   49.9357  -19.5060   -6.5515 C   0  0  0  0  0  0  0  0  0  0  0  0
   50.4134  -16.9895   -6.9084 C   0  0  0  0  0  0  0  0  0  0  0  0
   48.3973  -19.3346   -6.2888 C   0  0  0  0  0  0  0  0  0  0  0  0
   48.0793  -17.8299   -9.4681 C   0  0  0  0  0  0  0  0  0  0  0  0
   50.4977  -17.4652  -12.4614 N   0  0  0  0  0  0  0  0  0  0  0  0
   48.7443  -17.1169  -10.6153 C   0  0  0  0  0  0  0  0  0  0  0  0
   46.2228  -18.3921   -6.8298 C   0  0  0  0  0  0  0  0  0  0  0  0
   48.9640  -15.1816   -7.6375 C   0  0  0  0  0  0  0  0  0  0  0  0
   49.7530  -18.0381  -11.3273 C   0  0  0  0  0  0  0  0  0  0  0  0
   47.8079  -20.0819   -5.2647 C   0  0  0  0  0  0  0  0  0  0  0  0
   51.2691  -16.0530   -6.3203 C   0  0  0  0  0  0  0  0  0  0  0  0
   51.3918  -16.3846  -12.0537 C   0  0  0  0  0  0  0  0  0  0  0  0
   49.6284  -17.0433  -13.5549 C   0  0  0  0  0  0  0  0  0  0  0  0
   45.6434  -19.1453   -5.8086 C   0  0  0  0  0  0  0  0  0  0  0  0
   49.8259  -14.2542   -7.0522 C   0  0  0  0  0  0  0  0  0  0  0  0
   50.9768  -14.6892   -6.3953 C   0  0  0  0  0  0  0  0  0  0  0  0
   46.4347  -19.9873   -5.0267 C   0  0  0  0  0  0  0  0  0  0  0  0
   51.8308  -18.7709   -7.0125 H   0  0  0  0  0  0  0  0  0  0  0  0
   50.3259  -20.5214   -6.5448 H   0  0  0  0  0  0  0  0  0  0  0  0
   47.4014  -18.6324   -9.7547 H   0  0  0  0  0  0  0  0  0  0  0  0
   49.2426  -16.2048  -10.2768 H   0  0  0  0  0  0  0  0  0  0  0  0
   47.9579  -16.8021  -11.3109 H   0  0  0  0  0  0  0  0  0  0  0  0
   45.6072  -17.7215   -7.4228 H   0  0  0  0  0  0  0  0  0  0  0  0
   48.0572  -14.8411   -8.1299 H   0  0  0  0  0  0  0  0  0  0  0  0
   50.4799  -18.4123  -10.5933 H   0  0  0  0  0  0  0  0  0  0  0  0
   49.2276  -18.9344  -11.6844 H   0  0  0  0  0  0  0  0  0  0  0  0
   48.4126  -20.7410   -4.6473 H   0  0  0  0  0  0  0  0  0  0  0  0
   52.1649  -16.3790   -5.7984 H   0  0  0  0  0  0  0  0  0  0  0  0
   52.0388  -16.0932  -12.8889 H   0  0  0  0  0  0  0  0  0  0  0  0
   50.8523  -15.4921  -11.7196 H   0  0  0  0  0  0  0  0  0  0  0  0
   52.0548  -16.7121  -11.2453 H   0  0  0  0  0  0  0  0  0  0  0  0
   49.0062  -16.1813  -13.2914 H   0  0  0  0  0  0  0  0  0  0  0  0
   50.2268  -16.7708  -14.4318 H   0  0  0  0  0  0  0  0  0  0  0  0
   48.9720  -17.8628  -13.8675 H   0  0  0  0  0  0  0  0  0  0  0  0
   44.5766  -19.0684   -5.6160 H   0  0  0  0  0  0  0  0  0  0  0  0
   49.5945  -13.1934   -7.0989 H   0  0  0  0  0  0  0  0  0  0  0  0
   51.6444  -13.9662   -5.9338 H   0  0  0  0  0  0  0  0  0  0  0  0
   45.9825  -20.5694   -4.2278 H   0  0  0  0  0  0  0  0  0  0  0  0
  2  1  1  0
  3  1  1  0
  4  6  1  0
  5  7  1  0
  6  2  2  0
  7  3  2  0
  8  1  2  3
  9 13  1  0
 10  8  1  0
 11  3  1  0
 12  2  1  0
 13 10  1  0
 14  7  1  0
 15  6  1  0
 16  9  1  0
 17  9  1  0
 18 11  2  0
 19 12  2  0
 20 19  1  0
 21 18  1  0
  5  4  2  0
 21 14  2  0
 20 15  2  0
  4 22  1  0
  5 23  1  0
  8 24  1  0
 10 25  1  0
 10 26  1  0
 11 27  1  0
 12 28  1  0
 13 29  1  0
 13 30  1  0
 14 31  1  0
 15 32  1  0
 16 33  1  0
 16 34  1  0
 16 35  1  0
 17 36  1  0
 17 37  1  0
 17 38  1  0
 18 39  1  0
 19 40  1  0
 20 41  1  0
 21 42  1  0
M  END
> <Uni-Dock RESULT> 
ENERGY=   -4.810  LOWER_BOUND=    1.454  UPPER_BOUND=    4.475
INTER + INTRA:          -4.810
INTER:                  -4.810
INTRA:                   0.000
UNBOUND:                 0.000

$$$$

     RDKit          3D

 42 44  0  0  0  0  0  0  0  0999 V2000
   49.7794  -17.5953   -7.6831 C   0  0  0  0  0  0  0  0  0  0  0  0
   50.8780  -17.2257   -6.6410 C   0  0  0  0  0  0  0  0  0  0  0  0
   48.4566  -18.1230   -7.0417 C   0  0  0  0  0  0  0  0  0  0  0  0
   51.0173  -19.7395   -5.9825 C   0  0  0  0  0  0  0  0  0  0  0  0
   49.7723  -20.1983   -6.1810 C   0  0  0  0  0  0  0  0  0  0  0  0
   51.4087  -18.2292   -5.8163 C   0  0  0  0  0  0  0  0  0  0  0  0
   48.4834  -19.3086   -6.2906 C   0  0  0  0  0  0  0  0  0  0  0  0
   49.9573  -17.6074   -9.0121 C   0  0  0  0  0  0  0  0  0  0  0  0
   53.1327  -18.2612  -11.1169 N   0  0  0  0  0  0  0  0  0  0  0  0
   51.2120  -17.2321   -9.7547 C   0  0  0  0  0  0  0  0  0  0  0  0
   47.2795  -17.3756   -7.1414 C   0  0  0  0  0  0  0  0  0  0  0  0
   51.2552  -15.8915   -6.4589 C   0  0  0  0  0  0  0  0  0  0  0  0
   51.8786  -18.4746  -10.3750 C   0  0  0  0  0  0  0  0  0  0  0  0
   47.3174  -19.7415   -5.6519 C   0  0  0  0  0  0  0  0  0  0  0  0
   52.3383  -17.8866   -4.8295 C   0  0  0  0  0  0  0  0  0  0  0  0
   54.2188  -17.7991  -10.2565 C   0  0  0  0  0  0  0  0  0  0  0  0
   52.9663  -17.3828  -12.2702 C   0  0  0  0  0  0  0  0  0  0  0  0
   46.1203  -17.8184   -6.5043 C   0  0  0  0  0  0  0  0  0  0  0  0
   52.1867  -15.5597   -5.4752 C   0  0  0  0  0  0  0  0  0  0  0  0
   52.7277  -16.5556   -4.6624 C   0  0  0  0  0  0  0  0  0  0  0  0
   46.1397  -18.9982   -5.7598 C   0  0  0  0  0  0  0  0  0  0  0  0
   51.8275  -20.4648   -5.9581 H   0  0  0  0  0  0  0  0  0  0  0  0
   49.6421  -21.2709   -6.3072 H   0  0  0  0  0  0  0  0  0  0  0  0
   49.1336  -17.9448   -9.6393 H   0  0  0  0  0  0  0  0  0  0  0  0
   51.9179  -16.7148   -9.0996 H   0  0  0  0  0  0  0  0  0  0  0  0
   50.9330  -16.5177  -10.5377 H   0  0  0  0  0  0  0  0  0  0  0  0
   47.2663  -16.4454   -7.7026 H   0  0  0  0  0  0  0  0  0  0  0  0
   50.8195  -15.1107   -7.0761 H   0  0  0  0  0  0  0  0  0  0  0  0
   52.0688  -19.2140   -9.5849 H   0  0  0  0  0  0  0  0  0  0  0  0
   51.1635  -18.9635  -11.0507 H   0  0  0  0  0  0  0  0  0  0  0  0
   47.3186  -20.6582   -5.0680 H   0  0  0  0  0  0  0  0  0  0  0  0
   52.7614  -18.6516   -4.1840 H   0  0  0  0  0  0  0  0  0  0  0  0
   55.1662  -17.8036  -10.8074 H   0  0  0  0  0  0  0  0  0  0  0  0
   54.0560  -16.7849   -9.8769 H   0  0  0  0  0  0  0  0  0  0  0  0
   54.3519  -18.4721   -9.4023 H   0  0  0  0  0  0  0  0  0  0  0  0
   52.7450  -16.3487  -11.9851 H   0  0  0  0  0  0  0  0  0  0  0  0
   53.8789  -17.3764  -12.8771 H   0  0  0  0  0  0  0  0  0  0  0  0
   52.1617  -17.7436  -12.9203 H   0  0  0  0  0  0  0  0  0  0  0  0
   45.2043  -17.2386   -6.5800 H   0  0  0  0  0  0  0  0  0  0  0  0
   52.4824  -14.5233   -5.3353 H   0  0  0  0  0  0  0  0  0  0  0  0
   53.4487  -16.2952   -3.8917 H   0  0  0  0  0  0  0  0  0  0  0  0
   45.2368  -19.3390   -5.2595 H   0  0  0  0  0  0  0  0  0  0  0  0
  2  1  1  0
  3  1  1  0
  4  6  1  0
  5  7  1  0
  6  2  2  0
  7  3  2  0
  8  1  2  3
  9 13  1  0
 10  8  1  0
 11  3  1  0
 12  2  1  0
 13 10  1  0
 14  7  1  0
 15  6  1  0
 16  9  1  0
 17  9  1  0
 18 11  2  0
 19 12  2  0
 20 19  1  0
 21 18  1  0
  5  4  2  0
 21 14  2  0
 20 15  2  0
  4 22  1  0
  5 23  1  0
  8 24  1  0
 10 25  1  0
 10 26  1  0
 11 27  1  0
 12 28  1  0
 13 29  1  0
 13 30  1  0
 14 31  1  0
 15 32  1  0
 16 33  1  0
 16 34  1  0
 16 35  1  0
 17 36  1  0
 17 37  1  0
 17 38  1  0
 18 39  1  0
 19 40  1  0
 20 41  1  0
 21 42  1  0
M  END
> <Uni-Dock RESULT> 
ENERGY=   -4.779  LOWER_BOUND=    2.020  UPPER_BOUND=    5.089
INTER + INTRA:          -4.779
INTER:                  -4.779
INTRA:                   0.000
UNBOUND:                 0.000

$$$$

     RDKit          3D

 42 44  0  0  0  0  0  0  0  0999 V2000
   47.1899  -15.9660  -10.6608 C   0  0  0  0  0  0  0  0  0  0  0  0
   46.9283  -16.2957   -9.1600 C   0  0  0  0  0  0  0  0  0  0  0  0
   45.9004  -15.5814  -11.4538 C   0  0  0  0  0  0  0  0  0  0  0  0
   45.5592  -18.3758   -9.9155 C   0  0  0  0  0  0  0  0  0  0  0  0
   45.0253  -18.0063  -11.0895 C   0  0  0  0  0  0  0  0  0  0  0  0
   46.1202  -17.3937   -8.8280 C   0  0  0  0  0  0  0  0  0  0  0  0
   44.8718  -16.5267  -11.5917 C   0  0  0  0  0  0  0  0  0  0  0  0
   48.3666  -16.1196  -11.2850 C   0  0  0  0  0  0  0  0  0  0  0  0
   51.2574  -18.5990  -10.6239 N   0  0  0  0  0  0  0  0  0  0  0  0
   49.6572  -16.5887  -10.6679 C   0  0  0  0  0  0  0  0  0  0  0  0
   45.7371  -14.2823  -11.9437 C   0  0  0  0  0  0  0  0  0  0  0  0
   47.4082  -15.4459   -8.1585 C   0  0  0  0  0  0  0  0  0  0  0  0
   50.0244  -18.0005  -11.1628 C   0  0  0  0  0  0  0  0  0  0  0  0
   43.6857  -16.1598  -12.2344 C   0  0  0  0  0  0  0  0  0  0  0  0
   45.8221  -17.6457   -7.4853 C   0  0  0  0  0  0  0  0  0  0  0  0
   51.1739  -18.8523   -9.1879 C   0  0  0  0  0  0  0  0  0  0  0  0
   52.4520  -17.8281  -10.9527 C   0  0  0  0  0  0  0  0  0  0  0  0
   44.5517  -13.9274  -12.5876 C   0  0  0  0  0  0  0  0  0  0  0  0
   47.1097  -15.7079   -6.8214 C   0  0  0  0  0  0  0  0  0  0  0  0
   46.3185  -16.8062   -6.4854 C   0  0  0  0  0  0  0  0  0  0  0  0
   43.5275  -14.8638  -12.7312 C   0  0  0  0  0  0  0  0  0  0  0  0
   45.6342  -19.4402   -9.7048 H   0  0  0  0  0  0  0  0  0  0  0  0
   44.6974  -18.7921  -11.7664 H   0  0  0  0  0  0  0  0  0  0  0  0
   48.4135  -15.9164  -12.3538 H   0  0  0  0  0  0  0  0  0  0  0  0
   49.5994  -16.5766   -9.5763 H   0  0  0  0  0  0  0  0  0  0  0  0
   50.4380  -15.8716  -10.9462 H   0  0  0  0  0  0  0  0  0  0  0  0
   46.5241  -13.5446  -11.8148 H   0  0  0  0  0  0  0  0  0  0  0  0
   48.0068  -14.5773   -8.4186 H   0  0  0  0  0  0  0  0  0  0  0  0
   49.1906  -18.6844  -10.9526 H   0  0  0  0  0  0  0  0  0  0  0  0
   50.1054  -17.9849  -12.2583 H   0  0  0  0  0  0  0  0  0  0  0  0
   42.8794  -16.8789  -12.3524 H   0  0  0  0  0  0  0  0  0  0  0  0
   45.2000  -18.4934   -7.2104 H   0  0  0  0  0  0  0  0  0  0  0  0
   52.0392  -19.4370   -8.8557 H   0  0  0  0  0  0  0  0  0  0  0  0
   51.1441  -17.9310   -8.5966 H   0  0  0  0  0  0  0  0  0  0  0  0
   50.2854  -19.4470   -8.9486 H   0  0  0  0  0  0  0  0  0  0  0  0
   52.4825  -16.8587  -10.4438 H   0  0  0  0  0  0  0  0  0  0  0  0
   53.3526  -18.3850  -10.6699 H   0  0  0  0  0  0  0  0  0  0  0  0
   52.5180  -17.6557  -12.0325 H   0  0  0  0  0  0  0  0  0  0  0  0
   44.4225  -12.9179  -12.9687 H   0  0  0  0  0  0  0  0  0  0  0  0
   47.4849  -15.0493   -6.0425 H   0  0  0  0  0  0  0  0  0  0  0  0
   46.0810  -17.0058   -5.4437 H   0  0  0  0  0  0  0  0  0  0  0  0
   42.6023  -14.5840  -13.2285 H   0  0  0  0  0  0  0  0  0  0  0  0
  2  1  1  0
  3  1  1  0
  4  6  1  0
  5  7  1  0
  6  2  2  0
  7  3  2  0
  8  1  2  3
  9 13  1  0
 10  8  1  0
 11  3  1  0
 12  2  1  0
 13 10  1  0
 14  7  1  0
 15  6  1  0
 16  9  1  0
 17  9  1  0
 18 11  2  0
 19 12  2  0
 20 19  1  0
 21 18  1  0
  5  4  2  0
 21 14  2  0
 20 15  2  0
  4 22  1  0
  5 23  1  0
  8 24  1  0
 10 25  1  0
 10 26  1  0
 11 27  1  0
 12 28  1  0
 13 29  1  0
 13 30  1  0
 14 31  1  0
 15 32  1  0
 16 33  1  0
 16 34  1  0
 16 35  1  0
 17 36  1  0
 17 37  1  0
 17 38  1  0
 18 39  1  0
 19 40  1  0
 20 41  1  0
 21 42  1  0
M  END
> <Uni-Dock RESULT> 
ENERGY=   -4.773  LOWER_BOUND=    2.927  UPPER_BOUND=    6.264
INTER + INTRA:          -4.773
INTER:                  -4.773
INTRA:                   0.000
UNBOUND:                 0.000

$$$$

     RDKit          3D

 42 44  0  0  0  0  0  0  0  0999 V2000
   46.1084  -16.3061  -10.4255 C   0  0  0  0  0  0  0  0  0  0  0  0
   46.1723  -15.3059  -11.6193 C   0  0  0  0  0  0  0  0  0  0  0  0
   47.2088  -16.0645   -9.3436 C   0  0  0  0  0  0  0  0  0  0  0  0
   48.4703  -16.3321  -12.2810 C   0  0  0  0  0  0  0  0  0  0  0  0
   49.0057  -16.7147  -11.1119 C   0  0  0  0  0  0  0  0  0  0  0  0
   47.3061  -15.2931  -12.4457 C   0  0  0  0  0  0  0  0  0  0  0  0
   48.5605  -16.1992   -9.6973 C   0  0  0  0  0  0  0  0  0  0  0  0
   45.2952  -17.3701  -10.3604 C   0  0  0  0  0  0  0  0  0  0  0  0
   43.8079  -19.5722  -13.1675 N   0  0  0  0  0  0  0  0  0  0  0  0
   44.2697  -17.7818  -11.3828 C   0  0  0  0  0  0  0  0  0  0  0  0
   46.8528  -15.6333   -8.0624 C   0  0  0  0  0  0  0  0  0  0  0  0
   45.1571  -14.3616  -11.8016 C   0  0  0  0  0  0  0  0  0  0  0  0
   44.7077  -19.0620  -12.1192 C   0  0  0  0  0  0  0  0  0  0  0  0
   49.5485  -15.9087   -8.7517 C   0  0  0  0  0  0  0  0  0  0  0  0
   47.3987  -14.3457  -13.4698 C   0  0  0  0  0  0  0  0  0  0  0  0
   43.6965  -18.6583  -14.3014 C   0  0  0  0  0  0  0  0  0  0  0  0
   42.4910  -19.9370  -12.6556 C   0  0  0  0  0  0  0  0  0  0  0  0
   47.8459  -15.3504   -7.1246 C   0  0  0  0  0  0  0  0  0  0  0  0
   45.2557  -13.4233  -12.8288 C   0  0  0  0  0  0  0  0  0  0  0  0
   46.3743  -13.4157  -13.6619 C   0  0  0  0  0  0  0  0  0  0  0  0
   49.1910  -15.4864   -7.4690 C   0  0  0  0  0  0  0  0  0  0  0  0
   48.8525  -16.7930  -13.1891 H   0  0  0  0  0  0  0  0  0  0  0  0
   49.7924  -17.4655  -11.1368 H   0  0  0  0  0  0  0  0  0  0  0  0
   45.3845  -18.0354   -9.5029 H   0  0  0  0  0  0  0  0  0  0  0  0
   44.0857  -16.9792  -12.1018 H   0  0  0  0  0  0  0  0  0  0  0  0
   43.3238  -17.9498  -10.8551 H   0  0  0  0  0  0  0  0  0  0  0  0
   45.8069  -15.5058   -7.7974 H   0  0  0  0  0  0  0  0  0  0  0  0
   44.2946  -14.3511  -11.1409 H   0  0  0  0  0  0  0  0  0  0  0  0
   45.6982  -18.8997  -12.5662 H   0  0  0  0  0  0  0  0  0  0  0  0
   44.8597  -19.8631  -11.3830 H   0  0  0  0  0  0  0  0  0  0  0  0
   50.6001  -16.0095   -9.0069 H   0  0  0  0  0  0  0  0  0  0  0  0
   48.2686  -14.3236  -14.1209 H   0  0  0  0  0  0  0  0  0  0  0  0
   43.1506  -19.1378  -15.1217 H   0  0  0  0  0  0  0  0  0  0  0  0
   43.1736  -17.7302  -14.0472 H   0  0  0  0  0  0  0  0  0  0  0  0
   44.6869  -18.4022  -14.6937 H   0  0  0  0  0  0  0  0  0  0  0  0
   41.9112  -19.0688  -12.3244 H   0  0  0  0  0  0  0  0  0  0  0  0
   41.9121  -20.4525  -13.4304 H   0  0  0  0  0  0  0  0  0  0  0  0
   42.5804  -20.6355  -11.8163 H   0  0  0  0  0  0  0  0  0  0  0  0
   47.5714  -15.0145   -6.1281 H   0  0  0  0  0  0  0  0  0  0  0  0
   44.4656  -12.6911  -12.9727 H   0  0  0  0  0  0  0  0  0  0  0  0
   46.4533  -12.6799  -14.4580 H   0  0  0  0  0  0  0  0  0  0  0  0
   49.9636  -15.2604   -6.7386 H   0  0  0  0  0  0  0  0  0  0  0  0
  2  1  1  0
  3  1  1  0
  4  6  1  0
  5  7  1  0
  6  2  2  0
  7  3  2  0
  8  1  2  3
  9 13  1  0
 10  8  1  0
 11  3  1  0
 12  2  1  0
 13 10  1  0
 14  7  1  0
 15  6  1  0
 16  9  1  0
 17  9  1  0
 18 11  2  0
 19 12  2  0
 20 19  1  0
 21 18  1  0
  5  4  2  0
 21 14  2  0
 20 15  2  0
  4 22  1  0
  5 23  1  0
  8 24  1  0
 10 25  1  0
 10 26  1  0
 11 27  1  0
 12 28  1  0
 13 29  1  0
 13 30  1  0
 14 31  1  0
 15 32  1  0
 16 33  1  0
 16 34  1  0
 16 35  1  0
 17 36  1  0
 17 37  1  0
 17 38  1  0
 18 39  1  0
 19 40  1  0
 20 41  1  0
 21 42  1  0
M  END
> <Uni-Dock RESULT> 
ENERGY=   -4.321  LOWER_BOUND=    3.175  UPPER_BOUND=    5.808
INTER + INTRA:          -4.321
INTER:                  -4.321
INTRA:                   0.000
UNBOUND:                 0.000

$$$$

     RDKit          3D

 42 44  0  0  0  0  0  0  0  0999 V2000
   47.5700  -16.6171   -8.1335 C   0  0  0  0  0  0  0  0  0  0  0  0
   47.8520  -17.1594   -9.5673 C   0  0  0  0  0  0  0  0  0  0  0  0
   48.8079  -15.9412   -7.4623 C   0  0  0  0  0  0  0  0  0  0  0  0
   49.4960  -18.8879   -8.5275 C   0  0  0  0  0  0  0  0  0  0  0  0
   49.9925  -18.2596   -7.4511 C   0  0  0  0  0  0  0  0  0  0  0  0
   48.7942  -18.1843   -9.7417 C   0  0  0  0  0  0  0  0  0  0  0  0
   49.9549  -16.7092   -7.2071 C   0  0  0  0  0  0  0  0  0  0  0  0
   46.4331  -16.8131   -7.4502 C   0  0  0  0  0  0  0  0  0  0  0  0
   43.8886  -19.7197   -7.5859 N   0  0  0  0  0  0  0  0  0  0  0  0
   45.2077  -17.5419   -7.9338 C   0  0  0  0  0  0  0  0  0  0  0  0
   48.8039  -14.5679   -7.2008 C   0  0  0  0  0  0  0  0  0  0  0  0
   47.2494  -16.5601  -10.6778 C   0  0  0  0  0  0  0  0  0  0  0  0
   45.0385  -18.8850   -7.1988 C   0  0  0  0  0  0  0  0  0  0  0  0
   51.0907  -16.0893   -6.6774 C   0  0  0  0  0  0  0  0  0  0  0  0
   49.1042  -18.6193  -11.0339 C   0  0  0  0  0  0  0  0  0  0  0  0
   43.9849  -20.1993   -8.9622 C   0  0  0  0  0  0  0  0  0  0  0  0
   42.6068  -19.0646   -7.3464 C   0  0  0  0  0  0  0  0  0  0  0  0
   49.9406  -13.9597   -6.6681 C   0  0  0  0  0  0  0  0  0  0  0  0
   47.5611  -17.0037  -11.9628 C   0  0  0  0  0  0  0  0  0  0  0  0
   48.4866  -18.0320  -12.1405 C   0  0  0  0  0  0  0  0  0  0  0  0
   51.0821  -14.7186   -6.4084 C   0  0  0  0  0  0  0  0  0  0  0  0
   49.5602  -19.9734   -8.5560 H   0  0  0  0  0  0  0  0  0  0  0  0
   50.4314  -18.8709   -6.6657 H   0  0  0  0  0  0  0  0  0  0  0  0
   46.3746  -16.4398   -6.4289 H   0  0  0  0  0  0  0  0  0  0  0  0
   45.2481  -17.7072   -9.0137 H   0  0  0  0  0  0  0  0  0  0  0  0
   44.3425  -16.8946   -7.7501 H   0  0  0  0  0  0  0  0  0  0  0  0
   47.9241  -13.9701   -7.4217 H   0  0  0  0  0  0  0  0  0  0  0  0
   46.5442  -15.7443  -10.5437 H   0  0  0  0  0  0  0  0  0  0  0  0
   45.9528  -19.4816   -7.3227 H   0  0  0  0  0  0  0  0  0  0  0  0
   44.9716  -18.6950   -6.1188 H   0  0  0  0  0  0  0  0  0  0  0  0
   51.9870  -16.6683   -6.4711 H   0  0  0  0  0  0  0  0  0  0  0  0
   49.8296  -19.4141  -11.1869 H   0  0  0  0  0  0  0  0  0  0  0  0
   43.2004  -20.9381   -9.1612 H   0  0  0  0  0  0  0  0  0  0  0  0
   43.8836  -19.3952   -9.6987 H   0  0  0  0  0  0  0  0  0  0  0  0
   44.9410  -20.7065   -9.1316 H   0  0  0  0  0  0  0  0  0  0  0  0
   42.4406  -18.2073   -8.0075 H   0  0  0  0  0  0  0  0  0  0  0  0
   41.7844  -19.7724   -7.5002 H   0  0  0  0  0  0  0  0  0  0  0  0
   42.5337  -18.7219   -6.3085 H   0  0  0  0  0  0  0  0  0  0  0  0
   49.9398  -12.8921   -6.4645 H   0  0  0  0  0  0  0  0  0  0  0  0
   47.0908  -16.5402  -12.8260 H   0  0  0  0  0  0  0  0  0  0  0  0
   48.7338  -18.3726  -13.1427 H   0  0  0  0  0  0  0  0  0  0  0  0
   51.9688  -14.2419   -5.9982 H   0  0  0  0  0  0  0  0  0  0  0  0
  2  1  1  0
  3  1  1  0
  4  6  1  0
  5  7  1  0
  6  2  2  0
  7  3  2  0
  8  1  2  3
  9 13  1  0
 10  8  1  0
 11  3  1  0
 12  2  1  0
 13 10  1  0
 14  7  1  0
 15  6  1  0
 16  9  1  0
 17  9  1  0
 18 11  2  0
 19 12  2  0
 20 19  1  0
 21 18  1  0
  5  4  2  0
 21 14  2  0
 20 15  2  0
  4 22  1  0
  5 23  1  0
  8 24  1  0
 10 25  1  0
 10 26  1  0
 11 27  1  0
 12 28  1  0
 13 29  1  0
 13 30  1  0
 14 31  1  0
 15 32  1  0
 16 33  1  0
 16 34  1  0
 16 35  1  0
 17 36  1  0
 17 37  1  0
 17 38  1  0
 18 39  1  0
 19 40  1  0
 20 41  1  0
 21 42  1  0
M  END
> <Uni-Dock RESULT> 
ENERGY=   -3.890  LOWER_BOUND=    2.409  UPPER_BOUND=    4.919
INTER + INTRA:          -3.890
INTER:                  -3.890
INTRA:                   0.000
UNBOUND:                 0.000

$$$$
