
     RDKit          3D

 42 44  0  0  0  0  0  0  0  0999 V2000
   49.9295  -17.3927   -8.0437 C   0  0  0  0  0  0  0  0  0  0  0  0
   48.4931  -17.5495   -7.4492 C   0  0  0  0  0  0  0  0  0  0  0  0
   50.9394  -16.7030   -7.0764 C   0  0  0  0  0  0  0  0  0  0  0  0
   48.2758  -14.9554   -7.4311 C   0  0  0  0  0  0  0  0  0  0  0  0
   49.5314  -14.5212   -7.2450 C   0  0  0  0  0  0  0  0  0  0  0  0
   47.7592  -16.4023   -7.1104 C   0  0  0  0  0  0  0  0  0  0  0  0
   50.7100  -15.3806   -6.6680 C   0  0  0  0  0  0  0  0  0  0  0  0
   50.2020  -17.7497   -9.3070 C   0  0  0  0  0  0  0  0  0  0  0  0
   53.4317  -18.8173  -11.0869 N   0  0  0  0  0  0  0  0  0  0  0  0
   51.5112  -17.5687  -10.0295 C   0  0  0  0  0  0  0  0  0  0  0  0
   52.0077  -17.4301   -6.5408 C   0  0  0  0  0  0  0  0  0  0  0  0
   47.9825  -18.8215   -7.1725 C   0  0  0  0  0  0  0  0  0  0  0  0
   52.2135  -18.9178  -10.2596 C   0  0  0  0  0  0  0  0  0  0  0  0
   51.5732  -14.7888   -5.7404 C   0  0  0  0  0  0  0  0  0  0  0  0
   46.5065  -16.5434   -6.5052 C   0  0  0  0  0  0  0  0  0  0  0  0
   54.5000  -18.0870  -10.4002 C   0  0  0  0  0  0  0  0  0  0  0  0
   53.9033  -20.1580  -11.4445 C   0  0  0  0  0  0  0  0  0  0  0  0
   52.8665  -16.8299   -5.6202 C   0  0  0  0  0  0  0  0  0  0  0  0
   46.7298  -18.9520   -6.5729 C   0  0  0  0  0  0  0  0  0  0  0  0
   45.9938  -17.8151   -6.2387 C   0  0  0  0  0  0  0  0  0  0  0  0
   52.6497  -15.5114   -5.2209 C   0  0  0  0  0  0  0  0  0  0  0  0
   47.5597  -14.2624   -7.8672 H   0  0  0  0  0  0  0  0  0  0  0  0
   49.7637  -13.5003   -7.5398 H   0  0  0  0  0  0  0  0  0  0  0  0
   49.4044  -18.1887   -9.9044 H   0  0  0  0  0  0  0  0  0  0  0  0
   52.1626  -16.8806   -9.4828 H   0  0  0  0  0  0  0  0  0  0  0  0
   51.3021  -17.0914  -10.9951 H   0  0  0  0  0  0  0  0  0  0  0  0
   52.1662  -18.4649   -6.8307 H   0  0  0  0  0  0  0  0  0  0  0  0
   48.5618  -19.7089   -7.4114 H   0  0  0  0  0  0  0  0  0  0  0  0
   51.4994  -19.5782  -10.7705 H   0  0  0  0  0  0  0  0  0  0  0  0
   52.4418  -19.3909   -9.2949 H   0  0  0  0  0  0  0  0  0  0  0  0
   51.4118  -13.7643   -5.4158 H   0  0  0  0  0  0  0  0  0  0  0  0
   45.9233  -15.6660   -6.2385 H   0  0  0  0  0  0  0  0  0  0  0  0
   54.2250  -17.0407  -10.2362 H   0  0  0  0  0  0  0  0  0  0  0  0
   55.4070  -18.0647  -11.0157 H   0  0  0  0  0  0  0  0  0  0  0  0
   54.7540  -18.5376   -9.4340 H   0  0  0  0  0  0  0  0  0  0  0  0
   54.7823  -20.0968  -12.0959 H   0  0  0  0  0  0  0  0  0  0  0  0
   53.1360  -20.6993  -12.0093 H   0  0  0  0  0  0  0  0  0  0  0  0
   54.1674  -20.7524  -10.5623 H   0  0  0  0  0  0  0  0  0  0  0  0
   53.6978  -17.3939   -5.2055 H   0  0  0  0  0  0  0  0  0  0  0  0
   46.3316  -19.9400   -6.3574 H   0  0  0  0  0  0  0  0  0  0  0  0
   45.0201  -17.9183   -5.7669 H   0  0  0  0  0  0  0  0  0  0  0  0
   53.3157  -15.0462   -4.4986 H   0  0  0  0  0  0  0  0  0  0  0  0
  2  1  1  0
  3  1  1  0
  4  6  1  0
  5  7  1  0
  6  2  2  0
  7  3  2  0
  8  1  2  3
  9 13  1  0
 10  8  1  0
 11  3  1  0
 12  2  1  0
 13 10  1  0
 14  7  1  0
 15  6  1  0
 16  9  1  0
 17  9  1  0
 18 11  2  0
 19 12  2  0
 20 19  1  0
 21 18  1  0
  5  4  2  0
 21 14  2  0
 20 15  2  0
  4 22  1  0
  5 23  1  0
  8 24  1  0
 10 25  1  0
 10 26  1  0
 11 27  1  0
 12 28  1  0
 13 29  1  0
 13 30  1  0
 14 31  1  0
 15 32  1  0
 16 33  1  0
 16 34  1  0
 16 35  1  0
 17 36  1  0
 17 37  1  0
 17 38  1  0
 18 39  1  0
 19 40  1  0
 20 41  1  0
 21 42  1  0
M  END
> <Uni-Dock RESULT> 
ENERGY=   -5.977  LOWER_BOUND=    0.000  UPPER_BOUND=    0.000
INTER + INTRA:          -5.977
INTER:                  -5.977
INTRA:                   0.000
UNBOUND:                 0.000

$$$$

     RDKit          3D

 42 44  0  0  0  0  0  0  0  0999 V2000
   49.9517  -17.1835   -8.0808 C   0  0  0  0  0  0  0  0  0  0  0  0
   48.5041  -17.2877   -7.5021 C   0  0  0  0  0  0  0  0  0  0  0  0
   50.9928  -16.6080   -7.0728 C   0  0  0  0  0  0  0  0  0  0  0  0
   48.4387  -14.6901   -7.3432 C   0  0  0  0  0  0  0  0  0  0  0  0
   49.7160  -14.3413   -7.1281 C   0  0  0  0  0  0  0  0  0  0  0  0
   47.8359  -16.1194   -7.1043 C   0  0  0  0  0  0  0  0  0  0  0  0
   50.8379  -15.2985   -6.5937 C   0  0  0  0  0  0  0  0  0  0  0  0
   50.2124  -17.4868   -9.3605 C   0  0  0  0  0  0  0  0  0  0  0  0
   53.3876  -18.6442  -11.1818 N   0  0  0  0  0  0  0  0  0  0  0  0
   51.5354  -17.3441  -10.0661 C   0  0  0  0  0  0  0  0  0  0  0  0
   52.0126  -17.4246   -6.5730 C   0  0  0  0  0  0  0  0  0  0  0  0
   47.9179  -18.5406   -7.2975 C   0  0  0  0  0  0  0  0  0  0  0  0
   52.1594  -18.7178  -10.3666 C   0  0  0  0  0  0  0  0  0  0  0  0
   51.7272  -14.8097   -5.6314 C   0  0  0  0  0  0  0  0  0  0  0  0
   46.5725  -16.2193   -6.5133 C   0  0  0  0  0  0  0  0  0  0  0  0
   54.4915  -18.0164  -10.4515 C   0  0  0  0  0  0  0  0  0  0  0  0
   53.7827  -19.9889  -11.6100 C   0  0  0  0  0  0  0  0  0  0  0  0
   52.8979  -16.9269   -5.6171 C   0  0  0  0  0  0  0  0  0  0  0  0
   46.6551  -18.6296   -6.7116 C   0  0  0  0  0  0  0  0  0  0  0  0
   45.9843  -17.4712   -6.3190 C   0  0  0  0  0  0  0  0  0  0  0  0
   52.7556  -15.6215   -5.1473 C   0  0  0  0  0  0  0  0  0  0  0  0
   47.7676  -13.9336   -7.7439 H   0  0  0  0  0  0  0  0  0  0  0  0
   50.0099  -13.3213   -7.3656 H   0  0  0  0  0  0  0  0  0  0  0  0
   49.3951  -17.8451   -9.9845 H   0  0  0  0  0  0  0  0  0  0  0  0
   52.2218  -16.7263   -9.4798 H   0  0  0  0  0  0  0  0  0  0  0  0
   51.3619  -16.8037  -11.0052 H   0  0  0  0  0  0  0  0  0  0  0  0
   52.1125  -18.4497   -6.9183 H   0  0  0  0  0  0  0  0  0  0  0  0
   48.4460  -19.4463   -7.5820 H   0  0  0  0  0  0  0  0  0  0  0  0
   51.4118  -19.3063  -10.9160 H   0  0  0  0  0  0  0  0  0  0  0  0
   52.3522  -19.2551   -9.4282 H   0  0  0  0  0  0  0  0  0  0  0  0
   51.6234  -13.7966   -5.2520 H   0  0  0  0  0  0  0  0  0  0  0  0
   46.0395  -15.3249   -6.2016 H   0  0  0  0  0  0  0  0  0  0  0  0
   54.2769  -16.9662  -10.2317 H   0  0  0  0  0  0  0  0  0  0  0  0
   55.4029  -18.0141  -11.0608 H   0  0  0  0  0  0  0  0  0  0  0  0
   54.7114  -18.5329   -9.5102 H   0  0  0  0  0  0  0  0  0  0  0  0
   54.6688  -19.9442  -12.2532 H   0  0  0  0  0  0  0  0  0  0  0  0
   52.9894  -20.4527  -12.2069 H   0  0  0  0  0  0  0  0  0  0  0  0
   54.0050  -20.6449  -10.7604 H   0  0  0  0  0  0  0  0  0  0  0  0
   53.6917  -17.5604   -5.2302 H   0  0  0  0  0  0  0  0  0  0  0  0
   46.1982  -19.6028   -6.5521 H   0  0  0  0  0  0  0  0  0  0  0  0
   45.0027  -17.5424   -5.8578 H   0  0  0  0  0  0  0  0  0  0  0  0
   53.4421  -15.2362   -4.3977 H   0  0  0  0  0  0  0  0  0  0  0  0
  2  1  1  0
  3  1  1  0
  4  6  1  0
  5  7  1  0
  6  2  2  0
  7  3  2  0
  8  1  2  3
  9 13  1  0
 10  8  1  0
 11  3  1  0
 12  2  1  0
 13 10  1  0
 14  7  1  0
 15  6  1  0
 16  9  1  0
 17  9  1  0
 18 11  2  0
 19 12  2  0
 20 19  1  0
 21 18  1  0
  5  4  2  0
 21 14  2  0
 20 15  2  0
  4 22  1  0
  5 23  1  0
  8 24  1  0
 10 25  1  0
 10 26  1  0
 11 27  1  0
 12 28  1  0
 13 29  1  0
 13 30  1  0
 14 31  1  0
 15 32  1  0
 16 33  1  0
 16 34  1  0
 16 35  1  0
 17 36  1  0
 17 37  1  0
 17 38  1  0
 18 39  1  0
 19 40  1  0
 20 41  1  0
 21 42  1  0
M  END
> <Uni-Dock RESULT> 
ENERGY=   -5.958  LOWER_BOUND=    0.245  UPPER_BOUND=    0.245
INTER + INTRA:          -5.958
INTER:                  -5.958
INTRA:                   0.000
UNBOUND:                 0.000

$$$$

     RDKit          3D

 42 44  0  0  0  0  0  0  0  0999 V2000
   49.2279  -16.6635   -7.9055 C   0  0  0  0  0  0  0  0  0  0  0  0
   50.4157  -16.2133   -6.9957 C   0  0  0  0  0  0  0  0  0  0  0  0
   48.2105  -17.6056   -7.1925 C   0  0  0  0  0  0  0  0  0  0  0  0
   51.2131  -18.6898   -6.9038 C   0  0  0  0  0  0  0  0  0  0  0  0
   50.0825  -19.4038   -7.0099 C   0  0  0  0  0  0  0  0  0  0  0  0
   51.2965  -17.1794   -6.4854 C   0  0  0  0  0  0  0  0  0  0  0  0
   48.6384  -18.8590   -6.7298 C   0  0  0  0  0  0  0  0  0  0  0  0
   49.1758  -16.3212   -9.2008 C   0  0  0  0  0  0  0  0  0  0  0  0
   46.2799  -15.9314  -11.6908 N   0  0  0  0  0  0  0  0  0  0  0  0
   48.1431  -16.7605  -10.2054 C   0  0  0  0  0  0  0  0  0  0  0  0
   46.9106  -17.1628   -6.9259 C   0  0  0  0  0  0  0  0  0  0  0  0
   50.5436  -14.8726   -6.6197 C   0  0  0  0  0  0  0  0  0  0  0  0
   47.2210  -15.5957  -10.6046 C   0  0  0  0  0  0  0  0  0  0  0  0
   47.7463  -19.6710   -6.0223 C   0  0  0  0  0  0  0  0  0  0  0  0
   52.3117  -16.7865   -5.6075 C   0  0  0  0  0  0  0  0  0  0  0  0
   45.2804  -16.9137  -11.2639 C   0  0  0  0  0  0  0  0  0  0  0  0
   45.6070  -14.7171  -12.1603 C   0  0  0  0  0  0  0  0  0  0  0  0
   46.0262  -17.9816   -6.2240 C   0  0  0  0  0  0  0  0  0  0  0  0
   51.5624  -14.4898   -5.7473 C   0  0  0  0  0  0  0  0  0  0  0  0
   52.4439  -15.4451   -5.2411 C   0  0  0  0  0  0  0  0  0  0  0  0
   46.4433  -19.2338   -5.7732 C   0  0  0  0  0  0  0  0  0  0  0  0
   52.1493  -19.1832   -7.1555 H   0  0  0  0  0  0  0  0  0  0  0  0
   50.1643  -20.4366   -7.3411 H   0  0  0  0  0  0  0  0  0  0  0  0
   49.9657  -15.6874   -9.6010 H   0  0  0  0  0  0  0  0  0  0  0  0
   47.5603  -17.6014   -9.8184 H   0  0  0  0  0  0  0  0  0  0  0  0
   48.6705  -17.1347  -11.0919 H   0  0  0  0  0  0  0  0  0  0  0  0
   46.5890  -16.1786   -7.2541 H   0  0  0  0  0  0  0  0  0  0  0  0
   49.8460  -14.1289   -6.9946 H   0  0  0  0  0  0  0  0  0  0  0  0
   47.8613  -14.7691  -10.9420 H   0  0  0  0  0  0  0  0  0  0  0  0
   46.6766  -15.2297   -9.7235 H   0  0  0  0  0  0  0  0  0  0  0  0
   48.0605  -20.6461   -5.6597 H   0  0  0  0  0  0  0  0  0  0  0  0
   53.0044  -17.5207   -5.2047 H   0  0  0  0  0  0  0  0  0  0  0  0
   45.7436  -17.8772  -11.0309 H   0  0  0  0  0  0  0  0  0  0  0  0
   44.5674  -17.1125  -12.0727 H   0  0  0  0  0  0  0  0  0  0  0  0
   44.7165  -16.5755  -10.3871 H   0  0  0  0  0  0  0  0  0  0  0  0
   44.9377  -14.9459  -12.9973 H   0  0  0  0  0  0  0  0  0  0  0  0
   46.3373  -13.9920  -12.5368 H   0  0  0  0  0  0  0  0  0  0  0  0
   45.0196  -14.2375  -11.3689 H   0  0  0  0  0  0  0  0  0  0  0  0
   45.0156  -17.6388   -6.0185 H   0  0  0  0  0  0  0  0  0  0  0  0
   51.6631  -13.4480   -5.4544 H   0  0  0  0  0  0  0  0  0  0  0  0
   53.2341  -15.1461   -4.5573 H   0  0  0  0  0  0  0  0  0  0  0  0
   45.7556  -19.8689   -5.2208 H   0  0  0  0  0  0  0  0  0  0  0  0
  2  1  1  0
  3  1  1  0
  4  6  1  0
  5  7  1  0
  6  2  2  0
  7  3  2  0
  8  1  2  3
  9 13  1  0
 10  8  1  0
 11  3  1  0
 12  2  1  0
 13 10  1  0
 14  7  1  0
 15  6  1  0
 16  9  1  0
 17  9  1  0
 18 11  2  0
 19 12  2  0
 20 19  1  0
 21 18  1  0
  5  4  2  0
 21 14  2  0
 20 15  2  0
  4 22  1  0
  5 23  1  0
  8 24  1  0
 10 25  1  0
 10 26  1  0
 11 27  1  0
 12 28  1  0
 13 29  1  0
 13 30  1  0
 14 31  1  0
 15 32  1  0
 16 33  1  0
 16 34  1  0
 16 35  1  0
 17 36  1  0
 17 37  1  0
 17 38  1  0
 18 39  1  0
 19 40  1  0
 20 41  1  0
 21 42  1  0
M  END
> <Uni-Dock RESULT> 
ENERGY=   -5.428  LOWER_BOUND=    2.659  UPPER_BOUND=    5.791
INTER + INTRA:          -5.428
INTER:                  -5.428
INTRA:                   0.000
UNBOUND:                 0.000

$$$$

     RDKit          3D

 42 44  0  0  0  0  0  0  0  0999 V2000
   49.2030  -16.8409   -8.0218 C   0  0  0  0  0  0  0  0  0  0  0  0
   48.5214  -16.4853   -9.3821 C   0  0  0  0  0  0  0  0  0  0  0  0
   48.3980  -17.8629   -7.1624 C   0  0  0  0  0  0  0  0  0  0  0  0
   46.5702  -15.3856   -8.0551 C   0  0  0  0  0  0  0  0  0  0  0  0
   46.5104  -16.0890   -6.9144 C   0  0  0  0  0  0  0  0  0  0  0  0
   47.2637  -15.8625   -9.3798 C   0  0  0  0  0  0  0  0  0  0  0  0
   47.1190  -17.5187   -6.6998 C   0  0  0  0  0  0  0  0  0  0  0  0
   50.3306  -16.2312   -7.6288 C   0  0  0  0  0  0  0  0  0  0  0  0
   53.1670  -17.2527   -5.2519 N   0  0  0  0  0  0  0  0  0  0  0  0
   51.0371  -16.4115   -6.3109 C   0  0  0  0  0  0  0  0  0  0  0  0
   48.9043  -19.1481   -6.9418 C   0  0  0  0  0  0  0  0  0  0  0  0
   49.1176  -16.8678  -10.5877 C   0  0  0  0  0  0  0  0  0  0  0  0
   52.3636  -17.1703   -6.4872 C   0  0  0  0  0  0  0  0  0  0  0  0
   46.3664  -18.4636   -5.9952 C   0  0  0  0  0  0  0  0  0  0  0  0
   46.6182  -15.6162  -10.5957 C   0  0  0  0  0  0  0  0  0  0  0  0
   52.5252  -18.0926   -4.2375 C   0  0  0  0  0  0  0  0  0  0  0  0
   54.4989  -17.7820   -5.5579 C   0  0  0  0  0  0  0  0  0  0  0  0
   48.1486  -20.0822   -6.2336 C   0  0  0  0  0  0  0  0  0  0  0  0
   48.4680  -16.6134  -11.7955 C   0  0  0  0  0  0  0  0  0  0  0  0
   47.2200  -15.9900  -11.7994 C   0  0  0  0  0  0  0  0  0  0  0  0
   46.8819  -19.7404   -5.7609 C   0  0  0  0  0  0  0  0  0  0  0  0
   46.1303  -14.3908   -8.0604 H   0  0  0  0  0  0  0  0  0  0  0  0
   46.0249  -15.6261   -6.0582 H   0  0  0  0  0  0  0  0  0  0  0  0
   50.7859  -15.5032   -8.2985 H   0  0  0  0  0  0  0  0  0  0  0  0
   50.3903  -16.9230   -5.5922 H   0  0  0  0  0  0  0  0  0  0  0  0
   51.2336  -15.4161   -5.8929 H   0  0  0  0  0  0  0  0  0  0  0  0
   49.8803  -19.4264   -7.3290 H   0  0  0  0  0  0  0  0  0  0  0  0
   50.0794  -17.3729  -10.5879 H   0  0  0  0  0  0  0  0  0  0  0  0
   52.9496  -16.6372   -7.2485 H   0  0  0  0  0  0  0  0  0  0  0  0
   52.1704  -18.1746   -6.8881 H   0  0  0  0  0  0  0  0  0  0  0  0
   45.3752  -18.2124   -5.6271 H   0  0  0  0  0  0  0  0  0  0  0  0
   45.6451  -15.1325  -10.6129 H   0  0  0  0  0  0  0  0  0  0  0  0
   51.5850  -17.6516   -3.8927 H   0  0  0  0  0  0  0  0  0  0  0  0
   53.1610  -18.1743   -3.3482 H   0  0  0  0  0  0  0  0  0  0  0  0
   52.3224  -19.1044   -4.6064 H   0  0  0  0  0  0  0  0  0  0  0  0
   55.1208  -17.8068   -4.6561 H   0  0  0  0  0  0  0  0  0  0  0  0
   55.0167  -17.1339   -6.2739 H   0  0  0  0  0  0  0  0  0  0  0  0
   54.4555  -18.7943   -5.9760 H   0  0  0  0  0  0  0  0  0  0  0  0
   48.5425  -21.0802   -6.0603 H   0  0  0  0  0  0  0  0  0  0  0  0
   48.9303  -16.9100  -12.7334 H   0  0  0  0  0  0  0  0  0  0  0  0
   46.7127  -15.7971  -12.7411 H   0  0  0  0  0  0  0  0  0  0  0  0
   46.2908  -20.4709   -5.2144 H   0  0  0  0  0  0  0  0  0  0  0  0
  2  1  1  0
  3  1  1  0
  4  6  1  0
  5  7  1  0
  6  2  2  0
  7  3  2  0
  8  1  2  3
  9 13  1  0
 10  8  1  0
 11  3  1  0
 12  2  1  0
 13 10  1  0
 14  7  1  0
 15  6  1  0
 16  9  1  0
 17  9  1  0
 18 11  2  0
 19 12  2  0
 20 19  1  0
 21 18  1  0
  5  4  2  0
 21 14  2  0
 20 15  2  0
  4 22  1  0
  5 23  1  0
  8 24  1  0
 10 25  1  0
 10 26  1  0
 11 27  1  0
 12 28  1  0
 13 29  1  0
 13 30  1  0
 14 31  1  0
 15 32  1  0
 16 33  1  0
 16 34  1  0
 16 35  1  0
 17 36  1  0
 17 37  1  0
 17 38  1  0
 18 39  1  0
 19 40  1  0
 20 41  1  0
 21 42  1  0
M  END
> <Uni-Dock RESULT> 
ENERGY=   -5.117  LOWER_BOUND=    2.575  UPPER_BOUND=    4.643
INTER + INTRA:          -5.117
INTER:                  -5.117
INTRA:                   0.000
UNBOUND:                 0.000

$$$$

     RDKit          3D

 42 44  0  0  0  0  0  0  0  0999 V2000
   46.1935  -16.4982  -10.3016 C   0  0  0  0  0  0  0  0  0  0  0  0
   46.2161  -15.5391  -11.5348 C   0  0  0  0  0  0  0  0  0  0  0  0
   47.2372  -16.1345   -9.2018 C   0  0  0  0  0  0  0  0  0  0  0  0
   48.6136  -16.3911  -12.0853 C   0  0  0  0  0  0  0  0  0  0  0  0
   49.1355  -16.7013  -10.8891 C   0  0  0  0  0  0  0  0  0  0  0  0
   47.3762  -15.4548  -12.3202 C   0  0  0  0  0  0  0  0  0  0  0  0
   48.6057  -16.1797   -9.5078 C   0  0  0  0  0  0  0  0  0  0  0  0
   45.3965  -17.5760  -10.2735 C   0  0  0  0  0  0  0  0  0  0  0  0
   43.8644  -19.6248   -7.4110 N   0  0  0  0  0  0  0  0  0  0  0  0
   45.3428  -18.6259   -9.1949 C   0  0  0  0  0  0  0  0  0  0  0  0
   46.8098  -15.6689   -7.9540 C   0  0  0  0  0  0  0  0  0  0  0  0
   45.1240  -14.7061  -11.7969 C   0  0  0  0  0  0  0  0  0  0  0  0
   44.0358  -18.5326   -8.3889 C   0  0  0  0  0  0  0  0  0  0  0  0
   49.5381  -15.7791   -8.5456 C   0  0  0  0  0  0  0  0  0  0  0  0
   47.4247  -14.5388  -13.3758 C   0  0  0  0  0  0  0  0  0  0  0  0
   44.8419  -19.5426   -6.3230 C   0  0  0  0  0  0  0  0  0  0  0  0
   42.5079  -19.5896   -6.8574 C   0  0  0  0  0  0  0  0  0  0  0  0
   47.7471  -15.2764   -6.9987 C   0  0  0  0  0  0  0  0  0  0  0  0
   45.1802  -13.7991  -12.8551 C   0  0  0  0  0  0  0  0  0  0  0  0
   46.3289  -13.7147  -13.6422 C   0  0  0  0  0  0  0  0  0  0  0  0
   49.1090  -15.3316   -7.2939 C   0  0  0  0  0  0  0  0  0  0  0  0
   49.0612  -16.8456  -12.9664 H   0  0  0  0  0  0  0  0  0  0  0  0
   49.9775  -17.3894  -10.8663 H   0  0  0  0  0  0  0  0  0  0  0  0
   44.7328  -17.7512  -11.1189 H   0  0  0  0  0  0  0  0  0  0  0  0
   46.2117  -18.5473   -8.5351 H   0  0  0  0  0  0  0  0  0  0  0  0
   45.4107  -19.6097   -9.6761 H   0  0  0  0  0  0  0  0  0  0  0  0
   45.7494  -15.6014   -7.7283 H   0  0  0  0  0  0  0  0  0  0  0  0
   44.2359  -14.7535  -11.1731 H   0  0  0  0  0  0  0  0  0  0  0  0
   43.2034  -18.5728   -9.1049 H   0  0  0  0  0  0  0  0  0  0  0  0
   43.9721  -17.5561   -7.8900 H   0  0  0  0  0  0  0  0  0  0  0  0
   50.6020  -15.8109   -8.7651 H   0  0  0  0  0  0  0  0  0  0  0  0
   48.3139  -14.4618  -13.9959 H   0  0  0  0  0  0  0  0  0  0  0  0
   45.8607  -19.6972   -6.6909 H   0  0  0  0  0  0  0  0  0  0  0  0
   44.6659  -20.3366   -5.5878 H   0  0  0  0  0  0  0  0  0  0  0  0
   44.8006  -18.5794   -5.8018 H   0  0  0  0  0  0  0  0  0  0  0  0
   42.3532  -20.4226   -6.1624 H   0  0  0  0  0  0  0  0  0  0  0  0
   41.7632  -19.7070   -7.6526 H   0  0  0  0  0  0  0  0  0  0  0  0
   42.3022  -18.6532   -6.3261 H   0  0  0  0  0  0  0  0  0  0  0  0
   47.4154  -14.9166   -6.0283 H   0  0  0  0  0  0  0  0  0  0  0  0
   44.3321  -13.1511  -13.0601 H   0  0  0  0  0  0  0  0  0  0  0  0
   46.3732  -13.0037  -14.4632 H   0  0  0  0  0  0  0  0  0  0  0  0
   49.8388  -15.0196   -6.5512 H   0  0  0  0  0  0  0  0  0  0  0  0
  2  1  1  0
  3  1  1  0
  4  6  1  0
  5  7  1  0
  6  2  2  0
  7  3  2  0
  8  1  2  3
  9 13  1  0
 10  8  1  0
 11  3  1  0
 12  2  1  0
 13 10  1  0
 14  7  1  0
 15  6  1  0
 16  9  1  0
 17  9  1  0
 18 11  2  0
 19 12  2  0
 20 19  1  0
 21 18  1  0
  5  4  2  0
 21 14  2  0
 20 15  2  0
  4 22  1  0
  5 23  1  0
  8 24  1  0
 10 25  1  0
 10 26  1  0
 11 27  1  0
 12 28  1  0
 13 29  1  0
 13 30  1  0
 14 31  1  0
 15 32  1  0
 16 33  1  0
 16 34  1  0
 16 35  1  0
 17 36  1  0
 17 37  1  0
 17 38  1  0
 18 39  1  0
 19 40  1  0
 20 41  1  0
 21 42  1  0
M  END
> <Uni-Dock RESULT> 
ENERGY=   -5.043  LOWER_BOUND=    4.349  UPPER_BOUND=    6.839
INTER + INTRA:          -5.043
INTER:                  -5.043
INTRA:                   0.000
UNBOUND:                 0.000

$$$$

     RDKit          3D

 42 44  0  0  0  0  0  0  0  0999 V2000
   48.2533  -17.0931   -8.1456 C   0  0  0  0  0  0  0  0  0  0  0  0
   49.3647  -16.2131   -7.4886 C   0  0  0  0  0  0  0  0  0  0  0  0
   47.5921  -18.1085   -7.1644 C   0  0  0  0  0  0  0  0  0  0  0  0
   50.7871  -18.3654   -7.1399 C   0  0  0  0  0  0  0  0  0  0  0  0
   49.8778  -19.3384   -6.9787 C   0  0  0  0  0  0  0  0  0  0  0  0
   50.5129  -16.8297   -6.9679 C   0  0  0  0  0  0  0  0  0  0  0  0
   48.3758  -19.1170   -6.5839 C   0  0  0  0  0  0  0  0  0  0  0  0
   47.9877  -17.0128   -9.4574 C   0  0  0  0  0  0  0  0  0  0  0  0
   44.8624  -17.7891  -11.5475 N   0  0  0  0  0  0  0  0  0  0  0  0
   47.0131  -17.8620  -10.2304 C   0  0  0  0  0  0  0  0  0  0  0  0
   46.2540  -17.9521   -6.7878 C   0  0  0  0  0  0  0  0  0  0  0  0
   49.1735  -14.8360   -7.3392 C   0  0  0  0  0  0  0  0  0  0  0  0
   45.7841  -17.0459  -10.6663 C   0  0  0  0  0  0  0  0  0  0  0  0
   47.8004  -19.9791   -5.6451 C   0  0  0  0  0  0  0  0  0  0  0  0
   51.4704  -16.0517   -6.3096 C   0  0  0  0  0  0  0  0  0  0  0  0
   44.2011  -18.8900  -10.8429 C   0  0  0  0  0  0  0  0  0  0  0  0
   43.8530  -16.8782  -12.0946 C   0  0  0  0  0  0  0  0  0  0  0  0
   45.6872  -18.8198   -5.8545 C   0  0  0  0  0  0  0  0  0  0  0  0
   50.1367  -14.0678   -6.6851 C   0  0  0  0  0  0  0  0  0  0  0  0
   51.2823  -14.6747   -6.1701 C   0  0  0  0  0  0  0  0  0  0  0  0
   46.4591  -19.8318   -5.2843 C   0  0  0  0  0  0  0  0  0  0  0  0
   51.7906  -18.6553   -7.4435 H   0  0  0  0  0  0  0  0  0  0  0  0
   50.1942  -20.3631   -7.1598 H   0  0  0  0  0  0  0  0  0  0  0  0
   48.5415  -16.2899  -10.0544 H   0  0  0  0  0  0  0  0  0  0  0  0
   46.7110  -18.7348   -9.6442 H   0  0  0  0  0  0  0  0  0  0  0  0
   47.5311  -18.2514  -11.1159 H   0  0  0  0  0  0  0  0  0  0  0  0
   45.6558  -17.1504   -7.2112 H   0  0  0  0  0  0  0  0  0  0  0  0
   48.2727  -14.3629   -7.7197 H   0  0  0  0  0  0  0  0  0  0  0  0
   46.1500  -16.1640  -11.2099 H   0  0  0  0  0  0  0  0  0  0  0  0
   45.2515  -16.6696   -9.7824 H   0  0  0  0  0  0  0  0  0  0  0  0
   48.3925  -20.7677   -5.1883 H   0  0  0  0  0  0  0  0  0  0  0  0
   52.3668  -16.5120   -5.9024 H   0  0  0  0  0  0  0  0  0  0  0  0
   44.9206  -19.6549  -10.5355 H   0  0  0  0  0  0  0  0  0  0  0  0
   43.4898  -19.3975  -11.5049 H   0  0  0  0  0  0  0  0  0  0  0  0
   43.6565  -18.5456   -9.9563 H   0  0  0  0  0  0  0  0  0  0  0  0
   43.1887  -17.4088  -12.7859 H   0  0  0  0  0  0  0  0  0  0  0  0
   44.3281  -16.0784  -12.6738 H   0  0  0  0  0  0  0  0  0  0  0  0
   43.2406  -16.4200  -11.3095 H   0  0  0  0  0  0  0  0  0  0  0  0
   44.6471  -18.6999   -5.5632 H   0  0  0  0  0  0  0  0  0  0  0  0
   49.9894  -12.9973   -6.5683 H   0  0  0  0  0  0  0  0  0  0  0  0
   52.0294  -14.0755   -5.6562 H   0  0  0  0  0  0  0  0  0  0  0  0
   46.0185  -20.5039   -4.5523 H   0  0  0  0  0  0  0  0  0  0  0  0
  2  1  1  0
  3  1  1  0
  4  6  1  0
  5  7  1  0
  6  2  2  0
  7  3  2  0
  8  1  2  3
  9 13  1  0
 10  8  1  0
 11  3  1  0
 12  2  1  0
 13 10  1  0
 14  7  1  0
 15  6  1  0
 16  9  1  0
 17  9  1  0
 18 11  2  0
 19 12  2  0
 20 19  1  0
 21 18  1  0
  5  4  2  0
 21 14  2  0
 20 15  2  0
  4 22  1  0
  5 23  1  0
  8 24  1  0
 10 25  1  0
 10 26  1  0
 11 27  1  0
 12 28  1  0
 13 29  1  0
 13 30  1  0
 14 31  1  0
 15 32  1  0
 16 33  1  0
 16 34  1  0
 16 35  1  0
 17 36  1  0
 17 37  1  0
 17 38  1  0
 18 39  1  0
 19 40  1  0
 20 41  1  0
 21 42  1  0
M  END
> <Uni-Dock RESULT> 
ENERGY=   -5.026  LOWER_BOUND=    3.005  UPPER_BOUND=    5.995
INTER + INTRA:          -5.026
INTER:                  -5.026
INTRA:                   0.000
UNBOUND:                 0.000

$$$$

     RDKit          3D

 42 44  0  0  0  0  0  0  0  0999 V2000
   50.3416  -17.5820   -7.9114 C   0  0  0  0  0  0  0  0  0  0  0  0
   51.2473  -17.6721   -6.6415 C   0  0  0  0  0  0  0  0  0  0  0  0
   48.8790  -17.1329   -7.6110 C   0  0  0  0  0  0  0  0  0  0  0  0
   49.7447  -19.6126   -5.7735 C   0  0  0  0  0  0  0  0  0  0  0  0
   48.5310  -19.3387   -6.2750 C   0  0  0  0  0  0  0  0  0  0  0  0
   50.9186  -18.5816   -5.6245 C   0  0  0  0  0  0  0  0  0  0  0  0
   48.0639  -17.9360   -6.7992 C   0  0  0  0  0  0  0  0  0  0  0  0
   50.7956  -17.9534   -9.1170 C   0  0  0  0  0  0  0  0  0  0  0  0
   49.8079  -16.9850  -12.6983 N   0  0  0  0  0  0  0  0  0  0  0  0
   50.0055  -18.0034  -10.3984 C   0  0  0  0  0  0  0  0  0  0  0  0
   48.4184  -15.8916   -8.0623 C   0  0  0  0  0  0  0  0  0  0  0  0
   52.3205  -16.7903   -6.4802 C   0  0  0  0  0  0  0  0  0  0  0  0
   50.4486  -16.8974  -11.3716 C   0  0  0  0  0  0  0  0  0  0  0  0
   46.7789  -17.4953   -6.4667 C   0  0  0  0  0  0  0  0  0  0  0  0
   51.6827  -18.6068   -4.4536 C   0  0  0  0  0  0  0  0  0  0  0  0
   48.3714  -16.7056  -12.6310 C   0  0  0  0  0  0  0  0  0  0  0  0
   50.4488  -16.0470  -13.6241 C   0  0  0  0  0  0  0  0  0  0  0  0
   47.1336  -15.4627   -7.7299 C   0  0  0  0  0  0  0  0  0  0  0  0
   53.0797  -16.8264   -5.3105 C   0  0  0  0  0  0  0  0  0  0  0  0
   52.7605  -17.7320   -4.2986 C   0  0  0  0  0  0  0  0  0  0  0  0
   46.3151  -16.2634   -6.9337 C   0  0  0  0  0  0  0  0  0  0  0  0
   49.9482  -20.6374   -5.4710 H   0  0  0  0  0  0  0  0  0  0  0  0
   47.8175  -20.1561   -6.3510 H   0  0  0  0  0  0  0  0  0  0  0  0
   51.8286  -18.2876   -9.2008 H   0  0  0  0  0  0  0  0  0  0  0  0
   48.9331  -17.9336  -10.1944 H   0  0  0  0  0  0  0  0  0  0  0  0
   50.1672  -18.9866  -10.8580 H   0  0  0  0  0  0  0  0  0  0  0  0
   49.0611  -15.2540   -8.6626 H   0  0  0  0  0  0  0  0  0  0  0  0
   52.5591  -16.0689   -7.2566 H   0  0  0  0  0  0  0  0  0  0  0  0
   51.5354  -16.9903  -11.5032 H   0  0  0  0  0  0  0  0  0  0  0  0
   50.2712  -15.9105  -10.9232 H   0  0  0  0  0  0  0  0  0  0  0  0
   46.1334  -18.1065   -5.8416 H   0  0  0  0  0  0  0  0  0  0  0  0
   51.4441  -19.3064   -3.6568 H   0  0  0  0  0  0  0  0  0  0  0  0
   47.8443  -17.4688  -12.0505 H   0  0  0  0  0  0  0  0  0  0  0  0
   47.9275  -16.7326  -13.6331 H   0  0  0  0  0  0  0  0  0  0  0  0
   48.1612  -15.7241  -12.1908 H   0  0  0  0  0  0  0  0  0  0  0  0
   50.0116  -16.1336  -14.6252 H   0  0  0  0  0  0  0  0  0  0  0  0
   51.5148  -16.2771  -13.7305 H   0  0  0  0  0  0  0  0  0  0  0  0
   50.3506  -15.0068  -13.2928 H   0  0  0  0  0  0  0  0  0  0  0  0
   46.7747  -14.4992   -8.0821 H   0  0  0  0  0  0  0  0  0  0  0  0
   53.9142  -16.1417   -5.1839 H   0  0  0  0  0  0  0  0  0  0  0  0
   53.3498  -17.7554   -3.3856 H   0  0  0  0  0  0  0  0  0  0  0  0
   45.3161  -15.9257   -6.6698 H   0  0  0  0  0  0  0  0  0  0  0  0
  2  1  1  0
  3  1  1  0
  4  6  1  0
  5  7  1  0
  6  2  2  0
  7  3  2  0
  8  1  2  3
  9 13  1  0
 10  8  1  0
 11  3  1  0
 12  2  1  0
 13 10  1  0
 14  7  1  0
 15  6  1  0
 16  9  1  0
 17  9  1  0
 18 11  2  0
 19 12  2  0
 20 19  1  0
 21 18  1  0
  5  4  2  0
 21 14  2  0
 20 15  2  0
  4 22  1  0
  5 23  1  0
  8 24  1  0
 10 25  1  0
 10 26  1  0
 11 27  1  0
 12 28  1  0
 13 29  1  0
 13 30  1  0
 14 31  1  0
 15 32  1  0
 16 33  1  0
 16 34  1  0
 16 35  1  0
 17 36  1  0
 17 37  1  0
 17 38  1  0
 18 39  1  0
 19 40  1  0
 20 41  1  0
 21 42  1  0
M  END
> <Uni-Dock RESULT> 
ENERGY=   -5.023  LOWER_BOUND=    2.018  UPPER_BOUND=    4.830
INTER + INTRA:          -5.023
INTER:                  -5.023
INTRA:                   0.000
UNBOUND:                 0.000

$$$$

     RDKit          3D

 42 44  0  0  0  0  0  0  0  0999 V2000
   47.5018  -16.4705  -10.7841 C   0  0  0  0  0  0  0  0  0  0  0  0
   47.2510  -16.3980   -9.2436 C   0  0  0  0  0  0  0  0  0  0  0  0
   46.3396  -15.8804  -11.6397 C   0  0  0  0  0  0  0  0  0  0  0  0
   45.2651  -18.0543   -9.5435 C   0  0  0  0  0  0  0  0  0  0  0  0
   44.8010  -17.7923  -10.7745 C   0  0  0  0  0  0  0  0  0  0  0  0
   46.1650  -17.0931   -8.6894 C   0  0  0  0  0  0  0  0  0  0  0  0
   45.0699  -16.4743  -11.5815 C   0  0  0  0  0  0  0  0  0  0  0  0
   48.5892  -17.0752  -11.2838 C   0  0  0  0  0  0  0  0  0  0  0  0
   50.5222  -16.6813  -14.5772 N   0  0  0  0  0  0  0  0  0  0  0  0
   48.9058  -17.2949  -12.7398 C   0  0  0  0  0  0  0  0  0  0  0  0
   46.5357  -14.7088  -12.3783 C   0  0  0  0  0  0  0  0  0  0  0  0
   48.0461  -15.5745   -8.4405 C   0  0  0  0  0  0  0  0  0  0  0  0
   50.0755  -16.4069  -13.1976 C   0  0  0  0  0  0  0  0  0  0  0  0
   44.0095  -15.8987  -12.2885 C   0  0  0  0  0  0  0  0  0  0  0  0
   45.8934  -16.9646   -7.3237 C   0  0  0  0  0  0  0  0  0  0  0  0
   49.5102  -16.3001  -15.5655 C   0  0  0  0  0  0  0  0  0  0  0  0
   51.7705  -15.9631  -14.8491 C   0  0  0  0  0  0  0  0  0  0  0  0
   45.4734  -14.1446  -13.0844 C   0  0  0  0  0  0  0  0  0  0  0  0
   47.7700  -15.4567   -7.0783 C   0  0  0  0  0  0  0  0  0  0  0  0
   46.6949  -16.1494   -6.5212 C   0  0  0  0  0  0  0  0  0  0  0  0
   44.2125  -14.7388  -13.0398 C   0  0  0  0  0  0  0  0  0  0  0  0
   45.0269  -19.0221   -9.1078 H   0  0  0  0  0  0  0  0  0  0  0  0
   44.2117  -18.5615  -11.2685 H   0  0  0  0  0  0  0  0  0  0  0  0
   49.3187  -17.4864  -10.5878 H   0  0  0  0  0  0  0  0  0  0  0  0
   48.0209  -17.1200  -13.3587 H   0  0  0  0  0  0  0  0  0  0  0  0
   49.1697  -18.3516  -12.8734 H   0  0  0  0  0  0  0  0  0  0  0  0
   47.5102  -14.2292  -12.3965 H   0  0  0  0  0  0  0  0  0  0  0  0
   48.8710  -15.0165   -8.8744 H   0  0  0  0  0  0  0  0  0  0  0  0
   50.9169  -16.5928  -12.5159 H   0  0  0  0  0  0  0  0  0  0  0  0
   49.8088  -15.3475  -13.0832 H   0  0  0  0  0  0  0  0  0  0  0  0
   43.0203  -16.3478  -12.2569 H   0  0  0  0  0  0  0  0  0  0  0  0
   45.0582  -17.4976   -6.8771 H   0  0  0  0  0  0  0  0  0  0  0  0
   48.6097  -16.9142  -15.4699 H   0  0  0  0  0  0  0  0  0  0  0  0
   49.8826  -16.4717  -16.5822 H   0  0  0  0  0  0  0  0  0  0  0  0
   49.2252  -15.2454  -15.4796 H   0  0  0  0  0  0  0  0  0  0  0  0
   52.1367  -16.1934  -15.8558 H   0  0  0  0  0  0  0  0  0  0  0  0
   52.5565  -16.2781  -14.1536 H   0  0  0  0  0  0  0  0  0  0  0  0
   51.6492  -14.8769  -14.7653 H   0  0  0  0  0  0  0  0  0  0  0  0
   45.6260  -13.2355  -13.6601 H   0  0  0  0  0  0  0  0  0  0  0  0
   48.3872  -14.8170   -6.4528 H   0  0  0  0  0  0  0  0  0  0  0  0
   46.4779  -16.0525   -5.4606 H   0  0  0  0  0  0  0  0  0  0  0  0
   43.3834  -14.2952  -13.5853 H   0  0  0  0  0  0  0  0  0  0  0  0
  2  1  1  0
  3  1  1  0
  4  6  1  0
  5  7  1  0
  6  2  2  0
  7  3  2  0
  8  1  2  3
  9 13  1  0
 10  8  1  0
 11  3  1  0
 12  2  1  0
 13 10  1  0
 14  7  1  0
 15  6  1  0
 16  9  1  0
 17  9  1  0
 18 11  2  0
 19 12  2  0
 20 19  1  0
 21 18  1  0
  5  4  2  0
 21 14  2  0
 20 15  2  0
  4 22  1  0
  5 23  1  0
  8 24  1  0
 10 25  1  0
 10 26  1  0
 11 27  1  0
 12 28  1  0
 13 29  1  0
 13 30  1  0
 14 31  1  0
 15 32  1  0
 16 33  1  0
 16 34  1  0
 16 35  1  0
 17 36  1  0
 17 37  1  0
 17 38  1  0
 18 39  1  0
 19 40  1  0
 20 41  1  0
 21 42  1  0
M  END
> <Uni-Dock RESULT> 
ENERGY=   -4.283  LOWER_BOUND=    4.283  UPPER_BOUND=    6.181
INTER + INTRA:          -4.283
INTER:                  -4.283
INTRA:                   0.000
UNBOUND:                 0.000

$$$$

     RDKit          3D

 42 44  0  0  0  0  0  0  0  0999 V2000
   46.6075  -16.6469  -10.8158 C   0  0  0  0  0  0  0  0  0  0  0  0
   46.5954  -16.7321   -9.2558 C   0  0  0  0  0  0  0  0  0  0  0  0
   45.2201  -16.9212  -11.4722 C   0  0  0  0  0  0  0  0  0  0  0  0
   46.0462  -19.2692   -9.4525 C   0  0  0  0  0  0  0  0  0  0  0  0
   45.3452  -19.3668  -10.5921 C   0  0  0  0  0  0  0  0  0  0  0  0
   46.2700  -17.9482   -8.6353 C   0  0  0  0  0  0  0  0  0  0  0  0
   44.6176  -18.1779  -11.3116 C   0  0  0  0  0  0  0  0  0  0  0  0
   47.7472  -16.4438  -11.4922 C   0  0  0  0  0  0  0  0  0  0  0  0
   48.5103  -14.9599  -14.9497 N   0  0  0  0  0  0  0  0  0  0  0  0
   47.9137  -16.4315  -12.9891 C   0  0  0  0  0  0  0  0  0  0  0  0
   44.5370  -15.8914  -12.1277 C   0  0  0  0  0  0  0  0  0  0  0  0
   46.8162  -15.5846   -8.4878 C   0  0  0  0  0  0  0  0  0  0  0  0
   48.1983  -15.0116  -13.5081 C   0  0  0  0  0  0  0  0  0  0  0  0
   43.3394  -18.3985  -11.8345 C   0  0  0  0  0  0  0  0  0  0  0  0
   46.1815  -18.0044   -7.2408 C   0  0  0  0  0  0  0  0  0  0  0  0
   47.3486  -15.3046  -15.7730 C   0  0  0  0  0  0  0  0  0  0  0  0
   48.9879  -13.6216  -15.3086 C   0  0  0  0  0  0  0  0  0  0  0  0
   43.2647  -16.1221  -12.6504 C   0  0  0  0  0  0  0  0  0  0  0  0
   46.7303  -15.6520   -7.0972 C   0  0  0  0  0  0  0  0  0  0  0  0
   46.4123  -16.8593   -6.4750 C   0  0  0  0  0  0  0  0  0  0  0  0
   42.6670  -17.3737  -12.5043 C   0  0  0  0  0  0  0  0  0  0  0  0
   46.5261  -20.1692   -9.0744 H   0  0  0  0  0  0  0  0  0  0  0  0
   45.2948  -20.3403  -11.0745 H   0  0  0  0  0  0  0  0  0  0  0  0
   48.6667  -16.3019  -10.9264 H   0  0  0  0  0  0  0  0  0  0  0  0
   47.0321  -16.8542  -13.4798 H   0  0  0  0  0  0  0  0  0  0  0  0
   48.7523  -17.0924  -13.2421 H   0  0  0  0  0  0  0  0  0  0  0  0
   44.9886  -14.9081  -12.2227 H   0  0  0  0  0  0  0  0  0  0  0  0
   47.0429  -14.6376   -8.9695 H   0  0  0  0  0  0  0  0  0  0  0  0
   49.0624  -14.6241  -12.9509 H   0  0  0  0  0  0  0  0  0  0  0  0
   47.3531  -14.3504  -13.2735 H   0  0  0  0  0  0  0  0  0  0  0  0
   42.8595  -19.3671  -11.7218 H   0  0  0  0  0  0  0  0  0  0  0  0
   45.9332  -18.9383   -6.7433 H   0  0  0  0  0  0  0  0  0  0  0  0
   47.0486  -16.3460  -15.6217 H   0  0  0  0  0  0  0  0  0  0  0  0
   47.5927  -15.2156  -16.8381 H   0  0  0  0  0  0  0  0  0  0  0  0
   46.4879  -14.6589  -15.5648 H   0  0  0  0  0  0  0  0  0  0  0  0
   49.2652  -13.5821  -16.3680 H   0  0  0  0  0  0  0  0  0  0  0  0
   49.8913  -13.3693  -14.7421 H   0  0  0  0  0  0  0  0  0  0  0  0
   48.2338  -12.8489  -15.1195 H   0  0  0  0  0  0  0  0  0  0  0  0
   42.7345  -15.3229  -13.1616 H   0  0  0  0  0  0  0  0  0  0  0  0
   46.9018  -14.7609   -6.4991 H   0  0  0  0  0  0  0  0  0  0  0  0
   46.3406  -16.9091   -5.3916 H   0  0  0  0  0  0  0  0  0  0  0  0
   41.6728  -17.5511  -12.9064 H   0  0  0  0  0  0  0  0  0  0  0  0
  2  1  1  0
  3  1  1  0
  4  6  1  0
  5  7  1  0
  6  2  2  0
  7  3  2  0
  8  1  2  3
  9 13  1  0
 10  8  1  0
 11  3  1  0
 12  2  1  0
 13 10  1  0
 14  7  1  0
 15  6  1  0
 16  9  1  0
 17  9  1  0
 18 11  2  0
 19 12  2  0
 20 19  1  0
 21 18  1  0
  5  4  2  0
 21 14  2  0
 20 15  2  0
  4 22  1  0
  5 23  1  0
  8 24  1  0
 10 25  1  0
 10 26  1  0
 11 27  1  0
 12 28  1  0
 13 29  1  0
 13 30  1  0
 14 31  1  0
 15 32  1  0
 16 33  1  0
 16 34  1  0
 16 35  1  0
 17 36  1  0
 17 37  1  0
 17 38  1  0
 18 39  1  0
 19 40  1  0
 20 41  1  0
 21 42  1  0
M  END
> <Uni-Dock RESULT> 
ENERGY=   -4.241  LOWER_BOUND=    4.917  UPPER_BOUND=    7.130
INTER + INTRA:          -4.241
INTER:                  -4.241
INTRA:                   0.000
UNBOUND:                 0.000

$$$$
