
     RDKit          3D

 42 44  0  0  0  0  0  0  0  0999 V2000
   50.1880  -16.8536   -8.1464 C   0  0  0  0  0  0  0  0  0  0  0  0
   48.7076  -16.8597   -7.6569 C   0  0  0  0  0  0  0  0  0  0  0  0
   51.2235  -16.5350   -7.0207 C   0  0  0  0  0  0  0  0  0  0  0  0
   48.9144  -14.3129   -7.1643 C   0  0  0  0  0  0  0  0  0  0  0  0
   50.2038  -14.1472   -6.8328 C   0  0  0  0  0  0  0  0  0  0  0  0
   48.1445  -15.6795   -7.1486 C   0  0  0  0  0  0  0  0  0  0  0  0
   51.1769  -15.2900   -6.3746 C   0  0  0  0  0  0  0  0  0  0  0  0
   50.5730  -17.0111   -9.4211 C   0  0  0  0  0  0  0  0  0  0  0  0
   49.0522  -18.8935  -12.4014 N   0  0  0  0  0  0  0  0  0  0  0  0
   49.6752  -17.2290  -10.6105 C   0  0  0  0  0  0  0  0  0  0  0  0
   52.1269  -17.5157   -6.5993 C   0  0  0  0  0  0  0  0  0  0  0  0
   47.9814  -18.0550   -7.6298 C   0  0  0  0  0  0  0  0  0  0  0  0
   49.8020  -18.6637  -11.1511 C   0  0  0  0  0  0  0  0  0  0  0  0
   52.0515  -15.0347   -5.3139 C   0  0  0  0  0  0  0  0  0  0  0  0
   46.8425  -15.7042   -6.6384 C   0  0  0  0  0  0  0  0  0  0  0  0
   49.4084  -20.1993  -12.9632 C   0  0  0  0  0  0  0  0  0  0  0  0
   47.6041  -18.8272  -12.1903 C   0  0  0  0  0  0  0  0  0  0  0  0
   52.9986  -17.2497   -5.5434 C   0  0  0  0  0  0  0  0  0  0  0  0
   46.6818  -18.0689   -7.1237 C   0  0  0  0  0  0  0  0  0  0  0  0
   46.1133  -16.8954   -6.6290 C   0  0  0  0  0  0  0  0  0  0  0  0
   52.9600  -16.0120   -4.9010 C   0  0  0  0  0  0  0  0  0  0  0  0
   48.3598  -13.4381   -7.4958 H   0  0  0  0  0  0  0  0  0  0  0  0
   50.6231  -13.1470   -6.9148 H   0  0  0  0  0  0  0  0  0  0  0  0
   51.6352  -16.9482   -9.6525 H   0  0  0  0  0  0  0  0  0  0  0  0
   48.6357  -17.0005  -10.3575 H   0  0  0  0  0  0  0  0  0  0  0  0
   49.9658  -16.5134  -11.3901 H   0  0  0  0  0  0  0  0  0  0  0  0
   52.1453  -18.4884   -7.0827 H   0  0  0  0  0  0  0  0  0  0  0  0
   48.4289  -18.9761   -7.9917 H   0  0  0  0  0  0  0  0  0  0  0  0
   49.4943  -19.3831  -10.3802 H   0  0  0  0  0  0  0  0  0  0  0  0
   50.8674  -18.8498  -11.3450 H   0  0  0  0  0  0  0  0  0  0  0  0
   52.0311  -14.0753   -4.8037 H   0  0  0  0  0  0  0  0  0  0  0  0
   46.3901  -14.7982   -6.2438 H   0  0  0  0  0  0  0  0  0  0  0  0
   48.8915  -20.3636  -13.9155 H   0  0  0  0  0  0  0  0  0  0  0  0
   49.1559  -21.0235  -12.2861 H   0  0  0  0  0  0  0  0  0  0  0  0
   50.4813  -20.2466  -13.1807 H   0  0  0  0  0  0  0  0  0  0  0  0
   47.0698  -19.0451  -13.1225 H   0  0  0  0  0  0  0  0  0  0  0  0
   47.2906  -17.8214  -11.8949 H   0  0  0  0  0  0  0  0  0  0  0  0
   47.2644  -19.5375  -11.4279 H   0  0  0  0  0  0  0  0  0  0  0  0
   53.7014  -18.0110   -5.2149 H   0  0  0  0  0  0  0  0  0  0  0  0
   46.1166  -18.9969   -7.1042 H   0  0  0  0  0  0  0  0  0  0  0  0
   45.1027  -16.9082   -6.2289 H   0  0  0  0  0  0  0  0  0  0  0  0
   53.6365  -15.8081   -4.0749 H   0  0  0  0  0  0  0  0  0  0  0  0
  2  1  1  0
  3  1  1  0
  4  6  1  0
  5  7  1  0
  6  2  2  0
  7  3  2  0
  8  1  2  3
  9 13  1  0
 10  8  1  0
 11  3  1  0
 12  2  1  0
 13 10  1  0
 14  7  1  0
 15  6  1  0
 16  9  1  0
 17  9  1  0
 18 11  2  0
 19 12  2  0
 20 19  1  0
 21 18  1  0
  5  4  2  0
 21 14  2  0
 20 15  2  0
  4 22  1  0
  5 23  1  0
  8 24  1  0
 10 25  1  0
 10 26  1  0
 11 27  1  0
 12 28  1  0
 13 29  1  0
 13 30  1  0
 14 31  1  0
 15 32  1  0
 16 33  1  0
 16 34  1  0
 16 35  1  0
 17 36  1  0
 17 37  1  0
 17 38  1  0
 18 39  1  0
 19 40  1  0
 20 41  1  0
 21 42  1  0
M  END
> <Uni-Dock RESULT> 
ENERGY=   -5.893  LOWER_BOUND=    0.000  UPPER_BOUND=    0.000
INTER + INTRA:          -5.893
INTER:                  -5.893
INTRA:                   0.000
UNBOUND:                 0.000

$$$$

     RDKit          3D

 42 44  0  0  0  0  0  0  0  0999 V2000
   45.9269  -19.2788   -8.7765 C   0  0  0  0  0  0  0  0  0  0  0  0
   46.4276  -17.8730   -8.3247 C   0  0  0  0  0  0  0  0  0  0  0  0
   44.4549  -19.5898   -8.3552 C   0  0  0  0  0  0  0  0  0  0  0  0
   46.2273  -18.6542   -5.8505 C   0  0  0  0  0  0  0  0  0  0  0  0
   45.2119  -19.5309   -5.8652 C   0  0  0  0  0  0  0  0  0  0  0  0
   46.5088  -17.5771   -6.9557 C   0  0  0  0  0  0  0  0  0  0  0  0
   44.1252  -19.6419   -6.9920 C   0  0  0  0  0  0  0  0  0  0  0  0
   46.6840  -20.1999   -9.3899 C   0  0  0  0  0  0  0  0  0  0  0  0
   49.7208  -19.9588  -11.7260 N   0  0  0  0  0  0  0  0  0  0  0  0
   48.1361  -20.0641   -9.7655 C   0  0  0  0  0  0  0  0  0  0  0  0
   43.4591  -19.7228   -9.3280 C   0  0  0  0  0  0  0  0  0  0  0  0
   46.6949  -16.8831   -9.2762 C   0  0  0  0  0  0  0  0  0  0  0  0
   48.3109  -19.9520  -11.2899 C   0  0  0  0  0  0  0  0  0  0  0  0
   42.7934  -19.8413   -6.6157 C   0  0  0  0  0  0  0  0  0  0  0  0
   46.8838  -16.2916   -6.5521 C   0  0  0  0  0  0  0  0  0  0  0  0
   49.7906  -20.0797  -13.1849 C   0  0  0  0  0  0  0  0  0  0  0  0
   50.4311  -18.7511  -11.2981 C   0  0  0  0  0  0  0  0  0  0  0  0
   42.1341  -19.9263   -8.9425 C   0  0  0  0  0  0  0  0  0  0  0  0
   47.0730  -15.6053   -8.8643 C   0  0  0  0  0  0  0  0  0  0  0  0
   47.1674  -15.3101   -7.5046 C   0  0  0  0  0  0  0  0  0  0  0  0
   41.8017  -19.9840   -7.5889 C   0  0  0  0  0  0  0  0  0  0  0  0
   46.9297  -18.7058   -5.0219 H   0  0  0  0  0  0  0  0  0  0  0  0
   45.1481  -20.2454   -5.0476 H   0  0  0  0  0  0  0  0  0  0  0  0
   46.2373  -21.1652   -9.6233 H   0  0  0  0  0  0  0  0  0  0  0  0
   48.5880  -19.2060   -9.2594 H   0  0  0  0  0  0  0  0  0  0  0  0
   48.6659  -20.9517   -9.3973 H   0  0  0  0  0  0  0  0  0  0  0  0
   43.7105  -19.6569  -10.3827 H   0  0  0  0  0  0  0  0  0  0  0  0
   46.5992  -17.1016  -10.3358 H   0  0  0  0  0  0  0  0  0  0  0  0
   47.7977  -19.0544  -11.6608 H   0  0  0  0  0  0  0  0  0  0  0  0
   47.8019  -20.8133  -11.7442 H   0  0  0  0  0  0  0  0  0  0  0  0
   42.5204  -19.8869   -5.5647 H   0  0  0  0  0  0  0  0  0  0  0  0
   46.9548  -16.0465   -5.4957 H   0  0  0  0  0  0  0  0  0  0  0  0
   50.8332  -20.1305  -13.5184 H   0  0  0  0  0  0  0  0  0  0  0  0
   49.3055  -19.2384  -13.6932 H   0  0  0  0  0  0  0  0  0  0  0  0
   49.3128  -21.0076  -13.5188 H   0  0  0  0  0  0  0  0  0  0  0  0
   51.4617  -18.7591  -11.6718 H   0  0  0  0  0  0  0  0  0  0  0  0
   50.5094  -18.7008  -10.2078 H   0  0  0  0  0  0  0  0  0  0  0  0
   49.9450  -17.8366  -11.6564 H   0  0  0  0  0  0  0  0  0  0  0  0
   41.3590  -20.0300   -9.6974 H   0  0  0  0  0  0  0  0  0  0  0  0
   47.2827  -14.8364   -9.6033 H   0  0  0  0  0  0  0  0  0  0  0  0
   47.4560  -14.3123   -7.1842 H   0  0  0  0  0  0  0  0  0  0  0  0
   40.7679  -20.1374   -7.2901 H   0  0  0  0  0  0  0  0  0  0  0  0
  2  1  1  0
  3  1  1  0
  4  6  1  0
  5  7  1  0
  6  2  2  0
  7  3  2  0
  8  1  2  3
  9 13  1  0
 10  8  1  0
 11  3  1  0
 12  2  1  0
 13 10  1  0
 14  7  1  0
 15  6  1  0
 16  9  1  0
 17  9  1  0
 18 11  2  0
 19 12  2  0
 20 19  1  0
 21 18  1  0
  5  4  2  0
 21 14  2  0
 20 15  2  0
  4 22  1  0
  5 23  1  0
  8 24  1  0
 10 25  1  0
 10 26  1  0
 11 27  1  0
 12 28  1  0
 13 29  1  0
 13 30  1  0
 14 31  1  0
 15 32  1  0
 16 33  1  0
 16 34  1  0
 16 35  1  0
 17 36  1  0
 17 37  1  0
 17 38  1  0
 18 39  1  0
 19 40  1  0
 20 41  1  0
 21 42  1  0
M  END
> <Uni-Dock RESULT> 
ENERGY=   -4.937  LOWER_BOUND=    3.253  UPPER_BOUND=    6.170
INTER + INTRA:          -4.937
INTER:                  -4.937
INTRA:                   0.000
UNBOUND:                 0.000

$$$$

     RDKit          3D

 42 44  0  0  0  0  0  0  0  0999 V2000
   50.0169  -17.7729   -8.1803 C   0  0  0  0  0  0  0  0  0  0  0  0
   51.0047  -17.9963   -6.9946 C   0  0  0  0  0  0  0  0  0  0  0  0
   48.6389  -17.1758   -7.7496 C   0  0  0  0  0  0  0  0  0  0  0  0
   49.3771  -19.7909   -6.0448 C   0  0  0  0  0  0  0  0  0  0  0  0
   48.1631  -19.3673   -6.4275 C   0  0  0  0  0  0  0  0  0  0  0  0
   50.6663  -18.9000   -5.9762 C   0  0  0  0  0  0  0  0  0  0  0  0
   47.8133  -17.9061   -6.8808 C   0  0  0  0  0  0  0  0  0  0  0  0
   50.2533  -18.1306   -9.4507 C   0  0  0  0  0  0  0  0  0  0  0  0
   53.4699  -18.4769  -11.5176 N   0  0  0  0  0  0  0  0  0  0  0  0
   51.4953  -18.7980   -9.9801 C   0  0  0  0  0  0  0  0  0  0  0  0
   48.2750  -15.8872   -8.1527 C   0  0  0  0  0  0  0  0  0  0  0  0
   52.1688  -17.2271   -6.8955 C   0  0  0  0  0  0  0  0  0  0  0  0
   52.3160  -17.8365  -10.8568 C   0  0  0  0  0  0  0  0  0  0  0  0
   46.6168  -17.3380   -6.4325 C   0  0  0  0  0  0  0  0  0  0  0  0
   51.5161  -19.0425   -4.8745 C   0  0  0  0  0  0  0  0  0  0  0  0
   54.0532  -17.5599  -12.5007 C   0  0  0  0  0  0  0  0  0  0  0  0
   54.4959  -18.8823  -10.5537 C   0  0  0  0  0  0  0  0  0  0  0  0
   47.0771  -15.3311   -7.7039 C   0  0  0  0  0  0  0  0  0  0  0  0
   53.0128  -17.3797   -5.7956 C   0  0  0  0  0  0  0  0  0  0  0  0
   52.6870  -18.2860   -4.7869 C   0  0  0  0  0  0  0  0  0  0  0  0
   46.2503  -16.0547   -6.8443 C   0  0  0  0  0  0  0  0  0  0  0  0
   49.4888  -20.8410   -5.7845 H   0  0  0  0  0  0  0  0  0  0  0  0
   47.3579  -20.0979   -6.4570 H   0  0  0  0  0  0  0  0  0  0  0  0
   49.4719  -17.9614  -10.1900 H   0  0  0  0  0  0  0  0  0  0  0  0
   52.1038  -19.1894   -9.1595 H   0  0  0  0  0  0  0  0  0  0  0  0
   51.1860  -19.6670  -10.5745 H   0  0  0  0  0  0  0  0  0  0  0  0
   48.9264  -15.3120   -8.8046 H   0  0  0  0  0  0  0  0  0  0  0  0
   52.4141  -16.5027   -7.6668 H   0  0  0  0  0  0  0  0  0  0  0  0
   52.6438  -16.9737  -10.2612 H   0  0  0  0  0  0  0  0  0  0  0  0
   51.6445  -17.4437  -11.6328 H   0  0  0  0  0  0  0  0  0  0  0  0
   45.9640  -17.8902   -5.7616 H   0  0  0  0  0  0  0  0  0  0  0  0
   51.2707  -19.7404   -4.0784 H   0  0  0  0  0  0  0  0  0  0  0  0
   54.8841  -18.0396  -13.0302 H   0  0  0  0  0  0  0  0  0  0  0  0
   54.4244  -16.6385  -12.0374 H   0  0  0  0  0  0  0  0  0  0  0  0
   53.3141  -17.2901  -13.2634 H   0  0  0  0  0  0  0  0  0  0  0  0
   55.3604  -19.3137  -11.0718 H   0  0  0  0  0  0  0  0  0  0  0  0
   54.1266  -19.6662   -9.8855 H   0  0  0  0  0  0  0  0  0  0  0  0
   54.8472  -18.0411   -9.9453 H   0  0  0  0  0  0  0  0  0  0  0  0
   46.7929  -14.3296   -8.0164 H   0  0  0  0  0  0  0  0  0  0  0  0
   53.9183  -16.7837   -5.7192 H   0  0  0  0  0  0  0  0  0  0  0  0
   53.3419  -18.4000   -3.9269 H   0  0  0  0  0  0  0  0  0  0  0  0
   45.3195  -15.6179   -6.4913 H   0  0  0  0  0  0  0  0  0  0  0  0
  2  1  1  0
  3  1  1  0
  4  6  1  0
  5  7  1  0
  6  2  2  0
  7  3  2  0
  8  1  2  3
  9 13  1  0
 10  8  1  0
 11  3  1  0
 12  2  1  0
 13 10  1  0
 14  7  1  0
 15  6  1  0
 16  9  1  0
 17  9  1  0
 18 11  2  0
 19 12  2  0
 20 19  1  0
 21 18  1  0
  5  4  2  0
 21 14  2  0
 20 15  2  0
  4 22  1  0
  5 23  1  0
  8 24  1  0
 10 25  1  0
 10 26  1  0
 11 27  1  0
 12 28  1  0
 13 29  1  0
 13 30  1  0
 14 31  1  0
 15 32  1  0
 16 33  1  0
 16 34  1  0
 16 35  1  0
 17 36  1  0
 17 37  1  0
 17 38  1  0
 18 39  1  0
 19 40  1  0
 20 41  1  0
 21 42  1  0
M  END
> <Uni-Dock RESULT> 
ENERGY=   -4.588  LOWER_BOUND=    2.210  UPPER_BOUND=    4.991
INTER + INTRA:          -4.588
INTER:                  -4.588
INTRA:                   0.000
UNBOUND:                 0.000

$$$$

     RDKit          3D

 42 44  0  0  0  0  0  0  0  0999 V2000
   47.1426  -16.4197   -9.8515 C   0  0  0  0  0  0  0  0  0  0  0  0
   46.0488  -17.3642   -9.2661 C   0  0  0  0  0  0  0  0  0  0  0  0
   48.5559  -16.6215   -9.2169 C   0  0  0  0  0  0  0  0  0  0  0  0
   46.3095  -16.1601   -6.9739 C   0  0  0  0  0  0  0  0  0  0  0  0
   47.5969  -15.7837   -6.9464 C   0  0  0  0  0  0  0  0  0  0  0  0
   45.7108  -17.2693   -7.9077 C   0  0  0  0  0  0  0  0  0  0  0  0
   48.7360  -16.3802   -7.8461 C   0  0  0  0  0  0  0  0  0  0  0  0
   46.9154  -15.4501  -10.7493 C   0  0  0  0  0  0  0  0  0  0  0  0
   44.3188  -15.0274  -13.5453 N   0  0  0  0  0  0  0  0  0  0  0  0
   45.5897  -15.0897  -11.3665 C   0  0  0  0  0  0  0  0  0  0  0  0
   49.6070  -17.1259   -9.9891 C   0  0  0  0  0  0  0  0  0  0  0  0
   45.4844  -18.3650  -10.0639 C   0  0  0  0  0  0  0  0  0  0  0  0
   45.5398  -15.4835  -12.8529 C   0  0  0  0  0  0  0  0  0  0  0  0
   49.9805  -16.6366   -7.2624 C   0  0  0  0  0  0  0  0  0  0  0  0
   44.7862  -18.1679   -7.3658 C   0  0  0  0  0  0  0  0  0  0  0  0
   44.4557  -15.2398  -14.9888 C   0  0  0  0  0  0  0  0  0  0  0  0
   43.1231  -15.7192  -13.0575 C   0  0  0  0  0  0  0  0  0  0  0  0
   50.8461  -17.3740   -9.3985 C   0  0  0  0  0  0  0  0  0  0  0  0
   44.5593  -19.2535   -9.5159 C   0  0  0  0  0  0  0  0  0  0  0  0
   44.2107  -19.1549   -8.1691 C   0  0  0  0  0  0  0  0  0  0  0  0
   51.0320  -17.1311   -8.0375 C   0  0  0  0  0  0  0  0  0  0  0  0
   45.6154  -15.6410   -6.3170 H   0  0  0  0  0  0  0  0  0  0  0  0
   47.8749  -14.9795   -6.2689 H   0  0  0  0  0  0  0  0  0  0  0  0
   47.7511  -14.8237  -11.0574 H   0  0  0  0  0  0  0  0  0  0  0  0
   44.7671  -15.5540  -10.8147 H   0  0  0  0  0  0  0  0  0  0  0  0
   45.4530  -14.0055  -11.2668 H   0  0  0  0  0  0  0  0  0  0  0  0
   49.4600  -17.3368  -11.0445 H   0  0  0  0  0  0  0  0  0  0  0  0
   45.7710  -18.4607  -11.1072 H   0  0  0  0  0  0  0  0  0  0  0  0
   45.6576  -16.5707  -12.9566 H   0  0  0  0  0  0  0  0  0  0  0  0
   46.4098  -15.0264  -13.3443 H   0  0  0  0  0  0  0  0  0  0  0  0
   50.1386  -16.4532   -6.2029 H   0  0  0  0  0  0  0  0  0  0  0  0
   44.5108  -18.1061   -6.3163 H   0  0  0  0  0  0  0  0  0  0  0  0
   43.5733  -14.8645  -15.5194 H   0  0  0  0  0  0  0  0  0  0  0  0
   44.5861  -16.2987  -15.2404 H   0  0  0  0  0  0  0  0  0  0  0  0
   45.3137  -14.6828  -15.3815 H   0  0  0  0  0  0  0  0  0  0  0  0
   42.2375  -15.3963  -13.6172 H   0  0  0  0  0  0  0  0  0  0  0  0
   42.9205  -15.4737  -12.0106 H   0  0  0  0  0  0  0  0  0  0  0  0
   43.2081  -16.8079  -13.1513 H   0  0  0  0  0  0  0  0  0  0  0  0
   51.6640  -17.7660   -9.9974 H   0  0  0  0  0  0  0  0  0  0  0  0
   44.1191  -20.0300  -10.1359 H   0  0  0  0  0  0  0  0  0  0  0  0
   43.4945  -19.8516   -7.7411 H   0  0  0  0  0  0  0  0  0  0  0  0
   51.9968  -17.3298   -7.5776 H   0  0  0  0  0  0  0  0  0  0  0  0
  2  1  1  0
  3  1  1  0
  4  6  1  0
  5  7  1  0
  6  2  2  0
  7  3  2  0
  8  1  2  3
  9 13  1  0
 10  8  1  0
 11  3  1  0
 12  2  1  0
 13 10  1  0
 14  7  1  0
 15  6  1  0
 16  9  1  0
 17  9  1  0
 18 11  2  0
 19 12  2  0
 20 19  1  0
 21 18  1  0
  5  4  2  0
 21 14  2  0
 20 15  2  0
  4 22  1  0
  5 23  1  0
  8 24  1  0
 10 25  1  0
 10 26  1  0
 11 27  1  0
 12 28  1  0
 13 29  1  0
 13 30  1  0
 14 31  1  0
 15 32  1  0
 16 33  1  0
 16 34  1  0
 16 35  1  0
 17 36  1  0
 17 37  1  0
 17 38  1  0
 18 39  1  0
 19 40  1  0
 20 41  1  0
 21 42  1  0
M  END
> <Uni-Dock RESULT> 
ENERGY=   -4.101  LOWER_BOUND=    3.078  UPPER_BOUND=    4.220
INTER + INTRA:          -4.101
INTER:                  -4.101
INTRA:                   0.000
UNBOUND:                 0.000

$$$$

     RDKit          3D

 42 44  0  0  0  0  0  0  0  0999 V2000
   47.6543  -16.5934  -10.8306 C   0  0  0  0  0  0  0  0  0  0  0  0
   47.4073  -16.4489   -9.2978 C   0  0  0  0  0  0  0  0  0  0  0  0
   46.5602  -15.9113  -11.7131 C   0  0  0  0  0  0  0  0  0  0  0  0
   45.2658  -17.9042   -9.5583 C   0  0  0  0  0  0  0  0  0  0  0  0
   44.8283  -17.6246  -10.7952 C   0  0  0  0  0  0  0  0  0  0  0  0
   46.2588  -17.0182   -8.7277 C   0  0  0  0  0  0  0  0  0  0  0  0
   45.2339  -16.3641  -11.6377 C   0  0  0  0  0  0  0  0  0  0  0  0
   48.6483  -17.3049  -11.3817 C   0  0  0  0  0  0  0  0  0  0  0  0
   52.1885  -18.2062  -10.2016 N   0  0  0  0  0  0  0  0  0  0  0  0
   49.7084  -18.0844  -10.6491 C   0  0  0  0  0  0  0  0  0  0  0  0
   46.8837  -14.8014  -12.4997 C   0  0  0  0  0  0  0  0  0  0  0  0
   48.2696  -15.6717   -8.5174 C   0  0  0  0  0  0  0  0  0  0  0  0
   51.0864  -17.4130  -10.7798 C   0  0  0  0  0  0  0  0  0  0  0  0
   44.2410  -15.7028  -12.3671 C   0  0  0  0  0  0  0  0  0  0  0  0
   45.9981  -16.8225   -7.3676 C   0  0  0  0  0  0  0  0  0  0  0  0
   53.4765  -17.6111  -10.5684 C   0  0  0  0  0  0  0  0  0  0  0  0
   52.0876  -18.3003   -8.7432 C   0  0  0  0  0  0  0  0  0  0  0  0
   45.8869  -14.1514  -13.2275 C   0  0  0  0  0  0  0  0  0  0  0  0
   48.0043  -15.4862   -7.1607 C   0  0  0  0  0  0  0  0  0  0  0  0
   46.8705  -16.0608   -6.5869 C   0  0  0  0  0  0  0  0  0  0  0  0
   44.5679  -14.6004  -13.1602 C   0  0  0  0  0  0  0  0  0  0  0  0
   44.9290  -18.8307   -9.0988 H   0  0  0  0  0  0  0  0  0  0  0  0
   44.1615  -18.3405  -11.2704 H   0  0  0  0  0  0  0  0  0  0  0  0
   48.6992  -17.3682  -12.4675 H   0  0  0  0  0  0  0  0  0  0  0  0
   49.4374  -18.2116   -9.5969 H   0  0  0  0  0  0  0  0  0  0  0  0
   49.7464  -19.0928  -11.0804 H   0  0  0  0  0  0  0  0  0  0  0  0
   47.9058  -14.4354  -12.5379 H   0  0  0  0  0  0  0  0  0  0  0  0
   49.1407  -15.2023   -8.9654 H   0  0  0  0  0  0  0  0  0  0  0  0
   51.0584  -16.4101  -10.3326 H   0  0  0  0  0  0  0  0  0  0  0  0
   51.2840  -17.2721  -11.8515 H   0  0  0  0  0  0  0  0  0  0  0  0
   43.2092  -16.0412  -12.3227 H   0  0  0  0  0  0  0  0  0  0  0  0
   45.1147  -17.2593   -6.9095 H   0  0  0  0  0  0  0  0  0  0  0  0
   54.3048  -18.2158  -10.1821 H   0  0  0  0  0  0  0  0  0  0  0  0
   53.5849  -16.5904  -10.1838 H   0  0  0  0  0  0  0  0  0  0  0  0
   53.5936  -17.5847  -11.6576 H   0  0  0  0  0  0  0  0  0  0  0  0
   52.9401  -18.8551   -8.3343 H   0  0  0  0  0  0  0  0  0  0  0  0
   51.1960  -18.8581   -8.4411 H   0  0  0  0  0  0  0  0  0  0  0  0
   52.0614  -17.3140   -8.2660 H   0  0  0  0  0  0  0  0  0  0  0  0
   46.1368  -13.2885  -13.8394 H   0  0  0  0  0  0  0  0  0  0  0  0
   48.6751  -14.8841   -6.5536 H   0  0  0  0  0  0  0  0  0  0  0  0
   46.6608  -15.9107   -5.5309 H   0  0  0  0  0  0  0  0  0  0  0  0
   43.7913  -14.0896  -13.7238 H   0  0  0  0  0  0  0  0  0  0  0  0
  2  1  1  0
  3  1  1  0
  4  6  1  0
  5  7  1  0
  6  2  2  0
  7  3  2  0
  8  1  2  3
  9 13  1  0
 10  8  1  0
 11  3  1  0
 12  2  1  0
 13 10  1  0
 14  7  1  0
 15  6  1  0
 16  9  1  0
 17  9  1  0
 18 11  2  0
 19 12  2  0
 20 19  1  0
 21 18  1  0
  5  4  2  0
 21 14  2  0
 20 15  2  0
  4 22  1  0
  5 23  1  0
  8 24  1  0
 10 25  1  0
 10 26  1  0
 11 27  1  0
 12 28  1  0
 13 29  1  0
 13 30  1  0
 14 31  1  0
 15 32  1  0
 16 33  1  0
 16 34  1  0
 16 35  1  0
 17 36  1  0
 17 37  1  0
 17 38  1  0
 18 39  1  0
 19 40  1  0
 20 41  1  0
 21 42  1  0
M  END
> <Uni-Dock RESULT> 
ENERGY=   -4.085  LOWER_BOUND=    2.946  UPPER_BOUND=    6.058
INTER + INTRA:          -4.085
INTER:                  -4.085
INTRA:                   0.000
UNBOUND:                 0.000

$$$$

     RDKit          3D

 42 44  0  0  0  0  0  0  0  0999 V2000
   46.6353  -16.0181  -10.6530 C   0  0  0  0  0  0  0  0  0  0  0  0
   47.5946  -16.9752  -11.4245 C   0  0  0  0  0  0  0  0  0  0  0  0
   46.5095  -16.3437   -9.1302 C   0  0  0  0  0  0  0  0  0  0  0  0
   45.9478  -18.9313  -10.9411 C   0  0  0  0  0  0  0  0  0  0  0  0
   45.3950  -18.6101   -9.7617 C   0  0  0  0  0  0  0  0  0  0  0  0
   47.2890  -18.3423  -11.5022 C   0  0  0  0  0  0  0  0  0  0  0  0
   45.9863  -17.5837   -8.7321 C   0  0  0  0  0  0  0  0  0  0  0  0
   45.8983  -15.0526  -11.2209 C   0  0  0  0  0  0  0  0  0  0  0  0
   46.3922  -12.8785  -14.3462 N   0  0  0  0  0  0  0  0  0  0  0  0
   45.8543  -14.6991  -12.6842 C   0  0  0  0  0  0  0  0  0  0  0  0
   46.9993  -15.4453   -8.1771 C   0  0  0  0  0  0  0  0  0  0  0  0
   48.7996  -16.4922  -11.9454 C   0  0  0  0  0  0  0  0  0  0  0  0
   46.5295  -13.3429  -12.9520 C   0  0  0  0  0  0  0  0  0  0  0  0
   45.9473  -17.9069   -7.3722 C   0  0  0  0  0  0  0  0  0  0  0  0
   48.1882  -19.2123  -12.1272 C   0  0  0  0  0  0  0  0  0  0  0  0
   46.8566  -11.4930  -14.4579 C   0  0  0  0  0  0  0  0  0  0  0  0
   47.1393  -13.7245  -15.2802 C   0  0  0  0  0  0  0  0  0  0  0  0
   46.9516  -15.7749   -6.8225 C   0  0  0  0  0  0  0  0  0  0  0  0
   49.6878  -17.3665  -12.5715 C   0  0  0  0  0  0  0  0  0  0  0  0
   49.3825  -18.7243  -12.6623 C   0  0  0  0  0  0  0  0  0  0  0  0
   46.4278  -17.0039   -6.4210 C   0  0  0  0  0  0  0  0  0  0  0  0
   45.4156  -19.6367  -11.5751 H   0  0  0  0  0  0  0  0  0  0  0  0
   44.4446  -19.0725   -9.5053 H   0  0  0  0  0  0  0  0  0  0  0  0
   45.2312  -14.4703  -10.5873 H   0  0  0  0  0  0  0  0  0  0  0  0
   46.3154  -15.4873  -13.2867 H   0  0  0  0  0  0  0  0  0  0  0  0
   44.8016  -14.6545  -12.9906 H   0  0  0  0  0  0  0  0  0  0  0  0
   47.4277  -14.4964   -8.4871 H   0  0  0  0  0  0  0  0  0  0  0  0
   49.0525  -15.4397  -11.8555 H   0  0  0  0  0  0  0  0  0  0  0  0
   47.5886  -13.3882  -12.6642 H   0  0  0  0  0  0  0  0  0  0  0  0
   46.0571  -12.6033  -12.2908 H   0  0  0  0  0  0  0  0  0  0  0  0
   45.5432  -18.8615   -7.0458 H   0  0  0  0  0  0  0  0  0  0  0  0
   47.9654  -20.2736  -12.1990 H   0  0  0  0  0  0  0  0  0  0  0  0
   46.7188  -11.1211  -15.4795 H   0  0  0  0  0  0  0  0  0  0  0  0
   47.9148  -11.3889  -14.1919 H   0  0  0  0  0  0  0  0  0  0  0  0
   46.2699  -10.8353  -13.8069 H   0  0  0  0  0  0  0  0  0  0  0  0
   47.0584  -13.3337  -16.3012 H   0  0  0  0  0  0  0  0  0  0  0  0
   46.7282  -14.7380  -15.3151 H   0  0  0  0  0  0  0  0  0  0  0  0
   48.2025  -13.7870  -15.0217 H   0  0  0  0  0  0  0  0  0  0  0  0
   47.3318  -15.0776   -6.0806 H   0  0  0  0  0  0  0  0  0  0  0  0
   50.6232  -16.9913  -12.9781 H   0  0  0  0  0  0  0  0  0  0  0  0
   50.0780  -19.4063  -13.1448 H   0  0  0  0  0  0  0  0  0  0  0  0
   46.3961  -17.2615   -5.3654 H   0  0  0  0  0  0  0  0  0  0  0  0
  2  1  1  0
  3  1  1  0
  4  6  1  0
  5  7  1  0
  6  2  2  0
  7  3  2  0
  8  1  2  3
  9 13  1  0
 10  8  1  0
 11  3  1  0
 12  2  1  0
 13 10  1  0
 14  7  1  0
 15  6  1  0
 16  9  1  0
 17  9  1  0
 18 11  2  0
 19 12  2  0
 20 19  1  0
 21 18  1  0
  5  4  2  0
 21 14  2  0
 20 15  2  0
  4 22  1  0
  5 23  1  0
  8 24  1  0
 10 25  1  0
 10 26  1  0
 11 27  1  0
 12 28  1  0
 13 29  1  0
 13 30  1  0
 14 31  1  0
 15 32  1  0
 16 33  1  0
 16 34  1  0
 16 35  1  0
 17 36  1  0
 17 37  1  0
 17 38  1  0
 18 39  1  0
 19 40  1  0
 20 41  1  0
 21 42  1  0
M  END
> <Uni-Dock RESULT> 
ENERGY=   -3.931  LOWER_BOUND=    3.678  UPPER_BOUND=    6.214
INTER + INTRA:          -3.931
INTER:                  -3.931
INTRA:                   0.000
UNBOUND:                 0.000

$$$$

     RDKit          3D

 42 44  0  0  0  0  0  0  0  0999 V2000
   43.7915  -14.4050  -13.4108 C   0  0  0  0  0  0  0  0  0  0  0  0
   44.4255  -15.4157  -12.4070 C   0  0  0  0  0  0  0  0  0  0  0  0
   42.3218  -14.0065  -13.0614 C   0  0  0  0  0  0  0  0  0  0  0  0
   42.6859  -17.1915  -13.1766 C   0  0  0  0  0  0  0  0  0  0  0  0
   41.6050  -16.4691  -13.5074 C   0  0  0  0  0  0  0  0  0  0  0  0
   43.8636  -16.6937  -12.2678 C   0  0  0  0  0  0  0  0  0  0  0  0
   41.3248  -14.9941  -13.0500 C   0  0  0  0  0  0  0  0  0  0  0  0
   44.3838  -13.9652  -14.5305 C   0  0  0  0  0  0  0  0  0  0  0  0
   48.0565  -13.4334  -15.5136 N   0  0  0  0  0  0  0  0  0  0  0  0
   45.7533  -14.3431  -15.0305 C   0  0  0  0  0  0  0  0  0  0  0  0
   42.0224  -12.6965  -12.6743 C   0  0  0  0  0  0  0  0  0  0  0  0
   45.4803  -15.0163  -11.5797 C   0  0  0  0  0  0  0  0  0  0  0  0
   46.7369  -13.1665  -14.9089 C   0  0  0  0  0  0  0  0  0  0  0  0
   40.0259  -14.6529  -12.6604 C   0  0  0  0  0  0  0  0  0  0  0  0
   44.3843  -17.5724  -11.3124 C   0  0  0  0  0  0  0  0  0  0  0  0
   48.8435  -12.1979  -15.5578 C   0  0  0  0  0  0  0  0  0  0  0  0
   48.7966  -14.4619  -14.7785 C   0  0  0  0  0  0  0  0  0  0  0  0
   40.7226  -12.3650  -12.2919 C   0  0  0  0  0  0  0  0  0  0  0  0
   45.9965  -15.9012  -10.6331 C   0  0  0  0  0  0  0  0  0  0  0  0
   45.4494  -17.1771  -10.4998 C   0  0  0  0  0  0  0  0  0  0  0  0
   39.7266  -13.3417  -12.2837 C   0  0  0  0  0  0  0  0  0  0  0  0
   42.7711  -18.1942  -13.5890 H   0  0  0  0  0  0  0  0  0  0  0  0
   40.8739  -16.9262  -14.1704 H   0  0  0  0  0  0  0  0  0  0  0  0
   43.8282  -13.2896  -15.1789 H   0  0  0  0  0  0  0  0  0  0  0  0
   46.1310  -15.2208  -14.4977 H   0  0  0  0  0  0  0  0  0  0  0  0
   45.6600  -14.6394  -16.0829 H   0  0  0  0  0  0  0  0  0  0  0  0
   42.7999  -11.9380  -12.6586 H   0  0  0  0  0  0  0  0  0  0  0  0
   45.8935  -14.0153  -11.6634 H   0  0  0  0  0  0  0  0  0  0  0  0
   46.8480  -12.8783  -13.8548 H   0  0  0  0  0  0  0  0  0  0  0  0
   46.2864  -12.3059  -15.4225 H   0  0  0  0  0  0  0  0  0  0  0  0
   39.2408  -15.4043  -12.6481 H   0  0  0  0  0  0  0  0  0  0  0  0
   43.9630  -18.5671  -11.1938 H   0  0  0  0  0  0  0  0  0  0  0  0
   49.8093  -12.3729  -16.0451 H   0  0  0  0  0  0  0  0  0  0  0  0
   49.0297  -11.7902  -14.5575 H   0  0  0  0  0  0  0  0  0  0  0  0
   48.3301  -11.4340  -16.1525 H   0  0  0  0  0  0  0  0  0  0  0  0
   49.7893  -14.6098  -15.2195 H   0  0  0  0  0  0  0  0  0  0  0  0
   48.2955  -15.4327  -14.8392 H   0  0  0  0  0  0  0  0  0  0  0  0
   48.9278  -14.2015  -13.7220 H   0  0  0  0  0  0  0  0  0  0  0  0
   40.4883  -11.3472  -11.9908 H   0  0  0  0  0  0  0  0  0  0  0  0
   46.8173  -15.5920   -9.9915 H   0  0  0  0  0  0  0  0  0  0  0  0
   45.8479  -17.8641   -9.7576 H   0  0  0  0  0  0  0  0  0  0  0  0
   38.7153  -13.0829  -11.9804 H   0  0  0  0  0  0  0  0  0  0  0  0
  2  1  1  0
  3  1  1  0
  4  6  1  0
  5  7  1  0
  6  2  2  0
  7  3  2  0
  8  1  2  3
  9 13  1  0
 10  8  1  0
 11  3  1  0
 12  2  1  0
 13 10  1  0
 14  7  1  0
 15  6  1  0
 16  9  1  0
 17  9  1  0
 18 11  2  0
 19 12  2  0
 20 19  1  0
 21 18  1  0
  5  4  2  0
 21 14  2  0
 20 15  2  0
  4 22  1  0
  5 23  1  0
  8 24  1  0
 10 25  1  0
 10 26  1  0
 11 27  1  0
 12 28  1  0
 13 29  1  0
 13 30  1  0
 14 31  1  0
 15 32  1  0
 16 33  1  0
 16 34  1  0
 16 35  1  0
 17 36  1  0
 17 37  1  0
 17 38  1  0
 18 39  1  0
 19 40  1  0
 20 41  1  0
 21 42  1  0
M  END
> <Uni-Dock RESULT> 
ENERGY=   -3.848  LOWER_BOUND=    6.353  UPPER_BOUND=    9.403
INTER + INTRA:          -3.848
INTER:                  -3.848
INTRA:                   0.000
UNBOUND:                 0.000

$$$$

     RDKit          3D

 42 44  0  0  0  0  0  0  0  0999 V2000
   45.8609  -19.2756   -8.8379 C   0  0  0  0  0  0  0  0  0  0  0  0
   46.3993  -17.8798   -8.3983 C   0  0  0  0  0  0  0  0  0  0  0  0
   44.4066  -19.5731   -8.3506 C   0  0  0  0  0  0  0  0  0  0  0  0
   46.3056  -18.6807   -5.9241 C   0  0  0  0  0  0  0  0  0  0  0  0
   45.2802  -19.5453   -5.8984 C   0  0  0  0  0  0  0  0  0  0  0  0
   46.5481  -17.5972   -7.0322 C   0  0  0  0  0  0  0  0  0  0  0  0
   44.1406  -19.6335   -6.9739 C   0  0  0  0  0  0  0  0  0  0  0  0
   46.5773  -20.2000   -9.4938 C   0  0  0  0  0  0  0  0  0  0  0  0
   49.5041  -19.9735  -11.9679 N   0  0  0  0  0  0  0  0  0  0  0  0
   48.0118  -20.0778   -9.9361 C   0  0  0  0  0  0  0  0  0  0  0  0
   43.3649  -19.6858   -9.2766 C   0  0  0  0  0  0  0  0  0  0  0  0
   46.6336  -16.8846   -9.3530 C   0  0  0  0  0  0  0  0  0  0  0  0
   48.1163  -19.9541  -11.4660 C   0  0  0  0  0  0  0  0  0  0  0  0
   42.8255  -19.8207   -6.5372 C   0  0  0  0  0  0  0  0  0  0  0  0
   46.9571  -16.3198   -6.6359 C   0  0  0  0  0  0  0  0  0  0  0  0
   49.5039  -20.0822  -13.4293 C   0  0  0  0  0  0  0  0  0  0  0  0
   50.2482  -18.7781  -11.5636 C   0  0  0  0  0  0  0  0  0  0  0  0
   42.0570  -19.8771   -8.8311 C   0  0  0  0  0  0  0  0  0  0  0  0
   47.0461  -15.6151   -8.9486 C   0  0  0  0  0  0  0  0  0  0  0  0
   47.2077  -15.3332   -7.5924 C   0  0  0  0  0  0  0  0  0  0  0  0
   41.7877  -19.9431   -7.4639 C   0  0  0  0  0  0  0  0  0  0  0  0
   47.0454  -18.7480   -5.1298 H   0  0  0  0  0  0  0  0  0  0  0  0
   45.2460  -20.2663   -5.0848 H   0  0  0  0  0  0  0  0  0  0  0  0
   46.1085  -21.1578   -9.7141 H   0  0  0  0  0  0  0  0  0  0  0  0
   48.4972  -19.2296   -9.4445 H   0  0  0  0  0  0  0  0  0  0  0  0
   48.5474  -20.9748   -9.6006 H   0  0  0  0  0  0  0  0  0  0  0  0
   43.5674  -19.6133  -10.3414 H   0  0  0  0  0  0  0  0  0  0  0  0
   46.4858  -17.0926  -10.4088 H   0  0  0  0  0  0  0  0  0  0  0  0
   47.5972  -19.0473  -11.8049 H   0  0  0  0  0  0  0  0  0  0  0  0
   47.5762  -20.8054  -11.9031 H   0  0  0  0  0  0  0  0  0  0  0  0
   42.6015  -19.8725   -5.4750 H   0  0  0  0  0  0  0  0  0  0  0  0
   47.0805  -16.0850   -5.5820 H   0  0  0  0  0  0  0  0  0  0  0  0
   50.5291  -20.1422  -13.8118 H   0  0  0  0  0  0  0  0  0  0  0  0
   49.0058  -19.2307  -13.9073 H   0  0  0  0  0  0  0  0  0  0  0  0
   48.9999  -21.0014  -13.7483 H   0  0  0  0  0  0  0  0  0  0  0  0
   51.2600  -18.7948  -11.9853 H   0  0  0  0  0  0  0  0  0  0  0  0
   50.3781  -18.7385  -10.4778 H   0  0  0  0  0  0  0  0  0  0  0  0
   49.7570  -17.8548  -11.8910 H   0  0  0  0  0  0  0  0  0  0  0  0
   41.2462  -19.9650   -9.5497 H   0  0  0  0  0  0  0  0  0  0  0  0
   47.2302  -14.8422   -9.6902 H   0  0  0  0  0  0  0  0  0  0  0  0
   47.5230  -14.3418   -7.2775 H   0  0  0  0  0  0  0  0  0  0  0  0
   40.7672  -20.0870   -7.1182 H   0  0  0  0  0  0  0  0  0  0  0  0
  2  1  1  0
  3  1  1  0
  4  6  1  0
  5  7  1  0
  6  2  2  0
  7  3  2  0
  8  1  2  3
  9 13  1  0
 10  8  1  0
 11  3  1  0
 12  2  1  0
 13 10  1  0
 14  7  1  0
 15  6  1  0
 16  9  1  0
 17  9  1  0
 18 11  2  0
 19 12  2  0
 20 19  1  0
 21 18  1  0
  5  4  2  0
 21 14  2  0
 20 15  2  0
  4 22  1  0
  5 23  1  0
  8 24  1  0
 10 25  1  0
 10 26  1  0
 11 27  1  0
 12 28  1  0
 13 29  1  0
 13 30  1  0
 14 31  1  0
 15 32  1  0
 16 33  1  0
 16 34  1  0
 16 35  1  0
 17 36  1  0
 17 37  1  0
 17 38  1  0
 18 39  1  0
 19 40  1  0
 20 41  1  0
 21 42  1  0
M  END
> <Uni-Dock RESULT> 
ENERGY=   -3.054  LOWER_BOUND=    3.249  UPPER_BOUND=    6.174
INTER + INTRA:          -3.054
INTER:                  -3.054
INTRA:                   0.000
UNBOUND:                 0.000

$$$$
