
     RDKit          3D

 42 44  0  0  0  0  0  0  0  0999 V2000
   50.2574  -17.0836   -7.8857 C   0  0  0  0  0  0  0  0  0  0  0  0
   51.2484  -16.5425   -6.8052 C   0  0  0  0  0  0  0  0  0  0  0  0
   48.7682  -17.0837   -7.4265 C   0  0  0  0  0  0  0  0  0  0  0  0
   50.1219  -14.2056   -7.0229 C   0  0  0  0  0  0  0  0  0  0  0  0
   48.8498  -14.4838   -7.3462 C   0  0  0  0  0  0  0  0  0  0  0  0
   51.1323  -15.2135   -6.3692 C   0  0  0  0  0  0  0  0  0  0  0  0
   48.1415  -15.8658   -7.1224 C   0  0  0  0  0  0  0  0  0  0  0  0
   50.6818  -17.3911   -9.1197 C   0  0  0  0  0  0  0  0  0  0  0  0
   48.9619  -17.1173  -12.5405 N   0  0  0  0  0  0  0  0  0  0  0  0
   49.8352  -17.8324  -10.2846 C   0  0  0  0  0  0  0  0  0  0  0  0
   48.0974  -18.2925   -7.2158 C   0  0  0  0  0  0  0  0  0  0  0  0
   52.1823  -17.4003   -6.2162 C   0  0  0  0  0  0  0  0  0  0  0  0
   49.8141  -16.7603  -11.3890 C   0  0  0  0  0  0  0  0  0  0  0  0
   46.8321  -15.8707   -6.6313 C   0  0  0  0  0  0  0  0  0  0  0  0
   51.9682  -14.7515   -5.3479 C   0  0  0  0  0  0  0  0  0  0  0  0
   48.7837  -15.9502  -13.4084 C   0  0  0  0  0  0  0  0  0  0  0  0
   49.5211  -18.2268  -13.3145 C   0  0  0  0  0  0  0  0  0  0  0  0
   46.7897  -18.2877   -6.7305 C   0  0  0  0  0  0  0  0  0  0  0  0
   53.0150  -16.9287   -5.2014 C   0  0  0  0  0  0  0  0  0  0  0  0
   52.9072  -15.6073   -4.7673 C   0  0  0  0  0  0  0  0  0  0  0  0
   46.1582  -17.0789   -6.4388 C   0  0  0  0  0  0  0  0  0  0  0  0
   50.4982  -13.2123   -7.2563 H   0  0  0  0  0  0  0  0  0  0  0  0
   48.2642  -13.7017   -7.8237 H   0  0  0  0  0  0  0  0  0  0  0  0
   51.7456  -17.3021   -9.3337 H   0  0  0  0  0  0  0  0  0  0  0  0
   50.2627  -18.7684  -10.6606 H   0  0  0  0  0  0  0  0  0  0  0  0
   48.8081  -18.0572   -9.9799 H   0  0  0  0  0  0  0  0  0  0  0  0
   48.5929  -19.2367   -7.4238 H   0  0  0  0  0  0  0  0  0  0  0  0
   52.2535  -18.4360   -6.5366 H   0  0  0  0  0  0  0  0  0  0  0  0
   49.4268  -15.8362  -10.9380 H   0  0  0  0  0  0  0  0  0  0  0  0
   50.8377  -16.5411  -11.7224 H   0  0  0  0  0  0  0  0  0  0  0  0
   46.3303  -14.9363   -6.3946 H   0  0  0  0  0  0  0  0  0  0  0  0
   51.8934  -13.7251   -4.9986 H   0  0  0  0  0  0  0  0  0  0  0  0
   49.7348  -15.5893  -13.8164 H   0  0  0  0  0  0  0  0  0  0  0  0
   48.3089  -15.1293  -12.8593 H   0  0  0  0  0  0  0  0  0  0  0  0
   48.1173  -16.1896  -14.2449 H   0  0  0  0  0  0  0  0  0  0  0  0
   50.5318  -18.0094  -13.6784 H   0  0  0  0  0  0  0  0  0  0  0  0
   49.5538  -19.1472  -12.7236 H   0  0  0  0  0  0  0  0  0  0  0  0
   48.8869  -18.4488  -14.1806 H   0  0  0  0  0  0  0  0  0  0  0  0
   46.2664  -19.2270   -6.5724 H   0  0  0  0  0  0  0  0  0  0  0  0
   53.7407  -17.5945   -4.7418 H   0  0  0  0  0  0  0  0  0  0  0  0
   53.5528  -15.2431   -3.9721 H   0  0  0  0  0  0  0  0  0  0  0  0
   45.1406  -17.0766   -6.0567 H   0  0  0  0  0  0  0  0  0  0  0  0
  2  1  1  0
  3  1  1  0
  4  6  1  0
  5  7  1  0
  6  2  2  0
  7  3  2  0
  8  1  2  3
  9 13  1  0
 10  8  1  0
 11  3  1  0
 12  2  1  0
 13 10  1  0
 14  7  1  0
 15  6  1  0
 16  9  1  0
 17  9  1  0
 18 11  2  0
 19 12  2  0
 20 19  1  0
 21 18  1  0
  5  4  2  0
 21 14  2  0
 20 15  2  0
  4 22  1  0
  5 23  1  0
  8 24  1  0
 10 25  1  0
 10 26  1  0
 11 27  1  0
 12 28  1  0
 13 29  1  0
 13 30  1  0
 14 31  1  0
 15 32  1  0
 16 33  1  0
 16 34  1  0
 16 35  1  0
 17 36  1  0
 17 37  1  0
 17 38  1  0
 18 39  1  0
 19 40  1  0
 20 41  1  0
 21 42  1  0
M  END
> <Uni-Dock RESULT> 
ENERGY=   -6.325  LOWER_BOUND=    0.000  UPPER_BOUND=    0.000
INTER + INTRA:          -6.325
INTER:                  -6.325
INTRA:                   0.000
UNBOUND:                 0.000

$$$$

     RDKit          3D

 42 44  0  0  0  0  0  0  0  0999 V2000
   50.2259  -17.0551   -7.9308 C   0  0  0  0  0  0  0  0  0  0  0  0
   51.2250  -16.5277   -6.8509 C   0  0  0  0  0  0  0  0  0  0  0  0
   48.7423  -17.0775   -7.4544 C   0  0  0  0  0  0  0  0  0  0  0  0
   50.0763  -14.1967   -7.0076 C   0  0  0  0  0  0  0  0  0  0  0  0
   48.8030  -14.4792   -7.3218 C   0  0  0  0  0  0  0  0  0  0  0  0
   51.1028  -15.2089   -6.3865 C   0  0  0  0  0  0  0  0  0  0  0  0
   48.1089  -15.8715   -7.1182 C   0  0  0  0  0  0  0  0  0  0  0  0
   50.6383  -17.3338   -9.1756 C   0  0  0  0  0  0  0  0  0  0  0  0
   48.8762  -17.0051  -12.5699 N   0  0  0  0  0  0  0  0  0  0  0  0
   49.7820  -17.7585  -10.3395 C   0  0  0  0  0  0  0  0  0  0  0  0
   48.0841  -18.2961   -7.2608 C   0  0  0  0  0  0  0  0  0  0  0  0
   52.1728  -17.3892   -6.2904 C   0  0  0  0  0  0  0  0  0  0  0  0
   49.7389  -16.6643  -11.4213 C   0  0  0  0  0  0  0  0  0  0  0  0
   46.8055  -15.8978   -6.6122 C   0  0  0  0  0  0  0  0  0  0  0  0
   51.9467  -14.7606   -5.3657 C   0  0  0  0  0  0  0  0  0  0  0  0
   48.6781  -15.8221  -13.4116 C   0  0  0  0  0  0  0  0  0  0  0  0
   49.4356  -18.0937  -13.3729 C   0  0  0  0  0  0  0  0  0  0  0  0
   46.7823  -18.3125   -6.7605 C   0  0  0  0  0  0  0  0  0  0  0  0
   53.0134  -16.9312   -5.2759 C   0  0  0  0  0  0  0  0  0  0  0  0
   52.8996  -15.6199   -4.8136 C   0  0  0  0  0  0  0  0  0  0  0  0
   46.1440  -17.1154   -6.4368 C   0  0  0  0  0  0  0  0  0  0  0  0
   50.4416  -13.1955   -7.2250 H   0  0  0  0  0  0  0  0  0  0  0  0
   48.2052  -13.6926   -7.7764 H   0  0  0  0  0  0  0  0  0  0  0  0
   51.6988  -17.2312   -9.4000 H   0  0  0  0  0  0  0  0  0  0  0  0
   50.2128  -18.6829  -10.7395 H   0  0  0  0  0  0  0  0  0  0  0  0
   48.7604  -17.9984  -10.0276 H   0  0  0  0  0  0  0  0  0  0  0  0
   48.5851  -19.2316   -7.4939 H   0  0  0  0  0  0  0  0  0  0  0  0
   52.2491  -18.4175   -6.6328 H   0  0  0  0  0  0  0  0  0  0  0  0
   49.3491  -15.7530  -10.9470 H   0  0  0  0  0  0  0  0  0  0  0  0
   50.7566  -16.4296  -11.7619 H   0  0  0  0  0  0  0  0  0  0  0  0
   46.2987  -14.9728   -6.3507 H   0  0  0  0  0  0  0  0  0  0  0  0
   51.8674  -13.7423   -4.9945 H   0  0  0  0  0  0  0  0  0  0  0  0
   49.6213  -15.4448  -13.8232 H   0  0  0  0  0  0  0  0  0  0  0  0
   48.2029  -15.0167  -12.8404 H   0  0  0  0  0  0  0  0  0  0  0  0
   48.0039  -16.0502  -14.2451 H   0  0  0  0  0  0  0  0  0  0  0  0
   50.4401  -17.8602  -13.7439 H   0  0  0  0  0  0  0  0  0  0  0  0
   49.4830  -19.0257  -12.8015 H   0  0  0  0  0  0  0  0  0  0  0  0
   48.7932  -18.3035  -14.2361 H   0  0  0  0  0  0  0  0  0  0  0  0
   46.2687  -19.2593   -6.6156 H   0  0  0  0  0  0  0  0  0  0  0  0
   53.7500  -17.5999   -4.8384 H   0  0  0  0  0  0  0  0  0  0  0  0
   53.5514  -15.2665   -4.0186 H   0  0  0  0  0  0  0  0  0  0  0  0
   45.1311  -17.1297   -6.0430 H   0  0  0  0  0  0  0  0  0  0  0  0
  2  1  1  0
  3  1  1  0
  4  6  1  0
  5  7  1  0
  6  2  2  0
  7  3  2  0
  8  1  2  3
  9 13  1  0
 10  8  1  0
 11  3  1  0
 12  2  1  0
 13 10  1  0
 14  7  1  0
 15  6  1  0
 16  9  1  0
 17  9  1  0
 18 11  2  0
 19 12  2  0
 20 19  1  0
 21 18  1  0
  5  4  2  0
 21 14  2  0
 20 15  2  0
  4 22  1  0
  5 23  1  0
  8 24  1  0
 10 25  1  0
 10 26  1  0
 11 27  1  0
 12 28  1  0
 13 29  1  0
 13 30  1  0
 14 31  1  0
 15 32  1  0
 16 33  1  0
 16 34  1  0
 16 35  1  0
 17 36  1  0
 17 37  1  0
 17 38  1  0
 18 39  1  0
 19 40  1  0
 20 41  1  0
 21 42  1  0
M  END
> <Uni-Dock RESULT> 
ENERGY=   -6.307  LOWER_BOUND=    0.084  UPPER_BOUND=    0.084
INTER + INTRA:          -6.307
INTER:                  -6.307
INTRA:                   0.000
UNBOUND:                 0.000

$$$$

     RDKit          3D

 42 44  0  0  0  0  0  0  0  0999 V2000
   50.3012  -17.0663   -7.8391 C   0  0  0  0  0  0  0  0  0  0  0  0
   51.2977  -16.5003   -6.7766 C   0  0  0  0  0  0  0  0  0  0  0  0
   48.8149  -17.0600   -7.3704 C   0  0  0  0  0  0  0  0  0  0  0  0
   50.1643  -14.1710   -7.0365 C   0  0  0  0  0  0  0  0  0  0  0  0
   48.8909  -14.4588   -7.3457 C   0  0  0  0  0  0  0  0  0  0  0  0
   51.1812  -15.1626   -6.3681 C   0  0  0  0  0  0  0  0  0  0  0  0
   48.1872  -15.8373   -7.0882 C   0  0  0  0  0  0  0  0  0  0  0  0
   50.7184  -17.3990   -9.0689 C   0  0  0  0  0  0  0  0  0  0  0  0
   48.9764  -17.2015  -12.4837 N   0  0  0  0  0  0  0  0  0  0  0  0
   49.8656  -17.8667  -10.2189 C   0  0  0  0  0  0  0  0  0  0  0  0
   48.1482  -18.2656   -7.1299 C   0  0  0  0  0  0  0  0  0  0  0  0
   52.2372  -17.3434   -6.1754 C   0  0  0  0  0  0  0  0  0  0  0  0
   49.8350  -16.8183  -11.3455 C   0  0  0  0  0  0  0  0  0  0  0  0
   46.8810  -15.8347   -6.5888 C   0  0  0  0  0  0  0  0  0  0  0  0
   52.0225  -14.6772   -5.3621 C   0  0  0  0  0  0  0  0  0  0  0  0
   48.7900  -16.0534  -13.3750 C   0  0  0  0  0  0  0  0  0  0  0  0
   49.5332  -18.3259  -13.2376 C   0  0  0  0  0  0  0  0  0  0  0  0
   46.8436  -18.2533   -6.6366 C   0  0  0  0  0  0  0  0  0  0  0  0
   53.0752  -16.8485   -5.1762 C   0  0  0  0  0  0  0  0  0  0  0  0
   52.9671  -15.5185   -4.7695 C   0  0  0  0  0  0  0  0  0  0  0  0
   46.2111  -17.0400   -6.3666 C   0  0  0  0  0  0  0  0  0  0  0  0
   50.5369  -13.1820   -7.2933 H   0  0  0  0  0  0  0  0  0  0  0  0
   48.3004  -13.6882   -7.8359 H   0  0  0  0  0  0  0  0  0  0  0  0
   51.7807  -17.3122   -9.2915 H   0  0  0  0  0  0  0  0  0  0  0  0
   50.2928  -18.8096  -10.5776 H   0  0  0  0  0  0  0  0  0  0  0  0
   48.8409  -18.0873   -9.9029 H   0  0  0  0  0  0  0  0  0  0  0  0
   48.6446  -19.2128   -7.3211 H   0  0  0  0  0  0  0  0  0  0  0  0
   52.3089  -18.3855   -6.4743 H   0  0  0  0  0  0  0  0  0  0  0  0
   49.4484  -15.8857  -10.9117 H   0  0  0  0  0  0  0  0  0  0  0  0
   50.8560  -16.6040  -11.6899 H   0  0  0  0  0  0  0  0  0  0  0  0
   46.3786  -14.8966   -6.3688 H   0  0  0  0  0  0  0  0  0  0  0  0
   51.9475  -13.6439   -5.0341 H   0  0  0  0  0  0  0  0  0  0  0  0
   49.7377  -15.6992  -13.7966 H   0  0  0  0  0  0  0  0  0  0  0  0
   48.3168  -15.2221  -12.8404 H   0  0  0  0  0  0  0  0  0  0  0  0
   48.1189  -16.3120  -14.2020 H   0  0  0  0  0  0  0  0  0  0  0  0
   50.5411  -18.1140  -13.6124 H   0  0  0  0  0  0  0  0  0  0  0  0
   49.5719  -19.2335  -12.6276 H   0  0  0  0  0  0  0  0  0  0  0  0
   48.8942  -18.5676  -14.0948 H   0  0  0  0  0  0  0  0  0  0  0  0
   46.3235  -19.1902   -6.4553 H   0  0  0  0  0  0  0  0  0  0  0  0
   53.8053  -17.5028   -4.7072 H   0  0  0  0  0  0  0  0  0  0  0  0
   53.6168  -15.1361   -3.9863 H   0  0  0  0  0  0  0  0  0  0  0  0
   45.1960  -17.0319   -5.9781 H   0  0  0  0  0  0  0  0  0  0  0  0
  2  1  1  0
  3  1  1  0
  4  6  1  0
  5  7  1  0
  6  2  2  0
  7  3  2  0
  8  1  2  3
  9 13  1  0
 10  8  1  0
 11  3  1  0
 12  2  1  0
 13 10  1  0
 14  7  1  0
 15  6  1  0
 16  9  1  0
 17  9  1  0
 18 11  2  0
 19 12  2  0
 20 19  1  0
 21 18  1  0
  5  4  2  0
 21 14  2  0
 20 15  2  0
  4 22  1  0
  5 23  1  0
  8 24  1  0
 10 25  1  0
 10 26  1  0
 11 27  1  0
 12 28  1  0
 13 29  1  0
 13 30  1  0
 14 31  1  0
 15 32  1  0
 16 33  1  0
 16 34  1  0
 16 35  1  0
 17 36  1  0
 17 37  1  0
 17 38  1  0
 18 39  1  0
 19 40  1  0
 20 41  1  0
 21 42  1  0
M  END
> <Uni-Dock RESULT> 
ENERGY=   -6.284  LOWER_BOUND=    0.088  UPPER_BOUND=    0.088
INTER + INTRA:          -6.284
INTER:                  -6.284
INTRA:                   0.000
UNBOUND:                 0.000

$$$$

     RDKit          3D

 42 44  0  0  0  0  0  0  0  0999 V2000
   48.5967  -17.1502   -8.1681 C   0  0  0  0  0  0  0  0  0  0  0  0
   47.8378  -18.1125   -7.1983 C   0  0  0  0  0  0  0  0  0  0  0  0
   49.6350  -16.2325   -7.4552 C   0  0  0  0  0  0  0  0  0  0  0  0
   50.0946  -19.3190   -6.7196 C   0  0  0  0  0  0  0  0  0  0  0  0
   51.0172  -18.3545   -6.8559 C   0  0  0  0  0  0  0  0  0  0  0  0
   48.5613  -19.0798   -6.4835 C   0  0  0  0  0  0  0  0  0  0  0  0
   50.7296  -16.8133   -6.7971 C   0  0  0  0  0  0  0  0  0  0  0  0
   48.4242  -17.2302   -9.4952 C   0  0  0  0  0  0  0  0  0  0  0  0
   50.8418  -16.6195  -12.4136 N   0  0  0  0  0  0  0  0  0  0  0  0
   49.1493  -16.4390  -10.5519 C   0  0  0  0  0  0  0  0  0  0  0  0
   49.4195  -14.8528   -7.3800 C   0  0  0  0  0  0  0  0  0  0  0  0
   46.4663  -17.9512   -6.9794 C   0  0  0  0  0  0  0  0  0  0  0  0
   50.0682  -17.3475  -11.3883 C   0  0  0  0  0  0  0  0  0  0  0  0
   51.6164  -15.9974   -6.0873 C   0  0  0  0  0  0  0  0  0  0  0  0
   47.8947  -19.8896   -5.5587 C   0  0  0  0  0  0  0  0  0  0  0  0
   51.8732  -17.4963  -12.9744 C   0  0  0  0  0  0  0  0  0  0  0  0
   49.9876  -16.1124  -13.4887 C   0  0  0  0  0  0  0  0  0  0  0  0
   50.3120  -14.0461   -6.6742 C   0  0  0  0  0  0  0  0  0  0  0  0
   45.8096  -18.7672   -6.0583 C   0  0  0  0  0  0  0  0  0  0  0  0
   46.5227  -19.7335   -5.3484 C   0  0  0  0  0  0  0  0  0  0  0  0
   51.4086  -14.6174   -6.0290 C   0  0  0  0  0  0  0  0  0  0  0  0
   50.4244  -20.3516   -6.8074 H   0  0  0  0  0  0  0  0  0  0  0  0
   52.0442  -18.6571   -7.0466 H   0  0  0  0  0  0  0  0  0  0  0  0
   47.7019  -17.9502   -9.8764 H   0  0  0  0  0  0  0  0  0  0  0  0
   48.3886  -15.9685  -11.1845 H   0  0  0  0  0  0  0  0  0  0  0  0
   49.7419  -15.6271  -10.1181 H   0  0  0  0  0  0  0  0  0  0  0  0
   48.5559  -14.4067   -7.8653 H   0  0  0  0  0  0  0  0  0  0  0  0
   45.9124  -17.1848   -7.5143 H   0  0  0  0  0  0  0  0  0  0  0  0
   50.7707  -17.8281  -10.6932 H   0  0  0  0  0  0  0  0  0  0  0  0
   49.4829  -18.1544  -11.8500 H   0  0  0  0  0  0  0  0  0  0  0  0
   52.4716  -16.4302   -5.5754 H   0  0  0  0  0  0  0  0  0  0  0  0
   48.4384  -20.6448   -4.9973 H   0  0  0  0  0  0  0  0  0  0  0  0
   51.4446  -18.3775  -13.4655 H   0  0  0  0  0  0  0  0  0  0  0  0
   52.5593  -17.8364  -12.1905 H   0  0  0  0  0  0  0  0  0  0  0  0
   52.4833  -16.9551  -13.7065 H   0  0  0  0  0  0  0  0  0  0  0  0
   49.4195  -16.9120  -13.9778 H   0  0  0  0  0  0  0  0  0  0  0  0
   49.2834  -15.3620  -13.1168 H   0  0  0  0  0  0  0  0  0  0  0  0
   50.5903  -15.6061  -14.2516 H   0  0  0  0  0  0  0  0  0  0  0  0
   50.1476  -12.9731   -6.6207 H   0  0  0  0  0  0  0  0  0  0  0  0
   44.7437  -18.6424   -5.8862 H   0  0  0  0  0  0  0  0  0  0  0  0
   46.0103  -20.3644   -4.6265 H   0  0  0  0  0  0  0  0  0  0  0  0
   52.1010  -13.9883   -5.4757 H   0  0  0  0  0  0  0  0  0  0  0  0
  2  1  1  0
  3  1  1  0
  4  6  1  0
  5  7  1  0
  6  2  2  0
  7  3  2  0
  8  1  2  3
  9 13  1  0
 10  8  1  0
 11  3  1  0
 12  2  1  0
 13 10  1  0
 14  7  1  0
 15  6  1  0
 16  9  1  0
 17  9  1  0
 18 11  2  0
 19 12  2  0
 20 19  1  0
 21 18  1  0
  5  4  2  0
 21 14  2  0
 20 15  2  0
  4 22  1  0
  5 23  1  0
  8 24  1  0
 10 25  1  0
 10 26  1  0
 11 27  1  0
 12 28  1  0
 13 29  1  0
 13 30  1  0
 14 31  1  0
 15 32  1  0
 16 33  1  0
 16 34  1  0
 16 35  1  0
 17 36  1  0
 17 37  1  0
 17 38  1  0
 18 39  1  0
 19 40  1  0
 20 41  1  0
 21 42  1  0
M  END
> <Uni-Dock RESULT> 
ENERGY=   -5.235  LOWER_BOUND=    1.398  UPPER_BOUND=    4.443
INTER + INTRA:          -5.235
INTER:                  -5.235
INTRA:                   0.000
UNBOUND:                 0.000

$$$$

     RDKit          3D

 42 44  0  0  0  0  0  0  0  0999 V2000
   47.2138  -15.9701  -10.6745 C   0  0  0  0  0  0  0  0  0  0  0  0
   45.9293  -15.5625  -11.4659 C   0  0  0  0  0  0  0  0  0  0  0  0
   46.9493  -16.2911   -9.1727 C   0  0  0  0  0  0  0  0  0  0  0  0
   45.0043  -17.9672  -11.0927 C   0  0  0  0  0  0  0  0  0  0  0  0
   45.5317  -18.3426   -9.9175 C   0  0  0  0  0  0  0  0  0  0  0  0
   44.8815  -16.4867  -11.5997 C   0  0  0  0  0  0  0  0  0  0  0  0
   46.1147  -17.3674   -8.8354 C   0  0  0  0  0  0  0  0  0  0  0  0
   48.3880  -16.1330  -11.3006 C   0  0  0  0  0  0  0  0  0  0  0  0
   51.3082  -18.5354  -10.6406 N   0  0  0  0  0  0  0  0  0  0  0  0
   49.6806  -16.6089  -10.6915 C   0  0  0  0  0  0  0  0  0  0  0  0
   47.4509  -15.4497   -8.1747 C   0  0  0  0  0  0  0  0  0  0  0  0
   45.7907  -14.2611  -11.9579 C   0  0  0  0  0  0  0  0  0  0  0  0
   50.0701  -17.9950  -11.2361 C   0  0  0  0  0  0  0  0  0  0  0  0
   45.8102  -17.6059   -7.4915 C   0  0  0  0  0  0  0  0  0  0  0  0
   43.7015  -16.0972  -12.2409 C   0  0  0  0  0  0  0  0  0  0  0  0
   51.4605  -19.9467  -11.0043 C   0  0  0  0  0  0  0  0  0  0  0  0
   52.4930  -17.7866  -11.0628 C   0  0  0  0  0  0  0  0  0  0  0  0
   47.1462  -15.6982   -6.8364 C   0  0  0  0  0  0  0  0  0  0  0  0
   44.6116  -13.8836  -12.6003 C   0  0  0  0  0  0  0  0  0  0  0  0
   43.5686  -14.7995  -12.7403 C   0  0  0  0  0  0  0  0  0  0  0  0
   46.3273  -16.7744   -6.4954 C   0  0  0  0  0  0  0  0  0  0  0  0
   44.6583  -18.7487  -11.7654 H   0  0  0  0  0  0  0  0  0  0  0  0
   45.5846  -19.4070   -9.7011 H   0  0  0  0  0  0  0  0  0  0  0  0
   48.4339  -15.9238  -12.3681 H   0  0  0  0  0  0  0  0  0  0  0  0
   50.4479  -15.8662  -10.9363 H   0  0  0  0  0  0  0  0  0  0  0  0
   49.6244  -16.6529   -9.5991 H   0  0  0  0  0  0  0  0  0  0  0  0
   48.0734  -14.5992   -8.4381 H   0  0  0  0  0  0  0  0  0  0  0  0
   46.5924  -13.5389  -11.8308 H   0  0  0  0  0  0  0  0  0  0  0  0
   49.2416  -18.6793  -11.0064 H   0  0  0  0  0  0  0  0  0  0  0  0
   50.1539  -17.9608  -12.3309 H   0  0  0  0  0  0  0  0  0  0  0  0
   45.1688  -18.4375   -7.2125 H   0  0  0  0  0  0  0  0  0  0  0  0
   42.8803  -16.7998  -12.3548 H   0  0  0  0  0  0  0  0  0  0  0  0
   51.5409  -20.0879  -12.0882 H   0  0  0  0  0  0  0  0  0  0  0  0
   50.6092  -20.5333  -10.6411 H   0  0  0  0  0  0  0  0  0  0  0  0
   52.3536  -20.3724  -10.5330 H   0  0  0  0  0  0  0  0  0  0  0  0
   52.6048  -17.7695  -12.1530 H   0  0  0  0  0  0  0  0  0  0  0  0
   52.4619  -16.7549  -10.6995 H   0  0  0  0  0  0  0  0  0  0  0  0
   53.3997  -18.2286  -10.6337 H   0  0  0  0  0  0  0  0  0  0  0  0
   47.5409  -15.0476   -6.0604 H   0  0  0  0  0  0  0  0  0  0  0  0
   44.5018  -12.8721  -12.9823 H   0  0  0  0  0  0  0  0  0  0  0  0
   42.6480  -14.5017  -13.2358 H   0  0  0  0  0  0  0  0  0  0  0  0
   46.0871  -16.9645   -5.4526 H   0  0  0  0  0  0  0  0  0  0  0  0
  2  1  1  0
  3  1  1  0
  4  6  1  0
  5  7  1  0
  6  2  2  0
  7  3  2  0
  8  1  2  3
  9 13  1  0
 10  8  1  0
 11  3  1  0
 12  2  1  0
 13 10  1  0
 14  7  1  0
 15  6  1  0
 16  9  1  0
 17  9  1  0
 18 11  2  0
 19 12  2  0
 20 19  1  0
 21 18  1  0
  5  4  2  0
 21 14  2  0
 20 15  2  0
  4 22  1  0
  5 23  1  0
  8 24  1  0
 10 25  1  0
 10 26  1  0
 11 27  1  0
 12 28  1  0
 13 29  1  0
 13 30  1  0
 14 31  1  0
 15 32  1  0
 16 33  1  0
 16 34  1  0
 16 35  1  0
 17 36  1  0
 17 37  1  0
 17 38  1  0
 18 39  1  0
 19 40  1  0
 20 41  1  0
 21 42  1  0
M  END
> <Uni-Dock RESULT> 
ENERGY=   -4.757  LOWER_BOUND=    3.229  UPPER_BOUND=    6.251
INTER + INTRA:          -4.757
INTER:                  -4.757
INTRA:                   0.000
UNBOUND:                 0.000

$$$$

     RDKit          3D

 42 44  0  0  0  0  0  0  0  0999 V2000
   50.1785  -17.2218   -7.7381 C   0  0  0  0  0  0  0  0  0  0  0  0
   48.6657  -17.2047   -7.3464 C   0  0  0  0  0  0  0  0  0  0  0  0
   51.1385  -17.3991   -6.5234 C   0  0  0  0  0  0  0  0  0  0  0  0
   48.8915  -19.6851   -6.5886 C   0  0  0  0  0  0  0  0  0  0  0  0
   50.1623  -19.7856   -6.1703 C   0  0  0  0  0  0  0  0  0  0  0  0
   48.0953  -18.3425   -6.7547 C   0  0  0  0  0  0  0  0  0  0  0  0
   51.0791  -18.5784   -5.7654 C   0  0  0  0  0  0  0  0  0  0  0  0
   50.5593  -17.2057   -9.0234 C   0  0  0  0  0  0  0  0  0  0  0  0
   53.5510  -18.8180  -10.8080 N   0  0  0  0  0  0  0  0  0  0  0  0
   51.9655  -17.3104   -9.5526 C   0  0  0  0  0  0  0  0  0  0  0  0
   51.9740  -16.3496   -6.1281 C   0  0  0  0  0  0  0  0  0  0  0  0
   47.9127  -16.0370   -7.5030 C   0  0  0  0  0  0  0  0  0  0  0  0
   52.1753  -18.6374  -10.3038 C   0  0  0  0  0  0  0  0  0  0  0  0
   51.8813  -18.7044   -4.6268 C   0  0  0  0  0  0  0  0  0  0  0  0
   46.7624  -18.3013   -6.3341 C   0  0  0  0  0  0  0  0  0  0  0  0
   53.7362  -20.1977  -11.2656 C   0  0  0  0  0  0  0  0  0  0  0  0
   53.8629  -17.8911  -11.8971 C   0  0  0  0  0  0  0  0  0  0  0  0
   52.7743  -16.4861   -4.9940 C   0  0  0  0  0  0  0  0  0  0  0  0
   46.5824  -16.0074   -7.0846 C   0  0  0  0  0  0  0  0  0  0  0  0
   46.0089  -17.1369   -6.5001 C   0  0  0  0  0  0  0  0  0  0  0  0
   52.7280  -17.6615   -4.2446 C   0  0  0  0  0  0  0  0  0  0  0  0
   48.3748  -20.6016   -6.8638 H   0  0  0  0  0  0  0  0  0  0  0  0
   50.6067  -20.7773   -6.1289 H   0  0  0  0  0  0  0  0  0  0  0  0
   49.7867  -17.1288   -9.7867 H   0  0  0  0  0  0  0  0  0  0  0  0
   52.1256  -16.4568  -10.2205 H   0  0  0  0  0  0  0  0  0  0  0  0
   52.7089  -17.2264   -8.7534 H   0  0  0  0  0  0  0  0  0  0  0  0
   51.9984  -15.4254   -6.6985 H   0  0  0  0  0  0  0  0  0  0  0  0
   48.3629  -15.1488   -7.9374 H   0  0  0  0  0  0  0  0  0  0  0  0
   51.9496  -19.4496   -9.5988 H   0  0  0  0  0  0  0  0  0  0  0  0
   51.4508  -18.7251  -11.1251 H   0  0  0  0  0  0  0  0  0  0  0  0
   51.8507  -19.6125   -4.0308 H   0  0  0  0  0  0  0  0  0  0  0  0
   46.3038  -19.1731   -5.8753 H   0  0  0  0  0  0  0  0  0  0  0  0
   53.0595  -20.4546  -12.0887 H   0  0  0  0  0  0  0  0  0  0  0  0
   53.5660  -20.9032  -10.4446 H   0  0  0  0  0  0  0  0  0  0  0  0
   54.7667  -20.3573  -11.6026 H   0  0  0  0  0  0  0  0  0  0  0  0
   53.1646  -17.9887  -12.7363 H   0  0  0  0  0  0  0  0  0  0  0  0
   53.8498  -16.8528  -11.5518 H   0  0  0  0  0  0  0  0  0  0  0  0
   54.8767  -18.0689  -12.2743 H   0  0  0  0  0  0  0  0  0  0  0  0
   53.4279  -15.6727   -4.6903 H   0  0  0  0  0  0  0  0  0  0  0  0
   45.9961  -15.1002   -7.2045 H   0  0  0  0  0  0  0  0  0  0  0  0
   44.9738  -17.1100   -6.1691 H   0  0  0  0  0  0  0  0  0  0  0  0
   53.3491  -17.7650   -3.3586 H   0  0  0  0  0  0  0  0  0  0  0  0
  2  1  1  0
  3  1  1  0
  4  6  1  0
  5  7  1  0
  6  2  2  0
  7  3  2  0
  8  1  2  3
  9 13  1  0
 10  8  1  0
 11  3  1  0
 12  2  1  0
 13 10  1  0
 14  7  1  0
 15  6  1  0
 16  9  1  0
 17  9  1  0
 18 11  2  0
 19 12  2  0
 20 19  1  0
 21 18  1  0
  5  4  2  0
 21 14  2  0
 20 15  2  0
  4 22  1  0
  5 23  1  0
  8 24  1  0
 10 25  1  0
 10 26  1  0
 11 27  1  0
 12 28  1  0
 13 29  1  0
 13 30  1  0
 14 31  1  0
 15 32  1  0
 16 33  1  0
 16 34  1  0
 16 35  1  0
 17 36  1  0
 17 37  1  0
 17 38  1  0
 18 39  1  0
 19 40  1  0
 20 41  1  0
 21 42  1  0
M  END
> <Uni-Dock RESULT> 
ENERGY=   -4.696  LOWER_BOUND=    2.152  UPPER_BOUND=    5.041
INTER + INTRA:          -4.696
INTER:                  -4.696
INTRA:                   0.000
UNBOUND:                 0.000

$$$$

     RDKit          3D

 42 44  0  0  0  0  0  0  0  0999 V2000
   46.1002  -16.1899  -10.6576 C   0  0  0  0  0  0  0  0  0  0  0  0
   47.2558  -16.0708   -9.6122 C   0  0  0  0  0  0  0  0  0  0  0  0
   46.1700  -15.1249  -11.7932 C   0  0  0  0  0  0  0  0  0  0  0  0
   48.9443  -16.7029  -11.4903 C   0  0  0  0  0  0  0  0  0  0  0  0
   48.3844  -16.2211  -12.6102 C   0  0  0  0  0  0  0  0  0  0  0  0
   48.5831  -16.2533  -10.0303 C   0  0  0  0  0  0  0  0  0  0  0  0
   47.2719  -15.1159  -12.6618 C   0  0  0  0  0  0  0  0  0  0  0  0
   45.2259  -17.2050  -10.6078 C   0  0  0  0  0  0  0  0  0  0  0  0
   43.3895  -19.1158  -13.3846 N   0  0  0  0  0  0  0  0  0  0  0  0
   44.1248  -17.5008  -11.5919 C   0  0  0  0  0  0  0  0  0  0  0  0
   45.1989  -14.1222  -11.8777 C   0  0  0  0  0  0  0  0  0  0  0  0
   46.9751  -15.6985   -8.2941 C   0  0  0  0  0  0  0  0  0  0  0  0
   44.4139  -18.7968  -12.3705 C   0  0  0  0  0  0  0  0  0  0  0  0
   47.3766  -14.1106  -13.6284 C   0  0  0  0  0  0  0  0  0  0  0  0
   49.6222  -16.0713   -9.1125 C   0  0  0  0  0  0  0  0  0  0  0  0
   43.8670  -20.1966  -14.2513 C   0  0  0  0  0  0  0  0  0  0  0  0
   42.1145  -19.4986  -12.7758 C   0  0  0  0  0  0  0  0  0  0  0  0
   45.3088  -13.1265  -12.8482 C   0  0  0  0  0  0  0  0  0  0  0  0
   48.0182  -15.5241   -7.3847 C   0  0  0  0  0  0  0  0  0  0  0  0
   49.3392  -15.7087   -7.7935 C   0  0  0  0  0  0  0  0  0  0  0  0
   46.3957  -13.1208  -13.7221 C   0  0  0  0  0  0  0  0  0  0  0  0
   49.6886  -17.4892  -11.5938 H   0  0  0  0  0  0  0  0  0  0  0  0
   48.7048  -16.6423  -13.5603 H   0  0  0  0  0  0  0  0  0  0  0  0
   45.3119  -17.9167   -9.7884 H   0  0  0  0  0  0  0  0  0  0  0  0
   43.1942  -17.5905  -11.0208 H   0  0  0  0  0  0  0  0  0  0  0  0
   43.9796  -16.6787  -12.3002 H   0  0  0  0  0  0  0  0  0  0  0  0
   44.3608  -14.1126  -11.1864 H   0  0  0  0  0  0  0  0  0  0  0  0
   45.9489  -15.5322   -7.9783 H   0  0  0  0  0  0  0  0  0  0  0  0
   45.3802  -18.6637  -12.8765 H   0  0  0  0  0  0  0  0  0  0  0  0
   44.5384  -19.6366  -11.6732 H   0  0  0  0  0  0  0  0  0  0  0  0
   48.2213  -14.0912  -14.3117 H   0  0  0  0  0  0  0  0  0  0  0  0
   50.6559  -16.2097   -9.4180 H   0  0  0  0  0  0  0  0  0  0  0  0
   44.0600  -21.1197  -13.6928 H   0  0  0  0  0  0  0  0  0  0  0  0
   44.7901  -19.9022  -14.7630 H   0  0  0  0  0  0  0  0  0  0  0  0
   43.1336  -20.4143  -15.0361 H   0  0  0  0  0  0  0  0  0  0  0  0
   42.2194  -20.3548  -12.0996 H   0  0  0  0  0  0  0  0  0  0  0  0
   41.6742  -18.6663  -12.2184 H   0  0  0  0  0  0  0  0  0  0  0  0
   41.3834  -19.7619  -13.5490 H   0  0  0  0  0  0  0  0  0  0  0  0
   44.5508  -12.3506  -12.9176 H   0  0  0  0  0  0  0  0  0  0  0  0
   47.8017  -15.2336   -6.3600 H   0  0  0  0  0  0  0  0  0  0  0  0
   50.1512  -15.5664   -7.0850 H   0  0  0  0  0  0  0  0  0  0  0  0
   46.4825  -12.3419  -14.4752 H   0  0  0  0  0  0  0  0  0  0  0  0
  2  1  1  0
  3  1  1  0
  4  6  1  0
  5  7  1  0
  6  2  2  0
  7  3  2  0
  8  1  2  3
  9 13  1  0
 10  8  1  0
 11  3  1  0
 12  2  1  0
 13 10  1  0
 14  7  1  0
 15  6  1  0
 16  9  1  0
 17  9  1  0
 18 11  2  0
 19 12  2  0
 20 19  1  0
 21 18  1  0
  5  4  2  0
 21 14  2  0
 20 15  2  0
  4 22  1  0
  5 23  1  0
  8 24  1  0
 10 25  1  0
 10 26  1  0
 11 27  1  0
 12 28  1  0
 13 29  1  0
 13 30  1  0
 14 31  1  0
 15 32  1  0
 16 33  1  0
 16 34  1  0
 16 35  1  0
 17 36  1  0
 17 37  1  0
 17 38  1  0
 18 39  1  0
 19 40  1  0
 20 41  1  0
 21 42  1  0
M  END
> <Uni-Dock RESULT> 
ENERGY=   -4.224  LOWER_BOUND=    3.834  UPPER_BOUND=    6.061
INTER + INTRA:          -4.224
INTER:                  -4.224
INTRA:                   0.000
UNBOUND:                 0.000

$$$$
