
     RDKit          3D

 42 44  0  0  0  0  0  0  0  0999 V2000
   50.2617  -17.0825   -7.8761 C   0  0  0  0  0  0  0  0  0  0  0  0
   51.2530  -16.5311   -6.8020 C   0  0  0  0  0  0  0  0  0  0  0  0
   48.7717  -17.0850   -7.4169 C   0  0  0  0  0  0  0  0  0  0  0  0
   50.1141  -14.2005   -7.0235 C   0  0  0  0  0  0  0  0  0  0  0  0
   48.8426  -14.4845   -7.3435 C   0  0  0  0  0  0  0  0  0  0  0  0
   51.1307  -15.2015   -6.3697 C   0  0  0  0  0  0  0  0  0  0  0  0
   48.1396  -15.8687   -7.1179 C   0  0  0  0  0  0  0  0  0  0  0  0
   50.6850  -17.4309   -9.0998 C   0  0  0  0  0  0  0  0  0  0  0  0
   49.2359  -19.9861  -11.6147 N   0  0  0  0  0  0  0  0  0  0  0  0
   49.8260  -17.8927  -10.2470 C   0  0  0  0  0  0  0  0  0  0  0  0
   48.1032  -18.2960   -7.2082 C   0  0  0  0  0  0  0  0  0  0  0  0
   52.1922  -17.3820   -6.2111 C   0  0  0  0  0  0  0  0  0  0  0  0
   50.0452  -19.3882  -10.5401 C   0  0  0  0  0  0  0  0  0  0  0  0
   46.8280  -15.8777   -6.6328 C   0  0  0  0  0  0  0  0  0  0  0  0
   51.9665  -14.7317   -5.3519 C   0  0  0  0  0  0  0  0  0  0  0  0
   49.4862  -19.3748  -12.9166 C   0  0  0  0  0  0  0  0  0  0  0  0
   47.8084  -19.9909  -11.3045 C   0  0  0  0  0  0  0  0  0  0  0  0
   46.7933  -18.2949   -6.7294 C   0  0  0  0  0  0  0  0  0  0  0  0
   53.0248  -16.9026   -5.1997 C   0  0  0  0  0  0  0  0  0  0  0  0
   52.9112  -15.5804   -4.7700 C   0  0  0  0  0  0  0  0  0  0  0  0
   46.1568  -17.0876   -6.4423 C   0  0  0  0  0  0  0  0  0  0  0  0
   50.4855  -13.2058   -7.2595 H   0  0  0  0  0  0  0  0  0  0  0  0
   48.2536  -13.7043   -7.8203 H   0  0  0  0  0  0  0  0  0  0  0  0
   51.7487  -17.3559   -9.3200 H   0  0  0  0  0  0  0  0  0  0  0  0
   50.0939  -17.2916  -11.1238 H   0  0  0  0  0  0  0  0  0  0  0  0
   48.7693  -17.6907  -10.0488 H   0  0  0  0  0  0  0  0  0  0  0  0
   48.6030  -19.2397   -7.4082 H   0  0  0  0  0  0  0  0  0  0  0  0
   52.2687  -18.4186   -6.5273 H   0  0  0  0  0  0  0  0  0  0  0  0
   51.1046  -19.5527  -10.7798 H   0  0  0  0  0  0  0  0  0  0  0  0
   49.8734  -19.9659   -9.6218 H   0  0  0  0  0  0  0  0  0  0  0  0
   46.3225  -14.9445   -6.3985 H   0  0  0  0  0  0  0  0  0  0  0  0
   51.8875  -13.7045   -5.0060 H   0  0  0  0  0  0  0  0  0  0  0  0
   50.5558  -19.3900  -13.1533 H   0  0  0  0  0  0  0  0  0  0  0  0
   48.9835  -19.9446  -13.7062 H   0  0  0  0  0  0  0  0  0  0  0  0
   49.1332  -18.3394  -12.9717 H   0  0  0  0  0  0  0  0  0  0  0  0
   47.3748  -18.9853  -11.2888 H   0  0  0  0  0  0  0  0  0  0  0  0
   47.6230  -20.4638  -10.3338 H   0  0  0  0  0  0  0  0  0  0  0  0
   47.2616  -20.5811  -12.0484 H   0  0  0  0  0  0  0  0  0  0  0  0
   46.2733  -19.2358   -6.5692 H   0  0  0  0  0  0  0  0  0  0  0  0
   53.7549  -17.5631   -4.7394 H   0  0  0  0  0  0  0  0  0  0  0  0
   53.5568  -15.2100   -3.9778 H   0  0  0  0  0  0  0  0  0  0  0  0
   45.1382  -17.0880   -6.0626 H   0  0  0  0  0  0  0  0  0  0  0  0
  2  1  1  0
  3  1  1  0
  4  6  1  0
  5  7  1  0
  6  2  2  0
  7  3  2  0
  8  1  2  3
  9 13  1  0
 10  8  1  0
 11  3  1  0
 12  2  1  0
 13 10  1  0
 14  7  1  0
 15  6  1  0
 16  9  1  0
 17  9  1  0
 18 11  2  0
 19 12  2  0
 20 19  1  0
 21 18  1  0
  5  4  2  0
 21 14  2  0
 20 15  2  0
  4 22  1  0
  5 23  1  0
  8 24  1  0
 10 25  1  0
 10 26  1  0
 11 27  1  0
 12 28  1  0
 13 29  1  0
 13 30  1  0
 14 31  1  0
 15 32  1  0
 16 33  1  0
 16 34  1  0
 16 35  1  0
 17 36  1  0
 17 37  1  0
 17 38  1  0
 18 39  1  0
 19 40  1  0
 20 41  1  0
 21 42  1  0
M  END
> <Uni-Dock RESULT> 
ENERGY=   -6.080  LOWER_BOUND=    0.000  UPPER_BOUND=    0.000
INTER + INTRA:          -6.080
INTER:                  -6.080
INTRA:                   0.000
UNBOUND:                 0.000

$$$$

     RDKit          3D

 42 44  0  0  0  0  0  0  0  0999 V2000
   50.2417  -17.1276   -7.9013 C   0  0  0  0  0  0  0  0  0  0  0  0
   51.2238  -16.5223   -6.8481 C   0  0  0  0  0  0  0  0  0  0  0  0
   48.7610  -17.1942   -7.4175 C   0  0  0  0  0  0  0  0  0  0  0  0
   49.9759  -14.2482   -7.0690 C   0  0  0  0  0  0  0  0  0  0  0  0
   48.7138  -14.5927   -7.3657 C   0  0  0  0  0  0  0  0  0  0  0  0
   51.0478  -15.1960   -6.4243 C   0  0  0  0  0  0  0  0  0  0  0  0
   48.0787  -16.0055   -7.1176 C   0  0  0  0  0  0  0  0  0  0  0  0
   50.6606  -17.4667   -9.1291 C   0  0  0  0  0  0  0  0  0  0  0  0
   49.2897  -20.1071  -11.5995 N   0  0  0  0  0  0  0  0  0  0  0  0
   49.8053  -17.9772  -10.2582 C   0  0  0  0  0  0  0  0  0  0  0  0
   48.1521  -18.4327   -7.1883 C   0  0  0  0  0  0  0  0  0  0  0  0
   52.2105  -17.3242   -6.2661 C   0  0  0  0  0  0  0  0  0  0  0  0
   50.0880  -19.4636  -10.5432 C   0  0  0  0  0  0  0  0  0  0  0  0
   46.7769  -16.0703   -6.6109 C   0  0  0  0  0  0  0  0  0  0  0  0
   51.8775  -14.6797   -5.4241 C   0  0  0  0  0  0  0  0  0  0  0  0
   49.4907  -19.4962  -12.9101 C   0  0  0  0  0  0  0  0  0  0  0  0
   47.8692  -20.1744  -11.2658 C   0  0  0  0  0  0  0  0  0  0  0  0
   46.8515  -18.4874   -6.6879 C   0  0  0  0  0  0  0  0  0  0  0  0
   53.0365  -16.7987   -5.2725 C   0  0  0  0  0  0  0  0  0  0  0  0
   52.8694  -15.4794   -4.8514 C   0  0  0  0  0  0  0  0  0  0  0  0
   46.1650  -17.3080   -6.3998 C   0  0  0  0  0  0  0  0  0  0  0  0
   50.2975  -13.2396   -7.3189 H   0  0  0  0  0  0  0  0  0  0  0  0
   48.0820  -13.8444   -7.8387 H   0  0  0  0  0  0  0  0  0  0  0  0
   51.7161  -17.3451   -9.3674 H   0  0  0  0  0  0  0  0  0  0  0  0
   50.0312  -17.3720  -11.1440 H   0  0  0  0  0  0  0  0  0  0  0  0
   48.7438  -17.8220  -10.0442 H   0  0  0  0  0  0  0  0  0  0  0  0
   48.6914  -19.3543   -7.3891 H   0  0  0  0  0  0  0  0  0  0  0  0
   52.3294  -18.3589   -6.5754 H   0  0  0  0  0  0  0  0  0  0  0  0
   51.1498  -19.5815  -10.7991 H   0  0  0  0  0  0  0  0  0  0  0  0
   49.9577  -20.0406   -9.6177 H   0  0  0  0  0  0  0  0  0  0  0  0
   46.2330  -15.1593   -6.3755 H   0  0  0  0  0  0  0  0  0  0  0  0
   51.7571  -13.6543   -5.0851 H   0  0  0  0  0  0  0  0  0  0  0  0
   50.5559  -19.4645  -13.1644 H   0  0  0  0  0  0  0  0  0  0  0  0
   49.0019  -20.0951  -13.6868 H   0  0  0  0  0  0  0  0  0  0  0  0
   49.0897  -18.4785  -12.9675 H   0  0  0  0  0  0  0  0  0  0  0  0
   47.3902  -19.1896  -11.2508 H   0  0  0  0  0  0  0  0  0  0  0  0
   47.7213  -20.6470  -10.2884 H   0  0  0  0  0  0  0  0  0  0  0  0
   47.3380  -20.7954  -11.9959 H   0  0  0  0  0  0  0  0  0  0  0  0
   46.3778  -19.4496   -6.5117 H   0  0  0  0  0  0  0  0  0  0  0  0
   53.8035  -17.4211   -4.8192 H   0  0  0  0  0  0  0  0  0  0  0  0
   53.5101  -15.0730   -4.0729 H   0  0  0  0  0  0  0  0  0  0  0  0
   45.1538  -17.3517   -6.0033 H   0  0  0  0  0  0  0  0  0  0  0  0
  2  1  1  0
  3  1  1  0
  4  6  1  0
  5  7  1  0
  6  2  2  0
  7  3  2  0
  8  1  2  3
  9 13  1  0
 10  8  1  0
 11  3  1  0
 12  2  1  0
 13 10  1  0
 14  7  1  0
 15  6  1  0
 16  9  1  0
 17  9  1  0
 18 11  2  0
 19 12  2  0
 20 19  1  0
 21 18  1  0
  5  4  2  0
 21 14  2  0
 20 15  2  0
  4 22  1  0
  5 23  1  0
  8 24  1  0
 10 25  1  0
 10 26  1  0
 11 27  1  0
 12 28  1  0
 13 29  1  0
 13 30  1  0
 14 31  1  0
 15 32  1  0
 16 33  1  0
 16 34  1  0
 16 35  1  0
 17 36  1  0
 17 37  1  0
 17 38  1  0
 18 39  1  0
 19 40  1  0
 20 41  1  0
 21 42  1  0
M  END
> <Uni-Dock RESULT> 
ENERGY=   -6.075  LOWER_BOUND=    0.139  UPPER_BOUND=    0.139
INTER + INTRA:          -6.075
INTER:                  -6.075
INTRA:                   0.000
UNBOUND:                 0.000

$$$$

     RDKit          3D

 42 44  0  0  0  0  0  0  0  0999 V2000
   50.2587  -17.0905   -7.8707 C   0  0  0  0  0  0  0  0  0  0  0  0
   51.2494  -16.5328   -6.7993 C   0  0  0  0  0  0  0  0  0  0  0  0
   48.7689  -17.0942   -7.4107 C   0  0  0  0  0  0  0  0  0  0  0  0
   50.1057  -14.2055   -7.0297 C   0  0  0  0  0  0  0  0  0  0  0  0
   48.8346  -14.4933   -7.3479 C   0  0  0  0  0  0  0  0  0  0  0  0
   51.1246  -15.2017   -6.3724 C   0  0  0  0  0  0  0  0  0  0  0  0
   48.1346  -15.8779   -7.1163 C   0  0  0  0  0  0  0  0  0  0  0  0
   50.6821  -17.4430   -9.0932 C   0  0  0  0  0  0  0  0  0  0  0  0
   49.2369  -20.0113  -11.5969 N   0  0  0  0  0  0  0  0  0  0  0  0
   49.8235  -17.9112  -10.2380 C   0  0  0  0  0  0  0  0  0  0  0  0
   48.1030  -18.3057   -7.1968 C   0  0  0  0  0  0  0  0  0  0  0  0
   52.1906  -17.3794   -6.2054 C   0  0  0  0  0  0  0  0  0  0  0  0
   50.0455  -19.4075  -10.5252 C   0  0  0  0  0  0  0  0  0  0  0  0
   46.8232  -15.8877   -6.6306 C   0  0  0  0  0  0  0  0  0  0  0  0
   51.9600  -14.7261   -5.3568 C   0  0  0  0  0  0  0  0  0  0  0  0
   49.4854  -19.4048  -12.9015 C   0  0  0  0  0  0  0  0  0  0  0  0
   47.8096  -20.0177  -11.2861 C   0  0  0  0  0  0  0  0  0  0  0  0
   46.7933  -18.3053   -6.7174 C   0  0  0  0  0  0  0  0  0  0  0  0
   53.0227  -16.8943   -5.1964 C   0  0  0  0  0  0  0  0  0  0  0  0
   52.9067  -15.5706   -4.7720 C   0  0  0  0  0  0  0  0  0  0  0  0
   46.1545  -17.0982   -6.4348 C   0  0  0  0  0  0  0  0  0  0  0  0
   50.4749  -13.2110   -7.2699 H   0  0  0  0  0  0  0  0  0  0  0  0
   48.2438  -13.7163   -7.8275 H   0  0  0  0  0  0  0  0  0  0  0  0
   51.7456  -17.3668   -9.3142 H   0  0  0  0  0  0  0  0  0  0  0  0
   50.0898  -17.3131  -11.1174 H   0  0  0  0  0  0  0  0  0  0  0  0
   48.7665  -17.7106  -10.0402 H   0  0  0  0  0  0  0  0  0  0  0  0
   48.6046  -19.2492   -7.3932 H   0  0  0  0  0  0  0  0  0  0  0  0
   52.2691  -18.4171   -6.5175 H   0  0  0  0  0  0  0  0  0  0  0  0
   51.1052  -19.5708  -10.7648 H   0  0  0  0  0  0  0  0  0  0  0  0
   49.8753  -19.9818   -9.6045 H   0  0  0  0  0  0  0  0  0  0  0  0
   46.3159  -14.9546   -6.3998 H   0  0  0  0  0  0  0  0  0  0  0  0
   51.8790  -13.6977   -5.0151 H   0  0  0  0  0  0  0  0  0  0  0  0
   50.5549  -19.4188  -13.1387 H   0  0  0  0  0  0  0  0  0  0  0  0
   48.9835  -19.9788  -13.6885 H   0  0  0  0  0  0  0  0  0  0  0  0
   49.1302  -18.3704  -12.9606 H   0  0  0  0  0  0  0  0  0  0  0  0
   47.3740  -19.0130  -11.2743 H   0  0  0  0  0  0  0  0  0  0  0  0
   47.6257  -20.4871  -10.3134 H   0  0  0  0  0  0  0  0  0  0  0  0
   47.2636  -20.6121  -12.0274 H   0  0  0  0  0  0  0  0  0  0  0  0
   46.2753  -19.2466   -6.5531 H   0  0  0  0  0  0  0  0  0  0  0  0
   53.7544  -17.5514   -4.7338 H   0  0  0  0  0  0  0  0  0  0  0  0
   53.5519  -15.1956   -3.9817 H   0  0  0  0  0  0  0  0  0  0  0  0
   45.1361  -17.0991   -6.0546 H   0  0  0  0  0  0  0  0  0  0  0  0
  2  1  1  0
  3  1  1  0
  4  6  1  0
  5  7  1  0
  6  2  2  0
  7  3  2  0
  8  1  2  3
  9 13  1  0
 10  8  1  0
 11  3  1  0
 12  2  1  0
 13 10  1  0
 14  7  1  0
 15  6  1  0
 16  9  1  0
 17  9  1  0
 18 11  2  0
 19 12  2  0
 20 19  1  0
 21 18  1  0
  5  4  2  0
 21 14  2  0
 20 15  2  0
  4 22  1  0
  5 23  1  0
  8 24  1  0
 10 25  1  0
 10 26  1  0
 11 27  1  0
 12 28  1  0
 13 29  1  0
 13 30  1  0
 14 31  1  0
 15 32  1  0
 16 33  1  0
 16 34  1  0
 16 35  1  0
 17 36  1  0
 17 37  1  0
 17 38  1  0
 18 39  1  0
 19 40  1  0
 20 41  1  0
 21 42  1  0
M  END
> <Uni-Dock RESULT> 
ENERGY=   -6.075  LOWER_BOUND=    0.017  UPPER_BOUND=    0.017
INTER + INTRA:          -6.075
INTER:                  -6.075
INTRA:                   0.000
UNBOUND:                 0.000

$$$$

     RDKit          3D

 42 44  0  0  0  0  0  0  0  0999 V2000
   45.8331  -19.1487   -8.8826 C   0  0  0  0  0  0  0  0  0  0  0  0
   44.3919  -19.5822   -8.4638 C   0  0  0  0  0  0  0  0  0  0  0  0
   46.2816  -17.7833   -8.2780 C   0  0  0  0  0  0  0  0  0  0  0  0
   45.2228  -19.7802   -6.0046 C   0  0  0  0  0  0  0  0  0  0  0  0
   46.1952  -18.8607   -5.9106 C   0  0  0  0  0  0  0  0  0  0  0  0
   44.1082  -19.8127   -7.1088 C   0  0  0  0  0  0  0  0  0  0  0  0
   46.3918  -17.6478   -6.8859 C   0  0  0  0  0  0  0  0  0  0  0  0
   46.6118  -19.9481   -9.6259 C   0  0  0  0  0  0  0  0  0  0  0  0
   49.4937  -19.0794  -12.0535 N   0  0  0  0  0  0  0  0  0  0  0  0
   48.0405  -19.6886  -10.0242 C   0  0  0  0  0  0  0  0  0  0  0  0
   46.4740  -16.6758   -9.1107 C   0  0  0  0  0  0  0  0  0  0  0  0
   43.3735  -19.6491   -9.4197 C   0  0  0  0  0  0  0  0  0  0  0  0
   48.1538  -19.3935  -11.5311 C   0  0  0  0  0  0  0  0  0  0  0  0
   46.7194  -16.4022   -6.3412 C   0  0  0  0  0  0  0  0  0  0  0  0
   42.7998  -20.1235   -6.7254 C   0  0  0  0  0  0  0  0  0  0  0  0
   50.4389  -20.1786  -11.8807 C   0  0  0  0  0  0  0  0  0  0  0  0
   50.0312  -17.8362  -11.5065 C   0  0  0  0  0  0  0  0  0  0  0  0
   46.8059  -15.4388   -8.5588 C   0  0  0  0  0  0  0  0  0  0  0  0
   42.0724  -19.9646   -9.0279 C   0  0  0  0  0  0  0  0  0  0  0  0
   41.7859  -20.2000   -7.6832 C   0  0  0  0  0  0  0  0  0  0  0  0
   46.9285  -15.3023   -7.1763 C   0  0  0  0  0  0  0  0  0  0  0  0
   45.2173  -20.5875   -5.2757 H   0  0  0  0  0  0  0  0  0  0  0  0
   46.9234  -18.9731   -5.1106 H   0  0  0  0  0  0  0  0  0  0  0  0
   46.2026  -20.8982   -9.9659 H   0  0  0  0  0  0  0  0  0  0  0  0
   48.6227  -20.5815   -9.7682 H   0  0  0  0  0  0  0  0  0  0  0  0
   48.4655  -18.8679   -9.4389 H   0  0  0  0  0  0  0  0  0  0  0  0
   46.3566  -16.7718  -10.1866 H   0  0  0  0  0  0  0  0  0  0  0  0
   43.5879  -19.4447  -10.4650 H   0  0  0  0  0  0  0  0  0  0  0  0
   47.7619  -20.2526  -12.0927 H   0  0  0  0  0  0  0  0  0  0  0  0
   47.4837  -18.5621  -11.7884 H   0  0  0  0  0  0  0  0  0  0  0  0
   46.8114  -16.2801   -5.2652 H   0  0  0  0  0  0  0  0  0  0  0  0
   42.5622  -20.3072   -5.6810 H   0  0  0  0  0  0  0  0  0  0  0  0
   50.0397  -21.1047  -12.3087 H   0  0  0  0  0  0  0  0  0  0  0  0
   51.3716  -19.9644  -12.4146 H   0  0  0  0  0  0  0  0  0  0  0  0
   50.6869  -20.3607  -10.8295 H   0  0  0  0  0  0  0  0  0  0  0  0
   50.2651  -17.9090  -10.4391 H   0  0  0  0  0  0  0  0  0  0  0  0
   49.3256  -17.0105  -11.6515 H   0  0  0  0  0  0  0  0  0  0  0  0
   50.9504  -17.5570  -12.0337 H   0  0  0  0  0  0  0  0  0  0  0  0
   46.9574  -14.5788   -9.2061 H   0  0  0  0  0  0  0  0  0  0  0  0
   41.2799  -20.0166   -9.7698 H   0  0  0  0  0  0  0  0  0  0  0  0
   40.7704  -20.4401   -7.3786 H   0  0  0  0  0  0  0  0  0  0  0  0
   47.1804  -14.3361   -6.7465 H   0  0  0  0  0  0  0  0  0  0  0  0
  2  1  1  0
  3  1  1  0
  4  6  1  0
  5  7  1  0
  6  2  2  0
  7  3  2  0
  8  1  2  3
  9 13  1  0
 10  8  1  0
 11  3  1  0
 12  2  1  0
 13 10  1  0
 14  7  1  0
 15  6  1  0
 16  9  1  0
 17  9  1  0
 18 11  2  0
 19 12  2  0
 20 19  1  0
 21 18  1  0
  5  4  2  0
 21 14  2  0
 20 15  2  0
  4 22  1  0
  5 23  1  0
  8 24  1  0
 10 25  1  0
 10 26  1  0
 11 27  1  0
 12 28  1  0
 13 29  1  0
 13 30  1  0
 14 31  1  0
 15 32  1  0
 16 33  1  0
 16 34  1  0
 16 35  1  0
 17 36  1  0
 17 37  1  0
 17 38  1  0
 18 39  1  0
 19 40  1  0
 20 41  1  0
 21 42  1  0
M  END
> <Uni-Dock RESULT> 
ENERGY=   -4.739  LOWER_BOUND=    3.369  UPPER_BOUND=    6.293
INTER + INTRA:          -4.739
INTER:                  -4.739
INTRA:                   0.000
UNBOUND:                 0.000

$$$$

     RDKit          3D

 42 44  0  0  0  0  0  0  0  0999 V2000
   49.9908  -17.7592   -8.2744 C   0  0  0  0  0  0  0  0  0  0  0  0
   48.6198  -17.1644   -7.8196 C   0  0  0  0  0  0  0  0  0  0  0  0
   51.0037  -17.9723   -7.1084 C   0  0  0  0  0  0  0  0  0  0  0  0
   48.1789  -19.3483   -6.4728 C   0  0  0  0  0  0  0  0  0  0  0  0
   49.4019  -19.7652   -6.1120 C   0  0  0  0  0  0  0  0  0  0  0  0
   47.8146  -17.8917   -6.9295 C   0  0  0  0  0  0  0  0  0  0  0  0
   50.6898  -18.8703   -6.0771 C   0  0  0  0  0  0  0  0  0  0  0  0
   50.2048  -18.1195   -9.5482 C   0  0  0  0  0  0  0  0  0  0  0  0
   53.4930  -18.3165  -11.5736 N   0  0  0  0  0  0  0  0  0  0  0  0
   51.4422  -18.7792  -10.0967 C   0  0  0  0  0  0  0  0  0  0  0  0
   52.1683  -17.2003   -7.0398 C   0  0  0  0  0  0  0  0  0  0  0  0
   48.2434  -15.8796   -8.2234 C   0  0  0  0  0  0  0  0  0  0  0  0
   52.2333  -17.8154  -11.0000 C   0  0  0  0  0  0  0  0  0  0  0  0
   51.5635  -19.0034   -4.9932 C   0  0  0  0  0  0  0  0  0  0  0  0
   46.6252  -17.3248   -6.4610 C   0  0  0  0  0  0  0  0  0  0  0  0
   53.2962  -19.4695  -12.4473 C   0  0  0  0  0  0  0  0  0  0  0  0
   54.4999  -18.5987  -10.5536 C   0  0  0  0  0  0  0  0  0  0  0  0
   53.0364  -17.3440   -5.9578 C   0  0  0  0  0  0  0  0  0  0  0  0
   47.0527  -15.3247   -7.7544 C   0  0  0  0  0  0  0  0  0  0  0  0
   46.2459  -16.0454   -6.8738 C   0  0  0  0  0  0  0  0  0  0  0  0
   52.7345  -18.2442   -4.9362 C   0  0  0  0  0  0  0  0  0  0  0  0
   47.3753  -20.0813   -6.4784 H   0  0  0  0  0  0  0  0  0  0  0  0
   49.5219  -20.8125   -5.8444 H   0  0  0  0  0  0  0  0  0  0  0  0
   49.4095  -17.9537  -10.2732 H   0  0  0  0  0  0  0  0  0  0  0  0
   51.1226  -19.6581  -10.6687 H   0  0  0  0  0  0  0  0  0  0  0  0
   52.0753  -19.1544   -9.2874 H   0  0  0  0  0  0  0  0  0  0  0  0
   52.3960  -16.4808   -7.8214 H   0  0  0  0  0  0  0  0  0  0  0  0
   48.8799  -15.3061   -8.8916 H   0  0  0  0  0  0  0  0  0  0  0  0
   51.5872  -17.4916  -11.8275 H   0  0  0  0  0  0  0  0  0  0  0  0
   52.4545  -16.8957  -10.4417 H   0  0  0  0  0  0  0  0  0  0  0  0
   51.3371  -19.6961   -4.1869 H   0  0  0  0  0  0  0  0  0  0  0  0
   45.9882  -17.8743   -5.7731 H   0  0  0  0  0  0  0  0  0  0  0  0
   52.5538  -19.2473  -13.2218 H   0  0  0  0  0  0  0  0  0  0  0  0
   54.2283  -19.7137  -12.9690 H   0  0  0  0  0  0  0  0  0  0  0  0
   52.9719  -20.3622  -11.9016 H   0  0  0  0  0  0  0  0  0  0  0  0
   54.2355  -19.4534   -9.9220 H   0  0  0  0  0  0  0  0  0  0  0  0
   54.6559  -17.7263   -9.9094 H   0  0  0  0  0  0  0  0  0  0  0  0
   55.4654  -18.8149  -11.0247 H   0  0  0  0  0  0  0  0  0  0  0  0
   53.9422  -16.7455   -5.9055 H   0  0  0  0  0  0  0  0  0  0  0  0
   46.7593  -14.3261   -8.0673 H   0  0  0  0  0  0  0  0  0  0  0  0
   45.3211  -15.6093   -6.5046 H   0  0  0  0  0  0  0  0  0  0  0  0
   53.4082  -18.3505   -4.0898 H   0  0  0  0  0  0  0  0  0  0  0  0
  2  1  1  0
  3  1  1  0
  4  6  1  0
  5  7  1  0
  6  2  2  0
  7  3  2  0
  8  1  2  3
  9 13  1  0
 10  8  1  0
 11  3  1  0
 12  2  1  0
 13 10  1  0
 14  7  1  0
 15  6  1  0
 16  9  1  0
 17  9  1  0
 18 11  2  0
 19 12  2  0
 20 19  1  0
 21 18  1  0
  5  4  2  0
 21 14  2  0
 20 15  2  0
  4 22  1  0
  5 23  1  0
  8 24  1  0
 10 25  1  0
 10 26  1  0
 11 27  1  0
 12 28  1  0
 13 29  1  0
 13 30  1  0
 14 31  1  0
 15 32  1  0
 16 33  1  0
 16 34  1  0
 16 35  1  0
 17 36  1  0
 17 37  1  0
 17 38  1  0
 18 39  1  0
 19 40  1  0
 20 41  1  0
 21 42  1  0
M  END
> <Uni-Dock RESULT> 
ENERGY=   -4.467  LOWER_BOUND=    2.051  UPPER_BOUND=    4.866
INTER + INTRA:          -4.467
INTER:                  -4.467
INTRA:                   0.000
UNBOUND:                 0.000

$$$$

     RDKit          3D

 42 44  0  0  0  0  0  0  0  0999 V2000
   47.3428  -16.4299  -10.8883 C   0  0  0  0  0  0  0  0  0  0  0  0
   46.1895  -15.7187  -11.6657 C   0  0  0  0  0  0  0  0  0  0  0  0
   47.1013  -16.5261   -9.3510 C   0  0  0  0  0  0  0  0  0  0  0  0
   44.6065  -17.6764  -11.0031 C   0  0  0  0  0  0  0  0  0  0  0  0
   45.0770  -18.0935   -9.8181 C   0  0  0  0  0  0  0  0  0  0  0  0
   44.9038  -16.2813  -11.6575 C   0  0  0  0  0  0  0  0  0  0  0  0
   46.0070  -17.2599   -8.8688 C   0  0  0  0  0  0  0  0  0  0  0  0
   48.3870  -16.9701  -11.5333 C   0  0  0  0  0  0  0  0  0  0  0  0
   52.0146  -17.5868  -10.3445 N   0  0  0  0  0  0  0  0  0  0  0  0
   49.5148  -17.7524  -10.9144 C   0  0  0  0  0  0  0  0  0  0  0  0
   47.9097  -15.8040   -8.4666 C   0  0  0  0  0  0  0  0  0  0  0  0
   46.4167  -14.4859  -12.2853 C   0  0  0  0  0  0  0  0  0  0  0  0
   50.8325  -16.9570  -10.9552 C   0  0  0  0  0  0  0  0  0  0  0  0
   45.7471  -17.2821   -7.4949 C   0  0  0  0  0  0  0  0  0  0  0  0
   43.8548  -15.6038  -12.2867 C   0  0  0  0  0  0  0  0  0  0  0  0
   52.3876  -18.8385  -10.9968 C   0  0  0  0  0  0  0  0  0  0  0  0
   51.8695  -17.7710   -8.9027 C   0  0  0  0  0  0  0  0  0  0  0  0
   47.6460  -15.8366   -7.0974 C   0  0  0  0  0  0  0  0  0  0  0  0
   45.3647  -13.8201  -12.9146 C   0  0  0  0  0  0  0  0  0  0  0  0
   44.0860  -14.3773  -12.9141 C   0  0  0  0  0  0  0  0  0  0  0  0
   46.5665  -16.5745   -6.6125 C   0  0  0  0  0  0  0  0  0  0  0  0
   43.9910  -18.3671  -11.5751 H   0  0  0  0  0  0  0  0  0  0  0  0
   44.8164  -19.0987   -9.4947 H   0  0  0  0  0  0  0  0  0  0  0  0
   48.4339  -16.8700  -12.6165 H   0  0  0  0  0  0  0  0  0  0  0  0
   49.6185  -18.6863  -11.4791 H   0  0  0  0  0  0  0  0  0  0  0  0
   49.2718  -18.0410   -9.8876 H   0  0  0  0  0  0  0  0  0  0  0  0
   48.7375  -15.2089   -8.8419 H   0  0  0  0  0  0  0  0  0  0  0  0
   47.4062  -14.0376  -12.2688 H   0  0  0  0  0  0  0  0  0  0  0  0
   51.0740  -16.7211  -12.0007 H   0  0  0  0  0  0  0  0  0  0  0  0
   50.6805  -15.9802  -10.4762 H   0  0  0  0  0  0  0  0  0  0  0  0
   44.9051  -17.8474   -7.1041 H   0  0  0  0  0  0  0  0  0  0  0  0
   42.8532  -16.0255  -12.2922 H   0  0  0  0  0  0  0  0  0  0  0  0
   52.5134  -18.6918  -12.0752 H   0  0  0  0  0  0  0  0  0  0  0  0
   53.3518  -19.1927  -10.6152 H   0  0  0  0  0  0  0  0  0  0  0  0
   51.6505  -19.6331  -10.8383 H   0  0  0  0  0  0  0  0  0  0  0  0
   51.1120  -18.5188   -8.6452 H   0  0  0  0  0  0  0  0  0  0  0  0
   51.6044  -16.8265   -8.4148 H   0  0  0  0  0  0  0  0  0  0  0  0
   52.8212  -18.0920   -8.4645 H   0  0  0  0  0  0  0  0  0  0  0  0
   48.2753  -15.2771   -6.4102 H   0  0  0  0  0  0  0  0  0  0  0  0
   45.5400  -12.8616  -13.3962 H   0  0  0  0  0  0  0  0  0  0  0  0
   43.2660  -13.8545  -13.3999 H   0  0  0  0  0  0  0  0  0  0  0  0
   46.3576  -16.5937   -5.5459 H   0  0  0  0  0  0  0  0  0  0  0  0
  2  1  1  0
  3  1  1  0
  4  6  1  0
  5  7  1  0
  6  2  2  0
  7  3  2  0
  8  1  2  3
  9 13  1  0
 10  8  1  0
 11  3  1  0
 12  2  1  0
 13 10  1  0
 14  7  1  0
 15  6  1  0
 16  9  1  0
 17  9  1  0
 18 11  2  0
 19 12  2  0
 20 19  1  0
 21 18  1  0
  5  4  2  0
 21 14  2  0
 20 15  2  0
  4 22  1  0
  5 23  1  0
  8 24  1  0
 10 25  1  0
 10 26  1  0
 11 27  1  0
 12 28  1  0
 13 29  1  0
 13 30  1  0
 14 31  1  0
 15 32  1  0
 16 33  1  0
 16 34  1  0
 16 35  1  0
 17 36  1  0
 17 37  1  0
 17 38  1  0
 18 39  1  0
 19 40  1  0
 20 41  1  0
 21 42  1  0
M  END
> <Uni-Dock RESULT> 
ENERGY=   -4.233  LOWER_BOUND=    3.655  UPPER_BOUND=    6.183
INTER + INTRA:          -4.233
INTER:                  -4.233
INTRA:                   0.000
UNBOUND:                 0.000

$$$$

     RDKit          3D

 42 44  0  0  0  0  0  0  0  0999 V2000
   46.1176  -16.6931  -10.5766 C   0  0  0  0  0  0  0  0  0  0  0  0
   47.0401  -16.3377   -9.3671 C   0  0  0  0  0  0  0  0  0  0  0  0
   46.1094  -15.6139  -11.7019 C   0  0  0  0  0  0  0  0  0  0  0  0
   49.0968  -16.5048  -10.9544 C   0  0  0  0  0  0  0  0  0  0  0  0
   48.6184  -16.1380  -12.1529 C   0  0  0  0  0  0  0  0  0  0  0  0
   48.4207  -16.1925   -9.5730 C   0  0  0  0  0  0  0  0  0  0  0  0
   47.2974  -15.3260  -12.3906 C   0  0  0  0  0  0  0  0  0  0  0  0
   45.4756  -17.8686  -10.6402 C   0  0  0  0  0  0  0  0  0  0  0  0
   42.1889  -18.8299  -12.4367 N   0  0  0  0  0  0  0  0  0  0  0  0
   44.6298  -18.3667  -11.7821 C   0  0  0  0  0  0  0  0  0  0  0  0
   44.9520  -14.8693  -11.9524 C   0  0  0  0  0  0  0  0  0  0  0  0
   46.4822  -16.0763   -8.1118 C   0  0  0  0  0  0  0  0  0  0  0  0
   43.1393  -18.4008  -11.3976 C   0  0  0  0  0  0  0  0  0  0  0  0
   47.3067  -14.3048  -13.3460 C   0  0  0  0  0  0  0  0  0  0  0  0
   49.2352  -15.7971   -8.5073 C   0  0  0  0  0  0  0  0  0  0  0  0
   42.4247  -20.1986  -12.8868 C   0  0  0  0  0  0  0  0  0  0  0  0
   42.1420  -17.9076  -13.5684 C   0  0  0  0  0  0  0  0  0  0  0  0
   44.9694  -13.8564  -12.9111 C   0  0  0  0  0  0  0  0  0  0  0  0
   47.3037  -15.6871   -7.0537 C   0  0  0  0  0  0  0  0  0  0  0  0
   48.6773  -15.5465   -7.2514 C   0  0  0  0  0  0  0  0  0  0  0  0
   46.1449  -13.5748  -13.6067 C   0  0  0  0  0  0  0  0  0  0  0  0
   50.0129  -17.0908  -10.9327 H   0  0  0  0  0  0  0  0  0  0  0  0
   49.1733  -16.4462  -13.0361 H   0  0  0  0  0  0  0  0  0  0  0  0
   45.5819  -18.5618   -9.8072 H   0  0  0  0  0  0  0  0  0  0  0  0
   44.9785  -19.3743  -12.0370 H   0  0  0  0  0  0  0  0  0  0  0  0
   44.7822  -17.7548  -12.6760 H   0  0  0  0  0  0  0  0  0  0  0  0
   44.0402  -15.0693  -11.3964 H   0  0  0  0  0  0  0  0  0  0  0  0
   45.4100  -16.1630   -7.9591 H   0  0  0  0  0  0  0  0  0  0  0  0
   43.0111  -19.0578  -10.5264 H   0  0  0  0  0  0  0  0  0  0  0  0
   42.8337  -17.4064  -11.0452 H   0  0  0  0  0  0  0  0  0  0  0  0
   48.2176  -14.0702  -13.8905 H   0  0  0  0  0  0  0  0  0  0  0  0
   50.3066  -15.6817   -8.6479 H   0  0  0  0  0  0  0  0  0  0  0  0
   42.4408  -20.8895  -12.0366 H   0  0  0  0  0  0  0  0  0  0  0  0
   41.6103  -20.5282  -13.5417 H   0  0  0  0  0  0  0  0  0  0  0  0
   43.3647  -20.3055  -13.4387 H   0  0  0  0  0  0  0  0  0  0  0  0
   43.0663  -17.9100  -14.1558 H   0  0  0  0  0  0  0  0  0  0  0  0
   41.9499  -16.8840  -13.2281 H   0  0  0  0  0  0  0  0  0  0  0  0
   41.3170  -18.1732  -14.2390 H   0  0  0  0  0  0  0  0  0  0  0  0
   44.0695  -13.2792  -13.1071 H   0  0  0  0  0  0  0  0  0  0  0  0
   46.8712  -15.4833   -6.0776 H   0  0  0  0  0  0  0  0  0  0  0  0
   49.3154  -15.2375   -6.4274 H   0  0  0  0  0  0  0  0  0  0  0  0
   46.1593  -12.7806  -14.3488 H   0  0  0  0  0  0  0  0  0  0  0  0
  2  1  1  0
  3  1  1  0
  4  6  1  0
  5  7  1  0
  6  2  2  0
  7  3  2  0
  8  1  2  3
  9 13  1  0
 10  8  1  0
 11  3  1  0
 12  2  1  0
 13 10  1  0
 14  7  1  0
 15  6  1  0
 16  9  1  0
 17  9  1  0
 18 11  2  0
 19 12  2  0
 20 19  1  0
 21 18  1  0
  5  4  2  0
 21 14  2  0
 20 15  2  0
  4 22  1  0
  5 23  1  0
  8 24  1  0
 10 25  1  0
 10 26  1  0
 11 27  1  0
 12 28  1  0
 13 29  1  0
 13 30  1  0
 14 31  1  0
 15 32  1  0
 16 33  1  0
 16 34  1  0
 16 35  1  0
 17 36  1  0
 17 37  1  0
 17 38  1  0
 18 39  1  0
 19 40  1  0
 20 41  1  0
 21 42  1  0
M  END
> <Uni-Dock RESULT> 
ENERGY=   -4.126  LOWER_BOUND=    4.398  UPPER_BOUND=    6.013
INTER + INTRA:          -4.126
INTER:                  -4.126
INTRA:                   0.000
UNBOUND:                 0.000

$$$$

     RDKit          3D

 42 44  0  0  0  0  0  0  0  0999 V2000
   47.1341  -16.4140   -9.8481 C   0  0  0  0  0  0  0  0  0  0  0  0
   48.5491  -16.6185   -9.2184 C   0  0  0  0  0  0  0  0  0  0  0  0
   46.0412  -17.3600   -9.2638 C   0  0  0  0  0  0  0  0  0  0  0  0
   47.5971  -15.7916   -6.9408 C   0  0  0  0  0  0  0  0  0  0  0  0
   46.3096  -16.1679   -6.9661 C   0  0  0  0  0  0  0  0  0  0  0  0
   48.7334  -16.3833   -7.8472 C   0  0  0  0  0  0  0  0  0  0  0  0
   45.7070  -17.2715   -7.9040 C   0  0  0  0  0  0  0  0  0  0  0  0
   46.9053  -15.4439  -10.7451 C   0  0  0  0  0  0  0  0  0  0  0  0
   44.2754  -15.2196  -13.5711 N   0  0  0  0  0  0  0  0  0  0  0  0
   45.5780  -15.0879  -11.3605 C   0  0  0  0  0  0  0  0  0  0  0  0
   45.4723  -18.3554  -10.0654 C   0  0  0  0  0  0  0  0  0  0  0  0
   49.5976  -17.1199   -9.9959 C   0  0  0  0  0  0  0  0  0  0  0  0
   45.5336  -15.4735  -12.8505 C   0  0  0  0  0  0  0  0  0  0  0  0
   44.7826  -18.1715   -7.3643 C   0  0  0  0  0  0  0  0  0  0  0  0
   49.9798  -16.6421   -7.2685 C   0  0  0  0  0  0  0  0  0  0  0  0
   43.9208  -13.8038  -13.6063 C   0  0  0  0  0  0  0  0  0  0  0  0
   43.1668  -16.0242  -13.0637 C   0  0  0  0  0  0  0  0  0  0  0  0
   44.5471  -19.2450   -9.5197 C   0  0  0  0  0  0  0  0  0  0  0  0
   50.8387  -17.3704   -9.4104 C   0  0  0  0  0  0  0  0  0  0  0  0
   51.0290  -17.1332   -8.0491 C   0  0  0  0  0  0  0  0  0  0  0  0
   44.2028  -19.1530   -8.1713 C   0  0  0  0  0  0  0  0  0  0  0  0
   47.8776  -14.9923   -6.2586 H   0  0  0  0  0  0  0  0  0  0  0  0
   45.6181  -15.6535   -6.3026 H   0  0  0  0  0  0  0  0  0  0  0  0
   47.7412  -14.8193  -11.0561 H   0  0  0  0  0  0  0  0  0  0  0  0
   45.4391  -14.0067  -11.2447 H   0  0  0  0  0  0  0  0  0  0  0  0
   44.7561  -15.5621  -10.8162 H   0  0  0  0  0  0  0  0  0  0  0  0
   45.7550  -18.4458  -11.1106 H   0  0  0  0  0  0  0  0  0  0  0  0
   49.4472  -17.3270  -11.0518 H   0  0  0  0  0  0  0  0  0  0  0  0
   46.3408  -14.9477  -13.3786 H   0  0  0  0  0  0  0  0  0  0  0  0
   45.7783  -16.5391  -12.9559 H   0  0  0  0  0  0  0  0  0  0  0  0
   44.5105  -18.1155   -6.3136 H   0  0  0  0  0  0  0  0  0  0  0  0
   50.1413  -16.4638   -6.2087 H   0  0  0  0  0  0  0  0  0  0  0  0
   44.7482  -13.2062  -14.0047 H   0  0  0  0  0  0  0  0  0  0  0  0
   43.0685  -13.6427  -14.2759 H   0  0  0  0  0  0  0  0  0  0  0  0
   43.6527  -13.4111  -12.6196 H   0  0  0  0  0  0  0  0  0  0  0  0
   42.8594  -15.7331  -12.0537 H   0  0  0  0  0  0  0  0  0  0  0  0
   43.4312  -17.0875  -13.0529 H   0  0  0  0  0  0  0  0  0  0  0  0
   42.2959  -15.9261  -13.7215 H   0  0  0  0  0  0  0  0  0  0  0  0
   44.1037  -20.0171  -10.1431 H   0  0  0  0  0  0  0  0  0  0  0  0
   51.6543  -17.7605  -10.0136 H   0  0  0  0  0  0  0  0  0  0  0  0
   51.9950  -17.3344   -7.5930 H   0  0  0  0  0  0  0  0  0  0  0  0
   43.4869  -19.8512   -7.7452 H   0  0  0  0  0  0  0  0  0  0  0  0
  2  1  1  0
  3  1  1  0
  4  6  1  0
  5  7  1  0
  6  2  2  0
  7  3  2  0
  8  1  2  3
  9 13  1  0
 10  8  1  0
 11  3  1  0
 12  2  1  0
 13 10  1  0
 14  7  1  0
 15  6  1  0
 16  9  1  0
 17  9  1  0
 18 11  2  0
 19 12  2  0
 20 19  1  0
 21 18  1  0
  5  4  2  0
 21 14  2  0
 20 15  2  0
  4 22  1  0
  5 23  1  0
  8 24  1  0
 10 25  1  0
 10 26  1  0
 11 27  1  0
 12 28  1  0
 13 29  1  0
 13 30  1  0
 14 31  1  0
 15 32  1  0
 16 33  1  0
 16 34  1  0
 16 35  1  0
 17 36  1  0
 17 37  1  0
 17 38  1  0
 18 39  1  0
 19 40  1  0
 20 41  1  0
 21 42  1  0
M  END
> <Uni-Dock RESULT> 
ENERGY=   -4.103  LOWER_BOUND=    3.654  UPPER_BOUND=    4.573
INTER + INTRA:          -4.103
INTER:                  -4.103
INTRA:                   0.000
UNBOUND:                 0.000

$$$$

     RDKit          3D

 42 44  0  0  0  0  0  0  0  0999 V2000
   47.7077  -17.5357   -7.6778 C   0  0  0  0  0  0  0  0  0  0  0  0
   48.7380  -16.4350   -7.2690 C   0  0  0  0  0  0  0  0  0  0  0  0
   48.1455  -18.3820   -8.9120 C   0  0  0  0  0  0  0  0  0  0  0  0
   50.4308  -18.3183   -6.6647 C   0  0  0  0  0  0  0  0  0  0  0  0
   50.1239  -19.3186   -7.5042 C   0  0  0  0  0  0  0  0  0  0  0  0
   50.0250  -16.8147   -6.8578 C   0  0  0  0  0  0  0  0  0  0  0  0
   49.3066  -19.1658   -8.8345 C   0  0  0  0  0  0  0  0  0  0  0  0
   46.6005  -17.7556   -6.9541 C   0  0  0  0  0  0  0  0  0  0  0  0
   43.1672  -19.1897   -8.0077 N   0  0  0  0  0  0  0  0  0  0  0  0
   45.5765  -18.8343   -7.1889 C   0  0  0  0  0  0  0  0  0  0  0  0
   47.4428  -18.2815  -10.1174 C   0  0  0  0  0  0  0  0  0  0  0  0
   48.4094  -15.0822   -7.4009 C   0  0  0  0  0  0  0  0  0  0  0  0
   44.2490  -18.2413   -7.6958 C   0  0  0  0  0  0  0  0  0  0  0  0
   49.7404  -19.8638   -9.9660 C   0  0  0  0  0  0  0  0  0  0  0  0
   50.9715  -15.8270   -6.5679 C   0  0  0  0  0  0  0  0  0  0  0  0
   42.7387  -19.9598   -6.8438 C   0  0  0  0  0  0  0  0  0  0  0  0
   43.4991  -20.0706   -9.1247 C   0  0  0  0  0  0  0  0  0  0  0  0
   47.8798  -18.9858  -11.2391 C   0  0  0  0  0  0  0  0  0  0  0  0
   49.3590  -14.1043   -7.1047 C   0  0  0  0  0  0  0  0  0  0  0  0
   50.6380  -14.4761   -6.6903 C   0  0  0  0  0  0  0  0  0  0  0  0
   49.0267  -19.7757  -11.1634 C   0  0  0  0  0  0  0  0  0  0  0  0
   50.9816  -18.5672   -5.7604 H   0  0  0  0  0  0  0  0  0  0  0  0
   50.4433  -20.3227   -7.2346 H   0  0  0  0  0  0  0  0  0  0  0  0
   46.4136  -17.1215   -6.0890 H   0  0  0  0  0  0  0  0  0  0  0  0
   45.4198  -19.3546   -6.2368 H   0  0  0  0  0  0  0  0  0  0  0  0
   45.9544  -19.5849   -7.8892 H   0  0  0  0  0  0  0  0  0  0  0  0
   46.5623  -17.6490  -10.1877 H   0  0  0  0  0  0  0  0  0  0  0  0
   47.4214  -14.7887   -7.7447 H   0  0  0  0  0  0  0  0  0  0  0  0
   43.8714  -17.5263   -6.9522 H   0  0  0  0  0  0  0  0  0  0  0  0
   44.4418  -17.6367   -8.5924 H   0  0  0  0  0  0  0  0  0  0  0  0
   50.6363  -20.4775   -9.9229 H   0  0  0  0  0  0  0  0  0  0  0  0
   51.9723  -16.1025   -6.2460 H   0  0  0  0  0  0  0  0  0  0  0  0
   42.4732  -19.2946   -6.0146 H   0  0  0  0  0  0  0  0  0  0  0  0
   41.8382  -20.5372   -7.0815 H   0  0  0  0  0  0  0  0  0  0  0  0
   43.5054  -20.6600   -6.4952 H   0  0  0  0  0  0  0  0  0  0  0  0
   44.2978  -20.7797   -8.8825 H   0  0  0  0  0  0  0  0  0  0  0  0
   43.8057  -19.4888  -10.0010 H   0  0  0  0  0  0  0  0  0  0  0  0
   42.6176  -20.6476   -9.4264 H   0  0  0  0  0  0  0  0  0  0  0  0
   47.3326  -18.9092  -12.1751 H   0  0  0  0  0  0  0  0  0  0  0  0
   49.1049  -13.0526   -7.2072 H   0  0  0  0  0  0  0  0  0  0  0  0
   51.3788  -13.7129   -6.4654 H   0  0  0  0  0  0  0  0  0  0  0  0
   49.3705  -20.3187  -12.0401 H   0  0  0  0  0  0  0  0  0  0  0  0
  2  1  1  0
  3  1  1  0
  4  6  1  0
  5  7  1  0
  6  2  2  0
  7  3  2  0
  8  1  2  3
  9 13  1  0
 10  8  1  0
 11  3  1  0
 12  2  1  0
 13 10  1  0
 14  7  1  0
 15  6  1  0
 16  9  1  0
 17  9  1  0
 18 11  2  0
 19 12  2  0
 20 19  1  0
 21 18  1  0
  5  4  2  0
 21 14  2  0
 20 15  2  0
  4 22  1  0
  5 23  1  0
  8 24  1  0
 10 25  1  0
 10 26  1  0
 11 27  1  0
 12 28  1  0
 13 29  1  0
 13 30  1  0
 14 31  1  0
 15 32  1  0
 16 33  1  0
 16 34  1  0
 16 35  1  0
 17 36  1  0
 17 37  1  0
 17 38  1  0
 18 39  1  0
 19 40  1  0
 20 41  1  0
 21 42  1  0
M  END
> <Uni-Dock RESULT> 
ENERGY=   -4.086  LOWER_BOUND=    2.441  UPPER_BOUND=    4.841
INTER + INTRA:          -4.086
INTER:                  -4.086
INTRA:                   0.000
UNBOUND:                 0.000

$$$$
