
     RDKit          3D

 42 44  0  0  0  0  0  0  0  0999 V2000
   50.1166  -17.5422   -7.7918 C   0  0  0  0  0  0  0  0  0  0  0  0
   51.0705  -16.7574   -6.8410 C   0  0  0  0  0  0  0  0  0  0  0  0
   48.6426  -17.6212   -7.2786 C   0  0  0  0  0  0  0  0  0  0  0  0
   49.7104  -14.5970   -7.3443 C   0  0  0  0  0  0  0  0  0  0  0  0
   48.4632  -15.0399   -7.5632 C   0  0  0  0  0  0  0  0  0  0  0  0
   50.8348  -15.3959   -6.5971 C   0  0  0  0  0  0  0  0  0  0  0  0
   47.9058  -16.4376   -7.1169 C   0  0  0  0  0  0  0  0  0  0  0  0
   50.4588  -18.0273   -8.9939 C   0  0  0  0  0  0  0  0  0  0  0  0
   50.9140  -17.8248  -12.0380 N   0  0  0  0  0  0  0  0  0  0  0  0
   51.8085  -17.9392   -9.6553 C   0  0  0  0  0  0  0  0  0  0  0  0
   48.0961  -18.8506   -6.8981 C   0  0  0  0  0  0  0  0  0  0  0  0
   52.0871  -17.4299   -6.1551 C   0  0  0  0  0  0  0  0  0  0  0  0
   51.7636  -17.1957  -11.0058 C   0  0  0  0  0  0  0  0  0  0  0  0
   46.6152  -16.5009   -6.5822 C   0  0  0  0  0  0  0  0  0  0  0  0
   51.6416  -14.7124   -5.6819 C   0  0  0  0  0  0  0  0  0  0  0  0
   51.4662  -19.0986  -12.5010 C   0  0  0  0  0  0  0  0  0  0  0  0
   50.7495  -16.9134  -13.1729 C   0  0  0  0  0  0  0  0  0  0  0  0
   46.8061  -18.9040   -6.3702 C   0  0  0  0  0  0  0  0  0  0  0  0
   52.8900  -16.7390   -5.2476 C   0  0  0  0  0  0  0  0  0  0  0  0
   52.6677  -15.3823   -5.0117 C   0  0  0  0  0  0  0  0  0  0  0  0
   46.0677  -17.7312   -6.2109 C   0  0  0  0  0  0  0  0  0  0  0  0
   49.9770  -13.6181   -7.7359 H   0  0  0  0  0  0  0  0  0  0  0  0
   47.7874  -14.3966   -8.1222 H   0  0  0  0  0  0  0  0  0  0  0  0
   49.6909  -18.5195   -9.5897 H   0  0  0  0  0  0  0  0  0  0  0  0
   52.2045  -18.9524   -9.7838 H   0  0  0  0  0  0  0  0  0  0  0  0
   52.5289  -17.4170   -9.0169 H   0  0  0  0  0  0  0  0  0  0  0  0
   48.6759  -19.7633   -7.0030 H   0  0  0  0  0  0  0  0  0  0  0  0
   52.2478  -18.4916   -6.3203 H   0  0  0  0  0  0  0  0  0  0  0  0
   52.7895  -17.0802  -11.3804 H   0  0  0  0  0  0  0  0  0  0  0  0
   51.3902  -16.1820  -10.8046 H   0  0  0  0  0  0  0  0  0  0  0  0
   46.0292  -15.5949   -6.4531 H   0  0  0  0  0  0  0  0  0  0  0  0
   51.4739  -13.6573   -5.4828 H   0  0  0  0  0  0  0  0  0  0  0  0
   51.4909  -19.8379  -11.6947 H   0  0  0  0  0  0  0  0  0  0  0  0
   50.8322  -19.5297  -13.2845 H   0  0  0  0  0  0  0  0  0  0  0  0
   52.4794  -18.9882  -12.9042 H   0  0  0  0  0  0  0  0  0  0  0  0
   50.2792  -15.9773  -12.8512 H   0  0  0  0  0  0  0  0  0  0  0  0
   50.0850  -17.3512  -13.9262 H   0  0  0  0  0  0  0  0  0  0  0  0
   51.7054  -16.6735  -13.6525 H   0  0  0  0  0  0  0  0  0  0  0  0
   46.3800  -19.8593   -6.0751 H   0  0  0  0  0  0  0  0  0  0  0  0
   53.6812  -17.2611   -4.7163 H   0  0  0  0  0  0  0  0  0  0  0  0
   53.2894  -14.8464   -4.2992 H   0  0  0  0  0  0  0  0  0  0  0  0
   45.0643  -17.7740   -5.7954 H   0  0  0  0  0  0  0  0  0  0  0  0
  2  1  1  0
  3  1  1  0
  4  6  1  0
  5  7  1  0
  6  2  2  0
  7  3  2  0
  8  1  2  3
  9 13  1  0
 10  8  1  0
 11  3  1  0
 12  2  1  0
 13 10  1  0
 14  7  1  0
 15  6  1  0
 16  9  1  0
 17  9  1  0
 18 11  2  0
 19 12  2  0
 20 19  1  0
 21 18  1  0
  5  4  2  0
 21 14  2  0
 20 15  2  0
  4 22  1  0
  5 23  1  0
  8 24  1  0
 10 25  1  0
 10 26  1  0
 11 27  1  0
 12 28  1  0
 13 29  1  0
 13 30  1  0
 14 31  1  0
 15 32  1  0
 16 33  1  0
 16 34  1  0
 16 35  1  0
 17 36  1  0
 17 37  1  0
 17 38  1  0
 18 39  1  0
 19 40  1  0
 20 41  1  0
 21 42  1  0
M  END
> <Uni-Dock RESULT> 
ENERGY=   -6.023  LOWER_BOUND=    0.000  UPPER_BOUND=    0.000
INTER + INTRA:          -6.023
INTER:                  -6.023
INTRA:                   0.000
UNBOUND:                 0.000

$$$$

     RDKit          3D

 42 44  0  0  0  0  0  0  0  0999 V2000
   50.1766  -16.8397   -7.7004 C   0  0  0  0  0  0  0  0  0  0  0  0
   48.6722  -16.9352   -7.3034 C   0  0  0  0  0  0  0  0  0  0  0  0
   51.1581  -17.0966   -6.5118 C   0  0  0  0  0  0  0  0  0  0  0  0
   49.0168  -19.4666   -6.8095 C   0  0  0  0  0  0  0  0  0  0  0  0
   50.2909  -19.5484   -6.3977 C   0  0  0  0  0  0  0  0  0  0  0  0
   48.1582  -18.1540   -6.8354 C   0  0  0  0  0  0  0  0  0  0  0  0
   51.1535  -18.3466   -5.8734 C   0  0  0  0  0  0  0  0  0  0  0  0
   50.6317  -16.6625   -8.9490 C   0  0  0  0  0  0  0  0  0  0  0  0
   51.4828  -17.6272  -11.7526 N   0  0  0  0  0  0  0  0  0  0  0  0
   49.8078  -16.5000  -10.1987 C   0  0  0  0  0  0  0  0  0  0  0  0
   51.9665  -16.0617   -6.0318 C   0  0  0  0  0  0  0  0  0  0  0  0
   47.8697  -15.7898   -7.3130 C   0  0  0  0  0  0  0  0  0  0  0  0
   50.0943  -17.5930  -11.2484 C   0  0  0  0  0  0  0  0  0  0  0  0
   51.9738  -18.5507   -4.7594 C   0  0  0  0  0  0  0  0  0  0  0  0
   46.8298  -18.2183   -6.4032 C   0  0  0  0  0  0  0  0  0  0  0  0
   51.8015  -16.4499  -12.5614 C   0  0  0  0  0  0  0  0  0  0  0  0
   51.6983  -18.8434  -12.5400 C   0  0  0  0  0  0  0  0  0  0  0  0
   52.7849  -16.2765   -4.9230 C   0  0  0  0  0  0  0  0  0  0  0  0
   46.5445  -15.8643   -6.8845 C   0  0  0  0  0  0  0  0  0  0  0  0
   46.0253  -17.0768   -6.4306 C   0  0  0  0  0  0  0  0  0  0  0  0
   52.7873  -17.5182   -4.2869 C   0  0  0  0  0  0  0  0  0  0  0  0
   48.5443  -20.3732   -7.1801 H   0  0  0  0  0  0  0  0  0  0  0  0
   50.7824  -20.5167   -6.4590 H   0  0  0  0  0  0  0  0  0  0  0  0
   51.7092  -16.6582   -9.1102 H   0  0  0  0  0  0  0  0  0  0  0  0
   49.9933  -15.5042  -10.6158 H   0  0  0  0  0  0  0  0  0  0  0  0
   48.7365  -16.5336   -9.9738 H   0  0  0  0  0  0  0  0  0  0  0  0
   51.9524  -15.0880   -6.5133 H   0  0  0  0  0  0  0  0  0  0  0  0
   48.2782  -14.8393   -7.6448 H   0  0  0  0  0  0  0  0  0  0  0  0
   49.3922  -17.4735  -12.0844 H   0  0  0  0  0  0  0  0  0  0  0  0
   49.8597  -18.5595  -10.7812 H   0  0  0  0  0  0  0  0  0  0  0  0
   51.9854  -19.5131   -4.2549 H   0  0  0  0  0  0  0  0  0  0  0  0
   46.4153  -19.1548   -6.0395 H   0  0  0  0  0  0  0  0  0  0  0  0
   51.7616  -15.5341  -11.9637 H   0  0  0  0  0  0  0  0  0  0  0  0
   52.8265  -16.5137  -12.9449 H   0  0  0  0  0  0  0  0  0  0  0  0
   51.1239  -16.3388  -13.4155 H   0  0  0  0  0  0  0  0  0  0  0  0
   51.5229  -19.7355  -11.9283 H   0  0  0  0  0  0  0  0  0  0  0  0
   52.7374  -18.9020  -12.8829 H   0  0  0  0  0  0  0  0  0  0  0  0
   51.0418  -18.8902  -13.4165 H   0  0  0  0  0  0  0  0  0  0  0  0
   53.4144  -15.4730   -4.5498 H   0  0  0  0  0  0  0  0  0  0  0  0
   45.9203  -14.9748   -6.8939 H   0  0  0  0  0  0  0  0  0  0  0  0
   44.9945  -17.1324   -6.0904 H   0  0  0  0  0  0  0  0  0  0  0  0
   53.4224  -17.6825   -3.4203 H   0  0  0  0  0  0  0  0  0  0  0  0
  2  1  1  0
  3  1  1  0
  4  6  1  0
  5  7  1  0
  6  2  2  0
  7  3  2  0
  8  1  2  3
  9 13  1  0
 10  8  1  0
 11  3  1  0
 12  2  1  0
 13 10  1  0
 14  7  1  0
 15  6  1  0
 16  9  1  0
 17  9  1  0
 18 11  2  0
 19 12  2  0
 20 19  1  0
 21 18  1  0
  5  4  2  0
 21 14  2  0
 20 15  2  0
  4 22  1  0
  5 23  1  0
  8 24  1  0
 10 25  1  0
 10 26  1  0
 11 27  1  0
 12 28  1  0
 13 29  1  0
 13 30  1  0
 14 31  1  0
 15 32  1  0
 16 33  1  0
 16 34  1  0
 16 35  1  0
 17 36  1  0
 17 37  1  0
 17 38  1  0
 18 39  1  0
 19 40  1  0
 20 41  1  0
 21 42  1  0
M  END
> <Uni-Dock RESULT> 
ENERGY=   -5.414  LOWER_BOUND=    1.206  UPPER_BOUND=    4.480
INTER + INTRA:          -5.414
INTER:                  -5.414
INTRA:                   0.000
UNBOUND:                 0.000

$$$$

     RDKit          3D

 42 44  0  0  0  0  0  0  0  0999 V2000
   49.3811  -16.7978   -7.9180 C   0  0  0  0  0  0  0  0  0  0  0  0
   48.2853  -17.6532   -7.2128 C   0  0  0  0  0  0  0  0  0  0  0  0
   50.5154  -16.3136   -6.9581 C   0  0  0  0  0  0  0  0  0  0  0  0
   50.0776  -19.4857   -6.7649 C   0  0  0  0  0  0  0  0  0  0  0  0
   51.2211  -18.7975   -6.6284 C   0  0  0  0  0  0  0  0  0  0  0  0
   48.6369  -18.8799   -6.6294 C   0  0  0  0  0  0  0  0  0  0  0  0
   51.3242  -17.2631   -6.3146 C   0  0  0  0  0  0  0  0  0  0  0  0
   49.4427  -16.5642   -9.2368 C   0  0  0  0  0  0  0  0  0  0  0  0
   50.2140  -17.2570  -12.1419 N   0  0  0  0  0  0  0  0  0  0  0  0
   48.4792  -17.0473  -10.2880 C   0  0  0  0  0  0  0  0  0  0  0  0
   50.6618  -14.9526   -6.6738 C   0  0  0  0  0  0  0  0  0  0  0  0
   46.9873  -17.1523   -7.0707 C   0  0  0  0  0  0  0  0  0  0  0  0
   49.1562  -17.9277  -11.3583 C   0  0  0  0  0  0  0  0  0  0  0  0
   52.2860  -16.8340   -5.3946 C   0  0  0  0  0  0  0  0  0  0  0  0
   47.6714  -19.6082   -5.9272 C   0  0  0  0  0  0  0  0  0  0  0  0
   49.6720  -16.2166  -13.0169 C   0  0  0  0  0  0  0  0  0  0  0  0
   50.9466  -18.2437  -12.9390 C   0  0  0  0  0  0  0  0  0  0  0  0
   51.6273  -14.5339   -5.7583 C   0  0  0  0  0  0  0  0  0  0  0  0
   46.0295  -17.8877   -6.3726 C   0  0  0  0  0  0  0  0  0  0  0  0
   46.3711  -19.1139   -5.8021 C   0  0  0  0  0  0  0  0  0  0  0  0
   52.4367  -15.4730   -5.1186 C   0  0  0  0  0  0  0  0  0  0  0  0
   50.1479  -20.5417   -7.0147 H   0  0  0  0  0  0  0  0  0  0  0  0
   52.1559  -19.3330   -6.7772 H   0  0  0  0  0  0  0  0  0  0  0  0
   50.2841  -15.9882   -9.6205 H   0  0  0  0  0  0  0  0  0  0  0  0
   47.9967  -16.1788  -10.7494 H   0  0  0  0  0  0  0  0  0  0  0  0
   47.6699  -17.6357   -9.8429 H   0  0  0  0  0  0  0  0  0  0  0  0
   50.0200  -14.2205   -7.1559 H   0  0  0  0  0  0  0  0  0  0  0  0
   46.7247  -16.1871   -7.4949 H   0  0  0  0  0  0  0  0  0  0  0  0
   48.3835  -18.3252  -12.0299 H   0  0  0  0  0  0  0  0  0  0  0  0
   49.5906  -18.7926  -10.8380 H   0  0  0  0  0  0  0  0  0  0  0  0
   52.9231  -17.5550   -4.8896 H   0  0  0  0  0  0  0  0  0  0  0  0
   47.9265  -20.5609   -5.4709 H   0  0  0  0  0  0  0  0  0  0  0  0
   49.2200  -15.4056  -12.4377 H   0  0  0  0  0  0  0  0  0  0  0  0
   50.4729  -15.7547  -13.6060 H   0  0  0  0  0  0  0  0  0  0  0  0
   48.9209  -16.6099  -13.7114 H   0  0  0  0  0  0  0  0  0  0  0  0
   51.4106  -18.9958  -12.2910 H   0  0  0  0  0  0  0  0  0  0  0  0
   51.7626  -17.7645  -13.4914 H   0  0  0  0  0  0  0  0  0  0  0  0
   50.2983  -18.7585  -13.6575 H   0  0  0  0  0  0  0  0  0  0  0  0
   51.7427  -13.4761   -5.5374 H   0  0  0  0  0  0  0  0  0  0  0  0
   45.0203  -17.4995   -6.2640 H   0  0  0  0  0  0  0  0  0  0  0  0
   45.6259  -19.6830   -5.2524 H   0  0  0  0  0  0  0  0  0  0  0  0
   53.1856  -15.1455   -4.4022 H   0  0  0  0  0  0  0  0  0  0  0  0
  2  1  1  0
  3  1  1  0
  4  6  1  0
  5  7  1  0
  6  2  2  0
  7  3  2  0
  8  1  2  3
  9 13  1  0
 10  8  1  0
 11  3  1  0
 12  2  1  0
 13 10  1  0
 14  7  1  0
 15  6  1  0
 16  9  1  0
 17  9  1  0
 18 11  2  0
 19 12  2  0
 20 19  1  0
 21 18  1  0
  5  4  2  0
 21 14  2  0
 20 15  2  0
  4 22  1  0
  5 23  1  0
  8 24  1  0
 10 25  1  0
 10 26  1  0
 11 27  1  0
 12 28  1  0
 13 29  1  0
 13 30  1  0
 14 31  1  0
 15 32  1  0
 16 33  1  0
 16 34  1  0
 16 35  1  0
 17 36  1  0
 17 37  1  0
 17 38  1  0
 18 39  1  0
 19 40  1  0
 20 41  1  0
 21 42  1  0
M  END
> <Uni-Dock RESULT> 
ENERGY=   -5.119  LOWER_BOUND=    1.269  UPPER_BOUND=    4.604
INTER + INTRA:          -5.119
INTER:                  -5.119
INTRA:                   0.000
UNBOUND:                 0.000

$$$$

     RDKit          3D

 42 44  0  0  0  0  0  0  0  0999 V2000
   49.3130  -17.9996   -7.8917 C   0  0  0  0  0  0  0  0  0  0  0  0
   49.7919  -16.6022   -7.3941 C   0  0  0  0  0  0  0  0  0  0  0  0
   48.1166  -18.5826   -7.0726 C   0  0  0  0  0  0  0  0  0  0  0  0
   47.4967  -15.6145   -8.1200 C   0  0  0  0  0  0  0  0  0  0  0  0
   46.6360  -16.6293   -7.9495 C   0  0  0  0  0  0  0  0  0  0  0  0
   48.9133  -15.5099   -7.4544 C   0  0  0  0  0  0  0  0  0  0  0  0
   46.8924  -17.8961   -7.0590 C   0  0  0  0  0  0  0  0  0  0  0  0
   49.7812  -18.6299   -8.9784 C   0  0  0  0  0  0  0  0  0  0  0  0
   49.8877  -19.2369  -12.0008 N   0  0  0  0  0  0  0  0  0  0  0  0
   50.8574  -18.1451   -9.9132 C   0  0  0  0  0  0  0  0  0  0  0  0
   48.2931  -19.7268   -6.2887 C   0  0  0  0  0  0  0  0  0  0  0  0
   51.0481  -16.4631   -6.7951 C   0  0  0  0  0  0  0  0  0  0  0  0
   50.3608  -17.9898  -11.3651 C   0  0  0  0  0  0  0  0  0  0  0  0
   45.8470  -18.3740   -6.2626 C   0  0  0  0  0  0  0  0  0  0  0  0
   49.3151  -14.2757   -6.9337 C   0  0  0  0  0  0  0  0  0  0  0  0
   50.9808  -20.1808  -12.2370 C   0  0  0  0  0  0  0  0  0  0  0  0
   49.2160  -18.9289  -13.2656 C   0  0  0  0  0  0  0  0  0  0  0  0
   47.2427  -20.1985   -5.5014 C   0  0  0  0  0  0  0  0  0  0  0  0
   51.4423  -15.2272   -6.2826 C   0  0  0  0  0  0  0  0  0  0  0  0
   50.5772  -14.1352   -6.3521 C   0  0  0  0  0  0  0  0  0  0  0  0
   46.0225  -19.5224   -5.4870 C   0  0  0  0  0  0  0  0  0  0  0  0
   47.2060  -14.8103   -8.7919 H   0  0  0  0  0  0  0  0  0  0  0  0
   45.6953  -16.5933   -8.4941 H   0  0  0  0  0  0  0  0  0  0  0  0
   49.3351  -19.5849   -9.2538 H   0  0  0  0  0  0  0  0  0  0  0  0
   51.7040  -18.8385   -9.8654 H   0  0  0  0  0  0  0  0  0  0  0  0
   51.2501  -17.1735   -9.5949 H   0  0  0  0  0  0  0  0  0  0  0  0
   49.2482  -20.2443   -6.2829 H   0  0  0  0  0  0  0  0  0  0  0  0
   51.7149  -17.3175   -6.7195 H   0  0  0  0  0  0  0  0  0  0  0  0
   51.1618  -17.5399  -11.9668 H   0  0  0  0  0  0  0  0  0  0  0  0
   49.5377  -17.2620  -11.3493 H   0  0  0  0  0  0  0  0  0  0  0  0
   44.8914  -17.8570   -6.2425 H   0  0  0  0  0  0  0  0  0  0  0  0
   48.6476  -13.4191   -6.9741 H   0  0  0  0  0  0  0  0  0  0  0  0
   51.4253  -20.5181  -11.2956 H   0  0  0  0  0  0  0  0  0  0  0  0
   50.6075  -21.0841  -12.7334 H   0  0  0  0  0  0  0  0  0  0  0  0
   51.7717  -19.7502  -12.8616 H   0  0  0  0  0  0  0  0  0  0  0  0
   48.3562  -18.2711  -13.0959 H   0  0  0  0  0  0  0  0  0  0  0  0
   48.8217  -19.8420  -13.7255 H   0  0  0  0  0  0  0  0  0  0  0  0
   49.8875  -18.4428  -13.9827 H   0  0  0  0  0  0  0  0  0  0  0  0
   47.3786  -21.0884   -4.8925 H   0  0  0  0  0  0  0  0  0  0  0  0
   52.4192  -15.1186   -5.8190 H   0  0  0  0  0  0  0  0  0  0  0  0
   50.8825  -13.1742   -5.9463 H   0  0  0  0  0  0  0  0  0  0  0  0
   45.2065  -19.8888   -4.8697 H   0  0  0  0  0  0  0  0  0  0  0  0
  2  1  1  0
  3  1  1  0
  4  6  1  0
  5  7  1  0
  6  2  2  0
  7  3  2  0
  8  1  2  3
  9 13  1  0
 10  8  1  0
 11  3  1  0
 12  2  1  0
 13 10  1  0
 14  7  1  0
 15  6  1  0
 16  9  1  0
 17  9  1  0
 18 11  2  0
 19 12  2  0
 20 19  1  0
 21 18  1  0
  5  4  2  0
 21 14  2  0
 20 15  2  0
  4 22  1  0
  5 23  1  0
  8 24  1  0
 10 25  1  0
 10 26  1  0
 11 27  1  0
 12 28  1  0
 13 29  1  0
 13 30  1  0
 14 31  1  0
 15 32  1  0
 16 33  1  0
 16 34  1  0
 16 35  1  0
 17 36  1  0
 17 37  1  0
 17 38  1  0
 18 39  1  0
 19 40  1  0
 20 41  1  0
 21 42  1  0
M  END
> <Uni-Dock RESULT> 
ENERGY=   -4.882  LOWER_BOUND=    1.275  UPPER_BOUND=    1.880
INTER + INTRA:          -4.882
INTER:                  -4.882
INTRA:                   0.000
UNBOUND:                 0.000

$$$$

     RDKit          3D

 42 44  0  0  0  0  0  0  0  0999 V2000
   47.0087  -16.0539  -10.6757 C   0  0  0  0  0  0  0  0  0  0  0  0
   45.6722  -15.8184  -11.4426 C   0  0  0  0  0  0  0  0  0  0  0  0
   46.8148  -16.3771   -9.1591 C   0  0  0  0  0  0  0  0  0  0  0  0
   45.0479  -18.3078  -11.0141 C   0  0  0  0  0  0  0  0  0  0  0  0
   45.6295  -18.5927   -9.8393 C   0  0  0  0  0  0  0  0  0  0  0  0
   44.7413  -16.8634  -11.5437 C   0  0  0  0  0  0  0  0  0  0  0  0
   46.1129  -17.5340   -8.7862 C   0  0  0  0  0  0  0  0  0  0  0  0
   48.2231  -16.0911  -11.2424 C   0  0  0  0  0  0  0  0  0  0  0  0
   50.5508  -17.4720  -12.7223 N   0  0  0  0  0  0  0  0  0  0  0  0
   48.5490  -15.8964  -12.6994 C   0  0  0  0  0  0  0  0  0  0  0  0
   47.2568  -15.4753   -8.1864 C   0  0  0  0  0  0  0  0  0  0  0  0
   45.3587  -14.5464  -11.9324 C   0  0  0  0  0  0  0  0  0  0  0  0
   49.2473  -17.1217  -13.3235 C   0  0  0  0  0  0  0  0  0  0  0  0
   45.8698  -17.7819   -7.4317 C   0  0  0  0  0  0  0  0  0  0  0  0
   43.5089  -16.6279  -12.1611 C   0  0  0  0  0  0  0  0  0  0  0  0
   51.5731  -16.4633  -13.0036 C   0  0  0  0  0  0  0  0  0  0  0  0
   50.9934  -18.7782  -13.2158 C   0  0  0  0  0  0  0  0  0  0  0  0
   47.0137  -15.7338   -6.8375 C   0  0  0  0  0  0  0  0  0  0  0  0
   44.1289  -14.3219  -12.5510 C   0  0  0  0  0  0  0  0  0  0  0  0
   43.2056  -15.3611  -12.6654 C   0  0  0  0  0  0  0  0  0  0  0  0
   46.3200  -16.8841   -6.4609 C   0  0  0  0  0  0  0  0  0  0  0  0
   44.7895  -19.1384  -11.6668 H   0  0  0  0  0  0  0  0  0  0  0  0
   45.8129  -19.6388   -9.6048 H   0  0  0  0  0  0  0  0  0  0  0  0
   49.0821  -16.3102  -10.6091 H   0  0  0  0  0  0  0  0  0  0  0  0
   49.1709  -15.0007  -12.8046 H   0  0  0  0  0  0  0  0  0  0  0  0
   47.6443  -15.7008  -13.2848 H   0  0  0  0  0  0  0  0  0  0  0  0
   47.7804  -14.5691   -8.4778 H   0  0  0  0  0  0  0  0  0  0  0  0
   46.0670  -13.7296  -11.8246 H   0  0  0  0  0  0  0  0  0  0  0  0
   49.3628  -16.9518  -14.4023 H   0  0  0  0  0  0  0  0  0  0  0  0
   48.5628  -17.9744  -13.2146 H   0  0  0  0  0  0  0  0  0  0  0  0
   45.3309  -18.6743   -7.1248 H   0  0  0  0  0  0  0  0  0  0  0  0
   42.7773  -17.4267  -12.2495 H   0  0  0  0  0  0  0  0  0  0  0  0
   51.3213  -15.5028  -12.5436 H   0  0  0  0  0  0  0  0  0  0  0  0
   52.5352  -16.7606  -12.5704 H   0  0  0  0  0  0  0  0  0  0  0  0
   51.7164  -16.3081  -14.0790 H   0  0  0  0  0  0  0  0  0  0  0  0
   50.2654  -19.5554  -12.9574 H   0  0  0  0  0  0  0  0  0  0  0  0
   51.9383  -19.0693  -12.7433 H   0  0  0  0  0  0  0  0  0  0  0  0
   51.1343  -18.7835  -14.3027 H   0  0  0  0  0  0  0  0  0  0  0  0
   47.3578  -15.0340   -6.0805 H   0  0  0  0  0  0  0  0  0  0  0  0
   43.8862  -13.3341  -12.9335 H   0  0  0  0  0  0  0  0  0  0  0  0
   42.2448  -15.1835  -13.1415 H   0  0  0  0  0  0  0  0  0  0  0  0
   46.1276  -17.0819   -5.4096 H   0  0  0  0  0  0  0  0  0  0  0  0
  2  1  1  0
  3  1  1  0
  4  6  1  0
  5  7  1  0
  6  2  2  0
  7  3  2  0
  8  1  2  3
  9 13  1  0
 10  8  1  0
 11  3  1  0
 12  2  1  0
 13 10  1  0
 14  7  1  0
 15  6  1  0
 16  9  1  0
 17  9  1  0
 18 11  2  0
 19 12  2  0
 20 19  1  0
 21 18  1  0
  5  4  2  0
 21 14  2  0
 20 15  2  0
  4 22  1  0
  5 23  1  0
  8 24  1  0
 10 25  1  0
 10 26  1  0
 11 27  1  0
 12 28  1  0
 13 29  1  0
 13 30  1  0
 14 31  1  0
 15 32  1  0
 16 33  1  0
 16 34  1  0
 16 35  1  0
 17 36  1  0
 17 37  1  0
 17 38  1  0
 18 39  1  0
 19 40  1  0
 20 41  1  0
 21 42  1  0
M  END
> <Uni-Dock RESULT> 
ENERGY=   -4.753  LOWER_BOUND=    3.806  UPPER_BOUND=    6.162
INTER + INTRA:          -4.753
INTER:                  -4.753
INTRA:                   0.000
UNBOUND:                 0.000

$$$$

     RDKit          3D

 42 44  0  0  0  0  0  0  0  0999 V2000
   50.4718  -17.2344   -7.4688 C   0  0  0  0  0  0  0  0  0  0  0  0
   50.6570  -18.1297   -8.7314 C   0  0  0  0  0  0  0  0  0  0  0  0
   48.9789  -16.9030   -7.1466 C   0  0  0  0  0  0  0  0  0  0  0  0
   49.4439  -20.0598   -7.4769 C   0  0  0  0  0  0  0  0  0  0  0  0
   48.5786  -19.4302   -6.6678 C   0  0  0  0  0  0  0  0  0  0  0  0
   50.1223  -19.4269   -8.7418 C   0  0  0  0  0  0  0  0  0  0  0  0
   48.0936  -17.9471   -6.8368 C   0  0  0  0  0  0  0  0  0  0  0  0
   51.4596  -16.8509   -6.6476 C   0  0  0  0  0  0  0  0  0  0  0  0
   53.3953  -17.2253   -4.2753 N   0  0  0  0  0  0  0  0  0  0  0  0
   52.9238  -17.1762   -6.7785 C   0  0  0  0  0  0  0  0  0  0  0  0
   48.5113  -15.5899   -7.2558 C   0  0  0  0  0  0  0  0  0  0  0  0
   51.2574  -17.6063   -9.8810 C   0  0  0  0  0  0  0  0  0  0  0  0
   53.4746  -17.9477   -5.5618 C   0  0  0  0  0  0  0  0  0  0  0  0
   46.7411  -17.6600   -6.6272 C   0  0  0  0  0  0  0  0  0  0  0  0
   50.2182  -20.1999   -9.9033 C   0  0  0  0  0  0  0  0  0  0  0  0
   54.2964  -16.0728   -4.2372 C   0  0  0  0  0  0  0  0  0  0  0  0
   53.7075  -18.1360   -3.1713 C   0  0  0  0  0  0  0  0  0  0  0  0
   47.1614  -15.3128   -7.0401 C   0  0  0  0  0  0  0  0  0  0  0  0
   51.3528  -18.3862  -11.0335 C   0  0  0  0  0  0  0  0  0  0  0  0
   50.8343  -19.6811  -11.0444 C   0  0  0  0  0  0  0  0  0  0  0  0
   46.2776  -16.3462   -6.7281 C   0  0  0  0  0  0  0  0  0  0  0  0
   49.7208  -21.0813   -7.2269 H   0  0  0  0  0  0  0  0  0  0  0  0
   48.2030  -19.9752   -5.8048 H   0  0  0  0  0  0  0  0  0  0  0  0
   51.2008  -16.2621   -5.7682 H   0  0  0  0  0  0  0  0  0  0  0  0
   53.4794  -16.2444   -6.9303 H   0  0  0  0  0  0  0  0  0  0  0  0
   53.1161  -17.7856   -7.6679 H   0  0  0  0  0  0  0  0  0  0  0  0
   49.1935  -14.7860   -7.5176 H   0  0  0  0  0  0  0  0  0  0  0  0
   51.6419  -16.5902   -9.8822 H   0  0  0  0  0  0  0  0  0  0  0  0
   54.5133  -18.2385   -5.7679 H   0  0  0  0  0  0  0  0  0  0  0  0
   52.9001  -18.8811   -5.4837 H   0  0  0  0  0  0  0  0  0  0  0  0
   46.0422  -18.4556   -6.3832 H   0  0  0  0  0  0  0  0  0  0  0  0
   49.8111  -21.2073   -9.9277 H   0  0  0  0  0  0  0  0  0  0  0  0
   54.0113  -15.3204   -4.9789 H   0  0  0  0  0  0  0  0  0  0  0  0
   54.2382  -15.5720   -3.2638 H   0  0  0  0  0  0  0  0  0  0  0  0
   55.3401  -16.3575   -4.4126 H   0  0  0  0  0  0  0  0  0  0  0  0
   53.0008  -18.9733   -3.1499 H   0  0  0  0  0  0  0  0  0  0  0  0
   53.6090  -17.6228   -2.2081 H   0  0  0  0  0  0  0  0  0  0  0  0
   54.7230  -18.5419   -3.2446 H   0  0  0  0  0  0  0  0  0  0  0  0
   46.7971  -14.2923   -7.1237 H   0  0  0  0  0  0  0  0  0  0  0  0
   51.8212  -17.9803  -11.9261 H   0  0  0  0  0  0  0  0  0  0  0  0
   50.9030  -20.2856  -11.9451 H   0  0  0  0  0  0  0  0  0  0  0  0
   45.2253  -16.1292   -6.5646 H   0  0  0  0  0  0  0  0  0  0  0  0
  2  1  1  0
  3  1  1  0
  4  6  1  0
  5  7  1  0
  6  2  2  0
  7  3  2  0
  8  1  2  3
  9 13  1  0
 10  8  1  0
 11  3  1  0
 12  2  1  0
 13 10  1  0
 14  7  1  0
 15  6  1  0
 16  9  1  0
 17  9  1  0
 18 11  2  0
 19 12  2  0
 20 19  1  0
 21 18  1  0
  5  4  2  0
 21 14  2  0
 20 15  2  0
  4 22  1  0
  5 23  1  0
  8 24  1  0
 10 25  1  0
 10 26  1  0
 11 27  1  0
 12 28  1  0
 13 29  1  0
 13 30  1  0
 14 31  1  0
 15 32  1  0
 16 33  1  0
 16 34  1  0
 16 35  1  0
 17 36  1  0
 17 37  1  0
 17 38  1  0
 18 39  1  0
 19 40  1  0
 20 41  1  0
 21 42  1  0
M  END
> <Uni-Dock RESULT> 
ENERGY=   -4.427  LOWER_BOUND=    2.204  UPPER_BOUND=    5.271
INTER + INTRA:          -4.427
INTER:                  -4.427
INTRA:                   0.000
UNBOUND:                 0.000

$$$$

     RDKit          3D

 42 44  0  0  0  0  0  0  0  0999 V2000
   50.2497  -18.0779   -7.5465 C   0  0  0  0  0  0  0  0  0  0  0  0
   48.8361  -18.3216   -6.9363 C   0  0  0  0  0  0  0  0  0  0  0  0
   50.2307  -17.7942   -9.0832 C   0  0  0  0  0  0  0  0  0  0  0  0
   48.2252  -15.8556   -7.4989 C   0  0  0  0  0  0  0  0  0  0  0  0
   48.9365  -15.5870   -8.6041 C   0  0  0  0  0  0  0  0  0  0  0  0
   47.8825  -17.2929   -6.9721 C   0  0  0  0  0  0  0  0  0  0  0  0
   49.5584  -16.6605   -9.5655 C   0  0  0  0  0  0  0  0  0  0  0  0
   51.3879  -18.0036   -6.8421 C   0  0  0  0  0  0  0  0  0  0  0  0
   53.5013  -16.5429   -5.1348 N   0  0  0  0  0  0  0  0  0  0  0  0
   51.5428  -18.1576   -5.3524 C   0  0  0  0  0  0  0  0  0  0  0  0
   50.7994  -18.7098   -9.9738 C   0  0  0  0  0  0  0  0  0  0  0  0
   48.4884  -19.5876   -6.4542 C   0  0  0  0  0  0  0  0  0  0  0  0
   52.1420  -16.9044   -4.6822 C   0  0  0  0  0  0  0  0  0  0  0  0
   49.4727  -16.4492  -10.9452 C   0  0  0  0  0  0  0  0  0  0  0  0
   46.5899  -17.5380   -6.4980 C   0  0  0  0  0  0  0  0  0  0  0  0
   54.5000  -17.5244   -4.7095 C   0  0  0  0  0  0  0  0  0  0  0  0
   53.8606  -15.2170   -4.6264 C   0  0  0  0  0  0  0  0  0  0  0  0
   50.7129  -18.4879  -11.3481 C   0  0  0  0  0  0  0  0  0  0  0  0
   47.1981  -19.8216   -5.9789 C   0  0  0  0  0  0  0  0  0  0  0  0
   46.2505  -18.7983   -6.0005 C   0  0  0  0  0  0  0  0  0  0  0  0
   50.0493  -17.3606  -11.8330 C   0  0  0  0  0  0  0  0  0  0  0  0
   47.8777  -15.0152   -6.9025 H   0  0  0  0  0  0  0  0  0  0  0  0
   49.1287  -14.5433   -8.8421 H   0  0  0  0  0  0  0  0  0  0  0  0
   52.3118  -17.7825   -7.3755 H   0  0  0  0  0  0  0  0  0  0  0  0
   52.1628  -19.0381   -5.1519 H   0  0  0  0  0  0  0  0  0  0  0  0
   50.5787  -18.3571   -4.8726 H   0  0  0  0  0  0  0  0  0  0  0  0
   51.3000  -19.5985   -9.5997 H   0  0  0  0  0  0  0  0  0  0  0  0
   49.2180  -20.3926   -6.4571 H   0  0  0  0  0  0  0  0  0  0  0  0
   52.1322  -17.0467   -3.5933 H   0  0  0  0  0  0  0  0  0  0  0  0
   51.4609  -16.0682   -4.8926 H   0  0  0  0  0  0  0  0  0  0  0  0
   48.9589  -15.5751  -11.3360 H   0  0  0  0  0  0  0  0  0  0  0  0
   45.8398  -16.7518   -6.5167 H   0  0  0  0  0  0  0  0  0  0  0  0
   54.3203  -18.5002   -5.1711 H   0  0  0  0  0  0  0  0  0  0  0  0
   55.5014  -17.2185   -5.0340 H   0  0  0  0  0  0  0  0  0  0  0  0
   54.5180  -17.6514   -3.6211 H   0  0  0  0  0  0  0  0  0  0  0  0
   53.1553  -14.4605   -4.9884 H   0  0  0  0  0  0  0  0  0  0  0  0
   54.8497  -14.9186   -4.9917 H   0  0  0  0  0  0  0  0  0  0  0  0
   53.8721  -15.1833   -3.5309 H   0  0  0  0  0  0  0  0  0  0  0  0
   51.1556  -19.1984  -12.0412 H   0  0  0  0  0  0  0  0  0  0  0  0
   46.9285  -20.8048   -5.6024 H   0  0  0  0  0  0  0  0  0  0  0  0
   45.2433  -18.9835   -5.6364 H   0  0  0  0  0  0  0  0  0  0  0  0
   49.9790  -17.1914  -12.9043 H   0  0  0  0  0  0  0  0  0  0  0  0
  2  1  1  0
  3  1  1  0
  4  6  1  0
  5  7  1  0
  6  2  2  0
  7  3  2  0
  8  1  2  3
  9 13  1  0
 10  8  1  0
 11  3  1  0
 12  2  1  0
 13 10  1  0
 14  7  1  0
 15  6  1  0
 16  9  1  0
 17  9  1  0
 18 11  2  0
 19 12  2  0
 20 19  1  0
 21 18  1  0
  5  4  2  0
 21 14  2  0
 20 15  2  0
  4 22  1  0
  5 23  1  0
  8 24  1  0
 10 25  1  0
 10 26  1  0
 11 27  1  0
 12 28  1  0
 13 29  1  0
 13 30  1  0
 14 31  1  0
 15 32  1  0
 16 33  1  0
 16 34  1  0
 16 35  1  0
 17 36  1  0
 17 37  1  0
 17 38  1  0
 18 39  1  0
 19 40  1  0
 20 41  1  0
 21 42  1  0
M  END
> <Uni-Dock RESULT> 
ENERGY=   -4.162  LOWER_BOUND=    2.097  UPPER_BOUND=    5.339
INTER + INTRA:          -4.162
INTER:                  -4.162
INTRA:                   0.000
UNBOUND:                 0.000

$$$$

     RDKit          3D

 42 44  0  0  0  0  0  0  0  0999 V2000
   46.3417  -16.9574  -10.1056 C   0  0  0  0  0  0  0  0  0  0  0  0
   47.8852  -16.9414  -10.3233 C   0  0  0  0  0  0  0  0  0  0  0  0
   45.9007  -17.6623   -8.7823 C   0  0  0  0  0  0  0  0  0  0  0  0
   48.1113  -15.4025   -8.2373 C   0  0  0  0  0  0  0  0  0  0  0  0
   47.0963  -15.7766   -7.4440 C   0  0  0  0  0  0  0  0  0  0  0  0
   48.7037  -16.2584   -9.4109 C   0  0  0  0  0  0  0  0  0  0  0  0
   46.3152  -17.1338   -7.5499 C   0  0  0  0  0  0  0  0  0  0  0  0
   45.4482  -16.3453  -10.8957 C   0  0  0  0  0  0  0  0  0  0  0  0
   43.7965  -13.9236  -11.8559 N   0  0  0  0  0  0  0  0  0  0  0  0
   45.7356  -15.5510  -12.1421 C   0  0  0  0  0  0  0  0  0  0  0  0
   45.1779  -18.8582   -8.8305 C   0  0  0  0  0  0  0  0  0  0  0  0
   48.4559  -17.6896  -11.3580 C   0  0  0  0  0  0  0  0  0  0  0  0
   45.2528  -14.0896  -12.0426 C   0  0  0  0  0  0  0  0  0  0  0  0
   45.9884  -17.8088   -6.3696 C   0  0  0  0  0  0  0  0  0  0  0  0
   50.0930  -16.3120   -9.5610 C   0  0  0  0  0  0  0  0  0  0  0  0
   43.0418  -14.3293  -13.0423 C   0  0  0  0  0  0  0  0  0  0  0  0
   43.4912  -12.5294  -11.5263 C   0  0  0  0  0  0  0  0  0  0  0  0
   44.8526  -19.5215   -7.6475 C   0  0  0  0  0  0  0  0  0  0  0  0
   49.8424  -17.7335  -11.5029 C   0  0  0  0  0  0  0  0  0  0  0  0
   50.6596  -17.0454  -10.6060 C   0  0  0  0  0  0  0  0  0  0  0  0
   45.2585  -18.9988   -6.4194 C   0  0  0  0  0  0  0  0  0  0  0  0
   48.5452  -14.4184   -8.0759 H   0  0  0  0  0  0  0  0  0  0  0  0
   46.7613  -15.0743   -6.6841 H   0  0  0  0  0  0  0  0  0  0  0  0
   44.3963  -16.3881  -10.6155 H   0  0  0  0  0  0  0  0  0  0  0  0
   45.2707  -16.0554  -12.9961 H   0  0  0  0  0  0  0  0  0  0  0  0
   46.8090  -15.5281  -12.3582 H   0  0  0  0  0  0  0  0  0  0  0  0
   44.8771  -19.2778   -9.7864 H   0  0  0  0  0  0  0  0  0  0  0  0
   47.8225  -18.2446  -12.0444 H   0  0  0  0  0  0  0  0  0  0  0  0
   45.5828  -13.5463  -12.9382 H   0  0  0  0  0  0  0  0  0  0  0  0
   45.7767  -13.6331  -11.1915 H   0  0  0  0  0  0  0  0  0  0  0  0
   46.2982  -17.4123   -5.4064 H   0  0  0  0  0  0  0  0  0  0  0  0
   50.7413  -15.7872   -8.8644 H   0  0  0  0  0  0  0  0  0  0  0  0
   43.1607  -15.3985  -13.2428 H   0  0  0  0  0  0  0  0  0  0  0  0
   41.9683  -14.1704  -12.8872 H   0  0  0  0  0  0  0  0  0  0  0  0
   43.3438  -13.7711  -13.9357 H   0  0  0  0  0  0  0  0  0  0  0  0
   44.0016  -12.2300  -10.6040 H   0  0  0  0  0  0  0  0  0  0  0  0
   42.4185  -12.4024  -11.3420 H   0  0  0  0  0  0  0  0  0  0  0  0
   43.7886  -11.8408  -12.3256 H   0  0  0  0  0  0  0  0  0  0  0  0
   44.2898  -20.4506   -7.6838 H   0  0  0  0  0  0  0  0  0  0  0  0
   50.2858  -18.3131  -12.3081 H   0  0  0  0  0  0  0  0  0  0  0  0
   51.7402  -17.0858  -10.7156 H   0  0  0  0  0  0  0  0  0  0  0  0
   45.0079  -19.5192   -5.4987 H   0  0  0  0  0  0  0  0  0  0  0  0
  2  1  1  0
  3  1  1  0
  4  6  1  0
  5  7  1  0
  6  2  2  0
  7  3  2  0
  8  1  2  3
  9 13  1  0
 10  8  1  0
 11  3  1  0
 12  2  1  0
 13 10  1  0
 14  7  1  0
 15  6  1  0
 16  9  1  0
 17  9  1  0
 18 11  2  0
 19 12  2  0
 20 19  1  0
 21 18  1  0
  5  4  2  0
 21 14  2  0
 20 15  2  0
  4 22  1  0
  5 23  1  0
  8 24  1  0
 10 25  1  0
 10 26  1  0
 11 27  1  0
 12 28  1  0
 13 29  1  0
 13 30  1  0
 14 31  1  0
 15 32  1  0
 16 33  1  0
 16 34  1  0
 16 35  1  0
 17 36  1  0
 17 37  1  0
 17 38  1  0
 18 39  1  0
 19 40  1  0
 20 41  1  0
 21 42  1  0
M  END
> <Uni-Dock RESULT> 
ENERGY=   -3.973  LOWER_BOUND=    3.918  UPPER_BOUND=    5.404
INTER + INTRA:          -3.973
INTER:                  -3.973
INTRA:                   0.000
UNBOUND:                 0.000

$$$$
