
     RDKit          3D

 42 44  0  0  0  0  0  0  0  0999 V2000
   50.0184  -16.9768   -8.1198 C   0  0  0  0  0  0  0  0  0  0  0  0
   48.5488  -16.9891   -7.5905 C   0  0  0  0  0  0  0  0  0  0  0  0
   51.0705  -16.5692   -7.0448 C   0  0  0  0  0  0  0  0  0  0  0  0
   48.7073  -14.4128   -7.2517 C   0  0  0  0  0  0  0  0  0  0  0  0
   50.0027  -14.1965   -6.9780 C   0  0  0  0  0  0  0  0  0  0  0  0
   47.9727  -15.7947   -7.1310 C   0  0  0  0  0  0  0  0  0  0  0  0
   51.0168  -15.2854   -6.4809 C   0  0  0  0  0  0  0  0  0  0  0  0
   50.2909  -17.2068   -9.4122 C   0  0  0  0  0  0  0  0  0  0  0  0
   51.7462  -19.4253  -11.3113 N   0  0  0  0  0  0  0  0  0  0  0  0
   51.6358  -17.1264  -10.0775 C   0  0  0  0  0  0  0  0  0  0  0  0
   51.9916  -17.5083   -6.5703 C   0  0  0  0  0  0  0  0  0  0  0  0
   47.8485  -18.1954   -7.4917 C   0  0  0  0  0  0  0  0  0  0  0  0
   52.3234  -18.4825  -10.3412 C   0  0  0  0  0  0  0  0  0  0  0  0
   51.9113  -14.9452   -5.4610 C   0  0  0  0  0  0  0  0  0  0  0  0
   46.6856  -15.8203   -6.5851 C   0  0  0  0  0  0  0  0  0  0  0  0
   50.6298  -20.2000  -10.7852 C   0  0  0  0  0  0  0  0  0  0  0  0
   51.4199  -18.8156  -12.5943 C   0  0  0  0  0  0  0  0  0  0  0  0
   52.8833  -17.1586   -5.5564 C   0  0  0  0  0  0  0  0  0  0  0  0
   46.5633  -18.2097   -6.9498 C   0  0  0  0  0  0  0  0  0  0  0  0
   45.9836  -17.0247   -6.4962 C   0  0  0  0  0  0  0  0  0  0  0  0
   52.8438  -15.8788   -5.0033 C   0  0  0  0  0  0  0  0  0  0  0  0
   48.1193  -13.5730   -7.6149 H   0  0  0  0  0  0  0  0  0  0  0  0
   50.3931  -13.1933   -7.1334 H   0  0  0  0  0  0  0  0  0  0  0  0
   49.4608  -17.4280  -10.0795 H   0  0  0  0  0  0  0  0  0  0  0  0
   52.3192  -16.5175   -9.4729 H   0  0  0  0  0  0  0  0  0  0  0  0
   51.5254  -16.5687  -11.0153 H   0  0  0  0  0  0  0  0  0  0  0  0
   52.0079  -18.5151   -6.9780 H   0  0  0  0  0  0  0  0  0  0  0  0
   48.3056  -19.1234   -7.8233 H   0  0  0  0  0  0  0  0  0  0  0  0
   52.4832  -19.0009   -9.3871 H   0  0  0  0  0  0  0  0  0  0  0  0
   53.3366  -18.2536  -10.6991 H   0  0  0  0  0  0  0  0  0  0  0  0
   51.8855  -13.9544   -5.0153 H   0  0  0  0  0  0  0  0  0  0  0  0
   46.2227  -14.9049   -6.2261 H   0  0  0  0  0  0  0  0  0  0  0  0
   49.7196  -19.6092  -10.6545 H   0  0  0  0  0  0  0  0  0  0  0  0
   50.8874  -20.6592   -9.8245 H   0  0  0  0  0  0  0  0  0  0  0  0
   50.3918  -21.0248  -11.4668 H   0  0  0  0  0  0  0  0  0  0  0  0
   51.1704  -19.5881  -13.3303 H   0  0  0  0  0  0  0  0  0  0  0  0
   52.2807  -18.2691  -12.9952 H   0  0  0  0  0  0  0  0  0  0  0  0
   50.5703  -18.1274  -12.5285 H   0  0  0  0  0  0  0  0  0  0  0  0
   53.6008  -17.8877   -5.1894 H   0  0  0  0  0  0  0  0  0  0  0  0
   46.0177  -19.1465   -6.8714 H   0  0  0  0  0  0  0  0  0  0  0  0
   44.9842  -17.0384   -6.0688 H   0  0  0  0  0  0  0  0  0  0  0  0
   53.5348  -15.6095   -4.2087 H   0  0  0  0  0  0  0  0  0  0  0  0
  2  1  1  0
  3  1  1  0
  4  6  1  0
  5  7  1  0
  6  2  2  0
  7  3  2  0
  8  1  2  3
  9 13  1  0
 10  8  1  0
 11  3  1  0
 12  2  1  0
 13 10  1  0
 14  7  1  0
 15  6  1  0
 16  9  1  0
 17  9  1  0
 18 11  2  0
 19 12  2  0
 20 19  1  0
 21 18  1  0
  5  4  2  0
 21 14  2  0
 20 15  2  0
  4 22  1  0
  5 23  1  0
  8 24  1  0
 10 25  1  0
 10 26  1  0
 11 27  1  0
 12 28  1  0
 13 29  1  0
 13 30  1  0
 14 31  1  0
 15 32  1  0
 16 33  1  0
 16 34  1  0
 16 35  1  0
 17 36  1  0
 17 37  1  0
 17 38  1  0
 18 39  1  0
 19 40  1  0
 20 41  1  0
 21 42  1  0
M  END
> <Uni-Dock RESULT> 
ENERGY=   -5.592  LOWER_BOUND=    0.000  UPPER_BOUND=    0.000
INTER + INTRA:          -5.592
INTER:                  -5.592
INTRA:                   0.000
UNBOUND:                 0.000

$$$$

     RDKit          3D

 42 44  0  0  0  0  0  0  0  0999 V2000
   48.3596  -17.2098   -8.1599 C   0  0  0  0  0  0  0  0  0  0  0  0
   49.4101  -16.2607   -7.4997 C   0  0  0  0  0  0  0  0  0  0  0  0
   47.6817  -18.1917   -7.1574 C   0  0  0  0  0  0  0  0  0  0  0  0
   50.8785  -18.3441   -6.9703 C   0  0  0  0  0  0  0  0  0  0  0  0
   49.9919  -19.3366   -6.8010 C   0  0  0  0  0  0  0  0  0  0  0  0
   50.5502  -16.8111   -6.8941 C   0  0  0  0  0  0  0  0  0  0  0  0
   48.4663  -19.1440   -6.4892 C   0  0  0  0  0  0  0  0  0  0  0  0
   48.1643  -17.2107   -9.4863 C   0  0  0  0  0  0  0  0  0  0  0  0
   45.8804  -16.4375  -11.6846 N   0  0  0  0  0  0  0  0  0  0  0  0
   47.2689  -18.1330  -10.2644 C   0  0  0  0  0  0  0  0  0  0  0  0
   46.3250  -18.0551   -6.8475 C   0  0  0  0  0  0  0  0  0  0  0  0
   49.1695  -14.8848   -7.4342 C   0  0  0  0  0  0  0  0  0  0  0  0
   45.9172  -17.5286  -10.6991 C   0  0  0  0  0  0  0  0  0  0  0  0
   47.8730  -19.9736   -5.5324 C   0  0  0  0  0  0  0  0  0  0  0  0
   51.4507  -15.9683   -6.2353 C   0  0  0  0  0  0  0  0  0  0  0  0
   46.1787  -15.1269  -11.1217 C   0  0  0  0  0  0  0  0  0  0  0  0
   46.6732  -16.7025  -12.8785 C   0  0  0  0  0  0  0  0  0  0  0  0
   45.7405  -18.8903   -5.8955 C   0  0  0  0  0  0  0  0  0  0  0  0
   50.0761  -14.0519   -6.7787 C   0  0  0  0  0  0  0  0  0  0  0  0
   51.2139  -14.5927   -6.1793 C   0  0  0  0  0  0  0  0  0  0  0  0
   46.5131  -19.8486   -5.2396 C   0  0  0  0  0  0  0  0  0  0  0  0
   51.9042  -18.6166   -7.2086 H   0  0  0  0  0  0  0  0  0  0  0  0
   50.3476  -20.3586   -6.9104 H   0  0  0  0  0  0  0  0  0  0  0  0
   48.7406  -16.5126  -10.0897 H   0  0  0  0  0  0  0  0  0  0  0  0
   47.0580  -19.0361   -9.6785 H   0  0  0  0  0  0  0  0  0  0  0  0
   47.8214  -18.4948  -11.1399 H   0  0  0  0  0  0  0  0  0  0  0  0
   45.7251  -17.2918   -7.3348 H   0  0  0  0  0  0  0  0  0  0  0  0
   48.2733  -14.4632   -7.8804 H   0  0  0  0  0  0  0  0  0  0  0  0
   45.3498  -17.2286   -9.8088 H   0  0  0  0  0  0  0  0  0  0  0  0
   45.3317  -18.3526  -11.1296 H   0  0  0  0  0  0  0  0  0  0  0  0
   48.4653  -20.7186   -5.0077 H   0  0  0  0  0  0  0  0  0  0  0  0
   52.3400  -16.3764   -5.7624 H   0  0  0  0  0  0  0  0  0  0  0  0
   47.2323  -15.0005  -10.8602 H   0  0  0  0  0  0  0  0  0  0  0  0
   45.5732  -14.9348  -10.2291 H   0  0  0  0  0  0  0  0  0  0  0  0
   45.9220  -14.3422  -11.8427 H   0  0  0  0  0  0  0  0  0  0  0  0
   46.4651  -15.9509  -13.6482 H   0  0  0  0  0  0  0  0  0  0  0  0
   46.4105  -17.6739  -13.3120 H   0  0  0  0  0  0  0  0  0  0  0  0
   47.7502  -16.6899  -12.6792 H   0  0  0  0  0  0  0  0  0  0  0  0
   44.6855  -18.7858   -5.6564 H   0  0  0  0  0  0  0  0  0  0  0  0
   49.8904  -12.9823   -6.7260 H   0  0  0  0  0  0  0  0  0  0  0  0
   51.9165  -13.9430   -5.6639 H   0  0  0  0  0  0  0  0  0  0  0  0
   46.0580  -20.4945   -4.4932 H   0  0  0  0  0  0  0  0  0  0  0  0
  2  1  1  0
  3  1  1  0
  4  6  1  0
  5  7  1  0
  6  2  2  0
  7  3  2  0
  8  1  2  3
  9 13  1  0
 10  8  1  0
 11  3  1  0
 12  2  1  0
 13 10  1  0
 14  7  1  0
 15  6  1  0
 16  9  1  0
 17  9  1  0
 18 11  2  0
 19 12  2  0
 20 19  1  0
 21 18  1  0
  5  4  2  0
 21 14  2  0
 20 15  2  0
  4 22  1  0
  5 23  1  0
  8 24  1  0
 10 25  1  0
 10 26  1  0
 11 27  1  0
 12 28  1  0
 13 29  1  0
 13 30  1  0
 14 31  1  0
 15 32  1  0
 16 33  1  0
 16 34  1  0
 16 35  1  0
 17 36  1  0
 17 37  1  0
 17 38  1  0
 18 39  1  0
 19 40  1  0
 20 41  1  0
 21 42  1  0
M  END
> <Uni-Dock RESULT> 
ENERGY=   -5.038  LOWER_BOUND=    2.621  UPPER_BOUND=    5.162
INTER + INTRA:          -5.038
INTER:                  -5.038
INTRA:                   0.000
UNBOUND:                 0.000

$$$$

     RDKit          3D

 42 44  0  0  0  0  0  0  0  0999 V2000
   49.9808  -18.5037   -7.2542 C   0  0  0  0  0  0  0  0  0  0  0  0
   50.4362  -19.0442   -5.8612 C   0  0  0  0  0  0  0  0  0  0  0  0
   48.8012  -17.4880   -7.1795 C   0  0  0  0  0  0  0  0  0  0  0  0
   48.1168  -20.1998   -5.6125 C   0  0  0  0  0  0  0  0  0  0  0  0
   47.2788  -19.4048   -6.2946 C   0  0  0  0  0  0  0  0  0  0  0  0
   49.5331  -19.7818   -5.0803 C   0  0  0  0  0  0  0  0  0  0  0  0
   47.5603  -17.9097   -6.6779 C   0  0  0  0  0  0  0  0  0  0  0  0
   50.5188  -18.9733   -8.3889 C   0  0  0  0  0  0  0  0  0  0  0  0
   52.4067  -17.9915  -10.8624 N   0  0  0  0  0  0  0  0  0  0  0  0
   50.1102  -18.6235   -9.7918 C   0  0  0  0  0  0  0  0  0  0  0  0
   49.0074  -16.1447   -7.5088 C   0  0  0  0  0  0  0  0  0  0  0  0
   51.7004  -18.7175   -5.3607 C   0  0  0  0  0  0  0  0  0  0  0  0
   51.0281  -17.6152  -10.5143 C   0  0  0  0  0  0  0  0  0  0  0  0
   46.5244  -16.9805   -6.5379 C   0  0  0  0  0  0  0  0  0  0  0  0
   49.9144  -20.1986   -3.8012 C   0  0  0  0  0  0  0  0  0  0  0  0
   53.3403  -17.8996   -9.7474 C   0  0  0  0  0  0  0  0  0  0  0  0
   52.5067  -19.2768  -11.5424 C   0  0  0  0  0  0  0  0  0  0  0  0
   47.9670  -15.2261   -7.3708 C   0  0  0  0  0  0  0  0  0  0  0  0
   52.0731  -19.1419   -4.0854 C   0  0  0  0  0  0  0  0  0  0  0  0
   51.1814  -19.8798   -3.3066 C   0  0  0  0  0  0  0  0  0  0  0  0
   46.7272  -15.6436   -6.8869 C   0  0  0  0  0  0  0  0  0  0  0  0
   47.8083  -21.2277   -5.4356 H   0  0  0  0  0  0  0  0  0  0  0  0
   46.3369  -19.8313   -6.6320 H   0  0  0  0  0  0  0  0  0  0  0  0
   51.3014  -19.7250   -8.3122 H   0  0  0  0  0  0  0  0  0  0  0  0
   49.0933  -18.2121   -9.7964 H   0  0  0  0  0  0  0  0  0  0  0  0
   50.0352  -19.5511  -10.3721 H   0  0  0  0  0  0  0  0  0  0  0  0
   49.9791  -15.8088   -7.8595 H   0  0  0  0  0  0  0  0  0  0  0  0
   52.3889  -18.1240   -5.9555 H   0  0  0  0  0  0  0  0  0  0  0  0
   51.0433  -16.6713   -9.9545 H   0  0  0  0  0  0  0  0  0  0  0  0
   50.5295  -17.3623  -11.4601 H   0  0  0  0  0  0  0  0  0  0  0  0
   45.5562  -17.2907   -6.1539 H   0  0  0  0  0  0  0  0  0  0  0  0
   49.2290  -20.7724   -3.1831 H   0  0  0  0  0  0  0  0  0  0  0  0
   53.1989  -18.6861   -9.0017 H   0  0  0  0  0  0  0  0  0  0  0  0
   53.2619  -16.9280   -9.2474 H   0  0  0  0  0  0  0  0  0  0  0  0
   54.3705  -17.9750  -10.1141 H   0  0  0  0  0  0  0  0  0  0  0  0
   53.5183  -19.4202  -11.9384 H   0  0  0  0  0  0  0  0  0  0  0  0
   51.8271  -19.3163  -12.4009 H   0  0  0  0  0  0  0  0  0  0  0  0
   52.2821  -20.1206  -10.8812 H   0  0  0  0  0  0  0  0  0  0  0  0
   48.1265  -14.1825   -7.6291 H   0  0  0  0  0  0  0  0  0  0  0  0
   53.0550  -18.8883   -3.6943 H   0  0  0  0  0  0  0  0  0  0  0  0
   51.4712  -20.2049   -2.3107 H   0  0  0  0  0  0  0  0  0  0  0  0
   45.9191  -14.9255   -6.7736 H   0  0  0  0  0  0  0  0  0  0  0  0
  2  1  1  0
  3  1  1  0
  4  6  1  0
  5  7  1  0
  6  2  2  0
  7  3  2  0
  8  1  2  3
  9 13  1  0
 10  8  1  0
 11  3  1  0
 12  2  1  0
 13 10  1  0
 14  7  1  0
 15  6  1  0
 16  9  1  0
 17  9  1  0
 18 11  2  0
 19 12  2  0
 20 19  1  0
 21 18  1  0
  5  4  2  0
 21 14  2  0
 20 15  2  0
  4 22  1  0
  5 23  1  0
  8 24  1  0
 10 25  1  0
 10 26  1  0
 11 27  1  0
 12 28  1  0
 13 29  1  0
 13 30  1  0
 14 31  1  0
 15 32  1  0
 16 33  1  0
 16 34  1  0
 16 35  1  0
 17 36  1  0
 17 37  1  0
 17 38  1  0
 18 39  1  0
 19 40  1  0
 20 41  1  0
 21 42  1  0
M  END
> <Uni-Dock RESULT> 
ENERGY=   -4.855  LOWER_BOUND=    2.078  UPPER_BOUND=    4.488
INTER + INTRA:          -4.855
INTER:                  -4.855
INTRA:                   0.000
UNBOUND:                 0.000

$$$$

     RDKit          3D

 42 44  0  0  0  0  0  0  0  0999 V2000
   49.4799  -17.5807   -8.7603 C   0  0  0  0  0  0  0  0  0  0  0  0
   48.1563  -17.9460   -8.0157 C   0  0  0  0  0  0  0  0  0  0  0  0
   50.6370  -17.1481   -7.8102 C   0  0  0  0  0  0  0  0  0  0  0  0
   47.9666  -15.4651   -7.2502 C   0  0  0  0  0  0  0  0  0  0  0  0
   49.2395  -15.0535   -7.1510 C   0  0  0  0  0  0  0  0  0  0  0  0
   47.4952  -16.9623   -7.2642 C   0  0  0  0  0  0  0  0  0  0  0  0
   50.4879  -15.9953   -7.0241 C   0  0  0  0  0  0  0  0  0  0  0  0
   49.5383  -17.5609  -10.0996 C   0  0  0  0  0  0  0  0  0  0  0  0
   50.9437  -19.1608  -12.5717 N   0  0  0  0  0  0  0  0  0  0  0  0
   50.7048  -17.1325  -10.9443 C   0  0  0  0  0  0  0  0  0  0  0  0
   51.7673  -17.9584   -7.6637 C   0  0  0  0  0  0  0  0  0  0  0  0
   47.6864  -19.2630   -8.0249 C   0  0  0  0  0  0  0  0  0  0  0  0
   51.5362  -18.2816  -11.5523 C   0  0  0  0  0  0  0  0  0  0  0  0
   51.4925  -15.6494   -6.1147 C   0  0  0  0  0  0  0  0  0  0  0  0
   46.3538  -17.3088   -6.5347 C   0  0  0  0  0  0  0  0  0  0  0  0
   50.0823  -20.2000  -12.0227 C   0  0  0  0  0  0  0  0  0  0  0  0
   50.2906  -18.4390  -13.6565 C   0  0  0  0  0  0  0  0  0  0  0  0
   52.7665  -17.6028   -6.7579 C   0  0  0  0  0  0  0  0  0  0  0  0
   46.5442  -19.5977   -7.2976 C   0  0  0  0  0  0  0  0  0  0  0  0
   45.8800  -18.6228   -6.5529 C   0  0  0  0  0  0  0  0  0  0  0  0
   52.6298  -16.4497   -5.9853 C   0  0  0  0  0  0  0  0  0  0  0  0
   47.1958  -14.7054   -7.3591 H   0  0  0  0  0  0  0  0  0  0  0  0
   49.4306  -13.9833   -7.1840 H   0  0  0  0  0  0  0  0  0  0  0  0
   48.6433  -17.8316  -10.6556 H   0  0  0  0  0  0  0  0  0  0  0  0
   51.3845  -16.5034  -10.3565 H   0  0  0  0  0  0  0  0  0  0  0  0
   50.3340  -16.4722  -11.7374 H   0  0  0  0  0  0  0  0  0  0  0  0
   51.8658  -18.8723   -8.2426 H   0  0  0  0  0  0  0  0  0  0  0  0
   48.2140  -20.0294   -8.5856 H   0  0  0  0  0  0  0  0  0  0  0  0
   51.9518  -18.8970  -10.7441 H   0  0  0  0  0  0  0  0  0  0  0  0
   52.4152  -17.8168  -12.0194 H   0  0  0  0  0  0  0  0  0  0  0  0
   51.3946  -14.7583   -5.5003 H   0  0  0  0  0  0  0  0  0  0  0  0
   45.8277  -16.5598   -5.9488 H   0  0  0  0  0  0  0  0  0  0  0  0
   49.1310  -19.8158  -11.6457 H   0  0  0  0  0  0  0  0  0  0  0  0
   50.5846  -20.7406  -11.2130 H   0  0  0  0  0  0  0  0  0  0  0  0
   49.8541  -20.9440  -12.7947 H   0  0  0  0  0  0  0  0  0  0  0  0
   50.0328  -19.1263  -14.4700 H   0  0  0  0  0  0  0  0  0  0  0  0
   50.9637  -17.6878  -14.0843 H   0  0  0  0  0  0  0  0  0  0  0  0
   49.3706  -17.9393  -13.3347 H   0  0  0  0  0  0  0  0  0  0  0  0
   53.6461  -18.2313   -6.6459 H   0  0  0  0  0  0  0  0  0  0  0  0
   46.1779  -20.6210   -7.3029 H   0  0  0  0  0  0  0  0  0  0  0  0
   44.9933  -18.8865   -5.9821 H   0  0  0  0  0  0  0  0  0  0  0  0
   53.4061  -16.1772   -5.2751 H   0  0  0  0  0  0  0  0  0  0  0  0
  2  1  1  0
  3  1  1  0
  4  6  1  0
  5  7  1  0
  6  2  2  0
  7  3  2  0
  8  1  2  3
  9 13  1  0
 10  8  1  0
 11  3  1  0
 12  2  1  0
 13 10  1  0
 14  7  1  0
 15  6  1  0
 16  9  1  0
 17  9  1  0
 18 11  2  0
 19 12  2  0
 20 19  1  0
 21 18  1  0
  5  4  2  0
 21 14  2  0
 20 15  2  0
  4 22  1  0
  5 23  1  0
  8 24  1  0
 10 25  1  0
 10 26  1  0
 11 27  1  0
 12 28  1  0
 13 29  1  0
 13 30  1  0
 14 31  1  0
 15 32  1  0
 16 33  1  0
 16 34  1  0
 16 35  1  0
 17 36  1  0
 17 37  1  0
 17 38  1  0
 18 39  1  0
 19 40  1  0
 20 41  1  0
 21 42  1  0
M  END
> <Uni-Dock RESULT> 
ENERGY=   -4.694  LOWER_BOUND=    1.056  UPPER_BOUND=    1.284
INTER + INTRA:          -4.694
INTER:                  -4.694
INTRA:                   0.000
UNBOUND:                 0.000

$$$$

     RDKit          3D

 42 44  0  0  0  0  0  0  0  0999 V2000
   50.0208  -17.8847   -8.2048 C   0  0  0  0  0  0  0  0  0  0  0  0
   51.0451  -17.9740   -7.0288 C   0  0  0  0  0  0  0  0  0  0  0  0
   48.6556  -17.2495   -7.8026 C   0  0  0  0  0  0  0  0  0  0  0  0
   49.4530  -19.6578   -5.8425 C   0  0  0  0  0  0  0  0  0  0  0  0
   48.2272  -19.2902   -6.2448 C   0  0  0  0  0  0  0  0  0  0  0  0
   50.7371  -18.7572   -5.9057 C   0  0  0  0  0  0  0  0  0  0  0  0
   47.8538  -17.8897   -6.8454 C   0  0  0  0  0  0  0  0  0  0  0  0
   50.2992  -18.4086   -9.4070 C   0  0  0  0  0  0  0  0  0  0  0  0
   50.8666  -17.4706  -12.4802 N   0  0  0  0  0  0  0  0  0  0  0  0
   49.3775  -18.4869  -10.5910 C   0  0  0  0  0  0  0  0  0  0  0  0
   48.2834  -16.0012   -8.3112 C   0  0  0  0  0  0  0  0  0  0  0  0
   52.2148  -17.2084   -7.0572 C   0  0  0  0  0  0  0  0  0  0  0  0
   49.6260  -17.4337  -11.6912 C   0  0  0  0  0  0  0  0  0  0  0  0
   46.6659  -17.2816   -6.4269 C   0  0  0  0  0  0  0  0  0  0  0  0
   51.6182  -18.7751   -4.8201 C   0  0  0  0  0  0  0  0  0  0  0  0
   52.0153  -16.8904  -11.7965 C   0  0  0  0  0  0  0  0  0  0  0  0
   51.1736  -18.7876  -13.0237 C   0  0  0  0  0  0  0  0  0  0  0  0
   47.0944  -15.4047   -7.8919 C   0  0  0  0  0  0  0  0  0  0  0  0
   53.0897  -17.2366   -5.9712 C   0  0  0  0  0  0  0  0  0  0  0  0
   52.7912  -18.0174   -4.8543 C   0  0  0  0  0  0  0  0  0  0  0  0
   46.2865  -16.0443   -6.9519 C   0  0  0  0  0  0  0  0  0  0  0  0
   49.5805  -20.6710   -5.4680 H   0  0  0  0  0  0  0  0  0  0  0  0
   47.4283  -20.0249   -6.1732 H   0  0  0  0  0  0  0  0  0  0  0  0
   51.2708  -18.8767   -9.5494 H   0  0  0  0  0  0  0  0  0  0  0  0
   48.3350  -18.3885  -10.2639 H   0  0  0  0  0  0  0  0  0  0  0  0
   49.4402  -19.4973  -11.0125 H   0  0  0  0  0  0  0  0  0  0  0  0
   48.9227  -15.4858   -9.0223 H   0  0  0  0  0  0  0  0  0  0  0  0
   52.4393  -16.5820   -7.9159 H   0  0  0  0  0  0  0  0  0  0  0  0
   49.4981  -16.4290  -11.2684 H   0  0  0  0  0  0  0  0  0  0  0  0
   48.8007  -17.5332  -12.4097 H   0  0  0  0  0  0  0  0  0  0  0  0
   46.0315  -17.7650   -5.6886 H   0  0  0  0  0  0  0  0  0  0  0  0
   51.3972  -19.3774   -3.9429 H   0  0  0  0  0  0  0  0  0  0  0  0
   52.3889  -17.5124  -10.9790 H   0  0  0  0  0  0  0  0  0  0  0  0
   51.7763  -15.8985  -11.3977 H   0  0  0  0  0  0  0  0  0  0  0  0
   52.8397  -16.7473  -12.5045 H   0  0  0  0  0  0  0  0  0  0  0  0
   51.9952  -18.7194  -13.7455 H   0  0  0  0  0  0  0  0  0  0  0  0
   50.3136  -19.1940  -13.5674 H   0  0  0  0  0  0  0  0  0  0  0  0
   51.4660  -19.5043  -12.2487 H   0  0  0  0  0  0  0  0  0  0  0  0
   46.8039  -14.4357   -8.2891 H   0  0  0  0  0  0  0  0  0  0  0  0
   53.9990  -16.6416   -5.9912 H   0  0  0  0  0  0  0  0  0  0  0  0
   53.4712  -18.0338   -4.0064 H   0  0  0  0  0  0  0  0  0  0  0  0
   45.3634  -15.5755   -6.6210 H   0  0  0  0  0  0  0  0  0  0  0  0
  2  1  1  0
  3  1  1  0
  4  6  1  0
  5  7  1  0
  6  2  2  0
  7  3  2  0
  8  1  2  3
  9 13  1  0
 10  8  1  0
 11  3  1  0
 12  2  1  0
 13 10  1  0
 14  7  1  0
 15  6  1  0
 16  9  1  0
 17  9  1  0
 18 11  2  0
 19 12  2  0
 20 19  1  0
 21 18  1  0
  5  4  2  0
 21 14  2  0
 20 15  2  0
  4 22  1  0
  5 23  1  0
  8 24  1  0
 10 25  1  0
 10 26  1  0
 11 27  1  0
 12 28  1  0
 13 29  1  0
 13 30  1  0
 14 31  1  0
 15 32  1  0
 16 33  1  0
 16 34  1  0
 16 35  1  0
 17 36  1  0
 17 37  1  0
 17 38  1  0
 18 39  1  0
 19 40  1  0
 20 41  1  0
 21 42  1  0
M  END
> <Uni-Dock RESULT> 
ENERGY=   -4.510  LOWER_BOUND=    1.610  UPPER_BOUND=    4.585
INTER + INTRA:          -4.510
INTER:                  -4.510
INTRA:                   0.000
UNBOUND:                 0.000

$$$$

     RDKit          3D

 42 44  0  0  0  0  0  0  0  0999 V2000
   49.7882  -17.4024   -8.4069 C   0  0  0  0  0  0  0  0  0  0  0  0
   48.3343  -17.0970   -7.9243 C   0  0  0  0  0  0  0  0  0  0  0  0
   50.8272  -17.5011   -7.2496 C   0  0  0  0  0  0  0  0  0  0  0  0
   49.1562  -14.7693   -7.0977 C   0  0  0  0  0  0  0  0  0  0  0  0
   50.4375  -14.9751   -6.7576 C   0  0  0  0  0  0  0  0  0  0  0  0
   48.0690  -15.8899   -7.2595 C   0  0  0  0  0  0  0  0  0  0  0  0
   51.0797  -16.3738   -6.4531 C   0  0  0  0  0  0  0  0  0  0  0  0
   50.0850  -17.4677   -9.7127 C   0  0  0  0  0  0  0  0  0  0  0  0
   51.0262  -19.6331  -11.9647 N   0  0  0  0  0  0  0  0  0  0  0  0
   51.4477  -17.6500  -10.3188 C   0  0  0  0  0  0  0  0  0  0  0  0
   51.4222  -18.7284   -6.9411 C   0  0  0  0  0  0  0  0  0  0  0  0
   47.3290  -18.0576   -8.0732 C   0  0  0  0  0  0  0  0  0  0  0  0
   51.7616  -19.0755  -10.8196 C   0  0  0  0  0  0  0  0  0  0  0  0
   51.9534  -16.4823   -5.3664 C   0  0  0  0  0  0  0  0  0  0  0  0
   46.7855  -15.6509   -6.7587 C   0  0  0  0  0  0  0  0  0  0  0  0
   49.7058  -20.1454  -11.6219 C   0  0  0  0  0  0  0  0  0  0  0  0
   50.9740  -18.7403  -13.1155 C   0  0  0  0  0  0  0  0  0  0  0  0
   52.2963  -18.8260   -5.8585 C   0  0  0  0  0  0  0  0  0  0  0  0
   46.0507  -17.8078   -7.5743 C   0  0  0  0  0  0  0  0  0  0  0  0
   45.7798  -16.6074   -6.9171 C   0  0  0  0  0  0  0  0  0  0  0  0
   52.5621  -17.7046   -5.0730 C   0  0  0  0  0  0  0  0  0  0  0  0
   48.8458  -13.7483   -7.3081 H   0  0  0  0  0  0  0  0  0  0  0  0
   51.0948  -14.1098   -6.7099 H   0  0  0  0  0  0  0  0  0  0  0  0
   49.2786  -17.3270  -10.4292 H   0  0  0  0  0  0  0  0  0  0  0  0
   52.2226  -17.3726   -9.5935 H   0  0  0  0  0  0  0  0  0  0  0  0
   51.5629  -16.9274  -11.1356 H   0  0  0  0  0  0  0  0  0  0  0  0
   51.1969  -19.6113   -7.5324 H   0  0  0  0  0  0  0  0  0  0  0  0
   47.5423  -19.0026   -8.5646 H   0  0  0  0  0  0  0  0  0  0  0  0
   51.7034  -19.7776   -9.9781 H   0  0  0  0  0  0  0  0  0  0  0  0
   52.8230  -19.0792  -11.1036 H   0  0  0  0  0  0  0  0  0  0  0  0
   52.1626  -15.6184   -4.7410 H   0  0  0  0  0  0  0  0  0  0  0  0
   46.5612  -14.7209   -6.2431 H   0  0  0  0  0  0  0  0  0  0  0  0
   48.9817  -19.3566  -11.4025 H   0  0  0  0  0  0  0  0  0  0  0  0
   49.7568  -20.8202  -10.7604 H   0  0  0  0  0  0  0  0  0  0  0  0
   49.3060  -20.7373  -12.4535 H   0  0  0  0  0  0  0  0  0  0  0  0
   50.5814  -19.2700  -13.9907 H   0  0  0  0  0  0  0  0  0  0  0  0
   51.9780  -18.3941  -13.3848 H   0  0  0  0  0  0  0  0  0  0  0  0
   50.3393  -17.8651  -12.9399 H   0  0  0  0  0  0  0  0  0  0  0  0
   52.7606  -19.7793   -5.6202 H   0  0  0  0  0  0  0  0  0  0  0  0
   45.2682  -18.5535   -7.6884 H   0  0  0  0  0  0  0  0  0  0  0  0
   44.7846  -16.4167   -6.5238 H   0  0  0  0  0  0  0  0  0  0  0  0
   53.2384  -17.7834   -4.2257 H   0  0  0  0  0  0  0  0  0  0  0  0
  2  1  1  0
  3  1  1  0
  4  6  1  0
  5  7  1  0
  6  2  2  0
  7  3  2  0
  8  1  2  3
  9 13  1  0
 10  8  1  0
 11  3  1  0
 12  2  1  0
 13 10  1  0
 14  7  1  0
 15  6  1  0
 16  9  1  0
 17  9  1  0
 18 11  2  0
 19 12  2  0
 20 19  1  0
 21 18  1  0
  5  4  2  0
 21 14  2  0
 20 15  2  0
  4 22  1  0
  5 23  1  0
  8 24  1  0
 10 25  1  0
 10 26  1  0
 11 27  1  0
 12 28  1  0
 13 29  1  0
 13 30  1  0
 14 31  1  0
 15 32  1  0
 16 33  1  0
 16 34  1  0
 16 35  1  0
 17 36  1  0
 17 37  1  0
 17 38  1  0
 18 39  1  0
 19 40  1  0
 20 41  1  0
 21 42  1  0
M  END
> <Uni-Dock RESULT> 
ENERGY=   -4.486  LOWER_BOUND=    0.855  UPPER_BOUND=    1.005
INTER + INTRA:          -4.486
INTER:                  -4.486
INTRA:                   0.000
UNBOUND:                 0.000

$$$$

     RDKit          3D

 42 44  0  0  0  0  0  0  0  0999 V2000
   49.4972  -17.7854   -7.7594 C   0  0  0  0  0  0  0  0  0  0  0  0
   48.4536  -18.5482   -6.8824 C   0  0  0  0  0  0  0  0  0  0  0  0
   49.5969  -16.2639   -7.4373 C   0  0  0  0  0  0  0  0  0  0  0  0
   46.5681  -17.1477   -8.0051 C   0  0  0  0  0  0  0  0  0  0  0  0
   47.1565  -15.9777   -8.2958 C   0  0  0  0  0  0  0  0  0  0  0  0
   47.0976  -18.1958   -6.9635 C   0  0  0  0  0  0  0  0  0  0  0  0
   48.4781  -15.4420   -7.6415 C   0  0  0  0  0  0  0  0  0  0  0  0
   50.1520  -18.4044   -8.7521 C   0  0  0  0  0  0  0  0  0  0  0  0
   53.1667  -19.3626   -9.5519 N   0  0  0  0  0  0  0  0  0  0  0  0
   51.0998  -17.7771   -9.7348 C   0  0  0  0  0  0  0  0  0  0  0  0
   50.7548  -15.7434   -6.8508 C   0  0  0  0  0  0  0  0  0  0  0  0
   48.8803  -19.5089   -5.9603 C   0  0  0  0  0  0  0  0  0  0  0  0
   52.5979  -18.0103   -9.4474 C   0  0  0  0  0  0  0  0  0  0  0  0
   48.5419  -14.0925   -7.2800 C   0  0  0  0  0  0  0  0  0  0  0  0
   46.1746  -18.8245   -6.1220 C   0  0  0  0  0  0  0  0  0  0  0  0
   52.9092  -20.2000   -8.3875 C   0  0  0  0  0  0  0  0  0  0  0  0
   52.8224  -20.0463  -10.7921 C   0  0  0  0  0  0  0  0  0  0  0  0
   50.8112  -14.3951   -6.4982 C   0  0  0  0  0  0  0  0  0  0  0  0
   47.9512  -20.1337   -5.1285 C   0  0  0  0  0  0  0  0  0  0  0  0
   46.6012  -19.7912   -5.2083 C   0  0  0  0  0  0  0  0  0  0  0  0
   49.7068  -13.5708   -6.7133 C   0  0  0  0  0  0  0  0  0  0  0  0
   45.6660  -17.4108   -8.5529 H   0  0  0  0  0  0  0  0  0  0  0  0
   46.6987  -15.3564   -9.0622 H   0  0  0  0  0  0  0  0  0  0  0  0
   49.9552  -19.4619   -8.9145 H   0  0  0  0  0  0  0  0  0  0  0  0
   50.9331  -16.6938   -9.7798 H   0  0  0  0  0  0  0  0  0  0  0  0
   50.8460  -18.1373  -10.7390 H   0  0  0  0  0  0  0  0  0  0  0  0
   51.6076  -16.3871   -6.6552 H   0  0  0  0  0  0  0  0  0  0  0  0
   49.9337  -19.7618   -5.8799 H   0  0  0  0  0  0  0  0  0  0  0  0
   52.8498  -17.5888   -8.4658 H   0  0  0  0  0  0  0  0  0  0  0  0
   53.1528  -17.3865  -10.1615 H   0  0  0  0  0  0  0  0  0  0  0  0
   47.6856  -13.4412   -7.4341 H   0  0  0  0  0  0  0  0  0  0  0  0
   45.1202  -18.5660   -6.1723 H   0  0  0  0  0  0  0  0  0  0  0  0
   51.8687  -20.5262   -8.3135 H   0  0  0  0  0  0  0  0  0  0  0  0
   53.1773  -19.6798   -7.4614 H   0  0  0  0  0  0  0  0  0  0  0  0
   53.5342  -21.0996   -8.4274 H   0  0  0  0  0  0  0  0  0  0  0  0
   53.4147  -20.9619  -10.8991 H   0  0  0  0  0  0  0  0  0  0  0  0
   53.0574  -19.4197  -11.6597 H   0  0  0  0  0  0  0  0  0  0  0  0
   51.7638  -20.3235  -10.8392 H   0  0  0  0  0  0  0  0  0  0  0  0
   51.7120  -13.9900   -6.0446 H   0  0  0  0  0  0  0  0  0  0  0  0
   48.2810  -20.8801   -4.4106 H   0  0  0  0  0  0  0  0  0  0  0  0
   45.8792  -20.2749   -4.5554 H   0  0  0  0  0  0  0  0  0  0  0  0
   49.7497  -12.5217   -6.4321 H   0  0  0  0  0  0  0  0  0  0  0  0
  2  1  1  0
  3  1  1  0
  4  6  1  0
  5  7  1  0
  6  2  2  0
  7  3  2  0
  8  1  2  3
  9 13  1  0
 10  8  1  0
 11  3  1  0
 12  2  1  0
 13 10  1  0
 14  7  1  0
 15  6  1  0
 16  9  1  0
 17  9  1  0
 18 11  2  0
 19 12  2  0
 20 19  1  0
 21 18  1  0
  5  4  2  0
 21 14  2  0
 20 15  2  0
  4 22  1  0
  5 23  1  0
  8 24  1  0
 10 25  1  0
 10 26  1  0
 11 27  1  0
 12 28  1  0
 13 29  1  0
 13 30  1  0
 14 31  1  0
 15 32  1  0
 16 33  1  0
 16 34  1  0
 16 35  1  0
 17 36  1  0
 17 37  1  0
 17 38  1  0
 18 39  1  0
 19 40  1  0
 20 41  1  0
 21 42  1  0
M  END
> <Uni-Dock RESULT> 
ENERGY=   -4.272  LOWER_BOUND=    1.620  UPPER_BOUND=    2.737
INTER + INTRA:          -4.272
INTER:                  -4.272
INTRA:                   0.000
UNBOUND:                 0.000

$$$$

     RDKit          3D

 42 44  0  0  0  0  0  0  0  0999 V2000
   49.4636  -17.5952   -7.7881 C   0  0  0  0  0  0  0  0  0  0  0  0
   49.0802  -17.1243   -9.2273 C   0  0  0  0  0  0  0  0  0  0  0  0
   48.2838  -18.2447   -7.0039 C   0  0  0  0  0  0  0  0  0  0  0  0
   47.4783  -15.3677   -8.1665 C   0  0  0  0  0  0  0  0  0  0  0  0
   47.0746  -15.9399   -7.0222 C   0  0  0  0  0  0  0  0  0  0  0  0
   48.1063  -16.1267   -9.3885 C   0  0  0  0  0  0  0  0  0  0  0  0
   47.1511  -17.4737   -6.7011 C   0  0  0  0  0  0  0  0  0  0  0  0
   50.6810  -17.3530   -7.2815 C   0  0  0  0  0  0  0  0  0  0  0  0
   53.3733  -18.9463   -6.3546 N   0  0  0  0  0  0  0  0  0  0  0  0
   51.1527  -17.6540   -5.8871 C   0  0  0  0  0  0  0  0  0  0  0  0
   48.3083  -19.6092   -6.6989 C   0  0  0  0  0  0  0  0  0  0  0  0
   49.6366  -17.7558  -10.3439 C   0  0  0  0  0  0  0  0  0  0  0  0
   52.0347  -18.9124   -5.7463 C   0  0  0  0  0  0  0  0  0  0  0  0
   46.0601  -18.0757   -6.0662 C   0  0  0  0  0  0  0  0  0  0  0  0
   47.7070  -15.7606  -10.6776 C   0  0  0  0  0  0  0  0  0  0  0  0
   53.3622  -19.2285   -7.7842 C   0  0  0  0  0  0  0  0  0  0  0  0
   54.1850  -17.7763   -6.0442 C   0  0  0  0  0  0  0  0  0  0  0  0
   47.2177  -20.2000   -6.0610 C   0  0  0  0  0  0  0  0  0  0  0  0
   49.2351  -17.3803  -11.6258 C   0  0  0  0  0  0  0  0  0  0  0  0
   48.2712  -16.3856  -11.7923 C   0  0  0  0  0  0  0  0  0  0  0  0
   46.0957  -19.4342   -5.7444 C   0  0  0  0  0  0  0  0  0  0  0  0
   47.3930  -14.2865   -8.2497 H   0  0  0  0  0  0  0  0  0  0  0  0
   46.6835  -15.2915   -6.2414 H   0  0  0  0  0  0  0  0  0  0  0  0
   51.4053  -16.8404   -7.9109 H   0  0  0  0  0  0  0  0  0  0  0  0
   50.2931  -17.7719   -5.2159 H   0  0  0  0  0  0  0  0  0  0  0  0
   51.6836  -16.7743   -5.5037 H   0  0  0  0  0  0  0  0  0  0  0  0
   49.1679  -20.2162   -6.9685 H   0  0  0  0  0  0  0  0  0  0  0  0
   50.3710  -18.5462  -10.2175 H   0  0  0  0  0  0  0  0  0  0  0  0
   51.4676  -19.7926   -6.0754 H   0  0  0  0  0  0  0  0  0  0  0  0
   52.1815  -19.0710   -4.6691 H   0  0  0  0  0  0  0  0  0  0  0  0
   45.1762  -17.4925   -5.8216 H   0  0  0  0  0  0  0  0  0  0  0  0
   46.9558  -14.9887  -10.8217 H   0  0  0  0  0  0  0  0  0  0  0  0
   52.9919  -18.3938   -8.3849 H   0  0  0  0  0  0  0  0  0  0  0  0
   52.7551  -20.1130   -8.0061 H   0  0  0  0  0  0  0  0  0  0  0  0
   54.3773  -19.4573   -8.1288 H   0  0  0  0  0  0  0  0  0  0  0  0
   55.2211  -17.9363   -6.3632 H   0  0  0  0  0  0  0  0  0  0  0  0
   54.2152  -17.5997   -4.9633 H   0  0  0  0  0  0  0  0  0  0  0  0
   53.8187  -16.8684   -6.5354 H   0  0  0  0  0  0  0  0  0  0  0  0
   47.2377  -21.2600   -5.8218 H   0  0  0  0  0  0  0  0  0  0  0  0
   49.6659  -17.8704  -12.4950 H   0  0  0  0  0  0  0  0  0  0  0  0
   47.9551  -16.0981  -12.7918 H   0  0  0  0  0  0  0  0  0  0  0  0
   45.2438  -19.8972   -5.2532 H   0  0  0  0  0  0  0  0  0  0  0  0
  2  1  1  0
  3  1  1  0
  4  6  1  0
  5  7  1  0
  6  2  2  0
  7  3  2  0
  8  1  2  3
  9 13  1  0
 10  8  1  0
 11  3  1  0
 12  2  1  0
 13 10  1  0
 14  7  1  0
 15  6  1  0
 16  9  1  0
 17  9  1  0
 18 11  2  0
 19 12  2  0
 20 19  1  0
 21 18  1  0
  5  4  2  0
 21 14  2  0
 20 15  2  0
  4 22  1  0
  5 23  1  0
  8 24  1  0
 10 25  1  0
 10 26  1  0
 11 27  1  0
 12 28  1  0
 13 29  1  0
 13 30  1  0
 14 31  1  0
 15 32  1  0
 16 33  1  0
 16 34  1  0
 16 35  1  0
 17 36  1  0
 17 37  1  0
 17 38  1  0
 18 39  1  0
 19 40  1  0
 20 41  1  0
 21 42  1  0
M  END
> <Uni-Dock RESULT> 
ENERGY=   -4.258  LOWER_BOUND=    2.164  UPPER_BOUND=    4.631
INTER + INTRA:          -4.258
INTER:                  -4.258
INTRA:                   0.000
UNBOUND:                 0.000

$$$$

     RDKit          3D

 42 44  0  0  0  0  0  0  0  0999 V2000
   46.5876  -16.3895   -9.8874 C   0  0  0  0  0  0  0  0  0  0  0  0
   46.1483  -17.1985   -8.6254 C   0  0  0  0  0  0  0  0  0  0  0  0
   48.0739  -16.6194  -10.2957 C   0  0  0  0  0  0  0  0  0  0  0  0
   47.8188  -15.7910   -7.2092 C   0  0  0  0  0  0  0  0  0  0  0  0
   48.8039  -15.4882   -8.0681 C   0  0  0  0  0  0  0  0  0  0  0  0
   46.7767  -16.9500   -7.3954 C   0  0  0  0  0  0  0  0  0  0  0  0
   49.0968  -16.2431   -9.4119 C   0  0  0  0  0  0  0  0  0  0  0  0
   45.7568  -15.5154  -10.4733 C   0  0  0  0  0  0  0  0  0  0  0  0
   44.1036  -15.1070  -13.2566 N   0  0  0  0  0  0  0  0  0  0  0  0
   46.0758  -14.6003  -11.6216 C   0  0  0  0  0  0  0  0  0  0  0  0
   48.3815  -17.2905  -11.4833 C   0  0  0  0  0  0  0  0  0  0  0  0
   45.2030  -18.2222   -8.7420 C   0  0  0  0  0  0  0  0  0  0  0  0
   45.5506  -15.0607  -12.9976 C   0  0  0  0  0  0  0  0  0  0  0  0
   50.4271  -16.5195   -9.7434 C   0  0  0  0  0  0  0  0  0  0  0  0
   46.4387  -17.7277   -6.2835 C   0  0  0  0  0  0  0  0  0  0  0  0
   43.4473  -16.2899  -12.7150 C   0  0  0  0  0  0  0  0  0  0  0  0
   43.4041  -13.8849  -12.8805 C   0  0  0  0  0  0  0  0  0  0  0  0
   49.7114  -17.5575  -11.8081 C   0  0  0  0  0  0  0  0  0  0  0  0
   44.8692  -18.9894   -7.6260 C   0  0  0  0  0  0  0  0  0  0  0  0
   45.4868  -18.7435   -6.3995 C   0  0  0  0  0  0  0  0  0  0  0  0
   50.7326  -17.1718  -10.9399 C   0  0  0  0  0  0  0  0  0  0  0  0
   47.7097  -15.1685   -6.3239 H   0  0  0  0  0  0  0  0  0  0  0  0
   49.4395  -14.6380   -7.8314 H   0  0  0  0  0  0  0  0  0  0  0  0
   44.7568  -15.4030  -10.0603 H   0  0  0  0  0  0  0  0  0  0  0  0
   47.1613  -14.4663  -11.7062 H   0  0  0  0  0  0  0  0  0  0  0  0
   45.6921  -13.6006  -11.3846 H   0  0  0  0  0  0  0  0  0  0  0  0
   47.5884  -17.6180  -12.1495 H   0  0  0  0  0  0  0  0  0  0  0  0
   44.7365  -18.4311   -9.7006 H   0  0  0  0  0  0  0  0  0  0  0  0
   45.9924  -16.0336  -13.2485 H   0  0  0  0  0  0  0  0  0  0  0  0
   45.9746  -14.3703  -13.7397 H   0  0  0  0  0  0  0  0  0  0  0  0
   51.2319  -16.2323   -9.0718 H   0  0  0  0  0  0  0  0  0  0  0  0
   46.9134  -17.5482   -5.3226 H   0  0  0  0  0  0  0  0  0  0  0  0
   43.3613  -16.2737  -11.6255 H   0  0  0  0  0  0  0  0  0  0  0  0
   43.9766  -17.2030  -13.0087 H   0  0  0  0  0  0  0  0  0  0  0  0
   42.4339  -16.3764  -13.1239 H   0  0  0  0  0  0  0  0  0  0  0  0
   42.3764  -13.9024  -13.2601 H   0  0  0  0  0  0  0  0  0  0  0  0
   43.8865  -13.0079  -13.3264 H   0  0  0  0  0  0  0  0  0  0  0  0
   43.3591  -13.7434  -11.7953 H   0  0  0  0  0  0  0  0  0  0  0  0
   49.9506  -18.0769  -12.7323 H   0  0  0  0  0  0  0  0  0  0  0  0
   44.1352  -19.7861   -7.7148 H   0  0  0  0  0  0  0  0  0  0  0  0
   45.2298  -19.3461   -5.5320 H   0  0  0  0  0  0  0  0  0  0  0  0
   51.7682  -17.3862  -11.1910 H   0  0  0  0  0  0  0  0  0  0  0  0
  2  1  1  0
  3  1  1  0
  4  6  1  0
  5  7  1  0
  6  2  2  0
  7  3  2  0
  8  1  2  3
  9 13  1  0
 10  8  1  0
 11  3  1  0
 12  2  1  0
 13 10  1  0
 14  7  1  0
 15  6  1  0
 16  9  1  0
 17  9  1  0
 18 11  2  0
 19 12  2  0
 20 19  1  0
 21 18  1  0
  5  4  2  0
 21 14  2  0
 20 15  2  0
  4 22  1  0
  5 23  1  0
  8 24  1  0
 10 25  1  0
 10 26  1  0
 11 27  1  0
 12 28  1  0
 13 29  1  0
 13 30  1  0
 14 31  1  0
 15 32  1  0
 16 33  1  0
 16 34  1  0
 16 35  1  0
 17 36  1  0
 17 37  1  0
 17 38  1  0
 18 39  1  0
 19 40  1  0
 20 41  1  0
 21 42  1  0
M  END
> <Uni-Dock RESULT> 
ENERGY=   -4.186  LOWER_BOUND=    3.864  UPPER_BOUND=    5.363
INTER + INTRA:          -4.186
INTER:                  -4.186
INTRA:                   0.000
UNBOUND:                 0.000

$$$$
