
     RDKit          3D

 42 44  0  0  0  0  0  0  0  0999 V2000
   50.0173  -16.6800   -8.4278 C   0  0  0  0  0  0  0  0  0  0  0  0
   48.5625  -16.7493   -7.8778 C   0  0  0  0  0  0  0  0  0  0  0  0
   51.0999  -16.5217   -7.3118 C   0  0  0  0  0  0  0  0  0  0  0  0
   48.8078  -14.2912   -7.0616 C   0  0  0  0  0  0  0  0  0  0  0  0
   50.1111  -14.1761   -6.7636 C   0  0  0  0  0  0  0  0  0  0  0  0
   48.0286  -15.6465   -7.1945 C   0  0  0  0  0  0  0  0  0  0  0  0
   51.0916  -15.3746   -6.5030 C   0  0  0  0  0  0  0  0  0  0  0  0
   50.3539  -16.6488   -9.7249 C   0  0  0  0  0  0  0  0  0  0  0  0
   49.4119  -19.1732  -11.3831 N   0  0  0  0  0  0  0  0  0  0  0  0
   49.4257  -16.6851  -10.9107 C   0  0  0  0  0  0  0  0  0  0  0  0
   52.0083  -17.5552   -7.0644 C   0  0  0  0  0  0  0  0  0  0  0  0
   47.8406  -17.9434   -7.9591 C   0  0  0  0  0  0  0  0  0  0  0  0
   49.7485  -17.8297  -11.8928 C   0  0  0  0  0  0  0  0  0  0  0  0
   52.0107  -15.2693   -5.4544 C   0  0  0  0  0  0  0  0  0  0  0  0
   46.7536  -15.7416   -6.6277 C   0  0  0  0  0  0  0  0  0  0  0  0
   50.1317  -20.1986  -12.1419 C   0  0  0  0  0  0  0  0  0  0  0  0
   47.9707  -19.4269  -11.4650 C   0  0  0  0  0  0  0  0  0  0  0  0
   52.9241  -17.4387   -6.0190 C   0  0  0  0  0  0  0  0  0  0  0  0
   46.5679  -18.0287   -7.3954 C   0  0  0  0  0  0  0  0  0  0  0  0
   46.0245  -16.9286   -6.7322 C   0  0  0  0  0  0  0  0  0  0  0  0
   52.9245  -16.2985   -5.2148 C   0  0  0  0  0  0  0  0  0  0  0  0
   48.2469  -13.3789   -7.2496 H   0  0  0  0  0  0  0  0  0  0  0  0
   50.5364  -13.1757   -6.7276 H   0  0  0  0  0  0  0  0  0  0  0  0
   51.4092  -16.5541   -9.9744 H   0  0  0  0  0  0  0  0  0  0  0  0
   48.3734  -16.7094  -10.6142 H   0  0  0  0  0  0  0  0  0  0  0  0
   49.5580  -15.7373  -11.4488 H   0  0  0  0  0  0  0  0  0  0  0  0
   51.9937  -18.4534   -7.6761 H   0  0  0  0  0  0  0  0  0  0  0  0
   48.2764  -18.8085   -8.4530 H   0  0  0  0  0  0  0  0  0  0  0  0
   49.2353  -17.6445  -12.8458 H   0  0  0  0  0  0  0  0  0  0  0  0
   50.8238  -17.7785  -12.1131 H   0  0  0  0  0  0  0  0  0  0  0  0
   52.0205  -14.3879   -4.8189 H   0  0  0  0  0  0  0  0  0  0  0  0
   46.3239  -14.8960   -6.0975 H   0  0  0  0  0  0  0  0  0  0  0  0
   49.9024  -21.1976  -11.7543 H   0  0  0  0  0  0  0  0  0  0  0  0
   49.8820  -20.1756  -13.2090 H   0  0  0  0  0  0  0  0  0  0  0  0
   51.2143  -20.0663  -12.0368 H   0  0  0  0  0  0  0  0  0  0  0  0
   47.6051  -19.4023  -12.4983 H   0  0  0  0  0  0  0  0  0  0  0  0
   47.7328  -20.4094  -11.0415 H   0  0  0  0  0  0  0  0  0  0  0  0
   47.3986  -18.6969  -10.8856 H   0  0  0  0  0  0  0  0  0  0  0  0
   53.6302  -18.2418   -5.8251 H   0  0  0  0  0  0  0  0  0  0  0  0
   46.0069  -18.9568   -7.4627 H   0  0  0  0  0  0  0  0  0  0  0  0
   45.0356  -16.9978   -6.2865 H   0  0  0  0  0  0  0  0  0  0  0  0
   53.6352  -16.2120   -4.3969 H   0  0  0  0  0  0  0  0  0  0  0  0
  2  1  1  0
  3  1  1  0
  4  6  1  0
  5  7  1  0
  6  2  2  0
  7  3  2  0
  8  1  2  3
  9 13  1  0
 10  8  1  0
 11  3  1  0
 12  2  1  0
 13 10  1  0
 14  7  1  0
 15  6  1  0
 16  9  1  0
 17  9  1  0
 18 11  2  0
 19 12  2  0
 20 19  1  0
 21 18  1  0
  5  4  2  0
 21 14  2  0
 20 15  2  0
  4 22  1  0
  5 23  1  0
  8 24  1  0
 10 25  1  0
 10 26  1  0
 11 27  1  0
 12 28  1  0
 13 29  1  0
 13 30  1  0
 14 31  1  0
 15 32  1  0
 16 33  1  0
 16 34  1  0
 16 35  1  0
 17 36  1  0
 17 37  1  0
 17 38  1  0
 18 39  1  0
 19 40  1  0
 20 41  1  0
 21 42  1  0
M  END
> <Uni-Dock RESULT> 
ENERGY=   -5.567  LOWER_BOUND=    0.000  UPPER_BOUND=    0.000
INTER + INTRA:          -5.567
INTER:                  -5.567
INTRA:                   0.000
UNBOUND:                 0.000

$$$$

     RDKit          3D

 42 44  0  0  0  0  0  0  0  0999 V2000
   50.0358  -16.6933   -8.4494 C   0  0  0  0  0  0  0  0  0  0  0  0
   48.5774  -16.7352   -7.9060 C   0  0  0  0  0  0  0  0  0  0  0  0
   51.1163  -16.5610   -7.3281 C   0  0  0  0  0  0  0  0  0  0  0  0
   48.8686  -14.2856   -7.0796 C   0  0  0  0  0  0  0  0  0  0  0  0
   50.1726  -14.1979   -6.7755 C   0  0  0  0  0  0  0  0  0  0  0  0
   48.0628  -15.6244   -7.2210 C   0  0  0  0  0  0  0  0  0  0  0  0
   51.1276  -15.4169   -6.5150 C   0  0  0  0  0  0  0  0  0  0  0  0
   50.3787  -16.6642   -9.7449 C   0  0  0  0  0  0  0  0  0  0  0  0
   49.3934  -19.1629  -11.4166 N   0  0  0  0  0  0  0  0  0  0  0  0
   49.4553  -16.6774  -10.9349 C   0  0  0  0  0  0  0  0  0  0  0  0
   52.0026  -17.6135   -7.0805 C   0  0  0  0  0  0  0  0  0  0  0  0
   47.8320  -17.9142   -7.9951 C   0  0  0  0  0  0  0  0  0  0  0  0
   49.7593  -17.8247  -11.9199 C   0  0  0  0  0  0  0  0  0  0  0  0
   52.0439  -15.3341   -5.4620 C   0  0  0  0  0  0  0  0  0  0  0  0
   46.7836  -15.6958   -6.6602 C   0  0  0  0  0  0  0  0  0  0  0  0
   50.0957  -20.1999  -12.1762 C   0  0  0  0  0  0  0  0  0  0  0  0
   47.9478  -19.3872  -11.5059 C   0  0  0  0  0  0  0  0  0  0  0  0
   52.9159  -17.5194   -6.0307 C   0  0  0  0  0  0  0  0  0  0  0  0
   46.5553  -17.9759   -7.4373 C   0  0  0  0  0  0  0  0  0  0  0  0
   46.0312  -16.8674   -6.7723 C   0  0  0  0  0  0  0  0  0  0  0  0
   52.9357  -16.3824   -5.2223 C   0  0  0  0  0  0  0  0  0  0  0  0
   48.3271  -13.3614   -7.2666 H   0  0  0  0  0  0  0  0  0  0  0  0
   50.6178  -13.2065   -6.7338 H   0  0  0  0  0  0  0  0  0  0  0  0
   51.4368  -16.5899   -9.9894 H   0  0  0  0  0  0  0  0  0  0  0  0
   48.4014  -16.6815  -10.6431 H   0  0  0  0  0  0  0  0  0  0  0  0
   49.6090  -15.7305  -11.4688 H   0  0  0  0  0  0  0  0  0  0  0  0
   51.9726  -18.5091   -7.6956 H   0  0  0  0  0  0  0  0  0  0  0  0
   48.2523  -18.7861   -8.4902 H   0  0  0  0  0  0  0  0  0  0  0  0
   49.2542  -17.6257  -12.8744 H   0  0  0  0  0  0  0  0  0  0  0  0
   50.8364  -17.7944  -12.1352 H   0  0  0  0  0  0  0  0  0  0  0  0
   52.0687  -14.4554   -4.8232 H   0  0  0  0  0  0  0  0  0  0  0  0
   46.3687  -14.8436   -6.1287 H   0  0  0  0  0  0  0  0  0  0  0  0
   49.8446  -21.1955  -11.7933 H   0  0  0  0  0  0  0  0  0  0  0  0
   49.8513  -20.1679  -13.2442 H   0  0  0  0  0  0  0  0  0  0  0  0
   51.1803  -20.0898  -12.0658 H   0  0  0  0  0  0  0  0  0  0  0  0
   47.5874  -19.3514  -12.5406 H   0  0  0  0  0  0  0  0  0  0  0  0
   47.6882  -20.3662  -11.0871 H   0  0  0  0  0  0  0  0  0  0  0  0
   47.3879  -18.6479  -10.9262 H   0  0  0  0  0  0  0  0  0  0  0  0
   53.6048  -18.3373   -5.8368 H   0  0  0  0  0  0  0  0  0  0  0  0
   45.9759  -18.8921   -7.5105 H   0  0  0  0  0  0  0  0  0  0  0  0
   45.0392  -16.9183   -6.3313 H   0  0  0  0  0  0  0  0  0  0  0  0
   53.6443  -16.3133   -4.4009 H   0  0  0  0  0  0  0  0  0  0  0  0
  2  1  1  0
  3  1  1  0
  4  6  1  0
  5  7  1  0
  6  2  2  0
  7  3  2  0
  8  1  2  3
  9 13  1  0
 10  8  1  0
 11  3  1  0
 12  2  1  0
 13 10  1  0
 14  7  1  0
 15  6  1  0
 16  9  1  0
 17  9  1  0
 18 11  2  0
 19 12  2  0
 20 19  1  0
 21 18  1  0
  5  4  2  0
 21 14  2  0
 20 15  2  0
  4 22  1  0
  5 23  1  0
  8 24  1  0
 10 25  1  0
 10 26  1  0
 11 27  1  0
 12 28  1  0
 13 29  1  0
 13 30  1  0
 14 31  1  0
 15 32  1  0
 16 33  1  0
 16 34  1  0
 16 35  1  0
 17 36  1  0
 17 37  1  0
 17 38  1  0
 18 39  1  0
 19 40  1  0
 20 41  1  0
 21 42  1  0
M  END
> <Uni-Dock RESULT> 
ENERGY=   -5.558  LOWER_BOUND=    0.057  UPPER_BOUND=    0.057
INTER + INTRA:          -5.558
INTER:                  -5.558
INTRA:                   0.000
UNBOUND:                 0.000

$$$$

     RDKit          3D

 42 44  0  0  0  0  0  0  0  0999 V2000
   49.9718  -18.4945   -7.3157 C   0  0  0  0  0  0  0  0  0  0  0  0
   50.4422  -19.0377   -5.9345 C   0  0  0  0  0  0  0  0  0  0  0  0
   48.7943  -17.4718   -7.2163 C   0  0  0  0  0  0  0  0  0  0  0  0
   48.1293  -20.1967   -5.6594 C   0  0  0  0  0  0  0  0  0  0  0  0
   47.2805  -19.3879   -6.3121 C   0  0  0  0  0  0  0  0  0  0  0  0
   49.5541  -19.7856   -5.1471 C   0  0  0  0  0  0  0  0  0  0  0  0
   47.5628  -17.8895   -6.6879 C   0  0  0  0  0  0  0  0  0  0  0  0
   50.4268  -18.9092   -8.5064 C   0  0  0  0  0  0  0  0  0  0  0  0
   53.5322  -18.4888   -8.9402 N   0  0  0  0  0  0  0  0  0  0  0  0
   51.4762  -19.9575   -8.7688 C   0  0  0  0  0  0  0  0  0  0  0  0
   48.9967  -16.1332   -7.5653 C   0  0  0  0  0  0  0  0  0  0  0  0
   51.6968  -18.6797   -5.4332 C   0  0  0  0  0  0  0  0  0  0  0  0
   52.6418  -19.4384   -9.6353 C   0  0  0  0  0  0  0  0  0  0  0  0
   46.5348  -16.9556   -6.5263 C   0  0  0  0  0  0  0  0  0  0  0  0
   49.9498  -20.1998   -3.8713 C   0  0  0  0  0  0  0  0  0  0  0  0
   54.3128  -17.7205   -9.9128 C   0  0  0  0  0  0  0  0  0  0  0  0
   54.4415  -19.1851   -8.0255 C   0  0  0  0  0  0  0  0  0  0  0  0
   47.9635  -15.2103   -7.4047 C   0  0  0  0  0  0  0  0  0  0  0  0
   52.0857  -19.1007   -4.1618 C   0  0  0  0  0  0  0  0  0  0  0  0
   51.2140  -19.8613   -3.3827 C   0  0  0  0  0  0  0  0  0  0  0  0
   46.7353  -15.6204   -6.8851 C   0  0  0  0  0  0  0  0  0  0  0  0
   47.8213  -21.2255   -5.4889 H   0  0  0  0  0  0  0  0  0  0  0  0
   46.3304  -19.8059   -6.6368 H   0  0  0  0  0  0  0  0  0  0  0  0
   49.9796  -18.4777   -9.4001 H   0  0  0  0  0  0  0  0  0  0  0  0
   51.8474  -20.4138   -7.8469 H   0  0  0  0  0  0  0  0  0  0  0  0
   50.9856  -20.7690   -9.3220 H   0  0  0  0  0  0  0  0  0  0  0  0
   49.9603  -15.8084   -7.9489 H   0  0  0  0  0  0  0  0  0  0  0  0
   52.3647  -18.0641   -6.0308 H   0  0  0  0  0  0  0  0  0  0  0  0
   53.2183  -20.2922  -10.0156 H   0  0  0  0  0  0  0  0  0  0  0  0
   52.2026  -18.9525  -10.5176 H   0  0  0  0  0  0  0  0  0  0  0  0
   45.5740  -17.2610   -6.1207 H   0  0  0  0  0  0  0  0  0  0  0  0
   49.2754  -20.7821   -3.2492 H   0  0  0  0  0  0  0  0  0  0  0  0
   54.9608  -16.9982   -9.4034 H   0  0  0  0  0  0  0  0  0  0  0  0
   54.9388  -18.3637  -10.5420 H   0  0  0  0  0  0  0  0  0  0  0  0
   53.6510  -17.1381  -10.5635 H   0  0  0  0  0  0  0  0  0  0  0  0
   55.1046  -19.8809   -8.5526 H   0  0  0  0  0  0  0  0  0  0  0  0
   55.0638  -18.4628   -7.4849 H   0  0  0  0  0  0  0  0  0  0  0  0
   53.8948  -19.7487   -7.2642 H   0  0  0  0  0  0  0  0  0  0  0  0
   48.1200  -14.1693   -7.6748 H   0  0  0  0  0  0  0  0  0  0  0  0
   53.0628  -18.8243   -3.7751 H   0  0  0  0  0  0  0  0  0  0  0  0
   51.5146  -20.1829   -2.3890 H   0  0  0  0  0  0  0  0  0  0  0  0
   45.9332  -14.8985   -6.7552 H   0  0  0  0  0  0  0  0  0  0  0  0
  2  1  1  0
  3  1  1  0
  4  6  1  0
  5  7  1  0
  6  2  2  0
  7  3  2  0
  8  1  2  3
  9 13  1  0
 10  8  1  0
 11  3  1  0
 12  2  1  0
 13 10  1  0
 14  7  1  0
 15  6  1  0
 16  9  1  0
 17  9  1  0
 18 11  2  0
 19 12  2  0
 20 19  1  0
 21 18  1  0
  5  4  2  0
 21 14  2  0
 20 15  2  0
  4 22  1  0
  5 23  1  0
  8 24  1  0
 10 25  1  0
 10 26  1  0
 11 27  1  0
 12 28  1  0
 13 29  1  0
 13 30  1  0
 14 31  1  0
 15 32  1  0
 16 33  1  0
 16 34  1  0
 16 35  1  0
 17 36  1  0
 17 37  1  0
 17 38  1  0
 18 39  1  0
 19 40  1  0
 20 41  1  0
 21 42  1  0
M  END
> <Uni-Dock RESULT> 
ENERGY=   -4.984  LOWER_BOUND=    2.762  UPPER_BOUND=    5.132
INTER + INTRA:          -4.984
INTER:                  -4.984
INTRA:                   0.000
UNBOUND:                 0.000

$$$$

     RDKit          3D

 42 44  0  0  0  0  0  0  0  0999 V2000
   49.4878  -17.5503   -7.2594 C   0  0  0  0  0  0  0  0  0  0  0  0
   49.3857  -17.1939   -8.7716 C   0  0  0  0  0  0  0  0  0  0  0  0
   48.2038  -18.2368   -6.6916 C   0  0  0  0  0  0  0  0  0  0  0  0
   47.5105  -15.4867   -8.1908 C   0  0  0  0  0  0  0  0  0  0  0  0
   46.8979  -16.0262   -7.1257 C   0  0  0  0  0  0  0  0  0  0  0  0
   48.4220  -16.2690   -9.2002 C   0  0  0  0  0  0  0  0  0  0  0  0
   46.9893  -17.5331   -6.6934 C   0  0  0  0  0  0  0  0  0  0  0  0
   50.5105  -17.2274   -6.4553 C   0  0  0  0  0  0  0  0  0  0  0  0
   53.3023  -18.4211   -7.3440 N   0  0  0  0  0  0  0  0  0  0  0  0
   51.7632  -16.4777   -6.8266 C   0  0  0  0  0  0  0  0  0  0  0  0
   48.2484  -19.5697   -6.2721 C   0  0  0  0  0  0  0  0  0  0  0  0
   50.1663  -17.8807   -9.7057 C   0  0  0  0  0  0  0  0  0  0  0  0
   53.0521  -17.2508   -6.4805 C   0  0  0  0  0  0  0  0  0  0  0  0
   45.8255  -18.1745   -6.2583 C   0  0  0  0  0  0  0  0  0  0  0  0
   48.2752  -16.0143  -10.5674 C   0  0  0  0  0  0  0  0  0  0  0  0
   54.2526  -19.3318   -6.7013 C   0  0  0  0  0  0  0  0  0  0  0  0
   53.8242  -18.0146   -8.6519 C   0  0  0  0  0  0  0  0  0  0  0  0
   47.0830  -20.1992   -5.8355 C   0  0  0  0  0  0  0  0  0  0  0  0
   50.0172  -17.6175  -11.0671 C   0  0  0  0  0  0  0  0  0  0  0  0
   49.0741  -16.6842  -11.4972 C   0  0  0  0  0  0  0  0  0  0  0  0
   45.8737  -19.5034   -5.8297 C   0  0  0  0  0  0  0  0  0  0  0  0
   47.3887  -14.4196   -8.3605 H   0  0  0  0  0  0  0  0  0  0  0  0
   46.3135  -15.3662   -6.4888 H   0  0  0  0  0  0  0  0  0  0  0  0
   50.4358  -17.4983   -5.4037 H   0  0  0  0  0  0  0  0  0  0  0  0
   51.7647  -16.1640   -7.8742 H   0  0  0  0  0  0  0  0  0  0  0  0
   51.7646  -15.5488   -6.2414 H   0  0  0  0  0  0  0  0  0  0  0  0
   49.1857  -20.1193   -6.2976 H   0  0  0  0  0  0  0  0  0  0  0  0
   50.8821  -18.6274   -9.3708 H   0  0  0  0  0  0  0  0  0  0  0  0
   53.9072  -16.5626   -6.5147 H   0  0  0  0  0  0  0  0  0  0  0  0
   52.9674  -17.5767   -5.4345 H   0  0  0  0  0  0  0  0  0  0  0  0
   44.8765  -17.6452   -6.2507 H   0  0  0  0  0  0  0  0  0  0  0  0
   47.5356  -15.2988  -10.9164 H   0  0  0  0  0  0  0  0  0  0  0  0
   54.4264  -20.2136   -7.3282 H   0  0  0  0  0  0  0  0  0  0  0  0
   55.2180  -18.8513   -6.5043 H   0  0  0  0  0  0  0  0  0  0  0  0
   53.8496  -19.7012   -5.7516 H   0  0  0  0  0  0  0  0  0  0  0  0
   54.7868  -17.4964   -8.5695 H   0  0  0  0  0  0  0  0  0  0  0  0
   53.9617  -18.8909   -9.2956 H   0  0  0  0  0  0  0  0  0  0  0  0
   53.1279  -17.3549   -9.1771 H   0  0  0  0  0  0  0  0  0  0  0  0
   47.1163  -21.2355   -5.5099 H   0  0  0  0  0  0  0  0  0  0  0  0
   50.6273  -18.1499  -11.7916 H   0  0  0  0  0  0  0  0  0  0  0  0
   48.9530  -16.4848  -12.5587 H   0  0  0  0  0  0  0  0  0  0  0  0
   44.9653  -19.9974   -5.4946 H   0  0  0  0  0  0  0  0  0  0  0  0
  2  1  1  0
  3  1  1  0
  4  6  1  0
  5  7  1  0
  6  2  2  0
  7  3  2  0
  8  1  2  3
  9 13  1  0
 10  8  1  0
 11  3  1  0
 12  2  1  0
 13 10  1  0
 14  7  1  0
 15  6  1  0
 16  9  1  0
 17  9  1  0
 18 11  2  0
 19 12  2  0
 20 19  1  0
 21 18  1  0
  5  4  2  0
 21 14  2  0
 20 15  2  0
  4 22  1  0
  5 23  1  0
  8 24  1  0
 10 25  1  0
 10 26  1  0
 11 27  1  0
 12 28  1  0
 13 29  1  0
 13 30  1  0
 14 31  1  0
 15 32  1  0
 16 33  1  0
 16 34  1  0
 16 35  1  0
 17 36  1  0
 17 37  1  0
 17 38  1  0
 18 39  1  0
 19 40  1  0
 20 41  1  0
 21 42  1  0
M  END
> <Uni-Dock RESULT> 
ENERGY=   -4.839  LOWER_BOUND=    1.961  UPPER_BOUND=    4.927
INTER + INTRA:          -4.839
INTER:                  -4.839
INTRA:                   0.000
UNBOUND:                 0.000

$$$$

     RDKit          3D

 42 44  0  0  0  0  0  0  0  0999 V2000
   45.8749  -19.1848   -8.9486 C   0  0  0  0  0  0  0  0  0  0  0  0
   46.4759  -17.8190   -8.5042 C   0  0  0  0  0  0  0  0  0  0  0  0
   44.4721  -19.4815   -8.3270 C   0  0  0  0  0  0  0  0  0  0  0  0
   46.6305  -18.7351   -6.0741 C   0  0  0  0  0  0  0  0  0  0  0  0
   45.5959  -19.5845   -5.9804 C   0  0  0  0  0  0  0  0  0  0  0  0
   46.7740  -17.6027   -7.1506 C   0  0  0  0  0  0  0  0  0  0  0  0
   44.3487  -19.6040   -6.9342 C   0  0  0  0  0  0  0  0  0  0  0  0
   46.5025  -20.0980   -9.7029 C   0  0  0  0  0  0  0  0  0  0  0  0
   47.3436  -19.0702  -12.5743 N   0  0  0  0  0  0  0  0  0  0  0  0
   47.8888  -20.0056  -10.2849 C   0  0  0  0  0  0  0  0  0  0  0  0
   43.3393  -19.5326   -9.1448 C   0  0  0  0  0  0  0  0  0  0  0  0
   46.6029  -16.7777   -9.4278 C   0  0  0  0  0  0  0  0  0  0  0  0
   47.9134  -20.2000  -11.8147 C   0  0  0  0  0  0  0  0  0  0  0  0
   43.0818  -19.7914   -6.3728 C   0  0  0  0  0  0  0  0  0  0  0  0
   47.2335  -16.3469   -6.7410 C   0  0  0  0  0  0  0  0  0  0  0  0
   46.9960  -19.4957  -13.9321 C   0  0  0  0  0  0  0  0  0  0  0  0
   48.2828  -17.9468  -12.6403 C   0  0  0  0  0  0  0  0  0  0  0  0
   42.0806  -19.7244   -8.5757 C   0  0  0  0  0  0  0  0  0  0  0  0
   47.0663  -15.5297   -9.0123 C   0  0  0  0  0  0  0  0  0  0  0  0
   47.3830  -15.3153   -7.6709 C   0  0  0  0  0  0  0  0  0  0  0  0
   41.9519  -19.8523   -7.1923 C   0  0  0  0  0  0  0  0  0  0  0  0
   47.4478  -18.8496   -5.3662 H   0  0  0  0  0  0  0  0  0  0  0  0
   45.6317  -20.3429   -5.2016 H   0  0  0  0  0  0  0  0  0  0  0  0
   45.9847  -21.0341   -9.9042 H   0  0  0  0  0  0  0  0  0  0  0  0
   48.3984  -19.0810   -9.9999 H   0  0  0  0  0  0  0  0  0  0  0  0
   48.4779  -20.8164   -9.8366 H   0  0  0  0  0  0  0  0  0  0  0  0
   43.4361  -19.4105  -10.2204 H   0  0  0  0  0  0  0  0  0  0  0  0
   46.3302  -16.9384  -10.4680 H   0  0  0  0  0  0  0  0  0  0  0  0
   48.9445  -20.3949  -12.1384 H   0  0  0  0  0  0  0  0  0  0  0  0
   47.3480  -21.1154  -12.0375 H   0  0  0  0  0  0  0  0  0  0  0  0
   42.9669  -19.8902   -5.2968 H   0  0  0  0  0  0  0  0  0  0  0  0
   47.4717  -16.1631   -5.6968 H   0  0  0  0  0  0  0  0  0  0  0  0
   46.5525  -18.6665  -14.4947 H   0  0  0  0  0  0  0  0  0  0  0  0
   47.8672  -19.8636  -14.4864 H   0  0  0  0  0  0  0  0  0  0  0  0
   46.2420  -20.2904  -13.9052 H   0  0  0  0  0  0  0  0  0  0  0  0
   49.2108  -18.2143  -13.1591 H   0  0  0  0  0  0  0  0  0  0  0  0
   47.8275  -17.1010  -13.1680 H   0  0  0  0  0  0  0  0  0  0  0  0
   48.5451  -17.5808  -11.6437 H   0  0  0  0  0  0  0  0  0  0  0  0
   41.1992  -19.7635   -9.2102 H   0  0  0  0  0  0  0  0  0  0  0  0
   47.1677  -14.7224   -9.7324 H   0  0  0  0  0  0  0  0  0  0  0  0
   47.7370  -14.3404   -7.3462 H   0  0  0  0  0  0  0  0  0  0  0  0
   40.9695  -19.9960   -6.7500 H   0  0  0  0  0  0  0  0  0  0  0  0
  2  1  1  0
  3  1  1  0
  4  6  1  0
  5  7  1  0
  6  2  2  0
  7  3  2  0
  8  1  2  3
  9 13  1  0
 10  8  1  0
 11  3  1  0
 12  2  1  0
 13 10  1  0
 14  7  1  0
 15  6  1  0
 16  9  1  0
 17  9  1  0
 18 11  2  0
 19 12  2  0
 20 19  1  0
 21 18  1  0
  5  4  2  0
 21 14  2  0
 20 15  2  0
  4 22  1  0
  5 23  1  0
  8 24  1  0
 10 25  1  0
 10 26  1  0
 11 27  1  0
 12 28  1  0
 13 29  1  0
 13 30  1  0
 14 31  1  0
 15 32  1  0
 16 33  1  0
 16 34  1  0
 16 35  1  0
 17 36  1  0
 17 37  1  0
 17 38  1  0
 18 39  1  0
 19 40  1  0
 20 41  1  0
 21 42  1  0
M  END
> <Uni-Dock RESULT> 
ENERGY=   -4.797  LOWER_BOUND=    3.179  UPPER_BOUND=    6.060
INTER + INTRA:          -4.797
INTER:                  -4.797
INTRA:                   0.000
UNBOUND:                 0.000

$$$$

     RDKit          3D

 42 44  0  0  0  0  0  0  0  0999 V2000
   50.1430  -17.9856   -8.1745 C   0  0  0  0  0  0  0  0  0  0  0  0
   51.1162  -18.0682   -6.9620 C   0  0  0  0  0  0  0  0  0  0  0  0
   48.7880  -17.2821   -7.8407 C   0  0  0  0  0  0  0  0  0  0  0  0
   49.4279  -19.6557   -5.7796 C   0  0  0  0  0  0  0  0  0  0  0  0
   48.2301  -19.2470   -6.2257 C   0  0  0  0  0  0  0  0  0  0  0  0
   50.7467  -18.8072   -5.8282 C   0  0  0  0  0  0  0  0  0  0  0  0
   47.9344  -17.8520   -6.8832 C   0  0  0  0  0  0  0  0  0  0  0  0
   50.3550  -18.5398   -9.3764 C   0  0  0  0  0  0  0  0  0  0  0  0
   52.9452  -17.4940  -10.8618 N   0  0  0  0  0  0  0  0  0  0  0  0
   51.5559  -19.3355   -9.8166 C   0  0  0  0  0  0  0  0  0  0  0  0
   48.4747  -16.0509   -8.4242 C   0  0  0  0  0  0  0  0  0  0  0  0
   52.2925  -17.3132   -6.9572 C   0  0  0  0  0  0  0  0  0  0  0  0
   52.2257  -18.7635  -11.0827 C   0  0  0  0  0  0  0  0  0  0  0  0
   46.7597  -17.1820   -6.5278 C   0  0  0  0  0  0  0  0  0  0  0  0
   51.5839  -18.8102   -4.7080 C   0  0  0  0  0  0  0  0  0  0  0  0
   53.1594  -16.8040  -12.1360 C   0  0  0  0  0  0  0  0  0  0  0  0
   54.2366  -17.7220  -10.2072 C   0  0  0  0  0  0  0  0  0  0  0  0
   47.2983  -15.3927   -8.0665 C   0  0  0  0  0  0  0  0  0  0  0  0
   53.1243  -17.3253   -5.8380 C   0  0  0  0  0  0  0  0  0  0  0  0
   52.7713  -18.0744   -4.7156 C   0  0  0  0  0  0  0  0  0  0  0  0
   46.4430  -15.9566   -7.1193 C   0  0  0  0  0  0  0  0  0  0  0  0
   49.5026  -20.6611   -5.3724 H   0  0  0  0  0  0  0  0  0  0  0  0
   47.3986  -19.9446   -6.1569 H   0  0  0  0  0  0  0  0  0  0  0  0
   49.5709  -18.4453  -10.1255 H   0  0  0  0  0  0  0  0  0  0  0  0
   52.2859  -19.4653   -9.0127 H   0  0  0  0  0  0  0  0  0  0  0  0
   51.1992  -20.3458  -10.0560 H   0  0  0  0  0  0  0  0  0  0  0  0
   49.1515  -15.6002   -9.1453 H   0  0  0  0  0  0  0  0  0  0  0  0
   52.5529  -16.7086   -7.8225 H   0  0  0  0  0  0  0  0  0  0  0  0
   52.9038  -19.5168  -11.5053 H   0  0  0  0  0  0  0  0  0  0  0  0
   51.4357  -18.6132  -11.8314 H   0  0  0  0  0  0  0  0  0  0  0  0
   46.0857  -17.6086   -5.7898 H   0  0  0  0  0  0  0  0  0  0  0  0
   51.3143  -19.3795   -3.8225 H   0  0  0  0  0  0  0  0  0  0  0  0
   53.6745  -15.8500  -11.9765 H   0  0  0  0  0  0  0  0  0  0  0  0
   53.7508  -17.4039  -12.8373 H   0  0  0  0  0  0  0  0  0  0  0  0
   52.2008  -16.5633  -12.6093 H   0  0  0  0  0  0  0  0  0  0  0  0
   54.9059  -18.3392  -10.8179 H   0  0  0  0  0  0  0  0  0  0  0  0
   54.7369  -16.7670  -10.0101 H   0  0  0  0  0  0  0  0  0  0  0  0
   54.1164  -18.2109   -9.2364 H   0  0  0  0  0  0  0  0  0  0  0  0
   47.0541  -14.4351   -8.5188 H   0  0  0  0  0  0  0  0  0  0  0  0
   54.0401  -16.7405   -5.8375 H   0  0  0  0  0  0  0  0  0  0  0  0
   53.4161  -18.0776   -3.8407 H   0  0  0  0  0  0  0  0  0  0  0  0
   45.5294  -15.4394   -6.8375 H   0  0  0  0  0  0  0  0  0  0  0  0
  2  1  1  0
  3  1  1  0
  4  6  1  0
  5  7  1  0
  6  2  2  0
  7  3  2  0
  8  1  2  3
  9 13  1  0
 10  8  1  0
 11  3  1  0
 12  2  1  0
 13 10  1  0
 14  7  1  0
 15  6  1  0
 16  9  1  0
 17  9  1  0
 18 11  2  0
 19 12  2  0
 20 19  1  0
 21 18  1  0
  5  4  2  0
 21 14  2  0
 20 15  2  0
  4 22  1  0
  5 23  1  0
  8 24  1  0
 10 25  1  0
 10 26  1  0
 11 27  1  0
 12 28  1  0
 13 29  1  0
 13 30  1  0
 14 31  1  0
 15 32  1  0
 16 33  1  0
 16 34  1  0
 16 35  1  0
 17 36  1  0
 17 37  1  0
 17 38  1  0
 18 39  1  0
 19 40  1  0
 20 41  1  0
 21 42  1  0
M  END
> <Uni-Dock RESULT> 
ENERGY=   -4.725  LOWER_BOUND=    2.157  UPPER_BOUND=    4.910
INTER + INTRA:          -4.725
INTER:                  -4.725
INTRA:                   0.000
UNBOUND:                 0.000

$$$$

     RDKit          3D

 42 44  0  0  0  0  0  0  0  0999 V2000
   47.8523  -17.9699   -8.1168 C   0  0  0  0  0  0  0  0  0  0  0  0
   48.7257  -16.7381   -7.7375 C   0  0  0  0  0  0  0  0  0  0  0  0
   47.3992  -18.8174   -6.8844 C   0  0  0  0  0  0  0  0  0  0  0  0
   50.5756  -18.3688   -6.9085 C   0  0  0  0  0  0  0  0  0  0  0  0
   49.8935  -19.4351   -6.4631 C   0  0  0  0  0  0  0  0  0  0  0  0
   49.9719  -16.9369   -7.1247 C   0  0  0  0  0  0  0  0  0  0  0  0
   48.3690  -19.4443   -6.0865 C   0  0  0  0  0  0  0  0  0  0  0  0
   47.5758  -18.3674   -9.3667 C   0  0  0  0  0  0  0  0  0  0  0  0
   46.0364  -16.2242  -11.1120 N   0  0  0  0  0  0  0  0  0  0  0  0
   48.0258  -17.7221  -10.6513 C   0  0  0  0  0  0  0  0  0  0  0  0
   46.0480  -18.8727   -6.5299 C   0  0  0  0  0  0  0  0  0  0  0  0
   48.2179  -15.4457   -7.8965 C   0  0  0  0  0  0  0  0  0  0  0  0
   46.8533  -17.3585  -11.5851 C   0  0  0  0  0  0  0  0  0  0  0  0
   47.9688  -20.1370   -4.9397 C   0  0  0  0  0  0  0  0  0  0  0  0
   50.7164  -15.8288   -6.7079 C   0  0  0  0  0  0  0  0  0  0  0  0
   44.7323  -16.2254  -11.7789 C   0  0  0  0  0  0  0  0  0  0  0  0
   46.7093  -14.9456  -11.3581 C   0  0  0  0  0  0  0  0  0  0  0  0
   45.6584  -19.5700   -5.3867 C   0  0  0  0  0  0  0  0  0  0  0  0
   48.9686  -14.3457   -7.4826 C   0  0  0  0  0  0  0  0  0  0  0  0
   50.2171  -14.5371   -6.8907 C   0  0  0  0  0  0  0  0  0  0  0  0
   46.6171  -20.1999   -4.5924 C   0  0  0  0  0  0  0  0  0  0  0  0
   51.6237  -18.5063   -7.1635 H   0  0  0  0  0  0  0  0  0  0  0  0
   50.4259  -20.3800   -6.3825 H   0  0  0  0  0  0  0  0  0  0  0  0
   46.9884  -19.2750   -9.4936 H   0  0  0  0  0  0  0  0  0  0  0  0
   48.6705  -16.8560  -10.4777 H   0  0  0  0  0  0  0  0  0  0  0  0
   48.6532  -18.4556  -11.1744 H   0  0  0  0  0  0  0  0  0  0  0  0
   45.3031  -18.3633   -7.1356 H   0  0  0  0  0  0  0  0  0  0  0  0
   47.2331  -15.2993   -8.3335 H   0  0  0  0  0  0  0  0  0  0  0  0
   47.2421  -17.1541  -12.5916 H   0  0  0  0  0  0  0  0  0  0  0  0
   46.2215  -18.2525  -11.6804 H   0  0  0  0  0  0  0  0  0  0  0  0
   48.7051  -20.6302   -4.3108 H   0  0  0  0  0  0  0  0  0  0  0  0
   51.6849  -15.9647   -6.2341 H   0  0  0  0  0  0  0  0  0  0  0  0
   44.1126  -15.3975  -11.4161 H   0  0  0  0  0  0  0  0  0  0  0  0
   44.8240  -16.1379  -12.8677 H   0  0  0  0  0  0  0  0  0  0  0  0
   44.1840  -17.1462  -11.5505 H   0  0  0  0  0  0  0  0  0  0  0  0
   46.8755  -14.7653  -12.4267 H   0  0  0  0  0  0  0  0  0  0  0  0
   46.1106  -14.1180  -10.9608 H   0  0  0  0  0  0  0  0  0  0  0  0
   47.6770  -14.8945  -10.8513 H   0  0  0  0  0  0  0  0  0  0  0  0
   44.6084  -19.6130   -5.1096 H   0  0  0  0  0  0  0  0  0  0  0  0
   48.5737  -13.3415   -7.6102 H   0  0  0  0  0  0  0  0  0  0  0  0
   50.7986  -13.6799   -6.5614 H   0  0  0  0  0  0  0  0  0  0  0  0
   46.3122  -20.7380   -3.6985 H   0  0  0  0  0  0  0  0  0  0  0  0
  2  1  1  0
  3  1  1  0
  4  6  1  0
  5  7  1  0
  6  2  2  0
  7  3  2  0
  8  1  2  3
  9 13  1  0
 10  8  1  0
 11  3  1  0
 12  2  1  0
 13 10  1  0
 14  7  1  0
 15  6  1  0
 16  9  1  0
 17  9  1  0
 18 11  2  0
 19 12  2  0
 20 19  1  0
 21 18  1  0
  5  4  2  0
 21 14  2  0
 20 15  2  0
  4 22  1  0
  5 23  1  0
  8 24  1  0
 10 25  1  0
 10 26  1  0
 11 27  1  0
 12 28  1  0
 13 29  1  0
 13 30  1  0
 14 31  1  0
 15 32  1  0
 16 33  1  0
 16 34  1  0
 16 35  1  0
 17 36  1  0
 17 37  1  0
 17 38  1  0
 18 39  1  0
 19 40  1  0
 20 41  1  0
 21 42  1  0
M  END
> <Uni-Dock RESULT> 
ENERGY=   -4.306  LOWER_BOUND=    2.371  UPPER_BOUND=    4.721
INTER + INTRA:          -4.306
INTER:                  -4.306
INTRA:                   0.000
UNBOUND:                 0.000

$$$$

     RDKit          3D

 42 44  0  0  0  0  0  0  0  0999 V2000
   47.1836  -16.4317   -9.8558 C   0  0  0  0  0  0  0  0  0  0  0  0
   46.0845  -17.3755   -9.2854 C   0  0  0  0  0  0  0  0  0  0  0  0
   48.5827  -16.6272   -9.1875 C   0  0  0  0  0  0  0  0  0  0  0  0
   46.2845  -16.1452   -7.0018 C   0  0  0  0  0  0  0  0  0  0  0  0
   47.5707  -15.7667   -6.9479 C   0  0  0  0  0  0  0  0  0  0  0  0
   45.7123  -17.2674   -7.9372 C   0  0  0  0  0  0  0  0  0  0  0  0
   48.7316  -16.3713   -7.8155 C   0  0  0  0  0  0  0  0  0  0  0  0
   46.9784  -15.4595  -10.7555 C   0  0  0  0  0  0  0  0  0  0  0  0
   45.8247  -16.4612  -13.5258 N   0  0  0  0  0  0  0  0  0  0  0  0
   45.6754  -15.0793  -11.4087 C   0  0  0  0  0  0  0  0  0  0  0  0
   49.6498  -17.1392   -9.9315 C   0  0  0  0  0  0  0  0  0  0  0  0
   45.5622  -18.4002  -10.0797 C   0  0  0  0  0  0  0  0  0  0  0  0
   45.7446  -15.1050  -12.9493 C   0  0  0  0  0  0  0  0  0  0  0  0
   49.9630  -16.6211   -7.2020 C   0  0  0  0  0  0  0  0  0  0  0  0
   44.7870  -18.1716   -7.4059 C   0  0  0  0  0  0  0  0  0  0  0  0
   46.3257  -16.3991  -14.9008 C   0  0  0  0  0  0  0  0  0  0  0  0
   44.5167  -17.1224  -13.5123 C   0  0  0  0  0  0  0  0  0  0  0  0
   50.8755  -17.3807   -9.3114 C   0  0  0  0  0  0  0  0  0  0  0  0
   44.6365  -19.2950   -9.5437 C   0  0  0  0  0  0  0  0  0  0  0  0
   44.2481  -19.1795   -8.2090 C   0  0  0  0  0  0  0  0  0  0  0  0
   51.0315  -17.1233   -7.9490 C   0  0  0  0  0  0  0  0  0  0  0  0
   45.5736  -15.6219   -6.3669 H   0  0  0  0  0  0  0  0  0  0  0  0
   47.8324  -14.9553   -6.2726 H   0  0  0  0  0  0  0  0  0  0  0  0
   47.8279  -14.8399  -11.0374 H   0  0  0  0  0  0  0  0  0  0  0  0
   44.8373  -15.6801  -11.0449 H   0  0  0  0  0  0  0  0  0  0  0  0
   45.4535  -14.0487  -11.1024 H   0  0  0  0  0  0  0  0  0  0  0  0
   49.5225  -17.3613  -10.9878 H   0  0  0  0  0  0  0  0  0  0  0  0
   45.8861  -18.5054  -11.1122 H   0  0  0  0  0  0  0  0  0  0  0  0
   44.8793  -14.5674  -13.3595 H   0  0  0  0  0  0  0  0  0  0  0  0
   46.6297  -14.5259  -13.2469 H   0  0  0  0  0  0  0  0  0  0  0  0
   50.0977  -16.4273   -6.1412 H   0  0  0  0  0  0  0  0  0  0  0  0
   44.4856  -18.1004   -6.3643 H   0  0  0  0  0  0  0  0  0  0  0  0
   46.4078  -17.4052  -15.3274 H   0  0  0  0  0  0  0  0  0  0  0  0
   45.6782  -15.7992  -15.5507 H   0  0  0  0  0  0  0  0  0  0  0  0
   47.3334  -15.9693  -14.9242 H   0  0  0  0  0  0  0  0  0  0  0  0
   43.7768  -16.5865  -14.1182 H   0  0  0  0  0  0  0  0  0  0  0  0
   44.6026  -18.1433  -13.9015 H   0  0  0  0  0  0  0  0  0  0  0  0
   44.1211  -17.2140  -12.4969 H   0  0  0  0  0  0  0  0  0  0  0  0
   51.7056  -17.7795   -9.8885 H   0  0  0  0  0  0  0  0  0  0  0  0
   44.2289  -20.0888  -10.1636 H   0  0  0  0  0  0  0  0  0  0  0  0
   43.5322  -19.8816   -7.7896 H   0  0  0  0  0  0  0  0  0  0  0  0
   51.9857  -17.3175   -7.4662 H   0  0  0  0  0  0  0  0  0  0  0  0
  2  1  1  0
  3  1  1  0
  4  6  1  0
  5  7  1  0
  6  2  2  0
  7  3  2  0
  8  1  2  3
  9 13  1  0
 10  8  1  0
 11  3  1  0
 12  2  1  0
 13 10  1  0
 14  7  1  0
 15  6  1  0
 16  9  1  0
 17  9  1  0
 18 11  2  0
 19 12  2  0
 20 19  1  0
 21 18  1  0
  5  4  2  0
 21 14  2  0
 20 15  2  0
  4 22  1  0
  5 23  1  0
  8 24  1  0
 10 25  1  0
 10 26  1  0
 11 27  1  0
 12 28  1  0
 13 29  1  0
 13 30  1  0
 14 31  1  0
 15 32  1  0
 16 33  1  0
 16 34  1  0
 16 35  1  0
 17 36  1  0
 17 37  1  0
 17 38  1  0
 18 39  1  0
 19 40  1  0
 20 41  1  0
 21 42  1  0
M  END
> <Uni-Dock RESULT> 
ENERGY=   -4.020  LOWER_BOUND=    2.768  UPPER_BOUND=    3.733
INTER + INTRA:          -4.020
INTER:                  -4.020
INTRA:                   0.000
UNBOUND:                 0.000

$$$$

     RDKit          3D

 42 44  0  0  0  0  0  0  0  0999 V2000
   47.1889  -18.2951   -7.4918 C   0  0  0  0  0  0  0  0  0  0  0  0
   47.4621  -19.0117   -8.8467 C   0  0  0  0  0  0  0  0  0  0  0  0
   48.0182  -16.9844   -7.3004 C   0  0  0  0  0  0  0  0  0  0  0  0
   49.8965  -19.4734   -8.0538 C   0  0  0  0  0  0  0  0  0  0  0  0
   50.1854  -18.4274   -7.2645 C   0  0  0  0  0  0  0  0  0  0  0  0
   48.7450  -19.5097   -9.1188 C   0  0  0  0  0  0  0  0  0  0  0  0
   49.4193  -17.0567   -7.2582 C   0  0  0  0  0  0  0  0  0  0  0  0
   46.4097  -18.7682   -6.5091 C   0  0  0  0  0  0  0  0  0  0  0  0
   43.3924  -19.2325   -7.3392 N   0  0  0  0  0  0  0  0  0  0  0  0
   45.6340  -20.0594   -6.4996 C   0  0  0  0  0  0  0  0  0  0  0  0
   47.3724  -15.7449   -7.2640 C   0  0  0  0  0  0  0  0  0  0  0  0
   46.4693  -19.0497   -9.8299 C   0  0  0  0  0  0  0  0  0  0  0  0
   44.1303  -19.8561   -6.2236 C   0  0  0  0  0  0  0  0  0  0  0  0
   50.1635  -15.8764   -7.1658 C   0  0  0  0  0  0  0  0  0  0  0  0
   49.0102  -20.0768  -10.3694 C   0  0  0  0  0  0  0  0  0  0  0  0
   42.1248  -18.6760   -6.8607 C   0  0  0  0  0  0  0  0  0  0  0  0
   43.1281  -20.2000   -8.4081 C   0  0  0  0  0  0  0  0  0  0  0  0
   48.1234  -14.5737   -7.1671 C   0  0  0  0  0  0  0  0  0  0  0  0
   46.7404  -19.6212  -11.0728 C   0  0  0  0  0  0  0  0  0  0  0  0
   48.0087  -20.1357  -11.3414 C   0  0  0  0  0  0  0  0  0  0  0  0
   49.5162  -14.6392   -7.1193 C   0  0  0  0  0  0  0  0  0  0  0  0
   50.4880  -20.3781   -7.9354 H   0  0  0  0  0  0  0  0  0  0  0  0
   50.9952  -18.5418   -6.5475 H   0  0  0  0  0  0  0  0  0  0  0  0
   46.3394  -18.1871   -5.5913 H   0  0  0  0  0  0  0  0  0  0  0  0
   45.7888  -20.6439   -7.4109 H   0  0  0  0  0  0  0  0  0  0  0  0
   46.0425  -20.6713   -5.6847 H   0  0  0  0  0  0  0  0  0  0  0  0
   46.2886  -15.6918   -7.3240 H   0  0  0  0  0  0  0  0  0  0  0  0
   45.4893  -18.6241   -9.6284 H   0  0  0  0  0  0  0  0  0  0  0  0
   43.6770  -20.8209   -5.9595 H   0  0  0  0  0  0  0  0  0  0  0  0
   44.0442  -19.2258   -5.3277 H   0  0  0  0  0  0  0  0  0  0  0  0
   51.2490  -15.9128   -7.1300 H   0  0  0  0  0  0  0  0  0  0  0  0
   49.9977  -20.4699  -10.5958 H   0  0  0  0  0  0  0  0  0  0  0  0
   41.5817  -18.1925   -7.6806 H   0  0  0  0  0  0  0  0  0  0  0  0
   41.4764  -19.4420   -6.4201 H   0  0  0  0  0  0  0  0  0  0  0  0
   42.3048  -17.9001   -6.1082 H   0  0  0  0  0  0  0  0  0  0  0  0
   42.5007  -21.0316   -8.0665 H   0  0  0  0  0  0  0  0  0  0  0  0
   42.6201  -19.7106   -9.2469 H   0  0  0  0  0  0  0  0  0  0  0  0
   44.0542  -20.6179   -8.8125 H   0  0  0  0  0  0  0  0  0  0  0  0
   47.6225  -13.6096   -7.1396 H   0  0  0  0  0  0  0  0  0  0  0  0
   45.9663  -19.6529  -11.8346 H   0  0  0  0  0  0  0  0  0  0  0  0
   48.2217  -20.5742  -12.3128 H   0  0  0  0  0  0  0  0  0  0  0  0
   50.1001  -13.7250   -7.0496 H   0  0  0  0  0  0  0  0  0  0  0  0
  2  1  1  0
  3  1  1  0
  4  6  1  0
  5  7  1  0
  6  2  2  0
  7  3  2  0
  8  1  2  3
  9 13  1  0
 10  8  1  0
 11  3  1  0
 12  2  1  0
 13 10  1  0
 14  7  1  0
 15  6  1  0
 16  9  1  0
 17  9  1  0
 18 11  2  0
 19 12  2  0
 20 19  1  0
 21 18  1  0
  5  4  2  0
 21 14  2  0
 20 15  2  0
  4 22  1  0
  5 23  1  0
  8 24  1  0
 10 25  1  0
 10 26  1  0
 11 27  1  0
 12 28  1  0
 13 29  1  0
 13 30  1  0
 14 31  1  0
 15 32  1  0
 16 33  1  0
 16 34  1  0
 16 35  1  0
 17 36  1  0
 17 37  1  0
 17 38  1  0
 18 39  1  0
 19 40  1  0
 20 41  1  0
 21 42  1  0
M  END
> <Uni-Dock RESULT> 
ENERGY=   -3.928  LOWER_BOUND=    2.572  UPPER_BOUND=    5.359
INTER + INTRA:          -3.928
INTER:                  -3.928
INTRA:                   0.000
UNBOUND:                 0.000

$$$$
