
     RDKit          3D

 42 44  0  0  0  0  0  0  0  0999 V2000
   50.1719  -16.7970   -8.1993 C   0  0  0  0  0  0  0  0  0  0  0  0
   51.2114  -16.5259   -7.0637 C   0  0  0  0  0  0  0  0  0  0  0  0
   48.6917  -16.7994   -7.7104 C   0  0  0  0  0  0  0  0  0  0  0  0
   50.2229  -14.1328   -6.7989 C   0  0  0  0  0  0  0  0  0  0  0  0
   48.9311  -14.2731   -7.1317 C   0  0  0  0  0  0  0  0  0  0  0  0
   51.1822  -15.3012   -6.3793 C   0  0  0  0  0  0  0  0  0  0  0  0
   48.1454  -15.6307   -7.1586 C   0  0  0  0  0  0  0  0  0  0  0  0
   50.5589  -16.9244   -9.4767 C   0  0  0  0  0  0  0  0  0  0  0  0
   48.9466  -18.7857  -12.4225 N   0  0  0  0  0  0  0  0  0  0  0  0
   49.6664  -17.1114  -10.6756 C   0  0  0  0  0  0  0  0  0  0  0  0
   47.9481  -17.9839   -7.7268 C   0  0  0  0  0  0  0  0  0  0  0  0
   52.1013  -17.5315   -6.6729 C   0  0  0  0  0  0  0  0  0  0  0  0
   49.8698  -18.4998  -11.3074 C   0  0  0  0  0  0  0  0  0  0  0  0
   46.8448  -15.6562   -6.6446 C   0  0  0  0  0  0  0  0  0  0  0  0
   52.0610  -15.0906   -5.3120 C   0  0  0  0  0  0  0  0  0  0  0  0
   49.0567  -20.1934  -12.8138 C   0  0  0  0  0  0  0  0  0  0  0  0
   49.2019  -17.9292  -13.5820 C   0  0  0  0  0  0  0  0  0  0  0  0
   46.6496  -17.9984   -7.2177 C   0  0  0  0  0  0  0  0  0  0  0  0
   52.9772  -17.3102   -5.6102 C   0  0  0  0  0  0  0  0  0  0  0  0
   52.9564  -16.0924   -4.9303 C   0  0  0  0  0  0  0  0  0  0  0  0
   46.0991  -16.8367   -6.6766 C   0  0  0  0  0  0  0  0  0  0  0  0
   50.6535  -13.1353   -6.8491 H   0  0  0  0  0  0  0  0  0  0  0  0
   48.3852  -13.3820   -7.4336 H   0  0  0  0  0  0  0  0  0  0  0  0
   51.6227  -16.8640   -9.7007 H   0  0  0  0  0  0  0  0  0  0  0  0
   49.9173  -16.3227  -11.3941 H   0  0  0  0  0  0  0  0  0  0  0  0
   48.6106  -16.9727  -10.4194 H   0  0  0  0  0  0  0  0  0  0  0  0
   48.3785  -18.8959   -8.1310 H   0  0  0  0  0  0  0  0  0  0  0  0
   52.1048  -18.4896   -7.1850 H   0  0  0  0  0  0  0  0  0  0  0  0
   50.9129  -18.6125  -11.6337 H   0  0  0  0  0  0  0  0  0  0  0  0
   49.7055  -19.2473  -10.5193 H   0  0  0  0  0  0  0  0  0  0  0  0
   46.4052  -14.7591   -6.2170 H   0  0  0  0  0  0  0  0  0  0  0  0
   52.0532  -14.1475   -4.7720 H   0  0  0  0  0  0  0  0  0  0  0  0
   48.8101  -20.8489  -11.9712 H   0  0  0  0  0  0  0  0  0  0  0  0
   48.3418  -20.4296  -13.6100 H   0  0  0  0  0  0  0  0  0  0  0  0
   50.0632  -20.4469  -13.1666 H   0  0  0  0  0  0  0  0  0  0  0  0
   49.0031  -16.8783  -13.3506 H   0  0  0  0  0  0  0  0  0  0  0  0
   50.2328  -18.0188  -13.9432 H   0  0  0  0  0  0  0  0  0  0  0  0
   48.5274  -18.1874  -14.4066 H   0  0  0  0  0  0  0  0  0  0  0  0
   46.0701  -18.9176   -7.2366 H   0  0  0  0  0  0  0  0  0  0  0  0
   53.6687  -18.0913   -5.3051 H   0  0  0  0  0  0  0  0  0  0  0  0
   53.6353  -15.9234   -4.0985 H   0  0  0  0  0  0  0  0  0  0  0  0
   45.0888  -16.8506   -6.2763 H   0  0  0  0  0  0  0  0  0  0  0  0
  2  1  1  0
  3  1  1  0
  4  6  1  0
  5  7  1  0
  6  2  2  0
  7  3  2  0
  8  1  2  3
  9 13  1  0
 10  8  1  0
 11  3  1  0
 12  2  1  0
 13 10  1  0
 14  7  1  0
 15  6  1  0
 16  9  1  0
 17  9  1  0
 18 11  2  0
 19 12  2  0
 20 19  1  0
 21 18  1  0
  5  4  2  0
 21 14  2  0
 20 15  2  0
  4 22  1  0
  5 23  1  0
  8 24  1  0
 10 25  1  0
 10 26  1  0
 11 27  1  0
 12 28  1  0
 13 29  1  0
 13 30  1  0
 14 31  1  0
 15 32  1  0
 16 33  1  0
 16 34  1  0
 16 35  1  0
 17 36  1  0
 17 37  1  0
 17 38  1  0
 18 39  1  0
 19 40  1  0
 20 41  1  0
 21 42  1  0
M  END
> <Uni-Dock RESULT> 
ENERGY=   -5.805  LOWER_BOUND=    0.000  UPPER_BOUND=    0.000
INTER + INTRA:          -5.805
INTER:                  -5.805
INTRA:                   0.000
UNBOUND:                 0.000

$$$$

     RDKit          3D

 42 44  0  0  0  0  0  0  0  0999 V2000
   50.1735  -16.7996   -8.1959 C   0  0  0  0  0  0  0  0  0  0  0  0
   51.2128  -16.5296   -7.0599 C   0  0  0  0  0  0  0  0  0  0  0  0
   48.6929  -16.7979   -7.7081 C   0  0  0  0  0  0  0  0  0  0  0  0
   50.2298  -14.1339   -6.7986 C   0  0  0  0  0  0  0  0  0  0  0  0
   48.9378  -14.2715   -7.1322 C   0  0  0  0  0  0  0  0  0  0  0  0
   51.1860  -15.3041   -6.3769 C   0  0  0  0  0  0  0  0  0  0  0  0
   48.1489  -15.6273   -7.1580 C   0  0  0  0  0  0  0  0  0  0  0  0
   50.5610  -16.9295   -9.4729 C   0  0  0  0  0  0  0  0  0  0  0  0
   48.9464  -18.7904  -12.4176 N   0  0  0  0  0  0  0  0  0  0  0  0
   49.6689  -17.1157  -10.6722 C   0  0  0  0  0  0  0  0  0  0  0  0
   47.9465  -17.9807   -7.7236 C   0  0  0  0  0  0  0  0  0  0  0  0
   52.1000  -17.5368   -6.6673 C   0  0  0  0  0  0  0  0  0  0  0  0
   49.8695  -18.5054  -11.3022 C   0  0  0  0  0  0  0  0  0  0  0  0
   46.8479  -15.6491   -6.6449 C   0  0  0  0  0  0  0  0  0  0  0  0
   52.0645  -15.0942   -5.3094 C   0  0  0  0  0  0  0  0  0  0  0  0
   49.0534  -20.1988  -12.8072 C   0  0  0  0  0  0  0  0  0  0  0  0
   49.2045  -17.9359  -13.5779 C   0  0  0  0  0  0  0  0  0  0  0  0
   46.6476  -17.9915   -7.2153 C   0  0  0  0  0  0  0  0  0  0  0  0
   52.9757  -17.3164   -5.6042 C   0  0  0  0  0  0  0  0  0  0  0  0
   52.9573  -16.0977   -4.9258 C   0  0  0  0  0  0  0  0  0  0  0  0
   46.0995  -16.8279   -6.6760 C   0  0  0  0  0  0  0  0  0  0  0  0
   50.6628  -13.1375   -6.8498 H   0  0  0  0  0  0  0  0  0  0  0  0
   48.3943  -13.3795   -7.4356 H   0  0  0  0  0  0  0  0  0  0  0  0
   51.6251  -16.8718   -9.6962 H   0  0  0  0  0  0  0  0  0  0  0  0
   49.9222  -16.3285  -11.3914 H   0  0  0  0  0  0  0  0  0  0  0  0
   48.6132  -16.9743  -10.4169 H   0  0  0  0  0  0  0  0  0  0  0  0
   48.3750  -18.8942   -8.1264 H   0  0  0  0  0  0  0  0  0  0  0  0
   52.1016  -18.4956   -7.1783 H   0  0  0  0  0  0  0  0  0  0  0  0
   50.9125  -18.6209  -11.6277 H   0  0  0  0  0  0  0  0  0  0  0  0
   49.7028  -19.2516  -10.5133 H   0  0  0  0  0  0  0  0  0  0  0  0
   46.4102  -14.7504   -6.2187 H   0  0  0  0  0  0  0  0  0  0  0  0
   52.0586  -14.1505   -4.7704 H   0  0  0  0  0  0  0  0  0  0  0  0
   48.8047  -20.8528  -11.9639 H   0  0  0  0  0  0  0  0  0  0  0  0
   48.3385  -20.4343  -13.6036 H   0  0  0  0  0  0  0  0  0  0  0  0
   50.0595  -20.4551  -13.1589 H   0  0  0  0  0  0  0  0  0  0  0  0
   49.0080  -16.8843  -13.3480 H   0  0  0  0  0  0  0  0  0  0  0  0
   50.2355  -18.0284  -13.9383 H   0  0  0  0  0  0  0  0  0  0  0  0
   48.5299  -18.1935  -14.4027 H   0  0  0  0  0  0  0  0  0  0  0  0
   46.0660  -18.9094   -7.2336 H   0  0  0  0  0  0  0  0  0  0  0  0
   53.6651  -18.0987   -5.2978 H   0  0  0  0  0  0  0  0  0  0  0  0
   53.6361  -15.9294   -4.0937 H   0  0  0  0  0  0  0  0  0  0  0  0
   45.0889  -16.8389   -6.2764 H   0  0  0  0  0  0  0  0  0  0  0  0
  2  1  1  0
  3  1  1  0
  4  6  1  0
  5  7  1  0
  6  2  2  0
  7  3  2  0
  8  1  2  3
  9 13  1  0
 10  8  1  0
 11  3  1  0
 12  2  1  0
 13 10  1  0
 14  7  1  0
 15  6  1  0
 16  9  1  0
 17  9  1  0
 18 11  2  0
 19 12  2  0
 20 19  1  0
 21 18  1  0
  5  4  2  0
 21 14  2  0
 20 15  2  0
  4 22  1  0
  5 23  1  0
  8 24  1  0
 10 25  1  0
 10 26  1  0
 11 27  1  0
 12 28  1  0
 13 29  1  0
 13 30  1  0
 14 31  1  0
 15 32  1  0
 16 33  1  0
 16 34  1  0
 16 35  1  0
 17 36  1  0
 17 37  1  0
 17 38  1  0
 18 39  1  0
 19 40  1  0
 20 41  1  0
 21 42  1  0
M  END
> <Uni-Dock RESULT> 
ENERGY=   -5.803  LOWER_BOUND=    0.007  UPPER_BOUND=    0.007
INTER + INTRA:          -5.803
INTER:                  -5.803
INTRA:                   0.000
UNBOUND:                 0.000

$$$$

     RDKit          3D

 42 44  0  0  0  0  0  0  0  0999 V2000
   47.8529  -17.3378   -8.1134 C   0  0  0  0  0  0  0  0  0  0  0  0
   47.4134  -18.3886   -7.0428 C   0  0  0  0  0  0  0  0  0  0  0  0
   48.8919  -16.3009   -7.5885 C   0  0  0  0  0  0  0  0  0  0  0  0
   49.8478  -19.3091   -7.0197 C   0  0  0  0  0  0  0  0  0  0  0  0
   50.6057  -18.2385   -7.3007 C   0  0  0  0  0  0  0  0  0  0  0  0
   48.3689  -19.2602   -6.4982 C   0  0  0  0  0  0  0  0  0  0  0  0
   50.1509  -16.7441   -7.1557 C   0  0  0  0  0  0  0  0  0  0  0  0
   47.4151  -17.4131   -9.3785 C   0  0  0  0  0  0  0  0  0  0  0  0
   46.9721  -14.6967  -12.0555 N   0  0  0  0  0  0  0  0  0  0  0  0
   47.8117  -16.5206  -10.5252 C   0  0  0  0  0  0  0  0  0  0  0  0
   48.5351  -14.9553   -7.4535 C   0  0  0  0  0  0  0  0  0  0  0  0
   46.0986  -18.3964   -6.5662 C   0  0  0  0  0  0  0  0  0  0  0  0
   46.6214  -15.6706  -11.0039 C   0  0  0  0  0  0  0  0  0  0  0  0
   51.0520  -15.8252   -6.6080 C   0  0  0  0  0  0  0  0  0  0  0  0
   47.9906  -20.1462   -5.4845 C   0  0  0  0  0  0  0  0  0  0  0  0
   45.8467  -13.7885  -12.2908 C   0  0  0  0  0  0  0  0  0  0  0  0
   47.3484  -15.3521  -13.3094 C   0  0  0  0  0  0  0  0  0  0  0  0
   49.4426  -14.0450   -6.9118 C   0  0  0  0  0  0  0  0  0  0  0  0
   45.7297  -19.2870   -5.5581 C   0  0  0  0  0  0  0  0  0  0  0  0
   46.6743  -20.1596   -5.0175 C   0  0  0  0  0  0  0  0  0  0  0  0
   50.6986  -14.4794   -6.4889 C   0  0  0  0  0  0  0  0  0  0  0  0
   50.2776  -20.2933   -7.1919 H   0  0  0  0  0  0  0  0  0  0  0  0
   51.6080  -18.4133   -7.6853 H   0  0  0  0  0  0  0  0  0  0  0  0
   46.7193  -18.2100   -9.6357 H   0  0  0  0  0  0  0  0  0  0  0  0
   48.1695  -17.1688  -11.3333 H   0  0  0  0  0  0  0  0  0  0  0  0
   48.6491  -15.8670  -10.2583 H   0  0  0  0  0  0  0  0  0  0  0  0
   47.5515  -14.6149   -7.7649 H   0  0  0  0  0  0  0  0  0  0  0  0
   45.3658  -17.7026   -6.9685 H   0  0  0  0  0  0  0  0  0  0  0  0
   45.8071  -16.3257  -11.3431 H   0  0  0  0  0  0  0  0  0  0  0  0
   46.2389  -15.1201  -10.1335 H   0  0  0  0  0  0  0  0  0  0  0  0
   52.0325  -16.1511   -6.2714 H   0  0  0  0  0  0  0  0  0  0  0  0
   48.7172  -20.8293   -5.0527 H   0  0  0  0  0  0  0  0  0  0  0  0
   45.5908  -13.2452  -11.3742 H   0  0  0  0  0  0  0  0  0  0  0  0
   46.1117  -13.0307  -13.0366 H   0  0  0  0  0  0  0  0  0  0  0  0
   44.9531  -14.3191  -12.6396 H   0  0  0  0  0  0  0  0  0  0  0  0
   48.2642  -15.9392  -13.1912 H   0  0  0  0  0  0  0  0  0  0  0  0
   46.5570  -16.0105  -13.6855 H   0  0  0  0  0  0  0  0  0  0  0  0
   47.5681  -14.6063  -14.0821 H   0  0  0  0  0  0  0  0  0  0  0  0
   49.1670  -12.9983   -6.8132 H   0  0  0  0  0  0  0  0  0  0  0  0
   44.7084  -19.2933   -5.1865 H   0  0  0  0  0  0  0  0  0  0  0  0
   46.3870  -20.8490   -4.2279 H   0  0  0  0  0  0  0  0  0  0  0  0
   51.4030  -13.7697   -6.0630 H   0  0  0  0  0  0  0  0  0  0  0  0
  2  1  1  0
  3  1  1  0
  4  6  1  0
  5  7  1  0
  6  2  2  0
  7  3  2  0
  8  1  2  3
  9 13  1  0
 10  8  1  0
 11  3  1  0
 12  2  1  0
 13 10  1  0
 14  7  1  0
 15  6  1  0
 16  9  1  0
 17  9  1  0
 18 11  2  0
 19 12  2  0
 20 19  1  0
 21 18  1  0
  5  4  2  0
 21 14  2  0
 20 15  2  0
  4 22  1  0
  5 23  1  0
  8 24  1  0
 10 25  1  0
 10 26  1  0
 11 27  1  0
 12 28  1  0
 13 29  1  0
 13 30  1  0
 14 31  1  0
 15 32  1  0
 16 33  1  0
 16 34  1  0
 16 35  1  0
 17 36  1  0
 17 37  1  0
 17 38  1  0
 18 39  1  0
 19 40  1  0
 20 41  1  0
 21 42  1  0
M  END
> <Uni-Dock RESULT> 
ENERGY=   -5.455  LOWER_BOUND=    2.387  UPPER_BOUND=    4.793
INTER + INTRA:          -5.455
INTER:                  -5.455
INTRA:                   0.000
UNBOUND:                 0.000

$$$$

     RDKit          3D

 42 44  0  0  0  0  0  0  0  0999 V2000
   50.1556  -17.6858   -8.0209 C   0  0  0  0  0  0  0  0  0  0  0  0
   48.7229  -17.1800   -7.6535 C   0  0  0  0  0  0  0  0  0  0  0  0
   51.1167  -17.7971   -6.7987 C   0  0  0  0  0  0  0  0  0  0  0  0
   48.3638  -19.3557   -6.2708 C   0  0  0  0  0  0  0  0  0  0  0  0
   49.5917  -19.6726   -5.8336 C   0  0  0  0  0  0  0  0  0  0  0  0
   47.9232  -17.9412   -6.7872 C   0  0  0  0  0  0  0  0  0  0  0  0
   50.8083  -18.6850   -5.7569 C   0  0  0  0  0  0  0  0  0  0  0  0
   50.4584  -18.0597   -9.2724 C   0  0  0  0  0  0  0  0  0  0  0  0
   53.8132  -18.1260  -11.1385 N   0  0  0  0  0  0  0  0  0  0  0  0
   51.7661  -18.6338   -9.7513 C   0  0  0  0  0  0  0  0  0  0  0  0
   52.2211  -16.9454   -6.6933 C   0  0  0  0  0  0  0  0  0  0  0  0
   48.2798  -15.9350   -8.1112 C   0  0  0  0  0  0  0  0  0  0  0  0
   52.4751  -17.6682  -10.7173 C   0  0  0  0  0  0  0  0  0  0  0  0
   51.6262  -18.7247   -4.6230 C   0  0  0  0  0  0  0  0  0  0  0  0
   46.6734  -17.4496   -6.3974 C   0  0  0  0  0  0  0  0  0  0  0  0
   54.5000  -17.0571  -11.8685 C   0  0  0  0  0  0  0  0  0  0  0  0
   53.7469  -19.3287  -11.9706 C   0  0  0  0  0  0  0  0  0  0  0  0
   53.0347  -16.9963   -5.5615 C   0  0  0  0  0  0  0  0  0  0  0  0
   47.0297  -15.4552   -7.7207 C   0  0  0  0  0  0  0  0  0  0  0  0
   46.2284  -16.2107   -6.8644 C   0  0  0  0  0  0  0  0  0  0  0  0
   52.7372  -17.8839   -4.5276 C   0  0  0  0  0  0  0  0  0  0  0  0
   47.6165  -20.1454   -6.2986 H   0  0  0  0  0  0  0  0  0  0  0  0
   49.7728  -20.7015   -5.5310 H   0  0  0  0  0  0  0  0  0  0  0  0
   49.6871  -17.9737  -10.0361 H   0  0  0  0  0  0  0  0  0  0  0  0
   51.5409  -19.5816  -10.2533 H   0  0  0  0  0  0  0  0  0  0  0  0
   52.4316  -18.8760   -8.9158 H   0  0  0  0  0  0  0  0  0  0  0  0
   52.4471  -16.2397   -7.4879 H   0  0  0  0  0  0  0  0  0  0  0  0
   48.9106  -15.3334   -8.7596 H   0  0  0  0  0  0  0  0  0  0  0  0
   51.8390  -17.4826  -11.5938 H   0  0  0  0  0  0  0  0  0  0  0  0
   52.5839  -16.7054  -10.1995 H   0  0  0  0  0  0  0  0  0  0  0  0
   51.4037  -19.4091   -3.8087 H   0  0  0  0  0  0  0  0  0  0  0  0
   46.0404  -18.0266   -5.7286 H   0  0  0  0  0  0  0  0  0  0  0  0
   54.6108  -16.1681  -11.2377 H   0  0  0  0  0  0  0  0  0  0  0  0
   55.5133  -17.3687  -12.1459 H   0  0  0  0  0  0  0  0  0  0  0  0
   53.9648  -16.7697  -12.7810 H   0  0  0  0  0  0  0  0  0  0  0  0
   53.3529  -20.1800  -11.4070 H   0  0  0  0  0  0  0  0  0  0  0  0
   53.1257  -19.1814  -12.8615 H   0  0  0  0  0  0  0  0  0  0  0  0
   54.7500  -19.6249  -12.2987 H   0  0  0  0  0  0  0  0  0  0  0  0
   53.8963  -16.3386   -5.4832 H   0  0  0  0  0  0  0  0  0  0  0  0
   46.6848  -14.4875   -8.0752 H   0  0  0  0  0  0  0  0  0  0  0  0
   45.2570  -15.8330   -6.5561 H   0  0  0  0  0  0  0  0  0  0  0  0
   53.3696  -17.9195   -3.6444 H   0  0  0  0  0  0  0  0  0  0  0  0
  2  1  1  0
  3  1  1  0
  4  6  1  0
  5  7  1  0
  6  2  2  0
  7  3  2  0
  8  1  2  3
  9 13  1  0
 10  8  1  0
 11  3  1  0
 12  2  1  0
 13 10  1  0
 14  7  1  0
 15  6  1  0
 16  9  1  0
 17  9  1  0
 18 11  2  0
 19 12  2  0
 20 19  1  0
 21 18  1  0
  5  4  2  0
 21 14  2  0
 20 15  2  0
  4 22  1  0
  5 23  1  0
  8 24  1  0
 10 25  1  0
 10 26  1  0
 11 27  1  0
 12 28  1  0
 13 29  1  0
 13 30  1  0
 14 31  1  0
 15 32  1  0
 16 33  1  0
 16 34  1  0
 16 35  1  0
 17 36  1  0
 17 37  1  0
 17 38  1  0
 18 39  1  0
 19 40  1  0
 20 41  1  0
 21 42  1  0
M  END
> <Uni-Dock RESULT> 
ENERGY=   -4.906  LOWER_BOUND=    2.237  UPPER_BOUND=    4.978
INTER + INTRA:          -4.906
INTER:                  -4.906
INTRA:                   0.000
UNBOUND:                 0.000

$$$$

     RDKit          3D

 42 44  0  0  0  0  0  0  0  0999 V2000
   50.0636  -17.3819   -8.5501 C   0  0  0  0  0  0  0  0  0  0  0  0
   49.8995  -17.6472  -10.0818 C   0  0  0  0  0  0  0  0  0  0  0  0
   48.7555  -16.9033   -7.8502 C   0  0  0  0  0  0  0  0  0  0  0  0
   48.2734  -19.5998   -9.5184 C   0  0  0  0  0  0  0  0  0  0  0  0
   47.6877  -19.2186   -8.3733 C   0  0  0  0  0  0  0  0  0  0  0  0
   49.0143  -18.6447  -10.5185 C   0  0  0  0  0  0  0  0  0  0  0  0
   47.6354  -17.7483   -7.8290 C   0  0  0  0  0  0  0  0  0  0  0  0
   51.2204  -17.6389   -7.9225 C   0  0  0  0  0  0  0  0  0  0  0  0
   52.7484  -16.1287   -4.7404 N   0  0  0  0  0  0  0  0  0  0  0  0
   51.4966  -17.5035   -6.4480 C   0  0  0  0  0  0  0  0  0  0  0  0
   48.6667  -15.6044   -7.3392 C   0  0  0  0  0  0  0  0  0  0  0  0
   50.5598  -16.8347  -11.0090 C   0  0  0  0  0  0  0  0  0  0  0  0
   52.5161  -16.3835   -6.1752 C   0  0  0  0  0  0  0  0  0  0  0  0
   46.4371  -17.2870   -7.2743 C   0  0  0  0  0  0  0  0  0  0  0  0
   48.8096  -18.8279  -11.8897 C   0  0  0  0  0  0  0  0  0  0  0  0
   53.5510  -14.9145   -4.5722 C   0  0  0  0  0  0  0  0  0  0  0  0
   53.4125  -17.2550   -4.0818 C   0  0  0  0  0  0  0  0  0  0  0  0
   47.4693  -15.1552   -6.7823 C   0  0  0  0  0  0  0  0  0  0  0  0
   50.3528  -17.0282  -12.3747 C   0  0  0  0  0  0  0  0  0  0  0  0
   49.4784  -18.0223  -12.8143 C   0  0  0  0  0  0  0  0  0  0  0  0
   46.3561  -15.9948   -6.7508 C   0  0  0  0  0  0  0  0  0  0  0  0
   48.2617  -20.6590   -9.7652 H   0  0  0  0  0  0  0  0  0  0  0  0
   47.2336  -19.9893   -7.7546 H   0  0  0  0  0  0  0  0  0  0  0  0
   52.0555  -18.0103   -8.5143 H   0  0  0  0  0  0  0  0  0  0  0  0
   51.8840  -18.4678   -6.0998 H   0  0  0  0  0  0  0  0  0  0  0  0
   50.5791  -17.3148   -5.8803 H   0  0  0  0  0  0  0  0  0  0  0  0
   49.5257  -14.9403   -7.3773 H   0  0  0  0  0  0  0  0  0  0  0  0
   51.2238  -16.0444  -10.6701 H   0  0  0  0  0  0  0  0  0  0  0  0
   53.4636  -16.6089   -6.6837 H   0  0  0  0  0  0  0  0  0  0  0  0
   52.1256  -15.4643   -6.6330 H   0  0  0  0  0  0  0  0  0  0  0  0
   45.5613  -17.9297   -7.2466 H   0  0  0  0  0  0  0  0  0  0  0  0
   48.1290  -19.5968  -12.2456 H   0  0  0  0  0  0  0  0  0  0  0  0
   53.0389  -14.0495   -5.0084 H   0  0  0  0  0  0  0  0  0  0  0  0
   53.6906  -14.6884   -3.5091 H   0  0  0  0  0  0  0  0  0  0  0  0
   54.5387  -15.0037   -5.0392 H   0  0  0  0  0  0  0  0  0  0  0  0
   52.7770  -18.1458   -4.0820 H   0  0  0  0  0  0  0  0  0  0  0  0
   54.3678  -17.5068   -4.5565 H   0  0  0  0  0  0  0  0  0  0  0  0
   53.6052  -17.0245   -3.0276 H   0  0  0  0  0  0  0  0  0  0  0  0
   47.4030  -14.1479   -6.3797 H   0  0  0  0  0  0  0  0  0  0  0  0
   50.8648  -16.3969  -13.0961 H   0  0  0  0  0  0  0  0  0  0  0  0
   49.3134  -18.1681  -13.8786 H   0  0  0  0  0  0  0  0  0  0  0  0
   45.4225  -15.6420   -6.3205 H   0  0  0  0  0  0  0  0  0  0  0  0
  2  1  1  0
  3  1  1  0
  4  6  1  0
  5  7  1  0
  6  2  2  0
  7  3  2  0
  8  1  2  3
  9 13  1  0
 10  8  1  0
 11  3  1  0
 12  2  1  0
 13 10  1  0
 14  7  1  0
 15  6  1  0
 16  9  1  0
 17  9  1  0
 18 11  2  0
 19 12  2  0
 20 19  1  0
 21 18  1  0
  5  4  2  0
 21 14  2  0
 20 15  2  0
  4 22  1  0
  5 23  1  0
  8 24  1  0
 10 25  1  0
 10 26  1  0
 11 27  1  0
 12 28  1  0
 13 29  1  0
 13 30  1  0
 14 31  1  0
 15 32  1  0
 16 33  1  0
 16 34  1  0
 16 35  1  0
 17 36  1  0
 17 37  1  0
 17 38  1  0
 18 39  1  0
 19 40  1  0
 20 41  1  0
 21 42  1  0
M  END
> <Uni-Dock RESULT> 
ENERGY=   -4.114  LOWER_BOUND=    2.263  UPPER_BOUND=    5.881
INTER + INTRA:          -4.114
INTER:                  -4.114
INTRA:                   0.000
UNBOUND:                 0.000

$$$$

     RDKit          3D

 42 44  0  0  0  0  0  0  0  0999 V2000
   47.1634  -16.4262   -9.8582 C   0  0  0  0  0  0  0  0  0  0  0  0
   48.5656  -16.6207   -9.1953 C   0  0  0  0  0  0  0  0  0  0  0  0
   46.0620  -17.3724   -9.2908 C   0  0  0  0  0  0  0  0  0  0  0  0
   47.5626  -15.7811   -6.9451 C   0  0  0  0  0  0  0  0  0  0  0  0
   46.2785  -16.1657   -6.9948 C   0  0  0  0  0  0  0  0  0  0  0  0
   48.7204  -16.3739   -7.8226 C   0  0  0  0  0  0  0  0  0  0  0  0
   45.7030  -17.2798   -7.9375 C   0  0  0  0  0  0  0  0  0  0  0  0
   46.9543  -15.4626  -10.7668 C   0  0  0  0  0  0  0  0  0  0  0  0
   44.3986  -15.2040  -13.6203 N   0  0  0  0  0  0  0  0  0  0  0  0
   45.6465  -15.1139  -11.4277 C   0  0  0  0  0  0  0  0  0  0  0  0
   45.5113  -18.3731  -10.0979 C   0  0  0  0  0  0  0  0  0  0  0  0
   49.6324  -17.1249   -9.9460 C   0  0  0  0  0  0  0  0  0  0  0  0
   45.6867  -15.4232  -12.9346 C   0  0  0  0  0  0  0  0  0  0  0  0
   44.7751  -18.1833   -7.4093 C   0  0  0  0  0  0  0  0  0  0  0  0
   49.9552  -16.6233   -7.2155 C   0  0  0  0  0  0  0  0  0  0  0  0
   44.4643  -15.7289  -14.9867 C   0  0  0  0  0  0  0  0  0  0  0  0
   44.0259  -13.7886  -13.6523 C   0  0  0  0  0  0  0  0  0  0  0  0
   44.5820  -19.2659   -9.5641 C   0  0  0  0  0  0  0  0  0  0  0  0
   50.8616  -17.3661   -9.3326 C   0  0  0  0  0  0  0  0  0  0  0  0
   51.0225  -17.1167   -7.9695 C   0  0  0  0  0  0  0  0  0  0  0  0
   44.2152  -19.1717   -8.2218 C   0  0  0  0  0  0  0  0  0  0  0  0
   47.8239  -14.9745   -6.2639 H   0  0  0  0  0  0  0  0  0  0  0  0
   45.5691  -15.6499   -6.3516 H   0  0  0  0  0  0  0  0  0  0  0  0
   47.7964  -14.8354  -11.0548 H   0  0  0  0  0  0  0  0  0  0  0  0
   45.4722  -14.0449  -11.2602 H   0  0  0  0  0  0  0  0  0  0  0  0
   44.8058  -15.6412  -10.9642 H   0  0  0  0  0  0  0  0  0  0  0  0
   45.8068  -18.4620  -11.1396 H   0  0  0  0  0  0  0  0  0  0  0  0
   49.5045  -17.3421  -11.0028 H   0  0  0  0  0  0  0  0  0  0  0  0
   46.4823  -14.8372  -13.4151 H   0  0  0  0  0  0  0  0  0  0  0  0
   45.9648  -16.4801  -13.0463 H   0  0  0  0  0  0  0  0  0  0  0  0
   44.4833  -18.1232   -6.3643 H   0  0  0  0  0  0  0  0  0  0  0  0
   50.0932  -16.4361   -6.1539 H   0  0  0  0  0  0  0  0  0  0  0  0
   44.6841  -16.8023  -14.9779 H   0  0  0  0  0  0  0  0  0  0  0  0
   43.4982  -15.6144  -15.4909 H   0  0  0  0  0  0  0  0  0  0  0  0
   45.2297  -15.2237  -15.5872 H   0  0  0  0  0  0  0  0  0  0  0  0
   43.8460  -13.4026  -12.6442 H   0  0  0  0  0  0  0  0  0  0  0  0
   44.7929  -13.1698  -14.1320 H   0  0  0  0  0  0  0  0  0  0  0  0
   43.0853  -13.6510  -14.1981 H   0  0  0  0  0  0  0  0  0  0  0  0
   44.1497  -20.0392  -10.1935 H   0  0  0  0  0  0  0  0  0  0  0  0
   51.6911  -17.7586   -9.9149 H   0  0  0  0  0  0  0  0  0  0  0  0
   51.9791  -17.3107   -7.4915 H   0  0  0  0  0  0  0  0  0  0  0  0
   43.4943  -19.8708   -7.8061 H   0  0  0  0  0  0  0  0  0  0  0  0
  2  1  1  0
  3  1  1  0
  4  6  1  0
  5  7  1  0
  6  2  2  0
  7  3  2  0
  8  1  2  3
  9 13  1  0
 10  8  1  0
 11  3  1  0
 12  2  1  0
 13 10  1  0
 14  7  1  0
 15  6  1  0
 16  9  1  0
 17  9  1  0
 18 11  2  0
 19 12  2  0
 20 19  1  0
 21 18  1  0
  5  4  2  0
 21 14  2  0
 20 15  2  0
  4 22  1  0
  5 23  1  0
  8 24  1  0
 10 25  1  0
 10 26  1  0
 11 27  1  0
 12 28  1  0
 13 29  1  0
 13 30  1  0
 14 31  1  0
 15 32  1  0
 16 33  1  0
 16 34  1  0
 16 35  1  0
 17 36  1  0
 17 37  1  0
 17 38  1  0
 18 39  1  0
 19 40  1  0
 20 41  1  0
 21 42  1  0
M  END
> <Uni-Dock RESULT> 
ENERGY=   -4.032  LOWER_BOUND=    3.172  UPPER_BOUND=    4.195
INTER + INTRA:          -4.032
INTER:                  -4.032
INTRA:                   0.000
UNBOUND:                 0.000

$$$$

     RDKit          3D

 42 44  0  0  0  0  0  0  0  0999 V2000
   42.6115  -11.6993  -12.5061 C   0  0  0  0  0  0  0  0  0  0  0  0
   41.7517  -11.0964  -11.3482 C   0  0  0  0  0  0  0  0  0  0  0  0
   42.3927  -13.2274  -12.7230 C   0  0  0  0  0  0  0  0  0  0  0  0
   39.6101  -11.6327  -12.7267 C   0  0  0  0  0  0  0  0  0  0  0  0
   39.9395  -12.7248  -13.4325 C   0  0  0  0  0  0  0  0  0  0  0  0
   40.3517  -11.1284  -11.4394 C   0  0  0  0  0  0  0  0  0  0  0  0
   41.1241  -13.6967  -13.0963 C   0  0  0  0  0  0  0  0  0  0  0  0
   43.3876  -10.9185  -13.2715 C   0  0  0  0  0  0  0  0  0  0  0  0
   46.5705  -11.7135  -15.2661 N   0  0  0  0  0  0  0  0  0  0  0  0
   44.2060  -11.3482  -14.4608 C   0  0  0  0  0  0  0  0  0  0  0  0
   43.4241  -14.1310  -12.4475 C   0  0  0  0  0  0  0  0  0  0  0  0
   42.3725  -10.6140  -10.1916 C   0  0  0  0  0  0  0  0  0  0  0  0
   45.7121  -11.2070  -14.1780 C   0  0  0  0  0  0  0  0  0  0  0  0
   40.9070  -15.0738  -13.2101 C   0  0  0  0  0  0  0  0  0  0  0  0
   39.5835  -10.6602  -10.3687 C   0  0  0  0  0  0  0  0  0  0  0  0
   47.9678  -11.7463  -14.8260 C   0  0  0  0  0  0  0  0  0  0  0  0
   46.4542  -10.9049  -16.4809 C   0  0  0  0  0  0  0  0  0  0  0  0
   43.2000  -15.5023  -12.5697 C   0  0  0  0  0  0  0  0  0  0  0  0
   41.5978  -10.1448   -9.1308 C   0  0  0  0  0  0  0  0  0  0  0  0
   40.2058  -10.1688   -9.2188 C   0  0  0  0  0  0  0  0  0  0  0  0
   41.9433  -15.9730  -12.9495 C   0  0  0  0  0  0  0  0  0  0  0  0
   38.7807  -11.0281  -13.0866 H   0  0  0  0  0  0  0  0  0  0  0  0
   39.3595  -12.9458  -14.3257 H   0  0  0  0  0  0  0  0  0  0  0  0
   43.4275   -9.8539  -13.0466 H   0  0  0  0  0  0  0  0  0  0  0  0
   43.9130  -10.7125  -15.3041 H   0  0  0  0  0  0  0  0  0  0  0  0
   43.9802  -12.3784  -14.7562 H   0  0  0  0  0  0  0  0  0  0  0  0
   44.3999  -13.7705  -12.1342 H   0  0  0  0  0  0  0  0  0  0  0  0
   43.4558  -10.6150  -10.1101 H   0  0  0  0  0  0  0  0  0  0  0  0
   45.9535  -10.1587  -13.9546 H   0  0  0  0  0  0  0  0  0  0  0  0
   45.9310  -11.7801  -13.2667 H   0  0  0  0  0  0  0  0  0  0  0  0
   39.9315  -15.4539  -13.5017 H   0  0  0  0  0  0  0  0  0  0  0  0
   38.4983  -10.6759  -10.4230 H   0  0  0  0  0  0  0  0  0  0  0  0
   48.0820  -12.3963  -13.9513 H   0  0  0  0  0  0  0  0  0  0  0  0
   48.6093  -12.1652  -15.6094 H   0  0  0  0  0  0  0  0  0  0  0  0
   48.3434  -10.7494  -14.5679 H   0  0  0  0  0  0  0  0  0  0  0  0
   45.4465  -10.9656  -16.9032 H   0  0  0  0  0  0  0  0  0  0  0  0
   46.6949   -9.8509  -16.3007 H   0  0  0  0  0  0  0  0  0  0  0  0
   47.1284  -11.2810  -17.2591 H   0  0  0  0  0  0  0  0  0  0  0  0
   44.0038  -16.2036  -12.3617 H   0  0  0  0  0  0  0  0  0  0  0  0
   42.0792   -9.7704   -8.2312 H   0  0  0  0  0  0  0  0  0  0  0  0
   39.6033   -9.8084   -8.3891 H   0  0  0  0  0  0  0  0  0  0  0  0
   41.7689  -17.0419  -13.0401 H   0  0  0  0  0  0  0  0  0  0  0  0
  2  1  1  0
  3  1  1  0
  4  6  1  0
  5  7  1  0
  6  2  2  0
  7  3  2  0
  8  1  2  3
  9 13  1  0
 10  8  1  0
 11  3  1  0
 12  2  1  0
 13 10  1  0
 14  7  1  0
 15  6  1  0
 16  9  1  0
 17  9  1  0
 18 11  2  0
 19 12  2  0
 20 19  1  0
 21 18  1  0
  5  4  2  0
 21 14  2  0
 20 15  2  0
  4 22  1  0
  5 23  1  0
  8 24  1  0
 10 25  1  0
 10 26  1  0
 11 27  1  0
 12 28  1  0
 13 29  1  0
 13 30  1  0
 14 31  1  0
 15 32  1  0
 16 33  1  0
 16 34  1  0
 16 35  1  0
 17 36  1  0
 17 37  1  0
 17 38  1  0
 18 39  1  0
 19 40  1  0
 20 41  1  0
 21 42  1  0
M  END
> <Uni-Dock RESULT> 
ENERGY=   -4.010  LOWER_BOUND=    8.551  UPPER_BOUND=   10.491
INTER + INTRA:          -4.010
INTER:                  -4.010
INTRA:                   0.000
UNBOUND:                 0.000

$$$$

     RDKit          3D

 42 44  0  0  0  0  0  0  0  0999 V2000
   46.6318  -16.0156  -10.6864 C   0  0  0  0  0  0  0  0  0  0  0  0
   46.5213  -16.3226   -9.1577 C   0  0  0  0  0  0  0  0  0  0  0  0
   47.5761  -16.9875  -11.4571 C   0  0  0  0  0  0  0  0  0  0  0  0
   45.3876  -18.5904   -9.7461 C   0  0  0  0  0  0  0  0  0  0  0  0
   45.9278  -18.9305  -10.9258 C   0  0  0  0  0  0  0  0  0  0  0  0
   45.9946  -17.5534   -8.7372 C   0  0  0  0  0  0  0  0  0  0  0  0
   47.2658  -18.3550  -11.5084 C   0  0  0  0  0  0  0  0  0  0  0  0
   45.8965  -15.0485  -11.2538 C   0  0  0  0  0  0  0  0  0  0  0  0
   46.5120  -12.9348  -14.3994 N   0  0  0  0  0  0  0  0  0  0  0  0
   45.8451  -14.6949  -12.7171 C   0  0  0  0  0  0  0  0  0  0  0  0
   48.7743  -16.5170  -12.0038 C   0  0  0  0  0  0  0  0  0  0  0  0
   47.0285  -15.4156   -8.2218 C   0  0  0  0  0  0  0  0  0  0  0  0
   46.4350  -13.2964  -12.9708 C   0  0  0  0  0  0  0  0  0  0  0  0
   48.1552  -19.2386  -12.1287 C   0  0  0  0  0  0  0  0  0  0  0  0
   45.9688  -17.8584   -7.3727 C   0  0  0  0  0  0  0  0  0  0  0  0
   47.2812  -11.6982  -14.5609 C   0  0  0  0  0  0  0  0  0  0  0  0
   45.1861  -12.7736  -14.9987 C   0  0  0  0  0  0  0  0  0  0  0  0
   49.6523  -17.4046  -12.6259 C   0  0  0  0  0  0  0  0  0  0  0  0
   46.9941  -15.7267   -6.8626 C   0  0  0  0  0  0  0  0  0  0  0  0
   46.4662  -16.9464   -6.4388 C   0  0  0  0  0  0  0  0  0  0  0  0
   49.3436  -18.7634  -12.6874 C   0  0  0  0  0  0  0  0  0  0  0  0
   44.4380  -19.0453   -9.4737 H   0  0  0  0  0  0  0  0  0  0  0  0
   45.3867  -19.6423  -11.5453 H   0  0  0  0  0  0  0  0  0  0  0  0
   45.2398  -14.4598  -10.6154 H   0  0  0  0  0  0  0  0  0  0  0  0
   44.7933  -14.7287  -13.0231 H   0  0  0  0  0  0  0  0  0  0  0  0
   46.3703  -15.4347  -13.3307 H   0  0  0  0  0  0  0  0  0  0  0  0
   49.0279  -15.4623  -11.9430 H   0  0  0  0  0  0  0  0  0  0  0  0
   47.4614  -14.4746   -8.5495 H   0  0  0  0  0  0  0  0  0  0  0  0
   45.8616  -12.5425  -12.4141 H   0  0  0  0  0  0  0  0  0  0  0  0
   47.4516  -13.2875  -12.5544 H   0  0  0  0  0  0  0  0  0  0  0  0
   47.9285  -20.3002  -12.1803 H   0  0  0  0  0  0  0  0  0  0  0  0
   45.5629  -18.8062   -7.0292 H   0  0  0  0  0  0  0  0  0  0  0  0
   48.2975  -11.8217  -14.1702 H   0  0  0  0  0  0  0  0  0  0  0  0
   47.3856  -11.4445  -15.6218 H   0  0  0  0  0  0  0  0  0  0  0  0
   46.8136  -10.8503  -14.0471 H   0  0  0  0  0  0  0  0  0  0  0  0
   44.6359  -13.7194  -15.0054 H   0  0  0  0  0  0  0  0  0  0  0  0
   44.5840  -12.0224  -14.4746 H   0  0  0  0  0  0  0  0  0  0  0  0
   45.2730  -12.4700  -16.0484 H   0  0  0  0  0  0  0  0  0  0  0  0
   50.5802  -17.0372  -13.0561 H   0  0  0  0  0  0  0  0  0  0  0  0
   47.3887  -15.0229   -6.1345 H   0  0  0  0  0  0  0  0  0  0  0  0
   46.4453  -17.1902   -5.3798 H   0  0  0  0  0  0  0  0  0  0  0  0
   50.0307  -19.4545  -13.1685 H   0  0  0  0  0  0  0  0  0  0  0  0
  2  1  1  0
  3  1  1  0
  4  6  1  0
  5  7  1  0
  6  2  2  0
  7  3  2  0
  8  1  2  3
  9 13  1  0
 10  8  1  0
 11  3  1  0
 12  2  1  0
 13 10  1  0
 14  7  1  0
 15  6  1  0
 16  9  1  0
 17  9  1  0
 18 11  2  0
 19 12  2  0
 20 19  1  0
 21 18  1  0
  5  4  2  0
 21 14  2  0
 20 15  2  0
  4 22  1  0
  5 23  1  0
  8 24  1  0
 10 25  1  0
 10 26  1  0
 11 27  1  0
 12 28  1  0
 13 29  1  0
 13 30  1  0
 14 31  1  0
 15 32  1  0
 16 33  1  0
 16 34  1  0
 16 35  1  0
 17 36  1  0
 17 37  1  0
 17 38  1  0
 18 39  1  0
 19 40  1  0
 20 41  1  0
 21 42  1  0
M  END
> <Uni-Dock RESULT> 
ENERGY=   -3.983  LOWER_BOUND=    3.637  UPPER_BOUND=    6.195
INTER + INTRA:          -3.983
INTER:                  -3.983
INTRA:                   0.000
UNBOUND:                 0.000

$$$$

     RDKit          3D

 42 44  0  0  0  0  0  0  0  0999 V2000
   47.4390  -16.4779  -10.3056 C   0  0  0  0  0  0  0  0  0  0  0  0
   48.9014  -17.0112  -10.4487 C   0  0  0  0  0  0  0  0  0  0  0  0
   46.7159  -16.9621   -9.0122 C   0  0  0  0  0  0  0  0  0  0  0  0
   49.5566  -15.6338   -8.3398 C   0  0  0  0  0  0  0  0  0  0  0  0
   48.4355  -15.6078   -7.6039 C   0  0  0  0  0  0  0  0  0  0  0  0
   49.8622  -16.6570   -9.4892 C   0  0  0  0  0  0  0  0  0  0  0  0
   47.2284  -16.5979   -7.7578 C   0  0  0  0  0  0  0  0  0  0  0  0
   46.9257  -15.6161  -11.1954 C   0  0  0  0  0  0  0  0  0  0  0  0
   43.2931  -14.9369  -12.2365 N   0  0  0  0  0  0  0  0  0  0  0  0
   45.5679  -14.9661  -11.1424 C   0  0  0  0  0  0  0  0  0  0  0  0
   45.6277  -17.8362   -9.1009 C   0  0  0  0  0  0  0  0  0  0  0  0
   49.2240  -17.9074  -11.4727 C   0  0  0  0  0  0  0  0  0  0  0  0
   44.6733  -15.4557  -12.2949 C   0  0  0  0  0  0  0  0  0  0  0  0
   46.6286  -17.1001   -6.5983 C   0  0  0  0  0  0  0  0  0  0  0  0
   51.1491  -17.1975   -9.5749 C   0  0  0  0  0  0  0  0  0  0  0  0
   42.4601  -15.6205  -13.2295 C   0  0  0  0  0  0  0  0  0  0  0  0
   43.2387  -13.4907  -12.4576 C   0  0  0  0  0  0  0  0  0  0  0  0
   45.0320  -18.3271   -7.9390 C   0  0  0  0  0  0  0  0  0  0  0  0
   50.5117  -18.4375  -11.5527 C   0  0  0  0  0  0  0  0  0  0  0  0
   51.4722  -18.0841  -10.6048 C   0  0  0  0  0  0  0  0  0  0  0  0
   45.5322  -17.9604   -6.6898 C   0  0  0  0  0  0  0  0  0  0  0  0
   50.3062  -14.8693   -8.1482 H   0  0  0  0  0  0  0  0  0  0  0  0
   48.3372  -14.8238   -6.8564 H   0  0  0  0  0  0  0  0  0  0  0  0
   47.5449  -15.3188  -12.0402 H   0  0  0  0  0  0  0  0  0  0  0  0
   45.7228  -13.8833  -11.2107 H   0  0  0  0  0  0  0  0  0  0  0  0
   45.0695  -15.1481  -10.1843 H   0  0  0  0  0  0  0  0  0  0  0  0
   45.2453  -18.1391  -10.0716 H   0  0  0  0  0  0  0  0  0  0  0  0
   48.4724  -18.2029  -12.1994 H   0  0  0  0  0  0  0  0  0  0  0  0
   45.1369  -15.2066  -13.2593 H   0  0  0  0  0  0  0  0  0  0  0  0
   44.6354  -16.5522  -12.2392 H   0  0  0  0  0  0  0  0  0  0  0  0
   47.0106  -16.8251   -5.6188 H   0  0  0  0  0  0  0  0  0  0  0  0
   51.9060  -16.9328   -8.8414 H   0  0  0  0  0  0  0  0  0  0  0  0
   42.4424  -16.6998  -13.0415 H   0  0  0  0  0  0  0  0  0  0  0  0
   41.4215  -15.2773  -13.1638 H   0  0  0  0  0  0  0  0  0  0  0  0
   42.8155  -15.4531  -14.2528 H   0  0  0  0  0  0  0  0  0  0  0  0
   43.7484  -12.9473  -11.6561 H   0  0  0  0  0  0  0  0  0  0  0  0
   43.6860  -13.2018  -13.4155 H   0  0  0  0  0  0  0  0  0  0  0  0
   42.2006  -13.1388  -12.4453 H   0  0  0  0  0  0  0  0  0  0  0  0
   44.1824  -19.0012   -8.0087 H   0  0  0  0  0  0  0  0  0  0  0  0
   50.7633  -19.1346  -12.3476 H   0  0  0  0  0  0  0  0  0  0  0  0
   52.4735  -18.5026  -10.6647 H   0  0  0  0  0  0  0  0  0  0  0  0
   45.0698  -18.3471   -5.7855 H   0  0  0  0  0  0  0  0  0  0  0  0
  2  1  1  0
  3  1  1  0
  4  6  1  0
  5  7  1  0
  6  2  2  0
  7  3  2  0
  8  1  2  3
  9 13  1  0
 10  8  1  0
 11  3  1  0
 12  2  1  0
 13 10  1  0
 14  7  1  0
 15  6  1  0
 16  9  1  0
 17  9  1  0
 18 11  2  0
 19 12  2  0
 20 19  1  0
 21 18  1  0
  5  4  2  0
 21 14  2  0
 20 15  2  0
  4 22  1  0
  5 23  1  0
  8 24  1  0
 10 25  1  0
 10 26  1  0
 11 27  1  0
 12 28  1  0
 13 29  1  0
 13 30  1  0
 14 31  1  0
 15 32  1  0
 16 33  1  0
 16 34  1  0
 16 35  1  0
 17 36  1  0
 17 37  1  0
 17 38  1  0
 18 39  1  0
 19 40  1  0
 20 41  1  0
 21 42  1  0
M  END
> <Uni-Dock RESULT> 
ENERGY=   -3.925  LOWER_BOUND=    3.373  UPPER_BOUND=    4.641
INTER + INTRA:          -3.925
INTER:                  -3.925
INTRA:                   0.000
UNBOUND:                 0.000

$$$$
