
     RDKit          3D

 22 22  0  0  0  0  0  0  0  0999 V2000
    2.6793   -0.5060    1.0583 N   0  0  0  0  0  0  0  0  0  0  0  0
    2.0911    0.6318    1.7128 N   0  0  0  0  0  0  0  0  0  0  0  0
   -0.6391   -0.5025    0.0279 C   0  0  0  0  0  0  0  0  0  0  0  0
    1.8831   -0.8857   -0.1244 C   0  0  0  0  0  0  0  0  0  0  0  0
    0.5005   -1.4808    0.1972 C   0  0  0  0  0  0  0  0  0  0  0  0
   -1.1953    0.1426    1.1395 C   0  0  0  0  0  0  0  0  0  0  0  0
   -1.1511   -0.2201   -1.2466 C   0  0  0  0  0  0  0  0  0  0  0  0
   -2.2009    0.6867   -1.4030 C   0  0  0  0  0  0  0  0  0  0  0  0
   -2.2443    1.0496    0.9819 C   0  0  0  0  0  0  0  0  0  0  0  0
   -2.7475    1.3209   -0.2889 C   0  0  0  0  0  0  0  0  0  0  0  0
    3.6408   -0.3207    0.7552 H   0  0  0  0  0  0  0  0  0  0  0  0
    2.0745    1.4694    1.1251 H   0  0  0  0  0  0  0  0  0  0  0  0
    2.5930    0.8787    2.5689 H   0  0  0  0  0  0  0  0  0  0  0  0
    2.4605   -1.6717   -0.6275 H   0  0  0  0  0  0  0  0  0  0  0  0
    1.8215   -0.0516   -0.8349 H   0  0  0  0  0  0  0  0  0  0  0  0
    0.3150   -2.3257   -0.4802 H   0  0  0  0  0  0  0  0  0  0  0  0
    0.4828   -1.9185    1.2038 H   0  0  0  0  0  0  0  0  0  0  0  0
   -0.8031   -0.0553    2.1351 H   0  0  0  0  0  0  0  0  0  0  0  0
   -0.7364   -0.7088   -2.1249 H   0  0  0  0  0  0  0  0  0  0  0  0
   -2.5933    0.8970   -2.3943 H   0  0  0  0  0  0  0  0  0  0  0  0
   -2.6662    1.5444    1.8524 H   0  0  0  0  0  0  0  0  0  0  0  0
   -3.5649    2.0263   -0.4104 H   0  0  0  0  0  0  0  0  0  0  0  0
  2  1  1  0
  3  5  1  0
  4  1  1  0
  5  4  1  0
  6  3  2  0
  7  3  1  0
  8  7  2  0
  9  6  1  0
 10  9  2  0
 10  8  1  0
  1 11  1  0
  2 12  1  0
  2 13  1  0
  4 14  1  0
  4 15  1  0
  5 16  1  0
  5 17  1  0
  6 18  1  0
  7 19  1  0
  8 20  1  0
  9 21  1  0
 10 22  1  0
M  END
$$$$
