
     RDKit          3D

 22 22  0  0  0  0  0  0  0  0999 V2000
    3.0498    0.2085    0.5198 N   0  0  0  0  0  0  0  0  0  0  0  0
    3.6379    0.0552   -0.7962 N   0  0  0  0  0  0  0  0  0  0  0  0
   -0.7357    0.2925   -0.1167 C   0  0  0  0  0  0  0  0  0  0  0  0
    1.6471   -0.2521    0.4939 C   0  0  0  0  0  0  0  0  0  0  0  0
    0.7043    0.7422   -0.1971 C   0  0  0  0  0  0  0  0  0  0  0  0
   -1.2477   -0.6170   -1.0521 C   0  0  0  0  0  0  0  0  0  0  0  0
   -1.5700    0.7566    0.9088 C   0  0  0  0  0  0  0  0  0  0  0  0
   -2.8950    0.3256    0.9912 C   0  0  0  0  0  0  0  0  0  0  0  0
   -2.5728   -1.0468   -0.9677 C   0  0  0  0  0  0  0  0  0  0  0  0
   -3.3961   -0.5751    0.0530 C   0  0  0  0  0  0  0  0  0  0  0  0
    3.5449   -0.3837    1.1971 H   0  0  0  0  0  0  0  0  0  0  0  0
    4.6391    0.2735   -0.7695 H   0  0  0  0  0  0  0  0  0  0  0  0
    3.2505    0.7424   -1.4505 H   0  0  0  0  0  0  0  0  0  0  0  0
    1.3255   -0.3717    1.5365 H   0  0  0  0  0  0  0  0  0  0  0  0
    1.5764   -1.2485    0.0379 H   0  0  0  0  0  0  0  0  0  0  0  0
    0.9740    0.8703   -1.2528 H   0  0  0  0  0  0  0  0  0  0  0  0
    0.8018    1.7347    0.2617 H   0  0  0  0  0  0  0  0  0  0  0  0
   -0.6152   -0.9959   -1.8520 H   0  0  0  0  0  0  0  0  0  0  0  0
   -1.1923    1.4575    1.6499 H   0  0  0  0  0  0  0  0  0  0  0  0
   -3.5362    0.6924    1.7883 H   0  0  0  0  0  0  0  0  0  0  0  0
   -2.9623   -1.7506   -1.6985 H   0  0  0  0  0  0  0  0  0  0  0  0
   -4.4278   -0.9101    0.1180 H   0  0  0  0  0  0  0  0  0  0  0  0
  2  1  1  0
  3  5  1  0
  4  1  1  0
  5  4  1  0
  6  3  2  0
  7  3  1  0
  8  7  2  0
  9  6  1  0
 10  9  2  0
 10  8  1  0
  1 11  1  0
  2 12  1  0
  2 13  1  0
  4 14  1  0
  4 15  1  0
  5 16  1  0
  5 17  1  0
  6 18  1  0
  7 19  1  0
  8 20  1  0
  9 21  1  0
 10 22  1  0
M  END
$$$$
