
     RDKit          3D

 22 22  0  0  0  0  0  0  0  0999 V2000
    2.1648    0.6415    0.2708 N   0  0  0  0  0  0  0  0  0  0  0  0
    3.2275    0.6972    1.2513 N   0  0  0  0  0  0  0  0  0  0  0  0
   -0.6204   -0.3809   -0.5801 C   0  0  0  0  0  0  0  0  0  0  0  0
    1.8360   -0.7711    0.0041 C   0  0  0  0  0  0  0  0  0  0  0  0
    0.7190   -0.9059   -1.0431 C   0  0  0  0  0  0  0  0  0  0  0  0
   -1.1080    0.8425   -1.0596 C   0  0  0  0  0  0  0  0  0  0  0  0
   -1.3865   -1.1016    0.3461 C   0  0  0  0  0  0  0  0  0  0  0  0
   -2.6170   -0.6081    0.7825 C   0  0  0  0  0  0  0  0  0  0  0  0
   -2.3386    1.3342   -0.6219 C   0  0  0  0  0  0  0  0  0  0  0  0
   -3.0927    0.6091    0.2986 C   0  0  0  0  0  0  0  0  0  0  0  0
    1.3112    1.0910    0.6277 H   0  0  0  0  0  0  0  0  0  0  0  0
    3.4394    1.6696    1.4950 H   0  0  0  0  0  0  0  0  0  0  0  0
    4.1016    0.3368    0.8560 H   0  0  0  0  0  0  0  0  0  0  0  0
    2.7260   -1.2836   -0.3824 H   0  0  0  0  0  0  0  0  0  0  0  0
    1.5407   -1.2727    0.9345 H   0  0  0  0  0  0  0  0  0  0  0  0
    1.0181   -0.4041   -1.9726 H   0  0  0  0  0  0  0  0  0  0  0  0
    0.6008   -1.9653   -1.3053 H   0  0  0  0  0  0  0  0  0  0  0  0
   -0.5289    1.4218   -1.7757 H   0  0  0  0  0  0  0  0  0  0  0  0
   -1.0289   -2.0527    0.7339 H   0  0  0  0  0  0  0  0  0  0  0  0
   -3.2046   -1.1739    1.5007 H   0  0  0  0  0  0  0  0  0  0  0  0
   -2.7086    2.2838   -0.9996 H   0  0  0  0  0  0  0  0  0  0  0  0
   -4.0509    0.9925    0.6389 H   0  0  0  0  0  0  0  0  0  0  0  0
  2  1  1  0
  3  5  1  0
  4  1  1  0
  5  4  1  0
  6  3  2  0
  7  3  1  0
  8  7  2  0
  9  6  1  0
 10  9  2  0
 10  8  1  0
  1 11  1  0
  2 12  1  0
  2 13  1  0
  4 14  1  0
  4 15  1  0
  5 16  1  0
  5 17  1  0
  6 18  1  0
  7 19  1  0
  8 20  1  0
  9 21  1  0
 10 22  1  0
M  END
$$$$
