
     RDKit          3D

 22 22  0  0  0  0  0  0  0  0999 V2000
    2.3055   -0.3824    0.6924 N   0  0  0  0  0  0  0  0  0  0  0  0
    3.3042    0.6237    0.3895 N   0  0  0  0  0  0  0  0  0  0  0  0
   -0.6362    0.0991   -0.4837 C   0  0  0  0  0  0  0  0  0  0  0  0
    1.7155   -0.8916   -0.5626 C   0  0  0  0  0  0  0  0  0  0  0  0
    0.6874    0.0498   -1.2115 C   0  0  0  0  0  0  0  0  0  0  0  0
   -1.7161   -0.6826   -0.9170 C   0  0  0  0  0  0  0  0  0  0  0  0
   -0.8007    0.9163    0.6424 C   0  0  0  0  0  0  0  0  0  0  0  0
   -2.0217    0.9568    1.3174 C   0  0  0  0  0  0  0  0  0  0  0  0
   -2.9373   -0.6404   -0.2417 C   0  0  0  0  0  0  0  0  0  0  0  0
   -3.0901    0.1797    0.8745 C   0  0  0  0  0  0  0  0  0  0  0  0
    2.7388   -1.1823    1.1677 H   0  0  0  0  0  0  0  0  0  0  0  0
    3.7815    0.9227    1.2459 H   0  0  0  0  0  0  0  0  0  0  0  0
    2.8633    1.4787    0.0370 H   0  0  0  0  0  0  0  0  0  0  0  0
    2.5141   -1.1154   -1.2819 H   0  0  0  0  0  0  0  0  0  0  0  0
    1.2287   -1.8492   -0.3389 H   0  0  0  0  0  0  0  0  0  0  0  0
    1.0851    1.0667   -1.3161 H   0  0  0  0  0  0  0  0  0  0  0  0
    0.5085   -0.2934   -2.2392 H   0  0  0  0  0  0  0  0  0  0  0  0
   -1.6138   -1.3298   -1.7849 H   0  0  0  0  0  0  0  0  0  0  0  0
    0.0289    1.5192    1.0049 H   0  0  0  0  0  0  0  0  0  0  0  0
   -2.1364    1.5923    2.1912 H   0  0  0  0  0  0  0  0  0  0  0  0
   -3.7691   -1.2489   -0.5862 H   0  0  0  0  0  0  0  0  0  0  0  0
   -4.0401    0.2110    1.4009 H   0  0  0  0  0  0  0  0  0  0  0  0
  2  1  1  0
  3  5  1  0
  4  1  1  0
  5  4  1  0
  6  3  2  0
  7  3  1  0
  8  7  2  0
  9  6  1  0
 10  9  2  0
 10  8  1  0
  1 11  1  0
  2 12  1  0
  2 13  1  0
  4 14  1  0
  4 15  1  0
  5 16  1  0
  5 17  1  0
  6 18  1  0
  7 19  1  0
  8 20  1  0
  9 21  1  0
 10 22  1  0
M  END
$$$$
