
     RDKit          3D

 22 22  0  0  0  0  0  0  0  0999 V2000
   -2.2474   -0.3307    0.1202 N   0  0  0  0  0  0  0  0  0  0  0  0
   -3.3738   -0.7935   -0.6612 N   0  0  0  0  0  0  0  0  0  0  0  0
    0.7074    0.5493    0.2677 C   0  0  0  0  0  0  0  0  0  0  0  0
   -1.7044    0.8904   -0.5034 C   0  0  0  0  0  0  0  0  0  0  0  0
   -0.5084    1.4469    0.2855 C   0  0  0  0  0  0  0  0  0  0  0  0
    1.5003    0.4467   -0.8834 C   0  0  0  0  0  0  0  0  0  0  0  0
    1.0499   -0.2050    1.3982 C   0  0  0  0  0  0  0  0  0  0  0  0
    2.1648   -1.0443    1.3776 C   0  0  0  0  0  0  0  0  0  0  0  0
    2.6148   -0.3932   -0.9019 C   0  0  0  0  0  0  0  0  0  0  0  0
    2.9468   -1.1382    0.2281 C   0  0  0  0  0  0  0  0  0  0  0  0
   -1.4932   -1.0301    0.1283 H   0  0  0  0  0  0  0  0  0  0  0  0
   -4.1582   -0.1383   -0.5857 H   0  0  0  0  0  0  0  0  0  0  0  0
   -3.7376   -1.6721   -0.2796 H   0  0  0  0  0  0  0  0  0  0  0  0
   -1.4077    0.6857   -1.5400 H   0  0  0  0  0  0  0  0  0  0  0  0
   -2.4836    1.6627   -0.5266 H   0  0  0  0  0  0  0  0  0  0  0  0
   -0.8090    1.6516    1.3213 H   0  0  0  0  0  0  0  0  0  0  0  0
   -0.2235    2.4196   -0.1361 H   0  0  0  0  0  0  0  0  0  0  0  0
    1.2541    1.0208   -1.7737 H   0  0  0  0  0  0  0  0  0  0  0  0
    0.4468   -0.1451    2.3018 H   0  0  0  0  0  0  0  0  0  0  0  0
    2.4227   -1.6251    2.2593 H   0  0  0  0  0  0  0  0  0  0  0  0
    3.2242   -0.4664   -1.7988 H   0  0  0  0  0  0  0  0  0  0  0  0
    3.8149   -1.7918    0.2128 H   0  0  0  0  0  0  0  0  0  0  0  0
  2  1  1  0
  3  5  1  0
  4  1  1  0
  5  4  1  0
  6  3  2  0
  7  3  1  0
  8  7  2  0
  9  6  1  0
 10  9  2  0
 10  8  1  0
  1 11  1  0
  2 12  1  0
  2 13  1  0
  4 14  1  0
  4 15  1  0
  5 16  1  0
  5 17  1  0
  6 18  1  0
  7 19  1  0
  8 20  1  0
  9 21  1  0
 10 22  1  0
M  END
$$$$
