
     RDKit          3D

 22 22  0  0  0  0  0  0  0  0999 V2000
    2.9597   -0.8293   -0.3854 N   0  0  0  0  0  0  0  0  0  0  0  0
    3.6482    0.3657    0.0394 N   0  0  0  0  0  0  0  0  0  0  0  0
   -0.7123    0.2684   -0.4793 C   0  0  0  0  0  0  0  0  0  0  0  0
    1.5401   -0.7492   -0.0012 C   0  0  0  0  0  0  0  0  0  0  0  0
    0.7546    0.2666   -0.8427 C   0  0  0  0  0  0  0  0  0  0  0  0
   -1.1861    1.0893    0.5529 C   0  0  0  0  0  0  0  0  0  0  0  0
   -1.6122   -0.5715   -1.1489 C   0  0  0  0  0  0  0  0  0  0  0  0
   -2.9629   -0.5832   -0.7974 C   0  0  0  0  0  0  0  0  0  0  0  0
   -2.5371    1.0761    0.9028 C   0  0  0  0  0  0  0  0  0  0  0  0
   -3.4250    0.2404    0.2276 C   0  0  0  0  0  0  0  0  0  0  0  0
    3.3643   -1.6766    0.0260 H   0  0  0  0  0  0  0  0  0  0  0  0
    3.8496    0.3668    1.0427 H   0  0  0  0  0  0  0  0  0  0  0  0
    4.5511    0.4571   -0.4347 H   0  0  0  0  0  0  0  0  0  0  0  0
    1.1034   -1.7445   -0.1527 H   0  0  0  0  0  0  0  0  0  0  0  0
    1.4427   -0.5337    1.0710 H   0  0  0  0  0  0  0  0  0  0  0  0
    0.8628    0.0372   -1.9108 H   0  0  0  0  0  0  0  0  0  0  0  0
    1.1554    1.2794   -0.7094 H   0  0  0  0  0  0  0  0  0  0  0  0
   -0.5031    1.7455    1.0879 H   0  0  0  0  0  0  0  0  0  0  0  0
   -1.2648   -1.2201   -1.9500 H   0  0  0  0  0  0  0  0  0  0  0  0
   -3.6546   -1.2349   -1.3244 H   0  0  0  0  0  0  0  0  0  0  0  0
   -2.8967    1.7189    1.7018 H   0  0  0  0  0  0  0  0  0  0  0  0
   -4.4770    0.2316    0.4996 H   0  0  0  0  0  0  0  0  0  0  0  0
  2  1  1  0
  3  5  1  0
  4  1  1  0
  5  4  1  0
  6  3  2  0
  7  3  1  0
  8  7  2  0
  9  6  1  0
 10  9  2  0
 10  8  1  0
  1 11  1  0
  2 12  1  0
  2 13  1  0
  4 14  1  0
  4 15  1  0
  5 16  1  0
  5 17  1  0
  6 18  1  0
  7 19  1  0
  8 20  1  0
  9 21  1  0
 10 22  1  0
M  END
$$$$
