
     RDKit          3D

 22 22  0  0  0  0  0  0  0  0999 V2000
    3.0433   -0.4516   -0.0819 N   0  0  0  0  0  0  0  0  0  0  0  0
    4.0213    0.6067   -0.0923 N   0  0  0  0  0  0  0  0  0  0  0  0
   -0.7644   -0.4893   -0.0455 C   0  0  0  0  0  0  0  0  0  0  0  0
    1.6822    0.1047   -0.0518 C   0  0  0  0  0  0  0  0  0  0  0  0
    0.6463   -1.0259   -0.0824 C   0  0  0  0  0  0  0  0  0  0  0  0
   -1.4182   -0.2894    1.1777 C   0  0  0  0  0  0  0  0  0  0  0  0
   -1.4277   -0.1564   -1.2343 C   0  0  0  0  0  0  0  0  0  0  0  0
   -2.7243    0.3587   -1.1998 C   0  0  0  0  0  0  0  0  0  0  0  0
   -2.7149    0.2258    1.2098 C   0  0  0  0  0  0  0  0  0  0  0  0
   -3.3676    0.5492    0.0216 C   0  0  0  0  0  0  0  0  0  0  0  0
    3.1797   -1.0792    0.7175 H   0  0  0  0  0  0  0  0  0  0  0  0
    3.8546    1.3155    0.6265 H   0  0  0  0  0  0  0  0  0  0  0  0
    4.0273    1.0987   -0.9902 H   0  0  0  0  0  0  0  0  0  0  0  0
    1.5439    0.7098    0.8536 H   0  0  0  0  0  0  0  0  0  0  0  0
    1.5304    0.7638   -0.9163 H   0  0  0  0  0  0  0  0  0  0  0  0
    0.7969   -1.7045    0.7675 H   0  0  0  0  0  0  0  0  0  0  0  0
    0.7776   -1.6384   -0.9841 H   0  0  0  0  0  0  0  0  0  0  0  0
   -0.9221   -0.5355    2.1139 H   0  0  0  0  0  0  0  0  0  0  0  0
   -0.9375   -0.2980   -2.1952 H   0  0  0  0  0  0  0  0  0  0  0  0
   -3.2326    0.6111   -2.1267 H   0  0  0  0  0  0  0  0  0  0  0  0
   -3.2166    0.3747    2.1624 H   0  0  0  0  0  0  0  0  0  0  0  0
   -4.3776    0.9495    0.0475 H   0  0  0  0  0  0  0  0  0  0  0  0
  2  1  1  0
  3  5  1  0
  4  1  1  0
  5  4  1  0
  6  3  2  0
  7  3  1  0
  8  7  2  0
  9  6  1  0
 10  9  2  0
 10  8  1  0
  1 11  1  0
  2 12  1  0
  2 13  1  0
  4 14  1  0
  4 15  1  0
  5 16  1  0
  5 17  1  0
  6 18  1  0
  7 19  1  0
  8 20  1  0
  9 21  1  0
 10 22  1  0
M  END
$$$$
