
     RDKit          3D

 10 10  0  0  0  0  0  0  0  0999 V2000
    2.6012    0.4991   -0.0205 N   0  0  0  0  0  0  0  0  0  0  0  0
    1.6537    1.4256    0.3982 N   0  0  0  0  0  0  0  0  0  0  0  0
   -0.1337   -0.6216   -0.2924 C   0  0  0  0  0  0  0  0  0  0  0  0
    2.2616   -0.8709    0.1400 C   0  0  0  0  0  0  0  0  0  0  0  0
    1.0851   -1.3563   -0.6469 C   0  0  0  0  0  0  0  0  0  0  0  0
   -0.8857   -1.0863    0.7645 C   0  0  0  0  0  0  0  0  0  0  0  0
   -0.5060    0.5039   -1.0324 C   0  0  0  0  0  0  0  0  0  0  0  0
   -1.6566    1.1953   -0.7221 C   0  0  0  0  0  0  0  0  0  0  0  0
   -2.0318   -0.3972    1.0733 C   0  0  0  0  0  0  0  0  0  0  0  0
   -2.3879    0.7084    0.3384 C   0  0  0  0  0  0  0  0  0  0  0  0
  2  1  1  0
  3  5  1  0
  4  1  1  0
  5  4  1  0
  6  3  2  0
  7  3  1  0
  8  7  2  0
  9  6  1  0
 10  9  2  0
 10  8  1  0
M  END
