
     RDKit          3D

101102  0  0  0  0  0  0  0  0999 V2000
   -5.1045    1.3431    0.1245 C   0  0  0  0  0  0  0  0  0  0  0  0
   -3.7303    0.8593    0.2262 N   0  0  0  0  0  0  0  0  0  0  0  0
   -3.5510   -0.1495    1.2871 C   0  0  1  0  0  0  0  0  0  0  0  0
   -4.0842   -1.4504    0.6773 C   0  0  0  0  0  0  0  0  0  0  0  0
   -3.8995   -1.2726   -0.8254 C   0  0  0  0  0  0  0  0  0  0  0  0
   -3.2900    0.1269   -0.9772 C   0  0  2  0  0  0  0  0  0  0  0  0
   -1.7505    0.0627   -0.9544 C   0  0  0  0  0  0  0  0  0  0  0  0
   -1.1541    0.2636    0.4484 C   0  0  1  0  0  0  0  0  0  0  0  0
   -2.0443   -0.2652    1.5861 C   0  0  0  0  0  0  0  0  0  0  0  0
    0.1260   -0.3959    0.5466 O   0  0  0  0  0  0  0  0  0  0  0  0
    1.2140    0.2898    0.0873 C   0  0  0  0  0  0  0  0  0  0  0  0
    1.1585    1.3856   -0.4547 O   0  0  0  0  0  0  0  0  0  0  0  0
    2.4824   -0.5351    0.3041 C   0  0  2  0  0  0  0  0  0  0  0  0
    2.5988   -0.9742    1.7760 C   0  0  0  0  0  0  0  0  0  0  0  0
    2.0968   -2.3005    1.9611 O   0  0  0  0  0  0  0  0  0  0  0  0
    3.7508    0.1923   -0.1308 C   0  0  0  0  0  0  0  0  0  0  0  0
    4.5593   -0.3487   -1.1425 C   0  0  0  0  0  0  0  0  0  0  0  0
    5.7418    0.2888   -1.5251 C   0  0  0  0  0  0  0  0  0  0  0  0
    6.1283    1.4755   -0.9041 C   0  0  0  0  0  0  0  0  0  0  0  0
    5.3331    2.0280    0.0982 C   0  0  0  0  0  0  0  0  0  0  0  0
    4.1521    1.3916    0.4839 C   0  0  0  0  0  0  0  0  0  0  0  0
   -4.9501   -0.8993    0.5164 C   0  0  0  0  0  0  0  0  0  0  0  0
   -3.5217   -0.7218    0.2634 N   0  0  0  0  0  0  0  0  0  0  0  0
   -3.2456    0.2347   -0.8252 C   0  0  1  0  0  0  0  0  0  0  0  0
   -3.4209    1.6149   -0.1850 C   0  0  0  0  0  0  0  0  0  0  0  0
   -3.1339    1.3888    1.2943 C   0  0  0  0  0  0  0  0  0  0  0  0
   -2.8157   -0.1078    1.4028 C   0  0  2  0  0  0  0  0  0  0  0  0
   -1.3084   -0.3615    1.2210 C   0  0  0  0  0  0  0  0  0  0  0  0
   -0.9035   -0.6534   -0.2330 C   0  0  1  0  0  0  0  0  0  0  0  0
   -1.7909    0.0286   -1.2859 C   0  0  0  0  0  0  0  0  0  0  0  0
    0.4707   -0.2418   -0.3917 O   0  0  0  0  0  0  0  0  0  0  0  0
    1.1828   -0.8172   -1.3984 C   0  0  0  0  0  0  0  0  0  0  0  0
    0.7302   -1.6211   -2.2052 O   0  0  0  0  0  0  0  0  0  0  0  0
    2.6029   -0.2697   -1.4525 C   0  0  2  0  0  0  0  0  0  0  0  0
    3.4522   -1.1190   -2.4092 C   0  0  0  0  0  0  0  0  0  0  0  0
    3.0338   -0.9414   -3.7624 O   0  0  0  0  0  0  0  0  0  0  0  0
    3.2588   -0.1766   -0.0823 C   0  0  0  0  0  0  0  0  0  0  0  0
    3.4594   -1.3184    0.7128 C   0  0  0  0  0  0  0  0  0  0  0  0
    4.0521   -1.2089    1.9719 C   0  0  0  0  0  0  0  0  0  0  0  0
    4.4501    0.0392    2.4512 C   0  0  0  0  0  0  0  0  0  0  0  0
    4.2590    1.1798    1.6718 C   0  0  0  0  0  0  0  0  0  0  0  0
    3.6657    1.0741    0.4132 C   0  0  0  0  0  0  0  0  0  0  0  0
    0.0370    0.4497    0.0182 S   0  0  0  0  0  0  0  0  0  0  0  0
   -0.8116    1.1652    0.9367 O   0  0  0  0  0  0  0  0  0  0  0  0
   -0.9314   -0.4618   -0.8789 O   0  0  0  0  0  0  0  0  0  0  0  0
    0.8430   -0.6696    0.8388 O   0  0  0  0  0  0  0  0  0  0  0  0
    0.9965    1.0850   -0.8495 O   0  0  0  0  0  0  0  0  0  0  0  0
   -0.0014    0.3975    0.0000 O   0  0  0  0  0  0  0  0  0  0  0  0
    0.0056    0.3979    0.0000 O   0  0  0  0  0  0  0  0  0  0  0  0
   -5.1870    2.0622   -0.6980 H   0  0  0  0  0  0  0  0  0  0  0  0
   -5.3807    1.8756    1.0414 H   0  0  0  0  0  0  0  0  0  0  0  0
   -5.8432    0.5529   -0.0427 H   0  0  0  0  0  0  0  0  0  0  0  0
   -4.0832    0.0951    2.2149 H   0  0  0  0  0  0  0  0  0  0  0  0
   -5.1511   -1.5691    0.9025 H   0  0  0  0  0  0  0  0  0  0  0  0
   -3.5723   -2.3436    1.0485 H   0  0  0  0  0  0  0  0  0  0  0  0
   -4.8776   -1.3240   -1.3195 H   0  0  0  0  0  0  0  0  0  0  0  0
   -3.2745   -2.0640   -1.2532 H   0  0  0  0  0  0  0  0  0  0  0  0
   -3.6149    0.5949   -1.9142 H   0  0  0  0  0  0  0  0  0  0  0  0
   -1.3842   -0.8713   -1.4007 H   0  0  0  0  0  0  0  0  0  0  0  0
   -1.3563    0.8632   -1.5961 H   0  0  0  0  0  0  0  0  0  0  0  0
   -1.0189    1.3421    0.6218 H   0  0  0  0  0  0  0  0  0  0  0  0
   -1.8129    0.3300    2.4808 H   0  0  0  0  0  0  0  0  0  0  0  0
   -1.7711   -1.2970    1.8461 H   0  0  0  0  0  0  0  0  0  0  0  0
    2.3636   -1.4209   -0.3359 H   0  0  0  0  0  0  0  0  0  0  0  0
    2.0388   -0.3106    2.4446 H   0  0  0  0  0  0  0  0  0  0  0  0
    3.6367   -0.9884    2.1272 H   0  0  0  0  0  0  0  0  0  0  0  0
    2.6978   -2.9104    1.4961 H   0  0  0  0  0  0  0  0  0  0  0  0
    4.2779   -1.2743   -1.6423 H   0  0  0  0  0  0  0  0  0  0  0  0
    6.3617   -0.1383   -2.3093 H   0  0  0  0  0  0  0  0  0  0  0  0
    7.0475    1.9729   -1.2039 H   0  0  0  0  0  0  0  0  0  0  0  0
    5.6307    2.9569    0.5784 H   0  0  0  0  0  0  0  0  0  0  0  0
    3.5396    1.8509    1.2582 H   0  0  0  0  0  0  0  0  0  0  0  0
   -5.0997   -1.6386    1.3119 H   0  0  0  0  0  0  0  0  0  0  0  0
   -5.4463   -1.2957   -0.3777 H   0  0  0  0  0  0  0  0  0  0  0  0
   -5.4679    0.0196    0.8109 H   0  0  0  0  0  0  0  0  0  0  0  0
   -3.9118    0.1131   -1.6876 H   0  0  0  0  0  0  0  0  0  0  0  0
   -4.4508    1.9702   -0.3084 H   0  0  0  0  0  0  0  0  0  0  0  0
   -2.7607    2.3762   -0.6132 H   0  0  0  0  0  0  0  0  0  0  0  0
   -2.3239    2.0336    1.6514 H   0  0  0  0  0  0  0  0  0  0  0  0
   -4.0283    1.6364    1.8793 H   0  0  0  0  0  0  0  0  0  0  0  0
   -3.1287   -0.5060    2.3762 H   0  0  0  0  0  0  0  0  0  0  0  0
   -0.7176    0.4678    1.6325 H   0  0  0  0  0  0  0  0  0  0  0  0
   -1.0209   -1.2370    1.8205 H   0  0  0  0  0  0  0  0  0  0  0  0
   -0.9632   -1.7414   -0.3718 H   0  0  0  0  0  0  0  0  0  0  0  0
   -1.3411    0.9733   -1.6148 H   0  0  0  0  0  0  0  0  0  0  0  0
   -1.7992   -0.6152   -2.1762 H   0  0  0  0  0  0  0  0  0  0  0  0
    2.5038    0.7351   -1.8869 H   0  0  0  0  0  0  0  0  0  0  0  0
    4.5039   -0.8157   -2.3613 H   0  0  0  0  0  0  0  0  0  0  0  0
    3.4047   -2.1881   -2.1732 H   0  0  0  0  0  0  0  0  0  0  0  0
    2.1559   -1.3694   -3.8385 H   0  0  0  0  0  0  0  0  0  0  0  0
    3.1523   -2.3032    0.3630 H   0  0  0  0  0  0  0  0  0  0  0  0
    4.2024   -2.0969    2.5827 H   0  0  0  0  0  0  0  0  0  0  0  0
    4.9151    0.1207    3.4301 H   0  0  0  0  0  0  0  0  0  0  0  0
    4.5743    2.1504    2.0430 H   0  0  0  0  0  0  0  0  0  0  0  0
    3.5203    1.9763   -0.1796 H   0  0  0  0  0  0  0  0  0  0  0  0
   -1.7395   -0.6314   -0.3492 H   0  0  0  0  0  0  0  0  0  0  0  0
    1.6060   -0.9372    0.2839 H   0  0  0  0  0  0  0  0  0  0  0  0
   -0.7633   -0.2015    0.0000 H   0  0  0  0  0  0  0  0  0  0  0  0
    0.7648   -0.1961    0.0000 H   0  0  0  0  0  0  0  0  0  0  0  0
   -0.7662   -0.1883    0.0000 H   0  0  0  0  0  0  0  0  0  0  0  0
    0.7607   -0.2096    0.0000 H   0  0  0  0  0  0  0  0  0  0  0  0
  1  2  1  0
  3  2  1  0
  3  4  1  0
  4  5  1  0
  6  5  1  0
  6  2  1  0
  6  7  1  0
  7  8  1  0
  8  9  1  0
  3  9  1  0
  8 10  1  0
 10 11  1  0
 11 12  2  0
 11 13  1  0
 13 14  1  0
 14 15  1  0
 13 16  1  0
 16 17  2  0
 17 18  1  0
 18 19  2  0
 19 20  1  0
 20 21  2  0
 16 21  1  0
 22 23  1  0
 24 23  1  0
 24 25  1  0
 25 26  1  0
 27 26  1  0
 27 23  1  0
 27 28  1  0
 28 29  1  0
 29 30  1  0
 24 30  1  0
 29 31  1  0
 31 32  1  0
 32 33  2  0
 32 34  1  0
 34 35  1  0
 35 36  1  0
 34 37  1  0
 37 38  2  0
 38 39  1  0
 39 40  2  0
 40 41  1  0
 41 42  2  0
 37 42  1  0
 43 44  2  0
 43 45  1  0
 43 46  1  0
 43 47  2  0
  1 50  1  0
  1 51  1  0
  1 52  1  0
  3 53  1  1
  4 54  1  0
  4 55  1  0
  5 56  1  0
  5 57  1  0
  6 58  1  6
  7 59  1  0
  7 60  1  0
  8 61  1  1
  9 62  1  0
  9 63  1  0
 13 64  1  6
 14 65  1  0
 14 66  1  0
 15 67  1  0
 17 68  1  0
 18 69  1  0
 19 70  1  0
 20 71  1  0
 21 72  1  0
 22 73  1  0
 22 74  1  0
 22 75  1  0
 24 76  1  6
 25 77  1  0
 25 78  1  0
 26 79  1  0
 26 80  1  0
 27 81  1  1
 28 82  1  0
 28 83  1  0
 29 84  1  6
 30 85  1  0
 30 86  1  0
 34 87  1  6
 35 88  1  0
 35 89  1  0
 36 90  1  0
 38 91  1  0
 39 92  1  0
 40 93  1  0
 41 94  1  0
 42 95  1  0
 45 96  1  0
 46 97  1  0
 48 98  1  0
 48 99  1  0
 49100  1  0
 49101  1  0
M  END
$$$$
