
     RDKit          3D

101102  0  0  0  0  0  0  0  0999 V2000
   -4.5326    1.0519   -0.3620 C   0  0  0  0  0  0  0  0  0  0  0  0
   -3.5015    0.1758   -0.8972 N   0  0  0  0  0  0  0  0  0  0  0  0
   -3.1246   -0.9657   -0.0561 C   0  0  1  0  0  0  0  0  0  0  0  0
   -2.0358   -1.5960   -0.9319 C   0  0  0  0  0  0  0  0  0  0  0  0
   -1.4318   -0.4145   -1.7028 C   0  0  0  0  0  0  0  0  0  0  0  0
   -2.2132    0.8096   -1.2104 C   0  0  2  0  0  0  0  0  0  0  0  0
   -1.5507    1.4536    0.0246 C   0  0  0  0  0  0  0  0  0  0  0  0
   -1.4198    0.4890    1.2193 C   0  0  1  0  0  0  0  0  0  0  0  0
   -2.5791   -0.5222    1.3174 C   0  0  0  0  0  0  0  0  0  0  0  0
   -0.1972   -0.2722    1.0958 O   0  0  0  0  0  0  0  0  0  0  0  0
    0.9384    0.3097    1.5674 C   0  0  0  0  0  0  0  0  0  0  0  0
    1.0088    1.4083    2.1054 O   0  0  0  0  0  0  0  0  0  0  0  0
    2.1338   -0.5877    1.3011 C   0  0  2  0  0  0  0  0  0  0  0  0
    3.1732   -0.4347    2.4295 C   0  0  0  0  0  0  0  0  0  0  0  0
    3.6917    0.8871    2.5699 O   0  0  0  0  0  0  0  0  0  0  0  0
    2.7037   -0.3825   -0.0939 C   0  0  0  0  0  0  0  0  0  0  0  0
    2.7711   -1.4628   -0.9929 C   0  0  0  0  0  0  0  0  0  0  0  0
    3.2817   -1.2888   -2.2860 C   0  0  0  0  0  0  0  0  0  0  0  0
    3.7354   -0.0350   -2.6947 C   0  0  0  0  0  0  0  0  0  0  0  0
    3.6772    1.0439   -1.8139 C   0  0  0  0  0  0  0  0  0  0  0  0
    3.1633    0.8727   -0.5236 C   0  0  0  0  0  0  0  0  0  0  0  0
   -5.2429    1.1761    0.1667 C   0  0  0  0  0  0  0  0  0  0  0  0
   -3.7903    1.0087    0.1861 N   0  0  0  0  0  0  0  0  0  0  0  0
   -3.3487    0.0168    1.1786 C   0  0  1  0  0  0  0  0  0  0  0  0
   -3.5674   -1.3483    0.5220 C   0  0  0  0  0  0  0  0  0  0  0  0
   -3.5212   -1.0680   -0.9716 C   0  0  0  0  0  0  0  0  0  0  0  0
   -3.2761    0.4420   -1.0709 C   0  0  2  0  0  0  0  0  0  0  0  0
   -1.7757    0.7621   -1.1395 C   0  0  0  0  0  0  0  0  0  0  0  0
   -1.0329    0.6835    0.2082 C   0  0  1  0  0  0  0  0  0  0  0  0
   -1.8582    0.2752    1.4445 C   0  0  0  0  0  0  0  0  0  0  0  0
    0.0903   -0.2231    0.1043 O   0  0  0  0  0  0  0  0  0  0  0  0
    1.2123    0.2797   -0.4954 C   0  0  0  0  0  0  0  0  0  0  0  0
    1.2804    1.4074   -0.9738 O   0  0  0  0  0  0  0  0  0  0  0  0
    2.3362   -0.7508   -0.5487 C   0  0  2  0  0  0  0  0  0  0  0  0
    2.1180   -1.9855    0.3437 C   0  0  0  0  0  0  0  0  0  0  0  0
    1.8649   -1.6814    1.7130 O   0  0  0  0  0  0  0  0  0  0  0  0
    3.7051   -0.1121   -0.3409 C   0  0  0  0  0  0  0  0  0  0  0  0
    4.5648    0.0758   -1.4381 C   0  0  0  0  0  0  0  0  0  0  0  0
    5.8158    0.6786   -1.2726 C   0  0  0  0  0  0  0  0  0  0  0  0
    6.2237    1.1057   -0.0123 C   0  0  0  0  0  0  0  0  0  0  0  0
    5.3826    0.9274    1.0836 C   0  0  0  0  0  0  0  0  0  0  0  0
    4.1331    0.3236    0.9228 C   0  0  0  0  0  0  0  0  0  0  0  0
   -0.0611    0.4353    0.1236 S   0  0  0  0  0  0  0  0  0  0  0  0
    0.0095    1.4382   -0.9070 O   0  0  0  0  0  0  0  0  0  0  0  0
   -1.1750   -0.6442   -0.2973 O   0  0  0  0  0  0  0  0  0  0  0  0
    1.2774   -0.4361   -0.0065 O   0  0  0  0  0  0  0  0  0  0  0  0
   -0.2817    0.7310    1.5172 O   0  0  0  0  0  0  0  0  0  0  0  0
   -0.0006    0.3984    0.0000 O   0  0  0  0  0  0  0  0  0  0  0  0
   -0.0151    0.3977    0.0000 O   0  0  0  0  0  0  0  0  0  0  0  0
   -4.7760    1.8385   -1.0870 H   0  0  0  0  0  0  0  0  0  0  0  0
   -4.2609    1.5434    0.5791 H   0  0  0  0  0  0  0  0  0  0  0  0
   -5.4556    0.4839   -0.1916 H   0  0  0  0  0  0  0  0  0  0  0  0
   -3.9560   -1.6670    0.0765 H   0  0  0  0  0  0  0  0  0  0  0  0
   -2.4715   -2.3085   -1.6468 H   0  0  0  0  0  0  0  0  0  0  0  0
   -1.2841   -2.1392   -0.3532 H   0  0  0  0  0  0  0  0  0  0  0  0
   -1.5873   -0.5639   -2.7808 H   0  0  0  0  0  0  0  0  0  0  0  0
   -0.3548   -0.3259   -1.5428 H   0  0  0  0  0  0  0  0  0  0  0  0
   -2.3147    1.5496   -2.0122 H   0  0  0  0  0  0  0  0  0  0  0  0
   -2.1386    2.3262    0.3368 H   0  0  0  0  0  0  0  0  0  0  0  0
   -0.5636    1.8303   -0.2676 H   0  0  0  0  0  0  0  0  0  0  0  0
   -1.3840    1.0540    2.1582 H   0  0  0  0  0  0  0  0  0  0  0  0
   -3.3954   -0.0770    1.8991 H   0  0  0  0  0  0  0  0  0  0  0  0
   -2.2512   -1.4095    1.8718 H   0  0  0  0  0  0  0  0  0  0  0  0
    1.7747   -1.6235    1.3832 H   0  0  0  0  0  0  0  0  0  0  0  0
    2.7216   -0.7095    3.3899 H   0  0  0  0  0  0  0  0  0  0  0  0
    4.0257   -1.1048    2.2629 H   0  0  0  0  0  0  0  0  0  0  0  0
    2.9274    1.4884    2.6953 H   0  0  0  0  0  0  0  0  0  0  0  0
    2.4240   -2.4520   -0.6991 H   0  0  0  0  0  0  0  0  0  0  0  0
    3.3308   -2.1336   -2.9685 H   0  0  0  0  0  0  0  0  0  0  0  0
    4.1334    0.1006   -3.6992 H   0  0  0  0  0  0  0  0  0  0  0  0
    4.0309    2.0236   -2.1334 H   0  0  0  0  0  0  0  0  0  0  0  0
    3.1330    1.7363    0.1398 H   0  0  0  0  0  0  0  0  0  0  0  0
   -5.7967    0.2471   -0.0171 H   0  0  0  0  0  0  0  0  0  0  0  0
   -5.5301    1.8972   -0.6081 H   0  0  0  0  0  0  0  0  0  0  0  0
   -5.5815    1.5902    1.1210 H   0  0  0  0  0  0  0  0  0  0  0  0
   -3.8922    0.0930    2.1283 H   0  0  0  0  0  0  0  0  0  0  0  0
   -2.8188   -2.0904    0.8179 H   0  0  0  0  0  0  0  0  0  0  0  0
   -4.5537   -1.7474    0.7893 H   0  0  0  0  0  0  0  0  0  0  0  0
   -4.4905   -1.3269   -1.4203 H   0  0  0  0  0  0  0  0  0  0  0  0
   -2.7571   -1.6696   -1.4771 H   0  0  0  0  0  0  0  0  0  0  0  0
   -3.7633    0.8572   -1.9659 H   0  0  0  0  0  0  0  0  0  0  0  0
   -1.6762    1.7957   -1.5076 H   0  0  0  0  0  0  0  0  0  0  0  0
   -1.2964    0.1293   -1.8982 H   0  0  0  0  0  0  0  0  0  0  0  0
   -0.6350    1.6810    0.4337 H   0  0  0  0  0  0  0  0  0  0  0  0
   -1.7877    1.0967    2.1759 H   0  0  0  0  0  0  0  0  0  0  0  0
   -1.4131   -0.5985    1.9401 H   0  0  0  0  0  0  0  0  0  0  0  0
    2.3063   -1.1345   -1.5788 H   0  0  0  0  0  0  0  0  0  0  0  0
    2.9964   -2.6370    0.3169 H   0  0  0  0  0  0  0  0  0  0  0  0
    1.2718   -2.5756   -0.0238 H   0  0  0  0  0  0  0  0  0  0  0  0
    0.9898   -1.2497    1.7512 H   0  0  0  0  0  0  0  0  0  0  0  0
    4.2674   -0.2358   -2.4378 H   0  0  0  0  0  0  0  0  0  0  0  0
    6.4655    0.8277   -2.1317 H   0  0  0  0  0  0  0  0  0  0  0  0
    7.1898    1.5863    0.1175 H   0  0  0  0  0  0  0  0  0  0  0  0
    5.6969    1.2625    2.0685 H   0  0  0  0  0  0  0  0  0  0  0  0
    3.4946    0.2084    1.7964 H   0  0  0  0  0  0  0  0  0  0  0  0
   -1.3640   -1.1865    0.4993 H   0  0  0  0  0  0  0  0  0  0  0  0
    1.5951   -0.3378   -0.9293 H   0  0  0  0  0  0  0  0  0  0  0  0
   -0.7630   -0.2003    0.0000 H   0  0  0  0  0  0  0  0  0  0  0  0
    0.7636   -0.1981    0.0000 H   0  0  0  0  0  0  0  0  0  0  0  0
    0.7704   -0.1700    0.0000 H   0  0  0  0  0  0  0  0  0  0  0  0
   -0.7552   -0.2276    0.0000 H   0  0  0  0  0  0  0  0  0  0  0  0
  1  2  1  0
  3  2  1  0
  3  4  1  0
  4  5  1  0
  6  5  1  0
  6  2  1  0
  6  7  1  0
  7  8  1  0
  8  9  1  0
  3  9  1  0
  8 10  1  0
 10 11  1  0
 11 12  2  0
 11 13  1  0
 13 14  1  0
 14 15  1  0
 13 16  1  0
 16 17  2  0
 17 18  1  0
 18 19  2  0
 19 20  1  0
 20 21  2  0
 16 21  1  0
 22 23  1  0
 24 23  1  0
 24 25  1  0
 25 26  1  0
 27 26  1  0
 27 23  1  0
 27 28  1  0
 28 29  1  0
 29 30  1  0
 24 30  1  0
 29 31  1  0
 31 32  1  0
 32 33  2  0
 32 34  1  0
 34 35  1  0
 35 36  1  0
 34 37  1  0
 37 38  2  0
 38 39  1  0
 39 40  2  0
 40 41  1  0
 41 42  2  0
 37 42  1  0
 43 44  2  0
 43 45  1  0
 43 46  1  0
 43 47  2  0
  1 50  1  0
  1 51  1  0
  1 52  1  0
  3 53  1  1
  4 54  1  0
  4 55  1  0
  5 56  1  0
  5 57  1  0
  6 58  1  6
  7 59  1  0
  7 60  1  0
  8 61  1  1
  9 62  1  0
  9 63  1  0
 13 64  1  6
 14 65  1  0
 14 66  1  0
 15 67  1  0
 17 68  1  0
 18 69  1  0
 19 70  1  0
 20 71  1  0
 21 72  1  0
 22 73  1  0
 22 74  1  0
 22 75  1  0
 24 76  1  1
 25 77  1  0
 25 78  1  0
 26 79  1  0
 26 80  1  0
 27 81  1  6
 28 82  1  0
 28 83  1  0
 29 84  1  1
 30 85  1  0
 30 86  1  0
 34 87  1  6
 35 88  1  0
 35 89  1  0
 36 90  1  0
 38 91  1  0
 39 92  1  0
 40 93  1  0
 41 94  1  0
 42 95  1  0
 45 96  1  0
 46 97  1  0
 48 98  1  0
 48 99  1  0
 49100  1  0
 49101  1  0
M  END
$$$$
