
     RDKit          3D

101102  0  0  0  0  0  0  0  0999 V2000
   -4.9771    0.5549    0.0446 C   0  0  0  0  0  0  0  0  0  0  0  0
   -3.5660    0.2769    0.2969 N   0  0  0  0  0  0  0  0  0  0  0  0
   -3.2439   -1.1608    0.2580 C   0  0  1  0  0  0  0  0  0  0  0  0
   -3.1695   -1.5002   -1.2341 C   0  0  0  0  0  0  0  0  0  0  0  0
   -2.7620   -0.1924   -1.9013 C   0  0  0  0  0  0  0  0  0  0  0  0
   -2.6800    0.8197   -0.7512 C   0  0  2  0  0  0  0  0  0  0  0  0
   -1.2534    0.8813   -0.1731 C   0  0  0  0  0  0  0  0  0  0  0  0
   -1.0367   -0.0702    1.0157 C   0  0  1  0  0  0  0  0  0  0  0  0
   -1.8737   -1.3589    0.9356 C   0  0  0  0  0  0  0  0  0  0  0  0
    0.3520   -0.4520    1.1096 O   0  0  0  0  0  0  0  0  0  0  0  0
    1.2098    0.4755    1.6253 C   0  0  0  0  0  0  0  0  0  0  0  0
    0.8858    1.5746    2.0624 O   0  0  0  0  0  0  0  0  0  0  0  0
    2.6359   -0.0451    1.5846 C   0  0  2  0  0  0  0  0  0  0  0  0
    3.5342    0.7529    2.5499 C   0  0  0  0  0  0  0  0  0  0  0  0
    3.5626    2.1578    2.3038 O   0  0  0  0  0  0  0  0  0  0  0  0
    3.1650   -0.1401    0.1617 C   0  0  0  0  0  0  0  0  0  0  0  0
    3.3216   -1.4003   -0.4389 C   0  0  0  0  0  0  0  0  0  0  0  0
    3.7772   -1.5131   -1.7547 C   0  0  0  0  0  0  0  0  0  0  0  0
    4.0778   -0.3696   -2.4910 C   0  0  0  0  0  0  0  0  0  0  0  0
    3.9205    0.8874   -1.9129 C   0  0  0  0  0  0  0  0  0  0  0  0
    3.4648    1.0016   -0.5966 C   0  0  0  0  0  0  0  0  0  0  0  0
   -5.0097    0.3974   -0.7314 C   0  0  0  0  0  0  0  0  0  0  0  0
   -3.5872    0.3854   -0.3991 N   0  0  0  0  0  0  0  0  0  0  0  0
   -3.3325    0.0530    1.0140 C   0  0  1  0  0  0  0  0  0  0  0  0
   -3.4797   -1.4702    1.0869 C   0  0  0  0  0  0  0  0  0  0  0  0
   -3.1274   -1.9528   -0.3127 C   0  0  0  0  0  0  0  0  0  0  0  0
   -2.8410   -0.6712   -1.1044 C   0  0  2  0  0  0  0  0  0  0  0  0
   -1.3465   -0.3084   -1.0431 C   0  0  0  0  0  0  0  0  0  0  0  0
   -0.9858    0.6313    0.1211 C   0  0  1  0  0  0  0  0  0  0  0  0
   -1.8928    0.4821    1.3540 C   0  0  0  0  0  0  0  0  0  0  0  0
    0.3965    0.3888    0.4606 O   0  0  0  0  0  0  0  0  0  0  0  0
    1.0548    1.3799    1.1276 C   0  0  0  0  0  0  0  0  0  0  0  0
    0.5176    2.3967    1.5459 O   0  0  0  0  0  0  0  0  0  0  0  0
    2.5064    1.0015    1.4083 C   0  0  2  0  0  0  0  0  0  0  0  0
    3.3615    2.2549    1.6614 C   0  0  0  0  0  0  0  0  0  0  0  0
    3.6190    3.0110    0.4791 O   0  0  0  0  0  0  0  0  0  0  0  0
    3.1747    0.0742    0.3972 C   0  0  0  0  0  0  0  0  0  0  0  0
    3.9476   -1.0069    0.8507 C   0  0  0  0  0  0  0  0  0  0  0  0
    4.5989   -1.8449   -0.0562 C   0  0  0  0  0  0  0  0  0  0  0  0
    4.4927   -1.6114   -1.4255 C   0  0  0  0  0  0  0  0  0  0  0  0
    3.7310   -0.5425   -1.8910 C   0  0  0  0  0  0  0  0  0  0  0  0
    3.0782    0.2966   -0.9865 C   0  0  0  0  0  0  0  0  0  0  0  0
    0.0645    0.3488    0.1996 S   0  0  0  0  0  0  0  0  0  0  0  0
    0.4494    0.0399    1.5553 O   0  0  0  0  0  0  0  0  0  0  0  0
   -1.0525   -0.7209   -0.2300 O   0  0  0  0  0  0  0  0  0  0  0  0
    1.2939   -0.0679   -0.7452 O   0  0  0  0  0  0  0  0  0  0  0  0
   -0.4304    1.6413   -0.2016 O   0  0  0  0  0  0  0  0  0  0  0  0
    0.0133    0.3981    0.0000 O   0  0  0  0  0  0  0  0  0  0  0  0
    0.0056    0.3976    0.0000 O   0  0  0  0  0  0  0  0  0  0  0  0
   -5.3390    0.1839   -0.9189 H   0  0  0  0  0  0  0  0  0  0  0  0
   -5.1575    1.6349    0.0799 H   0  0  0  0  0  0  0  0  0  0  0  0
   -5.5934    0.1071    0.8308 H   0  0  0  0  0  0  0  0  0  0  0  0
   -3.9882   -1.7852    0.7659 H   0  0  0  0  0  0  0  0  0  0  0  0
   -2.4657   -2.3088   -1.4578 H   0  0  0  0  0  0  0  0  0  0  0  0
   -4.1526   -1.8128   -1.6071 H   0  0  0  0  0  0  0  0  0  0  0  0
   -3.5328    0.1033   -2.6230 H   0  0  0  0  0  0  0  0  0  0  0  0
   -1.8205   -0.2986   -2.4518 H   0  0  0  0  0  0  0  0  0  0  0  0
   -2.9708    1.8208   -1.0917 H   0  0  0  0  0  0  0  0  0  0  0  0
   -1.0689    1.9011    0.1855 H   0  0  0  0  0  0  0  0  0  0  0  0
   -0.5009    0.7098   -0.9513 H   0  0  0  0  0  0  0  0  0  0  0  0
   -1.3259    0.4471    1.9425 H   0  0  0  0  0  0  0  0  0  0  0  0
   -2.0355   -1.7055    1.9659 H   0  0  0  0  0  0  0  0  0  0  0  0
   -1.3025   -2.1592    0.4467 H   0  0  0  0  0  0  0  0  0  0  0  0
    2.6016   -1.0602    2.0059 H   0  0  0  0  0  0  0  0  0  0  0  0
    3.1880    0.6185    3.5809 H   0  0  0  0  0  0  0  0  0  0  0  0
    4.5661    0.3891    2.4997 H   0  0  0  0  0  0  0  0  0  0  0  0
    2.6388    2.4775    2.3735 H   0  0  0  0  0  0  0  0  0  0  0  0
    3.0844   -2.3087    0.1112 H   0  0  0  0  0  0  0  0  0  0  0  0
    3.8971   -2.4944   -2.2063 H   0  0  0  0  0  0  0  0  0  0  0  0
    4.4346   -0.4568   -3.5140 H   0  0  0  0  0  0  0  0  0  0  0  0
    4.1506    1.7827   -2.4852 H   0  0  0  0  0  0  0  0  0  0  0  0
    3.3481    1.9982   -0.1754 H   0  0  0  0  0  0  0  0  0  0  0  0
   -5.5210    1.1842   -0.1668 H   0  0  0  0  0  0  0  0  0  0  0  0
   -5.1433    0.6331   -1.7924 H   0  0  0  0  0  0  0  0  0  0  0  0
   -5.5213   -0.5497   -0.5331 H   0  0  0  0  0  0  0  0  0  0  0  0
   -4.0241    0.5469    1.7064 H   0  0  0  0  0  0  0  0  0  0  0  0
   -4.5156   -1.7448    1.3198 H   0  0  0  0  0  0  0  0  0  0  0  0
   -2.8413   -1.9313    1.8464 H   0  0  0  0  0  0  0  0  0  0  0  0
   -3.9835   -2.4865   -0.7402 H   0  0  0  0  0  0  0  0  0  0  0  0
   -2.2816   -2.6476   -0.2993 H   0  0  0  0  0  0  0  0  0  0  0  0
   -3.1353   -0.7835   -2.1540 H   0  0  0  0  0  0  0  0  0  0  0  0
   -0.7234   -1.2126   -1.0200 H   0  0  0  0  0  0  0  0  0  0  0  0
   -1.0686    0.2101   -1.9724 H   0  0  0  0  0  0  0  0  0  0  0  0
   -1.0716    1.6602   -0.2564 H   0  0  0  0  0  0  0  0  0  0  0  0
   -1.9357    1.4600    1.8508 H   0  0  0  0  0  0  0  0  0  0  0  0
   -1.4384   -0.1927    2.0887 H   0  0  0  0  0  0  0  0  0  0  0  0
    2.4438    0.4577    2.3628 H   0  0  0  0  0  0  0  0  0  0  0  0
    2.8750    2.9251    2.3777 H   0  0  0  0  0  0  0  0  0  0  0  0
    4.3300    1.9779    2.0933 H   0  0  0  0  0  0  0  0  0  0  0  0
    4.2961    2.5299   -0.0315 H   0  0  0  0  0  0  0  0  0  0  0  0
    4.0536   -1.2047    1.9157 H   0  0  0  0  0  0  0  0  0  0  0  0
    5.1895   -2.6819    0.3062 H   0  0  0  0  0  0  0  0  0  0  0  0
    5.0007   -2.2647   -2.1298 H   0  0  0  0  0  0  0  0  0  0  0  0
    3.6465   -0.3594   -2.9591 H   0  0  0  0  0  0  0  0  0  0  0  0
    2.4932    1.1296   -1.3735 H   0  0  0  0  0  0  0  0  0  0  0  0
   -1.9273   -0.2890   -0.1197 H   0  0  0  0  0  0  0  0  0  0  0  0
    1.6025   -0.9522   -0.4584 H   0  0  0  0  0  0  0  0  0  0  0  0
   -0.7690   -0.1733    0.0000 H   0  0  0  0  0  0  0  0  0  0  0  0
    0.7556   -0.2247    0.0000 H   0  0  0  0  0  0  0  0  0  0  0  0
    0.7609   -0.2095    0.0000 H   0  0  0  0  0  0  0  0  0  0  0  0
   -0.7664   -0.1881    0.0000 H   0  0  0  0  0  0  0  0  0  0  0  0
  1  2  1  0
  3  2  1  0
  3  4  1  0
  4  5  1  0
  6  5  1  0
  6  2  1  0
  6  7  1  0
  7  8  1  0
  8  9  1  0
  3  9  1  0
  8 10  1  0
 10 11  1  0
 11 12  2  0
 11 13  1  0
 13 14  1  0
 14 15  1  0
 13 16  1  0
 16 17  2  0
 17 18  1  0
 18 19  2  0
 19 20  1  0
 20 21  2  0
 16 21  1  0
 22 23  1  0
 24 23  1  0
 24 25  1  0
 25 26  1  0
 27 26  1  0
 27 23  1  0
 27 28  1  0
 28 29  1  0
 29 30  1  0
 24 30  1  0
 29 31  1  0
 31 32  1  0
 32 33  2  0
 32 34  1  0
 34 35  1  0
 35 36  1  0
 34 37  1  0
 37 38  2  0
 38 39  1  0
 39 40  2  0
 40 41  1  0
 41 42  2  0
 37 42  1  0
 43 44  2  0
 43 45  1  0
 43 46  1  0
 43 47  2  0
  1 50  1  0
  1 51  1  0
  1 52  1  0
  3 53  1  1
  4 54  1  0
  4 55  1  0
  5 56  1  0
  5 57  1  0
  6 58  1  6
  7 59  1  0
  7 60  1  0
  8 61  1  1
  9 62  1  0
  9 63  1  0
 13 64  1  1
 14 65  1  0
 14 66  1  0
 15 67  1  0
 17 68  1  0
 18 69  1  0
 19 70  1  0
 20 71  1  0
 21 72  1  0
 22 73  1  0
 22 74  1  0
 22 75  1  0
 24 76  1  1
 25 77  1  0
 25 78  1  0
 26 79  1  0
 26 80  1  0
 27 81  1  6
 28 82  1  0
 28 83  1  0
 29 84  1  6
 30 85  1  0
 30 86  1  0
 34 87  1  1
 35 88  1  0
 35 89  1  0
 36 90  1  0
 38 91  1  0
 39 92  1  0
 40 93  1  0
 41 94  1  0
 42 95  1  0
 45 96  1  0
 46 97  1  0
 48 98  1  0
 48 99  1  0
 49100  1  0
 49101  1  0
M  END
$$$$
