
     RDKit          3D

101102  0  0  0  0  0  0  0  0999 V2000
   -4.9668    0.2607    1.9635 C   0  0  0  0  0  0  0  0  0  0  0  0
   -3.6557    0.2815    1.3177 N   0  0  0  0  0  0  0  0  0  0  0  0
   -3.1358   -1.0721    1.0493 C   0  0  1  0  0  0  0  0  0  0  0  0
   -3.8670   -1.5289   -0.2185 C   0  0  0  0  0  0  0  0  0  0  0  0
   -4.2479   -0.2371   -0.9296 C   0  0  0  0  0  0  0  0  0  0  0  0
   -3.6909    0.8727   -0.0320 C   0  0  2  0  0  0  0  0  0  0  0  0
   -2.2482    1.2285   -0.4343 C   0  0  0  0  0  0  0  0  0  0  0  0
   -1.1779    0.4460    0.3449 C   0  0  1  0  0  0  0  0  0  0  0  0
   -1.6224   -0.9557    0.7994 C   0  0  0  0  0  0  0  0  0  0  0  0
   -0.0067    0.3545   -0.4955 O   0  0  0  0  0  0  0  0  0  0  0  0
    1.1850    0.1253    0.1339 C   0  0  0  0  0  0  0  0  0  0  0  0
    1.3196   -0.0020    1.3437 O   0  0  0  0  0  0  0  0  0  0  0  0
    2.2877   -0.0104   -0.9053 C   0  0  2  0  0  0  0  0  0  0  0  0
    2.3040   -1.4620   -1.3982 C   0  0  0  0  0  0  0  0  0  0  0  0
    3.0727   -1.5920   -2.5947 O   0  0  0  0  0  0  0  0  0  0  0  0
    3.6612    0.4439   -0.4200 C   0  0  0  0  0  0  0  0  0  0  0  0
    4.3317    1.4763   -1.0975 C   0  0  0  0  0  0  0  0  0  0  0  0
    5.6017    1.8897   -0.6906 C   0  0  0  0  0  0  0  0  0  0  0  0
    6.2204    1.2779    0.3962 C   0  0  0  0  0  0  0  0  0  0  0  0
    5.5680    0.2545    1.0790 C   0  0  0  0  0  0  0  0  0  0  0  0
    4.2976   -0.1605    0.6749 C   0  0  0  0  0  0  0  0  0  0  0  0
   -5.2877    0.0612    0.0630 C   0  0  0  0  0  0  0  0  0  0  0  0
   -3.9347   -0.1665    0.5674 N   0  0  0  0  0  0  0  0  0  0  0  0
   -3.2201   -1.2239   -0.1674 C   0  0  1  0  0  0  0  0  0  0  0  0
   -2.7385   -0.5453   -1.4525 C   0  0  0  0  0  0  0  0  0  0  0  0
   -2.6218    0.9344   -1.0833 C   0  0  0  0  0  0  0  0  0  0  0  0
   -3.0574    1.0017    0.3833 C   0  0  2  0  0  0  0  0  0  0  0  0
   -1.8796    0.8138    1.3573 C   0  0  0  0  0  0  0  0  0  0  0  0
   -1.1240   -0.5128    1.1542 C   0  0  1  0  0  0  0  0  0  0  0  0
   -2.0558   -1.6673    0.7409 C   0  0  0  0  0  0  0  0  0  0  0  0
   -0.1225   -0.3695    0.1170 O   0  0  0  0  0  0  0  0  0  0  0  0
    1.0428    0.2501    0.4727 C   0  0  0  0  0  0  0  0  0  0  0  0
    1.2639    0.6902    1.5935 O   0  0  0  0  0  0  0  0  0  0  0  0
    1.9748    0.4044   -0.7274 C   0  0  2  0  0  0  0  0  0  0  0  0
    1.7131   -0.6093   -1.8573 C   0  0  0  0  0  0  0  0  0  0  0  0
    1.6995   -1.9677   -1.4219 O   0  0  0  0  0  0  0  0  0  0  0  0
    3.4416    0.4569   -0.3157 C   0  0  0  0  0  0  0  0  0  0  0  0
    4.1426    1.6727   -0.3765 C   0  0  0  0  0  0  0  0  0  0  0  0
    5.4819    1.7426    0.0116 C   0  0  0  0  0  0  0  0  0  0  0  0
    6.1371    0.6022    0.4698 C   0  0  0  0  0  0  0  0  0  0  0  0
    5.4531   -0.6080    0.5419 C   0  0  0  0  0  0  0  0  0  0  0  0
    4.1143   -0.6811    0.1539 C   0  0  0  0  0  0  0  0  0  0  0  0
   -0.0022    0.3815    0.1747 S   0  0  0  0  0  0  0  0  0  0  0  0
    0.4055    0.4116    1.5574 O   0  0  0  0  0  0  0  0  0  0  0  0
    1.2893   -0.0232   -0.6882 O   0  0  0  0  0  0  0  0  0  0  0  0
   -0.9359   -0.9065   -0.0261 O   0  0  0  0  0  0  0  0  0  0  0  0
   -0.6814    1.4752   -0.4738 O   0  0  0  0  0  0  0  0  0  0  0  0
   -0.0496    0.3946    0.0000 O   0  0  0  0  0  0  0  0  0  0  0  0
    0.0019    0.3973    0.0000 O   0  0  0  0  0  0  0  0  0  0  0  0
   -4.8839   -0.1830    2.9620 H   0  0  0  0  0  0  0  0  0  0  0  0
   -5.7272   -0.2983    1.4092 H   0  0  0  0  0  0  0  0  0  0  0  0
   -5.3338    1.2834    2.1049 H   0  0  0  0  0  0  0  0  0  0  0  0
   -3.3073   -1.7749    1.8735 H   0  0  0  0  0  0  0  0  0  0  0  0
   -4.7766   -2.0852    0.0403 H   0  0  0  0  0  0  0  0  0  0  0  0
   -3.2591   -2.1786   -0.8577 H   0  0  0  0  0  0  0  0  0  0  0  0
   -3.8545   -0.2076   -1.9513 H   0  0  0  0  0  0  0  0  0  0  0  0
   -5.3408   -0.1661   -0.9992 H   0  0  0  0  0  0  0  0  0  0  0  0
   -4.3105    1.7749   -0.0933 H   0  0  0  0  0  0  0  0  0  0  0  0
   -2.0777    2.2957   -0.2339 H   0  0  0  0  0  0  0  0  0  0  0  0
   -2.1018    1.1153   -1.5159 H   0  0  0  0  0  0  0  0  0  0  0  0
   -0.9268    1.0431    1.2340 H   0  0  0  0  0  0  0  0  0  0  0  0
   -1.0980   -1.1767    1.7397 H   0  0  0  0  0  0  0  0  0  0  0  0
   -1.2788   -1.7205    0.0918 H   0  0  0  0  0  0  0  0  0  0  0  0
    2.0145    0.6402   -1.7483 H   0  0  0  0  0  0  0  0  0  0  0  0
    2.7037   -2.1576   -0.6518 H   0  0  0  0  0  0  0  0  0  0  0  0
    1.2895   -1.7998   -1.6370 H   0  0  0  0  0  0  0  0  0  0  0  0
    3.9982   -1.3856   -2.3637 H   0  0  0  0  0  0  0  0  0  0  0  0
    3.8716    1.9676   -1.9532 H   0  0  0  0  0  0  0  0  0  0  0  0
    6.1075    2.6910   -1.2229 H   0  0  0  0  0  0  0  0  0  0  0  0
    7.2077    1.6017    0.7144 H   0  0  0  0  0  0  0  0  0  0  0  0
    6.0451   -0.2165    1.9349 H   0  0  0  0  0  0  0  0  0  0  0  0
    3.8082   -0.9533    1.2371 H   0  0  0  0  0  0  0  0  0  0  0  0
   -5.7691    0.8644    0.6309 H   0  0  0  0  0  0  0  0  0  0  0  0
   -5.3287    0.3267   -0.9986 H   0  0  0  0  0  0  0  0  0  0  0  0
   -5.8995   -0.8354    0.2101 H   0  0  0  0  0  0  0  0  0  0  0  0
   -3.8522   -2.0936   -0.3789 H   0  0  0  0  0  0  0  0  0  0  0  0
   -1.7957   -0.9579   -1.8251 H   0  0  0  0  0  0  0  0  0  0  0  0
   -3.4813   -0.6602   -2.2510 H   0  0  0  0  0  0  0  0  0  0  0  0
   -3.3019    1.5216   -1.7124 H   0  0  0  0  0  0  0  0  0  0  0  0
   -1.6122    1.3248   -1.2484 H   0  0  0  0  0  0  0  0  0  0  0  0
   -3.5583    1.9484    0.6147 H   0  0  0  0  0  0  0  0  0  0  0  0
   -1.1992    1.6691    1.2649 H   0  0  0  0  0  0  0  0  0  0  0  0
   -2.2747    0.8328    2.3819 H   0  0  0  0  0  0  0  0  0  0  0  0
   -0.6122   -0.8026    2.0811 H   0  0  0  0  0  0  0  0  0  0  0  0
   -1.4810   -2.4532    0.2360 H   0  0  0  0  0  0  0  0  0  0  0  0
   -2.4817   -2.1109    1.6508 H   0  0  0  0  0  0  0  0  0  0  0  0
    1.7194    1.3861   -1.1508 H   0  0  0  0  0  0  0  0  0  0  0  0
    0.7473   -0.4107   -2.3376 H   0  0  0  0  0  0  0  0  0  0  0  0
    2.4783   -0.5221   -2.6365 H   0  0  0  0  0  0  0  0  0  0  0  0
    0.8760   -2.0974   -0.9178 H   0  0  0  0  0  0  0  0  0  0  0  0
    3.6515    2.5793   -0.7224 H   0  0  0  0  0  0  0  0  0  0  0  0
    6.0110    2.6901   -0.0367 H   0  0  0  0  0  0  0  0  0  0  0  0
    7.1770    0.6590    0.7786 H   0  0  0  0  0  0  0  0  0  0  0  0
    5.9605   -1.4985    0.9039 H   0  0  0  0  0  0  0  0  0  0  0  0
    3.6039   -1.6388    0.2280 H   0  0  0  0  0  0  0  0  0  0  0  0
    1.7373   -0.7606   -0.2230 H   0  0  0  0  0  0  0  0  0  0  0  0
   -1.8127   -0.5781   -0.3209 H   0  0  0  0  0  0  0  0  0  0  0  0
    0.7826   -0.1018    0.0000 H   0  0  0  0  0  0  0  0  0  0  0  0
   -0.7330   -0.2928    0.0000 H   0  0  0  0  0  0  0  0  0  0  0  0
   -0.7651   -0.1949    0.0000 H   0  0  0  0  0  0  0  0  0  0  0  0
    0.7632   -0.2024    0.0000 H   0  0  0  0  0  0  0  0  0  0  0  0
  1  2  1  0
  3  2  1  0
  3  4  1  0
  4  5  1  0
  6  5  1  0
  6  2  1  0
  6  7  1  0
  7  8  1  0
  8  9  1  0
  3  9  1  0
  8 10  1  0
 10 11  1  0
 11 12  2  0
 11 13  1  0
 13 14  1  0
 14 15  1  0
 13 16  1  0
 16 17  2  0
 17 18  1  0
 18 19  2  0
 19 20  1  0
 20 21  2  0
 16 21  1  0
 22 23  1  0
 24 23  1  0
 24 25  1  0
 25 26  1  0
 27 26  1  0
 27 23  1  0
 27 28  1  0
 28 29  1  0
 29 30  1  0
 24 30  1  0
 29 31  1  0
 31 32  1  0
 32 33  2  0
 32 34  1  0
 34 35  1  0
 35 36  1  0
 34 37  1  0
 37 38  2  0
 38 39  1  0
 39 40  2  0
 40 41  1  0
 41 42  2  0
 37 42  1  0
 43 44  2  0
 43 45  1  0
 43 46  1  0
 43 47  2  0
  1 50  1  0
  1 51  1  0
  1 52  1  0
  3 53  1  1
  4 54  1  0
  4 55  1  0
  5 56  1  0
  5 57  1  0
  6 58  1  1
  7 59  1  0
  7 60  1  0
  8 61  1  1
  9 62  1  0
  9 63  1  0
 13 64  1  6
 14 65  1  0
 14 66  1  0
 15 67  1  0
 17 68  1  0
 18 69  1  0
 19 70  1  0
 20 71  1  0
 21 72  1  0
 22 73  1  0
 22 74  1  0
 22 75  1  0
 24 76  1  6
 25 77  1  0
 25 78  1  0
 26 79  1  0
 26 80  1  0
 27 81  1  1
 28 82  1  0
 28 83  1  0
 29 84  1  1
 30 85  1  0
 30 86  1  0
 34 87  1  6
 35 88  1  0
 35 89  1  0
 36 90  1  0
 38 91  1  0
 39 92  1  0
 40 93  1  0
 41 94  1  0
 42 95  1  0
 45 96  1  0
 46 97  1  0
 48 98  1  0
 48 99  1  0
 49100  1  0
 49101  1  0
M  END
$$$$
