
     RDKit          3D

101102  0  0  0  0  0  0  0  0999 V2000
   -5.0240    1.6159   -1.0418 C   0  0  0  0  0  0  0  0  0  0  0  0
   -3.6963    1.1428   -0.6521 N   0  0  0  0  0  0  0  0  0  0  0  0
   -3.6877    0.4895    0.6685 C   0  0  1  0  0  0  0  0  0  0  0  0
   -4.2262   -0.9226    0.4151 C   0  0  0  0  0  0  0  0  0  0  0  0
   -3.9115   -1.1955   -1.0503 C   0  0  0  0  0  0  0  0  0  0  0  0
   -3.1939    0.0708   -1.5309 C   0  0  2  0  0  0  0  0  0  0  0  0
   -1.6744   -0.0562   -1.3230 C   0  0  0  0  0  0  0  0  0  0  0  0
   -1.1909    0.5016    0.0263 C   0  0  1  0  0  0  0  0  0  0  0  0
   -2.2301    0.4409    1.1588 C   0  0  0  0  0  0  0  0  0  0  0  0
   -0.0163   -0.2114    0.4761 O   0  0  0  0  0  0  0  0  0  0  0  0
    1.1756    0.1390   -0.0923 C   0  0  0  0  0  0  0  0  0  0  0  0
    1.2932    0.9726   -0.9797 O   0  0  0  0  0  0  0  0  0  0  0  0
    2.3096   -0.7003    0.4950 C   0  0  2  0  0  0  0  0  0  0  0  0
    2.2586   -0.7014    2.0333 C   0  0  0  0  0  0  0  0  0  0  0  0
    3.1558   -1.6680    2.5880 O   0  0  0  0  0  0  0  0  0  0  0  0
    3.6946   -0.2735    0.0113 C   0  0  0  0  0  0  0  0  0  0  0  0
    4.1699    1.0376    0.1931 C   0  0  0  0  0  0  0  0  0  0  0  0
    5.4635    1.3841   -0.2084 C   0  0  0  0  0  0  0  0  0  0  0  0
    6.2904    0.4334   -0.8018 C   0  0  0  0  0  0  0  0  0  0  0  0
    5.8295   -0.8665   -0.9950 C   0  0  0  0  0  0  0  0  0  0  0  0
    4.5428   -1.2216   -0.5853 C   0  0  0  0  0  0  0  0  0  0  0  0
   -4.9718    0.0097    0.6256 C   0  0  0  0  0  0  0  0  0  0  0  0
   -3.5304   -0.1572    0.4483 N   0  0  0  0  0  0  0  0  0  0  0  0
   -3.1819   -0.7609   -0.8514 C   0  0  1  0  0  0  0  0  0  0  0  0
   -3.2590    0.3952   -1.8555 C   0  0  0  0  0  0  0  0  0  0  0  0
   -3.0393    1.6501   -1.0199 C   0  0  0  0  0  0  0  0  0  0  0  0
   -2.8084    1.1282    0.4010 C   0  0  2  0  0  0  0  0  0  0  0  0
   -1.3156    0.8442    0.6353 C   0  0  0  0  0  0  0  0  0  0  0  0
   -0.9047   -0.6057    0.3331 C   0  0  1  0  0  0  0  0  0  0  0  0
   -1.7472   -1.3058   -0.7439 C   0  0  0  0  0  0  0  0  0  0  0  0
    0.4785   -0.5896   -0.0693 O   0  0  0  0  0  0  0  0  0  0  0  0
    1.2665   -1.6104    0.3703 C   0  0  0  0  0  0  0  0  0  0  0  0
    0.8670   -2.5899    0.9953 O   0  0  0  0  0  0  0  0  0  0  0  0
    2.7145   -1.3962   -0.0453 C   0  0  2  0  0  0  0  0  0  0  0  0
    3.6197   -2.5049    0.5237 C   0  0  0  0  0  0  0  0  0  0  0  0
    3.4989   -2.6870    1.9349 O   0  0  0  0  0  0  0  0  0  0  0  0
    3.2161    0.0087    0.2634 C   0  0  0  0  0  0  0  0  0  0  0  0
    3.3997    0.4544    1.5813 C   0  0  0  0  0  0  0  0  0  0  0  0
    3.8212    1.7603    1.8380 C   0  0  0  0  0  0  0  0  0  0  0  0
    4.0630    2.6362    0.7827 C   0  0  0  0  0  0  0  0  0  0  0  0
    3.8836    2.2094   -0.5300 C   0  0  0  0  0  0  0  0  0  0  0  0
    3.4608    0.9061   -0.7898 C   0  0  0  0  0  0  0  0  0  0  0  0
   -0.1548   -0.3546    0.1640 S   0  0  0  0  0  0  0  0  0  0  0  0
   -1.2223   -1.1429   -0.3972 O   0  0  0  0  0  0  0  0  0  0  0  0
   -0.4579    1.1719   -0.2280 O   0  0  0  0  0  0  0  0  0  0  0  0
    1.1996   -0.6354   -0.6548 O   0  0  0  0  0  0  0  0  0  0  0  0
    0.1798   -0.3710    1.5652 O   0  0  0  0  0  0  0  0  0  0  0  0
    0.0218    0.3962    0.0000 O   0  0  0  0  0  0  0  0  0  0  0  0
   -0.0056    0.3990    0.0000 O   0  0  0  0  0  0  0  0  0  0  0  0
   -5.7876    0.8312   -1.0784 H   0  0  0  0  0  0  0  0  0  0  0  0
   -5.3662    2.3868   -0.3437 H   0  0  0  0  0  0  0  0  0  0  0  0
   -4.9775    2.0850   -2.0303 H   0  0  0  0  0  0  0  0  0  0  0  0
   -4.2978    1.0098    1.4155 H   0  0  0  0  0  0  0  0  0  0  0  0
   -3.7787   -1.6803    1.0672 H   0  0  0  0  0  0  0  0  0  0  0  0
   -5.3113   -0.9566    0.5713 H   0  0  0  0  0  0  0  0  0  0  0  0
   -3.3145   -2.1051   -1.1728 H   0  0  0  0  0  0  0  0  0  0  0  0
   -4.8468   -1.3458   -1.6039 H   0  0  0  0  0  0  0  0  0  0  0  0
   -3.3922    0.2534   -2.5934 H   0  0  0  0  0  0  0  0  0  0  0  0
   -1.3419   -1.0944   -1.4566 H   0  0  0  0  0  0  0  0  0  0  0  0
   -1.1656    0.5094   -2.1175 H   0  0  0  0  0  0  0  0  0  0  0  0
   -0.9339    1.5631   -0.1048 H   0  0  0  0  0  0  0  0  0  0  0  0
   -2.0604   -0.4351    1.7966 H   0  0  0  0  0  0  0  0  0  0  0  0
   -2.0498    1.3077    1.8096 H   0  0  0  0  0  0  0  0  0  0  0  0
    2.1350   -1.7283    0.1429 H   0  0  0  0  0  0  0  0  0  0  0  0
    1.2605   -0.9706    2.3959 H   0  0  0  0  0  0  0  0  0  0  0  0
    2.4990    0.2805    2.4592 H   0  0  0  0  0  0  0  0  0  0  0  0
    4.0623   -1.3722    2.3668 H   0  0  0  0  0  0  0  0  0  0  0  0
    3.5369    1.8043    0.6402 H   0  0  0  0  0  0  0  0  0  0  0  0
    5.8235    2.3994   -0.0610 H   0  0  0  0  0  0  0  0  0  0  0  0
    7.2948    0.7061   -1.1187 H   0  0  0  0  0  0  0  0  0  0  0  0
    6.4701   -1.6122   -1.4613 H   0  0  0  0  0  0  0  0  0  0  0  0
    4.2102   -2.2473   -0.7388 H   0  0  0  0  0  0  0  0  0  0  0  0
   -5.4676   -0.9677    0.6106 H   0  0  0  0  0  0  0  0  0  0  0  0
   -5.4398    0.6406   -0.1377 H   0  0  0  0  0  0  0  0  0  0  0  0
   -5.1778    0.4529    1.6075 H   0  0  0  0  0  0  0  0  0  0  0  0
   -3.8508   -1.5790   -1.1457 H   0  0  0  0  0  0  0  0  0  0  0  0
   -4.2515    0.4349   -2.3203 H   0  0  0  0  0  0  0  0  0  0  0  0
   -2.5216    0.3140   -2.6609 H   0  0  0  0  0  0  0  0  0  0  0  0
   -3.9391    2.2742   -1.0553 H   0  0  0  0  0  0  0  0  0  0  0  0
   -2.2113    2.2543   -1.4019 H   0  0  0  0  0  0  0  0  0  0  0  0
   -3.1592    1.8500    1.1484 H   0  0  0  0  0  0  0  0  0  0  0  0
   -0.6892    1.5504    0.0761 H   0  0  0  0  0  0  0  0  0  0  0  0
   -1.0813    1.0306    1.6915 H   0  0  0  0  0  0  0  0  0  0  0  0
   -1.0119   -1.1622    1.2759 H   0  0  0  0  0  0  0  0  0  0  0  0
   -1.2424   -1.2839   -1.7166 H   0  0  0  0  0  0  0  0  0  0  0  0
   -1.7957   -2.3684   -0.4763 H   0  0  0  0  0  0  0  0  0  0  0  0
    2.7329   -1.5271   -1.1374 H   0  0  0  0  0  0  0  0  0  0  0  0
    4.6707   -2.2922    0.3039 H   0  0  0  0  0  0  0  0  0  0  0  0
    3.3781   -3.4658    0.0546 H   0  0  0  0  0  0  0  0  0  0  0  0
    2.5788   -2.9813    2.0925 H   0  0  0  0  0  0  0  0  0  0  0  0
    3.2117   -0.2081    2.4238 H   0  0  0  0  0  0  0  0  0  0  0  0
    3.9612    2.0928    2.8640 H   0  0  0  0  0  0  0  0  0  0  0  0
    4.3908    3.6512    0.9843 H   0  0  0  0  0  0  0  0  0  0  0  0
    4.0680    2.8937   -1.3529 H   0  0  0  0  0  0  0  0  0  0  0  0
    3.3161    0.6015   -1.8254 H   0  0  0  0  0  0  0  0  0  0  0  0
   -1.4179    1.3252   -0.0949 H   0  0  0  0  0  0  0  0  0  0  0  0
    1.8736    0.0069   -0.3543 H   0  0  0  0  0  0  0  0  0  0  0  0
   -0.7745   -0.1564    0.0000 H   0  0  0  0  0  0  0  0  0  0  0  0
    0.7528   -0.2398    0.0000 H   0  0  0  0  0  0  0  0  0  0  0  0
   -0.7592   -0.2102    0.0000 H   0  0  0  0  0  0  0  0  0  0  0  0
    0.7648   -0.1888    0.0000 H   0  0  0  0  0  0  0  0  0  0  0  0
  1  2  1  0
  3  2  1  0
  3  4  1  0
  4  5  1  0
  6  5  1  0
  6  2  1  0
  6  7  1  0
  7  8  1  0
  8  9  1  0
  3  9  1  0
  8 10  1  0
 10 11  1  0
 11 12  2  0
 11 13  1  0
 13 14  1  0
 14 15  1  0
 13 16  1  0
 16 17  2  0
 17 18  1  0
 18 19  2  0
 19 20  1  0
 20 21  2  0
 16 21  1  0
 22 23  1  0
 24 23  1  0
 24 25  1  0
 25 26  1  0
 27 26  1  0
 27 23  1  0
 27 28  1  0
 28 29  1  0
 29 30  1  0
 24 30  1  0
 29 31  1  0
 31 32  1  0
 32 33  2  0
 32 34  1  0
 34 35  1  0
 35 36  1  0
 34 37  1  0
 37 38  2  0
 38 39  1  0
 39 40  2  0
 40 41  1  0
 41 42  2  0
 37 42  1  0
 43 44  2  0
 43 45  1  0
 43 46  1  0
 43 47  2  0
  1 50  1  0
  1 51  1  0
  1 52  1  0
  3 53  1  1
  4 54  1  0
  4 55  1  0
  5 56  1  0
  5 57  1  0
  6 58  1  6
  7 59  1  0
  7 60  1  0
  8 61  1  6
  9 62  1  0
  9 63  1  0
 13 64  1  6
 14 65  1  0
 14 66  1  0
 15 67  1  0
 17 68  1  0
 18 69  1  0
 19 70  1  0
 20 71  1  0
 21 72  1  0
 22 73  1  0
 22 74  1  0
 22 75  1  0
 24 76  1  6
 25 77  1  0
 25 78  1  0
 26 79  1  0
 26 80  1  0
 27 81  1  1
 28 82  1  0
 28 83  1  0
 29 84  1  1
 30 85  1  0
 30 86  1  0
 34 87  1  6
 35 88  1  0
 35 89  1  0
 36 90  1  0
 38 91  1  0
 39 92  1  0
 40 93  1  0
 41 94  1  0
 42 95  1  0
 45 96  1  0
 46 97  1  0
 48 98  1  0
 48 99  1  0
 49100  1  0
 49101  1  0
M  END
$$$$
