
     RDKit          2D

 53 54  0  0  0  0  0  0  0  0999 V2000
    8.0639    0.4530    0.0000 C   0  0  0  0  0  0  0  0  0  0  0  0
    8.4865   -0.2555    0.0000 N   0  0  0  0  0  0  0  0  0  0  0  0
    9.0471   -0.6954    0.0000 C   0  0  0  0  0  0  0  0  0  0  0  0
    8.7266   -1.4040    0.0000 C   0  0  0  0  0  0  0  0  0  0  0  0
    8.1063   -1.7809    0.0000 C   0  0  0  0  0  0  0  0  0  0  0  0
    8.6262   -1.0686    0.0000 C   0  0  0  0  0  0  0  0  0  0  0  0
    9.5979   -1.0686    0.0000 C   0  0  0  0  0  0  0  0  0  0  0  0
   10.1141   -1.4973    0.0000 C   0  0  0  0  0  0  0  0  0  0  0  0
    9.9759   -0.6799    0.0000 C   0  0  0  0  0  0  0  0  0  0  0  0
   10.5259   -2.2122    0.0000 O   0  0  0  0  0  0  0  0  0  0  0  0
   10.1127   -2.9262    0.0000 C   0  0  0  0  0  0  0  0  0  0  0  0
    9.2877   -2.9254    0.0000 O   0  0  0  0  0  0  0  0  0  0  0  0
   10.5245   -3.6411    0.0000 C   0  0  0  0  0  0  0  0  0  0  0  0
   11.3495   -3.6419    0.0000 C   0  0  0  0  0  0  0  0  0  0  0  0
   11.7613   -4.3568    0.0000 O   0  0  0  0  0  0  0  0  0  0  0  0
   10.1113   -4.3552    0.0000 C   0  0  0  0  0  0  0  0  0  0  0  0
   10.5231   -5.0701    0.0000 C   0  0  0  0  0  0  0  0  0  0  0  0
   10.1099   -5.7841    0.0000 C   0  0  0  0  0  0  0  0  0  0  0  0
    9.2849   -5.7833    0.0000 C   0  0  0  0  0  0  0  0  0  0  0  0
    8.8731   -5.0684    0.0000 C   0  0  0  0  0  0  0  0  0  0  0  0
    9.2863   -4.3544    0.0000 C   0  0  0  0  0  0  0  0  0  0  0  0
    9.0792   -1.9601    0.0000 H   0  0  0  0  0  0  0  0  0  0  0  0
    9.5963   -1.5311    0.0000 H   0  0  0  0  0  0  0  0  0  0  0  0
    0.0773    0.5912    0.0000 C   0  0  0  0  0  0  0  0  0  0  0  0
    0.4999   -0.1173    0.0000 N   0  0  0  0  0  0  0  0  0  0  0  0
    1.0605   -0.5572    0.0000 C   0  0  0  0  0  0  0  0  0  0  0  0
    0.7400   -1.2658    0.0000 C   0  0  0  0  0  0  0  0  0  0  0  0
    0.1197   -1.6427    0.0000 C   0  0  0  0  0  0  0  0  0  0  0  0
    0.6396   -0.9304    0.0000 C   0  0  0  0  0  0  0  0  0  0  0  0
    1.6113   -0.9304    0.0000 C   0  0  0  0  0  0  0  0  0  0  0  0
    2.1275   -1.3591    0.0000 C   0  0  0  0  0  0  0  0  0  0  0  0
    1.9893   -0.5417    0.0000 C   0  0  0  0  0  0  0  0  0  0  0  0
    2.5393   -2.0740    0.0000 O   0  0  0  0  0  0  0  0  0  0  0  0
    2.1261   -2.7880    0.0000 C   0  0  0  0  0  0  0  0  0  0  0  0
    1.3011   -2.7872    0.0000 O   0  0  0  0  0  0  0  0  0  0  0  0
    2.5379   -3.5029    0.0000 C   0  0  0  0  0  0  0  0  0  0  0  0
    3.3629   -3.5037    0.0000 C   0  0  0  0  0  0  0  0  0  0  0  0
    3.7747   -4.2186    0.0000 O   0  0  0  0  0  0  0  0  0  0  0  0
    2.1247   -4.2170    0.0000 C   0  0  0  0  0  0  0  0  0  0  0  0
    2.5365   -4.9319    0.0000 C   0  0  0  0  0  0  0  0  0  0  0  0
    2.1233   -5.6459    0.0000 C   0  0  0  0  0  0  0  0  0  0  0  0
    1.2983   -5.6451    0.0000 C   0  0  0  0  0  0  0  0  0  0  0  0
    0.8865   -4.9302    0.0000 C   0  0  0  0  0  0  0  0  0  0  0  0
    1.2997   -4.2162    0.0000 C   0  0  0  0  0  0  0  0  0  0  0  0
    1.0926   -1.8219    0.0000 H   0  0  0  0  0  0  0  0  0  0  0  0
    1.6097   -1.3929    0.0000 H   0  0  0  0  0  0  0  0  0  0  0  0
    6.9536   -3.8304    0.0000 S   0  0  0  0  0  0  0  0  0  0  0  0
    7.7786   -3.8304    0.0000 O   0  0  0  0  0  0  0  0  0  0  0  0
    6.1286   -3.8304    0.0000 O   0  0  0  0  0  0  0  0  0  0  0  0
    6.9536   -3.0054    0.0000 O   0  0  0  0  0  0  0  0  0  0  0  0
    6.9536   -4.6554    0.0000 O   0  0  0  0  0  0  0  0  0  0  0  0
    5.7857   -0.8839    0.0000 O   0  0  0  0  0  0  0  0  0  0  0  0
    6.8571   -1.8750    0.0000 O   0  0  0  0  0  0  0  0  0  0  0  0
  1  2  1  0
  3  2  1  0
  3  4  1  0
  4  5  1  0
  5  6  1  0
  6  2  1  0
  6  7  1  0
  7  8  1  0
  8  9  1  0
  3  9  1  0
  8 10  1  1
 10 11  1  0
 11 12  2  0
 11 13  1  0
 13 14  1  6
 14 15  1  0
 13 16  1  0
 16 17  2  0
 17 18  1  0
 18 19  2  0
 19 20  1  0
 20 21  2  0
 16 21  1  0
  6 22  1  6
  3 23  1  1
 24 25  1  0
 26 25  1  0
 26 27  1  0
 27 28  1  0
 28 29  1  0
 29 25  1  0
 29 30  1  0
 30 31  1  0
 31 32  1  0
 26 32  1  0
 31 33  1  1
 33 34  1  0
 34 35  2  0
 34 36  1  0
 36 37  1  6
 37 38  1  0
 36 39  1  0
 39 40  2  0
 40 41  1  0
 41 42  2  0
 42 43  1  0
 43 44  2  0
 39 44  1  0
 29 45  1  6
 26 46  1  1
 47 48  2  0
 47 49  1  0
 47 50  1  0
 47 51  2  0
M  END
> <chembl_id>
CHEMBL3989570

> <chembl_pref_name>
HYOSCYAMINE SULFATE
