
     RDKit          3D

101102  0  0  0  0  0  0  0  0999 V2000
   -4.9074    0.0812    1.1379 C   0  0  0  0  0  0  0  0  0  0  0  0
   -3.5362    0.3280    0.6996 N   0  0  0  0  0  0  0  0  0  0  0  0
   -2.5700   -0.6156    1.2898 C   0  0  1  0  0  0  0  0  0  0  0  0
   -2.7043   -1.8918    0.4508 C   0  0  0  0  0  0  0  0  0  0  0  0
   -3.2379   -1.4162   -0.8932 C   0  0  0  0  0  0  0  0  0  0  0  0
   -3.3461    0.1047   -0.7446 C   0  0  2  0  0  0  0  0  0  0  0  0
   -2.0312    0.7856   -1.1647 C   0  0  0  0  0  0  0  0  0  0  0  0
   -1.0531    1.0189   -0.0018 C   0  0  1  0  0  0  0  0  0  0  0  0
   -1.1648   -0.0053    1.1405 C   0  0  0  0  0  0  0  0  0  0  0  0
    0.2837    1.0030   -0.5445 O   0  0  0  0  0  0  0  0  0  0  0  0
    1.2378    1.6865    0.1468 C   0  0  0  0  0  0  0  0  0  0  0  0
    1.0405    2.3086    1.1855 O   0  0  0  0  0  0  0  0  0  0  0  0
    2.6184    1.5135   -0.4723 C   0  0  2  0  0  0  0  0  0  0  0  0
    2.5933    1.6277   -2.0025 C   0  0  0  0  0  0  0  0  0  0  0  0
    2.3833    2.9798   -2.4138 O   0  0  0  0  0  0  0  0  0  0  0  0
    3.2739    0.2271    0.0083 C   0  0  0  0  0  0  0  0  0  0  0  0
    2.8650   -1.0312   -0.4619 C   0  0  0  0  0  0  0  0  0  0  0  0
    3.4707   -2.1977    0.0092 C   0  0  0  0  0  0  0  0  0  0  0  0
    4.4909   -2.1237    0.9545 C   0  0  0  0  0  0  0  0  0  0  0  0
    4.9038   -0.8827    1.4322 C   0  0  0  0  0  0  0  0  0  0  0  0
    4.2992    0.2851    0.9646 C   0  0  0  0  0  0  0  0  0  0  0  0
    4.2064    0.3140   -1.6699 C   0  0  0  0  0  0  0  0  0  0  0  0
    3.5312   -0.4259   -0.6215 N   0  0  0  0  0  0  0  0  0  0  0  0
    2.2778   -1.0867   -0.9968 C   0  0  1  0  0  0  0  0  0  0  0  0
    1.8981   -1.7160    0.3485 C   0  0  0  0  0  0  0  0  0  0  0  0
    2.5196   -0.7870    1.3977 C   0  0  0  0  0  0  0  0  0  0  0  0
    3.1790    0.3279    0.5834 C   0  0  2  0  0  0  0  0  0  0  0  0
    2.2014    1.4827    0.2973 C   0  0  0  0  0  0  0  0  0  0  0  0
    0.9591    1.0669   -0.5053 C   0  0  1  0  0  0  0  0  0  0  0  0
    1.2185   -0.0862   -1.4886 C   0  0  0  0  0  0  0  0  0  0  0  0
   -0.1084    0.6567    0.3839 O   0  0  0  0  0  0  0  0  0  0  0  0
   -0.9771    1.6359    0.7703 C   0  0  0  0  0  0  0  0  0  0  0  0
   -0.8034    2.8371    0.5938 O   0  0  0  0  0  0  0  0  0  0  0  0
   -2.2143    1.0563    1.4363 C   0  0  2  0  0  0  0  0  0  0  0  0
   -1.8279    0.4901    2.8123 C   0  0  0  0  0  0  0  0  0  0  0  0
   -1.0493   -0.7008    2.7631 O   0  0  0  0  0  0  0  0  0  0  0  0
   -3.0208    0.1807    0.4847 C   0  0  0  0  0  0  0  0  0  0  0  0
   -3.5366    0.7607   -0.6909 C   0  0  0  0  0  0  0  0  0  0  0  0
   -4.2754    0.0069   -1.6059 C   0  0  0  0  0  0  0  0  0  0  0  0
   -4.5144   -1.3409   -1.3592 C   0  0  0  0  0  0  0  0  0  0  0  0
   -4.0233   -1.9303   -0.1984 C   0  0  0  0  0  0  0  0  0  0  0  0
   -3.2845   -1.1755    0.7171 C   0  0  0  0  0  0  0  0  0  0  0  0
    0.0109    0.4049    0.0767 S   0  0  0  0  0  0  0  0  0  0  0  0
    0.3894    0.5101    1.4636 O   0  0  0  0  0  0  0  0  0  0  0  0
    1.3127   -0.0557   -0.7401 O   0  0  0  0  0  0  0  0  0  0  0  0
   -0.9264   -0.8924   -0.0520 O   0  0  0  0  0  0  0  0  0  0  0  0
   -0.6505    1.4691   -0.6360 O   0  0  0  0  0  0  0  0  0  0  0  0
   -0.0409    0.3952    0.0000 O   0  0  0  0  0  0  0  0  0  0  0  0
   -0.0421    0.3949    0.0000 O   0  0  0  0  0  0  0  0  0  0  0  0
   -5.5892    0.7864    0.6501 H   0  0  0  0  0  0  0  0  0  0  0  0
   -5.2630   -0.9342    0.9322 H   0  0  0  0  0  0  0  0  0  0  0  0
   -4.9937    0.2542    2.2165 H   0  0  0  0  0  0  0  0  0  0  0  0
   -2.7565   -0.8239    2.3503 H   0  0  0  0  0  0  0  0  0  0  0  0
   -1.7600   -2.4311    0.3383 H   0  0  0  0  0  0  0  0  0  0  0  0
   -3.4224   -2.5812    0.9095 H   0  0  0  0  0  0  0  0  0  0  0  0
   -2.5880   -1.7246   -1.7177 H   0  0  0  0  0  0  0  0  0  0  0  0
   -4.2249   -1.8566   -1.0728 H   0  0  0  0  0  0  0  0  0  0  0  0
   -4.1645    0.5019   -1.3581 H   0  0  0  0  0  0  0  0  0  0  0  0
   -1.5416    0.2325   -1.9776 H   0  0  0  0  0  0  0  0  0  0  0  0
   -2.2655    1.7698   -1.5933 H   0  0  0  0  0  0  0  0  0  0  0  0
   -1.2685    2.0194    0.4013 H   0  0  0  0  0  0  0  0  0  0  0  0
   -0.4048   -0.7886    1.0364 H   0  0  0  0  0  0  0  0  0  0  0  0
   -0.9133    0.5191    2.0718 H   0  0  0  0  0  0  0  0  0  0  0  0
    3.2072    2.3682   -0.1080 H   0  0  0  0  0  0  0  0  0  0  0  0
    1.8083    1.0172   -2.4624 H   0  0  0  0  0  0  0  0  0  0  0  0
    3.5475    1.3045   -2.4370 H   0  0  0  0  0  0  0  0  0  0  0  0
    3.1934    3.4826   -2.2119 H   0  0  0  0  0  0  0  0  0  0  0  0
    2.0617   -1.1199   -1.1911 H   0  0  0  0  0  0  0  0  0  0  0  0
    3.1419   -3.1667   -0.3574 H   0  0  0  0  0  0  0  0  0  0  0  0
    4.9610   -3.0330    1.3208 H   0  0  0  0  0  0  0  0  0  0  0  0
    5.6940   -0.8239    2.1770 H   0  0  0  0  0  0  0  0  0  0  0  0
    4.6316    1.2422    1.3625 H   0  0  0  0  0  0  0  0  0  0  0  0
    3.6419    1.1680   -2.0552 H   0  0  0  0  0  0  0  0  0  0  0  0
    5.1671    0.6900   -1.3021 H   0  0  0  0  0  0  0  0  0  0  0  0
    4.4294   -0.3499   -2.5131 H   0  0  0  0  0  0  0  0  0  0  0  0
    2.4360   -1.8632   -1.7523 H   0  0  0  0  0  0  0  0  0  0  0  0
    2.3469   -2.7142    0.4430 H   0  0  0  0  0  0  0  0  0  0  0  0
    0.8177   -1.8327    0.4775 H   0  0  0  0  0  0  0  0  0  0  0  0
    3.2763   -1.3434    1.9639 H   0  0  0  0  0  0  0  0  0  0  0  0
    1.7920   -0.4108    2.1204 H   0  0  0  0  0  0  0  0  0  0  0  0
    4.0680    0.7038    1.1015 H   0  0  0  0  0  0  0  0  0  0  0  0
    2.7369    2.2553   -0.2683 H   0  0  0  0  0  0  0  0  0  0  0  0
    1.9007    1.9423    1.2467 H   0  0  0  0  0  0  0  0  0  0  0  0
    0.6093    1.9235   -1.0956 H   0  0  0  0  0  0  0  0  0  0  0  0
    1.5496    0.3355   -2.4460 H   0  0  0  0  0  0  0  0  0  0  0  0
    0.2819   -0.6201   -1.6922 H   0  0  0  0  0  0  0  0  0  0  0  0
   -2.8623    1.9190    1.6552 H   0  0  0  0  0  0  0  0  0  0  0  0
   -1.2560    1.2298    3.3831 H   0  0  0  0  0  0  0  0  0  0  0  0
   -2.7291    0.2591    3.3899 H   0  0  0  0  0  0  0  0  0  0  0  0
   -0.3086   -0.5505    2.1461 H   0  0  0  0  0  0  0  0  0  0  0  0
   -3.3654    1.8142   -0.9064 H   0  0  0  0  0  0  0  0  0  0  0  0
   -4.6600    0.4725   -2.5106 H   0  0  0  0  0  0  0  0  0  0  0  0
   -5.0867   -1.9318   -2.0696 H   0  0  0  0  0  0  0  0  0  0  0  0
   -4.2150   -2.9839   -0.0018 H   0  0  0  0  0  0  0  0  0  0  0  0
   -2.9263   -1.6791    1.6120 H   0  0  0  0  0  0  0  0  0  0  0  0
    1.7081   -0.8176   -0.2720 H   0  0  0  0  0  0  0  0  0  0  0  0
   -1.8441   -0.6183    0.1598 H   0  0  0  0  0  0  0  0  0  0  0  0
    0.7801   -0.1191    0.0000 H   0  0  0  0  0  0  0  0  0  0  0  0
   -0.7392   -0.2761    0.0000 H   0  0  0  0  0  0  0  0  0  0  0  0
   -0.7381   -0.2781    0.0000 H   0  0  0  0  0  0  0  0  0  0  0  0
    0.7802   -0.1169    0.0000 H   0  0  0  0  0  0  0  0  0  0  0  0
  1  2  1  0
  3  2  1  0
  3  4  1  0
  4  5  1  0
  6  5  1  0
  6  2  1  0
  6  7  1  0
  7  8  1  0
  8  9  1  0
  3  9  1  0
  8 10  1  0
 10 11  1  0
 11 12  2  0
 11 13  1  0
 13 14  1  0
 14 15  1  0
 13 16  1  0
 16 17  2  0
 17 18  1  0
 18 19  2  0
 19 20  1  0
 20 21  2  0
 16 21  1  0
 22 23  1  0
 24 23  1  0
 24 25  1  0
 25 26  1  0
 27 26  1  0
 27 23  1  0
 27 28  1  0
 28 29  1  0
 29 30  1  0
 24 30  1  0
 29 31  1  0
 31 32  1  0
 32 33  2  0
 32 34  1  0
 34 35  1  0
 35 36  1  0
 34 37  1  0
 37 38  2  0
 38 39  1  0
 39 40  2  0
 40 41  1  0
 41 42  2  0
 37 42  1  0
 43 44  2  0
 43 45  1  0
 43 46  1  0
 43 47  2  0
  1 50  1  0
  1 51  1  0
  1 52  1  0
  3 53  1  1
  4 54  1  0
  4 55  1  0
  5 56  1  0
  5 57  1  0
  6 58  1  6
  7 59  1  0
  7 60  1  0
  8 61  1  1
  9 62  1  0
  9 63  1  0
 13 64  1  1
 14 65  1  0
 14 66  1  0
 15 67  1  0
 17 68  1  0
 18 69  1  0
 19 70  1  0
 20 71  1  0
 21 72  1  0
 22 73  1  0
 22 74  1  0
 22 75  1  0
 24 76  1  6
 25 77  1  0
 25 78  1  0
 26 79  1  0
 26 80  1  0
 27 81  1  1
 28 82  1  0
 28 83  1  0
 29 84  1  6
 30 85  1  0
 30 86  1  0
 34 87  1  1
 35 88  1  0
 35 89  1  0
 36 90  1  0
 38 91  1  0
 39 92  1  0
 40 93  1  0
 41 94  1  0
 42 95  1  0
 45 96  1  0
 46 97  1  0
 48 98  1  0
 48 99  1  0
 49100  1  0
 49101  1  0
M  END
$$$$
