
     RDKit          3D

 74 77  0  0  0  0  0  0  0  0999 V2000
   49.7376    7.5915   14.0451 N   0  0  0  0  0  0  0  0  0  0  0  0
   47.7057    7.6193   12.6119 C   0  0  0  0  0  0  0  0  0  0  0  0
   49.5789    6.0558   17.5228 C   0  0  0  0  0  0  0  0  0  0  0  0
   49.1688    7.2639   12.7355 C   0  0  0  0  0  0  0  0  0  0  0  0
   49.3285    6.6436   15.0867 C   0  0  0  0  0  0  0  0  0  0  0  0
   49.9754    7.0164   16.4275 C   0  0  0  0  0  0  0  0  0  0  0  0
   50.3536    4.9178   17.7840 C   0  0  0  0  0  0  0  0  0  0  0  0
   48.4148    6.2736   18.2726 C   0  0  0  0  0  0  0  0  0  0  0  0
   46.7202    6.6230   12.6628 C   0  0  0  0  0  0  0  0  0  0  0  0
   47.3098    8.9571   12.4611 C   0  0  0  0  0  0  0  0  0  0  0  0
   49.9756    4.0198   18.7835 C   0  0  0  0  0  0  0  0  0  0  0  0
   48.0386    5.3746   19.2717 C   0  0  0  0  0  0  0  0  0  0  0  0
   45.3688    6.9578   12.5621 C   0  0  0  0  0  0  0  0  0  0  0  0
   45.9580    9.2895   12.3600 C   0  0  0  0  0  0  0  0  0  0  0  0
   48.8193    4.2487   19.5272 C   0  0  0  0  0  0  0  0  0  0  0  0
   44.9883    8.2899   12.4101 C   0  0  0  0  0  0  0  0  0  0  0  0
   49.9525    6.2084   17.2909 N   0  0  0  0  0  0  0  0  0  0  0  0
   48.8768    7.1262   16.8654 C   0  0  1  0  0  0  0  0  0  0  0  0
   50.8904    6.7916   16.4815 C   0  0  0  0  0  0  0  0  0  0  0  0
   49.9575    7.9802   16.1595 C   0  0  1  0  0  0  0  0  0  0  0  0
   49.7120    4.7676   17.1761 C   0  0  2  0  0  0  0  0  0  0  0  0
   47.7948    6.0561   15.8331 S   0  0  0  0  0  0  0  0  0  0  0  0
   48.2136    4.5681   16.8630 C   0  0  0  0  0  0  0  0  0  0  0  0
   49.7522    8.2854   14.7184 N   0  0  0  0  0  0  0  0  0  0  0  0
   50.1789    3.9834   18.3996 C   0  0  0  0  0  0  0  0  0  0  0  0
   48.8505    9.2530   14.3314 C   0  0  0  0  0  0  0  0  0  0  0  0
   51.9622    6.3898   16.0911 O   0  0  0  0  0  0  0  0  0  0  0  0
   50.0938    2.7712   18.5384 O   0  0  0  0  0  0  0  0  0  0  0  0
   48.2555    9.9521   15.1461 O   0  0  0  0  0  0  0  0  0  0  0  0
   48.6552    9.3750   12.8323 C   0  0  0  0  0  0  0  0  0  0  0  0
   50.7051    4.7331   19.3886 O   0  0  0  0  0  0  0  0  0  0  0  0
   47.3044    4.5742   18.0997 C   0  0  0  0  0  0  0  0  0  0  0  0
   47.9624    3.3123   16.0248 C   0  0  0  0  0  0  0  0  0  0  0  0
   47.3367    8.8033   12.3782 C   0  0  0  0  0  0  0  0  0  0  0  0
   46.1859    9.6052   12.3698 C   0  0  0  0  0  0  0  0  0  0  0  0
   47.2313    7.4582   11.9964 C   0  0  0  0  0  0  0  0  0  0  0  0
   44.9570    9.0768   11.9717 C   0  0  0  0  0  0  0  0  0  0  0  0
   45.9999    6.9310   11.6010 C   0  0  0  0  0  0  0  0  0  0  0  0
   44.8644    7.7407   11.5863 C   0  0  0  0  0  0  0  0  0  0  0  0
   49.4408    8.5306   14.3067 H   0  0  0  0  0  0  0  0  0  0  0  0
   49.3365    6.2077   12.4897 H   0  0  0  0  0  0  0  0  0  0  0  0
   49.7208    7.8262   11.9720 H   0  0  0  0  0  0  0  0  0  0  0  0
   49.6353    5.6288   14.8051 H   0  0  0  0  0  0  0  0  0  0  0  0
   48.2385    6.6399   15.2018 H   0  0  0  0  0  0  0  0  0  0  0  0
   51.0688    7.0292   16.3329 H   0  0  0  0  0  0  0  0  0  0  0  0
   49.6878    8.0346   16.7193 H   0  0  0  0  0  0  0  0  0  0  0  0
   51.2573    4.7248   17.2099 H   0  0  0  0  0  0  0  0  0  0  0  0
   47.7941    7.1462   18.0818 H   0  0  0  0  0  0  0  0  0  0  0  0
   47.0009    5.5791   12.7852 H   0  0  0  0  0  0  0  0  0  0  0  0
   48.0563    9.7473   12.4197 H   0  0  0  0  0  0  0  0  0  0  0  0
   50.5834    3.1411   18.9816 H   0  0  0  0  0  0  0  0  0  0  0  0
   47.1352    5.5524   19.8493 H   0  0  0  0  0  0  0  0  0  0  0  0
   44.6122    6.1787   12.6029 H   0  0  0  0  0  0  0  0  0  0  0  0
   45.6615   10.3282   12.2421 H   0  0  0  0  0  0  0  0  0  0  0  0
   48.5264    3.5492   20.3054 H   0  0  0  0  0  0  0  0  0  0  0  0
   43.9359    8.5487   12.3314 H   0  0  0  0  0  0  0  0  0  0  0  0
   48.3775    7.6096   17.7105 H   0  0  0  0  0  0  0  0  0  0  0  0
   50.2495    8.8812   16.7145 H   0  0  0  0  0  0  0  0  0  0  0  0
   50.3243    4.3989   16.3409 H   0  0  0  0  0  0  0  0  0  0  0  0
   50.1039    7.6393   14.0192 H   0  0  0  0  0  0  0  0  0  0  0  0
   48.7241   10.4374   12.5677 H   0  0  0  0  0  0  0  0  0  0  0  0
   49.4790    8.8860   12.2984 H   0  0  0  0  0  0  0  0  0  0  0  0
   50.9798    4.0882   20.0732 H   0  0  0  0  0  0  0  0  0  0  0  0
   46.2453    4.5989   17.8214 H   0  0  0  0  0  0  0  0  0  0  0  0
   47.5005    5.4294   18.7537 H   0  0  0  0  0  0  0  0  0  0  0  0
   47.4501    3.6694   18.6999 H   0  0  0  0  0  0  0  0  0  0  0  0
   46.9075    3.2220   15.7394 H   0  0  0  0  0  0  0  0  0  0  0  0
   48.2258    2.4087   16.5856 H   0  0  0  0  0  0  0  0  0  0  0  0
   48.5582    3.3086   15.1051 H   0  0  0  0  0  0  0  0  0  0  0  0
   46.2396   10.6458   12.6852 H   0  0  0  0  0  0  0  0  0  0  0  0
   48.1025    6.8067   12.0094 H   0  0  0  0  0  0  0  0  0  0  0  0
   44.0704    9.7066   11.9706 H   0  0  0  0  0  0  0  0  0  0  0  0
   45.9242    5.8859   11.3103 H   0  0  0  0  0  0  0  0  0  0  0  0
   43.9054    7.3294   11.2833 H   0  0  0  0  0  0  0  0  0  0  0  0
  2  4  1  0
  3  6  1  0
  4  1  1  0
  5  1  1  0
  6  5  1  0
  7  3  2  0
  8  3  1  0
  9  2  2  0
 10  2  1  0
 11  7  1  0
 12  8  2  0
 13  9  1  0
 14 10  2  0
 15 12  1  0
 16 14  1  0
 13 16  2  0
 11 15  2  0
 18 17  1  0
 19 17  1  0
 20 19  1  0
 21 17  1  0
 18 22  1  0
 23 21  1  0
 20 24  1  0
 21 25  1  0
 26 24  1  0
 27 19  2  0
 28 25  2  0
 29 26  2  0
 30 26  1  0
 31 25  1  0
 32 23  1  0
 33 23  1  0
 34 30  1  0
 35 34  2  0
 36 34  1  0
 37 35  1  0
 38 36  2  0
 39 38  1  0
 22 23  1  0
 18 20  1  0
 37 39  2  0
  1 40  1  0
  4 41  1  0
  4 42  1  0
  5 43  1  0
  5 44  1  0
  6 45  1  0
  6 46  1  0
  7 47  1  0
  8 48  1  0
  9 49  1  0
 10 50  1  0
 11 51  1  0
 12 52  1  0
 13 53  1  0
 14 54  1  0
 15 55  1  0
 16 56  1  0
 18 57  1  1
 20 58  1  1
 21 59  1  6
 24 60  1  0
 30 61  1  0
 30 62  1  0
 31 63  1  0
 32 64  1  0
 32 65  1  0
 32 66  1  0
 33 67  1  0
 33 68  1  0
 33 69  1  0
 35 70  1  0
 36 71  1  0
 37 72  1  0
 38 73  1  0
 39 74  1  0
M  END
> <Uni-Dock RESULT> 
ENERGY=   -5.878  LOWER_BOUND=    0.000  UPPER_BOUND=    0.000
INTER + INTRA:          -5.878
INTER:                  -5.878
INTRA:                   0.000
UNBOUND:                 0.000

$$$$

     RDKit          3D

 74 77  0  0  0  0  0  0  0  0999 V2000
   48.9642    5.4246   18.0481 N   0  0  0  0  0  0  0  0  0  0  0  0
   51.0438    4.0981   17.7334 C   0  0  0  0  0  0  0  0  0  0  0  0
   47.8648    6.4164   21.5531 C   0  0  0  0  0  0  0  0  0  0  0  0
   50.2476    5.3231   17.3492 C   0  0  0  0  0  0  0  0  0  0  0  0
   49.1176    5.8531   19.4422 C   0  0  0  0  0  0  0  0  0  0  0  0
   47.7437    5.9710   20.1156 C   0  0  0  0  0  0  0  0  0  0  0  0
   47.8310    7.7786   21.8798 C   0  0  0  0  0  0  0  0  0  0  0  0
   48.0429    5.4752   22.5765 C   0  0  0  0  0  0  0  0  0  0  0  0
   52.1541    4.2035   18.5834 C   0  0  0  0  0  0  0  0  0  0  0  0
   50.6724    2.8313   17.2576 C   0  0  0  0  0  0  0  0  0  0  0  0
   47.9631    8.1905   23.2068 C   0  0  0  0  0  0  0  0  0  0  0  0
   48.1746    5.8892   23.9028 C   0  0  0  0  0  0  0  0  0  0  0  0
   52.8783    3.0669   18.9467 C   0  0  0  0  0  0  0  0  0  0  0  0
   51.3984    1.6962   17.6217 C   0  0  0  0  0  0  0  0  0  0  0  0
   48.1339    7.2462   24.2176 C   0  0  0  0  0  0  0  0  0  0  0  0
   52.5010    1.8145   18.4657 C   0  0  0  0  0  0  0  0  0  0  0  0
   47.6854    6.5503   21.1451 N   0  0  0  0  0  0  0  0  0  0  0  0
   48.1179    5.1601   20.8986 C   0  0  1  0  0  0  0  0  0  0  0  0
   47.2604    6.7394   19.8573 C   0  0  0  0  0  0  0  0  0  0  0  0
   47.4014    5.2365   19.5287 C   0  0  1  0  0  0  0  0  0  0  0  0
   48.6612    7.4827   21.7156 C   0  0  2  0  0  0  0  0  0  0  0  0
   49.9526    5.2778   20.9343 S   0  0  0  0  0  0  0  0  0  0  0  0
   49.8814    6.6570   22.1765 C   0  0  0  0  0  0  0  0  0  0  0  0
   48.2005    4.8979   18.3209 N   0  0  0  0  0  0  0  0  0  0  0  0
   48.0772    8.3583   22.8211 C   0  0  0  0  0  0  0  0  0  0  0  0
   48.4760    3.5834   18.0122 C   0  0  0  0  0  0  0  0  0  0  0  0
   47.0294    7.7525   19.2384 O   0  0  0  0  0  0  0  0  0  0  0  0
   48.6892    9.2153   23.4431 O   0  0  0  0  0  0  0  0  0  0  0  0
   48.0081    2.6506   18.6584 O   0  0  0  0  0  0  0  0  0  0  0  0
   49.3990    3.3907   16.8242 C   0  0  0  0  0  0  0  0  0  0  0  0
   46.7828    8.1190   23.1117 O   0  0  0  0  0  0  0  0  0  0  0  0
   49.7311    6.0338   23.5712 C   0  0  0  0  0  0  0  0  0  0  0  0
   51.1840    7.4559   22.0889 C   0  0  0  0  0  0  0  0  0  0  0  0
   50.7846    2.9666   17.2384 C   0  0  0  0  0  0  0  0  0  0  0  0
   51.0842    1.6070   17.4095 C   0  0  0  0  0  0  0  0  0  0  0  0
   51.7799    3.9201   17.4961 C   0  0  0  0  0  0  0  0  0  0  0  0
   52.3588    1.2078   17.8143 C   0  0  0  0  0  0  0  0  0  0  0  0
   53.0538    3.5183   17.9037 C   0  0  0  0  0  0  0  0  0  0  0  0
   53.3434    2.1630   18.0601 C   0  0  0  0  0  0  0  0  0  0  0  0
   48.5031    4.5162   18.0220 H   0  0  0  0  0  0  0  0  0  0  0  0
   50.8418    6.2351   17.4888 H   0  0  0  0  0  0  0  0  0  0  0  0
   50.0478    5.2744   16.2714 H   0  0  0  0  0  0  0  0  0  0  0  0
   49.6238    6.8255   19.4772 H   0  0  0  0  0  0  0  0  0  0  0  0
   49.7327    5.1394   20.0023 H   0  0  0  0  0  0  0  0  0  0  0  0
   47.1097    6.6798   19.5673 H   0  0  0  0  0  0  0  0  0  0  0  0
   47.2176    5.0084   20.0795 H   0  0  0  0  0  0  0  0  0  0  0  0
   47.7008    8.5272   21.1012 H   0  0  0  0  0  0  0  0  0  0  0  0
   48.0801    4.4131   22.3452 H   0  0  0  0  0  0  0  0  0  0  0  0
   52.4587    5.1735   18.9707 H   0  0  0  0  0  0  0  0  0  0  0  0
   49.8143    2.7247   16.5975 H   0  0  0  0  0  0  0  0  0  0  0  0
   47.9330    9.2488   23.4521 H   0  0  0  0  0  0  0  0  0  0  0  0
   48.3107    5.1522   24.6902 H   0  0  0  0  0  0  0  0  0  0  0  0
   53.7372    3.1585   19.6063 H   0  0  0  0  0  0  0  0  0  0  0  0
   51.1037    0.7197   17.2469 H   0  0  0  0  0  0  0  0  0  0  0  0
   48.2361    7.5682   25.2504 H   0  0  0  0  0  0  0  0  0  0  0  0
   53.0662    0.9307   18.7491 H   0  0  0  0  0  0  0  0  0  0  0  0
   47.6864    4.4523   21.6128 H   0  0  0  0  0  0  0  0  0  0  0  0
   46.4239    4.7374   19.5061 H   0  0  0  0  0  0  0  0  0  0  0  0
   48.9560    8.1777   20.9166 H   0  0  0  0  0  0  0  0  0  0  0  0
   48.7256    5.6290   17.8521 H   0  0  0  0  0  0  0  0  0  0  0  0
   48.9487    2.6386   16.1647 H   0  0  0  0  0  0  0  0  0  0  0  0
   49.4513    4.3097   16.2279 H   0  0  0  0  0  0  0  0  0  0  0  0
   46.5563    8.7734   23.8049 H   0  0  0  0  0  0  0  0  0  0  0  0
   50.5390    5.3261   23.7858 H   0  0  0  0  0  0  0  0  0  0  0  0
   48.7803    5.5046   23.6881 H   0  0  0  0  0  0  0  0  0  0  0  0
   49.7707    6.8014   24.3517 H   0  0  0  0  0  0  0  0  0  0  0  0
   52.0540    6.8378   22.3408 H   0  0  0  0  0  0  0  0  0  0  0  0
   51.1724    8.3004   22.7866 H   0  0  0  0  0  0  0  0  0  0  0  0
   51.3455    7.8660   21.0856 H   0  0  0  0  0  0  0  0  0  0  0  0
   50.3201    0.8507   17.2384 H   0  0  0  0  0  0  0  0  0  0  0  0
   51.5726    4.9828   17.3892 H   0  0  0  0  0  0  0  0  0  0  0  0
   52.5802    0.1512   17.9458 H   0  0  0  0  0  0  0  0  0  0  0  0
   53.8198    4.2631   18.1061 H   0  0  0  0  0  0  0  0  0  0  0  0
   54.3331    1.8506   18.3819 H   0  0  0  0  0  0  0  0  0  0  0  0
  2  4  1  0
  3  6  1  0
  4  1  1  0
  5  1  1  0
  6  5  1  0
  7  3  2  0
  8  3  1  0
  9  2  2  0
 10  2  1  0
 11  7  1  0
 12  8  2  0
 13  9  1  0
 14 10  2  0
 15 12  1  0
 16 14  1  0
 13 16  2  0
 11 15  2  0
 18 17  1  0
 19 17  1  0
 20 19  1  0
 21 17  1  0
 18 22  1  0
 23 21  1  0
 20 24  1  0
 21 25  1  0
 26 24  1  0
 27 19  2  0
 28 25  2  0
 29 26  2  0
 30 26  1  0
 31 25  1  0
 32 23  1  0
 33 23  1  0
 34 30  1  0
 35 34  2  0
 36 34  1  0
 37 35  1  0
 38 36  2  0
 39 38  1  0
 22 23  1  0
 18 20  1  0
 37 39  2  0
  1 40  1  0
  4 41  1  0
  4 42  1  0
  5 43  1  0
  5 44  1  0
  6 45  1  0
  6 46  1  0
  7 47  1  0
  8 48  1  0
  9 49  1  0
 10 50  1  0
 11 51  1  0
 12 52  1  0
 13 53  1  0
 14 54  1  0
 15 55  1  0
 16 56  1  0
 18 57  1  1
 20 58  1  1
 21 59  1  6
 24 60  1  0
 30 61  1  0
 30 62  1  0
 31 63  1  0
 32 64  1  0
 32 65  1  0
 32 66  1  0
 33 67  1  0
 33 68  1  0
 33 69  1  0
 35 70  1  0
 36 71  1  0
 37 72  1  0
 38 73  1  0
 39 74  1  0
M  END
> <Uni-Dock RESULT> 
ENERGY=   -5.869  LOWER_BOUND=    4.824  UPPER_BOUND=    7.365
INTER + INTRA:          -5.869
INTER:                  -5.869
INTRA:                   0.000
UNBOUND:                 0.000

$$$$

     RDKit          3D

 74 77  0  0  0  0  0  0  0  0999 V2000
   49.8827    8.4806   18.0256 N   0  0  0  0  0  0  0  0  0  0  0  0
   48.7604   10.4218   19.1007 C   0  0  0  0  0  0  0  0  0  0  0  0
   49.1688    7.6640   14.3785 C   0  0  0  0  0  0  0  0  0  0  0  0
   50.0592    9.7103   18.8018 C   0  0  0  0  0  0  0  0  0  0  0  0
   49.6006    8.7463   16.6112 C   0  0  0  0  0  0  0  0  0  0  0  0
   49.4548    7.4265   15.8418 C   0  0  0  0  0  0  0  0  0  0  0  0
   50.2192    7.7619   13.4563 C   0  0  0  0  0  0  0  0  0  0  0  0
   47.8506    7.8196   13.9278 C   0  0  0  0  0  0  0  0  0  0  0  0
   48.4024   11.5824   18.4000 C   0  0  0  0  0  0  0  0  0  0  0  0
   47.8833    9.9202   20.0745 C   0  0  0  0  0  0  0  0  0  0  0  0
   49.9549    8.0013   12.1069 C   0  0  0  0  0  0  0  0  0  0  0  0
   47.5884    8.0587   12.5780 C   0  0  0  0  0  0  0  0  0  0  0  0
   47.1948   12.2284   18.6699 C   0  0  0  0  0  0  0  0  0  0  0  0
   46.6768   10.5682   20.3432 C   0  0  0  0  0  0  0  0  0  0  0  0
   48.6402    8.1487   11.6681 C   0  0  0  0  0  0  0  0  0  0  0  0
   46.3332   11.7220   19.6412 C   0  0  0  0  0  0  0  0  0  0  0  0
   49.4865    7.4739   14.6605 N   0  0  0  0  0  0  0  0  0  0  0  0
   48.3548    7.7747   15.5601 C   0  0  1  0  0  0  0  0  0  0  0  0
   50.2768    6.9954   15.6710 C   0  0  0  0  0  0  0  0  0  0  0  0
   49.0979    6.9922   16.6695 C   0  0  1  0  0  0  0  0  0  0  0  0
   49.9954    8.5542   13.8113 C   0  0  2  0  0  0  0  0  0  0  0  0
   48.3543    9.6120   15.6355 S   0  0  0  0  0  0  0  0  0  0  0  0
   48.9928    9.7250   13.8948 C   0  0  0  0  0  0  0  0  0  0  0  0
   49.3267    7.6920   17.9618 N   0  0  0  0  0  0  0  0  0  0  0  0
   50.2781    8.1074   12.3794 C   0  0  0  0  0  0  0  0  0  0  0  0
   48.2984    7.8394   18.8672 C   0  0  0  0  0  0  0  0  0  0  0  0
   51.4715    6.8156   15.7271 O   0  0  0  0  0  0  0  0  0  0  0  0
   50.7136    8.8223   11.4877 O   0  0  0  0  0  0  0  0  0  0  0  0
   47.1952    7.3320   18.6885 O   0  0  0  0  0  0  0  0  0  0  0  0
   48.6407    8.6757   20.0854 C   0  0  0  0  0  0  0  0  0  0  0  0
   49.9927    6.8158   12.1200 O   0  0  0  0  0  0  0  0  0  0  0  0
   47.7969    9.6010   12.9404 C   0  0  0  0  0  0  0  0  0  0  0  0
   49.6764   11.0828   13.7166 C   0  0  0  0  0  0  0  0  0  0  0  0
   48.0063   10.0420   20.0386 C   0  0  0  0  0  0  0  0  0  0  0  0
   46.7124   10.2363   20.5440 C   0  0  0  0  0  0  0  0  0  0  0  0
   48.6794   11.1261   19.4572 C   0  0  0  0  0  0  0  0  0  0  0  0
   46.1098   11.4938   20.4841 C   0  0  0  0  0  0  0  0  0  0  0  0
   48.0732   12.3828   19.3960 C   0  0  0  0  0  0  0  0  0  0  0  0
   46.7904   12.5667   19.9115 C   0  0  0  0  0  0  0  0  0  0  0  0
   49.1155    7.9446   18.4288 H   0  0  0  0  0  0  0  0  0  0  0  0
   50.7700   10.3852   18.3085 H   0  0  0  0  0  0  0  0  0  0  0  0
   50.5305    9.4476   19.7572 H   0  0  0  0  0  0  0  0  0  0  0  0
   50.4179    9.3330   16.1743 H   0  0  0  0  0  0  0  0  0  0  0  0
   48.6792    9.3299   16.5021 H   0  0  0  0  0  0  0  0  0  0  0  0
   50.3672    6.8244   15.9411 H   0  0  0  0  0  0  0  0  0  0  0  0
   48.6475    6.8209   16.2734 H   0  0  0  0  0  0  0  0  0  0  0  0
   51.2505    7.6516   13.7847 H   0  0  0  0  0  0  0  0  0  0  0  0
   47.0201    7.7552   14.6271 H   0  0  0  0  0  0  0  0  0  0  0  0
   49.0622   11.9878   17.6359 H   0  0  0  0  0  0  0  0  0  0  0  0
   48.1394    9.0209   20.6304 H   0  0  0  0  0  0  0  0  0  0  0  0
   50.7751    8.0732   11.3977 H   0  0  0  0  0  0  0  0  0  0  0  0
   46.5630    8.1764   12.2372 H   0  0  0  0  0  0  0  0  0  0  0  0
   46.9257   13.1273   18.1215 H   0  0  0  0  0  0  0  0  0  0  0  0
   46.0048   10.1728   21.1002 H   0  0  0  0  0  0  0  0  0  0  0  0
   48.4357    8.3346   10.6172 H   0  0  0  0  0  0  0  0  0  0  0  0
   45.3937   12.2264   19.8505 H   0  0  0  0  0  0  0  0  0  0  0  0
   47.4165    7.3261   15.2202 H   0  0  0  0  0  0  0  0  0  0  0  0
   48.7149    5.9767   16.8347 H   0  0  0  0  0  0  0  0  0  0  0  0
   50.9687    8.8611   14.2198 H   0  0  0  0  0  0  0  0  0  0  0  0
   50.1663    8.2493   18.0826 H   0  0  0  0  0  0  0  0  0  0  0  0
   48.3075    8.1284   20.9758 H   0  0  0  0  0  0  0  0  0  0  0  0
   49.7283    8.7713   20.1901 H   0  0  0  0  0  0  0  0  0  0  0  0
   50.2562    6.6834   11.1856 H   0  0  0  0  0  0  0  0  0  0  0  0
   47.0335   10.3578   13.1502 H   0  0  0  0  0  0  0  0  0  0  0  0
   47.3208    8.6174   12.9989 H   0  0  0  0  0  0  0  0  0  0  0  0
   48.1068    9.7477   11.9000 H   0  0  0  0  0  0  0  0  0  0  0  0
   48.9716   11.9110   13.8573 H   0  0  0  0  0  0  0  0  0  0  0  0
   50.0953   11.1804   12.7090 H   0  0  0  0  0  0  0  0  0  0  0  0
   50.5005   11.2219   14.4254 H   0  0  0  0  0  0  0  0  0  0  0  0
   46.1618    9.4036   20.9780 H   0  0  0  0  0  0  0  0  0  0  0  0
   49.6769   11.0025   19.0408 H   0  0  0  0  0  0  0  0  0  0  0  0
   45.1054   11.6333   20.8772 H   0  0  0  0  0  0  0  0  0  0  0  0
   48.5990   13.2183   18.9399 H   0  0  0  0  0  0  0  0  0  0  0  0
   46.3168   13.5433   19.8596 H   0  0  0  0  0  0  0  0  0  0  0  0
  2  4  1  0
  3  6  1  0
  4  1  1  0
  5  1  1  0
  6  5  1  0
  7  3  2  0
  8  3  1  0
  9  2  2  0
 10  2  1  0
 11  7  1  0
 12  8  2  0
 13  9  1  0
 14 10  2  0
 15 12  1  0
 16 14  1  0
 13 16  2  0
 11 15  2  0
 18 17  1  0
 19 17  1  0
 20 19  1  0
 21 17  1  0
 18 22  1  0
 23 21  1  0
 20 24  1  0
 21 25  1  0
 26 24  1  0
 27 19  2  0
 28 25  2  0
 29 26  2  0
 30 26  1  0
 31 25  1  0
 32 23  1  0
 33 23  1  0
 34 30  1  0
 35 34  2  0
 36 34  1  0
 37 35  1  0
 38 36  2  0
 39 38  1  0
 22 23  1  0
 18 20  1  0
 37 39  2  0
  1 40  1  0
  4 41  1  0
  4 42  1  0
  5 43  1  0
  5 44  1  0
  6 45  1  0
  6 46  1  0
  7 47  1  0
  8 48  1  0
  9 49  1  0
 10 50  1  0
 11 51  1  0
 12 52  1  0
 13 53  1  0
 14 54  1  0
 15 55  1  0
 16 56  1  0
 18 57  1  1
 20 58  1  1
 21 59  1  6
 24 60  1  0
 30 61  1  0
 30 62  1  0
 31 63  1  0
 32 64  1  0
 32 65  1  0
 32 66  1  0
 33 67  1  0
 33 68  1  0
 33 69  1  0
 35 70  1  0
 36 71  1  0
 37 72  1  0
 38 73  1  0
 39 74  1  0
M  END
> <Uni-Dock RESULT> 
ENERGY=   -5.686  LOWER_BOUND=    3.399  UPPER_BOUND=    6.553
INTER + INTRA:          -5.686
INTER:                  -5.686
INTRA:                   0.000
UNBOUND:                 0.000

$$$$

     RDKit          3D

 74 77  0  0  0  0  0  0  0  0999 V2000
   49.3354    7.6536   17.4173 N   0  0  0  0  0  0  0  0  0  0  0  0
   48.5586    5.2929   17.5014 C   0  0  0  0  0  0  0  0  0  0  0  0
   49.6775    9.4144   14.0616 C   0  0  0  0  0  0  0  0  0  0  0  0
   48.3840    6.7069   18.0039 C   0  0  0  0  0  0  0  0  0  0  0  0
   48.9935    8.0083   16.0360 C   0  0  0  0  0  0  0  0  0  0  0  0
   50.0037    9.0226   15.4827 C   0  0  0  0  0  0  0  0  0  0  0  0
   48.8514   10.5157   13.8003 C   0  0  0  0  0  0  0  0  0  0  0  0
   50.1719    8.6640   12.9858 C   0  0  0  0  0  0  0  0  0  0  0  0
   47.6633    4.7487   16.5694 C   0  0  0  0  0  0  0  0  0  0  0  0
   49.6322    4.5075   17.9485 C   0  0  0  0  0  0  0  0  0  0  0  0
   48.5342   10.8652   12.4869 C   0  0  0  0  0  0  0  0  0  0  0  0
   49.8536    9.0153   11.6731 C   0  0  0  0  0  0  0  0  0  0  0  0
   47.8369    3.4466   16.0975 C   0  0  0  0  0  0  0  0  0  0  0  0
   49.8033    3.2055   17.4758 C   0  0  0  0  0  0  0  0  0  0  0  0
   49.0358   10.1159   11.4241 C   0  0  0  0  0  0  0  0  0  0  0  0
   48.9056    2.6755   16.5509 C   0  0  0  0  0  0  0  0  0  0  0  0
   49.7171    9.5955   14.4885 N   0  0  0  0  0  0  0  0  0  0  0  0
   50.2557    8.2285   14.6362 C   0  0  1  0  0  0  0  0  0  0  0  0
   49.8810    9.8978   15.8138 C   0  0  0  0  0  0  0  0  0  0  0  0
   50.7134    8.6202   16.0619 C   0  0  1  0  0  0  0  0  0  0  0  0
   48.3919    9.7503   13.8829 C   0  0  2  0  0  0  0  0  0  0  0  0
   48.7647    7.1673   14.4564 S   0  0  0  0  0  0  0  0  0  0  0  0
   47.9885    8.3844   13.2874 C   0  0  0  0  0  0  0  0  0  0  0  0
   50.2689    7.7513   17.1842 N   0  0  0  0  0  0  0  0  0  0  0  0
   48.3263   10.8896   12.8692 C   0  0  0  0  0  0  0  0  0  0  0  0
   50.8785    6.5363   17.4099 C   0  0  0  0  0  0  0  0  0  0  0  0
   49.3959   10.7720   16.4944 O   0  0  0  0  0  0  0  0  0  0  0  0
   47.3318   11.2197   12.2385 O   0  0  0  0  0  0  0  0  0  0  0  0
   51.8537    6.1665   16.7628 O   0  0  0  0  0  0  0  0  0  0  0  0
   50.2464    5.7038   18.5090 C   0  0  0  0  0  0  0  0  0  0  0  0
   49.4882   11.5449   12.6745 O   0  0  0  0  0  0  0  0  0  0  0  0
   48.5479    8.1184   11.8830 C   0  0  0  0  0  0  0  0  0  0  0  0
   46.4726    8.1736   13.3044 C   0  0  0  0  0  0  0  0  0  0  0  0
   49.4591    4.5397   17.9646 C   0  0  0  0  0  0  0  0  0  0  0  0
   50.0953    3.3161   17.7086 C   0  0  0  0  0  0  0  0  0  0  0  0
   48.0945    4.6716   17.6698 C   0  0  0  0  0  0  0  0  0  0  0  0
   49.3775    2.2404   17.1838 C   0  0  0  0  0  0  0  0  0  0  0  0
   47.3790    3.5945   17.1420 C   0  0  0  0  0  0  0  0  0  0  0  0
   48.0198    2.3792   16.9018 C   0  0  0  0  0  0  0  0  0  0  0  0
   50.2667    7.2403   17.4399 H   0  0  0  0  0  0  0  0  0  0  0  0
   47.3517    7.0490   17.8576 H   0  0  0  0  0  0  0  0  0  0  0  0
   48.5320    6.7019   19.0911 H   0  0  0  0  0  0  0  0  0  0  0  0
   47.9872    8.4435   16.0036 H   0  0  0  0  0  0  0  0  0  0  0  0
   48.9901    7.1184   15.3961 H   0  0  0  0  0  0  0  0  0  0  0  0
   50.0252    9.9216   16.1121 H   0  0  0  0  0  0  0  0  0  0  0  0
   51.0191    8.6074   15.5183 H   0  0  0  0  0  0  0  0  0  0  0  0
   48.4506   11.1083   14.6199 H   0  0  0  0  0  0  0  0  0  0  0  0
   50.8085    7.8005   13.1653 H   0  0  0  0  0  0  0  0  0  0  0  0
   46.8265    5.3393   16.2026 H   0  0  0  0  0  0  0  0  0  0  0  0
   50.3399    4.9084   18.6708 H   0  0  0  0  0  0  0  0  0  0  0  0
   47.8951   11.7224   12.2927 H   0  0  0  0  0  0  0  0  0  0  0  0
   50.2429    8.4286   10.8450 H   0  0  0  0  0  0  0  0  0  0  0  0
   47.1380    3.0335   15.3750 H   0  0  0  0  0  0  0  0  0  0  0  0
   50.6371    2.6047   17.8290 H   0  0  0  0  0  0  0  0  0  0  0  0
   48.7885   10.3894   10.4019 H   0  0  0  0  0  0  0  0  0  0  0  0
   49.0390    1.6618   16.1829 H   0  0  0  0  0  0  0  0  0  0  0  0
   51.0624    8.0154   13.9284 H   0  0  0  0  0  0  0  0  0  0  0  0
   51.7843    8.8483   16.1417 H   0  0  0  0  0  0  0  0  0  0  0  0
   47.6959   10.0323   14.6856 H   0  0  0  0  0  0  0  0  0  0  0  0
   49.3834    7.9448   17.6410 H   0  0  0  0  0  0  0  0  0  0  0  0
   51.0483    5.3496   19.1684 H   0  0  0  0  0  0  0  0  0  0  0  0
   49.6028    6.3288   19.1397 H   0  0  0  0  0  0  0  0  0  0  0  0
   49.2723   12.2527   12.0322 H   0  0  0  0  0  0  0  0  0  0  0  0
   48.3797    7.0818   11.5717 H   0  0  0  0  0  0  0  0  0  0  0  0
   49.6220    8.3185   11.8203 H   0  0  0  0  0  0  0  0  0  0  0  0
   48.0577    8.7535   11.1371 H   0  0  0  0  0  0  0  0  0  0  0  0
   46.2008    7.1704   12.9549 H   0  0  0  0  0  0  0  0  0  0  0  0
   45.9703    8.8932   12.6486 H   0  0  0  0  0  0  0  0  0  0  0  0
   46.0531    8.3019   14.3087 H   0  0  0  0  0  0  0  0  0  0  0  0
   51.1592    3.1985   17.9072 H   0  0  0  0  0  0  0  0  0  0  0  0
   47.5773    5.6133   17.8408 H   0  0  0  0  0  0  0  0  0  0  0  0
   49.8808    1.2966   16.9873 H   0  0  0  0  0  0  0  0  0  0  0  0
   46.3220    3.7048   16.9116 H   0  0  0  0  0  0  0  0  0  0  0  0
   47.4643    1.5427   16.4867 H   0  0  0  0  0  0  0  0  0  0  0  0
  2  4  1  0
  3  6  1  0
  4  1  1  0
  5  1  1  0
  6  5  1  0
  7  3  2  0
  8  3  1  0
  9  2  2  0
 10  2  1  0
 11  7  1  0
 12  8  2  0
 13  9  1  0
 14 10  2  0
 15 12  1  0
 16 14  1  0
 13 16  2  0
 11 15  2  0
 18 17  1  0
 19 17  1  0
 20 19  1  0
 21 17  1  0
 18 22  1  0
 23 21  1  0
 20 24  1  0
 21 25  1  0
 26 24  1  0
 27 19  2  0
 28 25  2  0
 29 26  2  0
 30 26  1  0
 31 25  1  0
 32 23  1  0
 33 23  1  0
 34 30  1  0
 35 34  2  0
 36 34  1  0
 37 35  1  0
 38 36  2  0
 39 38  1  0
 22 23  1  0
 18 20  1  0
 37 39  2  0
  1 40  1  0
  4 41  1  0
  4 42  1  0
  5 43  1  0
  5 44  1  0
  6 45  1  0
  6 46  1  0
  7 47  1  0
  8 48  1  0
  9 49  1  0
 10 50  1  0
 11 51  1  0
 12 52  1  0
 13 53  1  0
 14 54  1  0
 15 55  1  0
 16 56  1  0
 18 57  1  1
 20 58  1  1
 21 59  1  6
 24 60  1  0
 30 61  1  0
 30 62  1  0
 31 63  1  0
 32 64  1  0
 32 65  1  0
 32 66  1  0
 33 67  1  0
 33 68  1  0
 33 69  1  0
 35 70  1  0
 36 71  1  0
 37 72  1  0
 38 73  1  0
 39 74  1  0
M  END
> <Uni-Dock RESULT> 
ENERGY=   -5.644  LOWER_BOUND=    1.643  UPPER_BOUND=    6.602
INTER + INTRA:          -5.644
INTER:                  -5.644
INTRA:                   0.000
UNBOUND:                 0.000

$$$$

     RDKit          3D

 74 77  0  0  0  0  0  0  0  0999 V2000
   48.2675   10.8594   21.3578 N   0  0  0  0  0  0  0  0  0  0  0  0
   48.8666   12.2907   19.4147 C   0  0  0  0  0  0  0  0  0  0  0  0
   48.0056    7.0886   20.9208 C   0  0  0  0  0  0  0  0  0  0  0  0
   49.1545   11.9074   20.8473 C   0  0  0  0  0  0  0  0  0  0  0  0
   48.6133    9.5314   20.8404 C   0  0  0  0  0  0  0  0  0  0  0  0
   47.6733    8.4709   21.4293 C   0  0  0  0  0  0  0  0  0  0  0  0
   48.9076    6.2734   21.6175 C   0  0  0  0  0  0  0  0  0  0  0  0
   47.4395    6.6143   19.7294 C   0  0  0  0  0  0  0  0  0  0  0  0
   49.7038   11.8588   18.3760 C   0  0  0  0  0  0  0  0  0  0  0  0
   47.7444   13.0723   19.1001 C   0  0  0  0  0  0  0  0  0  0  0  0
   49.2294    5.0035   21.1360 C   0  0  0  0  0  0  0  0  0  0  0  0
   47.7625    5.3440   19.2497 C   0  0  0  0  0  0  0  0  0  0  0  0
   49.4259   12.2039   17.0524 C   0  0  0  0  0  0  0  0  0  0  0  0
   47.4688   13.4167   17.7760 C   0  0  0  0  0  0  0  0  0  0  0  0
   48.6565    4.5390   19.9534 C   0  0  0  0  0  0  0  0  0  0  0  0
   48.3096   12.9828   16.7528 C   0  0  0  0  0  0  0  0  0  0  0  0
   47.9863    7.3361   21.3145 N   0  0  0  0  0  0  0  0  0  0  0  0
   47.3493    8.2171   20.3152 C   0  0  1  0  0  0  0  0  0  0  0  0
   47.8664    8.2506   22.3265 C   0  0  0  0  0  0  0  0  0  0  0  0
   46.9446    9.1547   21.4782 C   0  0  1  0  0  0  0  0  0  0  0  0
   49.3098    6.7891   21.0041 C   0  0  2  0  0  0  0  0  0  0  0  0
   48.7536    8.7153   19.2377 S   0  0  0  0  0  0  0  0  0  0  0  0
   49.6003    7.0858   19.5173 C   0  0  0  0  0  0  0  0  0  0  0  0
   47.3405   10.5844   21.3715 N   0  0  0  0  0  0  0  0  0  0  0  0
   49.4445    5.3105   21.3584 C   0  0  0  0  0  0  0  0  0  0  0  0
   46.6451   11.4413   20.5462 C   0  0  0  0  0  0  0  0  0  0  0  0
   48.4262    8.3292   23.3957 O   0  0  0  0  0  0  0  0  0  0  0  0
   50.4510    4.6337   21.2009 O   0  0  0  0  0  0  0  0  0  0  0  0
   45.6349   11.0896   19.9442 O   0  0  0  0  0  0  0  0  0  0  0  0
   47.2303   12.8369   20.4428 C   0  0  0  0  0  0  0  0  0  0  0  0
   48.3321    4.7442   21.8672 O   0  0  0  0  0  0  0  0  0  0  0  0
   49.0006    6.0642   18.5412 C   0  0  0  0  0  0  0  0  0  0  0  0
   51.0963    7.2643   19.2471 C   0  0  0  0  0  0  0  0  0  0  0  0
   47.9196   13.0724   19.1234 C   0  0  0  0  0  0  0  0  0  0  0  0
   47.1896   13.5369   18.0195 C   0  0  0  0  0  0  0  0  0  0  0  0
   49.2854   12.7954   18.9679 C   0  0  0  0  0  0  0  0  0  0  0  0
   47.8165   13.7364   16.7886 C   0  0  0  0  0  0  0  0  0  0  0  0
   49.9099   12.9932   17.7345 C   0  0  0  0  0  0  0  0  0  0  0  0
   49.1762   13.4658   16.6465 C   0  0  0  0  0  0  0  0  0  0  0  0
   47.3084   11.0848   21.0974 H   0  0  0  0  0  0  0  0  0  0  0  0
   50.2071   11.6235   20.9720 H   0  0  0  0  0  0  0  0  0  0  0  0
   49.0236   12.8006   21.4710 H   0  0  0  0  0  0  0  0  0  0  0  0
   49.6487    9.2878   21.1079 H   0  0  0  0  0  0  0  0  0  0  0  0
   48.5400    9.5097   19.7470 H   0  0  0  0  0  0  0  0  0  0  0  0
   47.7290    8.4783   22.5255 H   0  0  0  0  0  0  0  0  0  0  0  0
   46.6303    8.7055   21.1806 H   0  0  0  0  0  0  0  0  0  0  0  0
   49.3645    6.6237   22.5405 H   0  0  0  0  0  0  0  0  0  0  0  0
   46.7430    7.2329   19.1681 H   0  0  0  0  0  0  0  0  0  0  0  0
   50.5766   11.2467   18.5931 H   0  0  0  0  0  0  0  0  0  0  0  0
   47.0801   13.4184   19.8890 H   0  0  0  0  0  0  0  0  0  0  0  0
   49.9278    4.3765   21.6837 H   0  0  0  0  0  0  0  0  0  0  0  0
   47.3175    4.9837   18.3259 H   0  0  0  0  0  0  0  0  0  0  0  0
   50.0804   11.8642   16.2541 H   0  0  0  0  0  0  0  0  0  0  0  0
   46.5981   14.0235   17.5426 H   0  0  0  0  0  0  0  0  0  0  0  0
   48.9075    3.5499   19.5798 H   0  0  0  0  0  0  0  0  0  0  0  0
   48.0950   13.2509   15.7219 H   0  0  0  0  0  0  0  0  0  0  0  0
   46.5178    7.7315   19.7955 H   0  0  0  0  0  0  0  0  0  0  0  0
   45.8953    9.0593   21.7862 H   0  0  0  0  0  0  0  0  0  0  0  0
   50.0374    7.3105   21.6421 H   0  0  0  0  0  0  0  0  0  0  0  0
   48.2449   10.8769   21.7271 H   0  0  0  0  0  0  0  0  0  0  0  0
   46.4146   13.5568   20.5833 H   0  0  0  0  0  0  0  0  0  0  0  0
   47.9288   13.0205   21.2682 H   0  0  0  0  0  0  0  0  0  0  0  0
   48.5902    3.8205   22.0678 H   0  0  0  0  0  0  0  0  0  0  0  0
   49.0858    6.4009   17.5024 H   0  0  0  0  0  0  0  0  0  0  0  0
   47.9436    5.8673   18.7455 H   0  0  0  0  0  0  0  0  0  0  0  0
   49.5252    5.1046   18.6041 H   0  0  0  0  0  0  0  0  0  0  0  0
   51.2866    7.5537   18.2068 H   0  0  0  0  0  0  0  0  0  0  0  0
   51.6406    6.3312   19.4296 H   0  0  0  0  0  0  0  0  0  0  0  0
   51.5399    8.0304   19.8930 H   0  0  0  0  0  0  0  0  0  0  0  0
   46.1232   13.7356   18.1108 H   0  0  0  0  0  0  0  0  0  0  0  0
   49.8743   12.4174   19.8010 H   0  0  0  0  0  0  0  0  0  0  0  0
   47.2409   14.0952   15.9384 H   0  0  0  0  0  0  0  0  0  0  0  0
   50.9684   12.7724   17.6195 H   0  0  0  0  0  0  0  0  0  0  0  0
   49.6609   13.6152   15.6856 H   0  0  0  0  0  0  0  0  0  0  0  0
  2  4  1  0
  3  6  1  0
  4  1  1  0
  5  1  1  0
  6  5  1  0
  7  3  2  0
  8  3  1  0
  9  2  2  0
 10  2  1  0
 11  7  1  0
 12  8  2  0
 13  9  1  0
 14 10  2  0
 15 12  1  0
 16 14  1  0
 13 16  2  0
 11 15  2  0
 18 17  1  0
 19 17  1  0
 20 19  1  0
 21 17  1  0
 18 22  1  0
 23 21  1  0
 20 24  1  0
 21 25  1  0
 26 24  1  0
 27 19  2  0
 28 25  2  0
 29 26  2  0
 30 26  1  0
 31 25  1  0
 32 23  1  0
 33 23  1  0
 34 30  1  0
 35 34  2  0
 36 34  1  0
 37 35  1  0
 38 36  2  0
 39 38  1  0
 22 23  1  0
 18 20  1  0
 37 39  2  0
  1 40  1  0
  4 41  1  0
  4 42  1  0
  5 43  1  0
  5 44  1  0
  6 45  1  0
  6 46  1  0
  7 47  1  0
  8 48  1  0
  9 49  1  0
 10 50  1  0
 11 51  1  0
 12 52  1  0
 13 53  1  0
 14 54  1  0
 15 55  1  0
 16 56  1  0
 18 57  1  1
 20 58  1  1
 21 59  1  6
 24 60  1  0
 30 61  1  0
 30 62  1  0
 31 63  1  0
 32 64  1  0
 32 65  1  0
 32 66  1  0
 33 67  1  0
 33 68  1  0
 33 69  1  0
 35 70  1  0
 36 71  1  0
 37 72  1  0
 38 73  1  0
 39 74  1  0
M  END
> <Uni-Dock RESULT> 
ENERGY=   -5.401  LOWER_BOUND=    4.882  UPPER_BOUND=    6.357
INTER + INTRA:          -5.401
INTER:                  -5.401
INTRA:                   0.000
UNBOUND:                 0.000

$$$$

     RDKit          3D

 74 77  0  0  0  0  0  0  0  0999 V2000
   49.0182    4.1138   19.2297 N   0  0  0  0  0  0  0  0  0  0  0  0
   48.4516    5.7653   21.0003 C   0  0  0  0  0  0  0  0  0  0  0  0
   52.5936    3.8607   17.9527 C   0  0  0  0  0  0  0  0  0  0  0  0
   48.3923    4.3287   20.5365 C   0  0  0  0  0  0  0  0  0  0  0  0
   50.4829    4.1225   19.3016 C   0  0  0  0  0  0  0  0  0  0  0  0
   51.0843    3.8639   17.9136 C   0  0  0  0  0  0  0  0  0  0  0  0
   53.2958    2.6680   18.1714 C   0  0  0  0  0  0  0  0  0  0  0  0
   53.3112    5.0551   17.8007 C   0  0  0  0  0  0  0  0  0  0  0  0
   49.3565    6.1590   21.9966 C   0  0  0  0  0  0  0  0  0  0  0  0
   47.6117    6.7322   20.4270 C   0  0  0  0  0  0  0  0  0  0  0  0
   54.6904    2.6692   18.2273 C   0  0  0  0  0  0  0  0  0  0  0  0
   54.7058    5.0542   17.8567 C   0  0  0  0  0  0  0  0  0  0  0  0
   49.4173    7.4903   22.4119 C   0  0  0  0  0  0  0  0  0  0  0  0
   47.6737    8.0626   20.8444 C   0  0  0  0  0  0  0  0  0  0  0  0
   55.3948    3.8615   18.0692 C   0  0  0  0  0  0  0  0  0  0  0  0
   48.5761    8.4410   21.8367 C   0  0  0  0  0  0  0  0  0  0  0  0
   52.2320    3.5839   17.8566 N   0  0  0  0  0  0  0  0  0  0  0  0
   51.6205    4.9194   18.0086 C   0  0  1  0  0  0  0  0  0  0  0  0
   51.0314    2.9620   17.6405 C   0  0  0  0  0  0  0  0  0  0  0  0
   50.2928    4.3112   17.4957 C   0  0  1  0  0  0  0  0  0  0  0  0
   53.0999    3.0989   18.9329 C   0  0  2  0  0  0  0  0  0  0  0  0
   51.7906    5.2575   19.8080 S   0  0  0  0  0  0  0  0  0  0  0  0
   53.3710    4.2844   19.8837 C   0  0  0  0  0  0  0  0  0  0  0  0
   49.0851    4.4958   18.3438 N   0  0  0  0  0  0  0  0  0  0  0  0
   54.3762    2.4369   18.4203 C   0  0  0  0  0  0  0  0  0  0  0  0
   48.4273    5.7065   18.3674 C   0  0  0  0  0  0  0  0  0  0  0  0
   50.7181    1.7957   17.7077 O   0  0  0  0  0  0  0  0  0  0  0  0
   55.2515    1.9491   19.1216 O   0  0  0  0  0  0  0  0  0  0  0  0
   48.7507    6.6380   17.6365 O   0  0  0  0  0  0  0  0  0  0  0  0
   47.2873    5.7898   19.3644 C   0  0  0  0  0  0  0  0  0  0  0  0
   54.5132    2.4286   17.0793 O   0  0  0  0  0  0  0  0  0  0  0  0
   54.5170    5.2026   19.4365 C   0  0  0  0  0  0  0  0  0  0  0  0
   53.5896    3.8265   21.3278 C   0  0  0  0  0  0  0  0  0  0  0  0
   47.6384    6.6276   20.5670 C   0  0  0  0  0  0  0  0  0  0  0  0
   47.4277    8.0141   20.5463 C   0  0  0  0  0  0  0  0  0  0  0  0
   48.2145    6.0440   21.7045 C   0  0  0  0  0  0  0  0  0  0  0  0
   47.7709    8.7995   21.6478 C   0  0  0  0  0  0  0  0  0  0  0  0
   48.5596    6.8323   22.8044 C   0  0  0  0  0  0  0  0  0  0  0  0
   48.3355    8.2086   22.7768 C   0  0  0  0  0  0  0  0  0  0  0  0
   48.7064    4.8447   18.5917 H   0  0  0  0  0  0  0  0  0  0  0  0
   48.8211    3.6565   21.2905 H   0  0  0  0  0  0  0  0  0  0  0  0
   47.3367    4.0388   20.4625 H   0  0  0  0  0  0  0  0  0  0  0  0
   50.8243    3.3450   19.9959 H   0  0  0  0  0  0  0  0  0  0  0  0
   50.8475    5.0854   19.6778 H   0  0  0  0  0  0  0  0  0  0  0  0
   50.7286    2.9043   17.5167 H   0  0  0  0  0  0  0  0  0  0  0  0
   50.7436    4.6272   17.2023 H   0  0  0  0  0  0  0  0  0  0  0  0
   52.7594    1.7302   18.2992 H   0  0  0  0  0  0  0  0  0  0  0  0
   52.7867    5.9939   17.6378 H   0  0  0  0  0  0  0  0  0  0  0  0
   50.0227    5.4296   22.4523 H   0  0  0  0  0  0  0  0  0  0  0  0
   46.9021    6.4505   19.6521 H   0  0  0  0  0  0  0  0  0  0  0  0
   55.2276    1.7395   18.3947 H   0  0  0  0  0  0  0  0  0  0  0  0
   55.2542    5.9848   17.7361 H   0  0  0  0  0  0  0  0  0  0  0  0
   50.1221    7.7861   23.1845 H   0  0  0  0  0  0  0  0  0  0  0  0
   47.0182    8.8038   20.3953 H   0  0  0  0  0  0  0  0  0  0  0  0
   56.4805    3.8610   18.1123 H   0  0  0  0  0  0  0  0  0  0  0  0
   48.6244    9.4768   22.1615 H   0  0  0  0  0  0  0  0  0  0  0  0
   52.0758    5.6677   17.3529 H   0  0  0  0  0  0  0  0  0  0  0  0
   50.0732    4.5375   16.4442 H   0  0  0  0  0  0  0  0  0  0  0  0
   52.5523    2.3072   19.4636 H   0  0  0  0  0  0  0  0  0  0  0  0
   48.8764    3.8136   19.0657 H   0  0  0  0  0  0  0  0  0  0  0  0
   46.4153    6.2084   18.8468 H   0  0  0  0  0  0  0  0  0  0  0  0
   46.9843    4.7852   19.6834 H   0  0  0  0  0  0  0  0  0  0  0  0
   55.3516    1.9485   16.9159 H   0  0  0  0  0  0  0  0  0  0  0  0
   54.5636    6.1137   20.0427 H   0  0  0  0  0  0  0  0  0  0  0  0
   54.4236    5.5006   18.3877 H   0  0  0  0  0  0  0  0  0  0  0  0
   55.4862    4.7037   19.5447 H   0  0  0  0  0  0  0  0  0  0  0  0
   53.7011    4.6786   22.0088 H   0  0  0  0  0  0  0  0  0  0  0  0
   54.4990    3.2215   21.4127 H   0  0  0  0  0  0  0  0  0  0  0  0
   52.7573    3.2143   21.6930 H   0  0  0  0  0  0  0  0  0  0  0  0
   47.0041    8.4919   19.6646 H   0  0  0  0  0  0  0  0  0  0  0  0
   48.4064    4.9738   21.7435 H   0  0  0  0  0  0  0  0  0  0  0  0
   47.6051    9.8739   21.6208 H   0  0  0  0  0  0  0  0  0  0  0  0
   49.0100    6.3740   23.6817 H   0  0  0  0  0  0  0  0  0  0  0  0
   48.6084    8.8227   23.6306 H   0  0  0  0  0  0  0  0  0  0  0  0
  2  4  1  0
  3  6  1  0
  4  1  1  0
  5  1  1  0
  6  5  1  0
  7  3  2  0
  8  3  1  0
  9  2  2  0
 10  2  1  0
 11  7  1  0
 12  8  2  0
 13  9  1  0
 14 10  2  0
 15 12  1  0
 16 14  1  0
 13 16  2  0
 11 15  2  0
 18 17  1  0
 19 17  1  0
 20 19  1  0
 21 17  1  0
 18 22  1  0
 23 21  1  0
 20 24  1  0
 21 25  1  0
 26 24  1  0
 27 19  2  0
 28 25  2  0
 29 26  2  0
 30 26  1  0
 31 25  1  0
 32 23  1  0
 33 23  1  0
 34 30  1  0
 35 34  2  0
 36 34  1  0
 37 35  1  0
 38 36  2  0
 39 38  1  0
 22 23  1  0
 18 20  1  0
 37 39  2  0
  1 40  1  0
  4 41  1  0
  4 42  1  0
  5 43  1  0
  5 44  1  0
  6 45  1  0
  6 46  1  0
  7 47  1  0
  8 48  1  0
  9 49  1  0
 10 50  1  0
 11 51  1  0
 12 52  1  0
 13 53  1  0
 14 54  1  0
 15 55  1  0
 16 56  1  0
 18 57  1  1
 20 58  1  1
 21 59  1  6
 24 60  1  0
 30 61  1  0
 30 62  1  0
 31 63  1  0
 32 64  1  0
 32 65  1  0
 32 66  1  0
 33 67  1  0
 33 68  1  0
 33 69  1  0
 35 70  1  0
 36 71  1  0
 37 72  1  0
 38 73  1  0
 39 74  1  0
M  END
> <Uni-Dock RESULT> 
ENERGY=   -5.397  LOWER_BOUND=    4.829  UPPER_BOUND=    7.064
INTER + INTRA:          -5.397
INTER:                  -5.397
INTRA:                   0.000
UNBOUND:                 0.000

$$$$

     RDKit          3D

 74 77  0  0  0  0  0  0  0  0999 V2000
   50.1355    8.5512   17.1039 N   0  0  0  0  0  0  0  0  0  0  0  0
   49.3683    6.2158   17.4791 C   0  0  0  0  0  0  0  0  0  0  0  0
   48.3423   11.4315   18.8262 C   0  0  0  0  0  0  0  0  0  0  0  0
   50.5227    7.1903   17.4831 C   0  0  0  0  0  0  0  0  0  0  0  0
   49.4253    9.2518   18.1788 C   0  0  0  0  0  0  0  0  0  0  0  0
   49.0709   10.6788   17.7389 C   0  0  0  0  0  0  0  0  0  0  0  0
   49.0543   12.1957   19.7603 C   0  0  0  0  0  0  0  0  0  0  0  0
   46.9471   11.3519   18.9336 C   0  0  0  0  0  0  0  0  0  0  0  0
   48.7917    5.7843   18.6822 C   0  0  0  0  0  0  0  0  0  0  0  0
   48.8440    5.7405   16.2674 C   0  0  0  0  0  0  0  0  0  0  0  0
   48.3816   12.8752   20.7771 C   0  0  0  0  0  0  0  0  0  0  0  0
   46.2762   12.0322   19.9510 C   0  0  0  0  0  0  0  0  0  0  0  0
   47.7161    4.8946   18.6730 C   0  0  0  0  0  0  0  0  0  0  0  0
   47.7690    4.8504   16.2606 C   0  0  0  0  0  0  0  0  0  0  0  0
   46.9934   12.7941   20.8717 C   0  0  0  0  0  0  0  0  0  0  0  0
   47.2058    4.4276   17.4631 C   0  0  0  0  0  0  0  0  0  0  0  0
   48.7349   11.4433   18.5764 N   0  0  0  0  0  0  0  0  0  0  0  0
   47.9320   10.3933   17.9181 C   0  0  1  0  0  0  0  0  0  0  0  0
   49.8069   11.2695   17.7425 C   0  0  0  0  0  0  0  0  0  0  0  0
   48.9949   10.3603   16.7935 C   0  0  1  0  0  0  0  0  0  0  0  0
   48.9379   11.3468   20.0243 C   0  0  2  0  0  0  0  0  0  0  0  0
   47.9240    9.0325   19.1548 S   0  0  0  0  0  0  0  0  0  0  0  0
   47.9908   10.2499   20.5562 C   0  0  0  0  0  0  0  0  0  0  0  0
   49.6004    9.0421   16.4652 N   0  0  0  0  0  0  0  0  0  0  0  0
   48.7714   12.6833   20.7426 C   0  0  0  0  0  0  0  0  0  0  0  0
   48.9002    8.1187   15.7195 C   0  0  0  0  0  0  0  0  0  0  0  0
   50.9632   11.6056   17.8556 O   0  0  0  0  0  0  0  0  0  0  0  0
   48.8977   12.8608   21.9461 O   0  0  0  0  0  0  0  0  0  0  0  0
   47.8044    8.3737   15.2287 O   0  0  0  0  0  0  0  0  0  0  0  0
   49.5884    6.7762   15.5633 C   0  0  0  0  0  0  0  0  0  0  0  0
   48.4415   13.7195   19.9460 O   0  0  0  0  0  0  0  0  0  0  0  0
   46.5607   10.7324   20.8358 C   0  0  0  0  0  0  0  0  0  0  0  0
   48.5629    9.5417   21.7866 C   0  0  0  0  0  0  0  0  0  0  0  0
   48.9478    5.7029   16.4054 C   0  0  0  0  0  0  0  0  0  0  0  0
   47.8705    4.9598   15.9008 C   0  0  0  0  0  0  0  0  0  0  0  0
   49.3897    5.4579   17.7135 C   0  0  0  0  0  0  0  0  0  0  0  0
   47.2579    3.9794   16.6828 C   0  0  0  0  0  0  0  0  0  0  0  0
   48.7733    4.4783   18.4950 C   0  0  0  0  0  0  0  0  0  0  0  0
   47.7099    3.7380   17.9789 C   0  0  0  0  0  0  0  0  0  0  0  0
   49.5397    8.5055   16.2784 H   0  0  0  0  0  0  0  0  0  0  0  0
   51.0347    7.1858   18.4536 H   0  0  0  0  0  0  0  0  0  0  0  0
   51.2707    6.8340   16.7637 H   0  0  0  0  0  0  0  0  0  0  0  0
   50.0575    9.2943   19.0741 H   0  0  0  0  0  0  0  0  0  0  0  0
   48.5057    8.7195   18.4478 H   0  0  0  0  0  0  0  0  0  0  0  0
   49.9792   11.2290   17.4614 H   0  0  0  0  0  0  0  0  0  0  0  0
   48.4470   10.6555   16.8362 H   0  0  0  0  0  0  0  0  0  0  0  0
   50.1383   12.2662   19.7005 H   0  0  0  0  0  0  0  0  0  0  0  0
   46.3747   10.7584   18.2243 H   0  0  0  0  0  0  0  0  0  0  0  0
   49.1759    6.1430   19.6347 H   0  0  0  0  0  0  0  0  0  0  0  0
   49.2745    6.0617   15.3214 H   0  0  0  0  0  0  0  0  0  0  0  0
   48.9409   13.4678   21.4960 H   0  0  0  0  0  0  0  0  0  0  0  0
   45.1938   11.9662   20.0257 H   0  0  0  0  0  0  0  0  0  0  0  0
   47.2756    4.5660   19.6106 H   0  0  0  0  0  0  0  0  0  0  0  0
   47.3708    4.4869   15.3171 H   0  0  0  0  0  0  0  0  0  0  0  0
   46.4707   13.3240   21.6634 H   0  0  0  0  0  0  0  0  0  0  0  0
   46.3688    3.7346   17.4578 H   0  0  0  0  0  0  0  0  0  0  0  0
   46.9422   10.7483   17.6154 H   0  0  0  0  0  0  0  0  0  0  0  0
   48.6988   10.8950   15.8815 H   0  0  0  0  0  0  0  0  0  0  0  0
   49.9846   11.0541   20.1894 H   0  0  0  0  0  0  0  0  0  0  0  0
   50.4266    8.7361   16.9690 H   0  0  0  0  0  0  0  0  0  0  0  0
   49.5561    6.5011   14.5019 H   0  0  0  0  0  0  0  0  0  0  0  0
   50.6532    6.8613   15.8118 H   0  0  0  0  0  0  0  0  0  0  0  0
   48.4053   14.4944   20.5447 H   0  0  0  0  0  0  0  0  0  0  0  0
   45.8870    9.8953   21.0479 H   0  0  0  0  0  0  0  0  0  0  0  0
   46.1425   11.2968   19.9967 H   0  0  0  0  0  0  0  0  0  0  0  0
   46.5311   11.3889   21.7124 H   0  0  0  0  0  0  0  0  0  0  0  0
   47.9224    8.7120   22.1087 H   0  0  0  0  0  0  0  0  0  0  0  0
   48.6480   10.2336   22.6317 H   0  0  0  0  0  0  0  0  0  0  0  0
   49.5633    9.1366   21.5969 H   0  0  0  0  0  0  0  0  0  0  0  0
   47.4952    5.1495   14.8967 H   0  0  0  0  0  0  0  0  0  0  0  0
   50.2115    6.0301   18.1389 H   0  0  0  0  0  0  0  0  0  0  0  0
   46.4222    3.4101   16.2827 H   0  0  0  0  0  0  0  0  0  0  0  0
   49.1181    4.2963   19.5102 H   0  0  0  0  0  0  0  0  0  0  0  0
   47.2272    2.9792   18.5886 H   0  0  0  0  0  0  0  0  0  0  0  0
  2  4  1  0
  3  6  1  0
  4  1  1  0
  5  1  1  0
  6  5  1  0
  7  3  2  0
  8  3  1  0
  9  2  2  0
 10  2  1  0
 11  7  1  0
 12  8  2  0
 13  9  1  0
 14 10  2  0
 15 12  1  0
 16 14  1  0
 13 16  2  0
 11 15  2  0
 18 17  1  0
 19 17  1  0
 20 19  1  0
 21 17  1  0
 18 22  1  0
 23 21  1  0
 20 24  1  0
 21 25  1  0
 26 24  1  0
 27 19  2  0
 28 25  2  0
 29 26  2  0
 30 26  1  0
 31 25  1  0
 32 23  1  0
 33 23  1  0
 34 30  1  0
 35 34  2  0
 36 34  1  0
 37 35  1  0
 38 36  2  0
 39 38  1  0
 22 23  1  0
 18 20  1  0
 37 39  2  0
  1 40  1  0
  4 41  1  0
  4 42  1  0
  5 43  1  0
  5 44  1  0
  6 45  1  0
  6 46  1  0
  7 47  1  0
  8 48  1  0
  9 49  1  0
 10 50  1  0
 11 51  1  0
 12 52  1  0
 13 53  1  0
 14 54  1  0
 15 55  1  0
 16 56  1  0
 18 57  1  1
 20 58  1  1
 21 59  1  6
 24 60  1  0
 30 61  1  0
 30 62  1  0
 31 63  1  0
 32 64  1  0
 32 65  1  0
 32 66  1  0
 33 67  1  0
 33 68  1  0
 33 69  1  0
 35 70  1  0
 36 71  1  0
 37 72  1  0
 38 73  1  0
 39 74  1  0
M  END
> <Uni-Dock RESULT> 
ENERGY=   -5.322  LOWER_BOUND=    3.908  UPPER_BOUND=    6.325
INTER + INTRA:          -5.322
INTER:                  -5.322
INTRA:                   0.000
UNBOUND:                 0.000

$$$$

     RDKit          3D

 74 77  0  0  0  0  0  0  0  0999 V2000
   50.5225    8.0219   18.2535 N   0  0  0  0  0  0  0  0  0  0  0  0
   49.3241    5.8475   18.1151 C   0  0  0  0  0  0  0  0  0  0  0  0
   48.6513   11.1471   19.3535 C   0  0  0  0  0  0  0  0  0  0  0  0
   50.5143    6.6109   18.6470 C   0  0  0  0  0  0  0  0  0  0  0  0
   49.5576    8.8218   19.0150 C   0  0  0  0  0  0  0  0  0  0  0  0
   49.6299   10.2928   18.5838 C   0  0  0  0  0  0  0  0  0  0  0  0
   49.0380   11.7686   20.5484 C   0  0  0  0  0  0  0  0  0  0  0  0
   47.3349   11.3052   18.8990 C   0  0  0  0  0  0  0  0  0  0  0  0
   48.2565    5.5077   18.9585 C   0  0  0  0  0  0  0  0  0  0  0  0
   49.2618    5.4815   16.7619 C   0  0  0  0  0  0  0  0  0  0  0  0
   48.1270   12.5418   21.2696 C   0  0  0  0  0  0  0  0  0  0  0  0
   46.4254   12.0790   19.6216 C   0  0  0  0  0  0  0  0  0  0  0  0
   47.1526    4.8145   18.4593 C   0  0  0  0  0  0  0  0  0  0  0  0
   48.1573    4.7878   16.2651 C   0  0  0  0  0  0  0  0  0  0  0  0
   46.8219   12.6975   20.8059 C   0  0  0  0  0  0  0  0  0  0  0  0
   47.1035    4.4543   17.1139 C   0  0  0  0  0  0  0  0  0  0  0  0
   49.1078   11.0945   19.2793 N   0  0  0  0  0  0  0  0  0  0  0  0
   48.4852   10.2037   18.2795 C   0  0  1  0  0  0  0  0  0  0  0  0
   50.3836   10.7495   18.9215 C   0  0  0  0  0  0  0  0  0  0  0  0
   49.8904   10.0022   17.6626 C   0  0  1  0  0  0  0  0  0  0  0  0
   48.6983   10.9492   20.6787 C   0  0  2  0  0  0  0  0  0  0  0  0
   47.7772    8.8511   19.3042 S   0  0  0  0  0  0  0  0  0  0  0  0
   47.4629   10.0241   20.7098 C   0  0  0  0  0  0  0  0  0  0  0  0
   50.3685    8.6036   17.4965 N   0  0  0  0  0  0  0  0  0  0  0  0
   48.4640   12.2867   21.3758 C   0  0  0  0  0  0  0  0  0  0  0  0
   49.8930    7.8212   16.4667 C   0  0  0  0  0  0  0  0  0  0  0  0
   51.4349   10.8823   19.5046 O   0  0  0  0  0  0  0  0  0  0  0  0
   48.1245   12.4272   22.5424 O   0  0  0  0  0  0  0  0  0  0  0  0
   49.1371    8.2644   15.6071 O   0  0  0  0  0  0  0  0  0  0  0  0
   50.3734    6.3827   16.4888 C   0  0  0  0  0  0  0  0  0  0  0  0
   48.6414   13.3725   20.5969 O   0  0  0  0  0  0  0  0  0  0  0  0
   46.1316   10.7403   20.4431 C   0  0  0  0  0  0  0  0  0  0  0  0
   47.3810    9.2156   22.0068 C   0  0  0  0  0  0  0  0  0  0  0  0
   49.2947    5.4254   16.9262 C   0  0  0  0  0  0  0  0  0  0  0  0
   48.4094    4.8822   15.9836 C   0  0  0  0  0  0  0  0  0  0  0  0
   49.1346    5.0946   18.2795 C   0  0  0  0  0  0  0  0  0  0  0  0
   47.3942    4.0122   16.3841 C   0  0  0  0  0  0  0  0  0  0  0  0
   48.1162    4.2261   18.6781 C   0  0  0  0  0  0  0  0  0  0  0  0
   47.2484    3.6834   17.7306 C   0  0  0  0  0  0  0  0  0  0  0  0
   50.3067    8.0873   17.2597 H   0  0  0  0  0  0  0  0  0  0  0  0
   50.5888    6.5088   19.7371 H   0  0  0  0  0  0  0  0  0  0  0  0
   51.4237    6.1402   18.2531 H   0  0  0  0  0  0  0  0  0  0  0  0
   49.7780    8.7462   20.0868 H   0  0  0  0  0  0  0  0  0  0  0  0
   48.5378    8.4511   18.8598 H   0  0  0  0  0  0  0  0  0  0  0  0
   50.6455   10.6832   18.7282 H   0  0  0  0  0  0  0  0  0  0  0  0
   49.4228   10.3859   17.5100 H   0  0  0  0  0  0  0  0  0  0  0  0
   50.0526   11.6540   20.9239 H   0  0  0  0  0  0  0  0  0  0  0  0
   47.0105   10.8256   17.9782 H   0  0  0  0  0  0  0  0  0  0  0  0
   48.2780    5.7854   20.0101 H   0  0  0  0  0  0  0  0  0  0  0  0
   50.0777    5.7348   16.0884 H   0  0  0  0  0  0  0  0  0  0  0  0
   48.4356   13.0228   22.1939 H   0  0  0  0  0  0  0  0  0  0  0  0
   45.4070   12.1975   19.2607 H   0  0  0  0  0  0  0  0  0  0  0  0
   46.3298    4.5557   19.1206 H   0  0  0  0  0  0  0  0  0  0  0  0
   48.1189    4.5076   15.2159 H   0  0  0  0  0  0  0  0  0  0  0  0
   46.1137   13.3002   21.3680 H   0  0  0  0  0  0  0  0  0  0  0  0
   46.2436    3.9142   16.7270 H   0  0  0  0  0  0  0  0  0  0  0  0
   47.7653   10.7254   17.6417 H   0  0  0  0  0  0  0  0  0  0  0  0
   50.0683   10.5892   16.7522 H   0  0  0  0  0  0  0  0  0  0  0  0
   49.5341   10.4807   21.2175 H   0  0  0  0  0  0  0  0  0  0  0  0
   50.8677    8.1560   18.2583 H   0  0  0  0  0  0  0  0  0  0  0  0
   50.7265    6.1286   15.4817 H   0  0  0  0  0  0  0  0  0  0  0  0
   51.2498    6.2824   17.1405 H   0  0  0  0  0  0  0  0  0  0  0  0
   48.4874   14.1358   21.1917 H   0  0  0  0  0  0  0  0  0  0  0  0
   45.3106   10.0280   20.3083 H   0  0  0  0  0  0  0  0  0  0  0  0
   46.1745   11.3766   19.5538 H   0  0  0  0  0  0  0  0  0  0  0  0
   45.8545   11.3827   21.2861 H   0  0  0  0  0  0  0  0  0  0  0  0
   46.5471    8.5038   21.9865 H   0  0  0  0  0  0  0  0  0  0  0  0
   47.2254    9.8738   22.8687 H   0  0  0  0  0  0  0  0  0  0  0  0
   48.2996    8.6480   22.1935 H   0  0  0  0  0  0  0  0  0  0  0  0
   48.5000    5.1439   14.9308 H   0  0  0  0  0  0  0  0  0  0  0  0
   49.7945    5.5138   19.0360 H   0  0  0  0  0  0  0  0  0  0  0  0
   46.7119    3.5980   15.6455 H   0  0  0  0  0  0  0  0  0  0  0  0
   47.9948    3.9771   19.7297 H   0  0  0  0  0  0  0  0  0  0  0  0
   46.4531    3.0114   18.0412 H   0  0  0  0  0  0  0  0  0  0  0  0
  2  4  1  0
  3  6  1  0
  4  1  1  0
  5  1  1  0
  6  5  1  0
  7  3  2  0
  8  3  1  0
  9  2  2  0
 10  2  1  0
 11  7  1  0
 12  8  2  0
 13  9  1  0
 14 10  2  0
 15 12  1  0
 16 14  1  0
 13 16  2  0
 11 15  2  0
 18 17  1  0
 19 17  1  0
 20 19  1  0
 21 17  1  0
 18 22  1  0
 23 21  1  0
 20 24  1  0
 21 25  1  0
 26 24  1  0
 27 19  2  0
 28 25  2  0
 29 26  2  0
 30 26  1  0
 31 25  1  0
 32 23  1  0
 33 23  1  0
 34 30  1  0
 35 34  2  0
 36 34  1  0
 37 35  1  0
 38 36  2  0
 39 38  1  0
 22 23  1  0
 18 20  1  0
 37 39  2  0
  1 40  1  0
  4 41  1  0
  4 42  1  0
  5 43  1  0
  5 44  1  0
  6 45  1  0
  6 46  1  0
  7 47  1  0
  8 48  1  0
  9 49  1  0
 10 50  1  0
 11 51  1  0
 12 52  1  0
 13 53  1  0
 14 54  1  0
 15 55  1  0
 16 56  1  0
 18 57  1  1
 20 58  1  1
 21 59  1  6
 24 60  1  0
 30 61  1  0
 30 62  1  0
 31 63  1  0
 32 64  1  0
 32 65  1  0
 32 66  1  0
 33 67  1  0
 33 68  1  0
 33 69  1  0
 35 70  1  0
 36 71  1  0
 37 72  1  0
 38 73  1  0
 39 74  1  0
M  END
> <Uni-Dock RESULT> 
ENERGY=   -5.302  LOWER_BOUND=    4.001  UPPER_BOUND=    6.404
INTER + INTRA:          -5.302
INTER:                  -5.302
INTRA:                   0.000
UNBOUND:                 0.000

$$$$

     RDKit          3D

 74 77  0  0  0  0  0  0  0  0999 V2000
   48.9799    7.1087   18.8267 N   0  0  0  0  0  0  0  0  0  0  0  0
   47.5747    9.1015   19.3143 C   0  0  0  0  0  0  0  0  0  0  0  0
   51.9125    6.2601   21.0979 C   0  0  0  0  0  0  0  0  0  0  0  0
   47.6216    7.6190   19.0273 C   0  0  0  0  0  0  0  0  0  0  0  0
   49.7210    6.9781   20.0855 C   0  0  0  0  0  0  0  0  0  0  0  0
   51.1229    6.4129   19.8201 C   0  0  0  0  0  0  0  0  0  0  0  0
   51.8699    5.0598   21.8197 C   0  0  0  0  0  0  0  0  0  0  0  0
   52.6744    7.3266   21.5947 C   0  0  0  0  0  0  0  0  0  0  0  0
   47.3395    9.5719   20.6142 C   0  0  0  0  0  0  0  0  0  0  0  0
   47.7836   10.0315   18.2844 C   0  0  0  0  0  0  0  0  0  0  0  0
   52.5843    4.9262   23.0113 C   0  0  0  0  0  0  0  0  0  0  0  0
   53.3882    7.1908   22.7864 C   0  0  0  0  0  0  0  0  0  0  0  0
   47.3110   10.9425   20.8770 C   0  0  0  0  0  0  0  0  0  0  0  0
   47.7539   11.4015   18.5494 C   0  0  0  0  0  0  0  0  0  0  0  0
   53.3436    5.9908   23.4936 C   0  0  0  0  0  0  0  0  0  0  0  0
   47.5174   11.8564   19.8452 C   0  0  0  0  0  0  0  0  0  0  0  0
   51.7363    6.0096   20.7474 N   0  0  0  0  0  0  0  0  0  0  0  0
   51.5564    7.4068   20.3047 C   0  0  1  0  0  0  0  0  0  0  0  0
   51.1291    5.4871   19.6369 C   0  0  0  0  0  0  0  0  0  0  0  0
   51.1241    6.8576   18.9238 C   0  0  1  0  0  0  0  0  0  0  0  0
   51.2337    5.6386   22.0729 C   0  0  2  0  0  0  0  0  0  0  0  0
   50.2569    8.0435   21.4391 S   0  0  0  0  0  0  0  0  0  0  0  0
   50.8544    6.9411   22.8095 C   0  0  0  0  0  0  0  0  0  0  0  0
   49.8154    7.3162   18.3862 N   0  0  0  0  0  0  0  0  0  0  0  0
   52.2082    4.7662   22.8599 C   0  0  0  0  0  0  0  0  0  0  0  0
   49.6890    8.5730   17.8354 C   0  0  0  0  0  0  0  0  0  0  0  0
   50.6622    4.3909   19.4292 O   0  0  0  0  0  0  0  0  0  0  0  0
   52.0139    4.3243   23.9836 O   0  0  0  0  0  0  0  0  0  0  0  0
   50.6522    9.3191   17.6869 O   0  0  0  0  0  0  0  0  0  0  0  0
   48.2751    8.9523   17.4382 C   0  0  0  0  0  0  0  0  0  0  0  0
   53.3709    4.5027   22.2307 O   0  0  0  0  0  0  0  0  0  0  0  0
   52.0323    7.6398   23.5028 C   0  0  0  0  0  0  0  0  0  0  0  0
   49.7050    6.7302   23.7979 C   0  0  0  0  0  0  0  0  0  0  0  0
   47.6627    9.9516   18.3857 C   0  0  0  0  0  0  0  0  0  0  0  0
   47.8522   11.3261   18.1801 C   0  0  0  0  0  0  0  0  0  0  0  0
   46.9311    9.5255   19.5035 C   0  0  0  0  0  0  0  0  0  0  0  0
   47.3067   12.2568   19.0656 C   0  0  0  0  0  0  0  0  0  0  0  0
   46.3886   10.4586   20.3897 C   0  0  0  0  0  0  0  0  0  0  0  0
   46.5742   11.8232   20.1692 C   0  0  0  0  0  0  0  0  0  0  0  0
   49.4801    7.7413   18.2038 H   0  0  0  0  0  0  0  0  0  0  0  0
   47.1031    7.0526   19.8112 H   0  0  0  0  0  0  0  0  0  0  0  0
   47.0467    7.4318   18.1117 H   0  0  0  0  0  0  0  0  0  0  0  0
   49.1815    6.3069   20.7649 H   0  0  0  0  0  0  0  0  0  0  0  0
   49.8134    7.9497   20.5843 H   0  0  0  0  0  0  0  0  0  0  0  0
   51.0529    5.4398   19.3170 H   0  0  0  0  0  0  0  0  0  0  0  0
   51.6736    7.0671   19.1320 H   0  0  0  0  0  0  0  0  0  0  0  0
   51.2796    4.2212   21.4567 H   0  0  0  0  0  0  0  0  0  0  0  0
   52.7157    8.2700   21.0551 H   0  0  0  0  0  0  0  0  0  0  0  0
   47.1808    8.8712   21.4311 H   0  0  0  0  0  0  0  0  0  0  0  0
   47.9685    9.6902   17.2682 H   0  0  0  0  0  0  0  0  0  0  0  0
   52.5482    3.9910   23.5636 H   0  0  0  0  0  0  0  0  0  0  0  0
   53.9778    8.0226   23.1633 H   0  0  0  0  0  0  0  0  0  0  0  0
   47.1283   11.2976   21.8878 H   0  0  0  0  0  0  0  0  0  0  0  0
   47.9155   12.1139   17.7448 H   0  0  0  0  0  0  0  0  0  0  0  0
   53.8997    5.8853   24.4212 H   0  0  0  0  0  0  0  0  0  0  0  0
   47.4944   12.9230   20.0515 H   0  0  0  0  0  0  0  0  0  0  0  0
   52.4924    7.9736   20.3100 H   0  0  0  0  0  0  0  0  0  0  0  0
   51.9059    6.9126   18.1551 H   0  0  0  0  0  0  0  0  0  0  0  0
   50.3401    5.0165   21.9220 H   0  0  0  0  0  0  0  0  0  0  0  0
   48.9738    6.8003   18.6219 H   0  0  0  0  0  0  0  0  0  0  0  0
   48.3077    9.3592   16.4200 H   0  0  0  0  0  0  0  0  0  0  0  0
   47.6426    8.0584   17.3765 H   0  0  0  0  0  0  0  0  0  0  0  0
   53.8608    3.9166   22.8444 H   0  0  0  0  0  0  0  0  0  0  0  0
   51.7539    8.6352   23.8653 H   0  0  0  0  0  0  0  0  0  0  0  0
   52.8955    7.7524   22.8397 H   0  0  0  0  0  0  0  0  0  0  0  0
   52.3688    7.0706   24.3762 H   0  0  0  0  0  0  0  0  0  0  0  0
   49.3890    7.6747   24.2567 H   0  0  0  0  0  0  0  0  0  0  0  0
   50.0059    6.0592   24.6100 H   0  0  0  0  0  0  0  0  0  0  0  0
   48.8280    6.2835   23.3160 H   0  0  0  0  0  0  0  0  0  0  0  0
   48.4369   11.6789   17.3324 H   0  0  0  0  0  0  0  0  0  0  0  0
   46.7821    8.4657   19.6993 H   0  0  0  0  0  0  0  0  0  0  0  0
   47.4610   13.3202   18.8981 H   0  0  0  0  0  0  0  0  0  0  0  0
   45.8259   10.1213   21.2569 H   0  0  0  0  0  0  0  0  0  0  0  0
   46.1562   12.5492   20.8612 H   0  0  0  0  0  0  0  0  0  0  0  0
  2  4  1  0
  3  6  1  0
  4  1  1  0
  5  1  1  0
  6  5  1  0
  7  3  2  0
  8  3  1  0
  9  2  2  0
 10  2  1  0
 11  7  1  0
 12  8  2  0
 13  9  1  0
 14 10  2  0
 15 12  1  0
 16 14  1  0
 13 16  2  0
 11 15  2  0
 18 17  1  0
 19 17  1  0
 20 19  1  0
 21 17  1  0
 18 22  1  0
 23 21  1  0
 20 24  1  0
 21 25  1  0
 26 24  1  0
 27 19  2  0
 28 25  2  0
 29 26  2  0
 30 26  1  0
 31 25  1  0
 32 23  1  0
 33 23  1  0
 34 30  1  0
 35 34  2  0
 36 34  1  0
 37 35  1  0
 38 36  2  0
 39 38  1  0
 22 23  1  0
 18 20  1  0
 37 39  2  0
  1 40  1  0
  4 41  1  0
  4 42  1  0
  5 43  1  0
  5 44  1  0
  6 45  1  0
  6 46  1  0
  7 47  1  0
  8 48  1  0
  9 49  1  0
 10 50  1  0
 11 51  1  0
 12 52  1  0
 13 53  1  0
 14 54  1  0
 15 55  1  0
 16 56  1  0
 18 57  1  1
 20 58  1  1
 21 59  1  6
 24 60  1  0
 30 61  1  0
 30 62  1  0
 31 63  1  0
 32 64  1  0
 32 65  1  0
 32 66  1  0
 33 67  1  0
 33 68  1  0
 33 69  1  0
 35 70  1  0
 36 71  1  0
 37 72  1  0
 38 73  1  0
 39 74  1  0
M  END
> <Uni-Dock RESULT> 
ENERGY=   -5.107  LOWER_BOUND=    4.244  UPPER_BOUND=    6.190
INTER + INTRA:          -5.107
INTER:                  -5.107
INTRA:                   0.000
UNBOUND:                 0.000

$$$$
