
     RDKit          3D

 74 77  0  0  0  0  0  0  0  0999 V2000
   52.5236    4.8787   18.7261 N   0  0  0  0  0  0  0  0  0  0  0  0
   53.5041    2.6041   18.4016 C   0  0  0  0  0  0  0  0  0  0  0  0
   49.4576    5.2360   18.7607 C   0  0  0  0  0  0  0  0  0  0  0  0
   52.7485    3.5514   19.3035 C   0  0  0  0  0  0  0  0  0  0  0  0
   51.6769    4.8783   17.5250 C   0  0  0  0  0  0  0  0  0  0  0  0
   50.2150    4.4377   17.7241 C   0  0  0  0  0  0  0  0  0  0  0  0
   48.9633    4.6121   19.9144 C   0  0  0  0  0  0  0  0  0  0  0  0
   49.2297    6.6074   18.5823 C   0  0  0  0  0  0  0  0  0  0  0  0
   54.7566    2.9599   17.8804 C   0  0  0  0  0  0  0  0  0  0  0  0
   52.9737    1.3448   18.0862 C   0  0  0  0  0  0  0  0  0  0  0  0
   48.2661    5.3476   20.8745 C   0  0  0  0  0  0  0  0  0  0  0  0
   48.5359    7.3427   19.5449 C   0  0  0  0  0  0  0  0  0  0  0  0
   55.4589    2.0812   17.0541 C   0  0  0  0  0  0  0  0  0  0  0  0
   53.6782    0.4651   17.2615 C   0  0  0  0  0  0  0  0  0  0  0  0
   48.0557    6.7130   20.6912 C   0  0  0  0  0  0  0  0  0  0  0  0
   54.9195    0.8338   16.7458 C   0  0  0  0  0  0  0  0  0  0  0  0
   49.3813    5.7785   17.9700 N   0  0  0  0  0  0  0  0  0  0  0  0
   49.5751    4.3618   18.3273 C   0  0  1  0  0  0  0  0  0  0  0  0
   50.6014    5.8875   17.3693 C   0  0  0  0  0  0  0  0  0  0  0  0
   50.7884    4.3532   17.3577 C   0  0  1  0  0  0  0  0  0  0  0  0
   48.9679    6.6823   19.0353 C   0  0  2  0  0  0  0  0  0  0  0  0
   49.9304    4.3666   20.1327 S   0  0  0  0  0  0  0  0  0  0  0  0
   49.5841    6.1731   20.3575 C   0  0  0  0  0  0  0  0  0  0  0  0
   52.0918    3.8548   17.8707 N   0  0  0  0  0  0  0  0  0  0  0  0
   47.4424    6.7256   19.0351 C   0  0  0  0  0  0  0  0  0  0  0  0
   52.2969    2.5050   18.0681 C   0  0  0  0  0  0  0  0  0  0  0  0
   51.2725    6.8554   17.0962 O   0  0  0  0  0  0  0  0  0  0  0  0
   46.6726    5.8397   18.6990 O   0  0  0  0  0  0  0  0  0  0  0  0
   51.4139    1.6733   17.8664 O   0  0  0  0  0  0  0  0  0  0  0  0
   53.6881    2.1387   18.5495 C   0  0  0  0  0  0  0  0  0  0  0  0
   46.9559    7.8997   19.4958 O   0  0  0  0  0  0  0  0  0  0  0  0
   50.9273    6.8678   20.6381 C   0  0  0  0  0  0  0  0  0  0  0  0
   48.6874    6.3323   21.5925 C   0  0  0  0  0  0  0  0  0  0  0  0
   54.5004    1.4383   17.4902 C   0  0  0  0  0  0  0  0  0  0  0  0
   55.4248    2.1451   16.7080 C   0  0  0  0  0  0  0  0  0  0  0  0
   54.3213    0.0662   17.2586 C   0  0  0  0  0  0  0  0  0  0  0  0
   56.1665    1.4859   15.7248 C   0  0  0  0  0  0  0  0  0  0  0  0
   55.0635   -0.5896   16.2751 C   0  0  0  0  0  0  0  0  0  0  0  0
   55.9879    0.1193   15.5106 C   0  0  0  0  0  0  0  0  0  0  0  0
   52.0703    5.4588   19.4336 H   0  0  0  0  0  0  0  0  0  0  0  0
   53.3437    3.6727   20.2173 H   0  0  0  0  0  0  0  0  0  0  0  0
   51.8010    3.1075   19.6281 H   0  0  0  0  0  0  0  0  0  0  0  0
   52.1308    4.2673   16.7362 H   0  0  0  0  0  0  0  0  0  0  0  0
   51.6878    5.9027   17.1329 H   0  0  0  0  0  0  0  0  0  0  0  0
   49.6835    4.5341   16.7683 H   0  0  0  0  0  0  0  0  0  0  0  0
   50.1806    3.3698   17.9728 H   0  0  0  0  0  0  0  0  0  0  0  0
   49.1159    3.5474   20.0729 H   0  0  0  0  0  0  0  0  0  0  0  0
   49.5897    7.1140   17.6900 H   0  0  0  0  0  0  0  0  0  0  0  0
   55.1790    3.9357   18.1114 H   0  0  0  0  0  0  0  0  0  0  0  0
   52.0063    1.0416   18.4785 H   0  0  0  0  0  0  0  0  0  0  0  0
   47.8849    4.8539   21.7648 H   0  0  0  0  0  0  0  0  0  0  0  0
   48.3680    8.4070   19.3974 H   0  0  0  0  0  0  0  0  0  0  0  0
   56.4237    2.3729   16.6491 H   0  0  0  0  0  0  0  0  0  0  0  0
   53.2578   -0.5076   17.0200 H   0  0  0  0  0  0  0  0  0  0  0  0
   47.5136    7.2849   21.4397 H   0  0  0  0  0  0  0  0  0  0  0  0
   55.4654    0.1504   16.1010 H   0  0  0  0  0  0  0  0  0  0  0  0
   48.7350    3.7287   18.0273 H   0  0  0  0  0  0  0  0  0  0  0  0
   50.5693    3.9285   16.3697 H   0  0  0  0  0  0  0  0  0  0  0  0
   49.3273    7.6878   18.7834 H   0  0  0  0  0  0  0  0  0  0  0  0
   52.8857    4.4839   17.9058 H   0  0  0  0  0  0  0  0  0  0  0  0
   54.2195    3.0325   18.8998 H   0  0  0  0  0  0  0  0  0  0  0  0
   53.5825    1.4951   19.4320 H   0  0  0  0  0  0  0  0  0  0  0  0
   45.9818    7.7925   19.4373 H   0  0  0  0  0  0  0  0  0  0  0  0
   50.7801    7.9472   20.7616 H   0  0  0  0  0  0  0  0  0  0  0  0
   51.6511    6.7287   19.8292 H   0  0  0  0  0  0  0  0  0  0  0  0
   51.3899    6.4977   21.5605 H   0  0  0  0  0  0  0  0  0  0  0  0
   47.7452    5.7802   21.4985 H   0  0  0  0  0  0  0  0  0  0  0  0
   48.4437    7.3875   21.7618 H   0  0  0  0  0  0  0  0  0  0  0  0
   49.1855    5.9715   22.5005 H   0  0  0  0  0  0  0  0  0  0  0  0
   55.5803    3.2110   16.8558 H   0  0  0  0  0  0  0  0  0  0  0  0
   53.5926   -0.4982   17.8395 H   0  0  0  0  0  0  0  0  0  0  0  0
   56.8847    2.0374   15.1235 H   0  0  0  0  0  0  0  0  0  0  0  0
   54.9159   -1.6536   16.1033 H   0  0  0  0  0  0  0  0  0  0  0  0
   56.5664   -0.3920   14.7441 H   0  0  0  0  0  0  0  0  0  0  0  0
  2  4  1  0
  3  6  1  0
  4  1  1  0
  5  1  1  0
  6  5  1  0
  7  3  2  0
  8  3  1  0
  9  2  2  0
 10  2  1  0
 11  7  1  0
 12  8  2  0
 13  9  1  0
 14 10  2  0
 15 12  1  0
 16 14  1  0
 13 16  2  0
 11 15  2  0
 18 17  1  0
 19 17  1  0
 20 19  1  0
 21 17  1  0
 18 22  1  0
 23 21  1  0
 20 24  1  0
 21 25  1  0
 26 24  1  0
 27 19  2  0
 28 25  2  0
 29 26  2  0
 30 26  1  0
 31 25  1  0
 32 23  1  0
 33 23  1  0
 34 30  1  0
 35 34  2  0
 36 34  1  0
 37 35  1  0
 38 36  2  0
 39 38  1  0
 22 23  1  0
 18 20  1  0
 37 39  2  0
  1 40  1  0
  4 41  1  0
  4 42  1  0
  5 43  1  0
  5 44  1  0
  6 45  1  0
  6 46  1  0
  7 47  1  0
  8 48  1  0
  9 49  1  0
 10 50  1  0
 11 51  1  0
 12 52  1  0
 13 53  1  0
 14 54  1  0
 15 55  1  0
 16 56  1  0
 18 57  1  1
 20 58  1  1
 21 59  1  6
 24 60  1  0
 30 61  1  0
 30 62  1  0
 31 63  1  0
 32 64  1  0
 32 65  1  0
 32 66  1  0
 33 67  1  0
 33 68  1  0
 33 69  1  0
 35 70  1  0
 36 71  1  0
 37 72  1  0
 38 73  1  0
 39 74  1  0
M  END
> <Uni-Dock RESULT> 
ENERGY=   -5.715  LOWER_BOUND=    0.000  UPPER_BOUND=    0.000
INTER + INTRA:          -5.715
INTER:                  -5.715
INTRA:                   0.000
UNBOUND:                 0.000

$$$$

     RDKit          3D

 74 77  0  0  0  0  0  0  0  0999 V2000
   49.6837    8.3143   19.6796 N   0  0  0  0  0  0  0  0  0  0  0  0
   48.8046    6.0085   19.2915 C   0  0  0  0  0  0  0  0  0  0  0  0
   48.0346   10.7582   18.7645 C   0  0  0  0  0  0  0  0  0  0  0  0
   48.6837    7.3097   20.0489 C   0  0  0  0  0  0  0  0  0  0  0  0
   49.5902    8.7750   18.2873 C   0  0  0  0  0  0  0  0  0  0  0  0
   48.3095    9.5419   17.9096 C   0  0  0  0  0  0  0  0  0  0  0  0
   46.8807   10.8217   19.5575 C   0  0  0  0  0  0  0  0  0  0  0  0
   48.9217   11.8434   18.7719 C   0  0  0  0  0  0  0  0  0  0  0  0
   50.0116    5.2943   19.2862 C   0  0  0  0  0  0  0  0  0  0  0  0
   47.7055    5.4834   18.5965 C   0  0  0  0  0  0  0  0  0  0  0  0
   46.6261   11.9425   20.3499 C   0  0  0  0  0  0  0  0  0  0  0  0
   48.6682   12.9619   19.5676 C   0  0  0  0  0  0  0  0  0  0  0  0
   50.1210    4.0874   18.5936 C   0  0  0  0  0  0  0  0  0  0  0  0
   47.8150    4.2746   17.9059 C   0  0  0  0  0  0  0  0  0  0  0  0
   47.5214   13.0105   20.3574 C   0  0  0  0  0  0  0  0  0  0  0  0
   49.0221    3.5778   17.9044 C   0  0  0  0  0  0  0  0  0  0  0  0
   48.6508   11.0907   18.1047 N   0  0  0  0  0  0  0  0  0  0  0  0
   47.6472   10.0203   18.2437 C   0  0  1  0  0  0  0  0  0  0  0  0
   49.6928   10.2202   17.9706 C   0  0  0  0  0  0  0  0  0  0  0  0
   48.7337    9.0293   17.7442 C   0  0  1  0  0  0  0  0  0  0  0  0
   48.6517   12.1369   19.1187 C   0  0  2  0  0  0  0  0  0  0  0  0
   47.2258    9.9871   20.0345 S   0  0  0  0  0  0  0  0  0  0  0  0
   48.2020   11.5051   20.4550 C   0  0  0  0  0  0  0  0  0  0  0  0
   49.0032    7.8156   18.5595 N   0  0  0  0  0  0  0  0  0  0  0  0
   47.7429   13.2582   18.6229 C   0  0  0  0  0  0  0  0  0  0  0  0
   48.1105    6.7638   18.5661 C   0  0  0  0  0  0  0  0  0  0  0  0
   50.8835   10.3731   18.1139 O   0  0  0  0  0  0  0  0  0  0  0  0
   46.7662   13.1590   17.8973 O   0  0  0  0  0  0  0  0  0  0  0  0
   47.0543    6.7990   17.9375 O   0  0  0  0  0  0  0  0  0  0  0  0
   48.5381    5.5744   19.4051 C   0  0  0  0  0  0  0  0  0  0  0  0
   48.1043   14.4697   19.1014 O   0  0  0  0  0  0  0  0  0  0  0  0
   49.4172   11.0559   21.2838 C   0  0  0  0  0  0  0  0  0  0  0  0
   47.3216   12.4052   21.3321 C   0  0  0  0  0  0  0  0  0  0  0  0
   48.9236    4.3835   18.5651 C   0  0  0  0  0  0  0  0  0  0  0  0
   50.2683    4.1141   18.2732 C   0  0  0  0  0  0  0  0  0  0  0  0
   47.9316    3.5395   18.0434 C   0  0  0  0  0  0  0  0  0  0  0  0
   50.6121    3.0111   17.4879 C   0  0  0  0  0  0  0  0  0  0  0  0
   48.2783    2.4386   17.2585 C   0  0  0  0  0  0  0  0  0  0  0  0
   49.6181    2.1727   16.9835 C   0  0  0  0  0  0  0  0  0  0  0  0
   49.5601    9.1233   20.2904 H   0  0  0  0  0  0  0  0  0  0  0  0
   48.8097    7.0776   21.1139 H   0  0  0  0  0  0  0  0  0  0  0  0
   47.6726    7.7215   19.9568 H   0  0  0  0  0  0  0  0  0  0  0  0
   49.7214    7.9347   17.5959 H   0  0  0  0  0  0  0  0  0  0  0  0
   50.4566    9.4248   18.1128 H   0  0  0  0  0  0  0  0  0  0  0  0
   48.3907    9.8732   16.8661 H   0  0  0  0  0  0  0  0  0  0  0  0
   47.4492    8.8617   17.9358 H   0  0  0  0  0  0  0  0  0  0  0  0
   46.1699    9.9991   19.5622 H   0  0  0  0  0  0  0  0  0  0  0  0
   49.8174   11.8267   18.1555 H   0  0  0  0  0  0  0  0  0  0  0  0
   50.8750    5.6913   19.8160 H   0  0  0  0  0  0  0  0  0  0  0  0
   46.7569    6.0144   18.5860 H   0  0  0  0  0  0  0  0  0  0  0  0
   45.7272   11.9830   20.9597 H   0  0  0  0  0  0  0  0  0  0  0  0
   49.3653   13.7966   19.5679 H   0  0  0  0  0  0  0  0  0  0  0  0
   51.0644    3.5490   18.5894 H   0  0  0  0  0  0  0  0  0  0  0  0
   46.9586    3.8770   17.3676 H   0  0  0  0  0  0  0  0  0  0  0  0
   47.3228   13.8822   20.9754 H   0  0  0  0  0  0  0  0  0  0  0  0
   49.1078    2.6392   17.3636 H   0  0  0  0  0  0  0  0  0  0  0  0
   46.7919   10.1496   17.5741 H   0  0  0  0  0  0  0  0  0  0  0  0
   48.6525    8.7747   16.6797 H   0  0  0  0  0  0  0  0  0  0  0  0
   49.6694   12.5413   19.1857 H   0  0  0  0  0  0  0  0  0  0  0  0
   49.9216    7.6846   18.9678 H   0  0  0  0  0  0  0  0  0  0  0  0
   49.3685    5.8515   20.0665 H   0  0  0  0  0  0  0  0  0  0  0  0
   47.7062    5.3136   20.0715 H   0  0  0  0  0  0  0  0  0  0  0  0
   47.4500   15.0859   18.7064 H   0  0  0  0  0  0  0  0  0  0  0  0
   50.0412   11.9188   21.5448 H   0  0  0  0  0  0  0  0  0  0  0  0
   50.0535   10.3447   20.7481 H   0  0  0  0  0  0  0  0  0  0  0  0
   49.1132   10.5815   22.2242 H   0  0  0  0  0  0  0  0  0  0  0  0
   46.3870   12.6882   20.8344 H   0  0  0  0  0  0  0  0  0  0  0  0
   47.8528   13.3261   21.5993 H   0  0  0  0  0  0  0  0  0  0  0  0
   47.0511   11.9101   22.2725 H   0  0  0  0  0  0  0  0  0  0  0  0
   51.0604    4.7541   18.6542 H   0  0  0  0  0  0  0  0  0  0  0  0
   46.8793    3.7427   18.2391 H   0  0  0  0  0  0  0  0  0  0  0  0
   51.6562    2.8043   17.2675 H   0  0  0  0  0  0  0  0  0  0  0  0
   47.5009    1.7914   16.8584 H   0  0  0  0  0  0  0  0  0  0  0  0
   49.8882    1.3145   16.3718 H   0  0  0  0  0  0  0  0  0  0  0  0
  2  4  1  0
  3  6  1  0
  4  1  1  0
  5  1  1  0
  6  5  1  0
  7  3  2  0
  8  3  1  0
  9  2  2  0
 10  2  1  0
 11  7  1  0
 12  8  2  0
 13  9  1  0
 14 10  2  0
 15 12  1  0
 16 14  1  0
 13 16  2  0
 11 15  2  0
 18 17  1  0
 19 17  1  0
 20 19  1  0
 21 17  1  0
 18 22  1  0
 23 21  1  0
 20 24  1  0
 21 25  1  0
 26 24  1  0
 27 19  2  0
 28 25  2  0
 29 26  2  0
 30 26  1  0
 31 25  1  0
 32 23  1  0
 33 23  1  0
 34 30  1  0
 35 34  2  0
 36 34  1  0
 37 35  1  0
 38 36  2  0
 39 38  1  0
 22 23  1  0
 18 20  1  0
 37 39  2  0
  1 40  1  0
  4 41  1  0
  4 42  1  0
  5 43  1  0
  5 44  1  0
  6 45  1  0
  6 46  1  0
  7 47  1  0
  8 48  1  0
  9 49  1  0
 10 50  1  0
 11 51  1  0
 12 52  1  0
 13 53  1  0
 14 54  1  0
 15 55  1  0
 16 56  1  0
 18 57  1  1
 20 58  1  1
 21 59  1  6
 24 60  1  0
 30 61  1  0
 30 62  1  0
 31 63  1  0
 32 64  1  0
 32 65  1  0
 32 66  1  0
 33 67  1  0
 33 68  1  0
 33 69  1  0
 35 70  1  0
 36 71  1  0
 37 72  1  0
 38 73  1  0
 39 74  1  0
M  END
> <Uni-Dock RESULT> 
ENERGY=   -5.658  LOWER_BOUND=    3.602  UPPER_BOUND=    5.986
INTER + INTRA:          -5.658
INTER:                  -5.658
INTRA:                   0.000
UNBOUND:                 0.000

$$$$

     RDKit          3D

 74 77  0  0  0  0  0  0  0  0999 V2000
   47.2037    7.9111   13.7326 N   0  0  0  0  0  0  0  0  0  0  0  0
   45.6235    6.7621   12.1760 C   0  0  0  0  0  0  0  0  0  0  0  0
   49.9922    8.7724   12.7266 C   0  0  0  0  0  0  0  0  0  0  0  0
   46.3318    8.0390   12.5625 C   0  0  0  0  0  0  0  0  0  0  0  0
   48.3354    6.9927   13.5439 C   0  0  0  0  0  0  0  0  0  0  0  0
   49.3810    7.4093   12.4933 C   0  0  0  0  0  0  0  0  0  0  0  0
   49.8147    9.7991   11.7891 C   0  0  0  0  0  0  0  0  0  0  0  0
   50.7516    9.0293   13.8762 C   0  0  0  0  0  0  0  0  0  0  0  0
   44.8348    6.0721   13.1082 C   0  0  0  0  0  0  0  0  0  0  0  0
   45.7274    6.2558   10.8723 C   0  0  0  0  0  0  0  0  0  0  0  0
   50.3755   11.0594   12.0035 C   0  0  0  0  0  0  0  0  0  0  0  0
   51.3087   10.2911   14.0916 C   0  0  0  0  0  0  0  0  0  0  0  0
   44.1731    4.8970   12.7488 C   0  0  0  0  0  0  0  0  0  0  0  0
   45.0629    5.0813   10.5128 C   0  0  0  0  0  0  0  0  0  0  0  0
   51.1192   11.3059   13.1560 C   0  0  0  0  0  0  0  0  0  0  0  0
   44.2869    4.4026   11.4508 C   0  0  0  0  0  0  0  0  0  0  0  0
   50.5172    8.1988   13.2929 N   0  0  0  0  0  0  0  0  0  0  0  0
   49.7120    8.1047   12.0620 C   0  0  1  0  0  0  0  0  0  0  0  0
   49.6925    7.3760   14.0030 C   0  0  0  0  0  0  0  0  0  0  0  0
   48.9713    6.9078   12.7185 C   0  0  1  0  0  0  0  0  0  0  0  0
   50.8581    9.5347   13.7639 C   0  0  2  0  0  0  0  0  0  0  0  0
   48.8111    9.7055   11.9545 S   0  0  0  0  0  0  0  0  0  0  0  0
   49.7006   10.4840   13.3817 C   0  0  0  0  0  0  0  0  0  0  0  0
   47.4856    6.9407   12.7602 N   0  0  0  0  0  0  0  0  0  0  0  0
   52.2020    9.9108   13.1461 C   0  0  0  0  0  0  0  0  0  0  0  0
   46.7476    6.7128   11.6172 C   0  0  0  0  0  0  0  0  0  0  0  0
   49.5527    7.2211   15.1939 O   0  0  0  0  0  0  0  0  0  0  0  0
   52.6580    9.5429   12.0751 O   0  0  0  0  0  0  0  0  0  0  0  0
   47.2778    6.5119   10.5260 O   0  0  0  0  0  0  0  0  0  0  0  0
   45.2441    6.7309   11.8189 C   0  0  0  0  0  0  0  0  0  0  0  0
   52.9042   10.7727   13.9150 O   0  0  0  0  0  0  0  0  0  0  0  0
   48.6937   10.6116   14.5372 C   0  0  0  0  0  0  0  0  0  0  0  0
   50.1336   11.8934   12.9566 C   0  0  0  0  0  0  0  0  0  0  0  0
   44.6286    5.3600   11.6999 C   0  0  0  0  0  0  0  0  0  0  0  0
   44.3399    4.5994   12.8418 C   0  0  0  0  0  0  0  0  0  0  0  0
   44.3578    4.8176   10.4346 C   0  0  0  0  0  0  0  0  0  0  0  0
   43.7759    3.3274   12.7179 C   0  0  0  0  0  0  0  0  0  0  0  0
   43.7948    3.5461   10.3139 C   0  0  0  0  0  0  0  0  0  0  0  0
   43.5010    2.8026   11.4552 C   0  0  0  0  0  0  0  0  0  0  0  0
   47.5784    8.8356   13.9506 H   0  0  0  0  0  0  0  0  0  0  0  0
   45.5578    8.7819   12.7926 H   0  0  0  0  0  0  0  0  0  0  0  0
   46.8873    8.4490   11.7118 H   0  0  0  0  0  0  0  0  0  0  0  0
   47.9756    5.9839   13.3107 H   0  0  0  0  0  0  0  0  0  0  0  0
   48.8300    6.8999   14.5186 H   0  0  0  0  0  0  0  0  0  0  0  0
   50.1931    6.6706   12.4907 H   0  0  0  0  0  0  0  0  0  0  0  0
   48.9380    7.3624   11.4909 H   0  0  0  0  0  0  0  0  0  0  0  0
   49.2397    9.6241   10.8831 H   0  0  0  0  0  0  0  0  0  0  0  0
   50.9171    8.2470   14.6131 H   0  0  0  0  0  0  0  0  0  0  0  0
   44.7487    6.4492   14.1252 H   0  0  0  0  0  0  0  0  0  0  0  0
   46.3295    6.7716   10.1285 H   0  0  0  0  0  0  0  0  0  0  0  0
   50.2338   11.8483   11.2693 H   0  0  0  0  0  0  0  0  0  0  0  0
   51.8933   10.4799   14.9889 H   0  0  0  0  0  0  0  0  0  0  0  0
   43.5733    4.3669   13.4832 H   0  0  0  0  0  0  0  0  0  0  0  0
   45.1518    4.6948    9.5009 H   0  0  0  0  0  0  0  0  0  0  0  0
   51.5546   12.2877   13.3225 H   0  0  0  0  0  0  0  0  0  0  0  0
   43.7732    3.4867   11.1715 H   0  0  0  0  0  0  0  0  0  0  0  0
   50.3099    7.8553   11.1806 H   0  0  0  0  0  0  0  0  0  0  0  0
   49.3312    5.9241   12.3908 H   0  0  0  0  0  0  0  0  0  0  0  0
   50.9965    9.4843   14.8511 H   0  0  0  0  0  0  0  0  0  0  0  0
   47.0134    6.9530   13.6570 H   0  0  0  0  0  0  0  0  0  0  0  0
   44.9939    7.1712   12.7923 H   0  0  0  0  0  0  0  0  0  0  0  0
   44.8102    7.4064   11.0708 H   0  0  0  0  0  0  0  0  0  0  0  0
   53.7321   10.9222   13.4091 H   0  0  0  0  0  0  0  0  0  0  0  0
   49.1767   11.0524   15.4173 H   0  0  0  0  0  0  0  0  0  0  0  0
   48.2785    9.6465   14.8434 H   0  0  0  0  0  0  0  0  0  0  0  0
   47.8523   11.2621   14.2714 H   0  0  0  0  0  0  0  0  0  0  0  0
   50.7824   11.8825   12.0733 H   0  0  0  0  0  0  0  0  0  0  0  0
   50.6767   12.3935   13.7669 H   0  0  0  0  0  0  0  0  0  0  0  0
   49.2694   12.5245   12.7165 H   0  0  0  0  0  0  0  0  0  0  0  0
   44.5465    4.9869   13.8365 H   0  0  0  0  0  0  0  0  0  0  0  0
   44.5945    5.3819    9.5332 H   0  0  0  0  0  0  0  0  0  0  0  0
   43.5504    2.7431   13.6063 H   0  0  0  0  0  0  0  0  0  0  0  0
   43.5898    3.1349    9.3279 H   0  0  0  0  0  0  0  0  0  0  0  0
   43.0620    1.8116   11.3610 H   0  0  0  0  0  0  0  0  0  0  0  0
  2  4  1  0
  3  6  1  0
  4  1  1  0
  5  1  1  0
  6  5  1  0
  7  3  2  0
  8  3  1  0
  9  2  2  0
 10  2  1  0
 11  7  1  0
 12  8  2  0
 13  9  1  0
 14 10  2  0
 15 12  1  0
 16 14  1  0
 13 16  2  0
 11 15  2  0
 18 17  1  0
 19 17  1  0
 20 19  1  0
 21 17  1  0
 18 22  1  0
 23 21  1  0
 20 24  1  0
 21 25  1  0
 26 24  1  0
 27 19  2  0
 28 25  2  0
 29 26  2  0
 30 26  1  0
 31 25  1  0
 32 23  1  0
 33 23  1  0
 34 30  1  0
 35 34  2  0
 36 34  1  0
 37 35  1  0
 38 36  2  0
 39 38  1  0
 22 23  1  0
 18 20  1  0
 37 39  2  0
  1 40  1  0
  4 41  1  0
  4 42  1  0
  5 43  1  0
  5 44  1  0
  6 45  1  0
  6 46  1  0
  7 47  1  0
  8 48  1  0
  9 49  1  0
 10 50  1  0
 11 51  1  0
 12 52  1  0
 13 53  1  0
 14 54  1  0
 15 55  1  0
 16 56  1  0
 18 57  1  1
 20 58  1  1
 21 59  1  6
 24 60  1  0
 30 61  1  0
 30 62  1  0
 31 63  1  0
 32 64  1  0
 32 65  1  0
 32 66  1  0
 33 67  1  0
 33 68  1  0
 33 69  1  0
 35 70  1  0
 36 71  1  0
 37 72  1  0
 38 73  1  0
 39 74  1  0
M  END
> <Uni-Dock RESULT> 
ENERGY=   -5.655  LOWER_BOUND=    6.994  UPPER_BOUND=    9.590
INTER + INTRA:          -5.655
INTER:                  -5.655
INTRA:                   0.000
UNBOUND:                 0.000

$$$$

     RDKit          3D

 74 77  0  0  0  0  0  0  0  0999 V2000
   52.0206    6.3882   18.5918 N   0  0  0  0  0  0  0  0  0  0  0  0
   52.2017    3.8970   18.6282 C   0  0  0  0  0  0  0  0  0  0  0  0
   49.5992    7.7297   17.2256 C   0  0  0  0  0  0  0  0  0  0  0  0
   51.4931    5.1325   19.1310 C   0  0  0  0  0  0  0  0  0  0  0  0
   51.8660    6.5322   17.1375 C   0  0  0  0  0  0  0  0  0  0  0  0
   50.4210    6.6185   16.6128 C   0  0  0  0  0  0  0  0  0  0  0  0
   48.4575    7.4329   17.9825 C   0  0  0  0  0  0  0  0  0  0  0  0
   49.9587    9.0717   17.0406 C   0  0  0  0  0  0  0  0  0  0  0  0
   53.5910    3.7640   18.7662 C   0  0  0  0  0  0  0  0  0  0  0  0
   51.4787    2.8536   18.0321 C   0  0  0  0  0  0  0  0  0  0  0  0
   47.6986    8.4571   18.5518 C   0  0  0  0  0  0  0  0  0  0  0  0
   49.2014   10.0949   17.6137 C   0  0  0  0  0  0  0  0  0  0  0  0
   54.2448    2.6185   18.3095 C   0  0  0  0  0  0  0  0  0  0  0  0
   52.1333    1.7067   17.5777 C   0  0  0  0  0  0  0  0  0  0  0  0
   48.0726    9.7872   18.3702 C   0  0  0  0  0  0  0  0  0  0  0  0
   53.5153    1.5900   17.7161 C   0  0  0  0  0  0  0  0  0  0  0  0
   50.0788    8.1767   16.5216 N   0  0  0  0  0  0  0  0  0  0  0  0
   49.5947    6.8229   16.8465 C   0  0  1  0  0  0  0  0  0  0  0  0
   51.3934    7.8139   16.5602 C   0  0  0  0  0  0  0  0  0  0  0  0
   51.0307    6.3113   16.5489 C   0  0  1  0  0  0  0  0  0  0  0  0
   49.5634    9.2776   17.3247 C   0  0  2  0  0  0  0  0  0  0  0  0
   49.0723    6.9104   18.6087 S   0  0  0  0  0  0  0  0  0  0  0  0
   49.2998    8.7440   18.7506 C   0  0  0  0  0  0  0  0  0  0  0  0
   51.7033    5.4740   17.5768 N   0  0  0  0  0  0  0  0  0  0  0  0
   48.3208    9.8169   16.6219 C   0  0  0  0  0  0  0  0  0  0  0  0
   51.3238    4.1618   17.7694 C   0  0  0  0  0  0  0  0  0  0  0  0
   52.3995    8.4728   16.6839 O   0  0  0  0  0  0  0  0  0  0  0  0
   47.5369    9.2001   15.9181 O   0  0  0  0  0  0  0  0  0  0  0  0
   50.4042    3.6476   17.1353 O   0  0  0  0  0  0  0  0  0  0  0  0
   52.1281    3.4163   18.8176 C   0  0  0  0  0  0  0  0  0  0  0  0
   48.1108   11.1287   16.8717 O   0  0  0  0  0  0  0  0  0  0  0  0
   50.5164    8.9879   19.6593 C   0  0  0  0  0  0  0  0  0  0  0  0
   48.0560    9.3228   19.4380 C   0  0  0  0  0  0  0  0  0  0  0  0
   53.0387    2.3765   18.2156 C   0  0  0  0  0  0  0  0  0  0  0  0
   54.3951    2.6515   17.9911 C   0  0  0  0  0  0  0  0  0  0  0  0
   52.5289    1.1216   17.8497 C   0  0  0  0  0  0  0  0  0  0  0  0
   55.2271    1.6818   17.4263 C   0  0  0  0  0  0  0  0  0  0  0  0
   53.3626    0.1550   17.2850 C   0  0  0  0  0  0  0  0  0  0  0  0
   54.7117    0.4339   17.0762 C   0  0  0  0  0  0  0  0  0  0  0  0
   51.5242    7.1590   19.0414 H   0  0  0  0  0  0  0  0  0  0  0  0
   51.6115    5.1526   20.2217 H   0  0  0  0  0  0  0  0  0  0  0  0
   50.4141    5.0615   18.9550 H   0  0  0  0  0  0  0  0  0  0  0  0
   52.3892    5.7233   16.6145 H   0  0  0  0  0  0  0  0  0  0  0  0
   52.4010    7.4469   16.8541 H   0  0  0  0  0  0  0  0  0  0  0  0
   50.4482    6.7774   15.5269 H   0  0  0  0  0  0  0  0  0  0  0  0
   49.9167    5.6549   16.7562 H   0  0  0  0  0  0  0  0  0  0  0  0
   48.1492    6.4012   18.1326 H   0  0  0  0  0  0  0  0  0  0  0  0
   50.8316    9.3311   16.4463 H   0  0  0  0  0  0  0  0  0  0  0  0
   54.1667    4.5672   19.2215 H   0  0  0  0  0  0  0  0  0  0  0  0
   50.4006    2.9286   17.9148 H   0  0  0  0  0  0  0  0  0  0  0  0
   46.8136    8.2165   19.1353 H   0  0  0  0  0  0  0  0  0  0  0  0
   49.4919   11.1324   17.4662 H   0  0  0  0  0  0  0  0  0  0  0  0
   55.3227    2.5323   18.4136 H   0  0  0  0  0  0  0  0  0  0  0  0
   51.5650    0.9045   17.1142 H   0  0  0  0  0  0  0  0  0  0  0  0
   47.4817   10.5837   18.8146 H   0  0  0  0  0  0  0  0  0  0  0  0
   54.0245    0.6990   17.3589 H   0  0  0  0  0  0  0  0  0  0  0  0
   48.8226    6.4703   16.1567 H   0  0  0  0  0  0  0  0  0  0  0  0
   51.1526    5.8754   15.5490 H   0  0  0  0  0  0  0  0  0  0  0  0
   50.3158   10.0761   17.3253 H   0  0  0  0  0  0  0  0  0  0  0  0
   52.5559    5.8088   18.0108 H   0  0  0  0  0  0  0  0  0  0  0  0
   52.7117    4.1201   19.4241 H   0  0  0  0  0  0  0  0  0  0  0  0
   51.4226    2.9440   19.5130 H   0  0  0  0  0  0  0  0  0  0  0  0
   47.2979   11.3401   16.3636 H   0  0  0  0  0  0  0  0  0  0  0  0
   50.7065   10.0628   19.7622 H   0  0  0  0  0  0  0  0  0  0  0  0
   51.4318    8.5315   19.2702 H   0  0  0  0  0  0  0  0  0  0  0  0
   50.3545    8.5910   20.6683 H   0  0  0  0  0  0  0  0  0  0  0  0
   47.1340    9.1022   18.8879 H   0  0  0  0  0  0  0  0  0  0  0  0
   48.1376   10.4115   19.5354 H   0  0  0  0  0  0  0  0  0  0  0  0
   47.9330    8.9214   20.4512 H   0  0  0  0  0  0  0  0  0  0  0  0
   54.8191    3.6174   18.2546 H   0  0  0  0  0  0  0  0  0  0  0  0
   51.4734    0.8942   17.9947 H   0  0  0  0  0  0  0  0  0  0  0  0
   56.2788    1.8984   17.2576 H   0  0  0  0  0  0  0  0  0  0  0  0
   52.9567   -0.8143   17.0041 H   0  0  0  0  0  0  0  0  0  0  0  0
   55.3615   -0.3197   16.6362 H   0  0  0  0  0  0  0  0  0  0  0  0
  2  4  1  0
  3  6  1  0
  4  1  1  0
  5  1  1  0
  6  5  1  0
  7  3  2  0
  8  3  1  0
  9  2  2  0
 10  2  1  0
 11  7  1  0
 12  8  2  0
 13  9  1  0
 14 10  2  0
 15 12  1  0
 16 14  1  0
 13 16  2  0
 11 15  2  0
 18 17  1  0
 19 17  1  0
 20 19  1  0
 21 17  1  0
 18 22  1  0
 23 21  1  0
 20 24  1  0
 21 25  1  0
 26 24  1  0
 27 19  2  0
 28 25  2  0
 29 26  2  0
 30 26  1  0
 31 25  1  0
 32 23  1  0
 33 23  1  0
 34 30  1  0
 35 34  2  0
 36 34  1  0
 37 35  1  0
 38 36  2  0
 39 38  1  0
 22 23  1  0
 18 20  1  0
 37 39  2  0
  1 40  1  0
  4 41  1  0
  4 42  1  0
  5 43  1  0
  5 44  1  0
  6 45  1  0
  6 46  1  0
  7 47  1  0
  8 48  1  0
  9 49  1  0
 10 50  1  0
 11 51  1  0
 12 52  1  0
 13 53  1  0
 14 54  1  0
 15 55  1  0
 16 56  1  0
 18 57  1  1
 20 58  1  1
 21 59  1  6
 24 60  1  0
 30 61  1  0
 30 62  1  0
 31 63  1  0
 32 64  1  0
 32 65  1  0
 32 66  1  0
 33 67  1  0
 33 68  1  0
 33 69  1  0
 35 70  1  0
 36 71  1  0
 37 72  1  0
 38 73  1  0
 39 74  1  0
M  END
> <Uni-Dock RESULT> 
ENERGY=   -5.487  LOWER_BOUND=    2.025  UPPER_BOUND=    2.688
INTER + INTRA:          -5.487
INTER:                  -5.487
INTRA:                   0.000
UNBOUND:                 0.000

$$$$

     RDKit          3D

 74 77  0  0  0  0  0  0  0  0999 V2000
   49.3815    9.0986   17.1968 N   0  0  0  0  0  0  0  0  0  0  0  0
   48.1033    7.8946   18.9736 C   0  0  0  0  0  0  0  0  0  0  0  0
   49.5923    7.8812   14.3679 C   0  0  0  0  0  0  0  0  0  0  0  0
   48.0650    8.6793   17.6835 C   0  0  0  0  0  0  0  0  0  0  0  0
   50.2741    7.9875   16.8386 C   0  0  0  0  0  0  0  0  0  0  0  0
   49.8304    7.1155   15.6496 C   0  0  0  0  0  0  0  0  0  0  0  0
   48.3169    7.9139   13.7877 C   0  0  0  0  0  0  0  0  0  0  0  0
   50.6415    8.5619   13.7351 C   0  0  0  0  0  0  0  0  0  0  0  0
   48.7297    8.4219   20.1123 C   0  0  0  0  0  0  0  0  0  0  0  0
   47.4959    6.6335   19.0591 C   0  0  0  0  0  0  0  0  0  0  0  0
   48.0938    8.6226   12.6058 C   0  0  0  0  0  0  0  0  0  0  0  0
   50.4165    9.2736   12.5554 C   0  0  0  0  0  0  0  0  0  0  0  0
   48.7575    7.7007   21.3070 C   0  0  0  0  0  0  0  0  0  0  0  0
   47.5219    5.9137   20.2556 C   0  0  0  0  0  0  0  0  0  0  0  0
   49.1426    9.3048   11.9921 C   0  0  0  0  0  0  0  0  0  0  0  0
   48.1528    6.4472   21.3781 C   0  0  0  0  0  0  0  0  0  0  0  0
   50.5431    7.7347   14.3603 N   0  0  0  0  0  0  0  0  0  0  0  0
   49.3306    7.1129   14.9221 C   0  0  1  0  0  0  0  0  0  0  0  0
   51.0636    8.0387   15.5842 C   0  0  0  0  0  0  0  0  0  0  0  0
   50.0469    7.1206   16.3002 C   0  0  1  0  0  0  0  0  0  0  0  0
   50.3544    8.7510   13.3336 C   0  0  2  0  0  0  0  0  0  0  0  0
   47.9911    8.3457   14.6541 S   0  0  0  0  0  0  0  0  0  0  0  0
   49.0311    9.4901   13.6328 C   0  0  0  0  0  0  0  0  0  0  0  0
   49.3331    7.7216   17.4576 N   0  0  0  0  0  0  0  0  0  0  0  0
   50.3824    8.0473   11.9797 C   0  0  0  0  0  0  0  0  0  0  0  0
   48.2843    7.0552   18.0566 C   0  0  0  0  0  0  0  0  0  0  0  0
   51.9142    8.8319   15.9147 O   0  0  0  0  0  0  0  0  0  0  0  0
   50.0398    6.9028   11.7283 O   0  0  0  0  0  0  0  0  0  0  0  0
   47.8778    5.9706   17.6435 O   0  0  0  0  0  0  0  0  0  0  0  0
   47.6824    7.7660   19.2540 C   0  0  0  0  0  0  0  0  0  0  0  0
   50.8241    8.8502   10.9859 O   0  0  0  0  0  0  0  0  0  0  0  0
   49.2876   10.7523   14.4734 C   0  0  0  0  0  0  0  0  0  0  0  0
   48.2182    9.8883   12.3938 C   0  0  0  0  0  0  0  0  0  0  0  0
   48.0028    7.0773   20.5561 C   0  0  0  0  0  0  0  0  0  0  0  0
   49.0577    7.5230   21.3651 C   0  0  0  0  0  0  0  0  0  0  0  0
   47.2579    5.9603   20.9633 C   0  0  0  0  0  0  0  0  0  0  0  0
   49.3489    6.8719   22.5662 C   0  0  0  0  0  0  0  0  0  0  0  0
   47.5517    5.3114   22.1637 C   0  0  0  0  0  0  0  0  0  0  0  0
   48.5947    5.7689   22.9663 C   0  0  0  0  0  0  0  0  0  0  0  0
   49.2427    9.6747   16.3652 H   0  0  0  0  0  0  0  0  0  0  0  0
   47.4668    9.5801   17.8698 H   0  0  0  0  0  0  0  0  0  0  0  0
   47.5262    8.1256   16.9067 H   0  0  0  0  0  0  0  0  0  0  0  0
   50.4527    7.3439   17.7077 H   0  0  0  0  0  0  0  0  0  0  0  0
   51.2504    8.4311   16.6077 H   0  0  0  0  0  0  0  0  0  0  0  0
   50.6055    6.3627   15.4548 H   0  0  0  0  0  0  0  0  0  0  0  0
   48.9317    6.5483   15.9212 H   0  0  0  0  0  0  0  0  0  0  0  0
   47.4875    7.3854   14.2512 H   0  0  0  0  0  0  0  0  0  0  0  0
   51.6440    8.5417   14.1557 H   0  0  0  0  0  0  0  0  0  0  0  0
   49.2103    9.3966   20.0604 H   0  0  0  0  0  0  0  0  0  0  0  0
   47.0007    6.2018   18.1930 H   0  0  0  0  0  0  0  0  0  0  0  0
   47.1014    8.6399   12.1627 H   0  0  0  0  0  0  0  0  0  0  0  0
   51.2373    9.8008   12.0751 H   0  0  0  0  0  0  0  0  0  0  0  0
   49.2545    8.1162   22.1790 H   0  0  0  0  0  0  0  0  0  0  0  0
   47.0511    4.9357   20.3115 H   0  0  0  0  0  0  0  0  0  0  0  0
   48.9676    9.8571   11.0725 H   0  0  0  0  0  0  0  0  0  0  0  0
   48.1760    5.8849   22.3077 H   0  0  0  0  0  0  0  0  0  0  0  0
   49.1300    6.1209   14.5072 H   0  0  0  0  0  0  0  0  0  0  0  0
   50.4978    6.1587   16.5759 H   0  0  0  0  0  0  0  0  0  0  0  0
   51.2141    9.4316   13.3703 H   0  0  0  0  0  0  0  0  0  0  0  0
   49.7280    8.5335   17.9182 H   0  0  0  0  0  0  0  0  0  0  0  0
   48.0195    8.8096   19.2887 H   0  0  0  0  0  0  0  0  0  0  0  0
   46.5957    7.8132   19.1086 H   0  0  0  0  0  0  0  0  0  0  0  0
   50.7953    8.2787   10.1882 H   0  0  0  0  0  0  0  0  0  0  0  0
   49.9170   11.4584   13.9191 H   0  0  0  0  0  0  0  0  0  0  0  0
   49.7968   10.5342   15.4171 H   0  0  0  0  0  0  0  0  0  0  0  0
   48.3545   11.2739   14.7162 H   0  0  0  0  0  0  0  0  0  0  0  0
   47.9184    9.0210   11.7944 H   0  0  0  0  0  0  0  0  0  0  0  0
   48.7973   10.5592   11.7488 H   0  0  0  0  0  0  0  0  0  0  0  0
   47.3020   10.4246   12.6690 H   0  0  0  0  0  0  0  0  0  0  0  0
   49.6602    8.3798   21.0734 H   0  0  0  0  0  0  0  0  0  0  0  0
   46.4480    5.5833   20.3396 H   0  0  0  0  0  0  0  0  0  0  0  0
   50.1653    7.2235   23.1917 H   0  0  0  0  0  0  0  0  0  0  0  0
   46.9682    4.4457   22.4693 H   0  0  0  0  0  0  0  0  0  0  0  0
   48.8236    5.2632   23.9019 H   0  0  0  0  0  0  0  0  0  0  0  0
  2  4  1  0
  3  6  1  0
  4  1  1  0
  5  1  1  0
  6  5  1  0
  7  3  2  0
  8  3  1  0
  9  2  2  0
 10  2  1  0
 11  7  1  0
 12  8  2  0
 13  9  1  0
 14 10  2  0
 15 12  1  0
 16 14  1  0
 13 16  2  0
 11 15  2  0
 18 17  1  0
 19 17  1  0
 20 19  1  0
 21 17  1  0
 18 22  1  0
 23 21  1  0
 20 24  1  0
 21 25  1  0
 26 24  1  0
 27 19  2  0
 28 25  2  0
 29 26  2  0
 30 26  1  0
 31 25  1  0
 32 23  1  0
 33 23  1  0
 34 30  1  0
 35 34  2  0
 36 34  1  0
 37 35  1  0
 38 36  2  0
 39 38  1  0
 22 23  1  0
 18 20  1  0
 37 39  2  0
  1 40  1  0
  4 41  1  0
  4 42  1  0
  5 43  1  0
  5 44  1  0
  6 45  1  0
  6 46  1  0
  7 47  1  0
  8 48  1  0
  9 49  1  0
 10 50  1  0
 11 51  1  0
 12 52  1  0
 13 53  1  0
 14 54  1  0
 15 55  1  0
 16 56  1  0
 18 57  1  1
 20 58  1  1
 21 59  1  6
 24 60  1  0
 30 61  1  0
 30 62  1  0
 31 63  1  0
 32 64  1  0
 32 65  1  0
 32 66  1  0
 33 67  1  0
 33 68  1  0
 33 69  1  0
 35 70  1  0
 36 71  1  0
 37 72  1  0
 38 73  1  0
 39 74  1  0
M  END
> <Uni-Dock RESULT> 
ENERGY=   -5.385  LOWER_BOUND=    5.122  UPPER_BOUND=    7.639
INTER + INTRA:          -5.385
INTER:                  -5.385
INTRA:                   0.000
UNBOUND:                 0.000

$$$$

     RDKit          3D

 74 77  0  0  0  0  0  0  0  0999 V2000
   48.7913    8.5988   13.7762 N   0  0  0  0  0  0  0  0  0  0  0  0
   47.5270    6.5437   13.1294 C   0  0  0  0  0  0  0  0  0  0  0  0
   50.5098    8.5982   16.3406 C   0  0  0  0  0  0  0  0  0  0  0  0
   48.8677    7.2232   13.2786 C   0  0  0  0  0  0  0  0  0  0  0  0
   48.2480    8.7188   15.1364 C   0  0  0  0  0  0  0  0  0  0  0  0
   49.0886    8.0886   16.2621 C   0  0  0  0  0  0  0  0  0  0  0  0
   51.5882    7.7262   16.1374 C   0  0  0  0  0  0  0  0  0  0  0  0
   50.7728    9.9451   16.6258 C   0  0  0  0  0  0  0  0  0  0  0  0
   46.5135    7.1252   12.3538 C   0  0  0  0  0  0  0  0  0  0  0  0
   47.2803    5.3099   13.7488 C   0  0  0  0  0  0  0  0  0  0  0  0
   52.9014    8.1949   16.2065 C   0  0  0  0  0  0  0  0  0  0  0  0
   52.0862   10.4135   16.6908 C   0  0  0  0  0  0  0  0  0  0  0  0
   45.2776    6.4932   12.2086 C   0  0  0  0  0  0  0  0  0  0  0  0
   46.0443    4.6769   13.6010 C   0  0  0  0  0  0  0  0  0  0  0  0
   53.1498    9.5387   16.4797 C   0  0  0  0  0  0  0  0  0  0  0  0
   45.0440    5.2688   12.8318 C   0  0  0  0  0  0  0  0  0  0  0  0
   50.0135    9.2617   16.8294 N   0  0  0  0  0  0  0  0  0  0  0  0
   49.9062    7.8346   16.4767 C   0  0  1  0  0  0  0  0  0  0  0  0
   48.8995    9.6126   16.1244 C   0  0  0  0  0  0  0  0  0  0  0  0
   48.4671    8.1360   15.9763 C   0  0  1  0  0  0  0  0  0  0  0  0
   51.2995    9.9077   16.6025 C   0  0  2  0  0  0  0  0  0  0  0  0
   51.2067    7.5555   15.2054 S   0  0  0  0  0  0  0  0  0  0  0  0
   51.9561    9.2422   15.3724 C   0  0  0  0  0  0  0  0  0  0  0  0
   48.0979    7.7030   14.6028 N   0  0  0  0  0  0  0  0  0  0  0  0
   52.1118    9.7791   17.8880 C   0  0  0  0  0  0  0  0  0  0  0  0
   47.8671    6.3713   14.3265 C   0  0  0  0  0  0  0  0  0  0  0  0
   48.5258   10.6828   15.7039 O   0  0  0  0  0  0  0  0  0  0  0  0
   52.0531    8.8873   18.7196 O   0  0  0  0  0  0  0  0  0  0  0  0
   47.9901    5.4956   15.1810 O   0  0  0  0  0  0  0  0  0  0  0  0
   47.4535    6.0829   12.8957 C   0  0  0  0  0  0  0  0  0  0  0  0
   52.9954   10.7896   18.0475 O   0  0  0  0  0  0  0  0  0  0  0  0
   51.6267   10.0214   14.0880 C   0  0  0  0  0  0  0  0  0  0  0  0
   53.4789    9.0758   15.4629 C   0  0  0  0  0  0  0  0  0  0  0  0
   46.0054    5.6792   12.7829 C   0  0  0  0  0  0  0  0  0  0  0  0
   45.0240    6.6139   12.4235 C   0  0  0  0  0  0  0  0  0  0  0  0
   45.6190    4.3595   13.0614 C   0  0  0  0  0  0  0  0  0  0  0  0
   43.6845    6.2289   12.3291 C   0  0  0  0  0  0  0  0  0  0  0  0
   44.2797    3.9780   12.9668 C   0  0  0  0  0  0  0  0  0  0  0  0
   43.3133    4.9115   12.5978 C   0  0  0  0  0  0  0  0  0  0  0  0
   49.7352    8.9882   13.7762 H   0  0  0  0  0  0  0  0  0  0  0  0
   49.3325    7.2447   12.2848 H   0  0  0  0  0  0  0  0  0  0  0  0
   49.5402    6.6250   13.9033 H   0  0  0  0  0  0  0  0  0  0  0  0
   47.2304    8.3139   15.1798 H   0  0  0  0  0  0  0  0  0  0  0  0
   48.1360    9.7916   15.3361 H   0  0  0  0  0  0  0  0  0  0  0  0
   48.6018    8.2947   17.2243 H   0  0  0  0  0  0  0  0  0  0  0  0
   49.0858    6.9965   16.1594 H   0  0  0  0  0  0  0  0  0  0  0  0
   51.4133    6.6743   15.9257 H   0  0  0  0  0  0  0  0  0  0  0  0
   49.9556   10.6405   16.8017 H   0  0  0  0  0  0  0  0  0  0  0  0
   46.6876    8.0849   11.8714 H   0  0  0  0  0  0  0  0  0  0  0  0
   48.0487    4.8348   14.3535 H   0  0  0  0  0  0  0  0  0  0  0  0
   53.7308    7.5101   16.0495 H   0  0  0  0  0  0  0  0  0  0  0  0
   52.2781   11.4613   16.9094 H   0  0  0  0  0  0  0  0  0  0  0  0
   44.4977    6.9591   11.6130 H   0  0  0  0  0  0  0  0  0  0  0  0
   45.8613    3.7223   14.0873 H   0  0  0  0  0  0  0  0  0  0  0  0
   54.1725    9.9027   16.5323 H   0  0  0  0  0  0  0  0  0  0  0  0
   44.0811    4.7776   12.7203 H   0  0  0  0  0  0  0  0  0  0  0  0
   49.9677    7.1755   17.3475 H   0  0  0  0  0  0  0  0  0  0  0  0
   47.6792    7.8734   16.6938 H   0  0  0  0  0  0  0  0  0  0  0  0
   51.1154   10.9760   16.4331 H   0  0  0  0  0  0  0  0  0  0  0  0
   47.8417    8.4005   13.9135 H   0  0  0  0  0  0  0  0  0  0  0  0
   47.6511    6.9532   12.2574 H   0  0  0  0  0  0  0  0  0  0  0  0
   48.0998    5.2838   12.5110 H   0  0  0  0  0  0  0  0  0  0  0  0
   53.4375   10.5861   18.9001 H   0  0  0  0  0  0  0  0  0  0  0  0
   52.0341   11.0378   14.1432 H   0  0  0  0  0  0  0  0  0  0  0  0
   50.5501   10.1115   13.9137 H   0  0  0  0  0  0  0  0  0  0  0  0
   52.0644    9.5461   13.2023 H   0  0  0  0  0  0  0  0  0  0  0  0
   53.7809    8.4475   16.3086 H   0  0  0  0  0  0  0  0  0  0  0  0
   53.9697   10.0496   15.5748 H   0  0  0  0  0  0  0  0  0  0  0  0
   53.8880    8.6163   14.5550 H   0  0  0  0  0  0  0  0  0  0  0  0
   45.2892    7.6466   12.2106 H   0  0  0  0  0  0  0  0  0  0  0  0
   46.3617    3.6221   13.3640 H   0  0  0  0  0  0  0  0  0  0  0  0
   42.9278    6.9562   12.0465 H   0  0  0  0  0  0  0  0  0  0  0  0
   43.9910    2.9524   13.1859 H   0  0  0  0  0  0  0  0  0  0  0  0
   42.2694    4.6140   12.5241 H   0  0  0  0  0  0  0  0  0  0  0  0
  2  4  1  0
  3  6  1  0
  4  1  1  0
  5  1  1  0
  6  5  1  0
  7  3  2  0
  8  3  1  0
  9  2  2  0
 10  2  1  0
 11  7  1  0
 12  8  2  0
 13  9  1  0
 14 10  2  0
 15 12  1  0
 16 14  1  0
 13 16  2  0
 11 15  2  0
 18 17  1  0
 19 17  1  0
 20 19  1  0
 21 17  1  0
 18 22  1  0
 23 21  1  0
 20 24  1  0
 21 25  1  0
 26 24  1  0
 27 19  2  0
 28 25  2  0
 29 26  2  0
 30 26  1  0
 31 25  1  0
 32 23  1  0
 33 23  1  0
 34 30  1  0
 35 34  2  0
 36 34  1  0
 37 35  1  0
 38 36  2  0
 39 38  1  0
 22 23  1  0
 18 20  1  0
 37 39  2  0
  1 40  1  0
  4 41  1  0
  4 42  1  0
  5 43  1  0
  5 44  1  0
  6 45  1  0
  6 46  1  0
  7 47  1  0
  8 48  1  0
  9 49  1  0
 10 50  1  0
 11 51  1  0
 12 52  1  0
 13 53  1  0
 14 54  1  0
 15 55  1  0
 16 56  1  0
 18 57  1  1
 20 58  1  1
 21 59  1  6
 24 60  1  0
 30 61  1  0
 30 62  1  0
 31 63  1  0
 32 64  1  0
 32 65  1  0
 32 66  1  0
 33 67  1  0
 33 68  1  0
 33 69  1  0
 35 70  1  0
 36 71  1  0
 37 72  1  0
 38 73  1  0
 39 74  1  0
M  END
> <Uni-Dock RESULT> 
ENERGY=   -5.317  LOWER_BOUND=    5.529  UPPER_BOUND=    8.065
INTER + INTRA:          -5.317
INTER:                  -5.317
INTRA:                   0.000
UNBOUND:                 0.000

$$$$

     RDKit          3D

 74 77  0  0  0  0  0  0  0  0999 V2000
   48.9955    6.6272   13.3783 N   0  0  0  0  0  0  0  0  0  0  0  0
   46.5657    6.0505   13.4380 C   0  0  0  0  0  0  0  0  0  0  0  0
   49.8780    9.4640   12.5397 C   0  0  0  0  0  0  0  0  0  0  0  0
   47.7094    6.8231   14.0516 C   0  0  0  0  0  0  0  0  0  0  0  0
   49.0285    7.1069   11.9896 C   0  0  0  0  0  0  0  0  0  0  0  0
   48.8673    8.6252   11.7909 C   0  0  0  0  0  0  0  0  0  0  0  0
   49.4597   10.3580   13.5348 C   0  0  0  0  0  0  0  0  0  0  0  0
   51.2453    9.3688   12.2464 C   0  0  0  0  0  0  0  0  0  0  0  0
   46.6496    4.6603   13.2728 C   0  0  0  0  0  0  0  0  0  0  0  0
   45.3927    6.7088   13.0409 C   0  0  0  0  0  0  0  0  0  0  0  0
   50.3913   11.1315   14.2296 C   0  0  0  0  0  0  0  0  0  0  0  0
   52.1763   10.1399   12.9445 C   0  0  0  0  0  0  0  0  0  0  0  0
   45.5893    3.9451   12.7139 C   0  0  0  0  0  0  0  0  0  0  0  0
   44.3313    5.9921   12.4842 C   0  0  0  0  0  0  0  0  0  0  0  0
   51.7491   11.0198   13.9368 C   0  0  0  0  0  0  0  0  0  0  0  0
   44.4303    4.6114   12.3206 C   0  0  0  0  0  0  0  0  0  0  0  0
   50.3489    9.2212   11.7367 N   0  0  0  0  0  0  0  0  0  0  0  0
   48.9598    9.4049   12.1940 C   0  0  1  0  0  0  0  0  0  0  0  0
   50.1890    7.8877   11.4968 C   0  0  0  0  0  0  0  0  0  0  0  0
   48.6512    8.0021   11.6034 C   0  0  1  0  0  0  0  0  0  0  0  0
   51.4063    9.7225   12.6046 C   0  0  2  0  0  0  0  0  0  0  0  0
   49.0726    9.5498   14.0248 S   0  0  0  0  0  0  0  0  0  0  0  0
   50.9249    9.5906   14.0667 C   0  0  0  0  0  0  0  0  0  0  0  0
   47.9858    7.0033   12.4808 N   0  0  0  0  0  0  0  0  0  0  0  0
   51.7119   11.1551   12.1763 C   0  0  0  0  0  0  0  0  0  0  0  0
   46.6454    7.1209   12.7850 C   0  0  0  0  0  0  0  0  0  0  0  0
   50.9966    6.9955   11.3810 O   0  0  0  0  0  0  0  0  0  0  0  0
   50.9446   11.9624   11.6766 O   0  0  0  0  0  0  0  0  0  0  0  0
   45.9633    8.0605   12.3802 O   0  0  0  0  0  0  0  0  0  0  0  0
   46.0914    6.0053   13.6511 C   0  0  0  0  0  0  0  0  0  0  0  0
   52.9903   11.5124   12.4322 O   0  0  0  0  0  0  0  0  0  0  0  0
   51.4007    8.2635   14.6815 C   0  0  0  0  0  0  0  0  0  0  0  0
   51.3515   10.7363   14.9940 C   0  0  0  0  0  0  0  0  0  0  0  0
   45.1652    5.0899   12.8918 C   0  0  0  0  0  0  0  0  0  0  0  0
   45.6254    3.8727   12.3697 C   0  0  0  0  0  0  0  0  0  0  0  0
   43.8289    5.4603   12.6781 C   0  0  0  0  0  0  0  0  0  0  0  0
   44.7588    3.0364   11.6619 C   0  0  0  0  0  0  0  0  0  0  0  0
   42.9656    4.6228   11.9700 C   0  0  0  0  0  0  0  0  0  0  0  0
   43.4295    3.4099   11.4648 C   0  0  0  0  0  0  0  0  0  0  0  0
   49.7090    7.1328   13.9056 H   0  0  0  0  0  0  0  0  0  0  0  0
   47.8114    6.4813   15.0893 H   0  0  0  0  0  0  0  0  0  0  0  0
   47.4681    7.8897   14.1172 H   0  0  0  0  0  0  0  0  0  0  0  0
   48.2771    6.5849   11.3859 H   0  0  0  0  0  0  0  0  0  0  0  0
   49.9943    6.7956   11.5730 H   0  0  0  0  0  0  0  0  0  0  0  0
   48.9639    8.8539   10.7215 H   0  0  0  0  0  0  0  0  0  0  0  0
   47.8495    8.9287   12.0655 H   0  0  0  0  0  0  0  0  0  0  0  0
   48.4043   10.4602   13.7749 H   0  0  0  0  0  0  0  0  0  0  0  0
   51.5961    8.6937   11.4695 H   0  0  0  0  0  0  0  0  0  0  0  0
   47.5552    4.1359   13.5709 H   0  0  0  0  0  0  0  0  0  0  0  0
   45.2991    7.7853   13.1599 H   0  0  0  0  0  0  0  0  0  0  0  0
   50.0565   11.8236   14.9981 H   0  0  0  0  0  0  0  0  0  0  0  0
   53.2349   10.0551   12.7108 H   0  0  0  0  0  0  0  0  0  0  0  0
   45.6709    2.8699   12.5825 H   0  0  0  0  0  0  0  0  0  0  0  0
   43.4274    6.5113   12.1766 H   0  0  0  0  0  0  0  0  0  0  0  0
   52.4736   11.6217   14.4789 H   0  0  0  0  0  0  0  0  0  0  0  0
   43.6055    4.0549   11.8838 H   0  0  0  0  0  0  0  0  0  0  0  0
   48.4559   10.2398   11.6985 H   0  0  0  0  0  0  0  0  0  0  0  0
   48.1799    8.0271   10.6125 H   0  0  0  0  0  0  0  0  0  0  0  0
   52.3067    9.1232   12.4205 H   0  0  0  0  0  0  0  0  0  0  0  0
   48.4690    6.1421   12.7095 H   0  0  0  0  0  0  0  0  0  0  0  0
   46.9090    5.4256   14.0975 H   0  0  0  0  0  0  0  0  0  0  0  0
   45.5614    6.4638   14.4956 H   0  0  0  0  0  0  0  0  0  0  0  0
   53.0477   12.4374   12.1086 H   0  0  0  0  0  0  0  0  0  0  0  0
   52.4960    8.2286   14.7129 H   0  0  0  0  0  0  0  0  0  0  0  0
   51.0635    7.3908   14.1138 H   0  0  0  0  0  0  0  0  0  0  0  0
   51.0445    8.1434   15.7114 H   0  0  0  0  0  0  0  0  0  0  0  0
   50.9638   11.7070   14.6642 H   0  0  0  0  0  0  0  0  0  0  0  0
   52.4441   10.8094   15.0434 H   0  0  0  0  0  0  0  0  0  0  0  0
   50.9970   10.5770   16.0196 H   0  0  0  0  0  0  0  0  0  0  0  0
   46.6576    3.5610   12.5095 H   0  0  0  0  0  0  0  0  0  0  0  0
   43.4557    6.4117   13.0558 H   0  0  0  0  0  0  0  0  0  0  0  0
   45.1193    2.0920   11.2623 H   0  0  0  0  0  0  0  0  0  0  0  0
   41.9317    4.9203   11.8094 H   0  0  0  0  0  0  0  0  0  0  0  0
   42.7565    2.7571   10.9130 H   0  0  0  0  0  0  0  0  0  0  0  0
  2  4  1  0
  3  6  1  0
  4  1  1  0
  5  1  1  0
  6  5  1  0
  7  3  2  0
  8  3  1  0
  9  2  2  0
 10  2  1  0
 11  7  1  0
 12  8  2  0
 13  9  1  0
 14 10  2  0
 15 12  1  0
 16 14  1  0
 13 16  2  0
 11 15  2  0
 18 17  1  0
 19 17  1  0
 20 19  1  0
 21 17  1  0
 18 22  1  0
 23 21  1  0
 20 24  1  0
 21 25  1  0
 26 24  1  0
 27 19  2  0
 28 25  2  0
 29 26  2  0
 30 26  1  0
 31 25  1  0
 32 23  1  0
 33 23  1  0
 34 30  1  0
 35 34  2  0
 36 34  1  0
 37 35  1  0
 38 36  2  0
 39 38  1  0
 22 23  1  0
 18 20  1  0
 37 39  2  0
  1 40  1  0
  4 41  1  0
  4 42  1  0
  5 43  1  0
  5 44  1  0
  6 45  1  0
  6 46  1  0
  7 47  1  0
  8 48  1  0
  9 49  1  0
 10 50  1  0
 11 51  1  0
 12 52  1  0
 13 53  1  0
 14 54  1  0
 15 55  1  0
 16 56  1  0
 18 57  1  1
 20 58  1  1
 21 59  1  6
 24 60  1  0
 30 61  1  0
 30 62  1  0
 31 63  1  0
 32 64  1  0
 32 65  1  0
 32 66  1  0
 33 67  1  0
 33 68  1  0
 33 69  1  0
 35 70  1  0
 36 71  1  0
 37 72  1  0
 38 73  1  0
 39 74  1  0
M  END
> <Uni-Dock RESULT> 
ENERGY=   -5.295  LOWER_BOUND=    6.891  UPPER_BOUND=    9.298
INTER + INTRA:          -5.295
INTER:                  -5.295
INTRA:                   0.000
UNBOUND:                 0.000

$$$$

     RDKit          3D

 74 77  0  0  0  0  0  0  0  0999 V2000
   44.7875   12.5225   10.3715 N   0  0  0  0  0  0  0  0  0  0  0  0
   44.9065   10.4198   11.7150 C   0  0  0  0  0  0  0  0  0  0  0  0
   42.6649   12.8030    8.1477 C   0  0  0  0  0  0  0  0  0  0  0  0
   44.1488   11.6855   11.3899 C   0  0  0  0  0  0  0  0  0  0  0  0
   44.8873   11.8915    9.0480 C   0  0  0  0  0  0  0  0  0  0  0  0
   43.5556   11.5956    8.3340 C   0  0  0  0  0  0  0  0  0  0  0  0
   41.4044   12.8555    8.7583 C   0  0  0  0  0  0  0  0  0  0  0  0
   43.0794   13.8833    7.3567 C   0  0  0  0  0  0  0  0  0  0  0  0
   46.2485   10.4741   12.1187 C   0  0  0  0  0  0  0  0  0  0  0  0
   44.2742    9.1705   11.6370 C   0  0  0  0  0  0  0  0  0  0  0  0
   40.5813   13.9704    8.5903 C   0  0  0  0  0  0  0  0  0  0  0  0
   42.2572   14.9994    7.1925 C   0  0  0  0  0  0  0  0  0  0  0  0
   46.9463    9.3054   12.4277 C   0  0  0  0  0  0  0  0  0  0  0  0
   44.9722    8.0019   11.9488 C   0  0  0  0  0  0  0  0  0  0  0  0
   41.0092   15.0432    7.8104 C   0  0  0  0  0  0  0  0  0  0  0  0
   46.3073    8.0698   12.3432 C   0  0  0  0  0  0  0  0  0  0  0  0
   43.2674   12.8597    7.3999 N   0  0  0  0  0  0  0  0  0  0  0  0
   42.7061   11.8322    8.2952 C   0  0  1  0  0  0  0  0  0  0  0  0
   44.5479   12.6610    7.8266 C   0  0  0  0  0  0  0  0  0  0  0  0
   44.1605   11.3427    8.5345 C   0  0  1  0  0  0  0  0  0  0  0  0
   42.6457   14.1770    7.4275 C   0  0  2  0  0  0  0  0  0  0  0  0
   41.8917   12.7711    9.6520 S   0  0  0  0  0  0  0  0  0  0  0  0
   42.1306   14.4304    8.8620 C   0  0  0  0  0  0  0  0  0  0  0  0
   44.6292   11.1982    9.9380 N   0  0  0  0  0  0  0  0  0  0  0  0
   41.5536   14.1924    6.3617 C   0  0  0  0  0  0  0  0  0  0  0  0
   44.1944   10.1460   10.7169 C   0  0  0  0  0  0  0  0  0  0  0  0
   45.5318   13.3594    7.7495 O   0  0  0  0  0  0  0  0  0  0  0  0
   40.8888   13.2491    5.9635 O   0  0  0  0  0  0  0  0  0  0  0  0
   43.3862    9.3167   10.3030 O   0  0  0  0  0  0  0  0  0  0  0  0
   44.7913   10.0997   12.1108 C   0  0  0  0  0  0  0  0  0  0  0  0
   41.3320   15.4290    5.8627 O   0  0  0  0  0  0  0  0  0  0  0  0
   43.1786   15.1893    9.6934 C   0  0  0  0  0  0  0  0  0  0  0  0
   40.8001   15.1901    8.9467 C   0  0  0  0  0  0  0  0  0  0  0  0
   45.7691    8.9654   12.2834 C   0  0  0  0  0  0  0  0  0  0  0  0
   47.1495    9.1815   12.1662 C   0  0  0  0  0  0  0  0  0  0  0  0
   45.3029    7.6676   12.5418 C   0  0  0  0  0  0  0  0  0  0  0  0
   48.0450    8.1206   12.3215 C   0  0  0  0  0  0  0  0  0  0  0  0
   46.2001    6.6095   12.6958 C   0  0  0  0  0  0  0  0  0  0  0  0
   47.5707    6.8365   12.5888 C   0  0  0  0  0  0  0  0  0  0  0  0
   44.2380   13.3776   10.2746 H   0  0  0  0  0  0  0  0  0  0  0  0
   44.0791   12.2685   12.3169 H   0  0  0  0  0  0  0  0  0  0  0  0
   43.1146   11.4588   11.1083 H   0  0  0  0  0  0  0  0  0  0  0  0
   45.4749   10.9681    9.1070 H   0  0  0  0  0  0  0  0  0  0  0  0
   45.4823   12.5677    8.4220 H   0  0  0  0  0  0  0  0  0  0  0  0
   43.7717   11.1785    7.3417 H   0  0  0  0  0  0  0  0  0  0  0  0
   43.0138   10.8081    8.8721 H   0  0  0  0  0  0  0  0  0  0  0  0
   41.0530   12.0268    9.3680 H   0  0  0  0  0  0  0  0  0  0  0  0
   44.0464   13.8630    6.8599 H   0  0  0  0  0  0  0  0  0  0  0  0
   46.7548   11.4354   12.1788 H   0  0  0  0  0  0  0  0  0  0  0  0
   43.2338    9.0990   11.3297 H   0  0  0  0  0  0  0  0  0  0  0  0
   39.6045   14.0004    9.0663 H   0  0  0  0  0  0  0  0  0  0  0  0
   42.5907   15.8332    6.5792 H   0  0  0  0  0  0  0  0  0  0  0  0
   47.9883    9.3605   12.7297 H   0  0  0  0  0  0  0  0  0  0  0  0
   44.4747    7.0378   11.8824 H   0  0  0  0  0  0  0  0  0  0  0  0
   40.3681   15.9112    7.6810 H   0  0  0  0  0  0  0  0  0  0  0  0
   46.8510    7.1598   12.5819 H   0  0  0  0  0  0  0  0  0  0  0  0
   42.0561   11.1232    7.7743 H   0  0  0  0  0  0  0  0  0  0  0  0
   44.4425   10.4668    7.9363 H   0  0  0  0  0  0  0  0  0  0  0  0
   43.4038   14.9142    7.1349 H   0  0  0  0  0  0  0  0  0  0  0  0
   45.4019   11.7668   10.2652 H   0  0  0  0  0  0  0  0  0  0  0  0
   45.2773   11.0537   12.3508 H   0  0  0  0  0  0  0  0  0  0  0  0
   43.9673   10.0011   12.8288 H   0  0  0  0  0  0  0  0  0  0  0  0
   40.6227   15.2932    5.1977 H   0  0  0  0  0  0  0  0  0  0  0  0
   43.3712   16.1760    9.2558 H   0  0  0  0  0  0  0  0  0  0  0  0
   44.1371   14.6638    9.7451 H   0  0  0  0  0  0  0  0  0  0  0  0
   42.8379   15.3537   10.7223 H   0  0  0  0  0  0  0  0  0  0  0  0
   39.9814   14.6552    8.4518 H   0  0  0  0  0  0  0  0  0  0  0  0
   40.8870   16.1782    8.4802 H   0  0  0  0  0  0  0  0  0  0  0  0
   40.4969   15.3556    9.9876 H   0  0  0  0  0  0  0  0  0  0  0  0
   47.5426   10.1734   11.9569 H   0  0  0  0  0  0  0  0  0  0  0  0
   44.2335    7.4727   12.6149 H   0  0  0  0  0  0  0  0  0  0  0  0
   49.1144    8.2938   12.2334 H   0  0  0  0  0  0  0  0  0  0  0  0
   45.8276    5.6071   12.8951 H   0  0  0  0  0  0  0  0  0  0  0  0
   48.2699    6.0117   12.7091 H   0  0  0  0  0  0  0  0  0  0  0  0
  2  4  1  0
  3  6  1  0
  4  1  1  0
  5  1  1  0
  6  5  1  0
  7  3  2  0
  8  3  1  0
  9  2  2  0
 10  2  1  0
 11  7  1  0
 12  8  2  0
 13  9  1  0
 14 10  2  0
 15 12  1  0
 16 14  1  0
 13 16  2  0
 11 15  2  0
 18 17  1  0
 19 17  1  0
 20 19  1  0
 21 17  1  0
 18 22  1  0
 23 21  1  0
 20 24  1  0
 21 25  1  0
 26 24  1  0
 27 19  2  0
 28 25  2  0
 29 26  2  0
 30 26  1  0
 31 25  1  0
 32 23  1  0
 33 23  1  0
 34 30  1  0
 35 34  2  0
 36 34  1  0
 37 35  1  0
 38 36  2  0
 39 38  1  0
 22 23  1  0
 18 20  1  0
 37 39  2  0
  1 40  1  0
  4 41  1  0
  4 42  1  0
  5 43  1  0
  5 44  1  0
  6 45  1  0
  6 46  1  0
  7 47  1  0
  8 48  1  0
  9 49  1  0
 10 50  1  0
 11 51  1  0
 12 52  1  0
 13 53  1  0
 14 54  1  0
 15 55  1  0
 16 56  1  0
 18 57  1  1
 20 58  1  1
 21 59  1  6
 24 60  1  0
 30 61  1  0
 30 62  1  0
 31 63  1  0
 32 64  1  0
 32 65  1  0
 32 66  1  0
 33 67  1  0
 33 68  1  0
 33 69  1  0
 35 70  1  0
 36 71  1  0
 37 72  1  0
 38 73  1  0
 39 74  1  0
M  END
> <Uni-Dock RESULT> 
ENERGY=   -5.198  LOWER_BOUND=   11.765  UPPER_BOUND=   14.095
INTER + INTRA:          -5.198
INTER:                  -5.198
INTRA:                   0.000
UNBOUND:                 0.000

$$$$

     RDKit          3D

 74 77  0  0  0  0  0  0  0  0999 V2000
   51.8296    7.0411   18.1452 N   0  0  0  0  0  0  0  0  0  0  0  0
   51.5879    4.5686   18.4065 C   0  0  0  0  0  0  0  0  0  0  0  0
   49.8751    8.5887   16.3245 C   0  0  0  0  0  0  0  0  0  0  0  0
   51.0320    5.9429   18.6960 C   0  0  0  0  0  0  0  0  0  0  0  0
   51.9021    7.0566   16.6774 C   0  0  0  0  0  0  0  0  0  0  0  0
   50.5773    7.3080   15.9341 C   0  0  0  0  0  0  0  0  0  0  0  0
   48.6070    8.5491   16.9202 C   0  0  0  0  0  0  0  0  0  0  0  0
   50.4743    9.8339   16.0902 C   0  0  0  0  0  0  0  0  0  0  0  0
   52.9036    4.2400   18.7642 C   0  0  0  0  0  0  0  0  0  0  0  0
   50.7906    3.5920   17.7923 C   0  0  0  0  0  0  0  0  0  0  0  0
   47.9578    9.7301   17.2844 C   0  0  0  0  0  0  0  0  0  0  0  0
   49.8260   11.0141   16.4583 C   0  0  0  0  0  0  0  0  0  0  0  0
   53.4146    2.9674   18.5048 C   0  0  0  0  0  0  0  0  0  0  0  0
   51.3018    2.3180   17.5354 C   0  0  0  0  0  0  0  0  0  0  0  0
   48.5688   10.9617   17.0565 C   0  0  0  0  0  0  0  0  0  0  0  0
   52.6130    2.0067   17.8911 C   0  0  0  0  0  0  0  0  0  0  0  0
   50.5143    8.8824   15.6683 N   0  0  0  0  0  0  0  0  0  0  0  0
   49.7723    7.6591   16.0225 C   0  0  1  0  0  0  0  0  0  0  0  0
   51.7325    8.3292   15.9350 C   0  0  0  0  0  0  0  0  0  0  0  0
   51.1305    6.9065   15.9881 C   0  0  1  0  0  0  0  0  0  0  0  0
   50.0835   10.1258   16.2937 C   0  0  2  0  0  0  0  0  0  0  0  0
   49.0348    8.0060   17.6721 S   0  0  0  0  0  0  0  0  0  0  0  0
   49.5418    9.7882   17.7007 C   0  0  0  0  0  0  0  0  0  0  0  0
   51.5073    6.0865   17.1697 N   0  0  0  0  0  0  0  0  0  0  0  0
   49.0560   10.7732   15.3695 C   0  0  0  0  0  0  0  0  0  0  0  0
   50.8924    4.8745   17.4060 C   0  0  0  0  0  0  0  0  0  0  0  0
   52.8074    8.8361   16.1574 O   0  0  0  0  0  0  0  0  0  0  0  0
   48.2847   10.2141   14.6060 O   0  0  0  0  0  0  0  0  0  0  0  0
   49.9962    4.4441   16.6824 O   0  0  0  0  0  0  0  0  0  0  0  0
   51.4103    4.1268   18.6202 C   0  0  0  0  0  0  0  0  0  0  0  0
   49.0344   12.1204   15.4794 O   0  0  0  0  0  0  0  0  0  0  0  0
   50.6456    9.9357   18.7616 C   0  0  0  0  0  0  0  0  0  0  0  0
   48.3289   10.6176   18.1429 C   0  0  0  0  0  0  0  0  0  0  0  0
   52.2095    2.9039   18.2482 C   0  0  0  0  0  0  0  0  0  0  0  0
   53.6106    2.9441   18.2113 C   0  0  0  0  0  0  0  0  0  0  0  0
   51.5537    1.7106   17.9100 C   0  0  0  0  0  0  0  0  0  0  0  0
   54.3396    1.8059   17.8584 C   0  0  0  0  0  0  0  0  0  0  0  0
   52.2849    0.5752   17.5572 C   0  0  0  0  0  0  0  0  0  0  0  0
   53.6773    0.6220   17.5344 C   0  0  0  0  0  0  0  0  0  0  0  0
   51.4110    7.9207   18.4514 H   0  0  0  0  0  0  0  0  0  0  0  0
   51.0012    6.0567   19.7870 H   0  0  0  0  0  0  0  0  0  0  0  0
   49.9907    6.0196   18.3643 H   0  0  0  0  0  0  0  0  0  0  0  0
   52.3505    6.1280   16.3060 H   0  0  0  0  0  0  0  0  0  0  0  0
   52.6153    7.8449   16.4068 H   0  0  0  0  0  0  0  0  0  0  0  0
   50.7793    7.3483   14.8557 H   0  0  0  0  0  0  0  0  0  0  0  0
   49.9053    6.4526   16.0752 H   0  0  0  0  0  0  0  0  0  0  0  0
   48.1142    7.5975   17.1032 H   0  0  0  0  0  0  0  0  0  0  0  0
   51.4514    9.8945   15.6168 H   0  0  0  0  0  0  0  0  0  0  0  0
   53.5366    4.9885   19.2365 H   0  0  0  0  0  0  0  0  0  0  0  0
   49.7663    3.8181   17.5069 H   0  0  0  0  0  0  0  0  0  0  0  0
   46.9735    9.6887   17.7438 H   0  0  0  0  0  0  0  0  0  0  0  0
   50.3021   11.9744   16.2748 H   0  0  0  0  0  0  0  0  0  0  0  0
   54.4386    2.7288   18.7780 H   0  0  0  0  0  0  0  0  0  0  0  0
   50.6773    1.5686   17.0561 H   0  0  0  0  0  0  0  0  0  0  0  0
   48.0629   11.8805   17.3412 H   0  0  0  0  0  0  0  0  0  0  0  0
   53.0114    1.0165   17.6874 H   0  0  0  0  0  0  0  0  0  0  0  0
   49.0545    7.3594   15.2535 H   0  0  0  0  0  0  0  0  0  0  0  0
   51.3144    6.3566   15.0563 H   0  0  0  0  0  0  0  0  0  0  0  0
   50.9507   10.7959   16.3451 H   0  0  0  0  0  0  0  0  0  0  0  0
   52.3359    6.3301   17.7002 H   0  0  0  0  0  0  0  0  0  0  0  0
   52.0137    4.7919   19.2505 H   0  0  0  0  0  0  0  0  0  0  0  0
   50.5475    3.8418   19.2356 H   0  0  0  0  0  0  0  0  0  0  0  0
   48.3454   12.4000   14.8384 H   0  0  0  0  0  0  0  0  0  0  0  0
   50.9955   10.9738   18.8063 H   0  0  0  0  0  0  0  0  0  0  0  0
   51.5171    9.3074   18.5536 H   0  0  0  0  0  0  0  0  0  0  0  0
   50.2830    9.6741   19.7625 H   0  0  0  0  0  0  0  0  0  0  0  0
   47.4674   10.4849   17.4784 H   0  0  0  0  0  0  0  0  0  0  0  0
   48.5759   11.6853   18.1648 H   0  0  0  0  0  0  0  0  0  0  0  0
   48.0030   10.3461   19.1543 H   0  0  0  0  0  0  0  0  0  0  0  0
   54.1488    3.8559   18.4585 H   0  0  0  0  0  0  0  0  0  0  0  0
   50.4653    1.6630   17.9105 H   0  0  0  0  0  0  0  0  0  0  0  0
   55.4257    1.8410   17.8348 H   0  0  0  0  0  0  0  0  0  0  0  0
   51.7662   -0.3445   17.2958 H   0  0  0  0  0  0  0  0  0  0  0  0
   54.2472   -0.2631   17.2595 H   0  0  0  0  0  0  0  0  0  0  0  0
  2  4  1  0
  3  6  1  0
  4  1  1  0
  5  1  1  0
  6  5  1  0
  7  3  2  0
  8  3  1  0
  9  2  2  0
 10  2  1  0
 11  7  1  0
 12  8  2  0
 13  9  1  0
 14 10  2  0
 15 12  1  0
 16 14  1  0
 13 16  2  0
 11 15  2  0
 18 17  1  0
 19 17  1  0
 20 19  1  0
 21 17  1  0
 18 22  1  0
 23 21  1  0
 20 24  1  0
 21 25  1  0
 26 24  1  0
 27 19  2  0
 28 25  2  0
 29 26  2  0
 30 26  1  0
 31 25  1  0
 32 23  1  0
 33 23  1  0
 34 30  1  0
 35 34  2  0
 36 34  1  0
 37 35  1  0
 38 36  2  0
 39 38  1  0
 22 23  1  0
 18 20  1  0
 37 39  2  0
  1 40  1  0
  4 41  1  0
  4 42  1  0
  5 43  1  0
  5 44  1  0
  6 45  1  0
  6 46  1  0
  7 47  1  0
  8 48  1  0
  9 49  1  0
 10 50  1  0
 11 51  1  0
 12 52  1  0
 13 53  1  0
 14 54  1  0
 15 55  1  0
 16 56  1  0
 18 57  1  1
 20 58  1  1
 21 59  1  6
 24 60  1  0
 30 61  1  0
 30 62  1  0
 31 63  1  0
 32 64  1  0
 32 65  1  0
 32 66  1  0
 33 67  1  0
 33 68  1  0
 33 69  1  0
 35 70  1  0
 36 71  1  0
 37 72  1  0
 38 73  1  0
 39 74  1  0
M  END
> <Uni-Dock RESULT> 
ENERGY=   -5.142  LOWER_BOUND=    2.906  UPPER_BOUND=    3.876
INTER + INTRA:          -5.142
INTER:                  -5.142
INTRA:                   0.000
UNBOUND:                 0.000

$$$$
